0
                    3D
 Structure written by MMmdl.
160169  0  0  1  0            999 V2000
  -30.5416  -14.7580   20.4931 C   0  0  0  0  0  0
  -30.4553  -12.4711   19.4643 C   0  0  0  0  0  0
  -29.5274  -12.5154   18.2295 C   0  0  0  0  0  0
  -28.0544  -12.3136   18.6485 C   0  0  0  0  0  0
  -27.6429  -13.2182   19.8427 C   0  0  2  0  0  0
  -28.6804  -13.1352   20.9817 C   0  0  0  0  0  0
  -25.2521  -13.8152   20.5658 C   0  0  0  0  0  0
  -24.1792  -13.0425   20.9165 C   0  0  0  0  0  0
  -24.6324  -11.6903   20.8687 C   0  0  0  0  0  0
  -23.8976  -10.4295   21.0381 C   0  0  0  0  0  0
  -24.3526   -9.4241   21.9190 C   0  0  0  0  0  0
  -23.6233   -8.2264   22.0754 C   0  0  0  0  0  0
  -22.4223   -8.0268   21.3541 C   0  0  0  0  0  0
  -21.9852   -9.0227   20.4646 C   0  0  0  0  0  0
  -22.7138  -10.2125   20.3044 C   0  0  0  0  0  0
  -21.6876   -6.0701   22.5263 C   0  0  0  0  0  0
  -21.4015   -6.5593   23.8197 C   0  0  0  0  0  0
  -21.3665   -5.6739   24.9158 C   0  0  0  0  0  0
  -21.6054   -4.3005   24.7193 C   0  0  0  0  0  0
  -21.8818   -3.8103   23.4324 C   0  0  0  0  0  0
  -21.9184   -4.6929   22.3389 C   0  0  0  0  0  0
  -22.7804  -13.5282   21.1800 C   0  0  0  0  0  0
  -22.1675   -4.2115   21.0985 F   0  0  0  0  0  0
  -21.5634   -3.4478   25.7711 F   0  0  0  0  0  0
  -29.9780  -13.5088   20.4052 N   0  0  0  0  0  0
  -26.2914  -12.9333   20.3149 N   0  0  0  0  0  0
  -25.9253  -11.6490   20.5633 N   0  0  0  0  0  0
  -22.0357  -12.8350   22.0331 N   0  0  0  0  0  0
  -25.4241  -15.1872   20.4068 N   0  0  0  0  0  0
  -31.7401  -14.9198   20.2444 O   0  0  0  0  0  0
  -21.6635   -6.8840   21.4230 O   0  0  0  0  0  0
  -22.3551  -14.5573   20.6600 O   0  0  0  0  0  0
  -24.6320  -31.8542   23.2008 C   0  0  0  0  0  0
  -25.9150  -32.4800   23.8357 C   0  0  1  0  0  0
  -27.2242  -27.2696   20.1535 C   0  0  0  0  0  0
  -25.5927  -33.8587   24.2293 N   0  0  0  0  0  0
  -23.4303  -30.4802   21.5382 C   0  0  2  0  0  0
  -24.8807  -28.9214   20.1168 C   0  0  0  0  0  0
  -22.7498  -29.4638   22.4885 C   0  0  0  0  0  0
  -18.0282  -28.1432   22.8553 C   0  0  0  0  0  0
  -24.1420  -36.7238   23.2647 C   0  0  0  0  0  0
  -25.9743  -30.7771   21.3769 C   0  0  0  0  0  0
  -26.0499  -29.3966   20.7257 C   0  0  0  0  0  0
  -27.2258  -28.5842   20.7267 C   0  0  0  0  0  0
  -26.0341  -26.8531   19.5279 C   0  0  0  0  0  0
  -24.8778  -27.6583   19.5035 C   0  0  0  0  0  0
  -23.6540  -29.8114   20.1556 C   0  0  0  0  0  0
  -25.4053  -36.3110   24.0375 C   0  0  1  0  0  0
  -20.5896  -28.3742   23.1286 C   0  0  2  0  0  0
  -20.6782  -26.9465   22.5418 C   0  0  0  0  0  0
  -19.5730  -26.6456   21.5239 C   0  0  0  0  0  0
  -18.1908  -26.8002   22.1653 C   0  0  0  0  0  0
  -19.1542  -28.8891   23.2929 C   0  0  0  0  0  0
  -18.9466  -30.1494   23.8966 C   0  0  0  0  0  0
  -17.6473  -30.6659   24.0592 C   0  0  0  0  0  0
  -25.9025  -34.9482   23.5119 C   0  0  0  0  0  0
  -16.5353  -29.9181   23.6354 C   0  0  0  0  0  0
  -16.7284  -28.6564   23.0445 C   0  0  0  0  0  0
  -26.4525  -31.6666   25.0745 C   0  0  0  0  0  0
  -25.3738  -31.3866   26.1469 C   0  0  0  0  0  0
  -27.0400  -30.3120   24.6204 C   0  0  0  0  0  0
  -27.6051  -32.4448   25.7527 C   0  0  0  0  0  0
  -27.5548  -37.1779   24.8457 C   0  0  0  0  0  0
  -21.4196  -29.3079   22.3659 N   0  0  0  0  0  0
  -26.4212  -37.3838   23.9464 N   0  0  0  0  0  0
  -24.6979  -31.0557   22.0957 N   0  0  0  0  0  0
  -23.4207  -28.8178   23.2972 O   0  0  0  0  0  0
  -28.3380  -26.4060   20.1467 O   0  0  0  0  0  0
  -26.5548  -34.8944   22.4664 O   0  0  0  0  0  0
  -23.5478  -32.1304   23.7357 O   0  0  0  0  0  0
  -29.2954  -18.4776   23.2154 C   0  0  0  0  0  0
  -29.6587  -17.2956   22.5035 C   0  0  0  0  0  0
  -29.3170  -18.3924   20.3004 C   0  0  0  0  0  0
  -28.9790  -19.5959   22.4330 C   0  0  0  0  0  0
  -29.0505  -19.6221   21.0092 C   0  0  0  0  0  0
  -29.6432  -17.1899   21.0729 C   0  0  0  0  0  0
  -28.3484  -20.9647   22.5371 C   0  0  0  0  0  0
  -28.4163  -21.0810   20.9319 C   0  0  1  0  0  0
  -29.6740  -24.1780   18.7297 C   0  0  0  0  0  0
  -27.3297  -23.3126   18.9239 C   0  0  0  0  0  0
  -29.2421  -22.3393   20.3822 C   0  0  0  0  0  0
  -28.2351  -24.9904   20.6535 C   0  0  0  0  0  0
  -28.5905  -23.6967   19.7281 C   0  0  0  0  0  0
  -29.6397  -15.8167   20.5150 N   0  0  0  0  0  0
  -31.4979  -12.6324   19.1787 H   0  0  0  0  0  0
  -30.4215  -11.4869   19.9324 H   0  0  0  0  0  0
  -29.8254  -11.7561   17.5046 H   0  0  0  0  0  0
  -29.6406  -13.4778   17.7236 H   0  0  0  0  0  0
  -27.9325  -11.2665   18.9307 H   0  0  0  0  0  0
  -27.3904  -12.4795   17.7997 H   0  0  0  0  0  0
  -27.6391  -14.2376   19.4534 H   0  0  0  0  0  0
  -28.7233  -12.1307   21.4048 H   0  0  0  0  0  0
  -28.4046  -13.7993   21.8050 H   0  0  0  0  0  0
  -25.2667   -9.5754   22.4749 H   0  0  0  0  0  0
  -23.9940   -7.4677   22.7481 H   0  0  0  0  0  0
  -21.0782   -8.8700   19.8971 H   0  0  0  0  0  0
  -22.3576  -10.9616   19.6098 H   0  0  0  0  0  0
  -21.2028   -7.6110   23.9683 H   0  0  0  0  0  0
  -21.1498   -6.0485   25.9067 H   0  0  0  0  0  0
  -22.0598   -2.7569   23.2813 H   0  0  0  0  0  0
  -22.3853  -12.0030   22.4858 H   0  0  0  0  0  0
  -21.0968  -13.1473   22.2355 H   0  0  0  0  0  0
  -24.6454  -15.8302   20.5029 H   0  0  0  0  0  0
  -26.2539  -15.6295   20.0339 H   0  0  0  0  0  0
  -26.7217  -32.5469   23.1105 H   0  0  0  0  0  0
  -25.0248  -33.9737   25.0559 H   0  0  0  0  0  0
  -22.7277  -31.3043   21.3929 H   0  0  0  0  0  0
  -23.3767  -35.9488   23.3289 H   0  0  0  0  0  0
  -24.3518  -36.8870   22.2071 H   0  0  0  0  0  0
  -23.7076  -37.6399   23.6624 H   0  0  0  0  0  0
  -26.0936  -31.5402   20.6080 H   0  0  0  0  0  0
  -26.8596  -30.8429   21.9975 H   0  0  0  0  0  0
  -28.1249  -28.9460   21.2068 H   0  0  0  0  0  0
  -25.9910  -25.8850   19.0551 H   0  0  0  0  0  0
  -23.9879  -27.2899   19.0142 H   0  0  0  0  0  0
  -23.7826  -30.5851   19.3978 H   0  0  0  0  0  0
  -22.7720  -29.2446   19.8554 H   0  0  0  0  0  0
  -25.1253  -36.1956   25.0887 H   0  0  0  0  0  0
  -20.9995  -28.3314   24.1404 H   0  0  0  0  0  0
  -20.5698  -26.2349   23.3625 H   0  0  0  0  0  0
  -21.6648  -26.7538   22.1168 H   0  0  0  0  0  0
  -19.6857  -25.6368   21.1271 H   0  0  0  0  0  0
  -19.6652  -27.3271   20.6765 H   0  0  0  0  0  0
  -17.4190  -26.6841   21.4031 H   0  0  0  0  0  0
  -18.0230  -26.0126   22.9011 H   0  0  0  0  0  0
  -19.7936  -30.7282   24.2367 H   0  0  0  0  0  0
  -17.5053  -31.6352   24.5194 H   0  0  0  0  0  0
  -15.5369  -30.3124   23.7649 H   0  0  0  0  0  0
  -15.8670  -28.0891   22.7207 H   0  0  0  0  0  0
  -24.5813  -30.7323   25.7808 H   0  0  0  0  0  0
  -24.8992  -32.3060   26.4903 H   0  0  0  0  0  0
  -25.8037  -30.9023   27.0239 H   0  0  0  0  0  0
  -26.3002  -29.6878   24.1154 H   0  0  0  0  0  0
  -27.4066  -29.7426   25.4751 H   0  0  0  0  0  0
  -27.8879  -30.4499   23.9492 H   0  0  0  0  0  0
  -27.2637  -33.3763   26.2050 H   0  0  0  0  0  0
  -28.3872  -32.7025   25.0380 H   0  0  0  0  0  0
  -28.0644  -31.8589   26.5483 H   0  0  0  0  0  0
  -28.2584  -38.0073   24.7647 H   0  0  0  0  0  0
  -28.1070  -36.2656   24.6152 H   0  0  0  0  0  0
  -27.2294  -37.1276   25.8861 H   0  0  0  0  0  0
  -20.9320  -29.8859   21.6947 H   0  0  0  0  0  0
  -26.0121  -38.2906   24.1561 H   0  0  0  0  0  0
  -29.2094  -18.4901   24.2962 H   0  0  0  0  0  0
  -29.8493  -16.4043   23.0877 H   0  0  0  0  0  0
  -29.1851  -18.3480   19.2284 H   0  0  0  0  0  0
  -28.9882  -21.6643   23.0776 H   0  0  0  0  0  0
  -27.3362  -20.9470   22.9457 H   0  0  0  0  0  0
  -27.4244  -20.9842   20.4855 H   0  0  0  0  0  0
  -29.9153  -23.4173   17.9865 H   0  0  0  0  0  0
  -30.6028  -24.4240   19.2482 H   0  0  0  0  0  0
  -29.3643  -25.0597   18.1711 H   0  0  0  0  0  0
  -27.5072  -22.4621   18.2642 H   0  0  0  0  0  0
  -26.9952  -24.1325   18.2897 H   0  0  0  0  0  0
  -26.5010  -23.0492   19.5840 H   0  0  0  0  0  0
  -29.8629  -21.9034   19.5996 H   0  0  0  0  0  0
  -29.9731  -22.6443   21.1339 H   0  0  0  0  0  0
  -28.9244  -24.9672   21.4985 H   0  0  0  0  0  0
  -27.2595  -24.8443   21.1197 H   0  0  0  0  0  0
  -28.7028  -15.4683   20.3850 H   0  0  0  0  0  0
  1 25  1  0  0  0
  1 30  2  0  0  0
  1 84  1  0  0  0
  2  3  1  0  0  0
  2 25  1  0  0  0
  2 85  1  0  0  0
  2 86  1  0  0  0
  3  4  1  0  0  0
  3 87  1  0  0  0
  3 88  1  0  0  0
  4  5  1  0  0  0
  4 89  1  0  0  0
  4 90  1  0  0  0
  5  6  1  0  0  0
  5 26  1  0  0  0
  5 91  1  0  0  0
  6 25  1  0  0  0
  6 92  1  0  0  0
  6 93  1  0  0  0
  7  8  2  0  0  0
  7 26  1  0  0  0
  7 29  1  0  0  0
  8  9  1  0  0  0
  8 22  1  0  0  0
  9 10  1  0  0  0
  9 27  2  0  0  0
 10 11  2  0  0  0
 10 15  1  0  0  0
 11 12  1  0  0  0
 11 94  1  0  0  0
 12 13  2  0  0  0
 12 95  1  0  0  0
 13 14  1  0  0  0
 13 31  1  0  0  0
 14 15  2  0  0  0
 14 96  1  0  0  0
 15 97  1  0  0  0
 16 17  2  0  0  0
 16 21  1  0  0  0
 16 31  1  0  0  0
 17 18  1  0  0  0
 17 98  1  0  0  0
 18 19  2  0  0  0
 18 99  1  0  0  0
 19 20  1  0  0  0
 19 24  1  0  0  0
 20 21  2  0  0  0
 20100  1  0  0  0
 21 23  1  0  0  0
 22 28  1  0  0  0
 22 32  2  0  0  0
 26 27  1  0  0  0
 28101  1  0  0  0
 28102  1  0  0  0
 29103  1  0  0  0
 29104  1  0  0  0
 33 34  1  0  0  0
 33 66  1  0  0  0
 33 70  2  0  0  0
 34 36  1  0  0  0
 34 59  1  0  0  0
 34105  1  0  0  0
 35 44  2  0  0  0
 35 45  1  0  0  0
 35 68  1  0  0  0
 36 56  1  0  0  0
 36106  1  0  0  0
 37 39  1  0  0  0
 37 47  1  0  0  0
 37 66  1  0  0  0
 37107  1  0  0  0
 38 43  2  0  0  0
 38 46  1  0  0  0
 38 47  1  0  0  0
 39 64  1  0  0  0
 39 67  2  0  0  0
 40 52  1  0  0  0
 40 53  2  0  0  0
 40 58  1  0  0  0
 41108  1  0  0  0
 41109  1  0  0  0
 41110  1  0  0  0
 41 48  1  0  0  0
 42 43  1  0  0  0
 42 66  1  0  0  0
 42111  1  0  0  0
 42112  1  0  0  0
 43 44  1  0  0  0
 44113  1  0  0  0
 45 46  2  0  0  0
 45114  1  0  0  0
 46115  1  0  0  0
 47116  1  0  0  0
 47117  1  0  0  0
 48 56  1  0  0  0
 48 65  1  0  0  0
 48118  1  0  0  0
 49 50  1  0  0  0
 49 53  1  0  0  0
 49 64  1  0  0  0
 49119  1  0  0  0
 50 51  1  0  0  0
 50120  1  0  0  0
 50121  1  0  0  0
 51 52  1  0  0  0
 51122  1  0  0  0
 51123  1  0  0  0
 52124  1  0  0  0
 52125  1  0  0  0
 53 54  1  0  0  0
 54 55  2  0  0  0
 54126  1  0  0  0
 55 57  1  0  0  0
 55127  1  0  0  0
 56 69  2  0  0  0
 57 58  2  0  0  0
 57128  1  0  0  0
 58129  1  0  0  0
 59 60  1  0  0  0
 59 61  1  0  0  0
 59 62  1  0  0  0
 60130  1  0  0  0
 60131  1  0  0  0
 60132  1  0  0  0
 61133  1  0  0  0
 61134  1  0  0  0
 61135  1  0  0  0
 62136  1  0  0  0
 62137  1  0  0  0
 62138  1  0  0  0
 63 65  1  0  0  0
 63139  1  0  0  0
 63140  1  0  0  0
 63141  1  0  0  0
 64142  1  0  0  0
 65143  1  0  0  0
 68 82  1  0  0  0
 71 72  2  0  0  0
 71 74  1  0  0  0
 71144  1  0  0  0
 72 76  1  0  0  0
 72145  1  0  0  0
 73 75  1  0  0  0
 73 76  2  0  0  0
 73146  1  0  0  0
 74 75  2  0  0  0
 74 77  1  0  0  0
 75 78  1  0  0  0
 76 84  1  0  0  0
 77 78  1  0  0  0
 77147  1  0  0  0
 77148  1  0  0  0
 78 81  1  0  0  0
 78149  1  0  0  0
 79150  1  0  0  0
 79151  1  0  0  0
 79152  1  0  0  0
 79 83  1  0  0  0
 80 83  1  0  0  0
 80153  1  0  0  0
 80154  1  0  0  0
 80155  1  0  0  0
 81 83  1  0  0  0
 81156  1  0  0  0
 81157  1  0  0  0
 82 83  1  0  0  0
 82158  1  0  0  0
 82159  1  0  0  0
 84160  1  0  0  0
M  ISO  4   1 100  68 101  82 101  84 100
M  END
> <chiral flag>
0

> <version>
0

> <s_m_source_file>
/data/baiqing/PycharmProjects/Reinvent-master-3.2/result/LINK_invent/BTK/process_docking_weight1_custom_product_contain_oxygen_bond_distance_aromatic_linkinvent_7_9_3/rearranged_h_0142.sdf

> <i_m_source_file_index>
1

> <r_mmod_Potential_Energy-OPLS-2005>
660.409790039062

> <r_mmod_Stretch_Energy-OPLS-2005>
143.381286621094

> <r_mmod_Bend_Energy-OPLS-2005>
547.881286621094

> <r_mmod_Torsional_Energy-OPLS-2005>
307.599945068359

> <r_mmod_Improper_Torsional_Energy-OPLS-2005>
18.1557998657227

> <r_mmod_Van_der_Waal_Energy-OPLS-2005>
127.695152282715

> <r_mmod_Electrostatic_Energy-OPLS-2005>
-372.392181396484

> <r_mmod_Solvation_Energy-OPLS-2005>
-200.860412597656

> <b_mmod_Minimization_Converged-OPLS-2005>
0

> <r_mmod_RMS_Derivative-OPLS-2005>
5.65610265731812

$$$$
1
                    3D
 Structure written by MMmdl.
163171  0  0  1  0            999 V2000
  -30.6018  -14.7259   20.4695 C   0  0  0  0  0  0
  -30.4356  -12.4358   19.4900 C   0  0  0  0  0  0
  -29.5190  -12.5111   18.2490 C   0  0  0  0  0  0
  -28.0443  -12.3358   18.6555 C   0  0  0  0  0  0
  -27.6488  -13.2277   19.8625 C   0  0  2  0  0  0
  -28.6878  -13.1368   21.0019 C   0  0  0  0  0  0
  -25.2543  -13.8188   20.5698 C   0  0  0  0  0  0
  -24.1814  -13.0437   20.9187 C   0  0  0  0  0  0
  -24.6395  -11.6906   20.8724 C   0  0  0  0  0  0
  -23.9058  -10.4285   21.0387 C   0  0  0  0  0  0
  -24.3611   -9.4201   21.9169 C   0  0  0  0  0  0
  -23.6286   -8.2235   22.0743 C   0  0  0  0  0  0
  -22.4272   -8.0268   21.3541 C   0  0  0  0  0  0
  -21.9906   -9.0242   20.4644 C   0  0  0  0  0  0
  -22.7227  -10.2122   20.3044 C   0  0  0  0  0  0
  -21.6858   -6.0717   22.5275 C   0  0  0  0  0  0
  -21.4019   -6.5624   23.8207 C   0  0  0  0  0  0
  -21.3663   -5.6786   24.9170 C   0  0  0  0  0  0
  -21.6049   -4.3046   24.7228 C   0  0  0  0  0  0
  -21.8819   -3.8132   23.4352 C   0  0  0  0  0  0
  -21.9202   -4.6946   22.3407 C   0  0  0  0  0  0
  -22.7837  -13.5224   21.1863 C   0  0  0  0  0  0
  -22.1660   -4.2126   21.0979 F   0  0  0  0  0  0
  -21.5641   -3.4533   25.7741 F   0  0  0  0  0  0
  -29.9990  -13.4872   20.4392 N   0  0  0  0  0  0
  -26.2971  -12.9384   20.3315 N   0  0  0  0  0  0
  -25.9331  -11.6526   20.5747 N   0  0  0  0  0  0
  -22.0483  -12.8214   22.0418 N   0  0  0  0  0  0
  -25.4274  -15.1915   20.4161 N   0  0  0  0  0  0
  -31.7577  -14.8594   20.0546 O   0  0  0  0  0  0
  -21.6646   -6.8859   21.4235 O   0  0  0  0  0  0
  -22.3513  -14.5522   20.6704 O   0  0  0  0  0  0
  -24.6311  -31.8552   23.1990 C   0  0  0  0  0  0
  -25.9141  -32.4754   23.8327 C   0  0  1  0  0  0
  -27.2209  -27.2583   20.1201 C   0  0  0  0  0  0
  -25.5929  -33.8556   24.2242 N   0  0  0  0  0  0
  -23.4278  -30.4803   21.5418 C   0  0  2  0  0  0
  -24.8763  -28.9313   20.1068 C   0  0  0  0  0  0
  -22.7497  -29.4605   22.4883 C   0  0  0  0  0  0
  -18.0288  -28.1386   22.8483 C   0  0  0  0  0  0
  -24.1490  -36.7286   23.2636 C   0  0  0  0  0  0
  -25.9760  -30.7667   21.3825 C   0  0  0  0  0  0
  -26.0465  -29.3897   20.7227 C   0  0  0  0  0  0
  -27.2175  -28.5637   20.7243 C   0  0  0  0  0  0
  -26.0331  -26.8872   19.4470 C   0  0  0  0  0  0
  -24.8762  -27.6887   19.4581 C   0  0  0  0  0  0
  -23.6470  -29.8181   20.1567 C   0  0  0  0  0  0
  -25.4115  -36.3064   24.0319 C   0  0  1  0  0  0
  -20.5895  -28.3698   23.1251 C   0  0  2  0  0  0
  -20.6775  -26.9410   22.5400 C   0  0  0  0  0  0
  -19.5750  -26.6379   21.5207 C   0  0  0  0  0  0
  -18.1932  -26.7928   22.1623 C   0  0  0  0  0  0
  -19.1544  -28.8854   23.2872 C   0  0  0  0  0  0
  -18.9468  -30.1452   23.8897 C   0  0  0  0  0  0
  -17.6471  -30.6589   24.0562 C   0  0  0  0  0  0
  -25.9057  -34.9438   23.5086 C   0  0  0  0  0  0
  -16.5357  -29.9088   23.6330 C   0  0  0  0  0  0
  -16.7274  -28.6506   23.0354 C   0  0  0  0  0  0
  -26.4501  -31.6583   25.0723 C   0  0  0  0  0  0
  -25.3715  -31.3764   26.1437 C   0  0  0  0  0  0
  -27.0328  -30.2978   24.6236 C   0  0  0  0  0  0
  -27.6045  -32.4329   25.7504 C   0  0  0  0  0  0
  -27.5580  -37.1787   24.8454 C   0  0  0  0  0  0
  -21.4199  -29.3051   22.3637 N   0  0  0  0  0  0
  -26.4284  -37.3768   23.9412 N   0  0  0  0  0  0
  -24.6977  -31.0515   22.0974 N   0  0  0  0  0  0
  -23.4194  -28.8131   23.2978 O   0  0  0  0  0  0
  -28.3168  -26.3622   20.2174 O   0  0  0  0  0  0
  -26.5636  -34.8916   22.4657 O   0  0  0  0  0  0
  -23.5467  -32.1366   23.7288 O   0  0  0  0  0  0
  -28.7154  -18.1516   18.1397 C   0  0  0  0  0  0
  -29.1440  -17.0109   18.8429 C   0  0  0  0  0  0
  -28.7720  -19.4382   18.7105 C   0  0  0  0  0  0
  -29.6726  -18.4504   20.7346 C   0  0  0  0  0  0
  -29.6231  -17.1056   20.1656 C   0  0  0  0  0  0
  -29.2809  -19.6611   20.0137 C   0  0  0  0  0  0
  -29.6361  -22.7933   17.2345 C   0  0  0  0  0  0
  -28.0899  -23.4102   21.7930 C   0  0  0  0  0  0
  -30.3290  -24.1694   21.0399 C   0  0  0  0  0  0
  -30.1525  -22.3026   18.5986 C   0  0  0  0  0  0
  -28.2333  -24.9235   19.7645 C   0  0  0  0  0  0
  -29.0938  -22.2455   19.7485 C   0  0  2  0  0  0
  -28.9506  -23.6842   20.5457 C   0  0  0  0  0  0
  -29.8600  -15.8246   20.8729 N   0  0  0  0  0  0
  -29.3805  -20.9934   20.5440 O   0  0  0  0  0  0
  -31.4791  -12.5509   19.1941 H   0  0  0  0  0  0
  -30.3682  -11.4522   19.9573 H   0  0  0  0  0  0
  -29.8004  -11.7433   17.5282 H   0  0  0  0  0  0
  -29.6544  -13.4699   17.7467 H   0  0  0  0  0  0
  -27.9051  -11.2855   18.9134 H   0  0  0  0  0  0
  -27.3885  -12.5303   17.8059 H   0  0  0  0  0  0
  -27.6512  -14.2543   19.4967 H   0  0  0  0  0  0
  -28.7123  -12.1292   21.4204 H   0  0  0  0  0  0
  -28.4151  -13.7993   21.8237 H   0  0  0  0  0  0
  -25.2747   -9.5691   22.4747 H   0  0  0  0  0  0
  -24.0003   -7.4637   22.7467 H   0  0  0  0  0  0
  -21.0834   -8.8744   19.8965 H   0  0  0  0  0  0
  -22.3656  -10.9658   19.6159 H   0  0  0  0  0  0
  -21.1986   -7.6128   23.9697 H   0  0  0  0  0  0
  -21.1503   -6.0517   25.9076 H   0  0  0  0  0  0
  -22.0598   -2.7593   23.2859 H   0  0  0  0  0  0
  -22.4105  -11.9885   22.4815 H   0  0  0  0  0  0
  -21.1103  -13.1248   22.2626 H   0  0  0  0  0  0
  -24.6681  -15.8514   20.5384 H   0  0  0  0  0  0
  -26.2848  -15.6335   20.1090 H   0  0  0  0  0  0
  -26.7206  -32.5397   23.1065 H   0  0  0  0  0  0
  -25.0044  -33.9697   25.0364 H   0  0  0  0  0  0
  -22.7248  -31.3036   21.3967 H   0  0  0  0  0  0
  -23.3754  -35.9618   23.3282 H   0  0  0  0  0  0
  -24.3581  -36.8929   22.2056 H   0  0  0  0  0  0
  -23.7249  -37.6481   23.6677 H   0  0  0  0  0  0
  -26.1203  -31.5292   20.6148 H   0  0  0  0  0  0
  -26.8521  -30.8116   22.0181 H   0  0  0  0  0  0
  -28.1097  -28.9103   21.2278 H   0  0  0  0  0  0
  -25.9506  -25.9633   18.8985 H   0  0  0  0  0  0
  -23.9871  -27.3381   18.9523 H   0  0  0  0  0  0
  -23.7703  -30.5976   19.4043 H   0  0  0  0  0  0
  -22.7653  -29.2529   19.8495 H   0  0  0  0  0  0
  -25.1300  -36.1901   25.0813 H   0  0  0  0  0  0
  -21.0005  -28.3291   24.1363 H   0  0  0  0  0  0
  -20.5656  -26.2317   23.3616 H   0  0  0  0  0  0
  -21.6643  -26.7408   22.1204 H   0  0  0  0  0  0
  -19.6910  -25.6286   21.1244 H   0  0  0  0  0  0
  -19.6695  -27.3183   20.6737 H   0  0  0  0  0  0
  -17.4196  -26.6664   21.4034 H   0  0  0  0  0  0
  -18.0335  -26.0069   22.9020 H   0  0  0  0  0  0
  -19.7948  -30.7264   24.2268 H   0  0  0  0  0  0
  -17.5028  -31.6272   24.5158 H   0  0  0  0  0  0
  -15.5362  -30.2998   23.7654 H   0  0  0  0  0  0
  -15.8670  -28.0827   22.7074 H   0  0  0  0  0  0
  -24.5897  -30.7099   25.7778 H   0  0  0  0  0  0
  -24.8900  -32.2949   26.4803 H   0  0  0  0  0  0
  -25.8018  -30.8988   27.0247 H   0  0  0  0  0  0
  -26.2909  -29.6740   24.1235 H   0  0  0  0  0  0
  -27.3943  -29.7238   25.4779 H   0  0  0  0  0  0
  -27.8827  -30.4212   23.9519 H   0  0  0  0  0  0
  -27.2630  -33.3624   26.2070 H   0  0  0  0  0  0
  -28.3862  -32.6896   25.0344 H   0  0  0  0  0  0
  -28.0702  -31.8464   26.5433 H   0  0  0  0  0  0
  -28.2566  -38.0113   24.7513 H   0  0  0  0  0  0
  -28.1100  -36.2635   24.6249 H   0  0  0  0  0  0
  -27.2296  -37.1399   25.8856 H   0  0  0  0  0  0
  -20.9370  -29.8794   21.6865 H   0  0  0  0  0  0
  -26.0154  -38.2831   24.1442 H   0  0  0  0  0  0
  -28.3212  -18.0339   17.1407 H   0  0  0  0  0  0
  -29.0522  -16.0470   18.3627 H   0  0  0  0  0  0
  -28.4173  -20.2550   18.1024 H   0  0  0  0  0  0
  -30.0180  -18.5584   21.7523 H   0  0  0  0  0  0
  -29.5027  -23.8708   17.1967 H   0  0  0  0  0  0
  -28.6896  -22.3229   16.9674 H   0  0  0  0  0  0
  -30.3514  -22.5508   16.4478 H   0  0  0  0  0  0
  -27.8806  -24.3293   22.3418 H   0  0  0  0  0  0
  -28.5855  -22.7243   22.4810 H   0  0  0  0  0  0
  -27.1317  -22.9661   21.5236 H   0  0  0  0  0  0
  -30.2289  -24.9756   21.7678 H   0  0  0  0  0  0
  -30.9358  -24.5686   20.2283 H   0  0  0  0  0  0
  -30.8863  -23.3625   21.5178 H   0  0  0  0  0  0
  -31.0342  -22.8691   18.8852 H   0  0  0  0  0  0
  -30.5626  -21.3109   18.4210 H   0  0  0  0  0  0
  -27.1991  -24.6003   19.6840 H   0  0  0  0  0  0
  -28.5948  -24.9529   18.7430 H   0  0  0  0  0  0
  -28.1134  -22.0716   19.3049 H   0  0  0  0  0  0
  -29.0835  -15.5533   21.4587 H   0  0  0  0  0  0
  1 25  1  0  0  0
  1 30  2  0  0  0
  1 84  1  0  0  0
  2  3  1  0  0  0
  2 25  1  0  0  0
  2 86  1  0  0  0
  2 87  1  0  0  0
  3  4  1  0  0  0
  3 88  1  0  0  0
  3 89  1  0  0  0
  4  5  1  0  0  0
  4 90  1  0  0  0
  4 91  1  0  0  0
  5  6  1  0  0  0
  5 26  1  0  0  0
  5 92  1  0  0  0
  6 25  1  0  0  0
  6 93  1  0  0  0
  6 94  1  0  0  0
  7  8  2  0  0  0
  7 26  1  0  0  0
  7 29  1  0  0  0
  8  9  1  0  0  0
  8 22  1  0  0  0
  9 10  1  0  0  0
  9 27  2  0  0  0
 10 11  2  0  0  0
 10 15  1  0  0  0
 11 12  1  0  0  0
 11 95  1  0  0  0
 12 13  2  0  0  0
 12 96  1  0  0  0
 13 14  1  0  0  0
 13 31  1  0  0  0
 14 15  2  0  0  0
 14 97  1  0  0  0
 15 98  1  0  0  0
 16 17  2  0  0  0
 16 21  1  0  0  0
 16 31  1  0  0  0
 17 18  1  0  0  0
 17 99  1  0  0  0
 18 19  2  0  0  0
 18100  1  0  0  0
 19 20  1  0  0  0
 19 24  1  0  0  0
 20 21  2  0  0  0
 20101  1  0  0  0
 21 23  1  0  0  0
 22 28  1  0  0  0
 22 32  2  0  0  0
 26 27  1  0  0  0
 28102  1  0  0  0
 28103  1  0  0  0
 29104  1  0  0  0
 29105  1  0  0  0
 33 34  1  0  0  0
 33 66  1  0  0  0
 33 70  2  0  0  0
 34 36  1  0  0  0
 34 59  1  0  0  0
 34106  1  0  0  0
 35 44  2  0  0  0
 35 45  1  0  0  0
 35 68  1  0  0  0
 36 56  1  0  0  0
 36107  1  0  0  0
 37 39  1  0  0  0
 37 47  1  0  0  0
 37 66  1  0  0  0
 37108  1  0  0  0
 38 43  2  0  0  0
 38 46  1  0  0  0
 38 47  1  0  0  0
 39 64  1  0  0  0
 39 67  2  0  0  0
 40 52  1  0  0  0
 40 53  2  0  0  0
 40 58  1  0  0  0
 41109  1  0  0  0
 41110  1  0  0  0
 41111  1  0  0  0
 41 48  1  0  0  0
 42 43  1  0  0  0
 42 66  1  0  0  0
 42112  1  0  0  0
 42113  1  0  0  0
 43 44  1  0  0  0
 44114  1  0  0  0
 45 46  2  0  0  0
 45115  1  0  0  0
 46116  1  0  0  0
 47117  1  0  0  0
 47118  1  0  0  0
 48 56  1  0  0  0
 48 65  1  0  0  0
 48119  1  0  0  0
 49 50  1  0  0  0
 49 53  1  0  0  0
 49 64  1  0  0  0
 49120  1  0  0  0
 50 51  1  0  0  0
 50121  1  0  0  0
 50122  1  0  0  0
 51 52  1  0  0  0
 51123  1  0  0  0
 51124  1  0  0  0
 52125  1  0  0  0
 52126  1  0  0  0
 53 54  1  0  0  0
 54 55  2  0  0  0
 54127  1  0  0  0
 55 57  1  0  0  0
 55128  1  0  0  0
 56 69  2  0  0  0
 57 58  2  0  0  0
 57129  1  0  0  0
 58130  1  0  0  0
 59 60  1  0  0  0
 59 61  1  0  0  0
 59 62  1  0  0  0
 60131  1  0  0  0
 60132  1  0  0  0
 60133  1  0  0  0
 61134  1  0  0  0
 61135  1  0  0  0
 61136  1  0  0  0
 62137  1  0  0  0
 62138  1  0  0  0
 62139  1  0  0  0
 63 65  1  0  0  0
 63140  1  0  0  0
 63141  1  0  0  0
 63142  1  0  0  0
 64143  1  0  0  0
 65144  1  0  0  0
 68 81  1  0  0  0
 71 72  2  0  0  0
 71 73  1  0  0  0
 71145  1  0  0  0
 72 75  1  0  0  0
 72146  1  0  0  0
 73 76  2  0  0  0
 73147  1  0  0  0
 74 75  2  0  0  0
 74 76  1  0  0  0
 74148  1  0  0  0
 75 84  1  0  0  0
 76 85  1  0  0  0
 77 80  1  0  0  0
 77149  1  0  0  0
 77150  1  0  0  0
 77151  1  0  0  0
 78152  1  0  0  0
 78153  1  0  0  0
 78154  1  0  0  0
 78 83  1  0  0  0
 79 83  1  0  0  0
 79155  1  0  0  0
 79156  1  0  0  0
 79157  1  0  0  0
 80158  1  0  0  0
 80159  1  0  0  0
 80 82  1  0  0  0
 81 83  1  0  0  0
 81160  1  0  0  0
 81161  1  0  0  0
 82 83  1  0  0  0
 82 85  1  0  0  0
 82162  1  0  0  0
 84163  1  0  0  0
M  ISO  4   1 100  68 101  81 101  84 100
M  END
> <chiral flag>
0

> <version>
0

> <s_m_source_file>
/data/baiqing/PycharmProjects/Reinvent-master-3.2/result/LINK_invent/BTK/process_docking_weight1_custom_product_contain_oxygen_bond_distance_aromatic_linkinvent_7_9_3/rearranged_h_0142.sdf

> <i_m_source_file_index>
2

> <r_mmod_Potential_Energy-OPLS-2005>
265.938720703125

> <r_mmod_Stretch_Energy-OPLS-2005>
142.350357055664

> <r_mmod_Bend_Energy-OPLS-2005>
184.374893188477

> <r_mmod_Torsional_Energy-OPLS-2005>
269.241546630859

> <r_mmod_Improper_Torsional_Energy-OPLS-2005>
5.51003170013428

> <r_mmod_Van_der_Waal_Energy-OPLS-2005>
147.555099487305

> <r_mmod_Electrostatic_Energy-OPLS-2005>
-359.923461914062

> <r_mmod_Solvation_Energy-OPLS-2005>
-205.501251220703

> <b_mmod_Minimization_Converged-OPLS-2005>
0

> <r_mmod_RMS_Derivative-OPLS-2005>
1.94017100334167

$$$$
2
                    3D
 Structure written by MMmdl.
166175  0  0  1  0            999 V2000
  -30.7107  -14.5030   20.4995 C   0  0  0  0  0  0
  -30.4140  -12.3069   19.4328 C   0  0  0  0  0  0
  -29.4951  -12.5271   18.2105 C   0  0  0  0  0  0
  -28.0199  -12.3706   18.6292 C   0  0  0  0  0  0
  -27.6658  -13.2132   19.8779 C   0  0  2  0  0  0
  -28.7126  -13.0497   20.9956 C   0  0  0  0  0  0
  -25.2586  -13.8278   20.5719 C   0  0  0  0  0  0
  -24.1846  -13.0453   20.9238 C   0  0  0  0  0  0
  -24.6463  -11.7003   20.8675 C   0  0  0  0  0  0
  -23.9139  -10.4289   21.0339 C   0  0  0  0  0  0
  -24.3722   -9.4214   21.9136 C   0  0  0  0  0  0
  -23.6363   -8.2237   22.0756 C   0  0  0  0  0  0
  -22.4294   -8.0266   21.3587 C   0  0  0  0  0  0
  -21.9930   -9.0252   20.4661 C   0  0  0  0  0  0
  -22.7307  -10.2139   20.3009 C   0  0  0  0  0  0
  -21.6813   -6.0720   22.5313 C   0  0  0  0  0  0
  -21.4024   -6.5671   23.8217 C   0  0  0  0  0  0
  -21.3648   -5.6834   24.9165 C   0  0  0  0  0  0
  -21.6025   -4.3066   24.7220 C   0  0  0  0  0  0
  -21.8833   -3.8193   23.4311 C   0  0  0  0  0  0
  -21.9220   -4.6988   22.3387 C   0  0  0  0  0  0
  -22.7910  -13.5290   21.1881 C   0  0  0  0  0  0
  -22.1669   -4.2186   21.0915 F   0  0  0  0  0  0
  -21.5606   -3.4560   25.7680 F   0  0  0  0  0  0
  -30.0533  -13.3269   20.4456 N   0  0  0  0  0  0
  -26.3066  -12.9417   20.3503 N   0  0  0  0  0  0
  -25.9353  -11.6600   20.5799 N   0  0  0  0  0  0
  -22.0617  -12.8099   22.0424 N   0  0  0  0  0  0
  -25.4328  -15.1944   20.4285 N   0  0  0  0  0  0
  -31.8638  -14.6274   20.0636 O   0  0  0  0  0  0
  -21.6662   -6.8879   21.4251 O   0  0  0  0  0  0
  -22.3501  -14.5506   20.6638 O   0  0  0  0  0  0
  -24.6259  -31.8612   23.1938 C   0  0  0  0  0  0
  -25.8997  -32.4733   23.8348 C   0  0  1  0  0  0
  -27.1404  -27.3865   20.0632 C   0  0  0  0  0  0
  -25.5808  -33.8495   24.2226 N   0  0  0  0  0  0
  -23.4057  -30.4958   21.5592 C   0  0  2  0  0  0
  -24.8160  -28.9352   20.1411 C   0  0  0  0  0  0
  -22.7424  -29.4671   22.5078 C   0  0  0  0  0  0
  -18.0357  -28.1408   22.8455 C   0  0  0  0  0  0
  -24.1491  -36.7353   23.2667 C   0  0  0  0  0  0
  -25.9533  -30.8006   21.3542 C   0  0  0  0  0  0
  -26.0119  -29.4450   20.6791 C   0  0  0  0  0  0
  -27.2041  -28.6904   20.5986 C   0  0  0  0  0  0
  -25.9479  -26.8671   19.5693 C   0  0  0  0  0  0
  -24.7956  -27.6524   19.5839 C   0  0  0  0  0  0
  -23.6083  -29.8387   20.1747 C   0  0  0  0  0  0
  -25.4147  -36.3073   24.0350 C   0  0  1  0  0  0
  -20.5941  -28.3433   23.1149 C   0  0  2  0  0  0
  -20.6817  -26.9304   22.5088 C   0  0  0  0  0  0
  -19.5511  -26.5790   21.5294 C   0  0  0  0  0  0
  -18.1692  -26.7924   22.1589 C   0  0  0  0  0  0
  -19.1642  -28.8699   23.2875 C   0  0  0  0  0  0
  -18.9851  -30.1045   23.9135 C   0  0  0  0  0  0
  -17.6856  -30.6343   24.1137 C   0  0  0  0  0  0
  -25.9091  -34.9485   23.5119 C   0  0  0  0  0  0
  -16.5683  -29.9161   23.6826 C   0  0  0  0  0  0
  -16.7339  -28.6717   23.0535 C   0  0  0  0  0  0
  -26.4469  -31.6607   25.0714 C   0  0  0  0  0  0
  -25.3773  -31.3792   26.1546 C   0  0  0  0  0  0
  -27.0319  -30.2998   24.6210 C   0  0  0  0  0  0
  -27.6069  -32.4449   25.7459 C   0  0  0  0  0  0
  -27.5619  -37.1797   24.8463 C   0  0  0  0  0  0
  -21.4158  -29.3145   22.3843 N   0  0  0  0  0  0
  -26.4346  -37.3781   23.9391 N   0  0  0  0  0  0
  -24.6814  -31.0639   22.0901 N   0  0  0  0  0  0
  -23.4150  -28.8115   23.3059 O   0  0  0  0  0  0
  -28.2542  -26.6819   19.7633 O   0  0  0  0  0  0
  -26.5628  -34.9106   22.4640 O   0  0  0  0  0  0
  -23.5471  -32.1502   23.7448 O   0  0  0  0  0  0
  -30.2331  -18.2412   18.1701 C   0  0  0  0  0  0
  -30.4298  -17.0508   18.9232 C   0  0  0  0  0  0
  -29.1107  -17.8550   20.8418 C   0  0  0  0  0  0
  -29.4574  -19.1865   18.8050 C   0  0  0  0  0  0
  -28.9090  -19.0221   20.0865 C   0  0  0  0  0  0
  -29.8774  -16.8351   20.2128 C   0  0  0  0  0  0
  -28.7788  -20.5000   18.6059 C   0  0  0  0  0  0
  -28.1529  -20.3403   20.0818 C   0  0  1  0  0  0
  -26.6589  -20.0298   20.1919 C   0  0  0  0  0  0
  -26.6301  -23.7952   21.1800 C   0  0  0  0  0  0
  -27.5662  -23.5725   18.8255 C   0  0  0  0  0  0
  -28.5992  -21.3507   21.1956 C   0  0  0  0  0  0
  -28.9618  -22.8559   20.8084 C   0  0  0  0  0  0
  -28.4141  -25.4209   20.3865 C   0  0  0  0  0  0
  -27.8787  -23.9123   20.2866 C   0  0  0  0  0  0
  -29.9810  -15.5714   20.8909 N   0  0  0  0  0  0
  -31.4576  -12.3799   19.1219 H   0  0  0  0  0  0
  -30.2805  -11.2982   19.8384 H   0  0  0  0  0  0
  -29.7343  -11.8211   17.4094 H   0  0  0  0  0  0
  -29.6510  -13.5258   17.7923 H   0  0  0  0  0  0
  -27.8604  -11.3143   18.8629 H   0  0  0  0  0  0
  -27.3457  -12.6176   17.8046 H   0  0  0  0  0  0
  -27.6904  -14.2580   19.5578 H   0  0  0  0  0  0
  -28.6807  -12.0487   21.4157 H   0  0  0  0  0  0
  -28.4860  -13.7047   21.8355 H   0  0  0  0  0  0
  -25.2853   -9.5634   22.4768 H   0  0  0  0  0  0
  -24.0046   -7.4605   22.7409 H   0  0  0  0  0  0
  -21.0897   -8.8803   19.8955 H   0  0  0  0  0  0
  -22.3759  -10.9705   19.6176 H   0  0  0  0  0  0
  -21.2030   -7.6203   23.9719 H   0  0  0  0  0  0
  -21.1448   -6.0554   25.9073 H   0  0  0  0  0  0
  -22.0617   -2.7663   23.2796 H   0  0  0  0  0  0
  -22.4305  -11.9828   22.4846 H   0  0  0  0  0  0
  -21.1282  -13.1067   22.2714 H   0  0  0  0  0  0
  -24.6625  -15.8463   20.5138 H   0  0  0  0  0  0
  -26.3023  -15.6404   20.1655 H   0  0  0  0  0  0
  -26.7089  -32.5404   23.1198 H   0  0  0  0  0  0
  -24.9855  -33.9682   25.0321 H   0  0  0  0  0  0
  -22.7063  -31.3206   21.4165 H   0  0  0  0  0  0
  -23.3754  -35.9641   23.3298 H   0  0  0  0  0  0
  -24.3669  -36.8952   22.2061 H   0  0  0  0  0  0
  -23.7215  -37.6592   23.6669 H   0  0  0  0  0  0
  -26.0949  -31.6064   20.6326 H   0  0  0  0  0  0
  -26.8287  -30.8171   21.9976 H   0  0  0  0  0  0
  -28.1440  -29.0920   20.9586 H   0  0  0  0  0  0
  -25.9050  -25.8847   19.1266 H   0  0  0  0  0  0
  -23.8688  -27.1983   19.2838 H   0  0  0  0  0  0
  -23.7898  -30.6264   19.4421 H   0  0  0  0  0  0
  -22.7177  -29.3084   19.8388 H   0  0  0  0  0  0
  -25.1267  -36.2025   25.0841 H   0  0  0  0  0  0
  -21.0047  -28.2679   24.1238 H   0  0  0  0  0  0
  -20.6266  -26.1961   23.3241 H   0  0  0  0  0  0
  -21.6485  -26.7584   22.0474 H   0  0  0  0  0  0
  -19.6414  -25.5408   21.2206 H   0  0  0  0  0  0
  -19.6524  -27.1865   20.6146 H   0  0  0  0  0  0
  -17.4083  -26.6941   21.3854 H   0  0  0  0  0  0
  -17.9791  -26.0215   22.9071 H   0  0  0  0  0  0
  -19.8254  -30.6545   24.3063 H   0  0  0  0  0  0
  -17.5574  -31.5743   24.6286 H   0  0  0  0  0  0
  -15.5633  -30.3084   23.8335 H   0  0  0  0  0  0
  -15.8806  -28.1088   22.7162 H   0  0  0  0  0  0
  -24.5847  -30.7158   25.8070 H   0  0  0  0  0  0
  -24.9091  -32.2932   26.5216 H   0  0  0  0  0  0
  -25.8211  -30.8933   27.0221 H   0  0  0  0  0  0
  -26.2740  -29.6650   24.1499 H   0  0  0  0  0  0
  -27.4224  -29.7468   25.4782 H   0  0  0  0  0  0
  -27.8625  -30.4379   23.9241 H   0  0  0  0  0  0
  -27.2502  -33.3709   26.2174 H   0  0  0  0  0  0
  -28.3717  -32.7122   25.0069 H   0  0  0  0  0  0
  -28.0870  -31.8448   26.5285 H   0  0  0  0  0  0
  -28.2628  -38.0109   24.7490 H   0  0  0  0  0  0
  -28.1119  -36.2632   24.6258 H   0  0  0  0  0  0
  -27.2383  -37.1405   25.8894 H   0  0  0  0  0  0
  -20.9112  -29.8975   21.7215 H   0  0  0  0  0  0
  -26.0274  -38.2903   24.1295 H   0  0  0  0  0  0
  -30.6115  -18.3648   17.1926 H   0  0  0  0  0  0
  -31.0183  -16.3068   18.4460 H   0  0  0  0  0  0
  -28.6612  -17.7184   21.8036 H   0  0  0  0  0  0
  -28.0573  -20.5147   17.8027 H   0  0  0  0  0  0
  -29.5029  -21.2907   18.4920 H   0  0  0  0  0  0
  -26.3280  -19.3714   19.3968 H   0  0  0  0  0  0
  -26.0141  -20.8957   20.1661 H   0  0  0  0  0  0
  -26.4189  -19.4943   21.1161 H   0  0  0  0  0  0
  -25.9930  -22.9576   20.8706 H   0  0  0  0  0  0
  -26.0348  -24.6964   21.1344 H   0  0  0  0  0  0
  -26.8818  -23.6187   22.2316 H   0  0  0  0  0  0
  -27.0460  -22.6043   18.7407 H   0  0  0  0  0  0
  -28.4754  -23.5087   18.2206 H   0  0  0  0  0  0
  -26.9352  -24.3220   18.3679 H   0  0  0  0  0  0
  -29.5199  -20.9471   21.6264 H   0  0  0  0  0  0
  -27.9174  -21.3243   22.0468 H   0  0  0  0  0  0
  -29.8095  -22.8129   20.1232 H   0  0  0  0  0  0
  -29.4091  -23.2477   21.7166 H   0  0  0  0  0  0
  -28.4494  -25.7210   21.4239 H   0  0  0  0  0  0
  -29.3965  -25.3858   19.8828 H   0  0  0  0  0  0
  -29.2191  -15.3296   21.4994 H   0  0  0  0  0  0
  1 25  1  0  0  0
  1 30  2  0  0  0
  1 86  1  0  0  0
  2  3  1  0  0  0
  2 25  1  0  0  0
  2 87  1  0  0  0
  2 88  1  0  0  0
  3  4  1  0  0  0
  3 89  1  0  0  0
  3 90  1  0  0  0
  4  5  1  0  0  0
  4 91  1  0  0  0
  4 92  1  0  0  0
  5  6  1  0  0  0
  5 26  1  0  0  0
  5 93  1  0  0  0
  6 25  1  0  0  0
  6 94  1  0  0  0
  6 95  1  0  0  0
  7  8  2  0  0  0
  7 26  1  0  0  0
  7 29  1  0  0  0
  8  9  1  0  0  0
  8 22  1  0  0  0
  9 10  1  0  0  0
  9 27  2  0  0  0
 10 11  2  0  0  0
 10 15  1  0  0  0
 11 12  1  0  0  0
 11 96  1  0  0  0
 12 13  2  0  0  0
 12 97  1  0  0  0
 13 14  1  0  0  0
 13 31  1  0  0  0
 14 15  2  0  0  0
 14 98  1  0  0  0
 15 99  1  0  0  0
 16 17  2  0  0  0
 16 21  1  0  0  0
 16 31  1  0  0  0
 17 18  1  0  0  0
 17100  1  0  0  0
 18 19  2  0  0  0
 18101  1  0  0  0
 19 20  1  0  0  0
 19 24  1  0  0  0
 20 21  2  0  0  0
 20102  1  0  0  0
 21 23  1  0  0  0
 22 28  1  0  0  0
 22 32  2  0  0  0
 26 27  1  0  0  0
 28103  1  0  0  0
 28104  1  0  0  0
 29105  1  0  0  0
 29106  1  0  0  0
 33 34  1  0  0  0
 33 66  1  0  0  0
 33 70  2  0  0  0
 34 36  1  0  0  0
 34 59  1  0  0  0
 34107  1  0  0  0
 35 44  2  0  0  0
 35 45  1  0  0  0
 35 68  1  0  0  0
 36 56  1  0  0  0
 36108  1  0  0  0
 37 39  1  0  0  0
 37 47  1  0  0  0
 37 66  1  0  0  0
 37109  1  0  0  0
 38 43  2  0  0  0
 38 46  1  0  0  0
 38 47  1  0  0  0
 39 64  1  0  0  0
 39 67  2  0  0  0
 40 52  1  0  0  0
 40 53  2  0  0  0
 40 58  1  0  0  0
 41110  1  0  0  0
 41111  1  0  0  0
 41112  1  0  0  0
 41 48  1  0  0  0
 42 43  1  0  0  0
 42 66  1  0  0  0
 42113  1  0  0  0
 42114  1  0  0  0
 43 44  1  0  0  0
 44115  1  0  0  0
 45 46  2  0  0  0
 45116  1  0  0  0
 46117  1  0  0  0
 47118  1  0  0  0
 47119  1  0  0  0
 48 56  1  0  0  0
 48 65  1  0  0  0
 48120  1  0  0  0
 49 50  1  0  0  0
 49 53  1  0  0  0
 49 64  1  0  0  0
 49121  1  0  0  0
 50 51  1  0  0  0
 50122  1  0  0  0
 50123  1  0  0  0
 51 52  1  0  0  0
 51124  1  0  0  0
 51125  1  0  0  0
 52126  1  0  0  0
 52127  1  0  0  0
 53 54  1  0  0  0
 54 55  2  0  0  0
 54128  1  0  0  0
 55 57  1  0  0  0
 55129  1  0  0  0
 56 69  2  0  0  0
 57 58  2  0  0  0
 57130  1  0  0  0
 58131  1  0  0  0
 59 60  1  0  0  0
 59 61  1  0  0  0
 59 62  1  0  0  0
 60132  1  0  0  0
 60133  1  0  0  0
 60134  1  0  0  0
 61135  1  0  0  0
 61136  1  0  0  0
 61137  1  0  0  0
 62138  1  0  0  0
 62139  1  0  0  0
 62140  1  0  0  0
 63 65  1  0  0  0
 63141  1  0  0  0
 63142  1  0  0  0
 63143  1  0  0  0
 64144  1  0  0  0
 65145  1  0  0  0
 68 84  1  0  0  0
 71 72  2  0  0  0
 71 74  1  0  0  0
 71146  1  0  0  0
 72 76  1  0  0  0
 72147  1  0  0  0
 73 75  1  0  0  0
 73 76  2  0  0  0
 73148  1  0  0  0
 74 75  2  0  0  0
 74 77  1  0  0  0
 75 78  1  0  0  0
 76 86  1  0  0  0
 77 78  1  0  0  0
 77149  1  0  0  0
 77150  1  0  0  0
 78 79  1  0  0  0
 78 82  1  0  0  0
 79151  1  0  0  0
 79152  1  0  0  0
 79153  1  0  0  0
 80154  1  0  0  0
 80155  1  0  0  0
 80156  1  0  0  0
 80 85  1  0  0  0
 81 85  1  0  0  0
 81157  1  0  0  0
 81158  1  0  0  0
 81159  1  0  0  0
 82 83  1  0  0  0
 82160  1  0  0  0
 82161  1  0  0  0
 83 85  1  0  0  0
 83162  1  0  0  0
 83163  1  0  0  0
 84 85  1  0  0  0
 84164  1  0  0  0
 84165  1  0  0  0
 86166  1  0  0  0
M  ISO  4   1 100  68 101  84 101  86 100
M  END
> <chiral flag>
0

> <version>
0

> <s_m_source_file>
/data/baiqing/PycharmProjects/Reinvent-master-3.2/result/LINK_invent/BTK/process_docking_weight1_custom_product_contain_oxygen_bond_distance_aromatic_linkinvent_7_9_3/rearranged_h_0142.sdf

> <i_m_source_file_index>
3

> <r_mmod_Potential_Energy-OPLS-2005>
565.478332519531

> <r_mmod_Stretch_Energy-OPLS-2005>
83.6676177978516

> <r_mmod_Bend_Energy-OPLS-2005>
586.16796875

> <r_mmod_Torsional_Energy-OPLS-2005>
288.0654296875

> <r_mmod_Improper_Torsional_Energy-OPLS-2005>
7.95171642303467

> <r_mmod_Van_der_Waal_Energy-OPLS-2005>
146.942840576172

> <r_mmod_Electrostatic_Energy-OPLS-2005>
-391.454498291016

> <r_mmod_Solvation_Energy-OPLS-2005>
-193.565078735352

> <b_mmod_Minimization_Converged-OPLS-2005>
0

> <r_mmod_RMS_Derivative-OPLS-2005>
42.9197807312012

$$$$
3
                    3D
 Structure written by MMmdl.
150159  0  0  1  0            999 V2000
  -30.5076  -15.0011   20.3710 C   0  0  0  0  0  0
  -30.4476  -12.6149   19.4956 C   0  0  0  0  0  0
  -29.5276  -12.5217   18.2553 C   0  0  0  0  0  0
  -28.0591  -12.3105   18.6748 C   0  0  0  0  0  0
  -27.6274  -13.2457   19.8352 C   0  0  2  0  0  0
  -28.6733  -13.3020   20.9672 C   0  0  0  0  0  0
  -25.2474  -13.8205   20.5731 C   0  0  0  0  0  0
  -24.1773  -13.0435   20.9214 C   0  0  0  0  0  0
  -24.6384  -11.6915   20.8740 C   0  0  0  0  0  0
  -23.9070  -10.4286   21.0399 C   0  0  0  0  0  0
  -24.3622   -9.4206   21.9183 C   0  0  0  0  0  0
  -23.6291   -8.2244   22.0756 C   0  0  0  0  0  0
  -22.4273   -8.0283   21.3548 C   0  0  0  0  0  0
  -21.9907   -9.0253   20.4650 C   0  0  0  0  0  0
  -22.7237  -10.2128   20.3053 C   0  0  0  0  0  0
  -21.6853   -6.0729   22.5274 C   0  0  0  0  0  0
  -21.4014   -6.5633   23.8207 C   0  0  0  0  0  0
  -21.3663   -5.6788   24.9172 C   0  0  0  0  0  0
  -21.6044   -4.3051   24.7223 C   0  0  0  0  0  0
  -21.8821   -3.8142   23.4344 C   0  0  0  0  0  0
  -21.9189   -4.6957   22.3397 C   0  0  0  0  0  0
  -22.7795  -13.5213   21.1871 C   0  0  0  0  0  0
  -22.1662   -4.2144   21.0973 F   0  0  0  0  0  0
  -21.5632   -3.4535   25.7735 F   0  0  0  0  0  0
  -29.9380  -13.7242   20.3517 N   0  0  0  0  0  0
  -26.2888  -12.9421   20.3257 N   0  0  0  0  0  0
  -25.9320  -11.6553   20.5735 N   0  0  0  0  0  0
  -22.0442  -12.8205   22.0428 N   0  0  0  0  0  0
  -25.4182  -15.1936   20.4207 N   0  0  0  0  0  0
  -31.7359  -15.0563   20.2233 O   0  0  0  0  0  0
  -21.6642   -6.8872   21.4236 O   0  0  0  0  0  0
  -22.3476  -14.5515   20.6716 O   0  0  0  0  0  0
  -24.6472  -31.8414   23.1856 C   0  0  0  0  0  0
  -25.9237  -32.4680   23.8257 C   0  0  1  0  0  0
  -27.2173  -27.1057   20.1650 C   0  0  0  0  0  0
  -25.5972  -33.8484   24.2181 N   0  0  0  0  0  0
  -23.4520  -30.4597   21.5319 C   0  0  2  0  0  0
  -24.9023  -28.8774   20.1156 C   0  0  0  0  0  0
  -22.7592  -29.4536   22.4855 C   0  0  0  0  0  0
  -18.0313  -28.1396   22.8473 C   0  0  0  0  0  0
  -24.1490  -36.7243   23.2641 C   0  0  0  0  0  0
  -26.0101  -30.7064   21.3884 C   0  0  0  0  0  0
  -26.0820  -29.3132   20.7334 C   0  0  0  0  0  0
  -27.2426  -28.4460   20.7355 C   0  0  0  0  0  0
  -26.0122  -26.7773   19.5081 C   0  0  0  0  0  0
  -24.8820  -27.6238   19.4862 C   0  0  0  0  0  0
  -23.6812  -29.7849   20.1531 C   0  0  0  0  0  0
  -25.4123  -36.3019   24.0313 C   0  0  1  0  0  0
  -20.5927  -28.3726   23.1231 C   0  0  2  0  0  0
  -20.6796  -26.9426   22.5407 C   0  0  0  0  0  0
  -19.5767  -26.6377   21.5217 C   0  0  0  0  0  0
  -18.1949  -26.7934   22.1624 C   0  0  0  0  0  0
  -19.1570  -28.8882   23.2842 C   0  0  0  0  0  0
  -18.9481  -30.1478   23.8864 C   0  0  0  0  0  0
  -17.6476  -30.6591   24.0558 C   0  0  0  0  0  0
  -25.9075  -34.9398   23.5056 C   0  0  0  0  0  0
  -16.5369  -29.9079   23.6336 C   0  0  0  0  0  0
  -16.7297  -28.6501   23.0352 C   0  0  0  0  0  0
  -26.4537  -31.6558   25.0715 C   0  0  0  0  0  0
  -25.3711  -31.3767   26.1408 C   0  0  0  0  0  0
  -27.0408  -30.2947   24.6326 C   0  0  0  0  0  0
  -27.6058  -32.4331   25.7512 C   0  0  0  0  0  0
  -27.5574  -37.1778   24.8462 C   0  0  0  0  0  0
  -21.4280  -29.3048   22.3601 N   0  0  0  0  0  0
  -26.4280  -37.3739   23.9409 N   0  0  0  0  0  0
  -24.7232  -31.0243   22.0903 N   0  0  0  0  0  0
  -23.4221  -28.8084   23.3017 O   0  0  0  0  0  0
  -28.2608  -26.1012   20.1890 O   0  0  0  0  0  0
  -26.5658  -34.8901   22.4629 O   0  0  0  0  0  0
  -23.5585  -32.1302   23.7064 O   0  0  0  0  0  0
  -29.2776  -18.9198   17.9378 C   0  0  0  0  0  0
  -29.1336  -20.1455   18.6554 C   0  0  0  0  0  0
  -29.4290  -18.9626   20.8153 C   0  0  0  0  0  0
  -29.5106  -17.7521   18.6796 C   0  0  0  0  0  0
  -29.1678  -20.2578   20.0832 C   0  0  0  0  0  0
  -29.6457  -17.6820   20.0989 C   0  0  0  0  0  0
  -28.8314  -23.2768   20.0510 C   0  0  0  0  0  0
  -29.5446  -16.2546   18.5371 C   0  0  0  0  0  0
  -28.7691  -21.7456   20.7353 C   0  0  0  0  0  0
  -27.9501  -24.6036   20.5600 C   0  0  0  0  0  0
  -29.6788  -16.1288   20.0425 N   0  0  0  0  0  0
  -29.5973  -23.4408   19.0954 O   0  0  0  0  0  0
  -31.4780  -12.7885   19.1810 H   0  0  0  0  0  0
  -30.4569  -11.6734   20.0471 H   0  0  0  0  0  0
  -29.8529  -11.7093   17.6042 H   0  0  0  0  0  0
  -29.6127  -13.4349   17.6648 H   0  0  0  0  0  0
  -27.9546  -11.2702   18.9857 H   0  0  0  0  0  0
  -27.3979  -12.4404   17.8172 H   0  0  0  0  0  0
  -27.5758  -14.2414   19.3994 H   0  0  0  0  0  0
  -28.7726  -12.3366   21.4658 H   0  0  0  0  0  0
  -28.3697  -14.0211   21.7305 H   0  0  0  0  0  0
  -25.2765   -9.5689   22.4758 H   0  0  0  0  0  0
  -24.0003   -7.4633   22.7471 H   0  0  0  0  0  0
  -21.0841   -8.8767   19.8950 H   0  0  0  0  0  0
  -22.3695  -10.9667   19.6160 H   0  0  0  0  0  0
  -21.2014   -7.6142   23.9708 H   0  0  0  0  0  0
  -21.1486   -6.0520   25.9073 H   0  0  0  0  0  0
  -22.0598   -2.7605   23.2842 H   0  0  0  0  0  0
  -22.4062  -11.9875   22.4835 H   0  0  0  0  0  0
  -21.1055  -13.1224   22.2622 H   0  0  0  0  0  0
  -24.6598  -15.8535   20.5531 H   0  0  0  0  0  0
  -26.2851  -15.6381   20.1456 H   0  0  0  0  0  0
  -26.7306  -32.5278   23.0983 H   0  0  0  0  0  0
  -25.0113  -33.9591   25.0327 H   0  0  0  0  0  0
  -22.7565  -31.2866   21.3744 H   0  0  0  0  0  0
  -23.3762  -35.9565   23.3281 H   0  0  0  0  0  0
  -24.3576  -36.8897   22.2059 H   0  0  0  0  0  0
  -23.7238  -37.6428   23.6691 H   0  0  0  0  0  0
  -26.1700  -31.4582   20.6144 H   0  0  0  0  0  0
  -26.8789  -30.7584   22.0328 H   0  0  0  0  0  0
  -28.1432  -28.7787   21.2325 H   0  0  0  0  0  0
  -25.9235  -25.8209   19.0138 H   0  0  0  0  0  0
  -23.9831  -27.2865   18.9886 H   0  0  0  0  0  0
  -23.8245  -30.5572   19.3966 H   0  0  0  0  0  0
  -22.7949  -29.2304   19.8399 H   0  0  0  0  0  0
  -25.1312  -36.1834   25.0804 H   0  0  0  0  0  0
  -21.0019  -28.3320   24.1353 H   0  0  0  0  0  0
  -20.5697  -26.2339   23.3629 H   0  0  0  0  0  0
  -21.6660  -26.7429   22.1202 H   0  0  0  0  0  0
  -19.6924  -25.6280   21.1265 H   0  0  0  0  0  0
  -19.6701  -27.3172   20.6734 H   0  0  0  0  0  0
  -17.4220  -26.6687   21.4025 H   0  0  0  0  0  0
  -18.0337  -26.0087   22.9029 H   0  0  0  0  0  0
  -19.7958  -30.7307   24.2214 H   0  0  0  0  0  0
  -17.5027  -31.6266   24.5168 H   0  0  0  0  0  0
  -15.5367  -30.2961   23.7680 H   0  0  0  0  0  0
  -15.8703  -28.0807   22.7074 H   0  0  0  0  0  0
  -24.5893  -30.7110   25.7734 H   0  0  0  0  0  0
  -24.8898  -32.2957   26.4759 H   0  0  0  0  0  0
  -25.7987  -30.8991   27.0230 H   0  0  0  0  0  0
  -26.3036  -29.6664   24.1317 H   0  0  0  0  0  0
  -27.3987  -29.7260   25.4918 H   0  0  0  0  0  0
  -27.8956  -30.4171   23.9673 H   0  0  0  0  0  0
  -27.2640  -33.3649   26.2025 H   0  0  0  0  0  0
  -28.3904  -32.6862   25.0371 H   0  0  0  0  0  0
  -28.0683  -31.8500   26.5483 H   0  0  0  0  0  0
  -28.2574  -38.0091   24.7519 H   0  0  0  0  0  0
  -28.1086  -36.2619   24.6271 H   0  0  0  0  0  0
  -27.2293  -37.1405   25.8866 H   0  0  0  0  0  0
  -20.9503  -29.8751   21.6762 H   0  0  0  0  0  0
  -26.0142  -38.2802   24.1421 H   0  0  0  0  0  0
  -29.1606  -18.8842   16.8636 H   0  0  0  0  0  0
  -28.9232  -21.0326   18.0738 H   0  0  0  0  0  0
  -29.3803  -18.9540   21.8952 H   0  0  0  0  0  0
  -30.4087  -15.9277   17.9535 H   0  0  0  0  0  0
  -28.6160  -15.8599   18.1253 H   0  0  0  0  0  0
  -29.3560  -21.8280   21.6500 H   0  0  0  0  0  0
  -27.7413  -21.6399   21.0818 H   0  0  0  0  0  0
  -27.9566  -24.5613   21.6491 H   0  0  0  0  0  0
  -26.9189  -24.3895   20.2850 H   0  0  0  0  0  0
  1 25  1  0  0  0
  1 30  2  0  0  0
  1 81  1  0  0  0
  2  3  1  0  0  0
  2 25  1  0  0  0
  2 83  1  0  0  0
  2 84  1  0  0  0
  3  4  1  0  0  0
  3 85  1  0  0  0
  3 86  1  0  0  0
  4  5  1  0  0  0
  4 87  1  0  0  0
  4 88  1  0  0  0
  5  6  1  0  0  0
  5 26  1  0  0  0
  5 89  1  0  0  0
  6 25  1  0  0  0
  6 90  1  0  0  0
  6 91  1  0  0  0
  7  8  2  0  0  0
  7 26  1  0  0  0
  7 29  1  0  0  0
  8  9  1  0  0  0
  8 22  1  0  0  0
  9 10  1  0  0  0
  9 27  2  0  0  0
 10 11  2  0  0  0
 10 15  1  0  0  0
 11 12  1  0  0  0
 11 92  1  0  0  0
 12 13  2  0  0  0
 12 93  1  0  0  0
 13 14  1  0  0  0
 13 31  1  0  0  0
 14 15  2  0  0  0
 14 94  1  0  0  0
 15 95  1  0  0  0
 16 17  2  0  0  0
 16 21  1  0  0  0
 16 31  1  0  0  0
 17 18  1  0  0  0
 17 96  1  0  0  0
 18 19  2  0  0  0
 18 97  1  0  0  0
 19 20  1  0  0  0
 19 24  1  0  0  0
 20 21  2  0  0  0
 20 98  1  0  0  0
 21 23  1  0  0  0
 22 28  1  0  0  0
 22 32  2  0  0  0
 26 27  1  0  0  0
 28 99  1  0  0  0
 28100  1  0  0  0
 29101  1  0  0  0
 29102  1  0  0  0
 33 34  1  0  0  0
 33 66  1  0  0  0
 33 70  2  0  0  0
 34 36  1  0  0  0
 34 59  1  0  0  0
 34103  1  0  0  0
 35 44  2  0  0  0
 35 45  1  0  0  0
 35 68  1  0  0  0
 36 56  1  0  0  0
 36104  1  0  0  0
 37 39  1  0  0  0
 37 47  1  0  0  0
 37 66  1  0  0  0
 37105  1  0  0  0
 38 43  2  0  0  0
 38 46  1  0  0  0
 38 47  1  0  0  0
 39 64  1  0  0  0
 39 67  2  0  0  0
 40 52  1  0  0  0
 40 53  2  0  0  0
 40 58  1  0  0  0
 41106  1  0  0  0
 41107  1  0  0  0
 41108  1  0  0  0
 41 48  1  0  0  0
 42 43  1  0  0  0
 42 66  1  0  0  0
 42109  1  0  0  0
 42110  1  0  0  0
 43 44  1  0  0  0
 44111  1  0  0  0
 45 46  2  0  0  0
 45112  1  0  0  0
 46113  1  0  0  0
 47114  1  0  0  0
 47115  1  0  0  0
 48 56  1  0  0  0
 48 65  1  0  0  0
 48116  1  0  0  0
 49 50  1  0  0  0
 49 53  1  0  0  0
 49 64  1  0  0  0
 49117  1  0  0  0
 50 51  1  0  0  0
 50118  1  0  0  0
 50119  1  0  0  0
 51 52  1  0  0  0
 51120  1  0  0  0
 51121  1  0  0  0
 52122  1  0  0  0
 52123  1  0  0  0
 53 54  1  0  0  0
 54 55  2  0  0  0
 54124  1  0  0  0
 55 57  1  0  0  0
 55125  1  0  0  0
 56 69  2  0  0  0
 57 58  2  0  0  0
 57126  1  0  0  0
 58127  1  0  0  0
 59 60  1  0  0  0
 59 61  1  0  0  0
 59 62  1  0  0  0
 60128  1  0  0  0
 60129  1  0  0  0
 60130  1  0  0  0
 61131  1  0  0  0
 61132  1  0  0  0
 61133  1  0  0  0
 62134  1  0  0  0
 62135  1  0  0  0
 62136  1  0  0  0
 63 65  1  0  0  0
 63137  1  0  0  0
 63138  1  0  0  0
 63139  1  0  0  0
 64140  1  0  0  0
 65141  1  0  0  0
 68 80  1  0  0  0
 71 72  2  0  0  0
 71 74  1  0  0  0
 71142  1  0  0  0
 72 75  1  0  0  0
 72143  1  0  0  0
 73 75  2  0  0  0
 73 76  1  0  0  0
 73144  1  0  0  0
 74 76  2  0  0  0
 74 78  1  0  0  0
 75 79  1  0  0  0
 76 81  1  0  0  0
 77 79  1  0  0  0
 77 80  1  0  0  0
 77 82  2  0  0  0
 78 81  1  0  0  0
 78145  1  0  0  0
 78146  1  0  0  0
 79147  1  0  0  0
 79148  1  0  0  0
 80149  1  0  0  0
 80150  1  0  0  0
M  ISO  4   1 100  68 101  80 101  81 100
M  END
> <chiral flag>
0

> <version>
0

> <s_m_source_file>
/data/baiqing/PycharmProjects/Reinvent-master-3.2/result/LINK_invent/BTK/process_docking_weight1_custom_product_contain_oxygen_bond_distance_aromatic_linkinvent_7_9_3/rearranged_h_0142.sdf

> <i_m_source_file_index>
4

> <r_mmod_Potential_Energy-OPLS-2005>
1167.00451660156

> <r_mmod_Stretch_Energy-OPLS-2005>
310.834777832031

> <r_mmod_Bend_Energy-OPLS-2005>
682.742553710938

> <r_mmod_Torsional_Energy-OPLS-2005>
307.250061035156

> <r_mmod_Improper_Torsional_Energy-OPLS-2005>
29.4262638092041

> <r_mmod_Van_der_Waal_Energy-OPLS-2005>
118.707138061523

> <r_mmod_Electrostatic_Energy-OPLS-2005>
-287.669647216797

> <r_mmod_Solvation_Energy-OPLS-2005>
-223.116516113281

> <b_mmod_Minimization_Converged-OPLS-2005>
0

> <r_mmod_RMS_Derivative-OPLS-2005>
1.00353634357452

$$$$
4
                    3D
 Structure written by MMmdl.
160168  0  0  1  0            999 V2000
  -30.6011  -14.7019   20.4236 C   0  0  0  0  0  0
  -30.4403  -12.4211   19.4357 C   0  0  0  0  0  0
  -29.5031  -12.5112   18.2091 C   0  0  0  0  0  0
  -28.0252  -12.3460   18.6185 C   0  0  0  0  0  0
  -27.6459  -13.2161   19.8460 C   0  0  2  0  0  0
  -28.7037  -13.1264   20.9677 C   0  0  0  0  0  0
  -25.2562  -13.8130   20.5656 C   0  0  0  0  0  0
  -24.1848  -13.0396   20.9215 C   0  0  0  0  0  0
  -24.6415  -11.6870   20.8799 C   0  0  0  0  0  0
  -23.9077  -10.4266   21.0446 C   0  0  0  0  0  0
  -24.3625   -9.4186   21.9193 C   0  0  0  0  0  0
  -23.6306   -8.2212   22.0762 C   0  0  0  0  0  0
  -22.4284   -8.0266   21.3552 C   0  0  0  0  0  0
  -21.9919   -9.0241   20.4660 C   0  0  0  0  0  0
  -22.7249  -10.2122   20.3084 C   0  0  0  0  0  0
  -21.6850   -6.0738   22.5275 C   0  0  0  0  0  0
  -21.4000   -6.5648   23.8196 C   0  0  0  0  0  0
  -21.3678   -5.6801   24.9170 C   0  0  0  0  0  0
  -21.6057   -4.3070   24.7228 C   0  0  0  0  0  0
  -21.8821   -3.8160   23.4333 C   0  0  0  0  0  0
  -21.9177   -4.6956   22.3409 C   0  0  0  0  0  0
  -22.7860  -13.5248   21.1846 C   0  0  0  0  0  0
  -22.1650   -4.2142   21.0979 F   0  0  0  0  0  0
  -21.5644   -3.4547   25.7749 F   0  0  0  0  0  0
  -30.0025  -13.4674   20.3780 N   0  0  0  0  0  0
  -26.2985  -12.9312   20.3286 N   0  0  0  0  0  0
  -25.9361  -11.6471   20.5812 N   0  0  0  0  0  0
  -22.0486  -12.8274   22.0414 N   0  0  0  0  0  0
  -25.4141  -15.1832   20.3975 N   0  0  0  0  0  0
  -31.8068  -14.8326   20.2104 O   0  0  0  0  0  0
  -21.6637   -6.8867   21.4226 O   0  0  0  0  0  0
  -22.3559  -14.5512   20.6625 O   0  0  0  0  0  0
  -24.6351  -31.8591   23.1990 C   0  0  0  0  0  0
  -25.9194  -32.4784   23.8329 C   0  0  1  0  0  0
  -27.1827  -27.2368   20.1353 C   0  0  0  0  0  0
  -25.5964  -33.8573   24.2236 N   0  0  0  0  0  0
  -23.4298  -30.4856   21.5409 C   0  0  2  0  0  0
  -24.8643  -28.9243   20.1158 C   0  0  0  0  0  0
  -22.7531  -29.4658   22.4885 C   0  0  0  0  0  0
  -18.0313  -28.1502   22.8492 C   0  0  0  0  0  0
  -24.1447  -36.7257   23.2623 C   0  0  0  0  0  0
  -25.9784  -30.7555   21.3871 C   0  0  0  0  0  0
  -26.0370  -29.3733   20.7380 C   0  0  0  0  0  0
  -27.2022  -28.5419   20.7364 C   0  0  0  0  0  0
  -25.9933  -26.8571   19.4859 C   0  0  0  0  0  0
  -24.8498  -27.6731   19.4778 C   0  0  0  0  0  0
  -23.6493  -29.8257   20.1554 C   0  0  0  0  0  0
  -25.4085  -36.3083   24.0310 C   0  0  1  0  0  0
  -20.5927  -28.3799   23.1284 C   0  0  2  0  0  0
  -20.6797  -26.9509   22.5431 C   0  0  0  0  0  0
  -19.5766  -26.6461   21.5258 C   0  0  0  0  0  0
  -18.1940  -26.8039   22.1645 C   0  0  0  0  0  0
  -19.1583  -28.8960   23.2890 C   0  0  0  0  0  0
  -18.9492  -30.1559   23.8940 C   0  0  0  0  0  0
  -17.6487  -30.6679   24.0628 C   0  0  0  0  0  0
  -25.9056  -34.9459   23.5067 C   0  0  0  0  0  0
  -16.5380  -29.9182   23.6360 C   0  0  0  0  0  0
  -16.7298  -28.6608   23.0346 C   0  0  0  0  0  0
  -26.4558  -31.6641   25.0746 C   0  0  0  0  0  0
  -25.3745  -31.3802   26.1450 C   0  0  0  0  0  0
  -27.0376  -30.3048   24.6243 C   0  0  0  0  0  0
  -27.6081  -32.4391   25.7568 C   0  0  0  0  0  0
  -27.5542  -37.1792   24.8465 C   0  0  0  0  0  0
  -21.4237  -29.3105   22.3638 N   0  0  0  0  0  0
  -26.4256  -37.3792   23.9412 N   0  0  0  0  0  0
  -24.7008  -31.0518   22.0993 N   0  0  0  0  0  0
  -23.4220  -28.8224   23.3004 O   0  0  0  0  0  0
  -28.2829  -26.3652   20.0415 O   0  0  0  0  0  0
  -26.5627  -34.8946   22.4646 O   0  0  0  0  0  0
  -23.5508  -32.1430   23.7288 O   0  0  0  0  0  0
  -30.4342  -19.5499   21.1644 C   0  0  0  0  0  0
  -29.2637  -19.5460   20.4432 C   0  0  0  0  0  0
  -29.0123  -18.1748   19.9350 C   0  0  0  0  0  0
  -29.8605  -17.1628   20.4437 C   0  0  0  0  0  0
  -28.3496  -20.7684   20.3311 C   0  0  0  0  0  0
  -27.9387  -17.8323   18.9799 C   0  0  0  0  0  0
  -27.6394  -18.8529   17.8848 C   0  0  0  0  0  0
  -26.6251  -23.3327   21.3945 C   0  0  0  0  0  0
  -27.2003  -23.5564   18.9074 C   0  0  0  0  0  0
  -28.8305  -22.2987   20.4557 C   0  0  0  0  0  0
  -28.3579  -25.0436   20.7595 C   0  0  0  0  0  0
  -27.7706  -23.5594   20.3573 C   0  0  0  0  0  0
  -29.7291  -15.7716   20.3479 N   0  0  0  0  0  0
  -27.1450  -20.6013   20.1407 O   0  0  0  0  0  0
  -27.3482  -16.7485   18.9294 O   0  0  0  0  0  0
  -31.1513  -17.9480   21.3312 S   0  0  0  0  0  0
  -31.4775  -12.5532   19.1233 H   0  0  0  0  0  0
  -30.3842  -11.4380   19.9036 H   0  0  0  0  0  0
  -29.7696  -11.7582   17.4632 H   0  0  0  0  0  0
  -29.6333  -13.4802   17.7253 H   0  0  0  0  0  0
  -27.8603  -11.2898   18.8336 H   0  0  0  0  0  0
  -27.3733  -12.5894   17.7801 H   0  0  0  0  0  0
  -27.6417  -14.2407   19.4833 H   0  0  0  0  0  0
  -28.7431  -12.1284   21.4058 H   0  0  0  0  0  0
  -28.4607  -13.8111   21.7806 H   0  0  0  0  0  0
  -25.2767   -9.5643   22.4759 H   0  0  0  0  0  0
  -24.0002   -7.4624   22.7503 H   0  0  0  0  0  0
  -21.0820   -8.8776   19.8992 H   0  0  0  0  0  0
  -22.3703  -10.9664   19.6200 H   0  0  0  0  0  0
  -21.1971   -7.6146   23.9687 H   0  0  0  0  0  0
  -21.1517   -6.0544   25.9064 H   0  0  0  0  0  0
  -22.0576   -2.7606   23.2847 H   0  0  0  0  0  0
  -22.4130  -11.9966   22.4816 H   0  0  0  0  0  0
  -21.1114  -13.1319   22.2639 H   0  0  0  0  0  0
  -24.6032  -15.7933   20.4064 H   0  0  0  0  0  0
  -26.2100  -15.6030   19.9200 H   0  0  0  0  0  0
  -26.7251  -32.5450   23.1058 H   0  0  0  0  0  0
  -25.0145  -33.9724   25.0420 H   0  0  0  0  0  0
  -22.7263  -31.3068   21.3965 H   0  0  0  0  0  0
  -23.3732  -35.9564   23.3360 H   0  0  0  0  0  0
  -24.3492  -36.8826   22.2004 H   0  0  0  0  0  0
  -23.7176  -37.6459   23.6633 H   0  0  0  0  0  0
  -26.1085  -31.5096   20.6073 H   0  0  0  0  0  0
  -26.8623  -30.8123   22.0133 H   0  0  0  0  0  0
  -28.1094  -28.8854   21.2171 H   0  0  0  0  0  0
  -25.9430  -25.9184   18.9583 H   0  0  0  0  0  0
  -23.9592  -27.3369   18.9650 H   0  0  0  0  0  0
  -23.7905  -30.6064   19.4056 H   0  0  0  0  0  0
  -22.7634  -29.2730   19.8404 H   0  0  0  0  0  0
  -25.1263  -36.1906   25.0797 H   0  0  0  0  0  0
  -21.0032  -28.3408   24.1412 H   0  0  0  0  0  0
  -20.5738  -26.2420   23.3655 H   0  0  0  0  0  0
  -21.6662  -26.7547   22.1228 H   0  0  0  0  0  0
  -19.6911  -25.6362   21.1321 H   0  0  0  0  0  0
  -19.6739  -27.3256   20.6793 H   0  0  0  0  0  0
  -17.4222  -26.6845   21.4034 H   0  0  0  0  0  0
  -18.0298  -26.0223   22.9080 H   0  0  0  0  0  0
  -19.7961  -30.7394   24.2314 H   0  0  0  0  0  0
  -17.5037  -31.6353   24.5242 H   0  0  0  0  0  0
  -15.5390  -30.3103   23.7673 H   0  0  0  0  0  0
  -15.8708  -28.0977   22.7004 H   0  0  0  0  0  0
  -24.5962  -30.7098   25.7805 H   0  0  0  0  0  0
  -24.8920  -32.2985   26.4787 H   0  0  0  0  0  0
  -25.8074  -30.9057   27.0276 H   0  0  0  0  0  0
  -26.2953  -29.6842   24.1221 H   0  0  0  0  0  0
  -27.3964  -29.7273   25.4781 H   0  0  0  0  0  0
  -27.8900  -30.4293   23.9550 H   0  0  0  0  0  0
  -27.2670  -33.3716   26.2076 H   0  0  0  0  0  0
  -28.4005  -32.6924   25.0509 H   0  0  0  0  0  0
  -28.0664  -31.8569   26.5566 H   0  0  0  0  0  0
  -28.2608  -38.0061   24.7560 H   0  0  0  0  0  0
  -28.1010  -36.2603   24.6280 H   0  0  0  0  0  0
  -27.2272  -37.1426   25.8881 H   0  0  0  0  0  0
  -20.9428  -29.8777   21.6797 H   0  0  0  0  0  0
  -26.0123  -38.2845   24.1505 H   0  0  0  0  0  0
  -30.9003  -20.3953   21.6522 H   0  0  0  0  0  0
  -28.4460  -19.5823   17.8091 H   0  0  0  0  0  0
  -26.7160  -19.3861   18.1091 H   0  0  0  0  0  0
  -27.5185  -18.3753   16.9147 H   0  0  0  0  0  0
  -26.0473  -22.4157   21.2656 H   0  0  0  0  0  0
  -25.8950  -24.1403   21.3634 H   0  0  0  0  0  0
  -27.0206  -23.3033   22.4145 H   0  0  0  0  0  0
  -27.3770  -22.6107   18.3843 H   0  0  0  0  0  0
  -27.6814  -24.3282   18.3058 H   0  0  0  0  0  0
  -26.1169  -23.7048   18.8533 H   0  0  0  0  0  0
  -29.5466  -22.4186   19.6440 H   0  0  0  0  0  0
  -29.4184  -22.3793   21.3681 H   0  0  0  0  0  0
  -29.4318  -24.8833   20.8625 H   0  0  0  0  0  0
  -28.0554  -25.2829   21.7827 H   0  0  0  0  0  0
  -28.7839  -15.4599   20.1801 H   0  0  0  0  0  0
  1 25  1  0  0  0
  1 30  2  0  0  0
  1 83  1  0  0  0
  2  3  1  0  0  0
  2 25  1  0  0  0
  2 87  1  0  0  0
  2 88  1  0  0  0
  3  4  1  0  0  0
  3 89  1  0  0  0
  3 90  1  0  0  0
  4  5  1  0  0  0
  4 91  1  0  0  0
  4 92  1  0  0  0
  5  6  1  0  0  0
  5 26  1  0  0  0
  5 93  1  0  0  0
  6 25  1  0  0  0
  6 94  1  0  0  0
  6 95  1  0  0  0
  7  8  2  0  0  0
  7 26  1  0  0  0
  7 29  1  0  0  0
  8  9  1  0  0  0
  8 22  1  0  0  0
  9 10  1  0  0  0
  9 27  2  0  0  0
 10 11  2  0  0  0
 10 15  1  0  0  0
 11 12  1  0  0  0
 11 96  1  0  0  0
 12 13  2  0  0  0
 12 97  1  0  0  0
 13 14  1  0  0  0
 13 31  1  0  0  0
 14 15  2  0  0  0
 14 98  1  0  0  0
 15 99  1  0  0  0
 16 17  2  0  0  0
 16 21  1  0  0  0
 16 31  1  0  0  0
 17 18  1  0  0  0
 17100  1  0  0  0
 18 19  2  0  0  0
 18101  1  0  0  0
 19 20  1  0  0  0
 19 24  1  0  0  0
 20 21  2  0  0  0
 20102  1  0  0  0
 21 23  1  0  0  0
 22 28  1  0  0  0
 22 32  2  0  0  0
 26 27  1  0  0  0
 28103  1  0  0  0
 28104  1  0  0  0
 29105  1  0  0  0
 29106  1  0  0  0
 33 34  1  0  0  0
 33 66  1  0  0  0
 33 70  2  0  0  0
 34 36  1  0  0  0
 34 59  1  0  0  0
 34107  1  0  0  0
 35 44  2  0  0  0
 35 45  1  0  0  0
 35 68  1  0  0  0
 36 56  1  0  0  0
 36108  1  0  0  0
 37 39  1  0  0  0
 37 47  1  0  0  0
 37 66  1  0  0  0
 37109  1  0  0  0
 38 43  2  0  0  0
 38 46  1  0  0  0
 38 47  1  0  0  0
 39 64  1  0  0  0
 39 67  2  0  0  0
 40 52  1  0  0  0
 40 53  2  0  0  0
 40 58  1  0  0  0
 41110  1  0  0  0
 41111  1  0  0  0
 41112  1  0  0  0
 41 48  1  0  0  0
 42 43  1  0  0  0
 42 66  1  0  0  0
 42113  1  0  0  0
 42114  1  0  0  0
 43 44  1  0  0  0
 44115  1  0  0  0
 45 46  2  0  0  0
 45116  1  0  0  0
 46117  1  0  0  0
 47118  1  0  0  0
 47119  1  0  0  0
 48 56  1  0  0  0
 48 65  1  0  0  0
 48120  1  0  0  0
 49 50  1  0  0  0
 49 53  1  0  0  0
 49 64  1  0  0  0
 49121  1  0  0  0
 50 51  1  0  0  0
 50122  1  0  0  0
 50123  1  0  0  0
 51 52  1  0  0  0
 51124  1  0  0  0
 51125  1  0  0  0
 52126  1  0  0  0
 52127  1  0  0  0
 53 54  1  0  0  0
 54 55  2  0  0  0
 54128  1  0  0  0
 55 57  1  0  0  0
 55129  1  0  0  0
 56 69  2  0  0  0
 57 58  2  0  0  0
 57130  1  0  0  0
 58131  1  0  0  0
 59 60  1  0  0  0
 59 61  1  0  0  0
 59 62  1  0  0  0
 60132  1  0  0  0
 60133  1  0  0  0
 60134  1  0  0  0
 61135  1  0  0  0
 61136  1  0  0  0
 61137  1  0  0  0
 62138  1  0  0  0
 62139  1  0  0  0
 62140  1  0  0  0
 63 65  1  0  0  0
 63141  1  0  0  0
 63142  1  0  0  0
 63143  1  0  0  0
 64144  1  0  0  0
 65145  1  0  0  0
 68 81  1  0  0  0
 71 72  2  0  0  0
 71 86  1  0  0  0
 71146  1  0  0  0
 72 73  1  0  0  0
 72 75  1  0  0  0
 73 74  2  0  0  0
 73 76  1  0  0  0
 74 83  1  0  0  0
 74 86  1  0  0  0
 75 80  1  0  0  0
 75 84  2  0  0  0
 76 77  1  0  0  0
 76 85  2  0  0  0
 77147  1  0  0  0
 77148  1  0  0  0
 77149  1  0  0  0
 78150  1  0  0  0
 78151  1  0  0  0
 78152  1  0  0  0
 78 82  1  0  0  0
 79 82  1  0  0  0
 79153  1  0  0  0
 79154  1  0  0  0
 79155  1  0  0  0
 80 82  1  0  0  0
 80156  1  0  0  0
 80157  1  0  0  0
 81 82  1  0  0  0
 81158  1  0  0  0
 81159  1  0  0  0
 83160  1  0  0  0
M  ISO  4   1 100  68 101  81 101  83 100
M  END
> <chiral flag>
0

> <version>
0

> <s_m_source_file>
/data/baiqing/PycharmProjects/Reinvent-master-3.2/result/LINK_invent/BTK/process_docking_weight1_custom_product_contain_oxygen_bond_distance_aromatic_linkinvent_7_9_3/rearranged_h_0142.sdf

> <i_m_source_file_index>
5

> <r_mmod_Potential_Energy-OPLS-2005>
264.732299804688

> <r_mmod_Stretch_Energy-OPLS-2005>
129.56135559082

> <r_mmod_Bend_Energy-OPLS-2005>
200.393997192383

> <r_mmod_Torsional_Energy-OPLS-2005>
311.880584716797

> <r_mmod_Improper_Torsional_Energy-OPLS-2005>
12.6751890182495

> <r_mmod_Van_der_Waal_Energy-OPLS-2005>
128.480804443359

> <r_mmod_Electrostatic_Energy-OPLS-2005>
-393.132690429688

> <r_mmod_Solvation_Energy-OPLS-2005>
-207.115768432617

> <b_mmod_Minimization_Converged-OPLS-2005>
0

> <r_mmod_RMS_Derivative-OPLS-2005>
6.91070508956909

$$$$
5
                    3D
 Structure written by MMmdl.
163171  0  0  1  0            999 V2000
  -30.7205  -14.4353   20.5822 C   0  0  0  0  0  0
  -30.4184  -12.2990   19.3980 C   0  0  0  0  0  0
  -29.4871  -12.5129   18.1888 C   0  0  0  0  0  0
  -28.0075  -12.3743   18.6020 C   0  0  0  0  0  0
  -27.6595  -13.2050   19.8681 C   0  0  2  0  0  0
  -28.7033  -12.9733   20.9823 C   0  0  0  0  0  0
  -25.2595  -13.8160   20.5683 C   0  0  0  0  0  0
  -24.1851  -13.0428   20.9177 C   0  0  0  0  0  0
  -24.6395  -11.6895   20.8706 C   0  0  0  0  0  0
  -23.9055  -10.4286   21.0373 C   0  0  0  0  0  0
  -24.3615   -9.4215   21.9165 C   0  0  0  0  0  0
  -23.6298   -8.2245   22.0740 C   0  0  0  0  0  0
  -22.4284   -8.0271   21.3535 C   0  0  0  0  0  0
  -21.9903   -9.0236   20.4640 C   0  0  0  0  0  0
  -22.7219  -10.2126   20.3039 C   0  0  0  0  0  0
  -21.6867   -6.0731   22.5279 C   0  0  0  0  0  0
  -21.4020   -6.5627   23.8214 C   0  0  0  0  0  0
  -21.3663   -5.6782   24.9175 C   0  0  0  0  0  0
  -21.6048   -4.3040   24.7224 C   0  0  0  0  0  0
  -21.8828   -3.8142   23.4345 C   0  0  0  0  0  0
  -21.9208   -4.6962   22.3402 C   0  0  0  0  0  0
  -22.7873  -13.5220   21.1857 C   0  0  0  0  0  0
  -22.1669   -4.2145   21.0984 F   0  0  0  0  0  0
  -21.5623   -3.4530   25.7740 F   0  0  0  0  0  0
  -30.0337  -13.2739   20.4278 N   0  0  0  0  0  0
  -26.3022  -12.9316   20.3336 N   0  0  0  0  0  0
  -25.9321  -11.6477   20.5727 N   0  0  0  0  0  0
  -22.0519  -12.8206   22.0415 N   0  0  0  0  0  0
  -25.4319  -15.1888   20.4109 N   0  0  0  0  0  0
  -31.8587  -14.6071   20.1413 O   0  0  0  0  0  0
  -21.6652   -6.8874   21.4243 O   0  0  0  0  0  0
  -22.3541  -14.5520   20.6708 O   0  0  0  0  0  0
  -24.6152  -31.8693   23.2108 C   0  0  0  0  0  0
  -25.9058  -32.4823   23.8395 C   0  0  1  0  0  0
  -27.2238  -27.4344   20.0818 C   0  0  0  0  0  0
  -25.5923  -33.8623   24.2324 N   0  0  0  0  0  0
  -23.4003  -30.4973   21.5530 C   0  0  2  0  0  0
  -24.8410  -28.9667   20.1152 C   0  0  0  0  0  0
  -22.7389  -29.4689   22.4991 C   0  0  0  0  0  0
  -18.0260  -28.1393   22.8496 C   0  0  0  0  0  0
  -24.1499  -36.7308   23.2635 C   0  0  0  0  0  0
  -25.9324  -30.8321   21.3683 C   0  0  0  0  0  0
  -26.0046  -29.4697   20.7087 C   0  0  0  0  0  0
  -27.1984  -28.7115   20.6888 C   0  0  0  0  0  0
  -26.0302  -26.9429   19.4981 C   0  0  0  0  0  0
  -24.8474  -27.7004   19.5119 C   0  0  0  0  0  0
  -23.6058  -29.8359   20.1664 C   0  0  0  0  0  0
  -25.4121  -36.3107   24.0335 C   0  0  1  0  0  0
  -20.5852  -28.3678   23.1312 C   0  0  2  0  0  0
  -20.6769  -26.9417   22.5410 C   0  0  0  0  0  0
  -19.5746  -26.6398   21.5211 C   0  0  0  0  0  0
  -18.1915  -26.7943   22.1620 C   0  0  0  0  0  0
  -19.1511  -28.8848   23.2908 C   0  0  0  0  0  0
  -18.9445  -30.1457   23.8924 C   0  0  0  0  0  0
  -17.6449  -30.6600   24.0572 C   0  0  0  0  0  0
  -25.9052  -34.9474   23.5123 C   0  0  0  0  0  0
  -16.5338  -29.9108   23.6332 C   0  0  0  0  0  0
  -16.7249  -28.6522   23.0349 C   0  0  0  0  0  0
  -26.4486  -31.6603   25.0728 C   0  0  0  0  0  0
  -25.3748  -31.3700   26.1473 C   0  0  0  0  0  0
  -27.0324  -30.3041   24.6131 C   0  0  0  0  0  0
  -27.6060  -32.4330   25.7487 C   0  0  0  0  0  0
  -27.5584  -37.1808   24.8460 C   0  0  0  0  0  0
  -21.4119  -29.3052   22.3719 N   0  0  0  0  0  0
  -26.4302  -37.3793   23.9394 N   0  0  0  0  0  0
  -24.6681  -31.0791   22.1022 N   0  0  0  0  0  0
  -23.4166  -28.8219   23.3020 O   0  0  0  0  0  0
  -28.4045  -26.7128   20.0770 O   0  0  0  0  0  0
  -26.5600  -34.8922   22.4679 O   0  0  0  0  0  0
  -23.5348  -32.1454   23.7515 O   0  0  0  0  0  0
  -29.4781  -18.9161   20.3194 C   0  0  0  0  0  0
  -30.9847  -17.5497   18.9726 C   0  0  0  0  0  0
  -30.0003  -19.5672   18.0272 C   0  0  0  0  0  0
  -30.3022  -17.7700   20.1899 C   0  0  0  0  0  0
  -29.3203  -19.8151   19.2375 C   0  0  0  0  0  0
  -30.8368  -18.4440   17.8982 C   0  0  0  0  0  0
  -29.5405  -23.1916   19.1307 C   0  0  0  0  0  0
  -30.7378  -25.4047   18.7996 C   0  0  0  0  0  0
  -30.2367  -24.6064   21.1306 C   0  0  0  0  0  0
  -30.4916  -16.8090   21.3632 C   0  0  0  0  0  0
  -29.0071  -22.0820   20.0659 C   0  0  0  0  0  0
  -28.3533  -25.3631   19.5901 C   0  0  0  0  0  0
  -29.7185  -24.6380   19.6751 C   0  0  0  0  0  0
  -28.4726  -20.9291   19.3304 N   0  0  0  0  0  0
  -30.0225  -15.4411   21.1310 N   0  0  0  0  0  0
  -29.7639  -22.9287   17.9438 O   0  0  0  0  0  0
  -31.5034  -18.2233   16.7386 F   0  0  0  0  0  0
  -31.4608  -12.4024   19.0883 H   0  0  0  0  0  0
  -30.3211  -11.2836   19.7843 H   0  0  0  0  0  0
  -29.7243  -11.7988   17.3988 H   0  0  0  0  0  0
  -29.6605  -13.5030   17.7620 H   0  0  0  0  0  0
  -27.8100  -11.3176   18.7828 H   0  0  0  0  0  0
  -27.3599  -12.6630   17.7731 H   0  0  0  0  0  0
  -27.7047  -14.2561   19.5806 H   0  0  0  0  0  0
  -28.6773  -11.9338   21.3137 H   0  0  0  0  0  0
  -28.4673  -13.5668   21.8671 H   0  0  0  0  0  0
  -25.2765   -9.5697   22.4734 H   0  0  0  0  0  0
  -24.0029   -7.4637   22.7439 H   0  0  0  0  0  0
  -21.0849   -8.8727   19.8936 H   0  0  0  0  0  0
  -22.3664  -10.9650   19.6139 H   0  0  0  0  0  0
  -21.2000   -7.6133   23.9708 H   0  0  0  0  0  0
  -21.1478   -6.0512   25.9077 H   0  0  0  0  0  0
  -22.0615   -2.7605   23.2850 H   0  0  0  0  0  0
  -22.4143  -11.9869   22.4803 H   0  0  0  0  0  0
  -21.1118  -13.1202   22.2592 H   0  0  0  0  0  0
  -24.6630  -15.8433   20.5113 H   0  0  0  0  0  0
  -26.2857  -15.6301   20.0921 H   0  0  0  0  0  0
  -26.7122  -32.5524   23.1145 H   0  0  0  0  0  0
  -25.0094  -33.9796   25.0485 H   0  0  0  0  0  0
  -22.6904  -31.3164   21.4172 H   0  0  0  0  0  0
  -23.3766  -35.9635   23.3307 H   0  0  0  0  0  0
  -24.3587  -36.8923   22.2047 H   0  0  0  0  0  0
  -23.7259  -37.6515   23.6653 H   0  0  0  0  0  0
  -26.0546  -31.6027   20.6058 H   0  0  0  0  0  0
  -26.8179  -30.8737   21.9911 H   0  0  0  0  0  0
  -28.0973  -29.0991   21.1470 H   0  0  0  0  0  0
  -25.9747  -25.9741   19.0236 H   0  0  0  0  0  0
  -23.9500  -27.3042   19.0568 H   0  0  0  0  0  0
  -23.7141  -30.6144   19.4106 H   0  0  0  0  0  0
  -22.7295  -29.2585   19.8675 H   0  0  0  0  0  0
  -25.1305  -36.1963   25.0830 H   0  0  0  0  0  0
  -20.9945  -28.3254   24.1435 H   0  0  0  0  0  0
  -20.5693  -26.2282   23.3597 H   0  0  0  0  0  0
  -21.6637  -26.7482   22.1187 H   0  0  0  0  0  0
  -19.6912  -25.6307   21.1247 H   0  0  0  0  0  0
  -19.6703  -27.3214   20.6746 H   0  0  0  0  0  0
  -17.4192  -26.6694   21.4015 H   0  0  0  0  0  0
  -18.0317  -26.0078   22.9014 H   0  0  0  0  0  0
  -19.7918  -30.7261   24.2313 H   0  0  0  0  0  0
  -17.5003  -31.6283   24.5168 H   0  0  0  0  0  0
  -15.5341  -30.3024   23.7638 H   0  0  0  0  0  0
  -15.8645  -28.0852   22.7057 H   0  0  0  0  0  0
  -24.5922  -30.7060   25.7790 H   0  0  0  0  0  0
  -24.8949  -32.2854   26.4940 H   0  0  0  0  0  0
  -25.8106  -30.8839   27.0215 H   0  0  0  0  0  0
  -26.2874  -29.6788   24.1203 H   0  0  0  0  0  0
  -27.4091  -29.7296   25.4605 H   0  0  0  0  0  0
  -27.8710  -30.4338   23.9288 H   0  0  0  0  0  0
  -27.2671  -33.3607   26.2104 H   0  0  0  0  0  0
  -28.3839  -32.6939   25.0302 H   0  0  0  0  0  0
  -28.0767  -31.8447   26.5367 H   0  0  0  0  0  0
  -28.2602  -38.0103   24.7507 H   0  0  0  0  0  0
  -28.1084  -36.2638   24.6294 H   0  0  0  0  0  0
  -27.2294  -37.1460   25.8860 H   0  0  0  0  0  0
  -20.9268  -29.8753   21.6930 H   0  0  0  0  0  0
  -26.0194  -38.2870   24.1405 H   0  0  0  0  0  0
  -28.9578  -19.0973   21.2488 H   0  0  0  0  0  0
  -31.6440  -16.7045   18.8547 H   0  0  0  0  0  0
  -29.8945  -20.2383   17.1883 H   0  0  0  0  0  0
  -31.7192  -24.9291   18.8131 H   0  0  0  0  0  0
  -30.8683  -26.4287   19.1497 H   0  0  0  0  0  0
  -30.4140  -25.4684   17.7604 H   0  0  0  0  0  0
  -31.1355  -23.9947   21.2202 H   0  0  0  0  0  0
  -29.4937  -24.2065   21.8219 H   0  0  0  0  0  0
  -30.4924  -25.6066   21.4827 H   0  0  0  0  0  0
  -29.9591  -17.1927   22.2344 H   0  0  0  0  0  0
  -31.5477  -16.7952   21.6399 H   0  0  0  0  0  0
  -28.2135  -22.5050   20.6824 H   0  0  0  0  0  0
  -29.8052  -21.7745   20.7450 H   0  0  0  0  0  0
  -27.6034  -24.8012   20.1505 H   0  0  0  0  0  0
  -28.0371  -25.3767   18.5453 H   0  0  0  0  0  0
  -28.2024  -21.2616   18.4072 H   0  0  0  0  0  0
  -29.0860  -15.2252   21.4335 H   0  0  0  0  0  0
  1 25  1  0  0  0
  1 30  2  0  0  0
  1 85  1  0  0  0
  2  3  1  0  0  0
  2 25  1  0  0  0
  2 88  1  0  0  0
  2 89  1  0  0  0
  3  4  1  0  0  0
  3 90  1  0  0  0
  3 91  1  0  0  0
  4  5  1  0  0  0
  4 92  1  0  0  0
  4 93  1  0  0  0
  5  6  1  0  0  0
  5 26  1  0  0  0
  5 94  1  0  0  0
  6 25  1  0  0  0
  6 95  1  0  0  0
  6 96  1  0  0  0
  7  8  2  0  0  0
  7 26  1  0  0  0
  7 29  1  0  0  0
  8  9  1  0  0  0
  8 22  1  0  0  0
  9 10  1  0  0  0
  9 27  2  0  0  0
 10 11  2  0  0  0
 10 15  1  0  0  0
 11 12  1  0  0  0
 11 97  1  0  0  0
 12 13  2  0  0  0
 12 98  1  0  0  0
 13 14  1  0  0  0
 13 31  1  0  0  0
 14 15  2  0  0  0
 14 99  1  0  0  0
 15100  1  0  0  0
 16 17  2  0  0  0
 16 21  1  0  0  0
 16 31  1  0  0  0
 17 18  1  0  0  0
 17101  1  0  0  0
 18 19  2  0  0  0
 18102  1  0  0  0
 19 20  1  0  0  0
 19 24  1  0  0  0
 20 21  2  0  0  0
 20103  1  0  0  0
 21 23  1  0  0  0
 22 28  1  0  0  0
 22 32  2  0  0  0
 26 27  1  0  0  0
 28104  1  0  0  0
 28105  1  0  0  0
 29106  1  0  0  0
 29107  1  0  0  0
 33 34  1  0  0  0
 33 66  1  0  0  0
 33 70  2  0  0  0
 34 36  1  0  0  0
 34 59  1  0  0  0
 34108  1  0  0  0
 35 44  2  0  0  0
 35 45  1  0  0  0
 35 68  1  0  0  0
 36 56  1  0  0  0
 36109  1  0  0  0
 37 39  1  0  0  0
 37 47  1  0  0  0
 37 66  1  0  0  0
 37110  1  0  0  0
 38 43  2  0  0  0
 38 46  1  0  0  0
 38 47  1  0  0  0
 39 64  1  0  0  0
 39 67  2  0  0  0
 40 52  1  0  0  0
 40 53  2  0  0  0
 40 58  1  0  0  0
 41111  1  0  0  0
 41112  1  0  0  0
 41113  1  0  0  0
 41 48  1  0  0  0
 42 43  1  0  0  0
 42 66  1  0  0  0
 42114  1  0  0  0
 42115  1  0  0  0
 43 44  1  0  0  0
 44116  1  0  0  0
 45 46  2  0  0  0
 45117  1  0  0  0
 46118  1  0  0  0
 47119  1  0  0  0
 47120  1  0  0  0
 48 56  1  0  0  0
 48 65  1  0  0  0
 48121  1  0  0  0
 49 50  1  0  0  0
 49 53  1  0  0  0
 49 64  1  0  0  0
 49122  1  0  0  0
 50 51  1  0  0  0
 50123  1  0  0  0
 50124  1  0  0  0
 51 52  1  0  0  0
 51125  1  0  0  0
 51126  1  0  0  0
 52127  1  0  0  0
 52128  1  0  0  0
 53 54  1  0  0  0
 54 55  2  0  0  0
 54129  1  0  0  0
 55 57  1  0  0  0
 55130  1  0  0  0
 56 69  2  0  0  0
 57 58  2  0  0  0
 57131  1  0  0  0
 58132  1  0  0  0
 59 60  1  0  0  0
 59 61  1  0  0  0
 59 62  1  0  0  0
 60133  1  0  0  0
 60134  1  0  0  0
 60135  1  0  0  0
 61136  1  0  0  0
 61137  1  0  0  0
 61138  1  0  0  0
 62139  1  0  0  0
 62140  1  0  0  0
 62141  1  0  0  0
 63 65  1  0  0  0
 63142  1  0  0  0
 63143  1  0  0  0
 63144  1  0  0  0
 64145  1  0  0  0
 65146  1  0  0  0
 68 82  1  0  0  0
 71 74  2  0  0  0
 71 75  1  0  0  0
 71147  1  0  0  0
 72 74  1  0  0  0
 72 76  2  0  0  0
 72148  1  0  0  0
 73 75  2  0  0  0
 73 76  1  0  0  0
 73149  1  0  0  0
 74 80  1  0  0  0
 75 84  1  0  0  0
 76 87  1  0  0  0
 77 81  1  0  0  0
 77 83  1  0  0  0
 77 86  2  0  0  0
 78150  1  0  0  0
 78151  1  0  0  0
 78152  1  0  0  0
 78 83  1  0  0  0
 79 83  1  0  0  0
 79153  1  0  0  0
 79154  1  0  0  0
 79155  1  0  0  0
 80 85  1  0  0  0
 80156  1  0  0  0
 80157  1  0  0  0
 81 84  1  0  0  0
 81158  1  0  0  0
 81159  1  0  0  0
 82 83  1  0  0  0
 82160  1  0  0  0
 82161  1  0  0  0
 84162  1  0  0  0
 85163  1  0  0  0
M  ISO  4   1 100  68 101  82 101  85 100
M  END
> <chiral flag>
0

> <version>
0

> <s_m_source_file>
/data/baiqing/PycharmProjects/Reinvent-master-3.2/result/LINK_invent/BTK/process_docking_weight1_custom_product_contain_oxygen_bond_distance_aromatic_linkinvent_7_9_3/rearranged_h_0142.sdf

> <i_m_source_file_index>
6

> <r_mmod_Potential_Energy-OPLS-2005>
-79.3774642944336

> <r_mmod_Stretch_Energy-OPLS-2005>
37.4238700866699

> <r_mmod_Bend_Energy-OPLS-2005>
95.3599853515625

> <r_mmod_Torsional_Energy-OPLS-2005>
219.272705078125

> <r_mmod_Improper_Torsional_Energy-OPLS-2005>
9.21053695678711

> <r_mmod_Van_der_Waal_Energy-OPLS-2005>
161.011917114258

> <r_mmod_Electrostatic_Energy-OPLS-2005>
-393.009307861328

> <r_mmod_Solvation_Energy-OPLS-2005>
-220.938858032227

> <b_mmod_Minimization_Converged-OPLS-2005>
0

> <r_mmod_RMS_Derivative-OPLS-2005>
2.43238735198975

$$$$
6
                    3D
 Structure written by MMmdl.
167175  0  0  1  0            999 V2000
  -30.7309  -14.5285   20.5669 C   0  0  0  0  0  0
  -30.4266  -12.3449   19.4429 C   0  0  0  0  0  0
  -29.5101  -12.5072   18.2142 C   0  0  0  0  0  0
  -28.0320  -12.3591   18.6230 C   0  0  0  0  0  0
  -27.6612  -13.2209   19.8599 C   0  0  2  0  0  0
  -28.7056  -13.0662   20.9928 C   0  0  0  0  0  0
  -25.2581  -13.8178   20.5612 C   0  0  0  0  0  0
  -24.1848  -13.0438   20.9093 C   0  0  0  0  0  0
  -24.6430  -11.6920   20.8698 C   0  0  0  0  0  0
  -23.9131  -10.4296   21.0377 C   0  0  0  0  0  0
  -24.3671   -9.4207   21.9144 C   0  0  0  0  0  0
  -23.6310   -8.2275   22.0742 C   0  0  0  0  0  0
  -22.4298   -8.0283   21.3523 C   0  0  0  0  0  0
  -21.9951   -9.0266   20.4649 C   0  0  0  0  0  0
  -22.7303  -10.2136   20.3038 C   0  0  0  0  0  0
  -21.6865   -6.0734   22.5243 C   0  0  0  0  0  0
  -21.4050   -6.5633   23.8175 C   0  0  0  0  0  0
  -21.3676   -5.6780   24.9139 C   0  0  0  0  0  0
  -21.6051   -4.3037   24.7182 C   0  0  0  0  0  0
  -21.8825   -3.8132   23.4291 C   0  0  0  0  0  0
  -21.9203   -4.6960   22.3362 C   0  0  0  0  0  0
  -22.7871  -13.5231   21.1709 C   0  0  0  0  0  0
  -22.1632   -4.2159   21.0933 F   0  0  0  0  0  0
  -21.5660   -3.4507   25.7695 F   0  0  0  0  0  0
  -30.0346  -13.3603   20.4333 N   0  0  0  0  0  0
  -26.3043  -12.9379   20.3271 N   0  0  0  0  0  0
  -25.9379  -11.6544   20.5756 N   0  0  0  0  0  0
  -22.0519  -12.8270   22.0310 N   0  0  0  0  0  0
  -25.4289  -15.1907   20.4061 N   0  0  0  0  0  0
  -31.8571  -14.6736   20.0934 O   0  0  0  0  0  0
  -21.6636   -6.8886   21.4213 O   0  0  0  0  0  0
  -22.3553  -14.5467   20.6464 O   0  0  0  0  0  0
  -24.6184  -31.8689   23.2123 C   0  0  0  0  0  0
  -25.9072  -32.4825   23.8425 C   0  0  1  0  0  0
  -27.2197  -27.4224   20.0776 C   0  0  0  0  0  0
  -25.5934  -33.8638   24.2349 N   0  0  0  0  0  0
  -23.4052  -30.4971   21.5562 C   0  0  2  0  0  0
  -24.8449  -28.9725   20.1122 C   0  0  0  0  0  0
  -22.7423  -29.4647   22.4981 C   0  0  0  0  0  0
  -18.0272  -28.1375   22.8485 C   0  0  0  0  0  0
  -24.1490  -36.7319   23.2632 C   0  0  0  0  0  0
  -25.9394  -30.8307   21.3697 C   0  0  0  0  0  0
  -26.0113  -29.4694   20.7069 C   0  0  0  0  0  0
  -27.2041  -28.7044   20.6828 C   0  0  0  0  0  0
  -26.0278  -26.9568   19.4690 C   0  0  0  0  0  0
  -24.8471  -27.7170   19.4915 C   0  0  0  0  0  0
  -23.6131  -29.8466   20.1656 C   0  0  0  0  0  0
  -25.4108  -36.3116   24.0331 C   0  0  1  0  0  0
  -20.5877  -28.3665   23.1319 C   0  0  2  0  0  0
  -20.6773  -26.9407   22.5419 C   0  0  0  0  0  0
  -19.5750  -26.6388   21.5218 C   0  0  0  0  0  0
  -18.1923  -26.7930   22.1615 C   0  0  0  0  0  0
  -19.1533  -28.8837   23.2897 C   0  0  0  0  0  0
  -18.9447  -30.1444   23.8913 C   0  0  0  0  0  0
  -17.6449  -30.6591   24.0570 C   0  0  0  0  0  0
  -25.9036  -34.9476   23.5133 C   0  0  0  0  0  0
  -16.5335  -29.9103   23.6321 C   0  0  0  0  0  0
  -16.7257  -28.6517   23.0339 C   0  0  0  0  0  0
  -26.4493  -31.6597   25.0751 C   0  0  0  0  0  0
  -25.3755  -31.3715   26.1501 C   0  0  0  0  0  0
  -27.0310  -30.3026   24.6127 C   0  0  0  0  0  0
  -27.6076  -32.4308   25.7511 C   0  0  0  0  0  0
  -27.5585  -37.1809   24.8455 C   0  0  0  0  0  0
  -21.4156  -29.3041   22.3725 N   0  0  0  0  0  0
  -26.4299  -37.3791   23.9397 N   0  0  0  0  0  0
  -24.6724  -31.0786   22.1041 N   0  0  0  0  0  0
  -23.4181  -28.8182   23.3014 O   0  0  0  0  0  0
  -28.3731  -26.6528   20.0976 O   0  0  0  0  0  0
  -26.5592  -34.8931   22.4687 O   0  0  0  0  0  0
  -23.5370  -32.1458   23.7505 O   0  0  0  0  0  0
  -29.8826  -20.2088   18.6420 C   0  0  0  0  0  0
  -30.0135  -17.8057   19.0912 C   0  0  0  0  0  0
  -30.3754  -19.4125   20.8869 C   0  0  0  0  0  0
  -29.7852  -18.8747   18.1958 C   0  0  0  0  0  0
  -30.1702  -20.4977   19.9923 C   0  0  0  0  0  0
  -30.3134  -18.0596   20.4469 C   0  0  0  0  0  0
  -29.3293  -24.3522   20.4002 C   0  0  0  0  0  0
  -29.4591  -18.5951   16.7438 C   0  0  0  0  0  0
  -27.5508  -23.5140   22.8200 C   0  0  0  0  0  0
  -27.8410  -22.3097   19.9174 C   0  0  0  0  0  0
  -30.3436  -21.9719   20.4283 C   0  0  0  0  0  0
  -30.6335  -16.9116   21.4289 C   0  0  0  0  0  0
  -28.1557  -25.2351   19.9201 C   0  0  0  0  0  0
  -28.7433  -22.7161   22.2477 C   0  0  0  0  0  0
  -29.0545  -22.8405   20.7253 C   0  0  1  0  0  0
  -30.0844  -15.5632   21.1443 N   0  0  0  0  0  0
  -30.4499  -24.8446   20.5726 O   0  0  0  0  0  0
  -31.4747  -12.4276   19.1506 H   0  0  0  0  0  0
  -30.3117  -11.3507   19.8809 H   0  0  0  0  0  0
  -29.7673  -11.7642   17.4572 H   0  0  0  0  0  0
  -29.6758  -13.4840   17.7515 H   0  0  0  0  0  0
  -27.8563  -11.3038   18.8424 H   0  0  0  0  0  0
  -27.3877  -12.6066   17.7770 H   0  0  0  0  0  0
  -27.6838  -14.2620   19.5315 H   0  0  0  0  0  0
  -28.6949  -12.0493   21.3875 H   0  0  0  0  0  0
  -28.4637  -13.7193   21.8348 H   0  0  0  0  0  0
  -25.2844   -9.5652   22.4681 H   0  0  0  0  0  0
  -23.9991   -7.4688   22.7486 H   0  0  0  0  0  0
  -21.0857   -8.8834   19.8977 H   0  0  0  0  0  0
  -22.3774  -10.9666   19.6133 H   0  0  0  0  0  0
  -21.2021   -7.6135   23.9673 H   0  0  0  0  0  0
  -21.1510   -6.0497   25.9043 H   0  0  0  0  0  0
  -22.0593   -2.7595   23.2764 H   0  0  0  0  0  0
  -22.4188  -12.0043   22.4860 H   0  0  0  0  0  0
  -21.1107  -13.1294   22.2419 H   0  0  0  0  0  0
  -24.6634  -15.8459   20.5192 H   0  0  0  0  0  0
  -26.2855  -15.6304   20.0956 H   0  0  0  0  0  0
  -26.7142  -32.5520   23.1187 H   0  0  0  0  0  0
  -25.0094  -33.9810   25.0505 H   0  0  0  0  0  0
  -22.6949  -31.3165   21.4272 H   0  0  0  0  0  0
  -23.3749  -35.9653   23.3291 H   0  0  0  0  0  0
  -24.3587  -36.8942   22.2048 H   0  0  0  0  0  0
  -23.7265  -37.6527   23.6661 H   0  0  0  0  0  0
  -26.0610  -31.6011   20.6067 H   0  0  0  0  0  0
  -26.8248  -30.8727   21.9920 H   0  0  0  0  0  0
  -28.1070  -29.0840   21.1409 H   0  0  0  0  0  0
  -25.9675  -26.0022   18.9687 H   0  0  0  0  0  0
  -23.9499  -27.3324   19.0265 H   0  0  0  0  0  0
  -23.7342  -30.6338   19.4202 H   0  0  0  0  0  0
  -22.7307  -29.2836   19.8566 H   0  0  0  0  0  0
  -25.1278  -36.1985   25.0824 H   0  0  0  0  0  0
  -20.9957  -28.3233   24.1442 H   0  0  0  0  0  0
  -20.5695  -26.2256   23.3588 H   0  0  0  0  0  0
  -21.6637  -26.7461   22.1201 H   0  0  0  0  0  0
  -19.6903  -25.6305   21.1235 H   0  0  0  0  0  0
  -19.6714  -27.3206   20.6757 H   0  0  0  0  0  0
  -17.4197  -26.6686   21.4010 H   0  0  0  0  0  0
  -18.0309  -26.0083   22.9017 H   0  0  0  0  0  0
  -19.7920  -30.7260   24.2286 H   0  0  0  0  0  0
  -17.5003  -31.6265   24.5177 H   0  0  0  0  0  0
  -15.5338  -30.3004   23.7646 H   0  0  0  0  0  0
  -15.8650  -28.0848   22.7037 H   0  0  0  0  0  0
  -24.5889  -30.7108   25.7839 H   0  0  0  0  0  0
  -24.8992  -32.2879   26.4986 H   0  0  0  0  0  0
  -25.8095  -30.8841   27.0238 H   0  0  0  0  0  0
  -26.2848  -29.6795   24.1176 H   0  0  0  0  0  0
  -27.4057  -29.7263   25.4595 H   0  0  0  0  0  0
  -27.8707  -30.4317   23.9294 H   0  0  0  0  0  0
  -27.2704  -33.3599   26.2123 H   0  0  0  0  0  0
  -28.3872  -32.6886   25.0330 H   0  0  0  0  0  0
  -28.0761  -31.8410   26.5395 H   0  0  0  0  0  0
  -28.2588  -38.0116   24.7504 H   0  0  0  0  0  0
  -28.1098  -36.2649   24.6276 H   0  0  0  0  0  0
  -27.2303  -37.1448   25.8859 H   0  0  0  0  0  0
  -20.9297  -29.8797   21.7008 H   0  0  0  0  0  0
  -26.0181  -38.2859   24.1429 H   0  0  0  0  0  0
  -29.7331  -21.0213   17.9432 H   0  0  0  0  0  0
  -29.9763  -16.7878   18.7283 H   0  0  0  0  0  0
  -30.6226  -19.6157   21.9192 H   0  0  0  0  0  0
  -28.9014  -19.4236   16.3075 H   0  0  0  0  0  0
  -28.8441  -17.7007   16.6460 H   0  0  0  0  0  0
  -30.3723  -18.4496   16.1668 H   0  0  0  0  0  0
  -27.4967  -23.3827   23.9006 H   0  0  0  0  0  0
  -26.5954  -23.1927   22.4083 H   0  0  0  0  0  0
  -27.6469  -24.5861   22.6554 H   0  0  0  0  0  0
  -28.0013  -22.4062   18.8416 H   0  0  0  0  0  0
  -26.9137  -22.8290   20.1483 H   0  0  0  0  0  0
  -27.6520  -21.2577   20.1318 H   0  0  0  0  0  0
  -30.9282  -22.4430   19.6372 H   0  0  0  0  0  0
  -31.0140  -21.9907   21.2888 H   0  0  0  0  0  0
  -30.2719  -17.2065   22.4156 H   0  0  0  0  0  0
  -31.7200  -16.8593   21.5283 H   0  0  0  0  0  0
  -27.2689  -24.9473   20.4825 H   0  0  0  0  0  0
  -27.9643  -25.0165   18.8689 H   0  0  0  0  0  0
  -28.6003  -21.6623   22.4913 H   0  0  0  0  0  0
  -29.6271  -23.0276   22.8043 H   0  0  0  0  0  0
  -29.1617  -15.3755   21.5061 H   0  0  0  0  0  0
  1 25  1  0  0  0
  1 30  2  0  0  0
  1 86  1  0  0  0
  2  3  1  0  0  0
  2 25  1  0  0  0
  2 88  1  0  0  0
  2 89  1  0  0  0
  3  4  1  0  0  0
  3 90  1  0  0  0
  3 91  1  0  0  0
  4  5  1  0  0  0
  4 92  1  0  0  0
  4 93  1  0  0  0
  5  6  1  0  0  0
  5 26  1  0  0  0
  5 94  1  0  0  0
  6 25  1  0  0  0
  6 95  1  0  0  0
  6 96  1  0  0  0
  7  8  2  0  0  0
  7 26  1  0  0  0
  7 29  1  0  0  0
  8  9  1  0  0  0
  8 22  1  0  0  0
  9 10  1  0  0  0
  9 27  2  0  0  0
 10 11  2  0  0  0
 10 15  1  0  0  0
 11 12  1  0  0  0
 11 97  1  0  0  0
 12 13  2  0  0  0
 12 98  1  0  0  0
 13 14  1  0  0  0
 13 31  1  0  0  0
 14 15  2  0  0  0
 14 99  1  0  0  0
 15100  1  0  0  0
 16 17  2  0  0  0
 16 21  1  0  0  0
 16 31  1  0  0  0
 17 18  1  0  0  0
 17101  1  0  0  0
 18 19  2  0  0  0
 18102  1  0  0  0
 19 20  1  0  0  0
 19 24  1  0  0  0
 20 21  2  0  0  0
 20103  1  0  0  0
 21 23  1  0  0  0
 22 28  1  0  0  0
 22 32  2  0  0  0
 26 27  1  0  0  0
 28104  1  0  0  0
 28105  1  0  0  0
 29106  1  0  0  0
 29107  1  0  0  0
 33 34  1  0  0  0
 33 66  1  0  0  0
 33 70  2  0  0  0
 34 36  1  0  0  0
 34 59  1  0  0  0
 34108  1  0  0  0
 35 44  2  0  0  0
 35 45  1  0  0  0
 35 68  1  0  0  0
 36 56  1  0  0  0
 36109  1  0  0  0
 37 39  1  0  0  0
 37 47  1  0  0  0
 37 66  1  0  0  0
 37110  1  0  0  0
 38 43  2  0  0  0
 38 46  1  0  0  0
 38 47  1  0  0  0
 39 64  1  0  0  0
 39 67  2  0  0  0
 40 52  1  0  0  0
 40 53  2  0  0  0
 40 58  1  0  0  0
 41111  1  0  0  0
 41112  1  0  0  0
 41113  1  0  0  0
 41 48  1  0  0  0
 42 43  1  0  0  0
 42 66  1  0  0  0
 42114  1  0  0  0
 42115  1  0  0  0
 43 44  1  0  0  0
 44116  1  0  0  0
 45 46  2  0  0  0
 45117  1  0  0  0
 46118  1  0  0  0
 47119  1  0  0  0
 47120  1  0  0  0
 48 56  1  0  0  0
 48 65  1  0  0  0
 48121  1  0  0  0
 49 50  1  0  0  0
 49 53  1  0  0  0
 49 64  1  0  0  0
 49122  1  0  0  0
 50 51  1  0  0  0
 50123  1  0  0  0
 50124  1  0  0  0
 51 52  1  0  0  0
 51125  1  0  0  0
 51126  1  0  0  0
 52127  1  0  0  0
 52128  1  0  0  0
 53 54  1  0  0  0
 54 55  2  0  0  0
 54129  1  0  0  0
 55 57  1  0  0  0
 55130  1  0  0  0
 56 69  2  0  0  0
 57 58  2  0  0  0
 57131  1  0  0  0
 58132  1  0  0  0
 59 60  1  0  0  0
 59 61  1  0  0  0
 59 62  1  0  0  0
 60133  1  0  0  0
 60134  1  0  0  0
 60135  1  0  0  0
 61136  1  0  0  0
 61137  1  0  0  0
 61138  1  0  0  0
 62139  1  0  0  0
 62140  1  0  0  0
 62141  1  0  0  0
 63 65  1  0  0  0
 63142  1  0  0  0
 63143  1  0  0  0
 63144  1  0  0  0
 64145  1  0  0  0
 65146  1  0  0  0
 68 83  1  0  0  0
 71 74  2  0  0  0
 71 75  1  0  0  0
 71147  1  0  0  0
 72 74  1  0  0  0
 72 76  2  0  0  0
 72148  1  0  0  0
 73 75  2  0  0  0
 73 76  1  0  0  0
 73149  1  0  0  0
 74 78  1  0  0  0
 75 81  1  0  0  0
 76 82  1  0  0  0
 77 83  1  0  0  0
 77 87  2  0  0  0
 77 85  1  0  0  0
 78150  1  0  0  0
 78151  1  0  0  0
 78152  1  0  0  0
 79 84  1  0  0  0
 79153  1  0  0  0
 79154  1  0  0  0
 79155  1  0  0  0
 80156  1  0  0  0
 80157  1  0  0  0
 80158  1  0  0  0
 80 85  1  0  0  0
 81 85  1  0  0  0
 81159  1  0  0  0
 81160  1  0  0  0
 82 86  1  0  0  0
 82161  1  0  0  0
 82162  1  0  0  0
 83163  1  0  0  0
 83164  1  0  0  0
 84 85  1  0  0  0
 84165  1  0  0  0
 84166  1  0  0  0
 86167  1  0  0  0
M  ISO  4   1 100  68 101  83 101  86 100
M  END
> <chiral flag>
0

> <version>
0

> <s_m_source_file>
/data/baiqing/PycharmProjects/Reinvent-master-3.2/result/LINK_invent/BTK/process_docking_weight1_custom_product_contain_oxygen_bond_distance_aromatic_linkinvent_7_9_3/rearranged_h_0142.sdf

> <i_m_source_file_index>
7

> <r_mmod_Potential_Energy-OPLS-2005>
-32.2206268310547

> <r_mmod_Stretch_Energy-OPLS-2005>
50.6905860900879

> <r_mmod_Bend_Energy-OPLS-2005>
108.580947875977

> <r_mmod_Torsional_Energy-OPLS-2005>
201.262329101562

> <r_mmod_Improper_Torsional_Energy-OPLS-2005>
2.9830801486969

> <r_mmod_Van_der_Waal_Energy-OPLS-2005>
161.869354248047

> <r_mmod_Electrostatic_Energy-OPLS-2005>
-358.534637451172

> <r_mmod_Solvation_Energy-OPLS-2005>
-219.37712097168

> <b_mmod_Minimization_Converged-OPLS-2005>
0

> <r_mmod_RMS_Derivative-OPLS-2005>
5.06267404556274

$$$$
7
                    3D
 Structure written by MMmdl.
177185  0  0  1  0            999 V2000
  -30.7715  -14.3887   20.4719 C   0  0  0  0  0  0
  -30.4120  -12.2249   19.4205 C   0  0  0  0  0  0
  -29.4980  -12.4509   18.2004 C   0  0  0  0  0  0
  -28.0193  -12.3391   18.6158 C   0  0  0  0  0  0
  -27.6725  -13.2019   19.8577 C   0  0  2  0  0  0
  -28.7176  -13.0262   20.9894 C   0  0  0  0  0  0
  -25.2732  -13.8150   20.5630 C   0  0  0  0  0  0
  -24.1954  -13.0435   20.9154 C   0  0  0  0  0  0
  -24.6479  -11.6904   20.8750 C   0  0  0  0  0  0
  -23.9128  -10.4269   21.0417 C   0  0  0  0  0  0
  -24.3657   -9.4182   21.9202 C   0  0  0  0  0  0
  -23.6304   -8.2221   22.0799 C   0  0  0  0  0  0
  -22.4275   -8.0269   21.3569 C   0  0  0  0  0  0
  -21.9932   -9.0259   20.4678 C   0  0  0  0  0  0
  -22.7292  -10.2116   20.3094 C   0  0  0  0  0  0
  -21.6869   -6.0735   22.5291 C   0  0  0  0  0  0
  -21.3968   -6.5644   23.8214 C   0  0  0  0  0  0
  -21.3660   -5.6804   24.9201 C   0  0  0  0  0  0
  -21.6066   -4.3067   24.7261 C   0  0  0  0  0  0
  -21.8805   -3.8151   23.4386 C   0  0  0  0  0  0
  -21.9165   -4.6956   22.3439 C   0  0  0  0  0  0
  -22.7993  -13.5268   21.1758 C   0  0  0  0  0  0
  -22.1639   -4.2127   21.1022 F   0  0  0  0  0  0
  -21.5655   -3.4566   25.7791 F   0  0  0  0  0  0
  -30.0633  -13.2382   20.4196 N   0  0  0  0  0  0
  -26.3149  -12.9299   20.3315 N   0  0  0  0  0  0
  -25.9403  -11.6476   20.5802 N   0  0  0  0  0  0
  -22.0629  -12.8275   22.0347 N   0  0  0  0  0  0
  -25.4534  -15.1818   20.3927 N   0  0  0  0  0  0
  -31.9434  -14.5089   20.0993 O   0  0  0  0  0  0
  -21.6634   -6.8856   21.4252 O   0  0  0  0  0  0
  -22.3733  -14.5598   20.6642 O   0  0  0  0  0  0
  -24.6149  -31.8795   23.2296 C   0  0  0  0  0  0
  -25.9053  -32.4893   23.8548 C   0  0  1  0  0  0
  -27.1721  -27.4580   20.0469 C   0  0  0  0  0  0
  -25.5877  -33.8685   24.2460 N   0  0  0  0  0  0
  -23.4035  -30.5232   21.5700 C   0  0  2  0  0  0
  -24.8312  -29.0295   20.0945 C   0  0  0  0  0  0
  -22.7498  -29.4722   22.4991 C   0  0  0  0  0  0
  -18.0362  -28.1337   22.8690 C   0  0  0  0  0  0
  -24.1473  -36.7330   23.2671 C   0  0  0  0  0  0
  -25.9372  -30.8380   21.3963 C   0  0  0  0  0  0
  -25.9919  -29.4787   20.7393 C   0  0  0  0  0  0
  -27.1592  -28.6803   20.7563 C   0  0  0  0  0  0
  -26.0594  -27.1413   19.2561 C   0  0  0  0  0  0
  -24.8582  -27.8478   19.3464 C   0  0  0  0  0  0
  -23.6014  -29.8989   20.1670 C   0  0  0  0  0  0
  -25.4064  -36.3159   24.0387 C   0  0  1  0  0  0
  -20.5958  -28.3563   23.1187 C   0  0  2  0  0  0
  -20.6926  -26.9420   22.4943 C   0  0  0  0  0  0
  -19.5500  -26.6075   21.5275 C   0  0  0  0  0  0
  -18.1888  -26.7764   22.2042 C   0  0  0  0  0  0
  -19.1667  -28.8791   23.2906 C   0  0  0  0  0  0
  -18.9750  -30.1456   23.8845 C   0  0  0  0  0  0
  -17.6807  -30.6688   24.0581 C   0  0  0  0  0  0
  -25.9011  -34.9514   23.5231 C   0  0  0  0  0  0
  -16.5612  -29.9192   23.6523 C   0  0  0  0  0  0
  -16.7402  -28.6527   23.0634 C   0  0  0  0  0  0
  -26.4463  -31.6639   25.0863 C   0  0  0  0  0  0
  -25.3781  -31.3715   26.1664 C   0  0  0  0  0  0
  -27.0293  -30.3100   24.6183 C   0  0  0  0  0  0
  -27.6063  -32.4327   25.7605 C   0  0  0  0  0  0
  -27.5554  -37.1806   24.8465 C   0  0  0  0  0  0
  -21.4209  -29.3125   22.3768 N   0  0  0  0  0  0
  -26.4265  -37.3796   23.9458 N   0  0  0  0  0  0
  -24.6734  -31.0920   22.1247 N   0  0  0  0  0  0
  -23.4275  -28.8138   23.2901 O   0  0  0  0  0  0
  -28.2376  -26.5911   20.1294 O   0  0  0  0  0  0
  -26.5569  -34.8955   22.4792 O   0  0  0  0  0  0
  -23.5328  -32.1510   23.7687 O   0  0  0  0  0  0
  -30.0073  -17.6653   17.7184 C   0  0  0  0  0  0
  -29.7033  -18.9001   18.3156 C   0  0  0  0  0  0
  -30.1717  -16.5234   18.5170 C   0  0  0  0  0  0
  -29.8549  -17.8709   20.5260 C   0  0  0  0  0  0
  -29.6089  -18.9993   19.7233 C   0  0  0  0  0  0
  -30.0619  -16.6214   19.9243 C   0  0  0  0  0  0
  -27.0798  -18.9040   21.0736 C   0  0  0  0  0  0
  -28.1486  -20.5017   22.6257 C   0  0  0  0  0  0
  -26.5403  -24.7528   21.7087 C   0  0  0  0  0  0
  -25.6942  -24.1509   19.3741 C   0  0  0  0  0  0
  -26.3190  -20.9447   19.1653 C   0  0  0  0  0  0
  -25.5593  -21.5424   21.5030 C   0  0  0  0  0  0
  -29.1939  -20.2986   20.3770 C   0  0  0  0  0  0
  -27.5893  -22.8100   20.3910 C   0  0  0  0  0  0
  -28.0553  -25.2131   19.6974 C   0  0  0  0  0  0
  -27.7951  -20.2983   21.1286 C   0  0  0  0  0  0
  -26.9412  -24.2404   20.3065 C   0  0  0  0  0  0
  -26.8114  -21.4305   20.5670 C   0  0  0  0  0  0
  -30.0361  -15.4631   20.7271 N   0  0  0  0  0  0
  -31.4609  -12.2678   19.1256 H   0  0  0  0  0  0
  -30.2609  -11.2308   19.8422 H   0  0  0  0  0  0
  -29.7247  -11.7119   17.4301 H   0  0  0  0  0  0
  -29.6867  -13.4273   17.7544 H   0  0  0  0  0  0
  -27.8163  -11.2879   18.8299 H   0  0  0  0  0  0
  -27.3762  -12.6078   17.7761 H   0  0  0  0  0  0
  -27.7040  -14.2444   19.5329 H   0  0  0  0  0  0
  -28.6673  -12.0345   21.4355 H   0  0  0  0  0  0
  -28.5013  -13.7219   21.8066 H   0  0  0  0  0  0
  -25.2821   -9.5634   22.4775 H   0  0  0  0  0  0
  -24.0004   -7.4626   22.7551 H   0  0  0  0  0  0
  -21.0851   -8.8776   19.9011 H   0  0  0  0  0  0
  -22.3766  -10.9650   19.6199 H   0  0  0  0  0  0
  -21.1911   -7.6142   23.9702 H   0  0  0  0  0  0
  -21.1525   -6.0554   25.9088 H   0  0  0  0  0  0
  -22.0585   -2.7612   23.2917 H   0  0  0  0  0  0
  -22.4189  -11.9954   22.4799 H   0  0  0  0  0  0
  -21.1235  -13.1342   22.2447 H   0  0  0  0  0  0
  -24.6960  -15.8498   20.4654 H   0  0  0  0  0  0
  -26.3173  -15.5959   20.0647 H   0  0  0  0  0  0
  -26.7158  -32.5630   23.1360 H   0  0  0  0  0  0
  -24.9952  -33.9862   25.0543 H   0  0  0  0  0  0
  -22.6934  -31.3441   21.4558 H   0  0  0  0  0  0
  -23.3725  -35.9669   23.3354 H   0  0  0  0  0  0
  -24.3638  -36.8883   22.2089 H   0  0  0  0  0  0
  -23.7190  -37.6548   23.6616 H   0  0  0  0  0  0
  -26.0626  -31.6085   20.6336 H   0  0  0  0  0  0
  -26.8251  -30.8868   22.0102 H   0  0  0  0  0  0
  -28.0287  -28.9936   21.3215 H   0  0  0  0  0  0
  -26.1186  -26.3690   18.5111 H   0  0  0  0  0  0
  -24.0083  -27.5332   18.7595 H   0  0  0  0  0  0
  -23.7220  -30.6978   19.4325 H   0  0  0  0  0  0
  -22.7111  -29.3494   19.8539 H   0  0  0  0  0  0
  -25.1234  -36.2069   25.0859 H   0  0  0  0  0  0
  -21.0123  -28.2821   24.1265 H   0  0  0  0  0  0
  -20.6611  -26.2165   23.3056 H   0  0  0  0  0  0
  -21.6584  -26.7877   22.0125 H   0  0  0  0  0  0
  -19.6518  -25.5838   21.1647 H   0  0  0  0  0  0
  -19.6138  -27.2547   20.6525 H   0  0  0  0  0  0
  -17.3876  -26.6291   21.4725 H   0  0  0  0  0  0
  -18.0603  -26.0106   22.9712 H   0  0  0  0  0  0
  -19.8307  -30.7171   24.2201 H   0  0  0  0  0  0
  -17.5583  -31.6413   24.5159 H   0  0  0  0  0  0
  -15.5650  -30.3185   23.7950 H   0  0  0  0  0  0
  -15.8755  -28.0817   22.7534 H   0  0  0  0  0  0
  -24.5942  -30.7029   25.8096 H   0  0  0  0  0  0
  -24.8970  -32.2854   26.5163 H   0  0  0  0  0  0
  -25.8237  -30.8921   27.0394 H   0  0  0  0  0  0
  -26.2849  -29.6901   24.1165 H   0  0  0  0  0  0
  -27.4045  -29.7309   25.4619 H   0  0  0  0  0  0
  -27.8705  -30.4525   23.9394 H   0  0  0  0  0  0
  -27.2704  -33.3609   26.2262 H   0  0  0  0  0  0
  -28.3843  -32.6905   25.0402 H   0  0  0  0  0  0
  -28.0766  -31.8384   26.5453 H   0  0  0  0  0  0
  -28.2605  -38.0076   24.7517 H   0  0  0  0  0  0
  -28.1049  -36.2632   24.6281 H   0  0  0  0  0  0
  -27.2361  -37.1434   25.8896 H   0  0  0  0  0  0
  -20.9317  -29.9267   21.7396 H   0  0  0  0  0  0
  -26.0204  -38.2936   24.1321 H   0  0  0  0  0  0
  -30.0719  -17.5778   16.6439 H   0  0  0  0  0  0
  -29.5391  -19.7534   17.6799 H   0  0  0  0  0  0
  -30.3520  -15.5720   18.0358 H   0  0  0  0  0  0
  -29.7870  -17.9682   21.5996 H   0  0  0  0  0  0
  -27.5806  -18.1276   21.6533 H   0  0  0  0  0  0
  -27.0104  -18.5247   20.0565 H   0  0  0  0  0  0
  -26.0659  -18.9208   21.4712 H   0  0  0  0  0  0
  -28.9198  -19.7954   22.9370 H   0  0  0  0  0  0
  -27.3061  -20.3058   23.2882 H   0  0  0  0  0  0
  -28.5250  -21.5033   22.8338 H   0  0  0  0  0  0
  -26.1172  -23.9809   22.3459 H   0  0  0  0  0  0
  -25.7913  -25.5460   21.6406 H   0  0  0  0  0  0
  -27.4028  -25.1591   22.2380 H   0  0  0  0  0  0
  -25.0410  -23.3165   19.5697 H   0  0  0  0  0  0
  -25.9900  -24.0539   18.3268 H   0  0  0  0  0  0
  -24.9883  -24.9671   19.4796 H   0  0  0  0  0  0
  -25.7987  -21.6915   18.5788 H   0  0  0  0  0  0
  -25.6207  -20.1072   19.2381 H   0  0  0  0  0  0
  -27.1440  -20.6151   18.5353 H   0  0  0  0  0  0
  -24.9174  -22.3865   21.3138 H   0  0  0  0  0  0
  -25.8120  -21.6406   22.5528 H   0  0  0  0  0  0
  -24.8945  -20.6866   21.4113 H   0  0  0  0  0  0
  -29.2632  -21.0332   19.5846 H   0  0  0  0  0  0
  -30.0021  -20.5747   21.0546 H   0  0  0  0  0  0
  -28.3779  -22.8856   21.1338 H   0  0  0  0  0  0
  -28.1068  -22.7240   19.4373 H   0  0  0  0  0  0
  -28.0185  -25.1797   18.6073 H   0  0  0  0  0  0
  -29.0305  -24.7930   19.9366 H   0  0  0  0  0  0
  -29.1412  -15.2596   21.1467 H   0  0  0  0  0  0
  1 25  1  0  0  0
  1 30  2  0  0  0
  1 89  1  0  0  0
  2  3  1  0  0  0
  2 25  1  0  0  0
  2 90  1  0  0  0
  2 91  1  0  0  0
  3  4  1  0  0  0
  3 92  1  0  0  0
  3 93  1  0  0  0
  4  5  1  0  0  0
  4 94  1  0  0  0
  4 95  1  0  0  0
  5  6  1  0  0  0
  5 26  1  0  0  0
  5 96  1  0  0  0
  6 25  1  0  0  0
  6 97  1  0  0  0
  6 98  1  0  0  0
  7  8  2  0  0  0
  7 26  1  0  0  0
  7 29  1  0  0  0
  8  9  1  0  0  0
  8 22  1  0  0  0
  9 10  1  0  0  0
  9 27  2  0  0  0
 10 11  2  0  0  0
 10 15  1  0  0  0
 11 12  1  0  0  0
 11 99  1  0  0  0
 12 13  2  0  0  0
 12100  1  0  0  0
 13 14  1  0  0  0
 13 31  1  0  0  0
 14 15  2  0  0  0
 14101  1  0  0  0
 15102  1  0  0  0
 16 17  2  0  0  0
 16 21  1  0  0  0
 16 31  1  0  0  0
 17 18  1  0  0  0
 17103  1  0  0  0
 18 19  2  0  0  0
 18104  1  0  0  0
 19 20  1  0  0  0
 19 24  1  0  0  0
 20 21  2  0  0  0
 20105  1  0  0  0
 21 23  1  0  0  0
 22 28  1  0  0  0
 22 32  2  0  0  0
 26 27  1  0  0  0
 28106  1  0  0  0
 28107  1  0  0  0
 29108  1  0  0  0
 29109  1  0  0  0
 33 34  1  0  0  0
 33 66  1  0  0  0
 33 70  2  0  0  0
 34 36  1  0  0  0
 34 59  1  0  0  0
 34110  1  0  0  0
 35 44  2  0  0  0
 35 45  1  0  0  0
 35 68  1  0  0  0
 36 56  1  0  0  0
 36111  1  0  0  0
 37 39  1  0  0  0
 37 47  1  0  0  0
 37 66  1  0  0  0
 37112  1  0  0  0
 38 43  2  0  0  0
 38 46  1  0  0  0
 38 47  1  0  0  0
 39 64  1  0  0  0
 39 67  2  0  0  0
 40 52  1  0  0  0
 40 53  2  0  0  0
 40 58  1  0  0  0
 41113  1  0  0  0
 41114  1  0  0  0
 41115  1  0  0  0
 41 48  1  0  0  0
 42 43  1  0  0  0
 42 66  1  0  0  0
 42116  1  0  0  0
 42117  1  0  0  0
 43 44  1  0  0  0
 44118  1  0  0  0
 45 46  2  0  0  0
 45119  1  0  0  0
 46120  1  0  0  0
 47121  1  0  0  0
 47122  1  0  0  0
 48 56  1  0  0  0
 48 65  1  0  0  0
 48123  1  0  0  0
 49 50  1  0  0  0
 49 53  1  0  0  0
 49 64  1  0  0  0
 49124  1  0  0  0
 50 51  1  0  0  0
 50125  1  0  0  0
 50126  1  0  0  0
 51 52  1  0  0  0
 51127  1  0  0  0
 51128  1  0  0  0
 52129  1  0  0  0
 52130  1  0  0  0
 53 54  1  0  0  0
 54 55  2  0  0  0
 54131  1  0  0  0
 55 57  1  0  0  0
 55132  1  0  0  0
 56 69  2  0  0  0
 57 58  2  0  0  0
 57133  1  0  0  0
 58134  1  0  0  0
 59 60  1  0  0  0
 59 61  1  0  0  0
 59 62  1  0  0  0
 60135  1  0  0  0
 60136  1  0  0  0
 60137  1  0  0  0
 61138  1  0  0  0
 61139  1  0  0  0
 61140  1  0  0  0
 62141  1  0  0  0
 62142  1  0  0  0
 62143  1  0  0  0
 63 65  1  0  0  0
 63144  1  0  0  0
 63145  1  0  0  0
 63146  1  0  0  0
 64147  1  0  0  0
 65148  1  0  0  0
 68 85  1  0  0  0
 71 72  2  0  0  0
 71 73  1  0  0  0
 71149  1  0  0  0
 72 75  1  0  0  0
 72150  1  0  0  0
 73 76  2  0  0  0
 73151  1  0  0  0
 74 75  2  0  0  0
 74 76  1  0  0  0
 74152  1  0  0  0
 75 83  1  0  0  0
 76 89  1  0  0  0
 77153  1  0  0  0
 77154  1  0  0  0
 77155  1  0  0  0
 77 86  1  0  0  0
 78 86  1  0  0  0
 78156  1  0  0  0
 78157  1  0  0  0
 78158  1  0  0  0
 79159  1  0  0  0
 79160  1  0  0  0
 79161  1  0  0  0
 79 87  1  0  0  0
 80 87  1  0  0  0
 80162  1  0  0  0
 80163  1  0  0  0
 80164  1  0  0  0
 81165  1  0  0  0
 81166  1  0  0  0
 81167  1  0  0  0
 81 88  1  0  0  0
 82 88  1  0  0  0
 82168  1  0  0  0
 82169  1  0  0  0
 82170  1  0  0  0
 83 86  1  0  0  0
 83171  1  0  0  0
 83172  1  0  0  0
 84 87  1  0  0  0
 84 88  1  0  0  0
 84173  1  0  0  0
 84174  1  0  0  0
 85 87  1  0  0  0
 85175  1  0  0  0
 85176  1  0  0  0
 86 88  1  0  0  0
 89177  1  0  0  0
M  ISO  4   1 100  68 101  85 101  89 100
M  END
> <chiral flag>
0

> <version>
0

> <s_m_source_file>
/data/baiqing/PycharmProjects/Reinvent-master-3.2/result/LINK_invent/BTK/process_docking_weight1_custom_product_contain_oxygen_bond_distance_aromatic_linkinvent_7_9_3/rearranged_h_0142.sdf

> <i_m_source_file_index>
8

> <r_mmod_Potential_Energy-OPLS-2005>
233.405410766602

> <r_mmod_Stretch_Energy-OPLS-2005>
60.8078536987305

> <r_mmod_Bend_Energy-OPLS-2005>
160.787796020508

> <r_mmod_Torsional_Energy-OPLS-2005>
311.239105224609

> <r_mmod_Improper_Torsional_Energy-OPLS-2005>
9.1045560836792

> <r_mmod_Van_der_Waal_Energy-OPLS-2005>
230.904876708984

> <r_mmod_Electrostatic_Energy-OPLS-2005>
-400.675628662109

> <r_mmod_Solvation_Energy-OPLS-2005>
-182.404998779297

> <b_mmod_Minimization_Converged-OPLS-2005>
0

> <r_mmod_RMS_Derivative-OPLS-2005>
9.30206680297852

$$$$
8
                    3D
 Structure written by MMmdl.
163172  0  0  1  0            999 V2000
  -30.6364  -14.7707   20.4327 C   0  0  0  0  0  0
  -30.4220  -12.4685   19.4844 C   0  0  0  0  0  0
  -29.5109  -12.5025   18.2381 C   0  0  0  0  0  0
  -28.0369  -12.3298   18.6502 C   0  0  0  0  0  0
  -27.6359  -13.2408   19.8413 C   0  0  2  0  0  0
  -28.6792  -13.2169   20.9804 C   0  0  0  0  0  0
  -25.2487  -13.8215   20.5709 C   0  0  0  0  0  0
  -24.1781  -13.0456   20.9219 C   0  0  0  0  0  0
  -24.6368  -11.6933   20.8728 C   0  0  0  0  0  0
  -23.9049  -10.4302   21.0386 C   0  0  0  0  0  0
  -24.3601   -9.4219   21.9167 C   0  0  0  0  0  0
  -23.6286   -8.2248   22.0740 C   0  0  0  0  0  0
  -22.4267   -8.0272   21.3539 C   0  0  0  0  0  0
  -21.9893   -9.0239   20.4645 C   0  0  0  0  0  0
  -22.7213  -10.2127   20.3045 C   0  0  0  0  0  0
  -21.6852   -6.0716   22.5271 C   0  0  0  0  0  0
  -21.4012   -6.5626   23.8202 C   0  0  0  0  0  0
  -21.3671   -5.6786   24.9169 C   0  0  0  0  0  0
  -21.6046   -4.3046   24.7223 C   0  0  0  0  0  0
  -21.8820   -3.8131   23.4349 C   0  0  0  0  0  0
  -21.9197   -4.6949   22.3401 C   0  0  0  0  0  0
  -22.7807  -13.5242   21.1884 C   0  0  0  0  0  0
  -22.1664   -4.2134   21.0981 F   0  0  0  0  0  0
  -21.5637   -3.4538   25.7740 F   0  0  0  0  0  0
  -29.9778  -13.5585   20.3895 N   0  0  0  0  0  0
  -26.2904  -12.9437   20.3244 N   0  0  0  0  0  0
  -25.9302  -11.6572   20.5705 N   0  0  0  0  0  0
  -22.0438  -12.8227   22.0434 N   0  0  0  0  0  0
  -25.4196  -15.1939   20.4140 N   0  0  0  0  0  0
  -31.8433  -14.7783   20.1815 O   0  0  0  0  0  0
  -21.6642   -6.8850   21.4230 O   0  0  0  0  0  0
  -22.3498  -14.5558   20.6746 O   0  0  0  0  0  0
  -24.6316  -31.8533   23.1948 C   0  0  0  0  0  0
  -25.9140  -32.4747   23.8297 C   0  0  1  0  0  0
  -27.2261  -27.2526   20.1392 C   0  0  0  0  0  0
  -25.5932  -33.8550   24.2234 N   0  0  0  0  0  0
  -23.4285  -30.4745   21.5376 C   0  0  2  0  0  0
  -24.8780  -28.9146   20.1122 C   0  0  0  0  0  0
  -22.7509  -29.4600   22.4895 C   0  0  0  0  0  0
  -18.0295  -28.1414   22.8487 C   0  0  0  0  0  0
  -24.1487  -36.7271   23.2640 C   0  0  0  0  0  0
  -25.9739  -30.7667   21.3736 C   0  0  0  0  0  0
  -26.0483  -29.3864   20.7180 C   0  0  0  0  0  0
  -27.2251  -28.5700   20.7148 C   0  0  0  0  0  0
  -26.0299  -26.8427   19.5101 C   0  0  0  0  0  0
  -24.8742  -27.6523   19.4961 C   0  0  0  0  0  0
  -23.6480  -29.8033   20.1554 C   0  0  0  0  0  0
  -25.4119  -36.3061   24.0320 C   0  0  1  0  0  0
  -20.5902  -28.3720   23.1274 C   0  0  2  0  0  0
  -20.6781  -26.9432   22.5429 C   0  0  0  0  0  0
  -19.5759  -26.6399   21.5229 C   0  0  0  0  0  0
  -18.1933  -26.7959   22.1622 C   0  0  0  0  0  0
  -19.1550  -28.8885   23.2878 C   0  0  0  0  0  0
  -18.9469  -30.1480   23.8906 C   0  0  0  0  0  0
  -17.6467  -30.6608   24.0571 C   0  0  0  0  0  0
  -25.9057  -34.9431   23.5081 C   0  0  0  0  0  0
  -16.5358  -29.9104   23.6336 C   0  0  0  0  0  0
  -16.7282  -28.6523   23.0357 C   0  0  0  0  0  0
  -26.4506  -31.6586   25.0699 C   0  0  0  0  0  0
  -25.3723  -31.3766   26.1425 C   0  0  0  0  0  0
  -27.0341  -30.2990   24.6198 C   0  0  0  0  0  0
  -27.6053  -32.4330   25.7478 C   0  0  0  0  0  0
  -27.5584  -37.1786   24.8460 C   0  0  0  0  0  0
  -21.4213  -29.3049   22.3652 N   0  0  0  0  0  0
  -26.4289  -37.3765   23.9409 N   0  0  0  0  0  0
  -24.6968  -31.0506   22.0917 N   0  0  0  0  0  0
  -23.4207  -28.8143   23.3001 O   0  0  0  0  0  0
  -28.3396  -26.3822   20.1893 O   0  0  0  0  0  0
  -26.5632  -34.8909   22.4649 O   0  0  0  0  0  0
  -23.5466  -32.1358   23.7247 O   0  0  0  0  0  0
  -29.5146  -18.5971   20.4914 C   0  0  0  0  0  0
  -31.1345  -20.0283   19.3669 C   0  0  0  0  0  0
  -31.4881  -17.6103   19.4672 C   0  0  0  0  0  0
  -29.9243  -19.9474   20.0869 C   0  0  0  0  0  0
  -30.2960  -17.3831   20.2050 C   0  0  0  0  0  0
  -31.8986  -18.8914   19.0651 C   0  0  0  0  0  0
  -29.1735  -21.2995   20.1917 C   0  0  0  0  0  0
  -31.3308  -23.7116   22.0440 C   0  0  0  0  0  0
  -30.1762  -24.6303   21.6732 C   0  0  0  0  0  0
  -30.9257  -22.3309   21.5252 C   0  0  0  0  0  0
  -29.5579  -24.0379   20.3932 C   0  0  2  0  0  0
  -30.4610  -24.3715   19.1833 C   0  0  0  0  0  0
  -28.1863  -24.8755   20.1789 C   0  0  0  0  0  0
  -29.7173  -22.4988   20.6713 N   0  0  0  0  0  0
  -29.9176  -15.9675   20.5605 N   0  0  0  0  0  0
  -27.9468  -21.3522   19.6899 N   0  3  0  0  0  0
  -33.0408  -19.0296   18.3495 F   0  0  0  0  0  0
  -31.4663  -12.5697   19.1837 H   0  0  0  0  0  0
  -30.3484  -11.5028   19.9869 H   0  0  0  0  0  0
  -29.7961  -11.7135   17.5410 H   0  0  0  0  0  0
  -29.6410  -13.4454   17.7045 H   0  0  0  0  0  0
  -27.8956  -11.2828   18.9222 H   0  0  0  0  0  0
  -27.3826  -12.5132   17.7964 H   0  0  0  0  0  0
  -27.6190  -14.2555   19.4417 H   0  0  0  0  0  0
  -28.7170  -12.2359   21.4556 H   0  0  0  0  0  0
  -28.4101  -13.9289   21.7625 H   0  0  0  0  0  0
  -25.2733   -9.5731   22.4750 H   0  0  0  0  0  0
  -24.0011   -7.4643   22.7460 H   0  0  0  0  0  0
  -21.0818   -8.8745   19.8952 H   0  0  0  0  0  0
  -22.3641  -10.9656   19.6161 H   0  0  0  0  0  0
  -21.1992   -7.6129   23.9701 H   0  0  0  0  0  0
  -21.1498   -6.0512   25.9071 H   0  0  0  0  0  0
  -22.0592   -2.7595   23.2854 H   0  0  0  0  0  0
  -22.4041  -11.9901   22.4860 H   0  0  0  0  0  0
  -21.1054  -13.1249   22.2612 H   0  0  0  0  0  0
  -24.6547  -15.8499   20.5243 H   0  0  0  0  0  0
  -26.2642  -15.6282   20.0660 H   0  0  0  0  0  0
  -26.7205  -32.5410   23.1038 H   0  0  0  0  0  0
  -25.0087  -33.9668   25.0385 H   0  0  0  0  0  0
  -22.7246  -31.2963   21.3885 H   0  0  0  0  0  0
  -23.3751  -35.9602   23.3304 H   0  0  0  0  0  0
  -24.3574  -36.8896   22.2056 H   0  0  0  0  0  0
  -23.7240  -37.6466   23.6671 H   0  0  0  0  0  0
  -26.1137  -31.5264   20.6030 H   0  0  0  0  0  0
  -26.8502  -30.8175   22.0084 H   0  0  0  0  0  0
  -28.1238  -28.9277   21.1972 H   0  0  0  0  0  0
  -25.9657  -25.8759   19.0335 H   0  0  0  0  0  0
  -23.9765  -27.2852   19.0185 H   0  0  0  0  0  0
  -23.7740  -30.5755   19.3953 H   0  0  0  0  0  0
  -22.7656  -29.2365   19.8529 H   0  0  0  0  0  0
  -25.1305  -36.1897   25.0812 H   0  0  0  0  0  0
  -21.0002  -28.3318   24.1392 H   0  0  0  0  0  0
  -20.5684  -26.2332   23.3640 H   0  0  0  0  0  0
  -21.6648  -26.7455   22.1227 H   0  0  0  0  0  0
  -19.6907  -25.6305   21.1267 H   0  0  0  0  0  0
  -19.6703  -27.3200   20.6751 H   0  0  0  0  0  0
  -17.4211  -26.6732   21.4011 H   0  0  0  0  0  0
  -18.0301  -26.0110   22.9021 H   0  0  0  0  0  0
  -19.7942  -30.7298   24.2286 H   0  0  0  0  0  0
  -17.5018  -31.6284   24.5173 H   0  0  0  0  0  0
  -15.5360  -30.3005   23.7661 H   0  0  0  0  0  0
  -15.8681  -28.0836   22.7081 H   0  0  0  0  0  0
  -24.5906  -30.7095   25.7783 H   0  0  0  0  0  0
  -24.8910  -32.2951   26.4792 H   0  0  0  0  0  0
  -25.8048  -30.9005   27.0234 H   0  0  0  0  0  0
  -26.2922  -29.6745   24.1214 H   0  0  0  0  0  0
  -27.3996  -29.7262   25.4730 H   0  0  0  0  0  0
  -27.8813  -30.4241   23.9450 H   0  0  0  0  0  0
  -27.2649  -33.3633   26.2035 H   0  0  0  0  0  0
  -28.3880  -32.6889   25.0326 H   0  0  0  0  0  0
  -28.0700  -31.8471   26.5417 H   0  0  0  0  0  0
  -28.2598  -38.0085   24.7514 H   0  0  0  0  0  0
  -28.1079  -36.2619   24.6273 H   0  0  0  0  0  0
  -27.2302  -37.1426   25.8860 H   0  0  0  0  0  0
  -20.9411  -29.8762   21.6843 H   0  0  0  0  0  0
  -26.0162  -38.2831   24.1427 H   0  0  0  0  0  0
  -28.5786  -18.4954   21.0225 H   0  0  0  0  0  0
  -31.4805  -20.9805   18.9901 H   0  0  0  0  0  0
  -32.1318  -16.8104   19.1473 H   0  0  0  0  0  0
  -31.5109  -23.7112   23.1198 H   0  0  0  0  0  0
  -32.2513  -24.0386   21.5578 H   0  0  0  0  0  0
  -30.5203  -25.6580   21.5430 H   0  0  0  0  0  0
  -29.4373  -24.6443   22.4762 H   0  0  0  0  0  0
  -30.6982  -21.6725   22.3659 H   0  0  0  0  0  0
  -31.7693  -21.8976   20.9903 H   0  0  0  0  0  0
  -30.8150  -25.4026   19.2173 H   0  0  0  0  0  0
  -29.9196  -24.2504   18.2452 H   0  0  0  0  0  0
  -31.3394  -23.7291   19.1262 H   0  0  0  0  0  0
  -27.4676  -24.5875   20.9476 H   0  0  0  0  0  0
  -27.7507  -24.5762   19.2254 H   0  0  0  0  0  0
  -28.9591  -15.8395   20.8467 H   0  0  0  0  0  0
  -27.5514  -20.5199   19.2815 H   0  0  0  0  0  0
  -27.3723  -22.1712   19.7778 H   0  0  0  0  0  0
  1 25  1  0  0  0
  1 30  2  0  0  0
  1 85  1  0  0  0
  2  3  1  0  0  0
  2 25  1  0  0  0
  2 88  1  0  0  0
  2 89  1  0  0  0
  3  4  1  0  0  0
  3 90  1  0  0  0
  3 91  1  0  0  0
  4  5  1  0  0  0
  4 92  1  0  0  0
  4 93  1  0  0  0
  5  6  1  0  0  0
  5 26  1  0  0  0
  5 94  1  0  0  0
  6 25  1  0  0  0
  6 95  1  0  0  0
  6 96  1  0  0  0
  7  8  2  0  0  0
  7 26  1  0  0  0
  7 29  1  0  0  0
  8  9  1  0  0  0
  8 22  1  0  0  0
  9 10  1  0  0  0
  9 27  2  0  0  0
 10 11  2  0  0  0
 10 15  1  0  0  0
 11 12  1  0  0  0
 11 97  1  0  0  0
 12 13  2  0  0  0
 12 98  1  0  0  0
 13 14  1  0  0  0
 13 31  1  0  0  0
 14 15  2  0  0  0
 14 99  1  0  0  0
 15100  1  0  0  0
 16 17  2  0  0  0
 16 21  1  0  0  0
 16 31  1  0  0  0
 17 18  1  0  0  0
 17101  1  0  0  0
 18 19  2  0  0  0
 18102  1  0  0  0
 19 20  1  0  0  0
 19 24  1  0  0  0
 20 21  2  0  0  0
 20103  1  0  0  0
 21 23  1  0  0  0
 22 28  1  0  0  0
 22 32  2  0  0  0
 26 27  1  0  0  0
 28104  1  0  0  0
 28105  1  0  0  0
 29106  1  0  0  0
 29107  1  0  0  0
 33 34  1  0  0  0
 33 66  1  0  0  0
 33 70  2  0  0  0
 34 36  1  0  0  0
 34 59  1  0  0  0
 34108  1  0  0  0
 35 44  2  0  0  0
 35 45  1  0  0  0
 35 68  1  0  0  0
 36 56  1  0  0  0
 36109  1  0  0  0
 37 39  1  0  0  0
 37 47  1  0  0  0
 37 66  1  0  0  0
 37110  1  0  0  0
 38 43  2  0  0  0
 38 46  1  0  0  0
 38 47  1  0  0  0
 39 64  1  0  0  0
 39 67  2  0  0  0
 40 52  1  0  0  0
 40 53  2  0  0  0
 40 58  1  0  0  0
 41111  1  0  0  0
 41112  1  0  0  0
 41113  1  0  0  0
 41 48  1  0  0  0
 42 43  1  0  0  0
 42 66  1  0  0  0
 42114  1  0  0  0
 42115  1  0  0  0
 43 44  1  0  0  0
 44116  1  0  0  0
 45 46  2  0  0  0
 45117  1  0  0  0
 46118  1  0  0  0
 47119  1  0  0  0
 47120  1  0  0  0
 48 56  1  0  0  0
 48 65  1  0  0  0
 48121  1  0  0  0
 49 50  1  0  0  0
 49 53  1  0  0  0
 49 64  1  0  0  0
 49122  1  0  0  0
 50 51  1  0  0  0
 50123  1  0  0  0
 50124  1  0  0  0
 51 52  1  0  0  0
 51125  1  0  0  0
 51126  1  0  0  0
 52127  1  0  0  0
 52128  1  0  0  0
 53 54  1  0  0  0
 54 55  2  0  0  0
 54129  1  0  0  0
 55 57  1  0  0  0
 55130  1  0  0  0
 56 69  2  0  0  0
 57 58  2  0  0  0
 57131  1  0  0  0
 58132  1  0  0  0
 59 60  1  0  0  0
 59 61  1  0  0  0
 59 62  1  0  0  0
 60133  1  0  0  0
 60134  1  0  0  0
 60135  1  0  0  0
 61136  1  0  0  0
 61137  1  0  0  0
 61138  1  0  0  0
 62139  1  0  0  0
 62140  1  0  0  0
 62141  1  0  0  0
 63 65  1  0  0  0
 63142  1  0  0  0
 63143  1  0  0  0
 63144  1  0  0  0
 64145  1  0  0  0
 65146  1  0  0  0
 68 83  1  0  0  0
 71 74  2  0  0  0
 71 75  1  0  0  0
 71147  1  0  0  0
 72 74  1  0  0  0
 72 76  2  0  0  0
 72148  1  0  0  0
 73 75  2  0  0  0
 73 76  1  0  0  0
 73149  1  0  0  0
 74 77  1  0  0  0
 75 85  1  0  0  0
 76 87  1  0  0  0
 77 84  1  0  0  0
 77 86  2  0  0  0
 78 79  1  0  0  0
 78 80  1  0  0  0
 78150  1  0  0  0
 78151  1  0  0  0
 79 81  1  0  0  0
 79152  1  0  0  0
 79153  1  0  0  0
 80 84  1  0  0  0
 80154  1  0  0  0
 80155  1  0  0  0
 81 82  1  0  0  0
 81 83  1  0  0  0
 81 84  1  0  0  0
 82156  1  0  0  0
 82157  1  0  0  0
 82158  1  0  0  0
 83159  1  0  0  0
 83160  1  0  0  0
 85161  1  0  0  0
 86162  1  0  0  0
 86163  1  0  0  0
M  CHG  1  86   1
M  ISO  4   1 100  68 101  83 101  85 100
M  END
> <chiral flag>
0

> <version>
0

> <s_m_source_file>
/data/baiqing/PycharmProjects/Reinvent-master-3.2/result/LINK_invent/BTK/process_docking_weight1_custom_product_contain_oxygen_bond_distance_aromatic_linkinvent_7_9_3/rearranged_h_0142.sdf

> <i_m_source_file_index>
9

> <r_mmod_Potential_Energy-OPLS-2005>
131.923568725586

> <r_mmod_Stretch_Energy-OPLS-2005>
153.720581054688

> <r_mmod_Bend_Energy-OPLS-2005>
240.599731445312

> <r_mmod_Torsional_Energy-OPLS-2005>
322.629241943359

> <r_mmod_Improper_Torsional_Energy-OPLS-2005>
6.15029287338257

> <r_mmod_Van_der_Waal_Energy-OPLS-2005>
145.756393432617

> <r_mmod_Electrostatic_Energy-OPLS-2005>
-427.332794189453

> <r_mmod_Solvation_Energy-OPLS-2005>
-403.639038085938

> <b_mmod_Minimization_Converged-OPLS-2005>
0

> <r_mmod_RMS_Derivative-OPLS-2005>
2.00410747528076

$$$$
9
                    3D
 Structure written by MMmdl.
178186  0  0  1  0            999 V2000
  -30.6815  -14.4651   20.5550 C   0  0  0  0  0  0
  -30.4261  -12.2790   19.4521 C   0  0  0  0  0  0
  -29.5216  -12.5002   18.2214 C   0  0  0  0  0  0
  -28.0302  -12.3934   18.6063 C   0  0  0  0  0  0
  -27.6678  -13.2046   19.8806 C   0  0  2  0  0  0
  -28.7016  -12.9731   21.0079 C   0  0  0  0  0  0
  -25.2630  -13.8141   20.5669 C   0  0  0  0  0  0
  -24.1853  -13.0414   20.9136 C   0  0  0  0  0  0
  -24.6387  -11.6893   20.8700 C   0  0  0  0  0  0
  -23.9049  -10.4263   21.0391 C   0  0  0  0  0  0
  -24.3598   -9.4195   21.9197 C   0  0  0  0  0  0
  -23.6280   -8.2227   22.0768 C   0  0  0  0  0  0
  -22.4264   -8.0257   21.3543 C   0  0  0  0  0  0
  -21.9892   -9.0243   20.4652 C   0  0  0  0  0  0
  -22.7216  -10.2123   20.3051 C   0  0  0  0  0  0
  -21.6819   -6.0750   22.5299 C   0  0  0  0  0  0
  -21.3980   -6.5655   23.8236 C   0  0  0  0  0  0
  -21.3661   -5.6797   24.9196 C   0  0  0  0  0  0
  -21.6068   -4.3069   24.7234 C   0  0  0  0  0  0
  -21.8851   -3.8161   23.4347 C   0  0  0  0  0  0
  -21.9162   -4.6980   22.3402 C   0  0  0  0  0  0
  -22.7893  -13.5255   21.1816 C   0  0  0  0  0  0
  -22.1636   -4.2179   21.0981 F   0  0  0  0  0  0
  -21.5639   -3.4544   25.7744 F   0  0  0  0  0  0
  -30.0409  -13.2667   20.4711 N   0  0  0  0  0  0
  -26.3040  -12.9294   20.3321 N   0  0  0  0  0  0
  -25.9303  -11.6455   20.5675 N   0  0  0  0  0  0
  -22.0482  -12.8329   22.0401 N   0  0  0  0  0  0
  -25.4343  -15.1865   20.4189 N   0  0  0  0  0  0
  -31.8029  -14.6672   20.0776 O   0  0  0  0  0  0
  -21.6602   -6.8891   21.4258 O   0  0  0  0  0  0
  -22.3600  -14.5546   20.6617 O   0  0  0  0  0  0
  -24.6115  -31.8684   23.2095 C   0  0  0  0  0  0
  -25.9007  -32.4828   23.8401 C   0  0  1  0  0  0
  -27.2526  -27.4611   20.1097 C   0  0  0  0  0  0
  -25.5867  -33.8622   24.2347 N   0  0  0  0  0  0
  -23.4003  -30.4887   21.5483 C   0  0  2  0  0  0
  -24.8513  -28.9484   20.1210 C   0  0  0  0  0  0
  -22.7403  -29.4658   22.5000 C   0  0  0  0  0  0
  -18.0258  -28.1364   22.8487 C   0  0  0  0  0  0
  -24.1462  -36.7302   23.2649 C   0  0  0  0  0  0
  -25.9241  -30.8450   21.3552 C   0  0  0  0  0  0
  -26.0066  -29.4782   20.7092 C   0  0  0  0  0  0
  -27.2109  -28.7435   20.6935 C   0  0  0  0  0  0
  -26.0824  -26.9295   19.5259 C   0  0  0  0  0  0
  -24.8837  -27.6720   19.5265 C   0  0  0  0  0  0
  -23.6095  -29.8116   20.1660 C   0  0  0  0  0  0
  -25.4089  -36.3116   24.0354 C   0  0  1  0  0  0
  -20.5847  -28.3642   23.1326 C   0  0  2  0  0  0
  -20.6743  -26.9381   22.5418 C   0  0  0  0  0  0
  -19.5725  -26.6380   21.5208 C   0  0  0  0  0  0
  -18.1901  -26.7918   22.1612 C   0  0  0  0  0  0
  -19.1509  -28.8820   23.2901 C   0  0  0  0  0  0
  -18.9440  -30.1427   23.8907 C   0  0  0  0  0  0
  -17.6448  -30.6575   24.0555 C   0  0  0  0  0  0
  -25.9023  -34.9481   23.5158 C   0  0  0  0  0  0
  -16.5336  -29.9081   23.6324 C   0  0  0  0  0  0
  -16.7250  -28.6495   23.0351 C   0  0  0  0  0  0
  -26.4448  -31.6593   25.0722 C   0  0  0  0  0  0
  -25.3724  -31.3629   26.1465 C   0  0  0  0  0  0
  -27.0317  -30.3071   24.6051 C   0  0  0  0  0  0
  -27.6017  -32.4312   25.7502 C   0  0  0  0  0  0
  -27.5568  -37.1812   24.8467 C   0  0  0  0  0  0
  -21.4131  -29.3013   22.3741 N   0  0  0  0  0  0
  -26.4271  -37.3811   23.9427 N   0  0  0  0  0  0
  -24.6635  -31.0810   22.0974 N   0  0  0  0  0  0
  -23.4183  -28.8210   23.3046 O   0  0  0  0  0  0
  -28.4452  -26.7782   20.0878 O   0  0  0  0  0  0
  -26.5591  -34.8930   22.4723 O   0  0  0  0  0  0
  -23.5310  -32.1408   23.7508 O   0  0  0  0  0  0
  -28.8564  -18.9948   18.9291 C   0  0  0  0  0  0
  -29.2179  -16.5956   18.9914 C   0  0  0  0  0  0
  -29.6700  -17.9410   20.9825 C   0  0  0  0  0  0
  -28.8215  -17.7481   18.2827 C   0  0  0  0  0  0
  -29.2794  -19.1021   20.2659 C   0  0  0  0  0  0
  -29.6459  -16.6741   20.3414 C   0  0  0  0  0  0
  -30.3056  -21.1704   21.0391 C   0  0  0  0  0  0
  -26.6581  -18.2467   15.0402 C   0  0  0  0  0  0
  -28.6646  -23.2665   22.7127 C   0  0  0  0  0  0
  -31.1350  -23.5512   22.9114 C   0  0  0  0  0  0
  -30.9578  -25.5394   20.4225 C   0  0  0  0  0  0
  -29.8765  -26.2099   22.5574 C   0  0  0  0  0  0
  -28.3804  -17.6390   16.8291 C   0  0  0  0  0  0
  -30.1444  -22.6772   20.7403 C   0  0  0  0  0  0
  -27.1718  -18.5212   16.4603 C   0  0  0  0  0  0
  -28.4500  -25.4580   20.6433 C   0  0  0  0  0  0
  -29.9356  -23.6827   21.9288 C   0  0  0  0  0  0
  -29.7996  -25.1874   21.3929 C   0  0  0  0  0  0
  -29.2282  -20.4049   20.8206 N   0  0  0  0  0  0
  -29.9489  -15.4756   21.0605 N   0  0  0  0  0  0
  -31.3847  -20.7154   21.4270 O   0  0  0  0  0  0
  -31.4807  -12.3506   19.1830 H   0  0  0  0  0  0
  -30.2946  -11.2684   19.8417 H   0  0  0  0  0  0
  -29.7619  -11.7696   17.4474 H   0  0  0  0  0  0
  -29.7321  -13.4782   17.7852 H   0  0  0  0  0  0
  -27.8067  -11.3391   18.7637 H   0  0  0  0  0  0
  -27.4090  -12.7178   17.7697 H   0  0  0  0  0  0
  -27.7142  -14.2540   19.6004 H   0  0  0  0  0  0
  -28.6614  -11.9395   21.3504 H   0  0  0  0  0  0
  -28.4637  -13.5737   21.8862 H   0  0  0  0  0  0
  -25.2720   -9.5688   22.4803 H   0  0  0  0  0  0
  -23.9999   -7.4626   22.7495 H   0  0  0  0  0  0
  -21.0813   -8.8725   19.8978 H   0  0  0  0  0  0
  -22.3635  -10.9663   19.6171 H   0  0  0  0  0  0
  -21.1974   -7.6166   23.9770 H   0  0  0  0  0  0
  -21.1451   -6.0495   25.9107 H   0  0  0  0  0  0
  -22.0623   -2.7626   23.2808 H   0  0  0  0  0  0
  -22.3936  -11.9937   22.4835 H   0  0  0  0  0  0
  -21.1138  -13.1512   22.2537 H   0  0  0  0  0  0
  -24.6621  -15.8317   20.5346 H   0  0  0  0  0  0
  -26.3016  -15.6419   20.1595 H   0  0  0  0  0  0
  -26.7091  -32.5556   23.1186 H   0  0  0  0  0  0
  -25.0011  -33.9782   25.0482 H   0  0  0  0  0  0
  -22.6869  -31.3030   21.4063 H   0  0  0  0  0  0
  -23.3748  -35.9610   23.3305 H   0  0  0  0  0  0
  -24.3561  -36.8915   22.2065 H   0  0  0  0  0  0
  -23.7169  -37.6491   23.6653 H   0  0  0  0  0  0
  -26.0285  -31.6089   20.5823 H   0  0  0  0  0  0
  -26.8142  -30.9043   21.9706 H   0  0  0  0  0  0
  -28.1071  -29.1561   21.1353 H   0  0  0  0  0  0
  -26.1028  -25.9538   19.0600 H   0  0  0  0  0  0
  -23.9949  -27.2588   19.0698 H   0  0  0  0  0  0
  -23.7138  -30.5818   19.4012 H   0  0  0  0  0  0
  -22.7357  -29.2256   19.8749 H   0  0  0  0  0  0
  -25.1259  -36.1996   25.0847 H   0  0  0  0  0  0
  -20.9934  -28.3190   24.1449 H   0  0  0  0  0  0
  -20.5635  -26.2250   23.3599 H   0  0  0  0  0  0
  -21.6609  -26.7423   22.1203 H   0  0  0  0  0  0
  -19.6881  -25.6294   21.1223 H   0  0  0  0  0  0
  -19.6678  -27.3208   20.6751 H   0  0  0  0  0  0
  -17.4183  -26.6672   21.3998 H   0  0  0  0  0  0
  -18.0291  -26.0049   22.8995 H   0  0  0  0  0  0
  -19.7921  -30.7222   24.2287 H   0  0  0  0  0  0
  -17.5011  -31.6261   24.5148 H   0  0  0  0  0  0
  -15.5333  -30.2989   23.7648 H   0  0  0  0  0  0
  -15.8643  -28.0822   22.7069 H   0  0  0  0  0  0
  -24.5909  -30.6985   25.7760 H   0  0  0  0  0  0
  -24.8902  -32.2751   26.4990 H   0  0  0  0  0  0
  -25.8091  -30.8729   27.0178 H   0  0  0  0  0  0
  -26.2871  -29.6825   24.1112 H   0  0  0  0  0  0
  -27.4147  -29.7299   25.4474 H   0  0  0  0  0  0
  -27.8656  -30.4453   23.9168 H   0  0  0  0  0  0
  -27.2635  -33.3605   26.2100 H   0  0  0  0  0  0
  -28.3827  -32.6881   25.0334 H   0  0  0  0  0  0
  -28.0685  -31.8422   26.5408 H   0  0  0  0  0  0
  -28.2575  -38.0121   24.7553 H   0  0  0  0  0  0
  -28.1069  -36.2659   24.6245 H   0  0  0  0  0  0
  -27.2289  -37.1393   25.8866 H   0  0  0  0  0  0
  -20.9295  -29.8742   21.6965 H   0  0  0  0  0  0
  -26.0164  -38.2889   24.1443 H   0  0  0  0  0  0
  -28.5664  -19.8893   18.3969 H   0  0  0  0  0  0
  -29.1752  -15.6432   18.4854 H   0  0  0  0  0  0
  -29.9799  -18.0236   22.0156 H   0  0  0  0  0  0
  -25.7760  -18.8494   14.8162 H   0  0  0  0  0  0
  -26.3812  -17.1993   14.9125 H   0  0  0  0  0  0
  -27.4190  -18.4877   14.2969 H   0  0  0  0  0  0
  -28.7755  -22.2867   23.1767 H   0  0  0  0  0  0
  -27.7881  -23.2021   22.0692 H   0  0  0  0  0  0
  -28.4301  -23.9568   23.5212 H   0  0  0  0  0  0
  -31.2388  -22.5366   23.2937 H   0  0  0  0  0  0
  -31.0268  -24.1728   23.7996 H   0  0  0  0  0  0
  -32.0880  -23.7983   22.4443 H   0  0  0  0  0  0
  -30.9813  -26.6065   20.1975 H   0  0  0  0  0  0
  -30.8596  -25.0286   19.4645 H   0  0  0  0  0  0
  -31.9369  -25.2924   20.8301 H   0  0  0  0  0  0
  -29.7227  -27.2299   22.2053 H   0  0  0  0  0  0
  -30.8506  -26.2147   23.0436 H   0  0  0  0  0  0
  -29.1228  -26.0296   23.3209 H   0  0  0  0  0  0
  -28.1341  -16.5976   16.6180 H   0  0  0  0  0  0
  -29.2317  -17.8880   16.1937 H   0  0  0  0  0  0
  -29.3342  -22.7801   20.0200 H   0  0  0  0  0  0
  -31.0459  -22.9370   20.1885 H   0  0  0  0  0  0
  -26.3627  -18.3503   17.1723 H   0  0  0  0  0  0
  -27.4338  -19.5767   16.5346 H   0  0  0  0  0  0
  -27.6108  -25.3416   21.3321 H   0  0  0  0  0  0
  -28.2947  -24.7469   19.8327 H   0  0  0  0  0  0
  -28.4092  -20.9400   20.5675 H   0  0  0  0  0  0
  -29.2069  -15.1655   21.6705 H   0  0  0  0  0  0
  1 25  1  0  0  0
  1 30  2  0  0  0
  1 90  1  0  0  0
  2  3  1  0  0  0
  2 25  1  0  0  0
  2 92  1  0  0  0
  2 93  1  0  0  0
  3  4  1  0  0  0
  3 94  1  0  0  0
  3 95  1  0  0  0
  4  5  1  0  0  0
  4 96  1  0  0  0
  4 97  1  0  0  0
  5  6  1  0  0  0
  5 26  1  0  0  0
  5 98  1  0  0  0
  6 25  1  0  0  0
  6 99  1  0  0  0
  6100  1  0  0  0
  7  8  2  0  0  0
  7 26  1  0  0  0
  7 29  1  0  0  0
  8  9  1  0  0  0
  8 22  1  0  0  0
  9 10  1  0  0  0
  9 27  2  0  0  0
 10 11  2  0  0  0
 10 15  1  0  0  0
 11 12  1  0  0  0
 11101  1  0  0  0
 12 13  2  0  0  0
 12102  1  0  0  0
 13 14  1  0  0  0
 13 31  1  0  0  0
 14 15  2  0  0  0
 14103  1  0  0  0
 15104  1  0  0  0
 16 17  2  0  0  0
 16 21  1  0  0  0
 16 31  1  0  0  0
 17 18  1  0  0  0
 17105  1  0  0  0
 18 19  2  0  0  0
 18106  1  0  0  0
 19 20  1  0  0  0
 19 24  1  0  0  0
 20 21  2  0  0  0
 20107  1  0  0  0
 21 23  1  0  0  0
 22 28  1  0  0  0
 22 32  2  0  0  0
 26 27  1  0  0  0
 28108  1  0  0  0
 28109  1  0  0  0
 29110  1  0  0  0
 29111  1  0  0  0
 33 34  1  0  0  0
 33 66  1  0  0  0
 33 70  2  0  0  0
 34 36  1  0  0  0
 34 59  1  0  0  0
 34112  1  0  0  0
 35 44  2  0  0  0
 35 45  1  0  0  0
 35 68  1  0  0  0
 36 56  1  0  0  0
 36113  1  0  0  0
 37 39  1  0  0  0
 37 47  1  0  0  0
 37 66  1  0  0  0
 37114  1  0  0  0
 38 43  2  0  0  0
 38 46  1  0  0  0
 38 47  1  0  0  0
 39 64  1  0  0  0
 39 67  2  0  0  0
 40 52  1  0  0  0
 40 53  2  0  0  0
 40 58  1  0  0  0
 41115  1  0  0  0
 41116  1  0  0  0
 41117  1  0  0  0
 41 48  1  0  0  0
 42 43  1  0  0  0
 42 66  1  0  0  0
 42118  1  0  0  0
 42119  1  0  0  0
 43 44  1  0  0  0
 44120  1  0  0  0
 45 46  2  0  0  0
 45121  1  0  0  0
 46122  1  0  0  0
 47123  1  0  0  0
 47124  1  0  0  0
 48 56  1  0  0  0
 48 65  1  0  0  0
 48125  1  0  0  0
 49 50  1  0  0  0
 49 53  1  0  0  0
 49 64  1  0  0  0
 49126  1  0  0  0
 50 51  1  0  0  0
 50127  1  0  0  0
 50128  1  0  0  0
 51 52  1  0  0  0
 51129  1  0  0  0
 51130  1  0  0  0
 52131  1  0  0  0
 52132  1  0  0  0
 53 54  1  0  0  0
 54 55  2  0  0  0
 54133  1  0  0  0
 55 57  1  0  0  0
 55134  1  0  0  0
 56 69  2  0  0  0
 57 58  2  0  0  0
 57135  1  0  0  0
 58136  1  0  0  0
 59 60  1  0  0  0
 59 61  1  0  0  0
 59 62  1  0  0  0
 60137  1  0  0  0
 60138  1  0  0  0
 60139  1  0  0  0
 61140  1  0  0  0
 61141  1  0  0  0
 61142  1  0  0  0
 62143  1  0  0  0
 62144  1  0  0  0
 62145  1  0  0  0
 63 65  1  0  0  0
 63146  1  0  0  0
 63147  1  0  0  0
 63148  1  0  0  0
 64149  1  0  0  0
 65150  1  0  0  0
 68 86  1  0  0  0
 71 74  2  0  0  0
 71 75  1  0  0  0
 71151  1  0  0  0
 72 74  1  0  0  0
 72 76  2  0  0  0
 72152  1  0  0  0
 73 75  2  0  0  0
 73 76  1  0  0  0
 73153  1  0  0  0
 74 83  1  0  0  0
 75 89  1  0  0  0
 76 90  1  0  0  0
 77 84  1  0  0  0
 77 89  1  0  0  0
 77 91  2  0  0  0
 78 85  1  0  0  0
 78154  1  0  0  0
 78155  1  0  0  0
 78156  1  0  0  0
 79157  1  0  0  0
 79158  1  0  0  0
 79159  1  0  0  0
 79 87  1  0  0  0
 80 87  1  0  0  0
 80160  1  0  0  0
 80161  1  0  0  0
 80162  1  0  0  0
 81163  1  0  0  0
 81164  1  0  0  0
 81165  1  0  0  0
 81 88  1  0  0  0
 82 88  1  0  0  0
 82166  1  0  0  0
 82167  1  0  0  0
 82168  1  0  0  0
 83 85  1  0  0  0
 83169  1  0  0  0
 83170  1  0  0  0
 84 87  1  0  0  0
 84171  1  0  0  0
 84172  1  0  0  0
 85173  1  0  0  0
 85174  1  0  0  0
 86 88  1  0  0  0
 86175  1  0  0  0
 86176  1  0  0  0
 87 88  1  0  0  0
 89177  1  0  0  0
 90178  1  0  0  0
M  ISO  4   1 100  68 101  86 101  90 100
M  END
> <chiral flag>
0

> <version>
0

> <s_m_source_file>
/data/baiqing/PycharmProjects/Reinvent-master-3.2/result/LINK_invent/BTK/process_docking_weight1_custom_product_contain_oxygen_bond_distance_aromatic_linkinvent_7_9_3/rearranged_h_0142.sdf

> <i_m_source_file_index>
10

> <r_mmod_Potential_Energy-OPLS-2005>
70.9384460449219

> <r_mmod_Stretch_Energy-OPLS-2005>
47.8075256347656

> <r_mmod_Bend_Energy-OPLS-2005>
117.285507202148

> <r_mmod_Torsional_Energy-OPLS-2005>
320.567932128906

> <r_mmod_Improper_Torsional_Energy-OPLS-2005>
9.19661521911621

> <r_mmod_Van_der_Waal_Energy-OPLS-2005>
160.057540893555

> <r_mmod_Electrostatic_Energy-OPLS-2005>
-373.269378662109

> <r_mmod_Solvation_Energy-OPLS-2005>
-222.110076904297

> <b_mmod_Minimization_Converged-OPLS-2005>
0

> <r_mmod_RMS_Derivative-OPLS-2005>
3.03509640693665

$$$$
10
                    3D
 Structure written by MMmdl.
171179  0  0  1  0            999 V2000
  -30.6584  -14.5790   20.4817 C   0  0  0  0  0  0
  -30.4258  -12.3468   19.4495 C   0  0  0  0  0  0
  -29.4996  -12.4740   18.2219 C   0  0  0  0  0  0
  -28.0217  -12.3322   18.6371 C   0  0  0  0  0  0
  -27.6537  -13.2119   19.8626 C   0  0  2  0  0  0
  -28.6976  -13.0672   20.9925 C   0  0  0  0  0  0
  -25.2581  -13.8179   20.5692 C   0  0  0  0  0  0
  -24.1837  -13.0458   20.9189 C   0  0  0  0  0  0
  -24.6399  -11.6921   20.8756 C   0  0  0  0  0  0
  -23.9062  -10.4311   21.0413 C   0  0  0  0  0  0
  -24.3614   -9.4227   21.9195 C   0  0  0  0  0  0
  -23.6297   -8.2256   22.0755 C   0  0  0  0  0  0
  -22.4282   -8.0291   21.3543 C   0  0  0  0  0  0
  -21.9922   -9.0267   20.4643 C   0  0  0  0  0  0
  -22.7241  -10.2148   20.3061 C   0  0  0  0  0  0
  -21.6851   -6.0747   22.5283 C   0  0  0  0  0  0
  -21.4018   -6.5647   23.8218 C   0  0  0  0  0  0
  -21.3651   -5.6794   24.9172 C   0  0  0  0  0  0
  -21.6042   -4.3059   24.7223 C   0  0  0  0  0  0
  -21.8814   -3.8157   23.4342 C   0  0  0  0  0  0
  -21.9197   -4.6975   22.3402 C   0  0  0  0  0  0
  -22.7862  -13.5255   21.1838 C   0  0  0  0  0  0
  -22.1661   -4.2160   21.0978 F   0  0  0  0  0  0
  -21.5621   -3.4541   25.7733 F   0  0  0  0  0  0
  -30.0129  -13.3791   20.4188 N   0  0  0  0  0  0
  -26.2997  -12.9348   20.3343 N   0  0  0  0  0  0
  -25.9327  -11.6512   20.5798 N   0  0  0  0  0  0
  -22.0490  -12.8258   22.0385 N   0  0  0  0  0  0
  -25.4329  -15.1895   20.4081 N   0  0  0  0  0  0
  -31.8344  -14.6942   20.1255 O   0  0  0  0  0  0
  -21.6634   -6.8897   21.4250 O   0  0  0  0  0  0
  -22.3547  -14.5568   20.6674 O   0  0  0  0  0  0
  -24.6224  -31.8644   23.2087 C   0  0  0  0  0  0
  -25.9094  -32.4796   23.8408 C   0  0  1  0  0  0
  -27.2037  -27.3583   20.1096 C   0  0  0  0  0  0
  -25.5922  -33.8597   24.2346 N   0  0  0  0  0  0
  -23.4137  -30.4930   21.5501 C   0  0  2  0  0  0
  -24.8537  -28.9573   20.1055 C   0  0  0  0  0  0
  -22.7470  -29.4657   22.4965 C   0  0  0  0  0  0
  -18.0314  -28.1369   22.8540 C   0  0  0  0  0  0
  -24.1479  -36.7294   23.2647 C   0  0  0  0  0  0
  -25.9512  -30.8082   21.3712 C   0  0  0  0  0  0
  -26.0210  -29.4397   20.7114 C   0  0  0  0  0  0
  -27.2054  -28.6498   20.7076 C   0  0  0  0  0  0
  -26.0253  -26.9214   19.4744 C   0  0  0  0  0  0
  -24.8551  -27.7026   19.4752 C   0  0  0  0  0  0
  -23.6214  -29.8335   20.1614 C   0  0  0  0  0  0
  -25.4100  -36.3101   24.0355 C   0  0  1  0  0  0
  -20.5910  -28.3693   23.1296 C   0  0  2  0  0  0
  -20.6818  -26.9426   22.5387 C   0  0  0  0  0  0
  -19.5782  -26.6483   21.5161 C   0  0  0  0  0  0
  -18.1989  -26.7916   22.1673 C   0  0  0  0  0  0
  -19.1575  -28.8844   23.2909 C   0  0  0  0  0  0
  -18.9507  -30.1467   23.8904 C   0  0  0  0  0  0
  -17.6508  -30.6619   24.0564 C   0  0  0  0  0  0
  -25.9033  -34.9456   23.5138 C   0  0  0  0  0  0
  -16.5383  -29.9117   23.6337 C   0  0  0  0  0  0
  -16.7317  -28.6491   23.0404 C   0  0  0  0  0  0
  -26.4491  -31.6576   25.0750 C   0  0  0  0  0  0
  -25.3756  -31.3682   26.1509 C   0  0  0  0  0  0
  -27.0340  -30.3016   24.6146 C   0  0  0  0  0  0
  -27.6062  -32.4292   25.7519 C   0  0  0  0  0  0
  -27.5574  -37.1814   24.8477 C   0  0  0  0  0  0
  -21.4183  -29.3098   22.3736 N   0  0  0  0  0  0
  -26.4280  -37.3792   23.9418 N   0  0  0  0  0  0
  -24.6816  -31.0702   22.1004 N   0  0  0  0  0  0
  -23.4210  -28.8155   23.2988 O   0  0  0  0  0  0
  -28.2916  -26.4957   20.1420 O   0  0  0  0  0  0
  -26.5600  -34.8910   22.4706 O   0  0  0  0  0  0
  -23.5413  -32.1421   23.7454 O   0  0  0  0  0  0
  -28.6556  -18.7951   21.4682 C   0  0  0  0  0  0
  -27.9404  -20.0276   21.1663 C   0  0  0  0  0  0
  -29.4569  -18.2818   20.4888 C   0  0  0  0  0  0
  -28.2333  -20.5159   19.8803 C   0  0  0  0  0  0
  -27.9182  -20.9988   23.4717 C   0  0  0  0  0  0
  -26.0815  -19.4205   22.7604 C   0  0  0  0  0  0
  -26.0877  -21.7230   21.9639 C   0  0  0  0  0  0
  -28.0531  -21.3790   17.4834 C   0  0  0  0  0  0
  -26.0898  -21.5091   18.8620 C   0  0  0  0  0  0
  -30.4185  -17.0819   20.5248 C   0  0  0  0  0  0
  -28.6543  -23.8775   20.3890 C   0  0  0  0  0  0
  -27.9980  -23.2071   19.1439 C   0  0  0  0  0  0
  -28.0334  -25.2477   20.8673 C   0  0  0  0  0  0
  -27.0305  -20.5531   22.2918 C   0  0  0  0  0  0
  -27.6342  -21.6500   18.9602 C   0  0  0  0  0  0
  -29.9093  -15.6918   20.7254 N   0  0  0  0  0  0
  -29.4179  -19.3984   19.1494 S   0  0  0  0  0  0
  -31.4684  -12.4504   19.1408 H   0  0  0  0  0  0
  -30.3474  -11.3538   19.8938 H   0  0  0  0  0  0
  -29.7541  -11.7144   17.4813 H   0  0  0  0  0  0
  -29.6553  -13.4399   17.7406 H   0  0  0  0  0  0
  -27.8484  -11.2817   18.8733 H   0  0  0  0  0  0
  -27.3680  -12.5639   17.7955 H   0  0  0  0  0  0
  -27.6777  -14.2458   19.5198 H   0  0  0  0  0  0
  -28.6960  -12.0506   21.3889 H   0  0  0  0  0  0
  -28.4639  -13.7191   21.8352 H   0  0  0  0  0  0
  -25.2756   -9.5699   22.4768 H   0  0  0  0  0  0
  -23.9996   -7.4653   22.7482 H   0  0  0  0  0  0
  -21.0847   -8.8801   19.8951 H   0  0  0  0  0  0
  -22.3716  -10.9690   19.6167 H   0  0  0  0  0  0
  -21.2013   -7.6156   23.9727 H   0  0  0  0  0  0
  -21.1469   -6.0519   25.9073 H   0  0  0  0  0  0
  -22.0604   -2.7622   23.2835 H   0  0  0  0  0  0
  -22.4079  -11.9906   22.4777 H   0  0  0  0  0  0
  -21.1117  -13.1292   22.2573 H   0  0  0  0  0  0
  -24.6745  -15.8508   20.5297 H   0  0  0  0  0  0
  -26.2835  -15.6261   20.0771 H   0  0  0  0  0  0
  -26.7141  -32.5486   23.1148 H   0  0  0  0  0  0
  -25.0092  -33.9769   25.0507 H   0  0  0  0  0  0
  -22.7074  -31.3153   21.4106 H   0  0  0  0  0  0
  -23.3738  -35.9631   23.3322 H   0  0  0  0  0  0
  -24.3566  -36.8897   22.2057 H   0  0  0  0  0  0
  -23.7232  -37.6505   23.6639 H   0  0  0  0  0  0
  -26.0796  -31.5724   20.6038 H   0  0  0  0  0  0
  -26.8341  -30.8548   21.9954 H   0  0  0  0  0  0
  -28.1019  -29.0081   21.1924 H   0  0  0  0  0  0
  -26.0070  -25.9576   18.9884 H   0  0  0  0  0  0
  -23.9636  -27.3318   18.9892 H   0  0  0  0  0  0
  -23.7354  -30.6114   19.4060 H   0  0  0  0  0  0
  -22.7423  -29.2604   19.8648 H   0  0  0  0  0  0
  -25.1267  -36.1962   25.0849 H   0  0  0  0  0  0
  -20.9992  -28.3274   24.1419 H   0  0  0  0  0  0
  -21.6689  -26.7496   22.1150 H   0  0  0  0  0  0
  -20.5755  -26.2290   23.3574 H   0  0  0  0  0  0
  -19.6929  -25.6449   21.1071 H   0  0  0  0  0  0
  -19.6692  -27.3408   20.6767 H   0  0  0  0  0  0
  -17.4216  -26.6580   21.4138 H   0  0  0  0  0  0
  -18.0513  -26.0072   22.9121 H   0  0  0  0  0  0
  -19.7991  -30.7305   24.2189 H   0  0  0  0  0  0
  -17.5069  -31.6318   24.5131 H   0  0  0  0  0  0
  -15.5382  -30.3034   23.7617 H   0  0  0  0  0  0
  -15.8712  -28.0813   22.7112 H   0  0  0  0  0  0
  -24.5940  -30.6999   25.7878 H   0  0  0  0  0  0
  -24.8925  -32.2821   26.4964 H   0  0  0  0  0  0
  -25.8138  -30.8877   27.0270 H   0  0  0  0  0  0
  -26.2915  -29.6780   24.1152 H   0  0  0  0  0  0
  -27.4060  -29.7249   25.4628 H   0  0  0  0  0  0
  -27.8768  -30.4346   23.9363 H   0  0  0  0  0  0
  -27.2692  -33.3595   26.2104 H   0  0  0  0  0  0
  -28.3880  -32.6846   25.0354 H   0  0  0  0  0  0
  -28.0701  -31.8394   26.5436 H   0  0  0  0  0  0
  -28.2611  -38.0095   24.7499 H   0  0  0  0  0  0
  -28.1058  -36.2626   24.6320 H   0  0  0  0  0  0
  -27.2303  -37.1487   25.8889 H   0  0  0  0  0  0
  -20.9304  -29.8943   21.7095 H   0  0  0  0  0  0
  -26.0171  -38.2881   24.1381 H   0  0  0  0  0  0
  -28.5783  -18.3117   22.4327 H   0  0  0  0  0  0
  -28.5645  -20.1952   23.8251 H   0  0  0  0  0  0
  -27.3238  -21.3225   24.3246 H   0  0  0  0  0  0
  -28.5635  -21.8304   23.1840 H   0  0  0  0  0  0
  -25.3721  -19.7795   23.5065 H   0  0  0  0  0  0
  -26.5956  -18.5787   23.2190 H   0  0  0  0  0  0
  -25.4966  -19.0327   21.9222 H   0  0  0  0  0  0
  -26.5748  -22.5588   21.4747 H   0  0  0  0  0  0
  -25.6378  -22.1224   22.8741 H   0  0  0  0  0  0
  -25.2394  -21.3896   21.3713 H   0  0  0  0  0  0
  -27.7036  -20.4081   17.1285 H   0  0  0  0  0  0
  -29.1330  -21.4280   17.3421 H   0  0  0  0  0  0
  -27.6370  -22.1181   16.7973 H   0  0  0  0  0  0
  -25.7574  -20.5005   19.1150 H   0  0  0  0  0  0
  -25.6993  -21.7260   17.8653 H   0  0  0  0  0  0
  -25.5594  -22.2244   19.4838 H   0  0  0  0  0  0
  -30.9939  -17.0924   19.5980 H   0  0  0  0  0  0
  -31.1564  -17.2616   21.3085 H   0  0  0  0  0  0
  -29.7198  -24.0225   20.2012 H   0  0  0  0  0  0
  -28.6162  -23.1747   21.2170 H   0  0  0  0  0  0
  -27.1090  -23.7876   18.8915 H   0  0  0  0  0  0
  -28.6811  -23.4997   18.3466 H   0  0  0  0  0  0
  -28.4270  -25.4279   21.8663 H   0  0  0  0  0  0
  -26.9664  -25.0823   21.0337 H   0  0  0  0  0  0
  -28.9436  -15.5672   20.9908 H   0  0  0  0  0  0
  1 25  1  0  0  0
  1 30  2  0  0  0
  1 86  1  0  0  0
  2  3  1  0  0  0
  2 25  1  0  0  0
  2 88  1  0  0  0
  2 89  1  0  0  0
  3  4  1  0  0  0
  3 90  1  0  0  0
  3 91  1  0  0  0
  4  5  1  0  0  0
  4 92  1  0  0  0
  4 93  1  0  0  0
  5  6  1  0  0  0
  5 26  1  0  0  0
  5 94  1  0  0  0
  6 25  1  0  0  0
  6 95  1  0  0  0
  6 96  1  0  0  0
  7  8  2  0  0  0
  7 26  1  0  0  0
  7 29  1  0  0  0
  8  9  1  0  0  0
  8 22  1  0  0  0
  9 10  1  0  0  0
  9 27  2  0  0  0
 10 11  2  0  0  0
 10 15  1  0  0  0
 11 12  1  0  0  0
 11 97  1  0  0  0
 12 13  2  0  0  0
 12 98  1  0  0  0
 13 14  1  0  0  0
 13 31  1  0  0  0
 14 15  2  0  0  0
 14 99  1  0  0  0
 15100  1  0  0  0
 16 17  2  0  0  0
 16 21  1  0  0  0
 16 31  1  0  0  0
 17 18  1  0  0  0
 17101  1  0  0  0
 18 19  2  0  0  0
 18102  1  0  0  0
 19 20  1  0  0  0
 19 24  1  0  0  0
 20 21  2  0  0  0
 20103  1  0  0  0
 21 23  1  0  0  0
 22 28  1  0  0  0
 22 32  2  0  0  0
 26 27  1  0  0  0
 28104  1  0  0  0
 28105  1  0  0  0
 29106  1  0  0  0
 29107  1  0  0  0
 33 34  1  0  0  0
 33 66  1  0  0  0
 33 70  2  0  0  0
 34 36  1  0  0  0
 34 59  1  0  0  0
 34108  1  0  0  0
 35 44  2  0  0  0
 35 45  1  0  0  0
 35 68  1  0  0  0
 36 56  1  0  0  0
 36109  1  0  0  0
 37 39  1  0  0  0
 37 47  1  0  0  0
 37 66  1  0  0  0
 37110  1  0  0  0
 38 43  2  0  0  0
 38 46  1  0  0  0
 38 47  1  0  0  0
 39 64  1  0  0  0
 39 67  2  0  0  0
 40 52  1  0  0  0
 40 53  2  0  0  0
 40 58  1  0  0  0
 41111  1  0  0  0
 41112  1  0  0  0
 41113  1  0  0  0
 41 48  1  0  0  0
 42 43  1  0  0  0
 42 66  1  0  0  0
 42114  1  0  0  0
 42115  1  0  0  0
 43 44  1  0  0  0
 44116  1  0  0  0
 45 46  2  0  0  0
 45117  1  0  0  0
 46118  1  0  0  0
 47119  1  0  0  0
 47120  1  0  0  0
 48 56  1  0  0  0
 48 65  1  0  0  0
 48121  1  0  0  0
 49 50  1  0  0  0
 49 53  1  0  0  0
 49 64  1  0  0  0
 49122  1  0  0  0
 50 51  1  0  0  0
 50123  1  0  0  0
 50124  1  0  0  0
 51 52  1  0  0  0
 51125  1  0  0  0
 51126  1  0  0  0
 52127  1  0  0  0
 52128  1  0  0  0
 53 54  1  0  0  0
 54 55  2  0  0  0
 54129  1  0  0  0
 55 57  1  0  0  0
 55130  1  0  0  0
 56 69  2  0  0  0
 57 58  2  0  0  0
 57131  1  0  0  0
 58132  1  0  0  0
 59 60  1  0  0  0
 59 61  1  0  0  0
 59 62  1  0  0  0
 60133  1  0  0  0
 60134  1  0  0  0
 60135  1  0  0  0
 61136  1  0  0  0
 61137  1  0  0  0
 61138  1  0  0  0
 62139  1  0  0  0
 62140  1  0  0  0
 62141  1  0  0  0
 63 65  1  0  0  0
 63142  1  0  0  0
 63143  1  0  0  0
 63144  1  0  0  0
 64145  1  0  0  0
 65146  1  0  0  0
 68 83  1  0  0  0
 71 72  1  0  0  0
 71 73  2  0  0  0
 71147  1  0  0  0
 72 74  2  0  0  0
 72 84  1  0  0  0
 73 80  1  0  0  0
 73 87  1  0  0  0
 74 85  1  0  0  0
 74 87  1  0  0  0
 75148  1  0  0  0
 75149  1  0  0  0
 75150  1  0  0  0
 75 84  1  0  0  0
 76 84  1  0  0  0
 76151  1  0  0  0
 76152  1  0  0  0
 76153  1  0  0  0
 77 84  1  0  0  0
 77154  1  0  0  0
 77155  1  0  0  0
 77156  1  0  0  0
 78157  1  0  0  0
 78158  1  0  0  0
 78159  1  0  0  0
 78 85  1  0  0  0
 79 85  1  0  0  0
 79160  1  0  0  0
 79161  1  0  0  0
 79162  1  0  0  0
 80 86  1  0  0  0
 80163  1  0  0  0
 80164  1  0  0  0
 81 82  1  0  0  0
 81 83  1  0  0  0
 81165  1  0  0  0
 81166  1  0  0  0
 82 85  1  0  0  0
 82167  1  0  0  0
 82168  1  0  0  0
 83169  1  0  0  0
 83170  1  0  0  0
 86171  1  0  0  0
M  ISO  4   1 100  68 101  83 101  86 100
M  END
> <chiral flag>
0

> <version>
0

> <s_m_source_file>
/data/baiqing/PycharmProjects/Reinvent-master-3.2/result/LINK_invent/BTK/process_docking_weight1_custom_product_contain_oxygen_bond_distance_aromatic_linkinvent_7_9_3/rearranged_h_0142.sdf

> <i_m_source_file_index>
11

> <r_mmod_Potential_Energy-OPLS-2005>
69.0291519165039

> <r_mmod_Stretch_Energy-OPLS-2005>
76.9682540893555

> <r_mmod_Bend_Energy-OPLS-2005>
207.394058227539

> <r_mmod_Torsional_Energy-OPLS-2005>
240.31999206543

> <r_mmod_Improper_Torsional_Energy-OPLS-2005>
6.33186721801758

> <r_mmod_Van_der_Waal_Energy-OPLS-2005>
151.697204589844

> <r_mmod_Electrostatic_Energy-OPLS-2005>
-463.120391845703

> <r_mmod_Solvation_Energy-OPLS-2005>
-188.08479309082

> <b_mmod_Minimization_Converged-OPLS-2005>
0

> <r_mmod_RMS_Derivative-OPLS-2005>
3.85521483421326

$$$$
11
                    3D
 Structure written by MMmdl.
165174  0  0  1  0            999 V2000
  -30.6873  -14.4535   20.5998 C   0  0  0  0  0  0
  -30.4321  -12.3008   19.4139 C   0  0  0  0  0  0
  -29.4984  -12.5122   18.2022 C   0  0  0  0  0  0
  -28.0157  -12.3806   18.6106 C   0  0  0  0  0  0
  -27.6682  -13.1980   19.8836 C   0  0  2  0  0  0
  -28.7094  -12.9379   20.9955 C   0  0  0  0  0  0
  -25.2602  -13.8157   20.5593 C   0  0  0  0  0  0
  -24.1872  -13.0445   20.9166 C   0  0  0  0  0  0
  -24.6418  -11.6898   20.8746 C   0  0  0  0  0  0
  -23.9061  -10.4292   21.0405 C   0  0  0  0  0  0
  -24.3626   -9.4206   21.9196 C   0  0  0  0  0  0
  -23.6274   -8.2249   22.0752 C   0  0  0  0  0  0
  -22.4262   -8.0306   21.3539 C   0  0  0  0  0  0
  -21.9894   -9.0274   20.4656 C   0  0  0  0  0  0
  -22.7234  -10.2154   20.3059 C   0  0  0  0  0  0
  -21.6863   -6.0731   22.5265 C   0  0  0  0  0  0
  -21.4033   -6.5641   23.8201 C   0  0  0  0  0  0
  -21.3629   -5.6776   24.9163 C   0  0  0  0  0  0
  -21.6033   -4.3047   24.7215 C   0  0  0  0  0  0
  -21.8834   -3.8126   23.4340 C   0  0  0  0  0  0
  -21.9200   -4.6954   22.3387 C   0  0  0  0  0  0
  -22.7897  -13.5261   21.1817 C   0  0  0  0  0  0
  -22.1666   -4.2129   21.0969 F   0  0  0  0  0  0
  -21.5589   -3.4546   25.7728 F   0  0  0  0  0  0
  -30.0440  -13.2639   20.4561 N   0  0  0  0  0  0
  -26.3058  -12.9291   20.3378 N   0  0  0  0  0  0
  -25.9337  -11.6465   20.5797 N   0  0  0  0  0  0
  -22.0523  -12.8279   22.0382 N   0  0  0  0  0  0
  -25.4345  -15.1862   20.3841 N   0  0  0  0  0  0
  -31.7879  -14.6840   20.0853 O   0  0  0  0  0  0
  -21.6641   -6.8888   21.4242 O   0  0  0  0  0  0
  -22.3576  -14.5546   20.6616 O   0  0  0  0  0  0
  -24.6145  -31.8657   23.2081 C   0  0  0  0  0  0
  -25.9050  -32.4790   23.8363 C   0  0  1  0  0  0
  -27.2407  -27.4183   20.0919 C   0  0  0  0  0  0
  -25.5927  -33.8579   24.2304 N   0  0  0  0  0  0
  -23.4028  -30.4871   21.5482 C   0  0  2  0  0  0
  -24.8474  -28.9471   20.1115 C   0  0  0  0  0  0
  -22.7406  -29.4639   22.4980 C   0  0  0  0  0  0
  -18.0292  -28.1371   22.8496 C   0  0  0  0  0  0
  -24.1460  -36.7276   23.2637 C   0  0  0  0  0  0
  -25.9313  -30.8208   21.3641 C   0  0  0  0  0  0
  -26.0058  -29.4546   20.7115 C   0  0  0  0  0  0
  -27.1986  -28.6941   20.7045 C   0  0  0  0  0  0
  -26.0582  -26.9203   19.4993 C   0  0  0  0  0  0
  -24.8693  -27.6771   19.5070 C   0  0  0  0  0  0
  -23.6091  -29.8173   20.1630 C   0  0  0  0  0  0
  -25.4084  -36.3068   24.0335 C   0  0  1  0  0  0
  -20.5875  -28.3652   23.1294 C   0  0  2  0  0  0
  -20.6757  -26.9381   22.5402 C   0  0  0  0  0  0
  -19.5728  -26.6372   21.5195 C   0  0  0  0  0  0
  -18.1916  -26.7922   22.1622 C   0  0  0  0  0  0
  -19.1536  -28.8832   23.2897 C   0  0  0  0  0  0
  -18.9469  -30.1441   23.8905 C   0  0  0  0  0  0
  -17.6470  -30.6569   24.0583 C   0  0  0  0  0  0
  -25.9045  -34.9445   23.5106 C   0  0  0  0  0  0
  -16.5360  -29.9081   23.6333 C   0  0  0  0  0  0
  -16.7285  -28.6499   23.0348 C   0  0  0  0  0  0
  -26.4478  -31.6576   25.0694 C   0  0  0  0  0  0
  -25.3776  -31.3784   26.1491 C   0  0  0  0  0  0
  -27.0259  -30.2982   24.6093 C   0  0  0  0  0  0
  -27.6049  -32.4306   25.7442 C   0  0  0  0  0  0
  -27.5571  -37.1773   24.8465 C   0  0  0  0  0  0
  -21.4131  -29.3019   22.3692 N   0  0  0  0  0  0
  -26.4265  -37.3760   23.9432 N   0  0  0  0  0  0
  -24.6682  -31.0731   22.0987 N   0  0  0  0  0  0
  -23.4163  -28.8209   23.3036 O   0  0  0  0  0  0
  -28.4261  -26.7044   20.1343 O   0  0  0  0  0  0
  -26.5595  -34.8915   22.4666 O   0  0  0  0  0  0
  -23.5348  -32.1427   23.7477 O   0  0  0  0  0  0
  -30.9938  -18.9587   20.6211 C   0  0  0  0  0  0
  -31.0833  -17.5556   20.7336 C   0  0  0  0  0  0
  -28.7601  -17.4762   21.4434 C   0  0  0  0  0  0
  -29.7913  -19.6424   20.9155 C   0  0  0  0  0  0
  -28.6555  -18.8866   21.3269 C   0  0  0  0  0  0
  -29.9638  -16.7939   21.1426 C   0  0  0  0  0  0
  -29.8110  -21.1208   20.8327 C   0  0  0  0  0  0
  -28.7132  -24.2291   19.8355 C   0  0  0  0  0  0
  -29.2237  -22.1119   17.3207 C   0  0  0  0  0  0
  -30.0892  -23.2487   17.8622 C   0  0  0  0  0  0
  -29.2508  -21.0584   18.4295 C   0  0  0  0  0  0
  -29.8429  -23.2390   19.3855 C   0  0  2  0  0  0
  -27.3199  -19.5561   21.6413 C   0  0  0  0  0  0
  -28.6854  -25.6451   19.1923 C   0  0  0  0  0  0
  -29.5883  -21.7891   19.6700 N   0  0  0  0  0  0
  -29.9894  -15.3750   21.2943 N   0  0  0  0  0  0
  -30.1451  -21.7946   21.9290 N   0  3  0  0  0  0
  -27.8796  -23.9202   20.6914 O   0  0  0  0  0  0
  -31.4741  -12.4166   19.1090 H   0  0  0  0  0  0
  -30.3487  -11.2821   19.7965 H   0  0  0  0  0  0
  -29.7310  -11.7883   17.4185 H   0  0  0  0  0  0
  -29.6746  -13.4989   17.7715 H   0  0  0  0  0  0
  -27.8096  -11.3246   18.7805 H   0  0  0  0  0  0
  -27.3751  -12.6862   17.7824 H   0  0  0  0  0  0
  -27.7235  -14.2526   19.6133 H   0  0  0  0  0  0
  -28.6848  -11.8871   21.2864 H   0  0  0  0  0  0
  -28.4691  -13.4879   21.9040 H   0  0  0  0  0  0
  -25.2794   -9.5643   22.4745 H   0  0  0  0  0  0
  -23.9965   -7.4649   22.7471 H   0  0  0  0  0  0
  -21.0810   -8.8822   19.8981 H   0  0  0  0  0  0
  -22.3725  -10.9689   19.6144 H   0  0  0  0  0  0
  -21.2069   -7.6155   23.9700 H   0  0  0  0  0  0
  -21.1405   -6.0518   25.9049 H   0  0  0  0  0  0
  -22.0636   -2.7592   23.2872 H   0  0  0  0  0  0
  -22.4140  -11.9978   22.4819 H   0  0  0  0  0  0
  -21.1130  -13.1320   22.2536 H   0  0  0  0  0  0
  -24.6544  -15.8316   20.4182 H   0  0  0  0  0  0
  -26.2506  -15.5822   19.9302 H   0  0  0  0  0  0
  -26.7110  -32.5489   23.1124 H   0  0  0  0  0  0
  -25.0100  -33.9717   25.0456 H   0  0  0  0  0  0
  -22.6944  -31.3058   21.4109 H   0  0  0  0  0  0
  -23.3715  -35.9620   23.3290 H   0  0  0  0  0  0
  -24.3562  -36.8900   22.2059 H   0  0  0  0  0  0
  -23.7207  -37.6474   23.6655 H   0  0  0  0  0  0
  -26.0501  -31.5822   20.5923 H   0  0  0  0  0  0
  -26.8173  -30.8697   21.9854 H   0  0  0  0  0  0
  -28.0904  -29.0855   21.1733 H   0  0  0  0  0  0
  -26.0268  -25.9387   19.0479 H   0  0  0  0  0  0
  -23.9755  -27.2701   19.0525 H   0  0  0  0  0  0
  -23.7189  -30.5948   19.4070 H   0  0  0  0  0  0
  -22.7281  -29.2445   19.8666 H   0  0  0  0  0  0
  -25.1227  -36.1929   25.0822 H   0  0  0  0  0  0
  -20.9969  -28.3238   24.1412 H   0  0  0  0  0  0
  -20.5603  -26.2281   23.3598 H   0  0  0  0  0  0
  -21.6638  -26.7377   22.1237 H   0  0  0  0  0  0
  -19.6884  -25.6285   21.1205 H   0  0  0  0  0  0
  -19.6654  -27.3200   20.6739 H   0  0  0  0  0  0
  -17.4168  -26.6684   21.4042 H   0  0  0  0  0  0
  -18.0327  -26.0052   22.8999 H   0  0  0  0  0  0
  -19.7945  -30.7268   24.2248 H   0  0  0  0  0  0
  -17.5025  -31.6233   24.5213 H   0  0  0  0  0  0
  -15.5362  -30.2990   23.7632 H   0  0  0  0  0  0
  -15.8702  -28.0826   22.7040 H   0  0  0  0  0  0
  -24.5856  -30.7203   25.7905 H   0  0  0  0  0  0
  -24.9113  -32.3010   26.4967 H   0  0  0  0  0  0
  -25.8165  -30.8938   27.0221 H   0  0  0  0  0  0
  -26.2770  -29.6760   24.1176 H   0  0  0  0  0  0
  -27.4014  -29.7217   25.4560 H   0  0  0  0  0  0
  -27.8630  -30.4232   23.9218 H   0  0  0  0  0  0
  -27.2640  -33.3608   26.1999 H   0  0  0  0  0  0
  -28.3877  -32.6861   25.0285 H   0  0  0  0  0  0
  -28.0674  -31.8444   26.5392 H   0  0  0  0  0  0
  -28.2585  -38.0070   24.7501 H   0  0  0  0  0  0
  -28.1058  -36.2607   24.6250 H   0  0  0  0  0  0
  -27.2319  -37.1389   25.8877 H   0  0  0  0  0  0
  -20.9297  -29.8749   21.6921 H   0  0  0  0  0  0
  -26.0137  -38.2828   24.1460 H   0  0  0  0  0  0
  -31.8719  -19.5115   20.3107 H   0  0  0  0  0  0
  -32.0325  -17.0847   20.5219 H   0  0  0  0  0  0
  -27.8971  -16.9050   21.7620 H   0  0  0  0  0  0
  -29.6242  -21.7229   16.3835 H   0  0  0  0  0  0
  -28.2003  -22.4418   17.1349 H   0  0  0  0  0  0
  -29.8485  -24.1836   17.3563 H   0  0  0  0  0  0
  -31.1463  -23.0544   17.6675 H   0  0  0  0  0  0
  -30.0185  -20.3123   18.2100 H   0  0  0  0  0  0
  -28.2949  -20.5383   18.5098 H   0  0  0  0  0  0
  -30.7654  -23.5438   19.8824 H   0  0  0  0  0  0
  -26.6052  -18.8514   22.0716 H   0  0  0  0  0  0
  -26.8712  -19.9682   20.7358 H   0  0  0  0  0  0
  -27.4382  -20.3686   22.3587 H   0  0  0  0  0  0
  -27.9979  -25.6536   18.3485 H   0  0  0  0  0  0
  -29.6700  -25.8472   18.7716 H   0  0  0  0  0  0
  -29.1763  -14.9809   21.7398 H   0  0  0  0  0  0
  -30.4059  -21.2749   22.7521 H   0  0  0  0  0  0
  -30.1040  -22.7985   21.9731 H   0  0  0  0  0  0
  1 25  1  0  0  0
  1 30  2  0  0  0
  1 86  1  0  0  0
  2  3  1  0  0  0
  2 25  1  0  0  0
  2 89  1  0  0  0
  2 90  1  0  0  0
  3  4  1  0  0  0
  3 91  1  0  0  0
  3 92  1  0  0  0
  4  5  1  0  0  0
  4 93  1  0  0  0
  4 94  1  0  0  0
  5  6  1  0  0  0
  5 26  1  0  0  0
  5 95  1  0  0  0
  6 25  1  0  0  0
  6 96  1  0  0  0
  6 97  1  0  0  0
  7  8  2  0  0  0
  7 26  1  0  0  0
  7 29  1  0  0  0
  8  9  1  0  0  0
  8 22  1  0  0  0
  9 10  1  0  0  0
  9 27  2  0  0  0
 10 11  2  0  0  0
 10 15  1  0  0  0
 11 12  1  0  0  0
 11 98  1  0  0  0
 12 13  2  0  0  0
 12 99  1  0  0  0
 13 14  1  0  0  0
 13 31  1  0  0  0
 14 15  2  0  0  0
 14100  1  0  0  0
 15101  1  0  0  0
 16 17  2  0  0  0
 16 21  1  0  0  0
 16 31  1  0  0  0
 17 18  1  0  0  0
 17102  1  0  0  0
 18 19  2  0  0  0
 18103  1  0  0  0
 19 20  1  0  0  0
 19 24  1  0  0  0
 20 21  2  0  0  0
 20104  1  0  0  0
 21 23  1  0  0  0
 22 28  1  0  0  0
 22 32  2  0  0  0
 26 27  1  0  0  0
 28105  1  0  0  0
 28106  1  0  0  0
 29107  1  0  0  0
 29108  1  0  0  0
 33 34  1  0  0  0
 33 66  1  0  0  0
 33 70  2  0  0  0
 34 36  1  0  0  0
 34 59  1  0  0  0
 34109  1  0  0  0
 35 44  2  0  0  0
 35 45  1  0  0  0
 35 68  1  0  0  0
 36 56  1  0  0  0
 36110  1  0  0  0
 37 39  1  0  0  0
 37 47  1  0  0  0
 37 66  1  0  0  0
 37111  1  0  0  0
 38 43  2  0  0  0
 38 46  1  0  0  0
 38 47  1  0  0  0
 39 64  1  0  0  0
 39 67  2  0  0  0
 40 52  1  0  0  0
 40 53  2  0  0  0
 40 58  1  0  0  0
 41112  1  0  0  0
 41113  1  0  0  0
 41114  1  0  0  0
 41 48  1  0  0  0
 42 43  1  0  0  0
 42 66  1  0  0  0
 42115  1  0  0  0
 42116  1  0  0  0
 43 44  1  0  0  0
 44117  1  0  0  0
 45 46  2  0  0  0
 45118  1  0  0  0
 46119  1  0  0  0
 47120  1  0  0  0
 47121  1  0  0  0
 48 56  1  0  0  0
 48 65  1  0  0  0
 48122  1  0  0  0
 49 50  1  0  0  0
 49 53  1  0  0  0
 49 64  1  0  0  0
 49123  1  0  0  0
 50 51  1  0  0  0
 50124  1  0  0  0
 50125  1  0  0  0
 51 52  1  0  0  0
 51126  1  0  0  0
 51127  1  0  0  0
 52128  1  0  0  0
 52129  1  0  0  0
 53 54  1  0  0  0
 54 55  2  0  0  0
 54130  1  0  0  0
 55 57  1  0  0  0
 55131  1  0  0  0
 56 69  2  0  0  0
 57 58  2  0  0  0
 57132  1  0  0  0
 58133  1  0  0  0
 59 60  1  0  0  0
 59 61  1  0  0  0
 59 62  1  0  0  0
 60134  1  0  0  0
 60135  1  0  0  0
 60136  1  0  0  0
 61137  1  0  0  0
 61138  1  0  0  0
 61139  1  0  0  0
 62140  1  0  0  0
 62141  1  0  0  0
 62142  1  0  0  0
 63 65  1  0  0  0
 63143  1  0  0  0
 63144  1  0  0  0
 63145  1  0  0  0
 64146  1  0  0  0
 65147  1  0  0  0
 68 84  1  0  0  0
 71 72  2  0  0  0
 71 74  1  0  0  0
 71148  1  0  0  0
 72 76  1  0  0  0
 72149  1  0  0  0
 73 75  1  0  0  0
 73 76  2  0  0  0
 73150  1  0  0  0
 74 75  2  0  0  0
 74 77  1  0  0  0
 75 83  1  0  0  0
 76 86  1  0  0  0
 77 85  1  0  0  0
 77 87  2  0  0  0
 78 84  1  0  0  0
 78 88  2  0  0  0
 78 82  1  0  0  0
 79 80  1  0  0  0
 79 81  1  0  0  0
 79151  1  0  0  0
 79152  1  0  0  0
 80 82  1  0  0  0
 80153  1  0  0  0
 80154  1  0  0  0
 81 85  1  0  0  0
 81155  1  0  0  0
 81156  1  0  0  0
 82 85  1  0  0  0
 82157  1  0  0  0
 83158  1  0  0  0
 83159  1  0  0  0
 83160  1  0  0  0
 84161  1  0  0  0
 84162  1  0  0  0
 86163  1  0  0  0
 87164  1  0  0  0
 87165  1  0  0  0
M  CHG  1  87   1
M  ISO  4   1 100  68 101  84 101  86 100
M  END
> <chiral flag>
0

> <version>
0

> <s_m_source_file>
/data/baiqing/PycharmProjects/Reinvent-master-3.2/result/LINK_invent/BTK/process_docking_weight1_custom_product_contain_oxygen_bond_distance_aromatic_linkinvent_7_9_3/rearranged_h_0142.sdf

> <i_m_source_file_index>
12

> <r_mmod_Potential_Energy-OPLS-2005>
-64.4002838134766

> <r_mmod_Stretch_Energy-OPLS-2005>
45.6256408691406

> <r_mmod_Bend_Energy-OPLS-2005>
140.677917480469

> <r_mmod_Torsional_Energy-OPLS-2005>
301.069458007812

> <r_mmod_Improper_Torsional_Energy-OPLS-2005>
5.42824459075928

> <r_mmod_Van_der_Waal_Energy-OPLS-2005>
149.660049438477

> <r_mmod_Electrostatic_Energy-OPLS-2005>
-321.705383300781

> <r_mmod_Solvation_Energy-OPLS-2005>
-397.840026855469

> <b_mmod_Minimization_Converged-OPLS-2005>
0

> <r_mmod_RMS_Derivative-OPLS-2005>
4.40932941436768

$$$$
12
                    3D
 Structure written by MMmdl.
161170  0  0  1  0            999 V2000
  -30.6467  -14.6141   20.4690 C   0  0  0  0  0  0
  -30.4351  -12.3544   19.4641 C   0  0  0  0  0  0
  -29.5175  -12.4518   18.2270 C   0  0  0  0  0  0
  -28.0321  -12.3509   18.6325 C   0  0  0  0  0  0
  -27.6556  -13.2133   19.8671 C   0  0  2  0  0  0
  -28.7011  -13.0791   20.9954 C   0  0  0  0  0  0
  -25.2586  -13.8152   20.5676 C   0  0  0  0  0  0
  -24.1848  -13.0436   20.9225 C   0  0  0  0  0  0
  -24.6417  -11.6907   20.8776 C   0  0  0  0  0  0
  -23.9068  -10.4304   21.0424 C   0  0  0  0  0  0
  -24.3621   -9.4214   21.9201 C   0  0  0  0  0  0
  -23.6308   -8.2230   22.0727 C   0  0  0  0  0  0
  -22.4278   -8.0293   21.3529 C   0  0  0  0  0  0
  -21.9942   -9.0268   20.4614 C   0  0  0  0  0  0
  -22.7259  -10.2157   20.3041 C   0  0  0  0  0  0
  -21.6829   -6.0763   22.5303 C   0  0  0  0  0  0
  -21.3996   -6.5640   23.8260 C   0  0  0  0  0  0
  -21.3655   -5.6779   24.9202 C   0  0  0  0  0  0
  -21.6045   -4.3033   24.7220 C   0  0  0  0  0  0
  -21.8822   -3.8154   23.4329 C   0  0  0  0  0  0
  -21.9186   -4.7001   22.3401 C   0  0  0  0  0  0
  -22.7866  -13.5247   21.1872 C   0  0  0  0  0  0
  -22.1653   -4.2206   21.0970 F   0  0  0  0  0  0
  -21.5650   -3.4505   25.7713 F   0  0  0  0  0  0
  -30.0202  -13.3969   20.4268 N   0  0  0  0  0  0
  -26.3013  -12.9325   20.3341 N   0  0  0  0  0  0
  -25.9344  -11.6486   20.5767 N   0  0  0  0  0  0
  -22.0412  -12.8253   22.0359 N   0  0  0  0  0  0
  -25.4285  -15.1875   20.4070 N   0  0  0  0  0  0
  -31.8103  -14.7544   20.0801 O   0  0  0  0  0  0
  -21.6610   -6.8908   21.4262 O   0  0  0  0  0  0
  -22.3597  -14.5595   20.6746 O   0  0  0  0  0  0
  -24.6213  -31.8622   23.2047 C   0  0  0  0  0  0
  -25.9072  -32.4790   23.8376 C   0  0  1  0  0  0
  -27.2295  -27.3785   20.1233 C   0  0  0  0  0  0
  -25.5907  -33.8591   24.2304 N   0  0  0  0  0  0
  -23.4142  -30.4856   21.5425 C   0  0  2  0  0  0
  -24.8690  -28.9564   20.0965 C   0  0  0  0  0  0
  -22.7456  -29.4636   22.4914 C   0  0  0  0  0  0
  -18.0284  -28.1387   22.8480 C   0  0  0  0  0  0
  -24.1492  -36.7303   23.2639 C   0  0  0  0  0  0
  -25.9486  -30.8154   21.3667 C   0  0  0  0  0  0
  -26.0309  -29.4502   20.7052 C   0  0  0  0  0  0
  -27.2195  -28.6701   20.7154 C   0  0  0  0  0  0
  -26.0594  -26.9250   19.4799 C   0  0  0  0  0  0
  -24.8841  -27.6997   19.4688 C   0  0  0  0  0  0
  -23.6279  -29.8226   20.1546 C   0  0  0  0  0  0
  -25.4107  -36.3090   24.0341 C   0  0  1  0  0  0
  -20.5881  -28.3684   23.1277 C   0  0  2  0  0  0
  -20.6778  -26.9408   22.5404 C   0  0  0  0  0  0
  -19.5755  -26.6388   21.5202 C   0  0  0  0  0  0
  -18.1935  -26.7934   22.1612 C   0  0  0  0  0  0
  -19.1535  -28.8858   23.2873 C   0  0  0  0  0  0
  -18.9466  -30.1459   23.8880 C   0  0  0  0  0  0
  -17.6466  -30.6593   24.0567 C   0  0  0  0  0  0
  -25.9039  -34.9450   23.5117 C   0  0  0  0  0  0
  -16.5351  -29.9088   23.6331 C   0  0  0  0  0  0
  -16.7275  -28.6509   23.0346 C   0  0  0  0  0  0
  -26.4481  -31.6581   25.0724 C   0  0  0  0  0  0
  -25.3737  -31.3715   26.1470 C   0  0  0  0  0  0
  -27.0317  -30.3013   24.6145 C   0  0  0  0  0  0
  -27.6057  -32.4298   25.7483 C   0  0  0  0  0  0
  -27.5586  -37.1800   24.8460 C   0  0  0  0  0  0
  -21.4173  -29.3045   22.3680 N   0  0  0  0  0  0
  -26.4288  -37.3779   23.9424 N   0  0  0  0  0  0
  -24.6788  -31.0697   22.0955 N   0  0  0  0  0  0
  -23.4209  -28.8170   23.2969 O   0  0  0  0  0  0
  -28.2654  -26.4659   20.2859 O   0  0  0  0  0  0
  -26.5600  -34.8906   22.4677 O   0  0  0  0  0  0
  -23.5394  -32.1389   23.7418 O   0  0  0  0  0  0
  -29.5977  -19.6540   19.0793 C   0  0  0  0  0  0
  -29.4970  -18.5092   18.2775 C   0  0  0  0  0  0
  -29.9480  -18.2166   21.0224 C   0  0  0  0  0  0
  -29.8419  -19.5359   20.4566 C   0  0  0  0  0  0
  -29.6487  -17.2174   18.8175 C   0  0  0  0  0  0
  -29.8691  -17.0299   20.2151 C   0  0  0  0  0  0
  -28.2851  -24.2021   21.4300 C   0  0  0  0  0  0
  -27.9514  -25.5176   21.2604 C   0  0  0  0  0  0
  -27.6478  -23.4071   22.5469 C   0  0  0  0  0  0
  -29.1993  -23.2277   20.6611 C   0  0  0  0  0  0
  -28.4130  -22.0866   22.6073 C   0  0  0  0  0  0
  -29.5517  -16.0725   17.8318 C   0  0  0  0  0  0
  -30.0860  -20.8497   21.2427 C   0  0  0  0  0  0
  -29.8804  -15.6945   20.8087 N   0  0  0  0  0  0
  -28.9586  -21.8557   21.2510 N   0  3  2  0  0  0
  -31.4807  -12.4511   19.1684 H   0  0  0  0  0  0
  -30.3501  -11.3677   19.9180 H   0  0  0  0  0  0
  -29.7581  -11.6563   17.5198 H   0  0  0  0  0  0
  -29.7142  -13.3766   17.6923 H   0  0  0  0  0  0
  -27.8398  -11.3005   18.8531 H   0  0  0  0  0  0
  -27.3924  -12.6107   17.7876 H   0  0  0  0  0  0
  -27.6612  -14.2509   19.5460 H   0  0  0  0  0  0
  -28.6972  -12.0663   21.3989 H   0  0  0  0  0  0
  -28.4570  -13.7369   21.8301 H   0  0  0  0  0  0
  -25.2752   -9.5715   22.4805 H   0  0  0  0  0  0
  -24.0039   -7.4600   22.7396 H   0  0  0  0  0  0
  -21.0888   -8.8797   19.8876 H   0  0  0  0  0  0
  -22.3727  -10.9720   19.6154 H   0  0  0  0  0  0
  -21.1955   -7.6144   23.9814 H   0  0  0  0  0  0
  -21.1464   -6.0445   25.9134 H   0  0  0  0  0  0
  -22.0598   -2.7624   23.2764 H   0  0  0  0  0  0
  -22.3974  -11.9932   22.4834 H   0  0  0  0  0  0
  -21.1048  -13.1356   22.2510 H   0  0  0  0  0  0
  -24.6582  -15.8373   20.5231 H   0  0  0  0  0  0
  -26.2749  -15.6336   20.0798 H   0  0  0  0  0  0
  -26.7148  -32.5493   23.1143 H   0  0  0  0  0  0
  -25.0085  -33.9742   25.0475 H   0  0  0  0  0  0
  -22.7056  -31.3040   21.4016 H   0  0  0  0  0  0
  -23.3747  -35.9643   23.3292 H   0  0  0  0  0  0
  -24.3600  -36.8928   22.2056 H   0  0  0  0  0  0
  -23.7242  -37.6507   23.6654 H   0  0  0  0  0  0
  -26.0735  -31.5847   20.6040 H   0  0  0  0  0  0
  -26.8305  -30.8639   21.9925 H   0  0  0  0  0  0
  -28.1018  -29.0301   21.2266 H   0  0  0  0  0  0
  -26.0458  -25.9387   19.0368 H   0  0  0  0  0  0
  -23.9941  -27.3149   18.9911 H   0  0  0  0  0  0
  -23.7325  -30.5990   19.3958 H   0  0  0  0  0  0
  -22.7536  -29.2408   19.8577 H   0  0  0  0  0  0
  -25.1281  -36.1949   25.0836 H   0  0  0  0  0  0
  -20.9982  -28.3271   24.1390 H   0  0  0  0  0  0
  -20.5673  -26.2300   23.3609 H   0  0  0  0  0  0
  -21.6646  -26.7446   22.1200 H   0  0  0  0  0  0
  -19.6915  -25.6292   21.1247 H   0  0  0  0  0  0
  -19.6694  -27.3189   20.6719 H   0  0  0  0  0  0
  -17.4204  -26.6675   21.4016 H   0  0  0  0  0  0
  -18.0330  -26.0082   22.9012 H   0  0  0  0  0  0
  -19.7947  -30.7279   24.2239 H   0  0  0  0  0  0
  -17.5023  -31.6269   24.5175 H   0  0  0  0  0  0
  -15.5353  -30.2985   23.7665 H   0  0  0  0  0  0
  -15.8674  -28.0829   22.7047 H   0  0  0  0  0  0
  -24.5885  -30.7094   25.7806 H   0  0  0  0  0  0
  -24.8959  -32.2883   26.4928 H   0  0  0  0  0  0
  -25.8077  -30.8865   27.0222 H   0  0  0  0  0  0
  -26.2878  -29.6768   24.1185 H   0  0  0  0  0  0
  -27.4050  -29.7260   25.4628 H   0  0  0  0  0  0
  -27.8731  -30.4318   23.9336 H   0  0  0  0  0  0
  -27.2686  -33.3591   26.2080 H   0  0  0  0  0  0
  -28.3851  -32.6864   25.0298 H   0  0  0  0  0  0
  -28.0740  -31.8407   26.5380 H   0  0  0  0  0  0
  -28.2583  -38.0118   24.7525 H   0  0  0  0  0  0
  -28.1096  -36.2641   24.6249 H   0  0  0  0  0  0
  -27.2314  -37.1420   25.8867 H   0  0  0  0  0  0
  -20.9346  -29.8768   21.6892 H   0  0  0  0  0  0
  -26.0172  -38.2863   24.1413 H   0  0  0  0  0  0
  -29.5178  -20.6300   18.6176 H   0  0  0  0  0  0
  -29.3060  -18.6347   17.2212 H   0  0  0  0  0  0
  -30.1174  -18.1167   22.0869 H   0  0  0  0  0  0
  -27.2621  -25.9457   21.9801 H   0  0  0  0  0  0
  -26.6045  -23.2190   22.2914 H   0  0  0  0  0  0
  -27.6643  -23.9393   23.4998 H   0  0  0  0  0  0
  -30.2334  -23.5400   20.8126 H   0  0  0  0  0  0
  -28.9962  -23.2442   19.5905 H   0  0  0  0  0  0
  -27.7841  -21.2596   22.9400 H   0  0  0  0  0  0
  -29.2283  -22.1889   23.3252 H   0  0  0  0  0  0
  -29.2065  -16.4089   16.8533 H   0  0  0  0  0  0
  -28.8442  -15.3282   18.1744 H   0  0  0  0  0  0
  -30.5311  -15.6183   17.6887 H   0  0  0  0  0  0
  -30.9829  -21.3156   20.8311 H   0  0  0  0  0  0
  -30.3604  -20.5785   22.2625 H   0  0  0  0  0  0
  -29.0341  -15.4523   21.2992 H   0  0  0  0  0  0
  -28.2069  -21.4455   20.7175 H   0  0  0  0  0  0
  1 25  1  0  0  0
  1 30  2  0  0  0
  1 84  1  0  0  0
  2  3  1  0  0  0
  2 25  1  0  0  0
  2 86  1  0  0  0
  2 87  1  0  0  0
  3  4  1  0  0  0
  3 88  1  0  0  0
  3 89  1  0  0  0
  4  5  1  0  0  0
  4 90  1  0  0  0
  4 91  1  0  0  0
  5  6  1  0  0  0
  5 26  1  0  0  0
  5 92  1  0  0  0
  6 25  1  0  0  0
  6 93  1  0  0  0
  6 94  1  0  0  0
  7  8  2  0  0  0
  7 26  1  0  0  0
  7 29  1  0  0  0
  8  9  1  0  0  0
  8 22  1  0  0  0
  9 10  1  0  0  0
  9 27  2  0  0  0
 10 11  2  0  0  0
 10 15  1  0  0  0
 11 12  1  0  0  0
 11 95  1  0  0  0
 12 13  2  0  0  0
 12 96  1  0  0  0
 13 14  1  0  0  0
 13 31  1  0  0  0
 14 15  2  0  0  0
 14 97  1  0  0  0
 15 98  1  0  0  0
 16 17  2  0  0  0
 16 21  1  0  0  0
 16 31  1  0  0  0
 17 18  1  0  0  0
 17 99  1  0  0  0
 18 19  2  0  0  0
 18100  1  0  0  0
 19 20  1  0  0  0
 19 24  1  0  0  0
 20 21  2  0  0  0
 20101  1  0  0  0
 21 23  1  0  0  0
 22 28  1  0  0  0
 22 32  2  0  0  0
 26 27  1  0  0  0
 28102  1  0  0  0
 28103  1  0  0  0
 29104  1  0  0  0
 29105  1  0  0  0
 33 34  1  0  0  0
 33 66  1  0  0  0
 33 70  2  0  0  0
 34 36  1  0  0  0
 34 59  1  0  0  0
 34106  1  0  0  0
 35 44  2  0  0  0
 35 45  1  0  0  0
 35 68  1  0  0  0
 36 56  1  0  0  0
 36107  1  0  0  0
 37 39  1  0  0  0
 37 47  1  0  0  0
 37 66  1  0  0  0
 37108  1  0  0  0
 38 43  2  0  0  0
 38 46  1  0  0  0
 38 47  1  0  0  0
 39 64  1  0  0  0
 39 67  2  0  0  0
 40 52  1  0  0  0
 40 53  2  0  0  0
 40 58  1  0  0  0
 41109  1  0  0  0
 41110  1  0  0  0
 41111  1  0  0  0
 41 48  1  0  0  0
 42 43  1  0  0  0
 42 66  1  0  0  0
 42112  1  0  0  0
 42113  1  0  0  0
 43 44  1  0  0  0
 44114  1  0  0  0
 45 46  2  0  0  0
 45115  1  0  0  0
 46116  1  0  0  0
 47117  1  0  0  0
 47118  1  0  0  0
 48 56  1  0  0  0
 48 65  1  0  0  0
 48119  1  0  0  0
 49 50  1  0  0  0
 49 53  1  0  0  0
 49 64  1  0  0  0
 49120  1  0  0  0
 50 51  1  0  0  0
 50121  1  0  0  0
 50122  1  0  0  0
 51 52  1  0  0  0
 51123  1  0  0  0
 51124  1  0  0  0
 52125  1  0  0  0
 52126  1  0  0  0
 53 54  1  0  0  0
 54 55  2  0  0  0
 54127  1  0  0  0
 55 57  1  0  0  0
 55128  1  0  0  0
 56 69  2  0  0  0
 57 58  2  0  0  0
 57129  1  0  0  0
 58130  1  0  0  0
 59 60  1  0  0  0
 59 61  1  0  0  0
 59 62  1  0  0  0
 60131  1  0  0  0
 60132  1  0  0  0
 60133  1  0  0  0
 61134  1  0  0  0
 61135  1  0  0  0
 61136  1  0  0  0
 62137  1  0  0  0
 62138  1  0  0  0
 62139  1  0  0  0
 63 65  1  0  0  0
 63140  1  0  0  0
 63141  1  0  0  0
 63142  1  0  0  0
 64143  1  0  0  0
 65144  1  0  0  0
 68 78  1  0  0  0
 71 72  2  0  0  0
 71 74  1  0  0  0
 71145  1  0  0  0
 72 75  1  0  0  0
 72146  1  0  0  0
 73 74  2  0  0  0
 73 76  1  0  0  0
 73147  1  0  0  0
 74 83  1  0  0  0
 75 76  2  0  0  0
 75 82  1  0  0  0
 76 84  1  0  0  0
 77 78  2  0  0  0
 77 79  1  0  0  0
 77 80  1  0  0  0
 78148  1  0  0  0
 79 81  1  0  0  0
 79149  1  0  0  0
 79150  1  0  0  0
 80 85  1  0  0  0
 80151  1  0  0  0
 80152  1  0  0  0
 81 85  1  0  0  0
 81153  1  0  0  0
 81154  1  0  0  0
 82155  1  0  0  0
 82156  1  0  0  0
 82157  1  0  0  0
 83158  1  0  0  0
 83159  1  0  0  0
 83 85  1  0  0  0
 84160  1  0  0  0
 85161  1  0  0  0
M  CHG  1  85   1
M  ISO  4   1 100  68 101  78 101  84 100
M  END
> <chiral flag>
0

> <version>
0

> <s_m_source_file>
/data/baiqing/PycharmProjects/Reinvent-master-3.2/result/LINK_invent/BTK/process_docking_weight1_custom_product_contain_oxygen_bond_distance_aromatic_linkinvent_7_9_3/rearranged_h_0142.sdf

> <i_m_source_file_index>
13

> <r_mmod_Potential_Energy-OPLS-2005>
-26.5257225036621

> <r_mmod_Stretch_Energy-OPLS-2005>
61.3405647277832

> <r_mmod_Bend_Energy-OPLS-2005>
158.63200378418

> <r_mmod_Torsional_Energy-OPLS-2005>
299.988922119141

> <r_mmod_Improper_Torsional_Energy-OPLS-2005>
6.20941591262817

> <r_mmod_Van_der_Waal_Energy-OPLS-2005>
141.245895385742

> <r_mmod_Electrostatic_Energy-OPLS-2005>
-304.704650878906

> <r_mmod_Solvation_Energy-OPLS-2005>
-436.900604248047

> <b_mmod_Minimization_Converged-OPLS-2005>
0

> <r_mmod_RMS_Derivative-OPLS-2005>
3.27221298217773

$$$$
13
                    3D
 Structure written by MMmdl.
161169  0  0  1  0            999 V2000
  -30.7651  -14.3696   20.7426 C   0  0  0  0  0  0
  -30.4112  -12.3314   19.3811 C   0  0  0  0  0  0
  -29.4631  -12.5317   18.1827 C   0  0  0  0  0  0
  -27.9950  -12.3648   18.6156 C   0  0  0  0  0  0
  -27.6512  -13.2052   19.8730 C   0  0  2  0  0  0
  -28.6877  -12.9528   20.9846 C   0  0  0  0  0  0
  -25.2535  -13.8154   20.5730 C   0  0  0  0  0  0
  -24.1791  -13.0420   20.9227 C   0  0  0  0  0  0
  -24.6342  -11.6902   20.8793 C   0  0  0  0  0  0
  -23.9064  -10.4263   21.0445 C   0  0  0  0  0  0
  -24.3620   -9.4166   21.9199 C   0  0  0  0  0  0
  -23.6284   -8.2203   22.0758 C   0  0  0  0  0  0
  -22.4274   -8.0257   21.3534 C   0  0  0  0  0  0
  -21.9926   -9.0246   20.4659 C   0  0  0  0  0  0
  -22.7267  -10.2112   20.3071 C   0  0  0  0  0  0
  -21.6836   -6.0730   22.5278 C   0  0  0  0  0  0
  -21.4004   -6.5642   23.8209 C   0  0  0  0  0  0
  -21.3653   -5.6796   24.9176 C   0  0  0  0  0  0
  -21.6045   -4.3056   24.7218 C   0  0  0  0  0  0
  -21.8825   -3.8155   23.4338 C   0  0  0  0  0  0
  -21.9184   -4.6968   22.3402 C   0  0  0  0  0  0
  -22.7820  -13.5238   21.1873 C   0  0  0  0  0  0
  -22.1656   -4.2159   21.0971 F   0  0  0  0  0  0
  -21.5624   -3.4544   25.7726 F   0  0  0  0  0  0
  -30.0250  -13.2661   20.4514 N   0  0  0  0  0  0
  -26.2953  -12.9330   20.3388 N   0  0  0  0  0  0
  -25.9256  -11.6491   20.5769 N   0  0  0  0  0  0
  -22.0438  -12.8233   22.0434 N   0  0  0  0  0  0
  -25.4199  -15.1864   20.4091 N   0  0  0  0  0  0
  -31.7736  -14.6914   20.1023 O   0  0  0  0  0  0
  -21.6622   -6.8872   21.4233 O   0  0  0  0  0  0
  -22.3525  -14.5538   20.6722 O   0  0  0  0  0  0
  -24.6143  -31.8756   23.2123 C   0  0  0  0  0  0
  -25.9061  -32.4848   23.8411 C   0  0  1  0  0  0
  -27.2262  -27.4600   20.0587 C   0  0  0  0  0  0
  -25.5965  -33.8644   24.2387 N   0  0  0  0  0  0
  -23.3977  -30.5079   21.5499 C   0  0  2  0  0  0
  -24.8404  -28.9763   20.1177 C   0  0  0  0  0  0
  -22.7371  -29.4738   22.4915 C   0  0  0  0  0  0
  -18.0261  -28.1287   22.8490 C   0  0  0  0  0  0
  -24.1514  -36.7303   23.2635 C   0  0  0  0  0  0
  -25.9303  -30.8417   21.3701 C   0  0  0  0  0  0
  -26.0036  -29.4814   20.7091 C   0  0  0  0  0  0
  -27.1976  -28.7287   20.6784 C   0  0  0  0  0  0
  -26.0411  -26.9700   19.4594 C   0  0  0  0  0  0
  -24.8503  -27.7146   19.5039 C   0  0  0  0  0  0
  -23.6096  -29.8517   20.1620 C   0  0  0  0  0  0
  -25.4122  -36.3105   24.0357 C   0  0  1  0  0  0
  -20.5866  -28.3556   23.1176 C   0  0  2  0  0  0
  -20.6721  -26.9241   22.5275 C   0  0  0  0  0  0
  -19.5572  -26.6094   21.5266 C   0  0  0  0  0  0
  -18.1821  -26.7761   22.1780 C   0  0  0  0  0  0
  -19.1523  -28.8739   23.2847 C   0  0  0  0  0  0
  -18.9476  -30.1321   23.8919 C   0  0  0  0  0  0
  -17.6478  -30.6472   24.0610 C   0  0  0  0  0  0
  -25.9048  -34.9473   23.5151 C   0  0  0  0  0  0
  -16.5346  -29.9013   23.6341 C   0  0  0  0  0  0
  -16.7253  -28.6440   23.0359 C   0  0  0  0  0  0
  -26.4507  -31.6585   25.0712 C   0  0  0  0  0  0
  -25.3763  -31.3677   26.1439 C   0  0  0  0  0  0
  -27.0357  -30.3032   24.6090 C   0  0  0  0  0  0
  -27.6102  -32.4276   25.7478 C   0  0  0  0  0  0
  -27.5602  -37.1801   24.8477 C   0  0  0  0  0  0
  -21.4115  -29.2988   22.3579 N   0  0  0  0  0  0
  -26.4321  -37.3780   23.9413 N   0  0  0  0  0  0
  -24.6655  -31.0867   22.1031 N   0  0  0  0  0  0
  -23.4155  -28.8284   23.2959 O   0  0  0  0  0  0
  -28.4182  -26.7703   20.0454 O   0  0  0  0  0  0
  -26.5554  -34.8930   22.4671 O   0  0  0  0  0  0
  -23.5349  -32.1526   23.7507 O   0  0  0  0  0  0
  -27.5032  -17.9747   22.6421 C   0  0  0  0  0  0
  -28.9766  -16.1892   23.4098 C   0  0  0  0  0  0
  -28.8988  -16.7710   21.0384 C   0  0  0  0  0  0
  -28.0128  -17.1812   23.6888 C   0  0  0  0  0  0
  -27.9462  -17.7811   21.3185 C   0  0  0  0  0  0
  -29.4231  -15.9709   22.0867 C   0  0  0  0  0  0
  -29.2416  -24.6463   20.8207 C   0  0  0  0  0  0
  -27.7879  -21.0132   20.7681 C   0  0  0  0  0  0
  -27.5226  -17.4049   25.1077 C   0  0  0  0  0  0
  -27.3957  -18.6810   20.2204 C   0  0  0  0  0  0
  -28.6672  -23.3675   21.4312 C   0  0  0  0  0  0
  -28.3961  -25.3673   19.7720 C   0  0  0  0  0  0
  -28.6815  -22.2040   20.4134 C   0  0  0  0  0  0
  -30.4511  -15.0039   21.8848 N   0  0  0  0  0  0
  -30.3522  -25.0740   21.1560 O   0  0  0  0  0  0
  -26.8560  -21.1103   21.5687 O   0  0  0  0  0  0
  -28.1283  -19.8975   20.0820 O   0  0  0  0  0  0
  -31.4455  -12.4709   19.0686 H   0  0  0  0  0  0
  -30.3513  -11.3043   19.7455 H   0  0  0  0  0  0
  -29.6951  -11.8234   17.3877 H   0  0  0  0  0  0
  -29.6108  -13.5261   17.7598 H   0  0  0  0  0  0
  -27.8233  -11.3074   18.8236 H   0  0  0  0  0  0
  -27.3267  -12.6305   17.7949 H   0  0  0  0  0  0
  -27.7039  -14.2544   19.5894 H   0  0  0  0  0  0
  -28.6580  -11.9065   21.2891 H   0  0  0  0  0  0
  -28.4261  -13.5118   21.8798 H   0  0  0  0  0  0
  -25.2739   -9.5635   22.4800 H   0  0  0  0  0  0
  -23.9967   -7.4597   22.7494 H   0  0  0  0  0  0
  -21.0852   -8.8820   19.8974 H   0  0  0  0  0  0
  -22.3753  -10.9672   19.6198 H   0  0  0  0  0  0
  -21.2010   -7.6152   23.9723 H   0  0  0  0  0  0
  -21.1456   -6.0516   25.9074 H   0  0  0  0  0  0
  -22.0609   -2.7620   23.2836 H   0  0  0  0  0  0
  -22.4067  -11.9928   22.4870 H   0  0  0  0  0  0
  -21.1025  -13.1226   22.2555 H   0  0  0  0  0  0
  -24.6578  -15.8372   20.5608 H   0  0  0  0  0  0
  -26.2773  -15.6371   20.1171 H   0  0  0  0  0  0
  -26.7113  -32.5570   23.1158 H   0  0  0  0  0  0
  -25.0231  -33.9825   25.0617 H   0  0  0  0  0  0
  -22.6903  -31.3291   21.4167 H   0  0  0  0  0  0
  -23.3785  -35.9632   23.3294 H   0  0  0  0  0  0
  -24.3638  -36.8900   22.2054 H   0  0  0  0  0  0
  -23.7268  -37.6518   23.6628 H   0  0  0  0  0  0
  -26.0546  -31.6162   20.6101 H   0  0  0  0  0  0
  -26.8147  -30.8795   21.9960 H   0  0  0  0  0  0
  -28.1023  -29.1189   21.1234 H   0  0  0  0  0  0
  -26.0053  -26.0322   18.9247 H   0  0  0  0  0  0
  -23.9531  -27.3180   19.0486 H   0  0  0  0  0  0
  -23.7343  -30.6356   19.4133 H   0  0  0  0  0  0
  -22.7275  -29.2938   19.8462 H   0  0  0  0  0  0
  -25.1287  -36.1979   25.0859 H   0  0  0  0  0  0
  -21.0060  -28.3083   24.1226 H   0  0  0  0  0  0
  -20.5739  -26.2114   23.3494 H   0  0  0  0  0  0
  -21.6491  -26.7216   22.0874 H   0  0  0  0  0  0
  -19.6575  -25.5873   21.1549 H   0  0  0  0  0  0
  -19.6404  -27.2701   20.6641 H   0  0  0  0  0  0
  -17.4016  -26.6360   21.4277 H   0  0  0  0  0  0
  -18.0263  -26.0053   22.9370 H   0  0  0  0  0  0
  -19.7996  -30.7064   24.2287 H   0  0  0  0  0  0
  -17.5064  -31.6130   24.5267 H   0  0  0  0  0  0
  -15.5324  -30.2919   23.7678 H   0  0  0  0  0  0
  -15.8674  -28.0718   22.7081 H   0  0  0  0  0  0
  -24.5930  -30.7058   25.7719 H   0  0  0  0  0  0
  -24.8975  -32.2844   26.4899 H   0  0  0  0  0  0
  -25.8101  -30.8799   27.0173 H   0  0  0  0  0  0
  -26.2901  -29.6733   24.1222 H   0  0  0  0  0  0
  -27.4222  -29.7328   25.4537 H   0  0  0  0  0  0
  -27.8701  -30.4357   23.9195 H   0  0  0  0  0  0
  -27.2753  -33.3554   26.2131 H   0  0  0  0  0  0
  -28.3898  -32.6855   25.0290 H   0  0  0  0  0  0
  -28.0798  -31.8338   26.5335 H   0  0  0  0  0  0
  -28.2594  -38.0108   24.7497 H   0  0  0  0  0  0
  -28.1110  -36.2629   24.6322 H   0  0  0  0  0  0
  -27.2311  -37.1481   25.8876 H   0  0  0  0  0  0
  -20.9233  -29.8622   21.6735 H   0  0  0  0  0  0
  -26.0211  -38.2874   24.1372 H   0  0  0  0  0  0
  -26.7728  -18.7430   22.8527 H   0  0  0  0  0  0
  -29.3685  -15.5919   24.2230 H   0  0  0  0  0  0
  -29.2523  -16.6403   20.0260 H   0  0  0  0  0  0
  -26.5112  -17.0184   25.2263 H   0  0  0  0  0  0
  -27.5110  -18.4672   25.3581 H   0  0  0  0  0  0
  -28.1588  -16.9009   25.8362 H   0  0  0  0  0  0
  -26.3355  -18.8797   20.4033 H   0  0  0  0  0  0
  -27.4351  -18.1490   19.2694 H   0  0  0  0  0  0
  -27.6576  -23.5928   21.7806 H   0  0  0  0  0  0
  -29.2485  -23.1065   22.3161 H   0  0  0  0  0  0
  -27.4084  -24.9158   19.8002 H   0  0  0  0  0  0
  -28.8181  -25.1907   18.7799 H   0  0  0  0  0  0
  -29.7039  -21.8480   20.2797 H   0  0  0  0  0  0
  -28.3458  -22.5608   19.4418 H   0  0  0  0  0  0
  -31.2538  -15.1760   22.4719 H   0  0  0  0  0  0
  1 25  1  0  0  0
  1 30  2  0  0  0
  1 84  1  0  0  0
  2  3  1  0  0  0
  2 25  1  0  0  0
  2 88  1  0  0  0
  2 89  1  0  0  0
  3  4  1  0  0  0
  3 90  1  0  0  0
  3 91  1  0  0  0
  4  5  1  0  0  0
  4 92  1  0  0  0
  4 93  1  0  0  0
  5  6  1  0  0  0
  5 26  1  0  0  0
  5 94  1  0  0  0
  6 25  1  0  0  0
  6 95  1  0  0  0
  6 96  1  0  0  0
  7  8  2  0  0  0
  7 26  1  0  0  0
  7 29  1  0  0  0
  8  9  1  0  0  0
  8 22  1  0  0  0
  9 10  1  0  0  0
  9 27  2  0  0  0
 10 11  2  0  0  0
 10 15  1  0  0  0
 11 12  1  0  0  0
 11 97  1  0  0  0
 12 13  2  0  0  0
 12 98  1  0  0  0
 13 14  1  0  0  0
 13 31  1  0  0  0
 14 15  2  0  0  0
 14 99  1  0  0  0
 15100  1  0  0  0
 16 17  2  0  0  0
 16 21  1  0  0  0
 16 31  1  0  0  0
 17 18  1  0  0  0
 17101  1  0  0  0
 18 19  2  0  0  0
 18102  1  0  0  0
 19 20  1  0  0  0
 19 24  1  0  0  0
 20 21  2  0  0  0
 20103  1  0  0  0
 21 23  1  0  0  0
 22 28  1  0  0  0
 22 32  2  0  0  0
 26 27  1  0  0  0
 28104  1  0  0  0
 28105  1  0  0  0
 29106  1  0  0  0
 29107  1  0  0  0
 33 34  1  0  0  0
 33 66  1  0  0  0
 33 70  2  0  0  0
 34 36  1  0  0  0
 34 59  1  0  0  0
 34108  1  0  0  0
 35 44  2  0  0  0
 35 45  1  0  0  0
 35 68  1  0  0  0
 36 56  1  0  0  0
 36109  1  0  0  0
 37 39  1  0  0  0
 37 47  1  0  0  0
 37 66  1  0  0  0
 37110  1  0  0  0
 38 43  2  0  0  0
 38 46  1  0  0  0
 38 47  1  0  0  0
 39 64  1  0  0  0
 39 67  2  0  0  0
 40 52  1  0  0  0
 40 53  2  0  0  0
 40 58  1  0  0  0
 41111  1  0  0  0
 41112  1  0  0  0
 41113  1  0  0  0
 41 48  1  0  0  0
 42 43  1  0  0  0
 42 66  1  0  0  0
 42114  1  0  0  0
 42115  1  0  0  0
 43 44  1  0  0  0
 44116  1  0  0  0
 45 46  2  0  0  0
 45117  1  0  0  0
 46118  1  0  0  0
 47119  1  0  0  0
 47120  1  0  0  0
 48 56  1  0  0  0
 48 65  1  0  0  0
 48121  1  0  0  0
 49 50  1  0  0  0
 49 53  1  0  0  0
 49 64  1  0  0  0
 49122  1  0  0  0
 50 51  1  0  0  0
 50123  1  0  0  0
 50124  1  0  0  0
 51 52  1  0  0  0
 51125  1  0  0  0
 51126  1  0  0  0
 52127  1  0  0  0
 52128  1  0  0  0
 53 54  1  0  0  0
 54 55  2  0  0  0
 54129  1  0  0  0
 55 57  1  0  0  0
 55130  1  0  0  0
 56 69  2  0  0  0
 57 58  2  0  0  0
 57131  1  0  0  0
 58132  1  0  0  0
 59 60  1  0  0  0
 59 61  1  0  0  0
 59 62  1  0  0  0
 60133  1  0  0  0
 60134  1  0  0  0
 60135  1  0  0  0
 61136  1  0  0  0
 61137  1  0  0  0
 61138  1  0  0  0
 62139  1  0  0  0
 62140  1  0  0  0
 62141  1  0  0  0
 63 65  1  0  0  0
 63142  1  0  0  0
 63143  1  0  0  0
 63144  1  0  0  0
 64145  1  0  0  0
 65146  1  0  0  0
 68 82  1  0  0  0
 71 74  2  0  0  0
 71 75  1  0  0  0
 71147  1  0  0  0
 72 74  1  0  0  0
 72 76  2  0  0  0
 72148  1  0  0  0
 73 75  2  0  0  0
 73 76  1  0  0  0
 73149  1  0  0  0
 74 79  1  0  0  0
 75 80  1  0  0  0
 76 84  1  0  0  0
 77 81  1  0  0  0
 77 82  1  0  0  0
 77 85  2  0  0  0
 78 83  1  0  0  0
 78 86  2  0  0  0
 78 87  1  0  0  0
 79150  1  0  0  0
 79151  1  0  0  0
 79152  1  0  0  0
 80 87  1  0  0  0
 80153  1  0  0  0
 80154  1  0  0  0
 81 83  1  0  0  0
 81155  1  0  0  0
 81156  1  0  0  0
 82157  1  0  0  0
 82158  1  0  0  0
 83159  1  0  0  0
 83160  1  0  0  0
 84161  1  0  0  0
M  ISO  4   1 100  68 101  82 101  84 100
M  END
> <chiral flag>
0

> <version>
0

> <s_m_source_file>
/data/baiqing/PycharmProjects/Reinvent-master-3.2/result/LINK_invent/BTK/process_docking_weight1_custom_product_contain_oxygen_bond_distance_aromatic_linkinvent_7_9_3/rearranged_h_0142.sdf

> <i_m_source_file_index>
14

> <r_mmod_Potential_Energy-OPLS-2005>
-89.1421356201172

> <r_mmod_Stretch_Energy-OPLS-2005>
34.573055267334

> <r_mmod_Bend_Energy-OPLS-2005>
101.249473571777

> <r_mmod_Torsional_Energy-OPLS-2005>
267.622253417969

> <r_mmod_Improper_Torsional_Energy-OPLS-2005>
6.08499431610107

> <r_mmod_Van_der_Waal_Energy-OPLS-2005>
145.649032592773

> <r_mmod_Electrostatic_Energy-OPLS-2005>
-429.581176757812

> <r_mmod_Solvation_Energy-OPLS-2005>
-225.040512084961

> <b_mmod_Minimization_Converged-OPLS-2005>
0

> <r_mmod_RMS_Derivative-OPLS-2005>
5.16691017150879

$$$$
14
                    3D
 Structure written by MMmdl.
166175  0  0  1  0            999 V2000
  -30.6380  -14.6463   20.5346 C   0  0  0  0  0  0
  -30.4348  -12.4002   19.4679 C   0  0  0  0  0  0
  -29.5160  -12.5223   18.2318 C   0  0  0  0  0  0
  -28.0342  -12.3698   18.6283 C   0  0  0  0  0  0
  -27.6579  -13.2224   19.8694 C   0  0  2  0  0  0
  -28.6981  -13.0793   21.0055 C   0  0  0  0  0  0
  -25.2583  -13.8174   20.5665 C   0  0  0  0  0  0
  -24.1863  -13.0430   20.9131 C   0  0  0  0  0  0
  -24.6441  -11.6906   20.8734 C   0  0  0  0  0  0
  -23.9096  -10.4303   21.0424 C   0  0  0  0  0  0
  -24.3647   -9.4204   21.9187 C   0  0  0  0  0  0
  -23.6318   -8.2253   22.0750 C   0  0  0  0  0  0
  -22.4300   -8.0287   21.3539 C   0  0  0  0  0  0
  -21.9936   -9.0264   20.4644 C   0  0  0  0  0  0
  -22.7276  -10.2144   20.3063 C   0  0  0  0  0  0
  -21.6862   -6.0747   22.5278 C   0  0  0  0  0  0
  -21.4020   -6.5647   23.8212 C   0  0  0  0  0  0
  -21.3651   -5.6800   24.9163 C   0  0  0  0  0  0
  -21.6055   -4.3064   24.7221 C   0  0  0  0  0  0
  -21.8811   -3.8159   23.4339 C   0  0  0  0  0  0
  -21.9193   -4.6978   22.3397 C   0  0  0  0  0  0
  -22.7883  -13.5202   21.1815 C   0  0  0  0  0  0
  -22.1673   -4.2161   21.0977 F   0  0  0  0  0  0
  -21.5619   -3.4545   25.7735 F   0  0  0  0  0  0
  -30.0150  -13.4253   20.4492 N   0  0  0  0  0  0
  -26.3031  -12.9371   20.3318 N   0  0  0  0  0  0
  -25.9370  -11.6519   20.5736 N   0  0  0  0  0  0
  -22.0542  -12.8230   22.0372 N   0  0  0  0  0  0
  -25.4279  -15.1906   20.4150 N   0  0  0  0  0  0
  -31.7891  -14.7908   20.1109 O   0  0  0  0  0  0
  -21.6646   -6.8900   21.4244 O   0  0  0  0  0  0
  -22.3599  -14.5532   20.6660 O   0  0  0  0  0  0
  -24.6315  -31.8611   23.2079 C   0  0  0  0  0  0
  -25.9166  -32.4786   23.8413 C   0  0  1  0  0  0
  -27.2063  -27.2919   20.1132 C   0  0  0  0  0  0
  -25.5964  -33.8585   24.2327 N   0  0  0  0  0  0
  -23.4264  -30.4945   21.5503 C   0  0  2  0  0  0
  -24.8681  -28.9681   20.1134 C   0  0  0  0  0  0
  -22.7491  -29.4666   22.4911 C   0  0  0  0  0  0
  -18.0303  -28.1404   22.8480 C   0  0  0  0  0  0
  -24.1499  -36.7266   23.2635 C   0  0  0  0  0  0
  -25.9784  -30.7868   21.3917 C   0  0  0  0  0  0
  -26.0480  -29.4217   20.7137 C   0  0  0  0  0  0
  -27.2223  -28.6014   20.7003 C   0  0  0  0  0  0
  -25.9799  -26.9109   19.5011 C   0  0  0  0  0  0
  -24.8373  -27.7172   19.5008 C   0  0  0  0  0  0
  -23.6427  -29.8495   20.1637 C   0  0  0  0  0  0
  -25.4122  -36.3074   24.0329 C   0  0  1  0  0  0
  -20.5902  -28.3700   23.1260 C   0  0  2  0  0  0
  -20.6775  -26.9417   22.5388 C   0  0  0  0  0  0
  -19.5752  -26.6385   21.5189 C   0  0  0  0  0  0
  -18.1933  -26.7944   22.1605 C   0  0  0  0  0  0
  -19.1559  -28.8857   23.2866 C   0  0  0  0  0  0
  -18.9472  -30.1452   23.8897 C   0  0  0  0  0  0
  -17.6477  -30.6599   24.0565 C   0  0  0  0  0  0
  -25.9054  -34.9440   23.5112 C   0  0  0  0  0  0
  -16.5368  -29.9102   23.6354 C   0  0  0  0  0  0
  -16.7286  -28.6513   23.0380 C   0  0  0  0  0  0
  -26.4514  -31.6613   25.0814 C   0  0  0  0  0  0
  -25.3720  -31.3771   26.1525 C   0  0  0  0  0  0
  -27.0341  -30.3006   24.6349 C   0  0  0  0  0  0
  -27.6089  -32.4333   25.7595 C   0  0  0  0  0  0
  -27.5579  -37.1796   24.8462 C   0  0  0  0  0  0
  -21.4197  -29.3058   22.3639 N   0  0  0  0  0  0
  -26.4293  -37.3770   23.9403 N   0  0  0  0  0  0
  -24.6967  -31.0637   22.1024 N   0  0  0  0  0  0
  -23.4192  -28.8173   23.2988 O   0  0  0  0  0  0
  -28.2931  -26.3810   20.1664 O   0  0  0  0  0  0
  -26.5583  -34.8889   22.4669 O   0  0  0  0  0  0
  -23.5476  -32.1451   23.7386 O   0  0  0  0  0  0
  -29.3751  -19.4857   21.5156 C   0  0  0  0  0  0
  -29.2791  -18.0636   21.6490 C   0  0  0  0  0  0
  -30.8967  -17.7876   19.9170 C   0  0  0  0  0  0
  -30.2457  -20.1294   20.5898 C   0  0  0  0  0  0
  -31.0306  -19.2086   19.7998 C   0  0  0  0  0  0
  -30.0415  -17.1633   20.8561 C   0  0  0  0  0  0
  -30.7993  -22.3754   19.2300 C   0  0  0  0  0  0
  -30.1188  -23.7572   19.1093 C   0  0  0  0  0  0
  -29.1693  -22.6567   20.9976 C   0  0  0  0  0  0
  -30.4147  -21.7291   20.5987 C   0  0  2  0  0  0
  -28.7710  -23.5895   19.7921 C   0  0  2  0  0  0
  -32.0988  -19.6562   18.8153 C   0  0  0  0  0  0
  -31.5521  -22.0188   21.6053 C   0  0  0  0  0  0
  -27.8478  -22.6998   18.9068 C   0  0  0  0  0  0
  -27.9229  -24.9487   19.9753 C   0  0  0  0  0  0
  -29.8867  -15.7054   20.9945 N   0  0  0  0  0  0
  -31.4810  -12.5105   19.1760 H   0  0  0  0  0  0
  -30.3512  -11.4022   19.9014 H   0  0  0  0  0  0
  -29.7815  -11.7698   17.4868 H   0  0  0  0  0  0
  -29.6754  -13.4893   17.7545 H   0  0  0  0  0  0
  -27.8603  -11.3149   18.8380 H   0  0  0  0  0  0
  -27.3905  -12.6285   17.7876 H   0  0  0  0  0  0
  -27.6807  -14.2615   19.5429 H   0  0  0  0  0  0
  -28.7071  -12.0578   21.3954 H   0  0  0  0  0  0
  -28.4403  -13.7216   21.8496 H   0  0  0  0  0  0
  -25.2805   -9.5684   22.4734 H   0  0  0  0  0  0
  -24.0016   -7.4669   22.7495 H   0  0  0  0  0  0
  -21.0837   -8.8786   19.8995 H   0  0  0  0  0  0
  -22.3716  -10.9669   19.6170 H   0  0  0  0  0  0
  -21.2020   -7.6161   23.9711 H   0  0  0  0  0  0
  -21.1480   -6.0534   25.9064 H   0  0  0  0  0  0
  -22.0601   -2.7619   23.2828 H   0  0  0  0  0  0
  -22.4166  -11.9899   22.4772 H   0  0  0  0  0  0
  -21.1154  -13.1273   22.2569 H   0  0  0  0  0  0
  -24.6562  -15.8377   20.5325 H   0  0  0  0  0  0
  -26.2746  -15.6387   20.0877 H   0  0  0  0  0  0
  -26.7244  -32.5458   23.1173 H   0  0  0  0  0  0
  -25.0194  -33.9746   25.0521 H   0  0  0  0  0  0
  -22.7253  -31.3192   21.4131 H   0  0  0  0  0  0
  -23.3770  -35.9588   23.3319 H   0  0  0  0  0  0
  -24.3600  -36.8864   22.2046 H   0  0  0  0  0  0
  -23.7224  -37.6462   23.6639 H   0  0  0  0  0  0
  -26.1335  -31.5681   20.6460 H   0  0  0  0  0  0
  -26.8420  -30.8087   22.0446 H   0  0  0  0  0  0
  -28.1240  -28.9441   21.1894 H   0  0  0  0  0  0
  -25.8065  -25.9581   19.0284 H   0  0  0  0  0  0
  -23.9298  -27.3503   19.0414 H   0  0  0  0  0  0
  -23.7707  -30.6296   19.4129 H   0  0  0  0  0  0
  -22.7616  -29.2855   19.8540 H   0  0  0  0  0  0
  -25.1307  -36.1929   25.0813 H   0  0  0  0  0  0
  -21.0010  -28.3255   24.1376 H   0  0  0  0  0  0
  -20.5632  -26.2303   23.3587 H   0  0  0  0  0  0
  -21.6648  -26.7415   22.1198 H   0  0  0  0  0  0
  -19.6899  -25.6286   21.1227 H   0  0  0  0  0  0
  -19.6703  -27.3183   20.6712 H   0  0  0  0  0  0
  -17.4193  -26.6705   21.4024 H   0  0  0  0  0  0
  -18.0339  -26.0099   22.9011 H   0  0  0  0  0  0
  -19.7941  -30.7253   24.2282 H   0  0  0  0  0  0
  -17.5040  -31.6280   24.5155 H   0  0  0  0  0  0
  -15.5368  -30.3003   23.7673 H   0  0  0  0  0  0
  -15.8681  -28.0806   22.7151 H   0  0  0  0  0  0
  -24.5940  -30.7064   25.7855 H   0  0  0  0  0  0
  -24.8856  -32.2936   26.4878 H   0  0  0  0  0  0
  -25.8038  -30.9021   27.0347 H   0  0  0  0  0  0
  -26.2972  -29.6800   24.1247 H   0  0  0  0  0  0
  -27.3821  -29.7237   25.4926 H   0  0  0  0  0  0
  -27.8930  -30.4241   23.9753 H   0  0  0  0  0  0
  -27.2730  -33.3655   26.2166 H   0  0  0  0  0  0
  -28.3929  -32.6862   25.0434 H   0  0  0  0  0  0
  -28.0722  -31.8448   26.5533 H   0  0  0  0  0  0
  -28.2597  -38.0095   24.7514 H   0  0  0  0  0  0
  -28.1075  -36.2624   24.6301 H   0  0  0  0  0  0
  -27.2286  -37.1451   25.8862 H   0  0  0  0  0  0
  -20.9369  -29.8838   21.6910 H   0  0  0  0  0  0
  -26.0179  -38.2835   24.1442 H   0  0  0  0  0  0
  -28.7759  -20.0884   22.1833 H   0  0  0  0  0  0
  -28.6025  -17.6651   22.3911 H   0  0  0  0  0  0
  -31.4909  -17.1573   19.2697 H   0  0  0  0  0  0
  -31.8752  -22.4730   19.0895 H   0  0  0  0  0  0
  -30.4298  -21.7627   18.4094 H   0  0  0  0  0  0
  -30.0229  -24.0869   18.0720 H   0  0  0  0  0  0
  -30.7025  -24.5128   19.6378 H   0  0  0  0  0  0
  -29.4360  -23.2994   21.8377 H   0  0  0  0  0  0
  -28.3139  -22.0825   21.3457 H   0  0  0  0  0  0
  -32.6923  -20.4796   19.2019 H   0  0  0  0  0  0
  -31.6591  -19.9319   17.8578 H   0  0  0  0  0  0
  -32.8075  -18.8519   18.6203 H   0  0  0  0  0  0
  -31.7847  -23.0814   21.6657 H   0  0  0  0  0  0
  -32.4723  -21.5053   21.3264 H   0  0  0  0  0  0
  -31.2907  -21.6811   22.6095 H   0  0  0  0  0  0
  -27.7730  -23.1029   17.8970 H   0  0  0  0  0  0
  -26.8349  -22.6602   19.3136 H   0  0  0  0  0  0
  -28.1850  -21.6665   18.8177 H   0  0  0  0  0  0
  -27.5303  -25.0145   18.9673 H   0  0  0  0  0  0
  -27.0861  -24.7257   20.6434 H   0  0  0  0  0  0
  -29.0205  -15.4119   21.4254 H   0  0  0  0  0  0
  1 25  1  0  0  0
  1 30  2  0  0  0
  1 86  1  0  0  0
  2  3  1  0  0  0
  2 25  1  0  0  0
  2 87  1  0  0  0
  2 88  1  0  0  0
  3  4  1  0  0  0
  3 89  1  0  0  0
  3 90  1  0  0  0
  4  5  1  0  0  0
  4 91  1  0  0  0
  4 92  1  0  0  0
  5  6  1  0  0  0
  5 26  1  0  0  0
  5 93  1  0  0  0
  6 25  1  0  0  0
  6 94  1  0  0  0
  6 95  1  0  0  0
  7  8  2  0  0  0
  7 26  1  0  0  0
  7 29  1  0  0  0
  8  9  1  0  0  0
  8 22  1  0  0  0
  9 10  1  0  0  0
  9 27  2  0  0  0
 10 11  2  0  0  0
 10 15  1  0  0  0
 11 12  1  0  0  0
 11 96  1  0  0  0
 12 13  2  0  0  0
 12 97  1  0  0  0
 13 14  1  0  0  0
 13 31  1  0  0  0
 14 15  2  0  0  0
 14 98  1  0  0  0
 15 99  1  0  0  0
 16 17  2  0  0  0
 16 21  1  0  0  0
 16 31  1  0  0  0
 17 18  1  0  0  0
 17100  1  0  0  0
 18 19  2  0  0  0
 18101  1  0  0  0
 19 20  1  0  0  0
 19 24  1  0  0  0
 20 21  2  0  0  0
 20102  1  0  0  0
 21 23  1  0  0  0
 22 28  1  0  0  0
 22 32  2  0  0  0
 26 27  1  0  0  0
 28103  1  0  0  0
 28104  1  0  0  0
 29105  1  0  0  0
 29106  1  0  0  0
 33 34  1  0  0  0
 33 66  1  0  0  0
 33 70  2  0  0  0
 34 36  1  0  0  0
 34 59  1  0  0  0
 34107  1  0  0  0
 35 44  2  0  0  0
 35 45  1  0  0  0
 35 68  1  0  0  0
 36 56  1  0  0  0
 36108  1  0  0  0
 37 39  1  0  0  0
 37 47  1  0  0  0
 37 66  1  0  0  0
 37109  1  0  0  0
 38 43  2  0  0  0
 38 46  1  0  0  0
 38 47  1  0  0  0
 39 64  1  0  0  0
 39 67  2  0  0  0
 40 52  1  0  0  0
 40 53  2  0  0  0
 40 58  1  0  0  0
 41110  1  0  0  0
 41111  1  0  0  0
 41112  1  0  0  0
 41 48  1  0  0  0
 42 43  1  0  0  0
 42 66  1  0  0  0
 42113  1  0  0  0
 42114  1  0  0  0
 43 44  1  0  0  0
 44115  1  0  0  0
 45 46  2  0  0  0
 45116  1  0  0  0
 46117  1  0  0  0
 47118  1  0  0  0
 47119  1  0  0  0
 48 56  1  0  0  0
 48 65  1  0  0  0
 48120  1  0  0  0
 49 50  1  0  0  0
 49 53  1  0  0  0
 49 64  1  0  0  0
 49121  1  0  0  0
 50 51  1  0  0  0
 50122  1  0  0  0
 50123  1  0  0  0
 51 52  1  0  0  0
 51124  1  0  0  0
 51125  1  0  0  0
 52126  1  0  0  0
 52127  1  0  0  0
 53 54  1  0  0  0
 54 55  2  0  0  0
 54128  1  0  0  0
 55 57  1  0  0  0
 55129  1  0  0  0
 56 69  2  0  0  0
 57 58  2  0  0  0
 57130  1  0  0  0
 58131  1  0  0  0
 59 60  1  0  0  0
 59 61  1  0  0  0
 59 62  1  0  0  0
 60132  1  0  0  0
 60133  1  0  0  0
 60134  1  0  0  0
 61135  1  0  0  0
 61136  1  0  0  0
 61137  1  0  0  0
 62138  1  0  0  0
 62139  1  0  0  0
 62140  1  0  0  0
 63 65  1  0  0  0
 63141  1  0  0  0
 63142  1  0  0  0
 63143  1  0  0  0
 64144  1  0  0  0
 65145  1  0  0  0
 68 85  1  0  0  0
 71 72  2  0  0  0
 71 74  1  0  0  0
 71146  1  0  0  0
 72 76  1  0  0  0
 72147  1  0  0  0
 73 75  1  0  0  0
 73 76  2  0  0  0
 73148  1  0  0  0
 74 75  2  0  0  0
 74 80  1  0  0  0
 75 82  1  0  0  0
 76 86  1  0  0  0
 77 78  1  0  0  0
 77 80  1  0  0  0
 77149  1  0  0  0
 77150  1  0  0  0
 78 81  1  0  0  0
 78151  1  0  0  0
 78152  1  0  0  0
 79 80  1  0  0  0
 79 81  1  0  0  0
 79153  1  0  0  0
 79154  1  0  0  0
 80 83  1  0  0  0
 81 84  1  0  0  0
 81 85  1  0  0  0
 82155  1  0  0  0
 82156  1  0  0  0
 82157  1  0  0  0
 83158  1  0  0  0
 83159  1  0  0  0
 83160  1  0  0  0
 84161  1  0  0  0
 84162  1  0  0  0
 84163  1  0  0  0
 85164  1  0  0  0
 85165  1  0  0  0
 86166  1  0  0  0
M  ISO  4   1 100  68 101  85 101  86 100
M  END
> <chiral flag>
0

> <version>
0

> <s_m_source_file>
/data/baiqing/PycharmProjects/Reinvent-master-3.2/result/LINK_invent/BTK/process_docking_weight1_custom_product_contain_oxygen_bond_distance_aromatic_linkinvent_7_9_3/rearranged_h_0142.sdf

> <i_m_source_file_index>
15

> <r_mmod_Potential_Energy-OPLS-2005>
271.580780029297

> <r_mmod_Stretch_Energy-OPLS-2005>
105.512641906738

> <r_mmod_Bend_Energy-OPLS-2005>
238.346282958984

> <r_mmod_Torsional_Energy-OPLS-2005>
278.951232910156

> <r_mmod_Improper_Torsional_Energy-OPLS-2005>
3.75308299064636

> <r_mmod_Van_der_Waal_Energy-OPLS-2005>
173.939453125

> <r_mmod_Electrostatic_Energy-OPLS-2005>
-392.46484375

> <r_mmod_Solvation_Energy-OPLS-2005>
-194.716857910156

> <b_mmod_Minimization_Converged-OPLS-2005>
0

> <r_mmod_RMS_Derivative-OPLS-2005>
4.33861684799194

$$$$
15
                    3D
 Structure written by MMmdl.
163171  0  0  1  0            999 V2000
  -30.7914  -14.3733   20.6651 C   0  0  0  0  0  0
  -30.3976  -12.2785   19.4200 C   0  0  0  0  0  0
  -29.4853  -12.5147   18.2026 C   0  0  0  0  0  0
  -28.0054  -12.3741   18.6036 C   0  0  0  0  0  0
  -27.6542  -13.2103   19.8584 C   0  0  2  0  0  0
  -28.6814  -12.9911   20.9843 C   0  0  0  0  0  0
  -25.2555  -13.8184   20.5629 C   0  0  0  0  0  0
  -24.1820  -13.0446   20.9143 C   0  0  0  0  0  0
  -24.6385  -11.6924   20.8718 C   0  0  0  0  0  0
  -23.9061  -10.4297   21.0397 C   0  0  0  0  0  0
  -24.3621   -9.4213   21.9180 C   0  0  0  0  0  0
  -23.6291   -8.2247   22.0763 C   0  0  0  0  0  0
  -22.4279   -8.0281   21.3542 C   0  0  0  0  0  0
  -21.9915   -9.0251   20.4650 C   0  0  0  0  0  0
  -22.7242  -10.2121   20.3046 C   0  0  0  0  0  0
  -21.6840   -6.0742   22.5283 C   0  0  0  0  0  0
  -21.4007   -6.5644   23.8220 C   0  0  0  0  0  0
  -21.3662   -5.6796   24.9179 C   0  0  0  0  0  0
  -21.6040   -4.3060   24.7220 C   0  0  0  0  0  0
  -21.8815   -3.8148   23.4342 C   0  0  0  0  0  0
  -21.9188   -4.6971   22.3404 C   0  0  0  0  0  0
  -22.7860  -13.5245   21.1830 C   0  0  0  0  0  0
  -22.1663   -4.2166   21.0985 F   0  0  0  0  0  0
  -21.5624   -3.4544   25.7732 F   0  0  0  0  0  0
  -30.0376  -13.2560   20.4609 N   0  0  0  0  0  0
  -26.2968  -12.9355   20.3244 N   0  0  0  0  0  0
  -25.9304  -11.6515   20.5706 N   0  0  0  0  0  0
  -22.0510  -12.8225   22.0397 N   0  0  0  0  0  0
  -25.4302  -15.1904   20.4096 N   0  0  0  0  0  0
  -31.7936  -14.6158   19.9844 O   0  0  0  0  0  0
  -21.6637   -6.8883   21.4245 O   0  0  0  0  0  0
  -22.3541  -14.5548   20.6683 O   0  0  0  0  0  0
  -24.6092  -31.8691   23.2155 C   0  0  0  0  0  0
  -25.9000  -32.4824   23.8438 C   0  0  1  0  0  0
  -27.2195  -27.4618   20.0982 C   0  0  0  0  0  0
  -25.5875  -33.8627   24.2358 N   0  0  0  0  0  0
  -23.3981  -30.4967   21.5533 C   0  0  2  0  0  0
  -24.8422  -28.9739   20.1080 C   0  0  0  0  0  0
  -22.7428  -29.4625   22.4986 C   0  0  0  0  0  0
  -18.0280  -28.1399   22.8471 C   0  0  0  0  0  0
  -24.1480  -36.7292   23.2649 C   0  0  0  0  0  0
  -25.9236  -30.8431   21.3666 C   0  0  0  0  0  0
  -25.9990  -29.4833   20.7109 C   0  0  0  0  0  0
  -27.1933  -28.7296   20.7094 C   0  0  0  0  0  0
  -26.0550  -26.9657   19.4738 C   0  0  0  0  0  0
  -24.8639  -27.7151   19.4851 C   0  0  0  0  0  0
  -23.6037  -29.8380   20.1622 C   0  0  0  0  0  0
  -25.4086  -36.3096   24.0363 C   0  0  1  0  0  0
  -20.5869  -28.3614   23.1356 C   0  0  2  0  0  0
  -20.6768  -26.9362   22.5438 C   0  0  0  0  0  0
  -19.5749  -26.6377   21.5232 C   0  0  0  0  0  0
  -18.1915  -26.7933   22.1631 C   0  0  0  0  0  0
  -19.1539  -28.8821   23.2911 C   0  0  0  0  0  0
  -18.9474  -30.1448   23.8865 C   0  0  0  0  0  0
  -17.6479  -30.6571   24.0562 C   0  0  0  0  0  0
  -25.9028  -34.9459   23.5150 C   0  0  0  0  0  0
  -16.5358  -29.9080   23.6368 C   0  0  0  0  0  0
  -16.7273  -28.6547   23.0301 C   0  0  0  0  0  0
  -26.4451  -31.6607   25.0761 C   0  0  0  0  0  0
  -25.3731  -31.3745   26.1534 C   0  0  0  0  0  0
  -27.0304  -30.3076   24.6096 C   0  0  0  0  0  0
  -27.6011  -32.4338   25.7504 C   0  0  0  0  0  0
  -27.5571  -37.1800   24.8479 C   0  0  0  0  0  0
  -21.4153  -29.3003   22.3780 N   0  0  0  0  0  0
  -26.4276  -37.3778   23.9443 N   0  0  0  0  0  0
  -24.6616  -31.0836   22.1035 N   0  0  0  0  0  0
  -23.4253  -28.8113   23.2946 O   0  0  0  0  0  0
  -28.3501  -26.6904   20.1458 O   0  0  0  0  0  0
  -26.5594  -34.8895   22.4717 O   0  0  0  0  0  0
  -23.5294  -32.1415   23.7587 O   0  0  0  0  0  0
  -28.4965  -18.0660   18.6264 C   0  0  0  0  0  0
  -29.1679  -17.1398   19.4489 C   0  0  0  0  0  0
  -28.5223  -19.4420   18.9295 C   0  0  0  0  0  0
  -29.9104  -18.9743   20.8686 C   0  0  0  0  0  0
  -29.8967  -17.5957   20.5716 C   0  0  0  0  0  0
  -29.2170  -19.9079   20.0647 C   0  0  0  0  0  0
  -29.6658  -21.9935   21.3808 C   0  0  0  0  0  0
  -30.6505  -25.1635   21.3480 C   0  0  0  0  0  0
  -30.2486  -14.8302   22.9911 C   0  0  0  0  0  0
  -30.7330  -16.6880   21.4728 C   0  0  0  0  0  0
  -28.9412  -23.2899   21.7510 C   0  0  0  0  0  0
  -28.1706  -25.5648   21.0113 C   0  0  0  0  0  0
  -29.3132  -24.5414   20.9131 C   0  0  1  0  0  0
  -29.1087  -21.2889   20.3782 N   0  0  0  0  0  0
  -30.3551  -15.2638   21.5880 N   0  0  0  0  0  0
  -30.6822  -21.6615   21.9979 O   0  0  0  0  0  0
  -29.4066  -24.1865   19.6269 F   0  0  0  0  0  0
  -31.4463  -12.3394   19.1253 H   0  0  0  0  0  0
  -30.2653  -11.2664   19.8081 H   0  0  0  0  0  0
  -29.7241  -11.8065   17.4103 H   0  0  0  0  0  0
  -29.6643  -13.5083   17.7887 H   0  0  0  0  0  0
  -27.8044  -11.3187   18.7897 H   0  0  0  0  0  0
  -27.3610  -12.6625   17.7722 H   0  0  0  0  0  0
  -27.6973  -14.2588   19.5666 H   0  0  0  0  0  0
  -28.6336  -11.9682   21.3577 H   0  0  0  0  0  0
  -28.3894  -13.6214   21.8184 H   0  0  0  0  0  0
  -25.2767   -9.5671   22.4758 H   0  0  0  0  0  0
  -23.9981   -7.4636   22.7493 H   0  0  0  0  0  0
  -21.0838   -8.8774   19.8959 H   0  0  0  0  0  0
  -22.3713  -10.9660   19.6144 H   0  0  0  0  0  0
  -21.2008   -7.6155   23.9721 H   0  0  0  0  0  0
  -21.1487   -6.0531   25.9076 H   0  0  0  0  0  0
  -22.0594   -2.7618   23.2840 H   0  0  0  0  0  0
  -22.4125  -11.9846   22.4714 H   0  0  0  0  0  0
  -21.1148  -13.1252   22.2652 H   0  0  0  0  0  0
  -24.6751  -15.8542   20.5423 H   0  0  0  0  0  0
  -26.2957  -15.6295   20.1215 H   0  0  0  0  0  0
  -26.7049  -32.5552   23.1182 H   0  0  0  0  0  0
  -25.0058  -33.9801   25.0522 H   0  0  0  0  0  0
  -22.6863  -31.3151   21.4231 H   0  0  0  0  0  0
  -23.3733  -35.9647   23.3321 H   0  0  0  0  0  0
  -24.3566  -36.8902   22.2069 H   0  0  0  0  0  0
  -23.7261  -37.6510   23.6643 H   0  0  0  0  0  0
  -26.0373  -31.6094   20.5988 H   0  0  0  0  0  0
  -26.8131  -30.8919   21.9837 H   0  0  0  0  0  0
  -28.0802  -29.1084   21.1969 H   0  0  0  0  0  0
  -26.0628  -25.9967   18.9962 H   0  0  0  0  0  0
  -23.9767  -27.3193   19.0117 H   0  0  0  0  0  0
  -23.7133  -30.6197   19.4094 H   0  0  0  0  0  0
  -22.7262  -29.2658   19.8616 H   0  0  0  0  0  0
  -25.1261  -36.1935   25.0866 H   0  0  0  0  0  0
  -20.9937  -28.3080   24.1485 H   0  0  0  0  0  0
  -20.5684  -26.2176   23.3589 H   0  0  0  0  0  0
  -21.6633  -26.7434   22.1201 H   0  0  0  0  0  0
  -19.6920  -25.6307   21.1224 H   0  0  0  0  0  0
  -19.6681  -27.3224   20.6775 H   0  0  0  0  0  0
  -17.4214  -26.6689   21.4020 H   0  0  0  0  0  0
  -18.0271  -26.0093   22.9029 H   0  0  0  0  0  0
  -19.7954  -30.7311   24.2141 H   0  0  0  0  0  0
  -17.5035  -31.6243   24.5193 H   0  0  0  0  0  0
  -15.5354  -30.2968   23.7729 H   0  0  0  0  0  0
  -15.8676  -28.0901   22.6926 H   0  0  0  0  0  0
  -24.5854  -30.7142   25.7893 H   0  0  0  0  0  0
  -24.8975  -32.2940   26.4974 H   0  0  0  0  0  0
  -25.8078  -30.8915   27.0293 H   0  0  0  0  0  0
  -26.2862  -29.6836   24.1133 H   0  0  0  0  0  0
  -27.4154  -29.7300   25.4507 H   0  0  0  0  0  0
  -27.8638  -30.4483   23.9205 H   0  0  0  0  0  0
  -27.2606  -33.3610   26.2109 H   0  0  0  0  0  0
  -28.3772  -32.6948   25.0307 H   0  0  0  0  0  0
  -28.0708  -31.8466   26.5409 H   0  0  0  0  0  0
  -28.2576  -38.0101   24.7481 H   0  0  0  0  0  0
  -28.1073  -36.2627   24.6303 H   0  0  0  0  0  0
  -27.2301  -37.1450   25.8890 H   0  0  0  0  0  0
  -20.9283  -29.8732   21.7035 H   0  0  0  0  0  0
  -26.0154  -38.2862   24.1436 H   0  0  0  0  0  0
  -27.9573  -17.7213   17.7541 H   0  0  0  0  0  0
  -29.1270  -16.0942   19.1842 H   0  0  0  0  0  0
  -27.9983  -20.1368   18.2878 H   0  0  0  0  0  0
  -30.4558  -19.2937   21.7436 H   0  0  0  0  0  0
  -30.5801  -25.5471   22.3668 H   0  0  0  0  0  0
  -30.9225  -25.9995   20.7033 H   0  0  0  0  0  0
  -31.4658  -24.4407   21.3264 H   0  0  0  0  0  0
  -30.4188  -13.7598   23.1210 H   0  0  0  0  0  0
  -29.2582  -15.0615   23.3879 H   0  0  0  0  0  0
  -30.9905  -15.3228   23.6194 H   0  0  0  0  0  0
  -30.7384  -17.1502   22.4603 H   0  0  0  0  0  0
  -31.7645  -16.7837   21.1298 H   0  0  0  0  0  0
  -29.0942  -23.4910   22.8130 H   0  0  0  0  0  0
  -27.8763  -23.0727   21.6598 H   0  0  0  0  0  0
  -28.0904  -25.9191   22.0410 H   0  0  0  0  0  0
  -27.2283  -25.0566   20.7923 H   0  0  0  0  0  0
  -28.4237  -21.7969   19.8351 H   0  0  0  0  0  0
  1 25  1  0  0  0
  1 30  2  0  0  0
  1 85  1  0  0  0
  2  3  1  0  0  0
  2 25  1  0  0  0
  2 88  1  0  0  0
  2 89  1  0  0  0
  3  4  1  0  0  0
  3 90  1  0  0  0
  3 91  1  0  0  0
  4  5  1  0  0  0
  4 92  1  0  0  0
  4 93  1  0  0  0
  5  6  1  0  0  0
  5 26  1  0  0  0
  5 94  1  0  0  0
  6 25  1  0  0  0
  6 95  1  0  0  0
  6 96  1  0  0  0
  7  8  2  0  0  0
  7 26  1  0  0  0
  7 29  1  0  0  0
  8  9  1  0  0  0
  8 22  1  0  0  0
  9 10  1  0  0  0
  9 27  2  0  0  0
 10 11  2  0  0  0
 10 15  1  0  0  0
 11 12  1  0  0  0
 11 97  1  0  0  0
 12 13  2  0  0  0
 12 98  1  0  0  0
 13 14  1  0  0  0
 13 31  1  0  0  0
 14 15  2  0  0  0
 14 99  1  0  0  0
 15100  1  0  0  0
 16 17  2  0  0  0
 16 21  1  0  0  0
 16 31  1  0  0  0
 17 18  1  0  0  0
 17101  1  0  0  0
 18 19  2  0  0  0
 18102  1  0  0  0
 19 20  1  0  0  0
 19 24  1  0  0  0
 20 21  2  0  0  0
 20103  1  0  0  0
 21 23  1  0  0  0
 22 28  1  0  0  0
 22 32  2  0  0  0
 26 27  1  0  0  0
 28104  1  0  0  0
 28105  1  0  0  0
 29106  1  0  0  0
 29107  1  0  0  0
 33 34  1  0  0  0
 33 66  1  0  0  0
 33 70  2  0  0  0
 34 36  1  0  0  0
 34 59  1  0  0  0
 34108  1  0  0  0
 35 44  2  0  0  0
 35 45  1  0  0  0
 35 68  1  0  0  0
 36 56  1  0  0  0
 36109  1  0  0  0
 37 39  1  0  0  0
 37 47  1  0  0  0
 37 66  1  0  0  0
 37110  1  0  0  0
 38 43  2  0  0  0
 38 46  1  0  0  0
 38 47  1  0  0  0
 39 64  1  0  0  0
 39 67  2  0  0  0
 40 52  1  0  0  0
 40 53  2  0  0  0
 40 58  1  0  0  0
 41111  1  0  0  0
 41112  1  0  0  0
 41113  1  0  0  0
 41 48  1  0  0  0
 42 43  1  0  0  0
 42 66  1  0  0  0
 42114  1  0  0  0
 42115  1  0  0  0
 43 44  1  0  0  0
 44116  1  0  0  0
 45 46  2  0  0  0
 45117  1  0  0  0
 46118  1  0  0  0
 47119  1  0  0  0
 47120  1  0  0  0
 48 56  1  0  0  0
 48 65  1  0  0  0
 48121  1  0  0  0
 49 50  1  0  0  0
 49 53  1  0  0  0
 49 64  1  0  0  0
 49122  1  0  0  0
 50 51  1  0  0  0
 50123  1  0  0  0
 50124  1  0  0  0
 51 52  1  0  0  0
 51125  1  0  0  0
 51126  1  0  0  0
 52127  1  0  0  0
 52128  1  0  0  0
 53 54  1  0  0  0
 54 55  2  0  0  0
 54129  1  0  0  0
 55 57  1  0  0  0
 55130  1  0  0  0
 56 69  2  0  0  0
 57 58  2  0  0  0
 57131  1  0  0  0
 58132  1  0  0  0
 59 60  1  0  0  0
 59 61  1  0  0  0
 59 62  1  0  0  0
 60133  1  0  0  0
 60134  1  0  0  0
 60135  1  0  0  0
 61136  1  0  0  0
 61137  1  0  0  0
 61138  1  0  0  0
 62139  1  0  0  0
 62140  1  0  0  0
 62141  1  0  0  0
 63 65  1  0  0  0
 63142  1  0  0  0
 63143  1  0  0  0
 63144  1  0  0  0
 64145  1  0  0  0
 65146  1  0  0  0
 68 82  1  0  0  0
 71 72  2  0  0  0
 71 73  1  0  0  0
 71147  1  0  0  0
 72 75  1  0  0  0
 72148  1  0  0  0
 73 76  2  0  0  0
 73149  1  0  0  0
 74 75  2  0  0  0
 74 76  1  0  0  0
 74150  1  0  0  0
 75 80  1  0  0  0
 76 84  1  0  0  0
 77 81  1  0  0  0
 77 84  1  0  0  0
 77 86  2  0  0  0
 78151  1  0  0  0
 78152  1  0  0  0
 78153  1  0  0  0
 78 83  1  0  0  0
 79 85  1  0  0  0
 79154  1  0  0  0
 79155  1  0  0  0
 79156  1  0  0  0
 80 85  1  0  0  0
 80157  1  0  0  0
 80158  1  0  0  0
 81 83  1  0  0  0
 81159  1  0  0  0
 81160  1  0  0  0
 82 83  1  0  0  0
 82161  1  0  0  0
 82162  1  0  0  0
 83 87  1  0  0  0
 84163  1  0  0  0
M  ISO  4   1 100  68 101  82 101  85 100
M  END
> <chiral flag>
0

> <version>
0

> <s_m_source_file>
/data/baiqing/PycharmProjects/Reinvent-master-3.2/result/LINK_invent/BTK/process_docking_weight1_custom_product_contain_oxygen_bond_distance_aromatic_linkinvent_7_9_3/rearranged_h_0142.sdf

> <i_m_source_file_index>
16

> <r_mmod_Potential_Energy-OPLS-2005>
49.0904388427734

> <r_mmod_Stretch_Energy-OPLS-2005>
35.4326133728027

> <r_mmod_Bend_Energy-OPLS-2005>
108.673324584961

> <r_mmod_Torsional_Energy-OPLS-2005>
274.432769775391

> <r_mmod_Improper_Torsional_Energy-OPLS-2005>
5.36450910568237

> <r_mmod_Van_der_Waal_Energy-OPLS-2005>
170.941360473633

> <r_mmod_Electrostatic_Energy-OPLS-2005>
-346.754608154297

> <r_mmod_Solvation_Energy-OPLS-2005>
-209.744644165039

> <b_mmod_Minimization_Converged-OPLS-2005>
0

> <r_mmod_RMS_Derivative-OPLS-2005>
4.2847638130188

$$$$
16
                    3D
 Structure written by MMmdl.
166175  0  0  1  0            999 V2000
  -30.6899  -14.4728   20.5401 C   0  0  0  0  0  0
  -30.4218  -12.2974   19.4304 C   0  0  0  0  0  0
  -29.4949  -12.4917   18.2109 C   0  0  0  0  0  0
  -28.0129  -12.3697   18.6169 C   0  0  0  0  0  0
  -27.6601  -13.2073   19.8752 C   0  0  2  0  0  0
  -28.6999  -12.9914   20.9996 C   0  0  0  0  0  0
  -25.2587  -13.8178   20.5676 C   0  0  0  0  0  0
  -24.1827  -13.0460   20.9160 C   0  0  0  0  0  0
  -24.6371  -11.6921   20.8713 C   0  0  0  0  0  0
  -23.9037  -10.4308   21.0398 C   0  0  0  0  0  0
  -24.3594   -9.4222   21.9175 C   0  0  0  0  0  0
  -23.6272   -8.2257   22.0746 C   0  0  0  0  0  0
  -22.4254   -8.0293   21.3541 C   0  0  0  0  0  0
  -21.9887   -9.0267   20.4643 C   0  0  0  0  0  0
  -22.7210  -10.2148   20.3051 C   0  0  0  0  0  0
  -21.6857   -6.0734   22.5265 C   0  0  0  0  0  0
  -21.4025   -6.5635   23.8201 C   0  0  0  0  0  0
  -21.3655   -5.6783   24.9159 C   0  0  0  0  0  0
  -21.6044   -4.3047   24.7206 C   0  0  0  0  0  0
  -21.8824   -3.8142   23.4326 C   0  0  0  0  0  0
  -21.9207   -4.6965   22.3386 C   0  0  0  0  0  0
  -22.7855  -13.5270   21.1823 C   0  0  0  0  0  0
  -22.1671   -4.2155   21.0962 F   0  0  0  0  0  0
  -21.5622   -3.4527   25.7714 F   0  0  0  0  0  0
  -30.0338  -13.2849   20.4509 N   0  0  0  0  0  0
  -26.3010  -12.9338   20.3356 N   0  0  0  0  0  0
  -25.9301  -11.6500   20.5748 N   0  0  0  0  0  0
  -22.0480  -12.8270   22.0371 N   0  0  0  0  0  0
  -25.4369  -15.1892   20.4088 N   0  0  0  0  0  0
  -31.8339  -14.6438   20.1094 O   0  0  0  0  0  0
  -21.6635   -6.8876   21.4225 O   0  0  0  0  0  0
  -22.3547  -14.5588   20.6692 O   0  0  0  0  0  0
  -24.6120  -31.8689   23.2101 C   0  0  0  0  0  0
  -25.9017  -32.4827   23.8407 C   0  0  1  0  0  0
  -27.2404  -27.4440   20.1062 C   0  0  0  0  0  0
  -25.5888  -33.8625   24.2342 N   0  0  0  0  0  0
  -23.4022  -30.4894   21.5499 C   0  0  2  0  0  0
  -24.8535  -28.9558   20.1147 C   0  0  0  0  0  0
  -22.7406  -29.4657   22.4998 C   0  0  0  0  0  0
  -18.0274  -28.1383   22.8496 C   0  0  0  0  0  0
  -24.1481  -36.7321   23.2641 C   0  0  0  0  0  0
  -25.9282  -30.8359   21.3643 C   0  0  0  0  0  0
  -26.0085  -29.4685   20.7199 C   0  0  0  0  0  0
  -27.2054  -28.7173   20.7219 C   0  0  0  0  0  0
  -26.0783  -26.9490   19.4843 C   0  0  0  0  0  0
  -24.8827  -27.6935   19.4942 C   0  0  0  0  0  0
  -23.6124  -29.8191   20.1648 C   0  0  0  0  0  0
  -25.4096  -36.3114   24.0345 C   0  0  1  0  0  0
  -20.5862  -28.3660   23.1335 C   0  0  2  0  0  0
  -20.6757  -26.9400   22.5429 C   0  0  0  0  0  0
  -19.5735  -26.6394   21.5224 C   0  0  0  0  0  0
  -18.1915  -26.7931   22.1633 C   0  0  0  0  0  0
  -19.1525  -28.8839   23.2912 C   0  0  0  0  0  0
  -18.9450  -30.1448   23.8911 C   0  0  0  0  0  0
  -17.6453  -30.6585   24.0577 C   0  0  0  0  0  0
  -25.9023  -34.9479   23.5140 C   0  0  0  0  0  0
  -16.5344  -29.9086   23.6335 C   0  0  0  0  0  0
  -16.7269  -28.6513   23.0344 C   0  0  0  0  0  0
  -26.4454  -31.6603   25.0731 C   0  0  0  0  0  0
  -25.3732  -31.3717   26.1500 C   0  0  0  0  0  0
  -27.0287  -30.3049   24.6093 C   0  0  0  0  0  0
  -27.6048  -32.4308   25.7480 C   0  0  0  0  0  0
  -27.5585  -37.1803   24.8457 C   0  0  0  0  0  0
  -21.4138  -29.3027   22.3740 N   0  0  0  0  0  0
  -26.4283  -37.3798   23.9427 N   0  0  0  0  0  0
  -24.6654  -31.0788   22.1007 N   0  0  0  0  0  0
  -23.4185  -28.8204   23.3045 O   0  0  0  0  0  0
  -28.3658  -26.6515   20.1064 O   0  0  0  0  0  0
  -26.5583  -34.8924   22.4699 O   0  0  0  0  0  0
  -23.5309  -32.1439   23.7487 O   0  0  0  0  0  0
  -29.5855  -17.8415   18.0224 C   0  0  0  0  0  0
  -29.7849  -19.0944   18.6267 C   0  0  0  0  0  0
  -29.6316  -16.6733   18.8008 C   0  0  0  0  0  0
  -30.0324  -18.0135   20.8086 C   0  0  0  0  0  0
  -30.0023  -19.1947   20.0174 C   0  0  0  0  0  0
  -29.8787  -16.7396   20.1933 C   0  0  0  0  0  0
  -30.2797  -20.5396   20.5527 C   0  0  0  0  0  0
  -27.8865  -21.5606   23.1890 C   0  0  0  0  0  0
  -29.0988  -22.4769   23.3922 C   0  0  0  0  0  0
  -28.3068  -20.5838   22.0818 C   0  0  0  0  0  0
  -29.7499  -22.5413   22.0074 C   0  0  2  0  0  0
  -29.1284  -23.6761   21.1388 C   0  0  0  0  0  0
  -29.7515  -25.0640   21.4399 C   0  0  0  0  0  0
  -28.7903  -26.2746   21.4175 C   0  0  0  0  0  0
  -29.5116  -21.1782   21.4704 N   0  0  0  0  0  0
  -29.9467  -15.5241   20.9431 N   0  0  0  0  0  0
  -31.3376  -21.1790   20.0571 N   0  3  0  0  0  0
  -31.4658  -12.3940   19.1261 H   0  0  0  0  0  0
  -30.3217  -11.2874   19.8303 H   0  0  0  0  0  0
  -29.7285  -11.7570   17.4393 H   0  0  0  0  0  0
  -29.6729  -13.4677   17.7593 H   0  0  0  0  0  0
  -27.8047  -11.3153   18.8033 H   0  0  0  0  0  0
  -27.3723  -12.6610   17.7835 H   0  0  0  0  0  0
  -27.7025  -14.2546   19.5766 H   0  0  0  0  0  0
  -28.6700  -11.9578   21.3486 H   0  0  0  0  0  0
  -28.4670  -13.6041   21.8719 H   0  0  0  0  0  0
  -25.2738   -9.5713   22.4743 H   0  0  0  0  0  0
  -23.9994   -7.4652   22.7463 H   0  0  0  0  0  0
  -21.0825   -8.8794   19.8939 H   0  0  0  0  0  0
  -22.3670  -10.9691   19.6163 H   0  0  0  0  0  0
  -21.2022   -7.6142   23.9706 H   0  0  0  0  0  0
  -21.1464   -6.0504   25.9062 H   0  0  0  0  0  0
  -22.0612   -2.7610   23.2812 H   0  0  0  0  0  0
  -22.4066  -11.9920   22.4762 H   0  0  0  0  0  0
  -21.1120  -13.1345   22.2591 H   0  0  0  0  0  0
  -24.6807  -15.8551   20.5237 H   0  0  0  0  0  0
  -26.2937  -15.6173   20.0830 H   0  0  0  0  0  0
  -26.7096  -32.5549   23.1187 H   0  0  0  0  0  0
  -25.0039  -33.9789   25.0486 H   0  0  0  0  0  0
  -22.6914  -31.3062   21.4087 H   0  0  0  0  0  0
  -23.3733  -35.9663   23.3292 H   0  0  0  0  0  0
  -24.3585  -36.8934   22.2058 H   0  0  0  0  0  0
  -23.7228  -37.6525   23.6650 H   0  0  0  0  0  0
  -26.0337  -31.5953   20.5878 H   0  0  0  0  0  0
  -26.8184  -30.8973   21.9782 H   0  0  0  0  0  0
  -28.0940  -29.1115   21.1945 H   0  0  0  0  0  0
  -26.0963  -25.9770   19.0111 H   0  0  0  0  0  0
  -23.9965  -27.2922   19.0232 H   0  0  0  0  0  0
  -23.7206  -30.5927   19.4039 H   0  0  0  0  0  0
  -22.7366  -29.2375   19.8699 H   0  0  0  0  0  0
  -25.1258  -36.1986   25.0834 H   0  0  0  0  0  0
  -20.9966  -28.3223   24.1454 H   0  0  0  0  0  0
  -20.5672  -26.2261   23.3608 H   0  0  0  0  0  0
  -21.6627  -26.7452   22.1222 H   0  0  0  0  0  0
  -19.6888  -25.6310   21.1241 H   0  0  0  0  0  0
  -19.6671  -27.3216   20.6763 H   0  0  0  0  0  0
  -17.4192  -26.6706   21.4027 H   0  0  0  0  0  0
  -18.0296  -26.0064   22.9017 H   0  0  0  0  0  0
  -19.7922  -30.7272   24.2278 H   0  0  0  0  0  0
  -17.5005  -31.6267   24.5178 H   0  0  0  0  0  0
  -15.5343  -30.2995   23.7636 H   0  0  0  0  0  0
  -15.8675  -28.0846   22.7027 H   0  0  0  0  0  0
  -24.5884  -30.7075   25.7869 H   0  0  0  0  0  0
  -24.8942  -32.2872   26.4982 H   0  0  0  0  0  0
  -25.8099  -30.8883   27.0248 H   0  0  0  0  0  0
  -26.2838  -29.6811   24.1142 H   0  0  0  0  0  0
  -27.4062  -29.7281   25.4547 H   0  0  0  0  0  0
  -27.8665  -30.4384   23.9245 H   0  0  0  0  0  0
  -27.2697  -33.3595   26.2116 H   0  0  0  0  0  0
  -28.3831  -32.6888   25.0287 H   0  0  0  0  0  0
  -28.0754  -31.8392   26.5343 H   0  0  0  0  0  0
  -28.2588  -38.0117   24.7539 H   0  0  0  0  0  0
  -28.1091  -36.2649   24.6223 H   0  0  0  0  0  0
  -27.2320  -37.1397   25.8865 H   0  0  0  0  0  0
  -20.9287  -29.8750   21.6968 H   0  0  0  0  0  0
  -26.0167  -38.2875   24.1432 H   0  0  0  0  0  0
  -29.4153  -17.7729   16.9574 H   0  0  0  0  0  0
  -29.7730  -19.9856   18.0126 H   0  0  0  0  0  0
  -29.4861  -15.7247   18.3062 H   0  0  0  0  0  0
  -30.2269  -18.0815   21.8701 H   0  0  0  0  0  0
  -27.0153  -22.1334   22.8699 H   0  0  0  0  0  0
  -27.6160  -21.0433   24.1103 H   0  0  0  0  0  0
  -29.7978  -22.0436   24.1082 H   0  0  0  0  0  0
  -28.8067  -23.4573   23.7724 H   0  0  0  0  0  0
  -27.5130  -20.4440   21.3462 H   0  0  0  0  0  0
  -28.5361  -19.6108   22.5175 H   0  0  0  0  0  0
  -30.8215  -22.7161   22.1234 H   0  0  0  0  0  0
  -28.0530  -23.7200   21.3163 H   0  0  0  0  0  0
  -29.2338  -23.4577   20.0757 H   0  0  0  0  0  0
  -30.5972  -25.2437   20.7755 H   0  0  0  0  0  0
  -30.1794  -25.0338   22.4424 H   0  0  0  0  0  0
  -29.2987  -27.1256   21.8726 H   0  0  0  0  0  0
  -27.9270  -26.0560   22.0499 H   0  0  0  0  0  0
  -29.1111  -15.2820   21.4543 H   0  0  0  0  0  0
  -31.9322  -20.6943   19.4012 H   0  0  0  0  0  0
  -31.5790  -22.1155   20.3281 H   0  0  0  0  0  0
  1 25  1  0  0  0
  1 30  2  0  0  0
  1 86  1  0  0  0
  2  3  1  0  0  0
  2 25  1  0  0  0
  2 88  1  0  0  0
  2 89  1  0  0  0
  3  4  1  0  0  0
  3 90  1  0  0  0
  3 91  1  0  0  0
  4  5  1  0  0  0
  4 92  1  0  0  0
  4 93  1  0  0  0
  5  6  1  0  0  0
  5 26  1  0  0  0
  5 94  1  0  0  0
  6 25  1  0  0  0
  6 95  1  0  0  0
  6 96  1  0  0  0
  7  8  2  0  0  0
  7 26  1  0  0  0
  7 29  1  0  0  0
  8  9  1  0  0  0
  8 22  1  0  0  0
  9 10  1  0  0  0
  9 27  2  0  0  0
 10 11  2  0  0  0
 10 15  1  0  0  0
 11 12  1  0  0  0
 11 97  1  0  0  0
 12 13  2  0  0  0
 12 98  1  0  0  0
 13 14  1  0  0  0
 13 31  1  0  0  0
 14 15  2  0  0  0
 14 99  1  0  0  0
 15100  1  0  0  0
 16 17  2  0  0  0
 16 21  1  0  0  0
 16 31  1  0  0  0
 17 18  1  0  0  0
 17101  1  0  0  0
 18 19  2  0  0  0
 18102  1  0  0  0
 19 20  1  0  0  0
 19 24  1  0  0  0
 20 21  2  0  0  0
 20103  1  0  0  0
 21 23  1  0  0  0
 22 28  1  0  0  0
 22 32  2  0  0  0
 26 27  1  0  0  0
 28104  1  0  0  0
 28105  1  0  0  0
 29106  1  0  0  0
 29107  1  0  0  0
 33 34  1  0  0  0
 33 66  1  0  0  0
 33 70  2  0  0  0
 34 36  1  0  0  0
 34 59  1  0  0  0
 34108  1  0  0  0
 35 44  2  0  0  0
 35 45  1  0  0  0
 35 68  1  0  0  0
 36 56  1  0  0  0
 36109  1  0  0  0
 37 39  1  0  0  0
 37 47  1  0  0  0
 37 66  1  0  0  0
 37110  1  0  0  0
 38 43  2  0  0  0
 38 46  1  0  0  0
 38 47  1  0  0  0
 39 64  1  0  0  0
 39 67  2  0  0  0
 40 52  1  0  0  0
 40 53  2  0  0  0
 40 58  1  0  0  0
 41111  1  0  0  0
 41112  1  0  0  0
 41113  1  0  0  0
 41 48  1  0  0  0
 42 43  1  0  0  0
 42 66  1  0  0  0
 42114  1  0  0  0
 42115  1  0  0  0
 43 44  1  0  0  0
 44116  1  0  0  0
 45 46  2  0  0  0
 45117  1  0  0  0
 46118  1  0  0  0
 47119  1  0  0  0
 47120  1  0  0  0
 48 56  1  0  0  0
 48 65  1  0  0  0
 48121  1  0  0  0
 49 50  1  0  0  0
 49 53  1  0  0  0
 49 64  1  0  0  0
 49122  1  0  0  0
 50 51  1  0  0  0
 50123  1  0  0  0
 50124  1  0  0  0
 51 52  1  0  0  0
 51125  1  0  0  0
 51126  1  0  0  0
 52127  1  0  0  0
 52128  1  0  0  0
 53 54  1  0  0  0
 54 55  2  0  0  0
 54129  1  0  0  0
 55 57  1  0  0  0
 55130  1  0  0  0
 56 69  2  0  0  0
 57 58  2  0  0  0
 57131  1  0  0  0
 58132  1  0  0  0
 59 60  1  0  0  0
 59 61  1  0  0  0
 59 62  1  0  0  0
 60133  1  0  0  0
 60134  1  0  0  0
 60135  1  0  0  0
 61136  1  0  0  0
 61137  1  0  0  0
 61138  1  0  0  0
 62139  1  0  0  0
 62140  1  0  0  0
 62141  1  0  0  0
 63 65  1  0  0  0
 63142  1  0  0  0
 63143  1  0  0  0
 63144  1  0  0  0
 64145  1  0  0  0
 65146  1  0  0  0
 68 84  1  0  0  0
 71 72  2  0  0  0
 71 73  1  0  0  0
 71147  1  0  0  0
 72 75  1  0  0  0
 72148  1  0  0  0
 73 76  2  0  0  0
 73149  1  0  0  0
 74 75  2  0  0  0
 74 76  1  0  0  0
 74150  1  0  0  0
 75 77  1  0  0  0
 76 86  1  0  0  0
 77 85  1  0  0  0
 77 87  2  0  0  0
 78 79  1  0  0  0
 78 80  1  0  0  0
 78151  1  0  0  0
 78152  1  0  0  0
 79 81  1  0  0  0
 79153  1  0  0  0
 79154  1  0  0  0
 80 85  1  0  0  0
 80155  1  0  0  0
 80156  1  0  0  0
 81 82  1  0  0  0
 81 85  1  0  0  0
 81157  1  0  0  0
 82 83  1  0  0  0
 82158  1  0  0  0
 82159  1  0  0  0
 83 84  1  0  0  0
 83160  1  0  0  0
 83161  1  0  0  0
 84162  1  0  0  0
 84163  1  0  0  0
 86164  1  0  0  0
 87165  1  0  0  0
 87166  1  0  0  0
M  CHG  1  87   1
M  ISO  4   1 100  68 101  84 101  86 100
M  END
> <chiral flag>
0

> <version>
0

> <s_m_source_file>
/data/baiqing/PycharmProjects/Reinvent-master-3.2/result/LINK_invent/BTK/process_docking_weight1_custom_product_contain_oxygen_bond_distance_aromatic_linkinvent_7_9_3/rearranged_h_0142.sdf

> <i_m_source_file_index>
17

> <r_mmod_Potential_Energy-OPLS-2005>
-106.104309082031

> <r_mmod_Stretch_Energy-OPLS-2005>
38.0487403869629

> <r_mmod_Bend_Energy-OPLS-2005>
122.914077758789

> <r_mmod_Torsional_Energy-OPLS-2005>
362.118927001953

> <r_mmod_Improper_Torsional_Energy-OPLS-2005>
7.25500106811523

> <r_mmod_Van_der_Waal_Energy-OPLS-2005>
145.923324584961

> <r_mmod_Electrostatic_Energy-OPLS-2005>
-400.589202880859

> <r_mmod_Solvation_Energy-OPLS-2005>
-395.416198730469

> <b_mmod_Minimization_Converged-OPLS-2005>
0

> <r_mmod_RMS_Derivative-OPLS-2005>
1.63736498355865

$$$$
17
                    3D
 Structure written by MMmdl.
169177  0  0  1  0            999 V2000
  -30.6926  -14.4287   20.6260 C   0  0  0  0  0  0
  -30.4309  -12.2954   19.4089 C   0  0  0  0  0  0
  -29.4980  -12.5231   18.2012 C   0  0  0  0  0  0
  -28.0162  -12.3868   18.6091 C   0  0  0  0  0  0
  -27.6698  -13.2001   19.8847 C   0  0  2  0  0  0
  -28.7060  -12.9228   20.9961 C   0  0  0  0  0  0
  -25.2630  -13.8149   20.5688 C   0  0  0  0  0  0
  -24.1859  -13.0439   20.9164 C   0  0  0  0  0  0
  -24.6394  -11.6899   20.8713 C   0  0  0  0  0  0
  -23.9051  -10.4291   21.0393 C   0  0  0  0  0  0
  -24.3601   -9.4212   21.9177 C   0  0  0  0  0  0
  -23.6282   -8.2244   22.0756 C   0  0  0  0  0  0
  -22.4265   -8.0280   21.3548 C   0  0  0  0  0  0
  -21.9893   -9.0255   20.4652 C   0  0  0  0  0  0
  -22.7217  -10.2133   20.3051 C   0  0  0  0  0  0
  -21.6855   -6.0733   22.5277 C   0  0  0  0  0  0
  -21.4015   -6.5635   23.8211 C   0  0  0  0  0  0
  -21.3659   -5.6790   24.9173 C   0  0  0  0  0  0
  -21.6044   -4.3054   24.7224 C   0  0  0  0  0  0
  -21.8819   -3.8145   23.4344 C   0  0  0  0  0  0
  -21.9193   -4.6959   22.3400 C   0  0  0  0  0  0
  -22.7882  -13.5251   21.1823 C   0  0  0  0  0  0
  -22.1661   -4.2147   21.0980 F   0  0  0  0  0  0
  -21.5630   -3.4537   25.7733 F   0  0  0  0  0  0
  -30.0453  -13.2429   20.4651 N   0  0  0  0  0  0
  -26.3064  -12.9307   20.3381 N   0  0  0  0  0  0
  -25.9319  -11.6465   20.5729 N   0  0  0  0  0  0
  -22.0505  -12.8256   22.0380 N   0  0  0  0  0  0
  -25.4392  -15.1867   20.4132 N   0  0  0  0  0  0
  -31.7743  -14.6820   20.0844 O   0  0  0  0  0  0
  -21.6640   -6.8872   21.4236 O   0  0  0  0  0  0
  -22.3569  -14.5559   20.6675 O   0  0  0  0  0  0
  -24.6107  -31.8693   23.2125 C   0  0  0  0  0  0
  -25.9013  -32.4824   23.8417 C   0  0  1  0  0  0
  -27.2476  -27.4610   20.1010 C   0  0  0  0  0  0
  -25.5880  -33.8624   24.2353 N   0  0  0  0  0  0
  -23.3981  -30.4926   21.5514 C   0  0  2  0  0  0
  -24.8482  -28.9605   20.1185 C   0  0  0  0  0  0
  -22.7389  -29.4660   22.4995 C   0  0  0  0  0  0
  -18.0265  -28.1385   22.8497 C   0  0  0  0  0  0
  -24.1481  -36.7319   23.2639 C   0  0  0  0  0  0
  -25.9224  -30.8445   21.3610 C   0  0  0  0  0  0
  -26.0029  -29.4772   20.7182 C   0  0  0  0  0  0
  -27.2043  -28.7375   20.7133 C   0  0  0  0  0  0
  -26.0793  -26.9613   19.4916 C   0  0  0  0  0  0
  -24.8790  -27.6973   19.5029 C   0  0  0  0  0  0
  -23.6075  -29.8229   20.1665 C   0  0  0  0  0  0
  -25.4094  -36.3112   24.0347 C   0  0  1  0  0  0
  -20.5852  -28.3659   23.1330 C   0  0  2  0  0  0
  -20.6748  -26.9396   22.5421 C   0  0  0  0  0  0
  -19.5730  -26.6400   21.5209 C   0  0  0  0  0  0
  -18.1911  -26.7935   22.1623 C   0  0  0  0  0  0
  -19.1515  -28.8839   23.2912 C   0  0  0  0  0  0
  -18.9442  -30.1447   23.8918 C   0  0  0  0  0  0
  -17.6446  -30.6589   24.0574 C   0  0  0  0  0  0
  -25.9022  -34.9475   23.5147 C   0  0  0  0  0  0
  -16.5338  -29.9092   23.6332 C   0  0  0  0  0  0
  -16.7256  -28.6513   23.0348 C   0  0  0  0  0  0
  -26.4466  -31.6583   25.0721 C   0  0  0  0  0  0
  -25.3756  -31.3682   26.1489 C   0  0  0  0  0  0
  -27.0283  -30.3027   24.6056 C   0  0  0  0  0  0
  -27.6058  -32.4294   25.7470 C   0  0  0  0  0  0
  -27.5582  -37.1801   24.8455 C   0  0  0  0  0  0
  -21.4118  -29.3031   22.3736 N   0  0  0  0  0  0
  -26.4281  -37.3796   23.9422 N   0  0  0  0  0  0
  -24.6620  -31.0833   22.1004 N   0  0  0  0  0  0
  -23.4170  -28.8197   23.3025 O   0  0  0  0  0  0
  -28.3670  -26.6584   20.0241 O   0  0  0  0  0  0
  -26.5586  -34.8921   22.4707 O   0  0  0  0  0  0
  -23.5308  -32.1426   23.7540 O   0  0  0  0  0  0
  -30.7701  -18.9327   20.6026 C   0  0  0  0  0  0
  -28.4966  -18.7106   21.4073 C   0  0  0  0  0  0
  -30.9682  -17.5437   20.7605 C   0  0  0  0  0  0
  -28.6916  -17.3232   21.5717 C   0  0  0  0  0  0
  -29.5294  -19.5433   20.9129 C   0  0  0  0  0  0
  -29.9207  -16.7202   21.2318 C   0  0  0  0  0  0
  -29.2861  -21.0065   20.6936 C   0  0  0  0  0  0
  -30.0619  -25.8726   23.3624 C   0  0  0  0  0  0
  -27.6746  -25.8144   22.7897 C   0  0  0  0  0  0
  -31.7377  -24.0574   21.3084 C   0  0  0  0  0  0
  -30.4830  -21.9509   20.9383 C   0  0  0  0  0  0
  -29.1640  -24.1033   21.7161 C   0  0  0  0  0  0
  -29.3343  -26.6651   21.0762 C   0  0  0  0  0  0
  -29.0858  -25.6022   22.1927 C   0  0  0  0  0  0
  -30.3576  -23.5200   20.8790 C   0  0  1  0  0  0
  -28.1424  -21.4264   20.3485 N   0  0  0  0  0  0
  -30.0320  -15.3101   21.3986 N   0  0  0  0  0  0
  -30.2012  -23.9330   19.5300 O   0  0  0  0  0  0
  -31.4748  -12.4065   19.1104 H   0  0  0  0  0  0
  -30.3356  -11.2725   19.7760 H   0  0  0  0  0  0
  -29.7328  -11.8156   17.4050 H   0  0  0  0  0  0
  -29.6749  -13.5166   17.7864 H   0  0  0  0  0  0
  -27.8131  -11.3291   18.7784 H   0  0  0  0  0  0
  -27.3717  -12.6931   17.7845 H   0  0  0  0  0  0
  -27.7315  -14.2566   19.6214 H   0  0  0  0  0  0
  -28.6768  -11.8691   21.2791 H   0  0  0  0  0  0
  -28.4535  -13.4626   21.9088 H   0  0  0  0  0  0
  -25.2745   -9.5700   22.4747 H   0  0  0  0  0  0
  -23.9997   -7.4642   22.7476 H   0  0  0  0  0  0
  -21.0824   -8.8774   19.8964 H   0  0  0  0  0  0
  -22.3674  -10.9671   19.6161 H   0  0  0  0  0  0
  -21.2010   -7.6142   23.9709 H   0  0  0  0  0  0
  -21.1482   -6.0522   25.9076 H   0  0  0  0  0  0
  -22.0598   -2.7607   23.2845 H   0  0  0  0  0  0
  -22.4090  -11.9915   22.4783 H   0  0  0  0  0  0
  -21.1130  -13.1318   22.2568 H   0  0  0  0  0  0
  -24.6786  -15.8471   20.5301 H   0  0  0  0  0  0
  -26.2965  -15.6217   20.0963 H   0  0  0  0  0  0
  -26.7080  -32.5569   23.1190 H   0  0  0  0  0  0
  -25.0029  -33.9789   25.0495 H   0  0  0  0  0  0
  -22.6857  -31.3082   21.4127 H   0  0  0  0  0  0
  -23.3736  -35.9659   23.3299 H   0  0  0  0  0  0
  -24.3581  -36.8933   22.2052 H   0  0  0  0  0  0
  -23.7239  -37.6530   23.6648 H   0  0  0  0  0  0
  -26.0268  -31.6051   20.5858 H   0  0  0  0  0  0
  -26.8131  -30.9070   21.9737 H   0  0  0  0  0  0
  -28.0819  -29.1747   21.1638 H   0  0  0  0  0  0
  -26.1017  -25.9923   19.0129 H   0  0  0  0  0  0
  -23.9931  -27.2925   19.0338 H   0  0  0  0  0  0
  -23.7120  -30.5966   19.4051 H   0  0  0  0  0  0
  -22.7336  -29.2385   19.8729 H   0  0  0  0  0  0
  -25.1259  -36.1981   25.0839 H   0  0  0  0  0  0
  -20.9962  -28.3221   24.1441 H   0  0  0  0  0  0
  -20.5649  -26.2255   23.3598 H   0  0  0  0  0  0
  -21.6617  -26.7433   22.1213 H   0  0  0  0  0  0
  -19.6881  -25.6319   21.1215 H   0  0  0  0  0  0
  -19.6681  -27.3227   20.6751 H   0  0  0  0  0  0
  -17.4180  -26.6700   21.4021 H   0  0  0  0  0  0
  -18.0305  -26.0072   22.9013 H   0  0  0  0  0  0
  -19.7917  -30.7262   24.2298 H   0  0  0  0  0  0
  -17.4999  -31.6269   24.5175 H   0  0  0  0  0  0
  -15.5338  -30.3000   23.7647 H   0  0  0  0  0  0
  -15.8656  -28.0843   22.7048 H   0  0  0  0  0  0
  -24.5913  -30.7039   25.7842 H   0  0  0  0  0  0
  -24.8961  -32.2833   26.4973 H   0  0  0  0  0  0
  -25.8131  -30.8835   27.0226 H   0  0  0  0  0  0
  -26.2806  -29.6799   24.1129 H   0  0  0  0  0  0
  -27.4087  -29.7245   25.4488 H   0  0  0  0  0  0
  -27.8629  -30.4358   23.9167 H   0  0  0  0  0  0
  -27.2689  -33.3581   26.2092 H   0  0  0  0  0  0
  -28.3835  -32.6877   25.0269 H   0  0  0  0  0  0
  -28.0760  -31.8388   26.5343 H   0  0  0  0  0  0
  -28.2577  -38.0122   24.7530 H   0  0  0  0  0  0
  -28.1100  -36.2652   24.6230 H   0  0  0  0  0  0
  -27.2315  -37.1397   25.8863 H   0  0  0  0  0  0
  -20.9267  -29.8764   21.6979 H   0  0  0  0  0  0
  -26.0170  -38.2872   24.1438 H   0  0  0  0  0  0
  -31.5913  -19.5167   20.2163 H   0  0  0  0  0  0
  -27.5355  -19.1320   21.6669 H   0  0  0  0  0  0
  -31.9323  -17.1276   20.5071 H   0  0  0  0  0  0
  -27.8727  -16.7245   21.9472 H   0  0  0  0  0  0
  -30.0017  -25.0954   24.1252 H   0  0  0  0  0  0
  -29.8354  -26.8204   23.8526 H   0  0  0  0  0  0
  -31.0997  -25.9465   23.0469 H   0  0  0  0  0  0
  -27.5050  -25.1793   23.6602 H   0  0  0  0  0  0
  -26.8903  -25.5791   22.0700 H   0  0  0  0  0  0
  -27.5211  -26.8479   23.1041 H   0  0  0  0  0  0
  -31.9245  -23.8569   22.3641 H   0  0  0  0  0  0
  -31.8576  -25.1253   21.1443 H   0  0  0  0  0  0
  -32.5449  -23.5798   20.7514 H   0  0  0  0  0  0
  -31.2689  -21.6599   20.2425 H   0  0  0  0  0  0
  -30.8689  -21.6893   21.9249 H   0  0  0  0  0  0
  -28.2521  -23.9069   21.1520 H   0  0  0  0  0  0
  -29.0669  -23.4833   22.6085 H   0  0  0  0  0  0
  -30.2937  -26.4906   20.5968 H   0  0  0  0  0  0
  -29.4476  -27.6488   21.5260 H   0  0  0  0  0  0
  -27.4845  -20.6624   20.2405 H   0  0  0  0  0  0
  -29.2516  -14.8842   21.8746 H   0  0  0  0  0  0
  -30.9043  -23.5554   19.0141 H   0  0  0  0  0  0
  1 25  1  0  0  0
  1 30  2  0  0  0
  1 87  1  0  0  0
  2  3  1  0  0  0
  2 25  1  0  0  0
  2 89  1  0  0  0
  2 90  1  0  0  0
  3  4  1  0  0  0
  3 91  1  0  0  0
  3 92  1  0  0  0
  4  5  1  0  0  0
  4 93  1  0  0  0
  4 94  1  0  0  0
  5  6  1  0  0  0
  5 26  1  0  0  0
  5 95  1  0  0  0
  6 25  1  0  0  0
  6 96  1  0  0  0
  6 97  1  0  0  0
  7  8  2  0  0  0
  7 26  1  0  0  0
  7 29  1  0  0  0
  8  9  1  0  0  0
  8 22  1  0  0  0
  9 10  1  0  0  0
  9 27  2  0  0  0
 10 11  2  0  0  0
 10 15  1  0  0  0
 11 12  1  0  0  0
 11 98  1  0  0  0
 12 13  2  0  0  0
 12 99  1  0  0  0
 13 14  1  0  0  0
 13 31  1  0  0  0
 14 15  2  0  0  0
 14100  1  0  0  0
 15101  1  0  0  0
 16 17  2  0  0  0
 16 21  1  0  0  0
 16 31  1  0  0  0
 17 18  1  0  0  0
 17102  1  0  0  0
 18 19  2  0  0  0
 18103  1  0  0  0
 19 20  1  0  0  0
 19 24  1  0  0  0
 20 21  2  0  0  0
 20104  1  0  0  0
 21 23  1  0  0  0
 22 28  1  0  0  0
 22 32  2  0  0  0
 26 27  1  0  0  0
 28105  1  0  0  0
 28106  1  0  0  0
 29107  1  0  0  0
 29108  1  0  0  0
 33 34  1  0  0  0
 33 66  1  0  0  0
 33 70  2  0  0  0
 34 36  1  0  0  0
 34 59  1  0  0  0
 34109  1  0  0  0
 35 44  2  0  0  0
 35 45  1  0  0  0
 35 68  1  0  0  0
 36 56  1  0  0  0
 36110  1  0  0  0
 37 39  1  0  0  0
 37 47  1  0  0  0
 37 66  1  0  0  0
 37111  1  0  0  0
 38 43  2  0  0  0
 38 46  1  0  0  0
 38 47  1  0  0  0
 39 64  1  0  0  0
 39 67  2  0  0  0
 40 52  1  0  0  0
 40 53  2  0  0  0
 40 58  1  0  0  0
 41112  1  0  0  0
 41113  1  0  0  0
 41114  1  0  0  0
 41 48  1  0  0  0
 42 43  1  0  0  0
 42 66  1  0  0  0
 42115  1  0  0  0
 42116  1  0  0  0
 43 44  1  0  0  0
 44117  1  0  0  0
 45 46  2  0  0  0
 45118  1  0  0  0
 46119  1  0  0  0
 47120  1  0  0  0
 47121  1  0  0  0
 48 56  1  0  0  0
 48 65  1  0  0  0
 48122  1  0  0  0
 49 50  1  0  0  0
 49 53  1  0  0  0
 49 64  1  0  0  0
 49123  1  0  0  0
 50 51  1  0  0  0
 50124  1  0  0  0
 50125  1  0  0  0
 51 52  1  0  0  0
 51126  1  0  0  0
 51127  1  0  0  0
 52128  1  0  0  0
 52129  1  0  0  0
 53 54  1  0  0  0
 54 55  2  0  0  0
 54130  1  0  0  0
 55 57  1  0  0  0
 55131  1  0  0  0
 56 69  2  0  0  0
 57 58  2  0  0  0
 57132  1  0  0  0
 58133  1  0  0  0
 59 60  1  0  0  0
 59 61  1  0  0  0
 59 62  1  0  0  0
 60134  1  0  0  0
 60135  1  0  0  0
 60136  1  0  0  0
 61137  1  0  0  0
 61138  1  0  0  0
 61139  1  0  0  0
 62140  1  0  0  0
 62141  1  0  0  0
 62142  1  0  0  0
 63 65  1  0  0  0
 63143  1  0  0  0
 63144  1  0  0  0
 63145  1  0  0  0
 64146  1  0  0  0
 65147  1  0  0  0
 68 83  1  0  0  0
 71 73  2  0  0  0
 71 75  1  0  0  0
 71148  1  0  0  0
 72 74  1  0  0  0
 72 75  2  0  0  0
 72149  1  0  0  0
 73 76  1  0  0  0
 73150  1  0  0  0
 74 76  2  0  0  0
 74151  1  0  0  0
 75 77  1  0  0  0
 76 87  1  0  0  0
 77 81  1  0  0  0
 77 86  2  0  0  0
 78152  1  0  0  0
 78153  1  0  0  0
 78154  1  0  0  0
 78 84  1  0  0  0
 79 84  1  0  0  0
 79155  1  0  0  0
 79156  1  0  0  0
 79157  1  0  0  0
 80158  1  0  0  0
 80159  1  0  0  0
 80160  1  0  0  0
 80 85  1  0  0  0
 81 85  1  0  0  0
 81161  1  0  0  0
 81162  1  0  0  0
 82 84  1  0  0  0
 82 85  1  0  0  0
 82163  1  0  0  0
 82164  1  0  0  0
 83 84  1  0  0  0
 83165  1  0  0  0
 83166  1  0  0  0
 85 88  1  0  0  0
 86167  1  0  0  0
 87168  1  0  0  0
 88169  1  0  0  0
M  ISO  4   1 100  68 101  83 101  87 100
M  END
> <chiral flag>
0

> <version>
0

> <s_m_source_file>
/data/baiqing/PycharmProjects/Reinvent-master-3.2/result/LINK_invent/BTK/process_docking_weight1_custom_product_contain_oxygen_bond_distance_aromatic_linkinvent_7_9_3/rearranged_h_0142.sdf

> <i_m_source_file_index>
18

> <r_mmod_Potential_Energy-OPLS-2005>
61.4100036621094

> <r_mmod_Stretch_Energy-OPLS-2005>
44.9134063720703

> <r_mmod_Bend_Energy-OPLS-2005>
144.333312988281

> <r_mmod_Torsional_Energy-OPLS-2005>
251.704742431641

> <r_mmod_Improper_Torsional_Energy-OPLS-2005>
4.01422595977783

> <r_mmod_Van_der_Waal_Energy-OPLS-2005>
162.284332275391

> <r_mmod_Electrostatic_Energy-OPLS-2005>
-321.985443115234

> <r_mmod_Solvation_Energy-OPLS-2005>
-232.035339355469

> <b_mmod_Minimization_Converged-OPLS-2005>
0

> <r_mmod_RMS_Derivative-OPLS-2005>
1.19871127605438

$$$$
18
                    3D
 Structure written by MMmdl.
169178  0  0  1  0            999 V2000
  -30.6034  -14.7785   20.4395 C   0  0  0  0  0  0
  -30.4312  -12.4750   19.4553 C   0  0  0  0  0  0
  -29.5121  -12.5158   18.2173 C   0  0  0  0  0  0
  -28.0270  -12.3663   18.6148 C   0  0  0  0  0  0
  -27.6312  -13.2459   19.8353 C   0  0  2  0  0  0
  -28.6844  -13.2045   20.9624 C   0  0  0  0  0  0
  -25.2498  -13.8210   20.5732 C   0  0  0  0  0  0
  -24.1794  -13.0421   20.9194 C   0  0  0  0  0  0
  -24.6412  -11.6923   20.8713 C   0  0  0  0  0  0
  -23.9103  -10.4285   21.0372 C   0  0  0  0  0  0
  -24.3627   -9.4213   21.9169 C   0  0  0  0  0  0
  -23.6304   -8.2254   22.0748 C   0  0  0  0  0  0
  -22.4304   -8.0281   21.3539 C   0  0  0  0  0  0
  -21.9930   -9.0266   20.4648 C   0  0  0  0  0  0
  -22.7250  -10.2134   20.3047 C   0  0  0  0  0  0
  -21.6858   -6.0733   22.5291 C   0  0  0  0  0  0
  -21.4029   -6.5643   23.8208 C   0  0  0  0  0  0
  -21.3659   -5.6785   24.9171 C   0  0  0  0  0  0
  -21.6034   -4.3055   24.7209 C   0  0  0  0  0  0
  -21.8820   -3.8152   23.4336 C   0  0  0  0  0  0
  -21.9199   -4.6973   22.3392 C   0  0  0  0  0  0
  -22.7841  -13.5218   21.1838 C   0  0  0  0  0  0
  -22.1668   -4.2168   21.0977 F   0  0  0  0  0  0
  -21.5617   -3.4534   25.7716 F   0  0  0  0  0  0
  -29.9719  -13.5554   20.3526 N   0  0  0  0  0  0
  -26.2912  -12.9442   20.3265 N   0  0  0  0  0  0
  -25.9337  -11.6558   20.5706 N   0  0  0  0  0  0
  -22.0475  -12.8218   22.0406 N   0  0  0  0  0  0
  -25.4113  -15.1952   20.4243 N   0  0  0  0  0  0
  -31.8255  -14.8437   20.2902 O   0  0  0  0  0  0
  -21.6648   -6.8899   21.4254 O   0  0  0  0  0  0
  -22.3521  -14.5490   20.6650 O   0  0  0  0  0  0
  -24.6353  -31.8552   23.2002 C   0  0  0  0  0  0
  -25.9183  -32.4763   23.8318 C   0  0  1  0  0  0
  -27.1721  -27.2506   20.0966 C   0  0  0  0  0  0
  -25.5998  -33.8555   24.2284 N   0  0  0  0  0  0
  -23.4241  -30.4897   21.5487 C   0  0  2  0  0  0
  -24.8541  -28.9441   20.1123 C   0  0  0  0  0  0
  -22.7566  -29.4617   22.4948 C   0  0  0  0  0  0
  -18.0283  -28.1399   22.8462 C   0  0  0  0  0  0
  -24.1484  -36.7292   23.2633 C   0  0  0  0  0  0
  -25.9748  -30.7763   21.3645 C   0  0  0  0  0  0
  -26.0363  -29.3924   20.7140 C   0  0  0  0  0  0
  -27.2037  -28.5595   20.6899 C   0  0  0  0  0  0
  -25.9603  -26.8837   19.4637 C   0  0  0  0  0  0
  -24.8239  -27.7001   19.4736 C   0  0  0  0  0  0
  -23.6308  -29.8312   20.1633 C   0  0  0  0  0  0
  -25.4100  -36.3090   24.0338 C   0  0  1  0  0  0
  -20.5908  -28.3692   23.1268 C   0  0  2  0  0  0
  -20.6765  -26.9401   22.5402 C   0  0  0  0  0  0
  -19.5742  -26.6381   21.5194 C   0  0  0  0  0  0
  -18.1921  -26.7932   22.1607 C   0  0  0  0  0  0
  -19.1546  -28.8849   23.2859 C   0  0  0  0  0  0
  -18.9468  -30.1445   23.8881 C   0  0  0  0  0  0
  -17.6457  -30.6571   24.0546 C   0  0  0  0  0  0
  -25.9069  -34.9445   23.5110 C   0  0  0  0  0  0
  -16.5340  -29.9086   23.6314 C   0  0  0  0  0  0
  -16.7268  -28.6506   23.0320 C   0  0  0  0  0  0
  -26.4511  -31.6525   25.0684 C   0  0  0  0  0  0
  -25.3714  -31.3606   26.1401 C   0  0  0  0  0  0
  -27.0310  -30.2962   24.6018 C   0  0  0  0  0  0
  -27.6100  -32.4172   25.7511 C   0  0  0  0  0  0
  -27.5571  -37.1811   24.8486 C   0  0  0  0  0  0
  -21.4274  -29.3064   22.3722 N   0  0  0  0  0  0
  -26.4272  -37.3789   23.9456 N   0  0  0  0  0  0
  -24.6997  -31.0590   22.0942 N   0  0  0  0  0  0
  -23.4289  -28.8131   23.3009 O   0  0  0  0  0  0
  -28.2430  -26.3270   20.1335 O   0  0  0  0  0  0
  -26.5580  -34.8908   22.4664 O   0  0  0  0  0  0
  -23.5500  -32.1339   23.7325 O   0  0  0  0  0  0
  -29.5018  -18.0974   23.2771 C   0  0  0  0  0  0
  -29.8355  -17.0448   22.4223 C   0  0  0  0  0  0
  -29.5310  -18.5739   20.5373 C   0  0  0  0  0  0
  -29.2591  -19.7328   21.4077 C   0  0  0  0  0  0
  -29.1718  -19.3832   22.8002 C   0  0  0  0  0  0
  -29.7891  -17.2072   21.0315 C   0  0  0  0  0  0
  -30.1472  -22.2132   21.6655 C   0  0  0  0  0  0
  -29.8205  -23.6906   21.3293 C   0  0  0  0  0  0
  -29.0287  -21.3255   21.0788 C   0  0  1  0  0  0
  -29.1173  -23.7352   19.9534 C   0  0  1  0  0  0
  -28.7818  -22.1249   19.7070 C   0  0  0  0  0  0
  -28.6641  -20.3201   23.8947 C   0  0  0  0  0  0
  -30.0628  -24.3334   18.8808 C   0  0  0  0  0  0
  -27.3137  -21.9310   19.2644 C   0  0  0  0  0  0
  -29.6850  -21.5070   18.6045 C   0  0  0  0  0  0
  -27.9434  -24.8572   19.9621 C   0  0  0  0  0  0
  -29.8314  -15.9272   20.2751 N   0  0  0  0  0  0
  -31.4738  -12.6044   19.1603 H   0  0  0  0  0  0
  -30.3713  -11.5066   19.9533 H   0  0  0  0  0  0
  -29.7890  -11.7400   17.5023 H   0  0  0  0  0  0
  -29.6516  -13.4680   17.7027 H   0  0  0  0  0  0
  -27.8325  -11.3151   18.8256 H   0  0  0  0  0  0
  -27.3937  -12.6265   17.7649 H   0  0  0  0  0  0
  -27.6105  -14.2703   19.4630 H   0  0  0  0  0  0
  -28.7250  -12.2180   21.4314 H   0  0  0  0  0  0
  -28.4262  -13.9187   21.7497 H   0  0  0  0  0  0
  -25.2767   -9.5690   22.4741 H   0  0  0  0  0  0
  -24.0019   -7.4641   22.7463 H   0  0  0  0  0  0
  -21.0851   -8.8763   19.8952 H   0  0  0  0  0  0
  -22.3704  -10.9664   19.6148 H   0  0  0  0  0  0
  -21.2035   -7.6160   23.9718 H   0  0  0  0  0  0
  -21.1483   -6.0525   25.9067 H   0  0  0  0  0  0
  -22.0605   -2.7632   23.2816 H   0  0  0  0  0  0
  -22.4117  -11.9920   22.4854 H   0  0  0  0  0  0
  -21.1077  -13.1237   22.2533 H   0  0  0  0  0  0
  -24.6396  -15.8392   20.5649 H   0  0  0  0  0  0
  -26.2646  -15.6607   20.1464 H   0  0  0  0  0  0
  -26.7285  -32.5372   23.1084 H   0  0  0  0  0  0
  -25.0341  -33.9644   25.0559 H   0  0  0  0  0  0
  -22.7192  -31.3113   21.4110 H   0  0  0  0  0  0
  -23.3736  -35.9642   23.3259 H   0  0  0  0  0  0
  -24.3605  -36.8924   22.2068 H   0  0  0  0  0  0
  -23.7197  -37.6480   23.6626 H   0  0  0  0  0  0
  -26.0807  -31.5193   20.5722 H   0  0  0  0  0  0
  -26.8750  -30.8543   21.9657 H   0  0  0  0  0  0
  -28.1146  -28.8968   21.1643 H   0  0  0  0  0  0
  -25.8334  -25.9431   18.9520 H   0  0  0  0  0  0
  -23.9192  -27.3655   18.9842 H   0  0  0  0  0  0
  -23.7677  -30.6021   19.4072 H   0  0  0  0  0  0
  -22.7434  -29.2725   19.8550 H   0  0  0  0  0  0
  -25.1244  -36.1973   25.0811 H   0  0  0  0  0  0
  -20.9931  -28.3242   24.1415 H   0  0  0  0  0  0
  -20.5638  -26.2298   23.3627 H   0  0  0  0  0  0
  -21.6648  -26.7433   22.1212 H   0  0  0  0  0  0
  -19.6918  -25.6297   21.1226 H   0  0  0  0  0  0
  -19.6665  -27.3190   20.6729 H   0  0  0  0  0  0
  -17.4202  -26.6653   21.3993 H   0  0  0  0  0  0
  -18.0319  -26.0053   22.8993 H   0  0  0  0  0  0
  -19.7928  -30.7252   24.2260 H   0  0  0  0  0  0
  -17.5006  -31.6246   24.5181 H   0  0  0  0  0  0
  -15.5337  -30.2980   23.7632 H   0  0  0  0  0  0
  -15.8679  -28.0826   22.7035 H   0  0  0  0  0  0
  -24.6041  -30.6782   25.7728 H   0  0  0  0  0  0
  -24.8735  -32.2722   26.4702 H   0  0  0  0  0  0
  -25.8066  -30.8923   27.0249 H   0  0  0  0  0  0
  -26.2910  -29.6878   24.0820 H   0  0  0  0  0  0
  -27.3855  -29.7017   25.4447 H   0  0  0  0  0  0
  -27.8812  -30.4305   23.9331 H   0  0  0  0  0  0
  -27.2814  -33.3549   26.1990 H   0  0  0  0  0  0
  -28.4019  -32.6556   25.0401 H   0  0  0  0  0  0
  -28.0616  -31.8286   26.5515 H   0  0  0  0  0  0
  -28.2596  -38.0101   24.7544 H   0  0  0  0  0  0
  -28.1040  -36.2637   24.6275 H   0  0  0  0  0  0
  -27.2301  -37.1436   25.8886 H   0  0  0  0  0  0
  -20.9488  -29.8840   21.6966 H   0  0  0  0  0  0
  -26.0143  -38.2871   24.1433 H   0  0  0  0  0  0
  -29.4471  -17.8907   24.3383 H   0  0  0  0  0  0
  -30.0136  -16.0761   22.8637 H   0  0  0  0  0  0
  -29.5202  -18.7208   19.4692 H   0  0  0  0  0  0
  -30.2719  -22.0932   22.7369 H   0  0  0  0  0  0
  -31.1030  -21.9387   21.2195 H   0  0  0  0  0  0
  -30.7225  -24.3105   21.3562 H   0  0  0  0  0  0
  -29.1582  -24.0959   22.1010 H   0  0  0  0  0  0
  -28.1127  -21.5804   21.6058 H   0  0  0  0  0  0
  -28.0982  -19.7501   24.6340 H   0  0  0  0  0  0
  -27.9675  -21.0854   23.5639 H   0  0  0  0  0  0
  -29.4868  -20.7942   24.4264 H   0  0  0  0  0  0
  -29.5357  -24.4617   17.9329 H   0  0  0  0  0  0
  -30.9581  -23.7408   18.7054 H   0  0  0  0  0  0
  -30.3978  -25.3279   19.1797 H   0  0  0  0  0  0
  -27.1419  -22.2964   18.2523 H   0  0  0  0  0  0
  -26.6163  -22.4469   19.9232 H   0  0  0  0  0  0
  -27.0357  -20.8769   19.2785 H   0  0  0  0  0  0
  -30.7225  -21.4203   18.9391 H   0  0  0  0  0  0
  -29.6693  -22.1002   17.6894 H   0  0  0  0  0  0
  -29.3564  -20.5148   18.3064 H   0  0  0  0  0  0
  -27.1827  -24.5637   20.6876 H   0  0  0  0  0  0
  -27.4817  -24.7497   18.9805 H   0  0  0  0  0  0
  -28.9760  -15.7456   19.7779 H   0  0  0  0  0  0
  1 25  1  0  0  0
  1 30  2  0  0  0
  1 87  1  0  0  0
  2  3  1  0  0  0
  2 25  1  0  0  0
  2 88  1  0  0  0
  2 89  1  0  0  0
  3  4  1  0  0  0
  3 90  1  0  0  0
  3 91  1  0  0  0
  4  5  1  0  0  0
  4 92  1  0  0  0
  4 93  1  0  0  0
  5  6  1  0  0  0
  5 26  1  0  0  0
  5 94  1  0  0  0
  6 25  1  0  0  0
  6 95  1  0  0  0
  6 96  1  0  0  0
  7  8  2  0  0  0
  7 26  1  0  0  0
  7 29  1  0  0  0
  8  9  1  0  0  0
  8 22  1  0  0  0
  9 10  1  0  0  0
  9 27  2  0  0  0
 10 11  2  0  0  0
 10 15  1  0  0  0
 11 12  1  0  0  0
 11 97  1  0  0  0
 12 13  2  0  0  0
 12 98  1  0  0  0
 13 14  1  0  0  0
 13 31  1  0  0  0
 14 15  2  0  0  0
 14 99  1  0  0  0
 15100  1  0  0  0
 16 17  2  0  0  0
 16 21  1  0  0  0
 16 31  1  0  0  0
 17 18  1  0  0  0
 17101  1  0  0  0
 18 19  2  0  0  0
 18102  1  0  0  0
 19 20  1  0  0  0
 19 24  1  0  0  0
 20 21  2  0  0  0
 20103  1  0  0  0
 21 23  1  0  0  0
 22 28  1  0  0  0
 22 32  2  0  0  0
 26 27  1  0  0  0
 28104  1  0  0  0
 28105  1  0  0  0
 29106  1  0  0  0
 29107  1  0  0  0
 33 34  1  0  0  0
 33 66  1  0  0  0
 33 70  2  0  0  0
 34 36  1  0  0  0
 34 59  1  0  0  0
 34108  1  0  0  0
 35 44  2  0  0  0
 35 45  1  0  0  0
 35 68  1  0  0  0
 36 56  1  0  0  0
 36109  1  0  0  0
 37 39  1  0  0  0
 37 47  1  0  0  0
 37 66  1  0  0  0
 37110  1  0  0  0
 38 43  2  0  0  0
 38 46  1  0  0  0
 38 47  1  0  0  0
 39 64  1  0  0  0
 39 67  2  0  0  0
 40 52  1  0  0  0
 40 53  2  0  0  0
 40 58  1  0  0  0
 41111  1  0  0  0
 41112  1  0  0  0
 41113  1  0  0  0
 41 48  1  0  0  0
 42 43  1  0  0  0
 42 66  1  0  0  0
 42114  1  0  0  0
 42115  1  0  0  0
 43 44  1  0  0  0
 44116  1  0  0  0
 45 46  2  0  0  0
 45117  1  0  0  0
 46118  1  0  0  0
 47119  1  0  0  0
 47120  1  0  0  0
 48 56  1  0  0  0
 48 65  1  0  0  0
 48121  1  0  0  0
 49 50  1  0  0  0
 49 53  1  0  0  0
 49 64  1  0  0  0
 49122  1  0  0  0
 50 51  1  0  0  0
 50123  1  0  0  0
 50124  1  0  0  0
 51 52  1  0  0  0
 51125  1  0  0  0
 51126  1  0  0  0
 52127  1  0  0  0
 52128  1  0  0  0
 53 54  1  0  0  0
 54 55  2  0  0  0
 54129  1  0  0  0
 55 57  1  0  0  0
 55130  1  0  0  0
 56 69  2  0  0  0
 57 58  2  0  0  0
 57131  1  0  0  0
 58132  1  0  0  0
 59 60  1  0  0  0
 59 61  1  0  0  0
 59 62  1  0  0  0
 60133  1  0  0  0
 60134  1  0  0  0
 60135  1  0  0  0
 61136  1  0  0  0
 61137  1  0  0  0
 61138  1  0  0  0
 62139  1  0  0  0
 62140  1  0  0  0
 62141  1  0  0  0
 63 65  1  0  0  0
 63142  1  0  0  0
 63143  1  0  0  0
 63144  1  0  0  0
 64145  1  0  0  0
 65146  1  0  0  0
 68 86  1  0  0  0
 71 72  2  0  0  0
 71 75  1  0  0  0
 71147  1  0  0  0
 72 76  1  0  0  0
 72148  1  0  0  0
 73 74  1  0  0  0
 73 76  2  0  0  0
 73149  1  0  0  0
 74 75  2  0  0  0
 74 79  1  0  0  0
 75 82  1  0  0  0
 76 87  1  0  0  0
 77 78  1  0  0  0
 77 79  1  0  0  0
 77150  1  0  0  0
 77151  1  0  0  0
 78 80  1  0  0  0
 78152  1  0  0  0
 78153  1  0  0  0
 79 81  1  0  0  0
 79154  1  0  0  0
 80 81  1  0  0  0
 80 83  1  0  0  0
 80 86  1  0  0  0
 81 84  1  0  0  0
 81 85  1  0  0  0
 82155  1  0  0  0
 82156  1  0  0  0
 82157  1  0  0  0
 83158  1  0  0  0
 83159  1  0  0  0
 83160  1  0  0  0
 84161  1  0  0  0
 84162  1  0  0  0
 84163  1  0  0  0
 85164  1  0  0  0
 85165  1  0  0  0
 85166  1  0  0  0
 86167  1  0  0  0
 86168  1  0  0  0
 87169  1  0  0  0
M  ISO  4   1 100  68 101  86 101  87 100
M  END
> <chiral flag>
0

> <version>
0

> <s_m_source_file>
/data/baiqing/PycharmProjects/Reinvent-master-3.2/result/LINK_invent/BTK/process_docking_weight1_custom_product_contain_oxygen_bond_distance_aromatic_linkinvent_7_9_3/rearranged_h_0142.sdf

> <i_m_source_file_index>
19

> <r_mmod_Potential_Energy-OPLS-2005>
461.863128662109

> <r_mmod_Stretch_Energy-OPLS-2005>
163.375839233398

> <r_mmod_Bend_Energy-OPLS-2005>
263.267791748047

> <r_mmod_Torsional_Energy-OPLS-2005>
341.160919189453

> <r_mmod_Improper_Torsional_Energy-OPLS-2005>
13.5592727661133

> <r_mmod_Van_der_Waal_Energy-OPLS-2005>
156.776245117188

> <r_mmod_Electrostatic_Energy-OPLS-2005>
-386.7138671875

> <r_mmod_Solvation_Energy-OPLS-2005>
-195.178161621094

> <b_mmod_Minimization_Converged-OPLS-2005>
0

> <r_mmod_RMS_Derivative-OPLS-2005>
7.84555435180664

$$$$
19
                    3D
 Structure written by MMmdl.
165173  0  0  1  0            999 V2000
  -30.7614  -14.4240   20.6610 C   0  0  0  0  0  0
  -30.4188  -12.3050   19.4168 C   0  0  0  0  0  0
  -29.4921  -12.5140   18.2030 C   0  0  0  0  0  0
  -28.0135  -12.3702   18.6127 C   0  0  0  0  0  0
  -27.6621  -13.2076   19.8700 C   0  0  2  0  0  0
  -28.7020  -12.9842   20.9906 C   0  0  0  0  0  0
  -25.2585  -13.8167   20.5665 C   0  0  0  0  0  0
  -24.1843  -13.0442   20.9177 C   0  0  0  0  0  0
  -24.6398  -11.6910   20.8731 C   0  0  0  0  0  0
  -23.9063  -10.4295   21.0404 C   0  0  0  0  0  0
  -24.3617   -9.4211   21.9179 C   0  0  0  0  0  0
  -23.6292   -8.2246   22.0754 C   0  0  0  0  0  0
  -22.4272   -8.0282   21.3546 C   0  0  0  0  0  0
  -21.9906   -9.0255   20.4649 C   0  0  0  0  0  0
  -22.7236  -10.2134   20.3056 C   0  0  0  0  0  0
  -21.6850   -6.0735   22.5276 C   0  0  0  0  0  0
  -21.4017   -6.5640   23.8212 C   0  0  0  0  0  0
  -21.3661   -5.6793   24.9175 C   0  0  0  0  0  0
  -21.6044   -4.3054   24.7224 C   0  0  0  0  0  0
  -21.8823   -3.8146   23.4344 C   0  0  0  0  0  0
  -21.9194   -4.6963   22.3400 C   0  0  0  0  0  0
  -22.7858  -13.5234   21.1841 C   0  0  0  0  0  0
  -22.1659   -4.2150   21.0978 F   0  0  0  0  0  0
  -21.5627   -3.4538   25.7737 F   0  0  0  0  0  0
  -30.0407  -13.2834   20.4521 N   0  0  0  0  0  0
  -26.3024  -12.9341   20.3325 N   0  0  0  0  0  0
  -25.9329  -11.6500   20.5753 N   0  0  0  0  0  0
  -22.0491  -12.8230   22.0399 N   0  0  0  0  0  0
  -25.4323  -15.1883   20.4088 N   0  0  0  0  0  0
  -31.8287  -14.6100   20.0644 O   0  0  0  0  0  0
  -21.6638   -6.8879   21.4239 O   0  0  0  0  0  0
  -22.3545  -14.5540   20.6686 O   0  0  0  0  0  0
  -24.6163  -31.8702   23.2122 C   0  0  0  0  0  0
  -25.9060  -32.4835   23.8411 C   0  0  1  0  0  0
  -27.2236  -27.4403   20.0872 C   0  0  0  0  0  0
  -25.5922  -33.8631   24.2349 N   0  0  0  0  0  0
  -23.4028  -30.4978   21.5541 C   0  0  2  0  0  0
  -24.8453  -28.9721   20.1140 C   0  0  0  0  0  0
  -22.7417  -29.4679   22.4995 C   0  0  0  0  0  0
  -18.0277  -28.1386   22.8491 C   0  0  0  0  0  0
  -24.1482  -36.7311   23.2634 C   0  0  0  0  0  0
  -25.9332  -30.8416   21.3613 C   0  0  0  0  0  0
  -26.0110  -29.4788   20.7038 C   0  0  0  0  0  0
  -27.2085  -28.7243   20.6802 C   0  0  0  0  0  0
  -26.0338  -26.9493   19.5054 C   0  0  0  0  0  0
  -24.8514  -27.7059   19.5109 C   0  0  0  0  0  0
  -23.6089  -29.8387   20.1665 C   0  0  0  0  0  0
  -25.4100  -36.3108   24.0336 C   0  0  1  0  0  0
  -20.5867  -28.3675   23.1314 C   0  0  2  0  0  0
  -20.6768  -26.9412   22.5411 C   0  0  0  0  0  0
  -19.5743  -26.6395   21.5209 C   0  0  0  0  0  0
  -18.1923  -26.7932   22.1622 C   0  0  0  0  0  0
  -19.1527  -28.8841   23.2905 C   0  0  0  0  0  0
  -18.9455  -30.1446   23.8917 C   0  0  0  0  0  0
  -17.6461  -30.6589   24.0567 C   0  0  0  0  0  0
  -25.9033  -34.9477   23.5130 C   0  0  0  0  0  0
  -16.5350  -29.9094   23.6324 C   0  0  0  0  0  0
  -16.7267  -28.6512   23.0343 C   0  0  0  0  0  0
  -26.4474  -31.6593   25.0726 C   0  0  0  0  0  0
  -25.3739  -31.3702   26.1474 C   0  0  0  0  0  0
  -27.0290  -30.3037   24.6071 C   0  0  0  0  0  0
  -27.6058  -32.4298   25.7488 C   0  0  0  0  0  0
  -27.5577  -37.1809   24.8470 C   0  0  0  0  0  0
  -21.4144  -29.3047   22.3728 N   0  0  0  0  0  0
  -26.4290  -37.3789   23.9413 N   0  0  0  0  0  0
  -24.6697  -31.0818   22.1019 N   0  0  0  0  0  0
  -23.4190  -28.8209   23.3026 O   0  0  0  0  0  0
  -28.3706  -26.6707   20.0882 O   0  0  0  0  0  0
  -26.5580  -34.8926   22.4682 O   0  0  0  0  0  0
  -23.5357  -32.1446   23.7525 O   0  0  0  0  0  0
  -33.0982  -18.1053   21.9677 C   0  0  0  0  0  0
  -32.3353  -16.9320   22.1056 C   0  0  0  0  0  0
  -32.6280  -19.1623   21.1744 C   0  0  0  0  0  0
  -30.6253  -17.8686   20.6735 C   0  0  0  0  0  0
  -31.0752  -16.7795   21.4697 C   0  0  0  0  0  0
  -31.3862  -19.0523   20.5137 C   0  0  0  0  0  0
  -30.7894  -21.2463   20.0690 C   0  0  0  0  0  0
  -30.5419  -22.4738   19.2140 C   0  0  0  0  0  0
  -28.2498  -24.4500   18.2446 C   0  0  0  0  0  0
  -27.6594  -22.9569   20.1700 C   0  0  0  0  0  0
  -30.0635  -23.7613   19.9174 C   0  0  0  0  0  0
  -28.2077  -25.3545   20.6516 C   0  0  0  0  0  0
  -30.2389  -15.5237   21.6417 C   0  0  2  0  0  0
  -28.5585  -24.1387   19.7297 C   0  0  0  0  0  0
  -30.9602  -20.0544   19.6350 N   0  0  0  0  0  0
  -30.2539  -15.0811   23.0472 N   0  3  0  0  0  0
  -30.7301  -22.4679   17.9914 O   0  0  0  0  0  0
  -31.4640  -12.3866   19.1126 H   0  0  0  0  0  0
  -30.3096  -11.2916   19.8065 H   0  0  0  0  0  0
  -29.7322  -11.7939   17.4204 H   0  0  0  0  0  0
  -29.6646  -13.5020   17.7739 H   0  0  0  0  0  0
  -27.8234  -11.3136   18.8061 H   0  0  0  0  0  0
  -27.3636  -12.6473   17.7820 H   0  0  0  0  0  0
  -27.7083  -14.2562   19.5753 H   0  0  0  0  0  0
  -28.6725  -11.9477   21.3314 H   0  0  0  0  0  0
  -28.4352  -13.5799   21.8606 H   0  0  0  0  0  0
  -25.2768   -9.5681   22.4748 H   0  0  0  0  0  0
  -24.0001   -7.4641   22.7472 H   0  0  0  0  0  0
  -21.0836   -8.8775   19.8955 H   0  0  0  0  0  0
  -22.3698  -10.9669   19.6163 H   0  0  0  0  0  0
  -21.2011   -7.6148   23.9717 H   0  0  0  0  0  0
  -21.1476   -6.0520   25.9077 H   0  0  0  0  0  0
  -22.0602   -2.7607   23.2845 H   0  0  0  0  0  0
  -22.4079  -11.9883   22.4791 H   0  0  0  0  0  0
  -21.1108  -13.1266   22.2599 H   0  0  0  0  0  0
  -24.6636  -15.8421   20.5133 H   0  0  0  0  0  0
  -26.2760  -15.6262   20.0617 H   0  0  0  0  0  0
  -26.7141  -32.5544   23.1188 H   0  0  0  0  0  0
  -25.0107  -33.9802   25.0517 H   0  0  0  0  0  0
  -22.6906  -31.3148   21.4198 H   0  0  0  0  0  0
  -23.3739  -35.9653   23.3311 H   0  0  0  0  0  0
  -24.3583  -36.8911   22.2049 H   0  0  0  0  0  0
  -23.7247  -37.6526   23.6632 H   0  0  0  0  0  0
  -26.0404  -31.6093   20.5938 H   0  0  0  0  0  0
  -26.8244  -30.8957   21.9747 H   0  0  0  0  0  0
  -28.1096  -29.1128   21.1346 H   0  0  0  0  0  0
  -25.9952  -25.9721   19.0580 H   0  0  0  0  0  0
  -23.9540  -27.3055   19.0602 H   0  0  0  0  0  0
  -23.7193  -30.6179   19.4112 H   0  0  0  0  0  0
  -22.7314  -29.2626   19.8672 H   0  0  0  0  0  0
  -25.1273  -36.1972   25.0828 H   0  0  0  0  0  0
  -20.9963  -28.3242   24.1433 H   0  0  0  0  0  0
  -20.5674  -26.2282   23.3602 H   0  0  0  0  0  0
  -21.6640  -26.7454   22.1202 H   0  0  0  0  0  0
  -19.6903  -25.6309   21.1229 H   0  0  0  0  0  0
  -19.6681  -27.3214   20.6746 H   0  0  0  0  0  0
  -17.4192  -26.6686   21.4023 H   0  0  0  0  0  0
  -18.0321  -26.0070   22.9011 H   0  0  0  0  0  0
  -19.7932  -30.7253   24.2300 H   0  0  0  0  0  0
  -17.5017  -31.6269   24.5171 H   0  0  0  0  0  0
  -15.5352  -30.3006   23.7636 H   0  0  0  0  0  0
  -15.8667  -28.0844   22.7040 H   0  0  0  0  0  0
  -24.5937  -30.7010   25.7825 H   0  0  0  0  0  0
  -24.8896  -32.2857   26.4881 H   0  0  0  0  0  0
  -25.8103  -30.8920   27.0255 H   0  0  0  0  0  0
  -26.2835  -29.6834   24.1077 H   0  0  0  0  0  0
  -27.4037  -29.7226   25.4510 H   0  0  0  0  0  0
  -27.8677  -30.4371   23.9234 H   0  0  0  0  0  0
  -27.2697  -33.3606   26.2069 H   0  0  0  0  0  0
  -28.3869  -32.6843   25.0307 H   0  0  0  0  0  0
  -28.0716  -31.8410   26.5399 H   0  0  0  0  0  0
  -28.2598  -38.0100   24.7501 H   0  0  0  0  0  0
  -28.1061  -36.2629   24.6301 H   0  0  0  0  0  0
  -27.2295  -37.1483   25.8874 H   0  0  0  0  0  0
  -20.9299  -29.8794   21.6975 H   0  0  0  0  0  0
  -26.0173  -38.2863   24.1413 H   0  0  0  0  0  0
  -34.0581  -18.1875   22.4587 H   0  0  0  0  0  0
  -32.7453  -16.1354   22.7106 H   0  0  0  0  0  0
  -33.2442  -20.0434   21.0557 H   0  0  0  0  0  0
  -29.6793  -17.7879   20.1553 H   0  0  0  0  0  0
  -30.8263  -21.4316   21.1466 H   0  0  0  0  0  0
  -28.5034  -23.6212   17.5858 H   0  0  0  0  0  0
  -28.8008  -25.3232   17.8930 H   0  0  0  0  0  0
  -27.1929  -24.6261   18.0683 H   0  0  0  0  0  0
  -27.7976  -22.0713   19.5490 H   0  0  0  0  0  0
  -26.6014  -23.2144   20.1035 H   0  0  0  0  0  0
  -27.8546  -22.6698   21.2045 H   0  0  0  0  0  0
  -30.6865  -24.5846   19.5677 H   0  0  0  0  0  0
  -30.2825  -23.6589   20.9806 H   0  0  0  0  0  0
  -28.8301  -25.3193   21.5462 H   0  0  0  0  0  0
  -27.1993  -25.2323   21.0526 H   0  0  0  0  0  0
  -29.2055  -15.7497   21.3734 H   0  0  0  0  0  0
  -31.1726  -14.7644   23.2978 H   0  0  0  0  0  0
  -29.6080  -14.3282   23.1939 H   0  0  0  0  0  0
  -29.9977  -15.8455   23.6449 H   0  0  0  0  0  0
  1 25  1  0  0  0
  1 30  2  0  0  0
  1 83  1  0  0  0
  2  3  1  0  0  0
  2 25  1  0  0  0
  2 88  1  0  0  0
  2 89  1  0  0  0
  3  4  1  0  0  0
  3 90  1  0  0  0
  3 91  1  0  0  0
  4  5  1  0  0  0
  4 92  1  0  0  0
  4 93  1  0  0  0
  5  6  1  0  0  0
  5 26  1  0  0  0
  5 94  1  0  0  0
  6 25  1  0  0  0
  6 95  1  0  0  0
  6 96  1  0  0  0
  7  8  2  0  0  0
  7 26  1  0  0  0
  7 29  1  0  0  0
  8  9  1  0  0  0
  8 22  1  0  0  0
  9 10  1  0  0  0
  9 27  2  0  0  0
 10 11  2  0  0  0
 10 15  1  0  0  0
 11 12  1  0  0  0
 11 97  1  0  0  0
 12 13  2  0  0  0
 12 98  1  0  0  0
 13 14  1  0  0  0
 13 31  1  0  0  0
 14 15  2  0  0  0
 14 99  1  0  0  0
 15100  1  0  0  0
 16 17  2  0  0  0
 16 21  1  0  0  0
 16 31  1  0  0  0
 17 18  1  0  0  0
 17101  1  0  0  0
 18 19  2  0  0  0
 18102  1  0  0  0
 19 20  1  0  0  0
 19 24  1  0  0  0
 20 21  2  0  0  0
 20103  1  0  0  0
 21 23  1  0  0  0
 22 28  1  0  0  0
 22 32  2  0  0  0
 26 27  1  0  0  0
 28104  1  0  0  0
 28105  1  0  0  0
 29106  1  0  0  0
 29107  1  0  0  0
 33 34  1  0  0  0
 33 66  1  0  0  0
 33 70  2  0  0  0
 34 36  1  0  0  0
 34 59  1  0  0  0
 34108  1  0  0  0
 35 44  2  0  0  0
 35 45  1  0  0  0
 35 68  1  0  0  0
 36 56  1  0  0  0
 36109  1  0  0  0
 37 39  1  0  0  0
 37 47  1  0  0  0
 37 66  1  0  0  0
 37110  1  0  0  0
 38 43  2  0  0  0
 38 46  1  0  0  0
 38 47  1  0  0  0
 39 64  1  0  0  0
 39 67  2  0  0  0
 40 52  1  0  0  0
 40 53  2  0  0  0
 40 58  1  0  0  0
 41111  1  0  0  0
 41112  1  0  0  0
 41113  1  0  0  0
 41 48  1  0  0  0
 42 43  1  0  0  0
 42 66  1  0  0  0
 42114  1  0  0  0
 42115  1  0  0  0
 43 44  1  0  0  0
 44116  1  0  0  0
 45 46  2  0  0  0
 45117  1  0  0  0
 46118  1  0  0  0
 47119  1  0  0  0
 47120  1  0  0  0
 48 56  1  0  0  0
 48 65  1  0  0  0
 48121  1  0  0  0
 49 50  1  0  0  0
 49 53  1  0  0  0
 49 64  1  0  0  0
 49122  1  0  0  0
 50 51  1  0  0  0
 50123  1  0  0  0
 50124  1  0  0  0
 51 52  1  0  0  0
 51125  1  0  0  0
 51126  1  0  0  0
 52127  1  0  0  0
 52128  1  0  0  0
 53 54  1  0  0  0
 54 55  2  0  0  0
 54129  1  0  0  0
 55 57  1  0  0  0
 55130  1  0  0  0
 56 69  2  0  0  0
 57 58  2  0  0  0
 57131  1  0  0  0
 58132  1  0  0  0
 59 60  1  0  0  0
 59 61  1  0  0  0
 59 62  1  0  0  0
 60133  1  0  0  0
 60134  1  0  0  0
 60135  1  0  0  0
 61136  1  0  0  0
 61137  1  0  0  0
 61138  1  0  0  0
 62139  1  0  0  0
 62140  1  0  0  0
 62141  1  0  0  0
 63 65  1  0  0  0
 63142  1  0  0  0
 63143  1  0  0  0
 63144  1  0  0  0
 64145  1  0  0  0
 65146  1  0  0  0
 68 82  1  0  0  0
 71 72  2  0  0  0
 71 73  1  0  0  0
 71147  1  0  0  0
 72 75  1  0  0  0
 72148  1  0  0  0
 73 76  2  0  0  0
 73149  1  0  0  0
 74 75  2  0  0  0
 74 76  1  0  0  0
 74150  1  0  0  0
 75 83  1  0  0  0
 76 85  1  0  0  0
 77 78  1  0  0  0
 77 85  2  0  0  0
 77151  1  0  0  0
 78 81  1  0  0  0
 78 87  2  0  0  0
 79152  1  0  0  0
 79153  1  0  0  0
 79154  1  0  0  0
 79 84  1  0  0  0
 80 84  1  0  0  0
 80155  1  0  0  0
 80156  1  0  0  0
 80157  1  0  0  0
 81 84  1  0  0  0
 81158  1  0  0  0
 81159  1  0  0  0
 82 84  1  0  0  0
 82160  1  0  0  0
 82161  1  0  0  0
 83 86  1  0  0  0
 83162  1  0  0  0
 86163  1  0  0  0
 86164  1  0  0  0
 86165  1  0  0  0
M  CHG  1  86   1
M  ISO  4   1 100  68 101  82 101  83 100
M  END
> <chiral flag>
0

> <version>
0

> <s_m_source_file>
/data/baiqing/PycharmProjects/Reinvent-master-3.2/result/LINK_invent/BTK/process_docking_weight1_custom_product_contain_oxygen_bond_distance_aromatic_linkinvent_7_9_3/rearranged_h_0142.sdf

> <i_m_source_file_index>
20

> <r_mmod_Potential_Energy-OPLS-2005>
-254.207580566406

> <r_mmod_Stretch_Energy-OPLS-2005>
45.0740852355957

> <r_mmod_Bend_Energy-OPLS-2005>
106.493858337402

> <r_mmod_Torsional_Energy-OPLS-2005>
209.264068603516

> <r_mmod_Improper_Torsional_Energy-OPLS-2005>
2.00418972969055

> <r_mmod_Van_der_Waal_Energy-OPLS-2005>
166.830963134766

> <r_mmod_Electrostatic_Energy-OPLS-2005>
-265.201538085938

> <r_mmod_Solvation_Energy-OPLS-2005>
-529.333984375

> <b_mmod_Minimization_Converged-OPLS-2005>
0

> <r_mmod_RMS_Derivative-OPLS-2005>
1.02116227149963

$$$$
20
                    3D
 Structure written by MMmdl.
173181  0  0  1  0            999 V2000
  -30.6246  -14.5681   20.4760 C   0  0  0  0  0  0
  -30.4439  -12.3175   19.4575 C   0  0  0  0  0  0
  -29.5132  -12.3647   18.2220 C   0  0  0  0  0  0
  -28.0169  -12.3324   18.6153 C   0  0  0  0  0  0
  -27.6535  -13.1868   19.8640 C   0  0  2  0  0  0
  -28.6972  -13.0200   20.9875 C   0  0  0  0  0  0
  -25.2598  -13.8114   20.5720 C   0  0  0  0  0  0
  -24.1811  -13.0435   20.9200 C   0  0  0  0  0  0
  -24.6315  -11.6891   20.8739 C   0  0  0  0  0  0
  -23.8979  -10.4290   21.0395 C   0  0  0  0  0  0
  -24.3571   -9.4217   21.9171 C   0  0  0  0  0  0
  -23.6264   -8.2238   22.0755 C   0  0  0  0  0  0
  -22.4245   -8.0266   21.3549 C   0  0  0  0  0  0
  -21.9860   -9.0217   20.4648 C   0  0  0  0  0  0
  -22.7162  -10.2106   20.3040 C   0  0  0  0  0  0
  -21.6853   -6.0712   22.5271 C   0  0  0  0  0  0
  -21.4022   -6.5611   23.8206 C   0  0  0  0  0  0
  -21.3664   -5.6767   24.9160 C   0  0  0  0  0  0
  -21.6046   -4.3027   24.7208 C   0  0  0  0  0  0
  -21.8825   -3.8122   23.4324 C   0  0  0  0  0  0
  -21.9199   -4.6942   22.3391 C   0  0  0  0  0  0
  -22.7838  -13.5267   21.1826 C   0  0  0  0  0  0
  -22.1680   -4.2139   21.0960 F   0  0  0  0  0  0
  -21.5632   -3.4510   25.7717 F   0  0  0  0  0  0
  -30.0171  -13.3467   20.4217 N   0  0  0  0  0  0
  -26.2969  -12.9216   20.3328 N   0  0  0  0  0  0
  -25.9234  -11.6416   20.5762 N   0  0  0  0  0  0
  -22.0429  -12.8307   22.0362 N   0  0  0  0  0  0
  -25.4375  -15.1834   20.4235 N   0  0  0  0  0  0
  -31.7883  -14.7479   20.1001 O   0  0  0  0  0  0
  -21.6644   -6.8839   21.4229 O   0  0  0  0  0  0
  -22.3540  -14.5547   20.6611 O   0  0  0  0  0  0
  -24.6155  -31.8670   23.2112 C   0  0  0  0  0  0
  -25.9043  -32.4820   23.8415 C   0  0  1  0  0  0
  -27.2400  -27.4296   20.1074 C   0  0  0  0  0  0
  -25.5893  -33.8619   24.2349 N   0  0  0  0  0  0
  -23.4064  -30.4872   21.5512 C   0  0  2  0  0  0
  -24.8565  -28.9470   20.1251 C   0  0  0  0  0  0
  -22.7426  -29.4642   22.5011 C   0  0  0  0  0  0
  -18.0271  -28.1369   22.8491 C   0  0  0  0  0  0
  -24.1478  -36.7308   23.2638 C   0  0  0  0  0  0
  -25.9358  -30.8280   21.3701 C   0  0  0  0  0  0
  -26.0150  -29.4583   20.7251 C   0  0  0  0  0  0
  -27.2124  -28.7049   20.7177 C   0  0  0  0  0  0
  -26.0705  -26.9328   19.5013 C   0  0  0  0  0  0
  -24.8769  -27.6810   19.5134 C   0  0  0  0  0  0
  -23.6182  -29.8147   20.1680 C   0  0  0  0  0  0
  -25.4099  -36.3117   24.0343 C   0  0  1  0  0  0
  -20.5861  -28.3656   23.1313 C   0  0  2  0  0  0
  -20.6762  -26.9392   22.5413 C   0  0  0  0  0  0
  -19.5742  -26.6377   21.5207 C   0  0  0  0  0  0
  -18.1914  -26.7920   22.1615 C   0  0  0  0  0  0
  -19.1518  -28.8831   23.2900 C   0  0  0  0  0  0
  -18.9447  -30.1435   23.8913 C   0  0  0  0  0  0
  -17.6449  -30.6576   24.0559 C   0  0  0  0  0  0
  -25.9023  -34.9476   23.5148 C   0  0  0  0  0  0
  -16.5342  -29.9074   23.6323 C   0  0  0  0  0  0
  -16.7259  -28.6489   23.0351 C   0  0  0  0  0  0
  -26.4470  -31.6585   25.0737 C   0  0  0  0  0  0
  -25.3742  -31.3671   26.1485 C   0  0  0  0  0  0
  -27.0284  -30.3017   24.6113 C   0  0  0  0  0  0
  -27.6057  -32.4292   25.7495 C   0  0  0  0  0  0
  -27.5578  -37.1809   24.8465 C   0  0  0  0  0  0
  -21.4156  -29.3024   22.3733 N   0  0  0  0  0  0
  -26.4290  -37.3796   23.9409 N   0  0  0  0  0  0
  -24.6701  -31.0751   22.1025 N   0  0  0  0  0  0
  -23.4187  -28.8179   23.3055 O   0  0  0  0  0  0
  -28.3921  -26.6844   20.0149 O   0  0  0  0  0  0
  -26.5591  -34.8926   22.4711 O   0  0  0  0  0  0
  -23.5342  -32.1427   23.7494 O   0  0  0  0  0  0
  -29.3702  -19.5468   19.1789 C   0  0  0  0  0  0
  -30.0269  -18.0711   20.9920 C   0  0  0  0  0  0
  -29.8435  -19.3994   20.4926 C   0  0  0  0  0  0
  -29.0252  -18.4445   18.3860 C   0  0  0  0  0  0
  -29.2208  -17.1297   18.8773 C   0  0  0  0  0  0
  -29.7386  -16.9223   20.1949 C   0  0  0  0  0  0
  -28.4881  -24.3991   20.9724 C   0  0  0  0  0  0
  -28.8319  -15.9781   17.9679 C   0  0  0  0  0  0
  -26.8607  -18.7171   17.0979 C   0  0  0  0  0  0
  -30.4975  -20.4450   22.7513 C   0  0  0  0  0  0
  -30.1955  -23.5125   19.3997 C   0  0  0  0  0  0
  -30.8045  -23.7675   21.8464 C   0  0  0  0  0  0
  -28.3946  -18.7449   17.0322 C   0  0  0  0  0  0
  -28.7609  -25.9180   21.1700 C   0  0  0  0  0  0
  -29.1782  -21.8952   21.1138 C   0  0  0  0  0  0
  -30.2120  -20.6964   21.2608 C   0  0  2  0  0  0
  -29.6782  -23.3816   20.8520 C   0  0  0  0  0  0
  -29.8002  -15.6025   20.7890 N   0  0  0  0  0  0
  -27.3215  -24.0058   20.8822 O   0  0  0  0  0  0
  -31.3743  -21.0337   20.7072 F   0  0  0  0  0  0
  -31.4824  -12.4459   19.1483 H   0  0  0  0  0  0
  -30.3993  -11.3365   19.9330 H   0  0  0  0  0  0
  -29.7286  -11.5049   17.5850 H   0  0  0  0  0  0
  -29.7470  -13.2123   17.5854 H   0  0  0  0  0  0
  -27.7631  -11.2891   18.8087 H   0  0  0  0  0  0
  -27.4006  -12.6293   17.7650 H   0  0  0  0  0  0
  -27.6639  -14.2259   19.5572 H   0  0  0  0  0  0
  -28.6943  -11.9937   21.3532 H   0  0  0  0  0  0
  -28.4450  -13.6435   21.8474 H   0  0  0  0  0  0
  -25.2719   -9.5717   22.4718 H   0  0  0  0  0  0
  -24.0012   -7.4627   22.7445 H   0  0  0  0  0  0
  -21.0804   -8.8671   19.8939 H   0  0  0  0  0  0
  -22.3599  -10.9619   19.6130 H   0  0  0  0  0  0
  -21.2029   -7.6118   23.9713 H   0  0  0  0  0  0
  -21.1497   -6.0488   25.9071 H   0  0  0  0  0  0
  -22.0614   -2.7584   23.2810 H   0  0  0  0  0  0
  -22.4049  -12.0048   22.4874 H   0  0  0  0  0  0
  -21.1003  -13.1281   22.2416 H   0  0  0  0  0  0
  -24.6760  -15.8368   20.5656 H   0  0  0  0  0  0
  -26.2945  -15.6324   20.1293 H   0  0  0  0  0  0
  -26.7124  -32.5529   23.1187 H   0  0  0  0  0  0
  -25.0060  -33.9790   25.0511 H   0  0  0  0  0  0
  -22.6960  -31.3033   21.4072 H   0  0  0  0  0  0
  -23.3750  -35.9630   23.3311 H   0  0  0  0  0  0
  -24.3579  -36.8913   22.2051 H   0  0  0  0  0  0
  -23.7219  -37.6510   23.6647 H   0  0  0  0  0  0
  -26.0524  -31.5907   20.5987 H   0  0  0  0  0  0
  -26.8213  -30.8841   21.9915 H   0  0  0  0  0  0
  -28.1126  -29.1024   21.1648 H   0  0  0  0  0  0
  -26.0873  -25.9659   19.0188 H   0  0  0  0  0  0
  -23.9890  -27.2806   19.0440 H   0  0  0  0  0  0
  -23.7306  -30.5856   19.4046 H   0  0  0  0  0  0
  -22.7442  -29.2311   19.8727 H   0  0  0  0  0  0
  -25.1281  -36.1990   25.0837 H   0  0  0  0  0  0
  -20.9947  -28.3204   24.1434 H   0  0  0  0  0  0
  -20.5654  -26.2261   23.3599 H   0  0  0  0  0  0
  -21.6632  -26.7424   22.1206 H   0  0  0  0  0  0
  -19.6895  -25.6287   21.1234 H   0  0  0  0  0  0
  -19.6683  -27.3191   20.6738 H   0  0  0  0  0  0
  -17.4192  -26.6686   21.4005 H   0  0  0  0  0  0
  -18.0304  -26.0045   22.8994 H   0  0  0  0  0  0
  -19.7921  -30.7248   24.2292 H   0  0  0  0  0  0
  -17.4997  -31.6266   24.5144 H   0  0  0  0  0  0
  -15.5339  -30.2979   23.7632 H   0  0  0  0  0  0
  -15.8661  -28.0801   22.7076 H   0  0  0  0  0  0
  -24.5953  -30.6970   25.7829 H   0  0  0  0  0  0
  -24.8882  -32.2801   26.4929 H   0  0  0  0  0  0
  -25.8107  -30.8863   27.0250 H   0  0  0  0  0  0
  -26.2820  -29.6798   24.1154 H   0  0  0  0  0  0
  -27.4021  -29.7234   25.4575 H   0  0  0  0  0  0
  -27.8680  -30.4320   23.9283 H   0  0  0  0  0  0
  -27.2695  -33.3582   26.2113 H   0  0  0  0  0  0
  -28.3845  -32.6864   25.0305 H   0  0  0  0  0  0
  -28.0753  -31.8391   26.5377 H   0  0  0  0  0  0
  -28.2611  -38.0096   24.7516 H   0  0  0  0  0  0
  -28.1068  -36.2633   24.6290 H   0  0  0  0  0  0
  -27.2306  -37.1453   25.8874 H   0  0  0  0  0  0
  -20.9326  -29.8753   21.6956 H   0  0  0  0  0  0
  -26.0188  -38.2877   24.1418 H   0  0  0  0  0  0
  -29.2590  -20.5356   18.7588 H   0  0  0  0  0  0
  -30.3948  -17.9168   21.9954 H   0  0  0  0  0  0
  -29.1999  -16.1028   16.9511 H   0  0  0  0  0  0
  -27.7500  -15.8579   17.9338 H   0  0  0  0  0  0
  -29.2606  -15.0561   18.3075 H   0  0  0  0  0  0
  -26.4225  -19.0166   16.1463 H   0  0  0  0  0  0
  -26.4905  -19.4011   17.8633 H   0  0  0  0  0  0
  -26.4893  -17.7200   17.3346 H   0  0  0  0  0  0
  -29.6322  -20.0018   23.2430 H   0  0  0  0  0  0
  -30.7232  -21.3730   23.2750 H   0  0  0  0  0  0
  -31.3510  -19.7821   22.8974 H   0  0  0  0  0  0
  -30.5278  -24.5278   19.1786 H   0  0  0  0  0  0
  -29.4157  -23.2657   18.6762 H   0  0  0  0  0  0
  -31.0384  -22.8561   19.1973 H   0  0  0  0  0  0
  -31.2700  -24.7222   21.6062 H   0  0  0  0  0  0
  -31.6328  -23.0621   21.8344 H   0  0  0  0  0  0
  -30.4376  -23.8160   22.8728 H   0  0  0  0  0  0
  -28.7585  -18.0725   16.2567 H   0  0  0  0  0  0
  -28.7114  -19.7379   16.7074 H   0  0  0  0  0  0
  -29.8103  -26.1153   21.3634 H   0  0  0  0  0  0
  -28.2171  -26.2638   22.0492 H   0  0  0  0  0  0
  -28.5626  -21.8916   22.0144 H   0  0  0  0  0  0
  -28.4452  -21.6672   20.3427 H   0  0  0  0  0  0
  -28.9258  -15.2916   21.1834 H   0  0  0  0  0  0
  1 25  1  0  0  0
  1 30  2  0  0  0
  1 88  1  0  0  0
  2  3  1  0  0  0
  2 25  1  0  0  0
  2 91  1  0  0  0
  2 92  1  0  0  0
  3  4  1  0  0  0
  3 93  1  0  0  0
  3 94  1  0  0  0
  4  5  1  0  0  0
  4 95  1  0  0  0
  4 96  1  0  0  0
  5  6  1  0  0  0
  5 26  1  0  0  0
  5 97  1  0  0  0
  6 25  1  0  0  0
  6 98  1  0  0  0
  6 99  1  0  0  0
  7  8  2  0  0  0
  7 26  1  0  0  0
  7 29  1  0  0  0
  8  9  1  0  0  0
  8 22  1  0  0  0
  9 10  1  0  0  0
  9 27  2  0  0  0
 10 11  2  0  0  0
 10 15  1  0  0  0
 11 12  1  0  0  0
 11100  1  0  0  0
 12 13  2  0  0  0
 12101  1  0  0  0
 13 14  1  0  0  0
 13 31  1  0  0  0
 14 15  2  0  0  0
 14102  1  0  0  0
 15103  1  0  0  0
 16 17  2  0  0  0
 16 21  1  0  0  0
 16 31  1  0  0  0
 17 18  1  0  0  0
 17104  1  0  0  0
 18 19  2  0  0  0
 18105  1  0  0  0
 19 20  1  0  0  0
 19 24  1  0  0  0
 20 21  2  0  0  0
 20106  1  0  0  0
 21 23  1  0  0  0
 22 28  1  0  0  0
 22 32  2  0  0  0
 26 27  1  0  0  0
 28107  1  0  0  0
 28108  1  0  0  0
 29109  1  0  0  0
 29110  1  0  0  0
 33 34  1  0  0  0
 33 66  1  0  0  0
 33 70  2  0  0  0
 34 36  1  0  0  0
 34 59  1  0  0  0
 34111  1  0  0  0
 35 44  2  0  0  0
 35 45  1  0  0  0
 35 68  1  0  0  0
 36 56  1  0  0  0
 36112  1  0  0  0
 37 39  1  0  0  0
 37 47  1  0  0  0
 37 66  1  0  0  0
 37113  1  0  0  0
 38 43  2  0  0  0
 38 46  1  0  0  0
 38 47  1  0  0  0
 39 64  1  0  0  0
 39 67  2  0  0  0
 40 52  1  0  0  0
 40 53  2  0  0  0
 40 58  1  0  0  0
 41114  1  0  0  0
 41115  1  0  0  0
 41116  1  0  0  0
 41 48  1  0  0  0
 42 43  1  0  0  0
 42 66  1  0  0  0
 42117  1  0  0  0
 42118  1  0  0  0
 43 44  1  0  0  0
 44119  1  0  0  0
 45 46  2  0  0  0
 45120  1  0  0  0
 46121  1  0  0  0
 47122  1  0  0  0
 47123  1  0  0  0
 48 56  1  0  0  0
 48 65  1  0  0  0
 48124  1  0  0  0
 49 50  1  0  0  0
 49 53  1  0  0  0
 49 64  1  0  0  0
 49125  1  0  0  0
 50 51  1  0  0  0
 50126  1  0  0  0
 50127  1  0  0  0
 51 52  1  0  0  0
 51128  1  0  0  0
 51129  1  0  0  0
 52130  1  0  0  0
 52131  1  0  0  0
 53 54  1  0  0  0
 54 55  2  0  0  0
 54132  1  0  0  0
 55 57  1  0  0  0
 55133  1  0  0  0
 56 69  2  0  0  0
 57 58  2  0  0  0
 57134  1  0  0  0
 58135  1  0  0  0
 59 60  1  0  0  0
 59 61  1  0  0  0
 59 62  1  0  0  0
 60136  1  0  0  0
 60137  1  0  0  0
 60138  1  0  0  0
 61139  1  0  0  0
 61140  1  0  0  0
 61141  1  0  0  0
 62142  1  0  0  0
 62143  1  0  0  0
 62144  1  0  0  0
 63 65  1  0  0  0
 63145  1  0  0  0
 63146  1  0  0  0
 63147  1  0  0  0
 64148  1  0  0  0
 65149  1  0  0  0
 68 84  1  0  0  0
 71 73  2  0  0  0
 71 74  1  0  0  0
 71150  1  0  0  0
 72 73  1  0  0  0
 72 76  2  0  0  0
 72151  1  0  0  0
 73 86  1  0  0  0
 74 75  2  0  0  0
 74 83  1  0  0  0
 75 76  1  0  0  0
 75 78  1  0  0  0
 76 88  1  0  0  0
 77 84  1  0  0  0
 77 87  1  0  0  0
 77 89  2  0  0  0
 78152  1  0  0  0
 78153  1  0  0  0
 78154  1  0  0  0
 79 83  1  0  0  0
 79155  1  0  0  0
 79156  1  0  0  0
 79157  1  0  0  0
 80158  1  0  0  0
 80159  1  0  0  0
 80160  1  0  0  0
 80 86  1  0  0  0
 81161  1  0  0  0
 81162  1  0  0  0
 81163  1  0  0  0
 81 87  1  0  0  0
 82 87  1  0  0  0
 82164  1  0  0  0
 82165  1  0  0  0
 82166  1  0  0  0
 83167  1  0  0  0
 83168  1  0  0  0
 84169  1  0  0  0
 84170  1  0  0  0
 85 86  1  0  0  0
 85 87  1  0  0  0
 85171  1  0  0  0
 85172  1  0  0  0
 86 90  1  0  0  0
 88173  1  0  0  0
M  ISO  4   1 100  68 101  84 101  88 100
M  END
> <chiral flag>
0

> <version>
0

> <s_m_source_file>
/data/baiqing/PycharmProjects/Reinvent-master-3.2/result/LINK_invent/BTK/process_docking_weight1_custom_product_contain_oxygen_bond_distance_aromatic_linkinvent_7_9_3/rearranged_h_0142.sdf

> <i_m_source_file_index>
21

> <r_mmod_Potential_Energy-OPLS-2005>
116.67359161377

> <r_mmod_Stretch_Energy-OPLS-2005>
58.5883636474609

> <r_mmod_Bend_Energy-OPLS-2005>
121.569526672363

> <r_mmod_Torsional_Energy-OPLS-2005>
323.707885742188

> <r_mmod_Improper_Torsional_Energy-OPLS-2005>
7.00223350524902

> <r_mmod_Van_der_Waal_Energy-OPLS-2005>
164.726989746094

> <r_mmod_Electrostatic_Energy-OPLS-2005>
-378.149230957031

> <r_mmod_Solvation_Energy-OPLS-2005>
-206.064300537109

> <b_mmod_Minimization_Converged-OPLS-2005>
0

> <r_mmod_RMS_Derivative-OPLS-2005>
3.00922918319702

$$$$
21
                    3D
 Structure written by MMmdl.
167176  0  0  1  0            999 V2000
  -30.6604  -14.5149   20.5678 C   0  0  0  0  0  0
  -30.4398  -12.3306   19.4245 C   0  0  0  0  0  0
  -29.5035  -12.5055   18.2090 C   0  0  0  0  0  0
  -28.0237  -12.3579   18.6200 C   0  0  0  0  0  0
  -27.6635  -13.2003   19.8733 C   0  0  2  0  0  0
  -28.7054  -12.9734   20.9920 C   0  0  0  0  0  0
  -25.2590  -13.8129   20.5654 C   0  0  0  0  0  0
  -24.1842  -13.0417   20.9159 C   0  0  0  0  0  0
  -24.6388  -11.6885   20.8717 C   0  0  0  0  0  0
  -23.9047  -10.4281   21.0403 C   0  0  0  0  0  0
  -24.3603   -9.4203   21.9188 C   0  0  0  0  0  0
  -23.6278   -8.2240   22.0762 C   0  0  0  0  0  0
  -22.4261   -8.0275   21.3552 C   0  0  0  0  0  0
  -21.9887   -9.0246   20.4654 C   0  0  0  0  0  0
  -22.7216  -10.2124   20.3058 C   0  0  0  0  0  0
  -21.6853   -6.0717   22.5280 C   0  0  0  0  0  0
  -21.4016   -6.5627   23.8212 C   0  0  0  0  0  0
  -21.3657   -5.6782   24.9173 C   0  0  0  0  0  0
  -21.6042   -4.3043   24.7232 C   0  0  0  0  0  0
  -21.8823   -3.8135   23.4355 C   0  0  0  0  0  0
  -21.9198   -4.6946   22.3405 C   0  0  0  0  0  0
  -22.7871  -13.5236   21.1830 C   0  0  0  0  0  0
  -22.1670   -4.2133   21.0985 F   0  0  0  0  0  0
  -21.5624   -3.4532   25.7744 F   0  0  0  0  0  0
  -30.0359  -13.3073   20.4486 N   0  0  0  0  0  0
  -26.3030  -12.9294   20.3334 N   0  0  0  0  0  0
  -25.9313  -11.6458   20.5736 N   0  0  0  0  0  0
  -22.0504  -12.8246   22.0395 N   0  0  0  0  0  0
  -25.4295  -15.1840   20.4052 N   0  0  0  0  0  0
  -31.7800  -14.7410   20.0982 O   0  0  0  0  0  0
  -21.6641   -6.8864   21.4241 O   0  0  0  0  0  0
  -22.3570  -14.5553   20.6690 O   0  0  0  0  0  0
  -24.6164  -31.8660   23.2077 C   0  0  0  0  0  0
  -25.9051  -32.4811   23.8385 C   0  0  1  0  0  0
  -27.2404  -27.4211   20.1035 C   0  0  0  0  0  0
  -25.5900  -33.8606   24.2324 N   0  0  0  0  0  0
  -23.4071  -30.4883   21.5468 C   0  0  2  0  0  0
  -24.8589  -28.9522   20.1125 C   0  0  0  0  0  0
  -22.7428  -29.4646   22.4962 C   0  0  0  0  0  0
  -18.0283  -28.1367   22.8490 C   0  0  0  0  0  0
  -24.1489  -36.7307   23.2638 C   0  0  0  0  0  0
  -25.9374  -30.8282   21.3639 C   0  0  0  0  0  0
  -26.0190  -29.4610   20.7116 C   0  0  0  0  0  0
  -27.2161  -28.7027   20.7046 C   0  0  0  0  0  0
  -26.0679  -26.9326   19.4914 C   0  0  0  0  0  0
  -24.8791  -27.6876   19.4970 C   0  0  0  0  0  0
  -23.6187  -29.8184   20.1623 C   0  0  0  0  0  0
  -25.4106  -36.3101   24.0343 C   0  0  1  0  0  0
  -20.5874  -28.3660   23.1297 C   0  0  2  0  0  0
  -20.6767  -26.9388   22.5409 C   0  0  0  0  0  0
  -19.5744  -26.6376   21.5203 C   0  0  0  0  0  0
  -18.1925  -26.7915   22.1616 C   0  0  0  0  0  0
  -19.1532  -28.8830   23.2891 C   0  0  0  0  0  0
  -18.9460  -30.1437   23.8901 C   0  0  0  0  0  0
  -17.6461  -30.6571   24.0562 C   0  0  0  0  0  0
  -25.9035  -34.9468   23.5132 C   0  0  0  0  0  0
  -16.5353  -29.9074   23.6319 C   0  0  0  0  0  0
  -16.7272  -28.6489   23.0345 C   0  0  0  0  0  0
  -26.4474  -31.6585   25.0712 C   0  0  0  0  0  0
  -25.3751  -31.3692   26.1471 C   0  0  0  0  0  0
  -27.0293  -30.3024   24.6083 C   0  0  0  0  0  0
  -27.6055  -32.4296   25.7471 C   0  0  0  0  0  0
  -27.5581  -37.1805   24.8464 C   0  0  0  0  0  0
  -21.4153  -29.3029   22.3707 N   0  0  0  0  0  0
  -26.4292  -37.3788   23.9413 N   0  0  0  0  0  0
  -24.6717  -31.0754   22.0982 N   0  0  0  0  0  0
  -23.4196  -28.8195   23.3014 O   0  0  0  0  0  0
  -28.3630  -26.6165   20.1230 O   0  0  0  0  0  0
  -26.5593  -34.8925   22.4691 O   0  0  0  0  0  0
  -23.5350  -32.1415   23.7458 O   0  0  0  0  0  0
  -30.5615  -19.1872   21.3620 C   0  0  0  0  0  0
  -30.7866  -17.7885   21.4551 C   0  0  0  0  0  0
  -28.7693  -17.3983   20.1796 C   0  0  0  0  0  0
  -29.4178  -19.7203   20.7089 C   0  0  0  0  0  0
  -28.5447  -18.7931   20.0676 C   0  0  0  0  0  0
  -29.8693  -16.8743   20.8909 C   0  0  0  0  0  0
  -29.5270  -22.1155   19.5980 C   0  0  0  0  0  0
  -29.5025  -21.9479   22.0848 C   0  0  0  0  0  0
  -28.8890  -23.5401   19.6592 C   0  0  0  0  0  0
  -28.8677  -23.3583   22.1887 C   0  0  0  0  0  0
  -29.0695  -21.2365   20.7868 C   0  0  2  0  0  0
  -29.1511  -24.3037   20.9857 C   0  0  2  0  0  0
  -26.0413  -19.2286   20.1280 C   0  0  0  0  0  0
  -27.3186  -19.2396   19.2805 C   0  0  0  0  0  0
  -28.3124  -25.6200   21.1682 C   0  0  0  0  0  0
  -29.9113  -15.4685   21.1618 N   0  0  0  0  0  0
  -30.5229  -24.6446   21.0588 O   0  0  0  0  0  0
  -31.4817  -12.4537   19.1224 H   0  0  0  0  0  0
  -30.3657  -11.3187   19.8247 H   0  0  0  0  0  0
  -29.7502  -11.7733   17.4386 H   0  0  0  0  0  0
  -29.6634  -13.4865   17.7599 H   0  0  0  0  0  0
  -27.8394  -11.3016   18.8197 H   0  0  0  0  0  0
  -27.3739  -12.6253   17.7866 H   0  0  0  0  0  0
  -27.7073  -14.2476   19.5753 H   0  0  0  0  0  0
  -28.6930  -11.9287   21.3070 H   0  0  0  0  0  0
  -28.4532  -13.5429   21.8877 H   0  0  0  0  0  0
  -25.2755   -9.5678   22.4748 H   0  0  0  0  0  0
  -23.9986   -7.4629   22.7479 H   0  0  0  0  0  0
  -21.0817   -8.8758   19.8960 H   0  0  0  0  0  0
  -22.3679  -10.9653   19.6156 H   0  0  0  0  0  0
  -21.2013   -7.6134   23.9710 H   0  0  0  0  0  0
  -21.1473   -6.0514   25.9074 H   0  0  0  0  0  0
  -22.0608   -2.7593   23.2869 H   0  0  0  0  0  0
  -22.4096  -11.9896   22.4780 H   0  0  0  0  0  0
  -21.1135  -13.1307   22.2602 H   0  0  0  0  0  0
  -24.6591  -15.8356   20.5044 H   0  0  0  0  0  0
  -26.2754  -15.6204   20.0664 H   0  0  0  0  0  0
  -26.7121  -32.5528   23.1149 H   0  0  0  0  0  0
  -25.0073  -33.9763   25.0485 H   0  0  0  0  0  0
  -22.6969  -31.3056   21.4051 H   0  0  0  0  0  0
  -23.3746  -35.9644   23.3308 H   0  0  0  0  0  0
  -24.3594  -36.8909   22.2051 H   0  0  0  0  0  0
  -23.7249  -37.6519   23.6644 H   0  0  0  0  0  0
  -26.0528  -31.5932   20.5949 H   0  0  0  0  0  0
  -26.8240  -30.8822   21.9840 H   0  0  0  0  0  0
  -28.1105  -29.0875   21.1756 H   0  0  0  0  0  0
  -26.0744  -25.9574   19.0248 H   0  0  0  0  0  0
  -23.9890  -27.2893   19.0301 H   0  0  0  0  0  0
  -23.7266  -30.5928   19.4017 H   0  0  0  0  0  0
  -22.7432  -29.2372   19.8662 H   0  0  0  0  0  0
  -25.1279  -36.1967   25.0837 H   0  0  0  0  0  0
  -20.9972  -28.3230   24.1413 H   0  0  0  0  0  0
  -20.5638  -26.2272   23.3605 H   0  0  0  0  0  0
  -21.6642  -26.7407   22.1222 H   0  0  0  0  0  0
  -19.6901  -25.6290   21.1221 H   0  0  0  0  0  0
  -19.6675  -27.3194   20.6739 H   0  0  0  0  0  0
  -17.4192  -26.6666   21.4021 H   0  0  0  0  0  0
  -18.0322  -26.0049   22.9001 H   0  0  0  0  0  0
  -19.7939  -30.7251   24.2266 H   0  0  0  0  0  0
  -17.5018  -31.6252   24.5162 H   0  0  0  0  0  0
  -15.5353  -30.2976   23.7633 H   0  0  0  0  0  0
  -15.8677  -28.0810   22.7048 H   0  0  0  0  0  0
  -24.5927  -30.7027   25.7826 H   0  0  0  0  0  0
  -24.8940  -32.2843   26.4929 H   0  0  0  0  0  0
  -25.8122  -30.8868   27.0221 H   0  0  0  0  0  0
  -26.2824  -29.6793   24.1146 H   0  0  0  0  0  0
  -27.4070  -29.7250   25.4532 H   0  0  0  0  0  0
  -27.8662  -30.4338   23.9222 H   0  0  0  0  0  0
  -27.2682  -33.3586   26.2080 H   0  0  0  0  0  0
  -28.3848  -32.6869   25.0286 H   0  0  0  0  0  0
  -28.0740  -31.8399   26.5361 H   0  0  0  0  0  0
  -28.2601  -38.0100   24.7511 H   0  0  0  0  0  0
  -28.1074  -36.2633   24.6280 H   0  0  0  0  0  0
  -27.2305  -37.1452   25.8870 H   0  0  0  0  0  0
  -20.9310  -29.8774   21.6950 H   0  0  0  0  0  0
  -26.0179  -38.2867   24.1409 H   0  0  0  0  0  0
  -31.2612  -19.8486   21.8519 H   0  0  0  0  0  0
  -31.6347  -17.4238   22.0173 H   0  0  0  0  0  0
  -28.0559  -16.7190   19.7363 H   0  0  0  0  0  0
  -30.6150  -22.1855   19.5824 H   0  0  0  0  0  0
  -29.2464  -21.6471   18.6553 H   0  0  0  0  0  0
  -29.1859  -21.3585   22.9466 H   0  0  0  0  0  0
  -30.5880  -22.0209   22.1453 H   0  0  0  0  0  0
  -27.8109  -23.4387   19.5263 H   0  0  0  0  0  0
  -29.2318  -24.1384   18.8136 H   0  0  0  0  0  0
  -29.1833  -23.8309   23.1203 H   0  0  0  0  0  0
  -27.7887  -23.2283   22.2854 H   0  0  0  0  0  0
  -27.9813  -21.2768   20.8063 H   0  0  0  0  0  0
  -25.1842  -19.5538   19.5385 H   0  0  0  0  0  0
  -26.1221  -19.8945   20.9862 H   0  0  0  0  0  0
  -25.8261  -18.2279   20.5028 H   0  0  0  0  0  0
  -27.1874  -18.5704   18.4287 H   0  0  0  0  0  0
  -27.4720  -20.2248   18.8424 H   0  0  0  0  0  0
  -28.6007  -26.1089   22.1009 H   0  0  0  0  0  0
  -27.2746  -25.3155   21.3194 H   0  0  0  0  0  0
  -29.0448  -15.0877   21.5099 H   0  0  0  0  0  0
  -31.0172  -23.8366   20.9895 H   0  0  0  0  0  0
  1 25  1  0  0  0
  1 30  2  0  0  0
  1 86  1  0  0  0
  2  3  1  0  0  0
  2 25  1  0  0  0
  2 88  1  0  0  0
  2 89  1  0  0  0
  3  4  1  0  0  0
  3 90  1  0  0  0
  3 91  1  0  0  0
  4  5  1  0  0  0
  4 92  1  0  0  0
  4 93  1  0  0  0
  5  6  1  0  0  0
  5 26  1  0  0  0
  5 94  1  0  0  0
  6 25  1  0  0  0
  6 95  1  0  0  0
  6 96  1  0  0  0
  7  8  2  0  0  0
  7 26  1  0  0  0
  7 29  1  0  0  0
  8  9  1  0  0  0
  8 22  1  0  0  0
  9 10  1  0  0  0
  9 27  2  0  0  0
 10 11  2  0  0  0
 10 15  1  0  0  0
 11 12  1  0  0  0
 11 97  1  0  0  0
 12 13  2  0  0  0
 12 98  1  0  0  0
 13 14  1  0  0  0
 13 31  1  0  0  0
 14 15  2  0  0  0
 14 99  1  0  0  0
 15100  1  0  0  0
 16 17  2  0  0  0
 16 21  1  0  0  0
 16 31  1  0  0  0
 17 18  1  0  0  0
 17101  1  0  0  0
 18 19  2  0  0  0
 18102  1  0  0  0
 19 20  1  0  0  0
 19 24  1  0  0  0
 20 21  2  0  0  0
 20103  1  0  0  0
 21 23  1  0  0  0
 22 28  1  0  0  0
 22 32  2  0  0  0
 26 27  1  0  0  0
 28104  1  0  0  0
 28105  1  0  0  0
 29106  1  0  0  0
 29107  1  0  0  0
 33 34  1  0  0  0
 33 66  1  0  0  0
 33 70  2  0  0  0
 34 36  1  0  0  0
 34 59  1  0  0  0
 34108  1  0  0  0
 35 44  2  0  0  0
 35 45  1  0  0  0
 35 68  1  0  0  0
 36 56  1  0  0  0
 36109  1  0  0  0
 37 39  1  0  0  0
 37 47  1  0  0  0
 37 66  1  0  0  0
 37110  1  0  0  0
 38 43  2  0  0  0
 38 46  1  0  0  0
 38 47  1  0  0  0
 39 64  1  0  0  0
 39 67  2  0  0  0
 40 52  1  0  0  0
 40 53  2  0  0  0
 40 58  1  0  0  0
 41111  1  0  0  0
 41112  1  0  0  0
 41113  1  0  0  0
 41 48  1  0  0  0
 42 43  1  0  0  0
 42 66  1  0  0  0
 42114  1  0  0  0
 42115  1  0  0  0
 43 44  1  0  0  0
 44116  1  0  0  0
 45 46  2  0  0  0
 45117  1  0  0  0
 46118  1  0  0  0
 47119  1  0  0  0
 47120  1  0  0  0
 48 56  1  0  0  0
 48 65  1  0  0  0
 48121  1  0  0  0
 49 50  1  0  0  0
 49 53  1  0  0  0
 49 64  1  0  0  0
 49122  1  0  0  0
 50 51  1  0  0  0
 50123  1  0  0  0
 50124  1  0  0  0
 51 52  1  0  0  0
 51125  1  0  0  0
 51126  1  0  0  0
 52127  1  0  0  0
 52128  1  0  0  0
 53 54  1  0  0  0
 54 55  2  0  0  0
 54129  1  0  0  0
 55 57  1  0  0  0
 55130  1  0  0  0
 56 69  2  0  0  0
 57 58  2  0  0  0
 57131  1  0  0  0
 58132  1  0  0  0
 59 60  1  0  0  0
 59 61  1  0  0  0
 59 62  1  0  0  0
 60133  1  0  0  0
 60134  1  0  0  0
 60135  1  0  0  0
 61136  1  0  0  0
 61137  1  0  0  0
 61138  1  0  0  0
 62139  1  0  0  0
 62140  1  0  0  0
 62141  1  0  0  0
 63 65  1  0  0  0
 63142  1  0  0  0
 63143  1  0  0  0
 63144  1  0  0  0
 64145  1  0  0  0
 65146  1  0  0  0
 68 85  1  0  0  0
 71 72  2  0  0  0
 71 74  1  0  0  0
 71147  1  0  0  0
 72 76  1  0  0  0
 72148  1  0  0  0
 73 75  1  0  0  0
 73 76  2  0  0  0
 73149  1  0  0  0
 74 75  2  0  0  0
 74 81  1  0  0  0
 75 84  1  0  0  0
 76 86  1  0  0  0
 77 79  1  0  0  0
 77 81  1  0  0  0
 77150  1  0  0  0
 77151  1  0  0  0
 78 80  1  0  0  0
 78 81  1  0  0  0
 78152  1  0  0  0
 78153  1  0  0  0
 79 82  1  0  0  0
 79154  1  0  0  0
 79155  1  0  0  0
 80 82  1  0  0  0
 80156  1  0  0  0
 80157  1  0  0  0
 81158  1  0  0  0
 82 85  1  0  0  0
 82 87  1  0  0  0
 83 84  1  0  0  0
 83159  1  0  0  0
 83160  1  0  0  0
 83161  1  0  0  0
 84162  1  0  0  0
 84163  1  0  0  0
 85164  1  0  0  0
 85165  1  0  0  0
 86166  1  0  0  0
 87167  1  0  0  0
M  ISO  4   1 100  68 101  85 101  86 100
M  END
> <chiral flag>
0

> <version>
0

> <s_m_source_file>
/data/baiqing/PycharmProjects/Reinvent-master-3.2/result/LINK_invent/BTK/process_docking_weight1_custom_product_contain_oxygen_bond_distance_aromatic_linkinvent_7_9_3/rearranged_h_0142.sdf

> <i_m_source_file_index>
22

> <r_mmod_Potential_Energy-OPLS-2005>
4.10721397399902

> <r_mmod_Stretch_Energy-OPLS-2005>
47.5658149719238

> <r_mmod_Bend_Energy-OPLS-2005>
110.551498413086

> <r_mmod_Torsional_Energy-OPLS-2005>
301.418212890625

> <r_mmod_Improper_Torsional_Energy-OPLS-2005>
5.74784564971924

> <r_mmod_Van_der_Waal_Energy-OPLS-2005>
142.564270019531

> <r_mmod_Electrostatic_Energy-OPLS-2005>
-406.362457275391

> <r_mmod_Solvation_Energy-OPLS-2005>
-215.078262329102

> <b_mmod_Minimization_Converged-OPLS-2005>
0

> <r_mmod_RMS_Derivative-OPLS-2005>
1.20777630805969

$$$$
22
                    3D
 Structure written by MMmdl.
184192  0  0  1  0            999 V2000
  -30.7772  -14.4066   20.4782 C   0  0  0  0  0  0
  -30.4424  -12.2676   19.3690 C   0  0  0  0  0  0
  -29.4685  -12.3332   18.1752 C   0  0  0  0  0  0
  -27.9942  -12.3182   18.6371 C   0  0  0  0  0  0
  -27.6748  -13.2009   19.8748 C   0  0  2  0  0  0
  -28.7457  -12.9937   20.9655 C   0  0  0  0  0  0
  -25.2775  -13.8229   20.5899 C   0  0  0  0  0  0
  -24.1936  -13.0502   20.9253 C   0  0  0  0  0  0
  -24.6462  -11.7004   20.8850 C   0  0  0  0  0  0
  -23.9049  -10.4429   21.0577 C   0  0  0  0  0  0
  -24.3582   -9.4361   21.9367 C   0  0  0  0  0  0
  -23.6320   -8.2340   22.0891 C   0  0  0  0  0  0
  -22.4336   -8.0351   21.3641 C   0  0  0  0  0  0
  -21.9977   -9.0360   20.4750 C   0  0  0  0  0  0
  -22.7241  -10.2281   20.3219 C   0  0  0  0  0  0
  -21.6933   -6.0721   22.5241 C   0  0  0  0  0  0
  -21.4071   -6.5629   23.8150 C   0  0  0  0  0  0
  -21.3679   -5.6810   24.9125 C   0  0  0  0  0  0
  -21.6054   -4.3082   24.7206 C   0  0  0  0  0  0
  -21.8866   -3.8149   23.4330 C   0  0  0  0  0  0
  -21.9260   -4.6961   22.3378 C   0  0  0  0  0  0
  -22.7954  -13.5381   21.1747 C   0  0  0  0  0  0
  -22.1758   -4.2134   21.0973 F   0  0  0  0  0  0
  -21.5568   -3.4548   25.7700 F   0  0  0  0  0  0
  -30.0469  -13.2769   20.3541 N   0  0  0  0  0  0
  -26.3212  -12.9356   20.3631 N   0  0  0  0  0  0
  -25.9404  -11.6515   20.6008 N   0  0  0  0  0  0
  -22.0498  -12.8435   22.0321 N   0  0  0  0  0  0
  -25.4324  -15.1948   20.4568 N   0  0  0  0  0  0
  -32.0080  -14.3992   20.5044 O   0  0  0  0  0  0
  -21.6764   -6.8893   21.4203 O   0  0  0  0  0  0
  -22.3591  -14.5569   20.6419 O   0  0  0  0  0  0
  -24.6097  -31.8680   23.2106 C   0  0  0  0  0  0
  -25.8981  -32.4870   23.8414 C   0  0  1  0  0  0
  -27.2678  -27.4732   20.0873 C   0  0  0  0  0  0
  -25.5834  -33.8663   24.2357 N   0  0  0  0  0  0
  -23.4008  -30.4841   21.5536 C   0  0  2  0  0  0
  -24.8552  -28.9513   20.1253 C   0  0  0  0  0  0
  -22.7405  -29.4621   22.5042 C   0  0  0  0  0  0
  -18.0253  -28.1371   22.8495 C   0  0  0  0  0  0
  -24.1473  -36.7320   23.2638 C   0  0  0  0  0  0
  -25.9221  -30.8503   21.3484 C   0  0  0  0  0  0
  -26.0130  -29.4792   20.7135 C   0  0  0  0  0  0
  -27.2211  -28.7474   20.7025 C   0  0  0  0  0  0
  -26.0867  -26.9476   19.5216 C   0  0  0  0  0  0
  -24.8830  -27.6772   19.5320 C   0  0  0  0  0  0
  -23.6110  -29.8083   20.1718 C   0  0  0  0  0  0
  -25.4103  -36.3150   24.0343 C   0  0  1  0  0  0
  -20.5836  -28.3631   23.1362 C   0  0  2  0  0  0
  -20.6742  -26.9380   22.5425 C   0  0  0  0  0  0
  -19.5730  -26.6390   21.5207 C   0  0  0  0  0  0
  -18.1905  -26.7922   22.1617 C   0  0  0  0  0  0
  -19.1500  -28.8818   23.2926 C   0  0  0  0  0  0
  -18.9433  -30.1424   23.8940 C   0  0  0  0  0  0
  -17.6439  -30.6578   24.0571 C   0  0  0  0  0  0
  -25.9019  -34.9508   23.5164 C   0  0  0  0  0  0
  -16.5328  -29.9089   23.6323 C   0  0  0  0  0  0
  -16.7249  -28.6504   23.0349 C   0  0  0  0  0  0
  -26.4436  -31.6622   25.0702 C   0  0  0  0  0  0
  -25.3719  -31.3645   26.1446 C   0  0  0  0  0  0
  -27.0235  -30.3112   24.5923 C   0  0  0  0  0  0
  -27.6039  -32.4292   25.7458 C   0  0  0  0  0  0
  -27.5588  -37.1820   24.8475 C   0  0  0  0  0  0
  -21.4123  -29.3010   22.3798 N   0  0  0  0  0  0
  -26.4309  -37.3827   23.9406 N   0  0  0  0  0  0
  -24.6649  -31.0781   22.1007 N   0  0  0  0  0  0
  -23.4185  -28.8129   23.3059 O   0  0  0  0  0  0
  -28.3762  -26.6551   20.0162 O   0  0  0  0  0  0
  -26.5603  -34.8951   22.4741 O   0  0  0  0  0  0
  -23.5290  -32.1397   23.7513 O   0  0  0  0  0  0
  -29.0583  -17.1309   17.6063 C   0  0  0  0  0  0
  -28.8994  -18.0419   18.7308 C   0  0  0  0  0  0
  -29.9778  -16.1697   17.5054 C   0  0  0  0  0  0
  -29.2435  -17.8797   20.0344 C   0  0  0  0  0  0
  -30.8762  -24.1522   19.3959 C   0  0  0  0  0  0
  -30.9348  -15.7971   18.5955 C   0  0  0  0  0  0
  -29.8858  -16.6301   20.6861 C   0  0  0  0  0  0
  -27.4844  -20.8915   21.8114 C   0  0  0  0  0  0
  -32.3652  -22.5718   18.0845 C   0  0  0  0  0  0
  -32.4824  -22.5464   20.5691 C   0  0  0  0  0  0
  -30.0946  -26.5149   22.5143 C   0  0  0  0  0  0
  -32.0427  -26.5563   20.9489 C   0  0  0  0  0  0
  -28.9451  -18.9506   21.1070 C   0  0  0  0  0  0
  -30.3153  -24.7127   20.7283 C   0  0  0  0  0  0
  -29.5920  -21.4535   20.6614 C   0  0  0  0  0  0
  -30.4253  -21.5854   19.3652 C   0  0  0  0  0  0
  -29.7109  -27.1543   20.1207 C   0  0  0  0  0  0
  -28.4590  -20.3929   20.7217 C   0  0  2  0  0  0
  -31.5094  -22.7200   19.3737 C   0  0  0  0  0  0
  -30.5354  -26.2260   21.0543 C   0  0  0  0  0  0
  -30.2244  -15.4636   19.8474 N   0  0  0  0  0  0
  -30.8009  -24.8177   18.3576 O   0  0  0  0  0  0
  -31.4558  -12.4401   19.0073 H   0  0  0  0  0  0
  -30.4325  -11.2781   19.8301 H   0  0  0  0  0  0
  -29.6280  -11.4271   17.5801 H   0  0  0  0  0  0
  -29.6735  -13.1668   17.4993 H   0  0  0  0  0  0
  -27.7744  -11.2779   18.8738 H   0  0  0  0  0  0
  -27.3285  -12.5684   17.8139 H   0  0  0  0  0  0
  -27.7061  -14.2385   19.5444 H   0  0  0  0  0  0
  -28.7397  -11.9494   21.2816 H   0  0  0  0  0  0
  -28.5646  -13.5956   21.8594 H   0  0  0  0  0  0
  -25.2718   -9.5875   22.4951 H   0  0  0  0  0  0
  -24.0121   -7.4707   22.7525 H   0  0  0  0  0  0
  -21.1000   -8.8831   19.8942 H   0  0  0  0  0  0
  -22.3704  -10.9829   19.6359 H   0  0  0  0  0  0
  -21.2017   -7.6124   23.9630 H   0  0  0  0  0  0
  -21.1482   -6.0544   25.9001 H   0  0  0  0  0  0
  -22.0629   -2.7597   23.2822 H   0  0  0  0  0  0
  -22.4252  -12.0380   22.5080 H   0  0  0  0  0  0
  -21.1162  -13.1551   22.2558 H   0  0  0  0  0  0
  -24.6659  -15.8295   20.6541 H   0  0  0  0  0  0
  -26.2810  -15.6739   20.1768 H   0  0  0  0  0  0
  -26.7066  -32.5619   23.1203 H   0  0  0  0  0  0
  -24.9975  -33.9844   25.0495 H   0  0  0  0  0  0
  -22.6898  -31.2989   21.4102 H   0  0  0  0  0  0
  -23.3753  -35.9636   23.3326 H   0  0  0  0  0  0
  -24.3575  -36.8909   22.2051 H   0  0  0  0  0  0
  -23.7194  -37.6522   23.6632 H   0  0  0  0  0  0
  -25.9955  -31.5983   20.5563 H   0  0  0  0  0  0
  -26.8268  -30.9442   21.9381 H   0  0  0  0  0  0
  -28.0922  -29.1716   21.1809 H   0  0  0  0  0  0
  -26.0990  -25.9649   19.0702 H   0  0  0  0  0  0
  -23.9916  -27.2533   19.0896 H   0  0  0  0  0  0
  -23.7118  -30.5778   19.4056 H   0  0  0  0  0  0
  -22.7419  -29.2131   19.8831 H   0  0  0  0  0  0
  -25.1276  -36.2058   25.0840 H   0  0  0  0  0  0
  -20.9919  -28.3166   24.1489 H   0  0  0  0  0  0
  -20.5649  -26.2209   23.3578 H   0  0  0  0  0  0
  -21.6614  -26.7435   22.1214 H   0  0  0  0  0  0
  -19.6886  -25.6316   21.1198 H   0  0  0  0  0  0
  -19.6679  -27.3232   20.6764 H   0  0  0  0  0  0
  -17.4168  -26.6673   21.4023 H   0  0  0  0  0  0
  -18.0316  -26.0055   22.9010 H   0  0  0  0  0  0
  -19.7904  -30.7224   24.2344 H   0  0  0  0  0  0
  -17.4995  -31.6269   24.5152 H   0  0  0  0  0  0
  -15.5335  -30.3013   23.7623 H   0  0  0  0  0  0
  -15.8641  -28.0849   22.7051 H   0  0  0  0  0  0
  -24.5921  -30.6970   25.7761 H   0  0  0  0  0  0
  -24.8844  -32.2746   26.4953 H   0  0  0  0  0  0
  -25.8090  -30.8779   27.0171 H   0  0  0  0  0  0
  -26.2707  -29.6910   24.1035 H   0  0  0  0  0  0
  -27.4163  -29.7305   25.4274 H   0  0  0  0  0  0
  -27.8473  -30.4532   23.8921 H   0  0  0  0  0  0
  -27.2720  -33.3594   26.2083 H   0  0  0  0  0  0
  -28.3832  -32.6835   25.0260 H   0  0  0  0  0  0
  -28.0710  -31.8351   26.5319 H   0  0  0  0  0  0
  -28.2622  -38.0105   24.7548 H   0  0  0  0  0  0
  -28.1068  -36.2639   24.6290 H   0  0  0  0  0  0
  -27.2296  -37.1475   25.8877 H   0  0  0  0  0  0
  -20.9275  -29.8779   21.7063 H   0  0  0  0  0  0
  -26.0206  -38.2911   24.1419 H   0  0  0  0  0  0
  -28.3994  -17.2548   16.7570 H   0  0  0  0  0  0
  -28.4467  -18.9723   18.4365 H   0  0  0  0  0  0
  -30.0415  -15.5825   16.5942 H   0  0  0  0  0  0
  -31.6621  -16.5879   18.7922 H   0  0  0  0  0  0
  -31.4810  -14.9401   18.1768 H   0  0  0  0  0  0
  -29.2456  -16.3048   21.5127 H   0  0  0  0  0  0
  -30.8078  -16.9583   21.1729 H   0  0  0  0  0  0
  -26.6703  -20.1888   21.9829 H   0  0  0  0  0  0
  -27.0316  -21.8500   21.5419 H   0  0  0  0  0  0
  -28.0028  -21.0428   22.7616 H   0  0  0  0  0  0
  -33.1048  -23.3713   17.9901 H   0  0  0  0  0  0
  -31.7538  -22.6003   17.1821 H   0  0  0  0  0  0
  -32.9164  -21.6308   18.0683 H   0  0  0  0  0  0
  -33.2026  -23.3628   20.6199 H   0  0  0  0  0  0
  -33.0363  -21.6102   20.5080 H   0  0  0  0  0  0
  -31.9815  -22.5277   21.5335 H   0  0  0  0  0  0
  -30.6090  -25.8867   23.2432 H   0  0  0  0  0  0
  -29.0219  -26.3713   22.6631 H   0  0  0  0  0  0
  -30.3014  -27.5489   22.7950 H   0  0  0  0  0  0
  -32.6460  -25.8374   21.5056 H   0  0  0  0  0  0
  -32.2820  -27.5464   21.3357 H   0  0  0  0  0  0
  -32.3815  -26.5323   19.9121 H   0  0  0  0  0  0
  -29.8275  -19.0344   21.7368 H   0  0  0  0  0  0
  -28.1920  -18.5028   21.7637 H   0  0  0  0  0  0
  -30.7105  -24.1268   21.5542 H   0  0  0  0  0  0
  -29.2475  -24.5032   20.7182 H   0  0  0  0  0  0
  -29.1333  -22.4223   20.8460 H   0  0  0  0  0  0
  -30.2597  -21.2876   21.5050 H   0  0  0  0  0  0
  -29.7484  -21.7586   18.5245 H   0  0  0  0  0  0
  -30.9133  -20.6278   19.1692 H   0  0  0  0  0  0
  -30.1365  -27.1550   19.1171 H   0  0  0  0  0  0
  -29.7814  -28.1881   20.4556 H   0  0  0  0  0  0
  -27.8808  -20.3922   19.7968 H   0  0  0  0  0  0
  1 25  1  0  0  0
  1 30  2  0  0  0
  1 91  1  0  0  0
  2  3  1  0  0  0
  2 25  1  0  0  0
  2 93  1  0  0  0
  2 94  1  0  0  0
  3  4  1  0  0  0
  3 95  1  0  0  0
  3 96  1  0  0  0
  4  5  1  0  0  0
  4 97  1  0  0  0
  4 98  1  0  0  0
  5  6  1  0  0  0
  5 26  1  0  0  0
  5 99  1  0  0  0
  6 25  1  0  0  0
  6100  1  0  0  0
  6101  1  0  0  0
  7  8  2  0  0  0
  7 26  1  0  0  0
  7 29  1  0  0  0
  8  9  1  0  0  0
  8 22  1  0  0  0
  9 10  1  0  0  0
  9 27  2  0  0  0
 10 11  2  0  0  0
 10 15  1  0  0  0
 11 12  1  0  0  0
 11102  1  0  0  0
 12 13  2  0  0  0
 12103  1  0  0  0
 13 14  1  0  0  0
 13 31  1  0  0  0
 14 15  2  0  0  0
 14104  1  0  0  0
 15105  1  0  0  0
 16 17  2  0  0  0
 16 21  1  0  0  0
 16 31  1  0  0  0
 17 18  1  0  0  0
 17106  1  0  0  0
 18 19  2  0  0  0
 18107  1  0  0  0
 19 20  1  0  0  0
 19 24  1  0  0  0
 20 21  2  0  0  0
 20108  1  0  0  0
 21 23  1  0  0  0
 22 28  1  0  0  0
 22 32  2  0  0  0
 26 27  1  0  0  0
 28109  1  0  0  0
 28110  1  0  0  0
 29111  1  0  0  0
 29112  1  0  0  0
 33 34  1  0  0  0
 33 66  1  0  0  0
 33 70  2  0  0  0
 34 36  1  0  0  0
 34 59  1  0  0  0
 34113  1  0  0  0
 35 44  2  0  0  0
 35 45  1  0  0  0
 35 68  1  0  0  0
 36 56  1  0  0  0
 36114  1  0  0  0
 37 39  1  0  0  0
 37 47  1  0  0  0
 37 66  1  0  0  0
 37115  1  0  0  0
 38 43  2  0  0  0
 38 46  1  0  0  0
 38 47  1  0  0  0
 39 64  1  0  0  0
 39 67  2  0  0  0
 40 52  1  0  0  0
 40 53  2  0  0  0
 40 58  1  0  0  0
 41116  1  0  0  0
 41117  1  0  0  0
 41118  1  0  0  0
 41 48  1  0  0  0
 42 43  1  0  0  0
 42 66  1  0  0  0
 42119  1  0  0  0
 42120  1  0  0  0
 43 44  1  0  0  0
 44121  1  0  0  0
 45 46  2  0  0  0
 45122  1  0  0  0
 46123  1  0  0  0
 47124  1  0  0  0
 47125  1  0  0  0
 48 56  1  0  0  0
 48 65  1  0  0  0
 48126  1  0  0  0
 49 50  1  0  0  0
 49 53  1  0  0  0
 49 64  1  0  0  0
 49127  1  0  0  0
 50 51  1  0  0  0
 50128  1  0  0  0
 50129  1  0  0  0
 51 52  1  0  0  0
 51130  1  0  0  0
 51131  1  0  0  0
 52132  1  0  0  0
 52133  1  0  0  0
 53 54  1  0  0  0
 54 55  2  0  0  0
 54134  1  0  0  0
 55 57  1  0  0  0
 55135  1  0  0  0
 56 69  2  0  0  0
 57 58  2  0  0  0
 57136  1  0  0  0
 58137  1  0  0  0
 59 60  1  0  0  0
 59 61  1  0  0  0
 59 62  1  0  0  0
 60138  1  0  0  0
 60139  1  0  0  0
 60140  1  0  0  0
 61141  1  0  0  0
 61142  1  0  0  0
 61143  1  0  0  0
 62144  1  0  0  0
 62145  1  0  0  0
 62146  1  0  0  0
 63 65  1  0  0  0
 63147  1  0  0  0
 63148  1  0  0  0
 63149  1  0  0  0
 64150  1  0  0  0
 65151  1  0  0  0
 68 87  1  0  0  0
 71 72  1  0  0  0
 71 73  2  0  0  0
 71152  1  0  0  0
 72 74  2  0  0  0
 72153  1  0  0  0
 73 76  1  0  0  0
 73154  1  0  0  0
 74 77  1  0  0  0
 74 83  1  0  0  0
 75 84  1  0  0  0
 75 89  1  0  0  0
 75 92  2  0  0  0
 76 91  1  0  0  0
 76155  1  0  0  0
 76156  1  0  0  0
 77 91  1  0  0  0
 77157  1  0  0  0
 77158  1  0  0  0
 78159  1  0  0  0
 78160  1  0  0  0
 78161  1  0  0  0
 78 88  1  0  0  0
 79162  1  0  0  0
 79163  1  0  0  0
 79164  1  0  0  0
 79 89  1  0  0  0
 80 89  1  0  0  0
 80165  1  0  0  0
 80166  1  0  0  0
 80167  1  0  0  0
 81168  1  0  0  0
 81169  1  0  0  0
 81170  1  0  0  0
 81 90  1  0  0  0
 82 90  1  0  0  0
 82171  1  0  0  0
 82172  1  0  0  0
 82173  1  0  0  0
 83 88  1  0  0  0
 83174  1  0  0  0
 83175  1  0  0  0
 84 90  1  0  0  0
 84176  1  0  0  0
 84177  1  0  0  0
 85 86  1  0  0  0
 85 88  1  0  0  0
 85178  1  0  0  0
 85179  1  0  0  0
 86 89  1  0  0  0
 86180  1  0  0  0
 86181  1  0  0  0
 87 90  1  0  0  0
 87182  1  0  0  0
 87183  1  0  0  0
 88184  1  0  0  0
M  ISO  4   1 100  68 101  87 101  91 100
M  END
> <chiral flag>
0

> <version>
0

> <s_m_source_file>
/data/baiqing/PycharmProjects/Reinvent-master-3.2/result/LINK_invent/BTK/process_docking_weight1_custom_product_contain_oxygen_bond_distance_aromatic_linkinvent_7_9_3/rearranged_h_0142.sdf

> <i_m_source_file_index>
23

> <r_mmod_Potential_Energy-OPLS-2005>
315.079223632812

> <r_mmod_Stretch_Energy-OPLS-2005>
49.4805374145508

> <r_mmod_Bend_Energy-OPLS-2005>
181.425582885742

> <r_mmod_Torsional_Energy-OPLS-2005>
327.717437744141

> <r_mmod_Improper_Torsional_Energy-OPLS-2005>
31.0694961547852

> <r_mmod_Van_der_Waal_Energy-OPLS-2005>
156.461944580078

> <r_mmod_Electrostatic_Energy-OPLS-2005>
-299.115386962891

> <r_mmod_Solvation_Energy-OPLS-2005>
-182.126693725586

> <b_mmod_Minimization_Converged-OPLS-2005>
0

> <r_mmod_RMS_Derivative-OPLS-2005>
10.1968002319336

$$$$
23
                    3D
 Structure written by MMmdl.
161169  0  0  1  0            999 V2000
  -30.6288  -14.5651   20.5465 C   0  0  0  0  0  0
  -30.4220  -12.3598   19.4130 C   0  0  0  0  0  0
  -29.4766  -12.4906   18.2010 C   0  0  0  0  0  0
  -28.0046  -12.3305   18.6253 C   0  0  0  0  0  0
  -27.6440  -13.1945   19.8607 C   0  0  2  0  0  0
  -28.6856  -13.0117   20.9819 C   0  0  0  0  0  0
  -25.2508  -13.8107   20.5654 C   0  0  0  0  0  0
  -24.1743  -13.0383   20.9164 C   0  0  0  0  0  0
  -24.6257  -11.6869   20.8674 C   0  0  0  0  0  0
  -23.8976  -10.4201   21.0316 C   0  0  0  0  0  0
  -24.3533   -9.4159   21.9123 C   0  0  0  0  0  0
  -23.6222   -8.2213   22.0742 C   0  0  0  0  0  0
  -22.4232   -8.0192   21.3515 C   0  0  0  0  0  0
  -21.9828   -9.0162   20.4646 C   0  0  0  0  0  0
  -22.7140  -10.2049   20.3024 C   0  0  0  0  0  0
  -21.6865   -6.0649   22.5248 C   0  0  0  0  0  0
  -21.3989   -6.5586   23.8150 C   0  0  0  0  0  0
  -21.3695   -5.6787   24.9142 C   0  0  0  0  0  0
  -21.6069   -4.3033   24.7224 C   0  0  0  0  0  0
  -21.8854   -3.8096   23.4344 C   0  0  0  0  0  0
  -21.9176   -4.6878   22.3375 C   0  0  0  0  0  0
  -22.7775  -13.5167   21.1845 C   0  0  0  0  0  0
  -22.1658   -4.2068   21.0966 F   0  0  0  0  0  0
  -21.5654   -3.4544   25.7736 F   0  0  0  0  0  0
  -30.0028  -13.3571   20.4155 N   0  0  0  0  0  0
  -26.2896  -12.9268   20.3303 N   0  0  0  0  0  0
  -25.9186  -11.6421   20.5710 N   0  0  0  0  0  0
  -22.0516  -12.8146   22.0474 N   0  0  0  0  0  0
  -25.4221  -15.1823   20.4011 N   0  0  0  0  0  0
  -31.7772  -14.7602   20.1223 O   0  0  0  0  0  0
  -21.6664   -6.8777   21.4198 O   0  0  0  0  0  0
  -22.3448  -14.5490   20.6737 O   0  0  0  0  0  0
  -24.6159  -31.8707   23.2141 C   0  0  0  0  0  0
  -25.9060  -32.4797   23.8406 C   0  0  1  0  0  0
  -27.2020  -27.4113   20.0902 C   0  0  0  0  0  0
  -25.5922  -33.8607   24.2346 N   0  0  0  0  0  0
  -23.3983  -30.5030   21.5564 C   0  0  2  0  0  0
  -24.8399  -28.9783   20.1139 C   0  0  0  0  0  0
  -22.7418  -29.4671   22.4966 C   0  0  0  0  0  0
  -18.0292  -28.1366   22.8417 C   0  0  0  0  0  0
  -24.1504  -36.7314   23.2651 C   0  0  0  0  0  0
  -25.9381  -30.8326   21.3759 C   0  0  0  0  0  0
  -26.0082  -29.4704   20.7099 C   0  0  0  0  0  0
  -27.1973  -28.6972   20.6903 C   0  0  0  0  0  0
  -26.0145  -26.9549   19.4694 C   0  0  0  0  0  0
  -24.8409  -27.7237   19.4866 C   0  0  0  0  0  0
  -23.6075  -29.8500   20.1649 C   0  0  0  0  0  0
  -25.4132  -36.3083   24.0345 C   0  0  1  0  0  0
  -20.5846  -28.3645   23.1298 C   0  0  2  0  0  0
  -20.6741  -26.9375   22.5450 C   0  0  0  0  0  0
  -19.5823  -26.6450   21.5144 C   0  0  0  0  0  0
  -18.1964  -26.7959   22.1470 C   0  0  0  0  0  0
  -19.1530  -28.8813   23.2892 C   0  0  0  0  0  0
  -18.9445  -30.1438   23.8905 C   0  0  0  0  0  0
  -17.6476  -30.6544   24.0597 C   0  0  0  0  0  0
  -25.9064  -34.9462   23.5148 C   0  0  0  0  0  0
  -16.5347  -29.9062   23.6329 C   0  0  0  0  0  0
  -16.7273  -28.6498   23.0258 C   0  0  0  0  0  0
  -26.4480  -31.6562   25.0734 C   0  0  0  0  0  0
  -25.3718  -31.3709   26.1447 C   0  0  0  0  0  0
  -27.0339  -30.3011   24.6142 C   0  0  0  0  0  0
  -27.6025  -32.4297   25.7489 C   0  0  0  0  0  0
  -27.5577  -37.1827   24.8462 C   0  0  0  0  0  0
  -21.4116  -29.3035   22.3747 N   0  0  0  0  0  0
  -26.4306  -37.3777   23.9399 N   0  0  0  0  0  0
  -24.6697  -31.0764   22.1078 N   0  0  0  0  0  0
  -23.4209  -28.8150   23.2919 O   0  0  0  0  0  0
  -28.3339  -26.6160   20.1187 O   0  0  0  0  0  0
  -26.5573  -34.8910   22.4672 O   0  0  0  0  0  0
  -23.5353  -32.1476   23.7522 O   0  0  0  0  0  0
  -29.0212  -19.1430   21.3025 C   0  0  0  0  0  0
  -30.4953  -20.0371   19.9344 C   0  0  0  0  0  0
  -29.4032  -20.3898   20.6876 C   0  0  0  0  0  0
  -29.9704  -18.1853   21.0080 C   0  0  0  0  0  0
  -29.4129  -24.3843   20.1660 C   0  0  0  0  0  0
  -28.9236  -22.6035   18.3897 C   0  0  0  0  0  0
  -29.0608  -22.2738   22.3179 C   0  0  0  0  0  0
  -27.2431  -21.7279   20.7404 C   0  0  0  0  0  0
  -30.3912  -16.8550   21.6299 C   0  0  0  0  0  0
  -28.1017  -25.1878   20.2564 C   0  0  0  0  0  0
  -29.4037  -22.8514   19.8362 C   0  0  1  0  0  0
  -28.7828  -21.8154   20.8696 C   0  0  0  0  0  0
  -29.8935  -15.5666   21.0880 N   0  0  0  0  0  0
  -30.4916  -24.9746   20.2995 O   0  0  0  0  0  0
  -30.8506  -18.7246   20.1251 O   0  0  0  0  0  0
  -31.4595  -12.4916   19.0906 H   0  0  0  0  0  0
  -30.3716  -11.3533   19.8298 H   0  0  0  0  0  0
  -29.7264  -11.7371   17.4521 H   0  0  0  0  0  0
  -29.6229  -13.4647   17.7239 H   0  0  0  0  0  0
  -27.8396  -11.2754   18.8544 H   0  0  0  0  0  0
  -27.3457  -12.5549   17.7871 H   0  0  0  0  0  0
  -27.6819  -14.2362   19.5362 H   0  0  0  0  0  0
  -28.6857  -11.9776   21.3285 H   0  0  0  0  0  0
  -28.4321  -13.6127   21.8550 H   0  0  0  0  0  0
  -25.2648   -9.5733   22.4673 H   0  0  0  0  0  0
  -23.9979   -7.4646   22.7449 H   0  0  0  0  0  0
  -21.0788   -8.8644   19.8912 H   0  0  0  0  0  0
  -22.3534  -10.9574   19.6138 H   0  0  0  0  0  0
  -21.1995   -7.6101   23.9642 H   0  0  0  0  0  0
  -21.1503   -6.0510   25.9060 H   0  0  0  0  0  0
  -22.0599   -2.7553   23.2887 H   0  0  0  0  0  0
  -22.4170  -11.9801   22.4827 H   0  0  0  0  0  0
  -21.1094  -13.1058   22.2668 H   0  0  0  0  0  0
  -24.6593  -15.8324   20.5366 H   0  0  0  0  0  0
  -26.2690  -15.6318   20.0814 H   0  0  0  0  0  0
  -26.7119  -32.5481   23.1142 H   0  0  0  0  0  0
  -25.0012  -33.9768   25.0451 H   0  0  0  0  0  0
  -22.6896  -31.3262   21.4232 H   0  0  0  0  0  0
  -23.3724  -35.9671   23.3326 H   0  0  0  0  0  0
  -24.3610  -36.8929   22.2052 H   0  0  0  0  0  0
  -23.7274  -37.6558   23.6652 H   0  0  0  0  0  0
  -26.0634  -31.6165   20.6246 H   0  0  0  0  0  0
  -26.8235  -30.8667   22.0018 H   0  0  0  0  0  0
  -28.0964  -29.0740   21.1651 H   0  0  0  0  0  0
  -25.9688  -26.0161   18.9393 H   0  0  0  0  0  0
  -23.9454  -27.3523   19.0064 H   0  0  0  0  0  0
  -23.7216  -30.6321   19.4125 H   0  0  0  0  0  0
  -22.7286  -29.2823   19.8530 H   0  0  0  0  0  0
  -25.1299  -36.1962   25.0838 H   0  0  0  0  0  0
  -20.9858  -28.3183   24.1415 H   0  0  0  0  0  0
  -20.5360  -26.2267   23.3620 H   0  0  0  0  0  0
  -21.6699  -26.7356   22.1481 H   0  0  0  0  0  0
  -19.6976  -25.6414   21.1102 H   0  0  0  0  0  0
  -19.6753  -27.3323   20.6730 H   0  0  0  0  0  0
  -17.4361  -26.6910   21.3695 H   0  0  0  0  0  0
  -18.0175  -25.9980   22.8710 H   0  0  0  0  0  0
  -19.7930  -30.7207   24.2372 H   0  0  0  0  0  0
  -17.5004  -31.6234   24.5224 H   0  0  0  0  0  0
  -15.5371  -30.3030   23.7548 H   0  0  0  0  0  0
  -15.8679  -28.0808   22.6959 H   0  0  0  0  0  0
  -24.5849  -30.7101   25.7787 H   0  0  0  0  0  0
  -24.8930  -32.2887   26.4890 H   0  0  0  0  0  0
  -25.8029  -30.8860   27.0206 H   0  0  0  0  0  0
  -26.2921  -29.6740   24.1174 H   0  0  0  0  0  0
  -27.4087  -29.7274   25.4628 H   0  0  0  0  0  0
  -27.8751  -30.4350   23.9326 H   0  0  0  0  0  0
  -27.2615  -33.3581   26.2080 H   0  0  0  0  0  0
  -28.3809  -32.6905   25.0305 H   0  0  0  0  0  0
  -28.0694  -31.8412   26.5393 H   0  0  0  0  0  0
  -28.2610  -38.0110   24.7471 H   0  0  0  0  0  0
  -28.1073  -36.2642   24.6335 H   0  0  0  0  0  0
  -27.2289  -37.1518   25.8869 H   0  0  0  0  0  0
  -20.9225  -29.8873   21.7134 H   0  0  0  0  0  0
  -26.0185  -38.2873   24.1360 H   0  0  0  0  0  0
  -28.2033  -19.0054   21.9990 H   0  0  0  0  0  0
  -31.1501  -20.5858   19.2702 H   0  0  0  0  0  0
  -29.0931  -21.5701   18.0829 H   0  0  0  0  0  0
  -29.4347  -23.2464   17.6727 H   0  0  0  0  0  0
  -27.8560  -22.7923   18.2915 H   0  0  0  0  0  0
  -28.5497  -23.2111   22.5662 H   0  0  0  0  0  0
  -30.1237  -22.4254   22.4913 H   0  0  0  0  0  0
  -28.7343  -21.5212   23.0342 H   0  0  0  0  0  0
  -26.8010  -21.1146   21.5272 H   0  0  0  0  0  0
  -26.9401  -21.2958   19.7876 H   0  0  0  0  0  0
  -26.7611  -22.7024   20.8173 H   0  0  0  0  0  0
  -31.4812  -16.8421   21.6521 H   0  0  0  0  0  0
  -30.1248  -16.9041   22.6882 H   0  0  0  0  0  0
  -27.4569  -24.8044   19.4724 H   0  0  0  0  0  0
  -27.6117  -24.9919   21.2134 H   0  0  0  0  0  0
  -30.4727  -22.6465   19.8418 H   0  0  0  0  0  0
  -28.9450  -15.3209   21.3387 H   0  0  0  0  0  0
  1 25  1  0  0  0
  1 30  2  0  0  0
  1 83  1  0  0  0
  2  3  1  0  0  0
  2 25  1  0  0  0
  2 86  1  0  0  0
  2 87  1  0  0  0
  3  4  1  0  0  0
  3 88  1  0  0  0
  3 89  1  0  0  0
  4  5  1  0  0  0
  4 90  1  0  0  0
  4 91  1  0  0  0
  5  6  1  0  0  0
  5 26  1  0  0  0
  5 92  1  0  0  0
  6 25  1  0  0  0
  6 93  1  0  0  0
  6 94  1  0  0  0
  7  8  2  0  0  0
  7 26  1  0  0  0
  7 29  1  0  0  0
  8  9  1  0  0  0
  8 22  1  0  0  0
  9 10  1  0  0  0
  9 27  2  0  0  0
 10 11  2  0  0  0
 10 15  1  0  0  0
 11 12  1  0  0  0
 11 95  1  0  0  0
 12 13  2  0  0  0
 12 96  1  0  0  0
 13 14  1  0  0  0
 13 31  1  0  0  0
 14 15  2  0  0  0
 14 97  1  0  0  0
 15 98  1  0  0  0
 16 17  2  0  0  0
 16 21  1  0  0  0
 16 31  1  0  0  0
 17 18  1  0  0  0
 17 99  1  0  0  0
 18 19  2  0  0  0
 18100  1  0  0  0
 19 20  1  0  0  0
 19 24  1  0  0  0
 20 21  2  0  0  0
 20101  1  0  0  0
 21 23  1  0  0  0
 22 28  1  0  0  0
 22 32  2  0  0  0
 26 27  1  0  0  0
 28102  1  0  0  0
 28103  1  0  0  0
 29104  1  0  0  0
 29105  1  0  0  0
 33 34  1  0  0  0
 33 66  1  0  0  0
 33 70  2  0  0  0
 34 36  1  0  0  0
 34 59  1  0  0  0
 34106  1  0  0  0
 35 44  2  0  0  0
 35 45  1  0  0  0
 35 68  1  0  0  0
 36 56  1  0  0  0
 36107  1  0  0  0
 37 39  1  0  0  0
 37 47  1  0  0  0
 37 66  1  0  0  0
 37108  1  0  0  0
 38 43  2  0  0  0
 38 46  1  0  0  0
 38 47  1  0  0  0
 39 64  1  0  0  0
 39 67  2  0  0  0
 40 52  1  0  0  0
 40 53  2  0  0  0
 40 58  1  0  0  0
 41109  1  0  0  0
 41110  1  0  0  0
 41111  1  0  0  0
 41 48  1  0  0  0
 42 43  1  0  0  0
 42 66  1  0  0  0
 42112  1  0  0  0
 42113  1  0  0  0
 43 44  1  0  0  0
 44114  1  0  0  0
 45 46  2  0  0  0
 45115  1  0  0  0
 46116  1  0  0  0
 47117  1  0  0  0
 47118  1  0  0  0
 48 56  1  0  0  0
 48 65  1  0  0  0
 48119  1  0  0  0
 49 50  1  0  0  0
 49 53  1  0  0  0
 49 64  1  0  0  0
 49120  1  0  0  0
 50 51  1  0  0  0
 50121  1  0  0  0
 50122  1  0  0  0
 51 52  1  0  0  0
 51123  1  0  0  0
 51124  1  0  0  0
 52125  1  0  0  0
 52126  1  0  0  0
 53 54  1  0  0  0
 54 55  2  0  0  0
 54127  1  0  0  0
 55 57  1  0  0  0
 55128  1  0  0  0
 56 69  2  0  0  0
 57 58  2  0  0  0
 57129  1  0  0  0
 58130  1  0  0  0
 59 60  1  0  0  0
 59 61  1  0  0  0
 59 62  1  0  0  0
 60131  1  0  0  0
 60132  1  0  0  0
 60133  1  0  0  0
 61134  1  0  0  0
 61135  1  0  0  0
 61136  1  0  0  0
 62137  1  0  0  0
 62138  1  0  0  0
 62139  1  0  0  0
 63 65  1  0  0  0
 63140  1  0  0  0
 63141  1  0  0  0
 63142  1  0  0  0
 64143  1  0  0  0
 65144  1  0  0  0
 68 80  1  0  0  0
 71 73  1  0  0  0
 71 74  2  0  0  0
 71145  1  0  0  0
 72 73  2  0  0  0
 72 85  1  0  0  0
 72146  1  0  0  0
 73 82  1  0  0  0
 74 79  1  0  0  0
 74 85  1  0  0  0
 75 80  1  0  0  0
 75 81  1  0  0  0
 75 84  2  0  0  0
 76147  1  0  0  0
 76148  1  0  0  0
 76149  1  0  0  0
 76 81  1  0  0  0
 77150  1  0  0  0
 77151  1  0  0  0
 77152  1  0  0  0
 77 82  1  0  0  0
 78 82  1  0  0  0
 78153  1  0  0  0
 78154  1  0  0  0
 78155  1  0  0  0
 79 83  1  0  0  0
 79156  1  0  0  0
 79157  1  0  0  0
 80158  1  0  0  0
 80159  1  0  0  0
 81 82  1  0  0  0
 81160  1  0  0  0
 83161  1  0  0  0
M  ISO  4   1 100  68 101  80 101  83 100
M  END
> <chiral flag>
0

> <version>
0

> <s_m_source_file>
/data/baiqing/PycharmProjects/Reinvent-master-3.2/result/LINK_invent/BTK/process_docking_weight1_custom_product_contain_oxygen_bond_distance_aromatic_linkinvent_7_9_3/rearranged_h_0142.sdf

> <i_m_source_file_index>
24

> <r_mmod_Potential_Energy-OPLS-2005>
-54.5364952087402

> <r_mmod_Stretch_Energy-OPLS-2005>
52.6515846252441

> <r_mmod_Bend_Energy-OPLS-2005>
122.808296203613

> <r_mmod_Torsional_Energy-OPLS-2005>
222.110473632812

> <r_mmod_Improper_Torsional_Energy-OPLS-2005>
4.93435049057007

> <r_mmod_Van_der_Waal_Energy-OPLS-2005>
135.962677001953

> <r_mmod_Electrostatic_Energy-OPLS-2005>
-389.694427490234

> <r_mmod_Solvation_Energy-OPLS-2005>
-229.896667480469

> <b_mmod_Minimization_Converged-OPLS-2005>
0

> <r_mmod_RMS_Derivative-OPLS-2005>
10.530330657959

$$$$
24
                    3D
 Structure written by MMmdl.
154163  0  0  1  0            999 V2000
  -30.5784  -14.7352   20.4921 C   0  0  0  0  0  0
  -30.4449  -12.4520   19.4774 C   0  0  0  0  0  0
  -29.5202  -12.5217   18.2407 C   0  0  0  0  0  0
  -28.0436  -12.3403   18.6480 C   0  0  0  0  0  0
  -27.6490  -13.2239   19.8615 C   0  0  2  0  0  0
  -28.6893  -13.1187   20.9986 C   0  0  0  0  0  0
  -25.2531  -13.8176   20.5667 C   0  0  0  0  0  0
  -24.1815  -13.0432   20.9190 C   0  0  0  0  0  0
  -24.6396  -11.6904   20.8731 C   0  0  0  0  0  0
  -23.9071  -10.4289   21.0400 C   0  0  0  0  0  0
  -24.3618   -9.4207   21.9177 C   0  0  0  0  0  0
  -23.6289   -8.2241   22.0753 C   0  0  0  0  0  0
  -22.4277   -8.0280   21.3549 C   0  0  0  0  0  0
  -21.9916   -9.0252   20.4647 C   0  0  0  0  0  0
  -22.7240  -10.2128   20.3048 C   0  0  0  0  0  0
  -21.6856   -6.0731   22.5273 C   0  0  0  0  0  0
  -21.4017   -6.5633   23.8210 C   0  0  0  0  0  0
  -21.3660   -5.6791   24.9170 C   0  0  0  0  0  0
  -21.6043   -4.3047   24.7220 C   0  0  0  0  0  0
  -21.8820   -3.8144   23.4342 C   0  0  0  0  0  0
  -21.9192   -4.6966   22.3396 C   0  0  0  0  0  0
  -22.7833  -13.5216   21.1862 C   0  0  0  0  0  0
  -22.1660   -4.2147   21.0974 F   0  0  0  0  0  0
  -21.5634   -3.4532   25.7735 F   0  0  0  0  0  0
  -29.9955  -13.4886   20.4339 N   0  0  0  0  0  0
  -26.2965  -12.9361   20.3297 N   0  0  0  0  0  0
  -25.9331  -11.6513   20.5745 N   0  0  0  0  0  0
  -22.0484  -12.8199   22.0416 N   0  0  0  0  0  0
  -25.4209  -15.1893   20.4048 N   0  0  0  0  0  0
  -31.7480  -14.8913   20.1249 O   0  0  0  0  0  0
  -21.6646   -6.8873   21.4238 O   0  0  0  0  0  0
  -22.3517  -14.5530   20.6713 O   0  0  0  0  0  0
  -24.6303  -31.8552   23.1970 C   0  0  0  0  0  0
  -25.9112  -32.4774   23.8330 C   0  0  1  0  0  0
  -27.2328  -27.2761   20.1395 C   0  0  0  0  0  0
  -25.5906  -33.8564   24.2266 N   0  0  0  0  0  0
  -23.4291  -30.4736   21.5398 C   0  0  2  0  0  0
  -24.8804  -28.9190   20.1151 C   0  0  0  0  0  0
  -22.7518  -29.4568   22.4904 C   0  0  0  0  0  0
  -18.0295  -28.1394   22.8490 C   0  0  0  0  0  0
  -24.1465  -36.7268   23.2613 C   0  0  0  0  0  0
  -25.9714  -30.7761   21.3714 C   0  0  0  0  0  0
  -26.0506  -29.3962   20.7202 C   0  0  0  0  0  0
  -27.2335  -28.5885   20.7170 C   0  0  0  0  0  0
  -26.0440  -26.8638   19.5018 C   0  0  0  0  0  0
  -24.8815  -27.6610   19.4922 C   0  0  0  0  0  0
  -23.6487  -29.8032   20.1583 C   0  0  0  0  0  0
  -25.4083  -36.3070   24.0333 C   0  0  1  0  0  0
  -20.5911  -28.3674   23.1283 C   0  0  2  0  0  0
  -20.6769  -26.9389   22.5410 C   0  0  0  0  0  0
  -19.5738  -26.6383   21.5211 C   0  0  0  0  0  0
  -18.1924  -26.7932   22.1632 C   0  0  0  0  0  0
  -19.1555  -28.8849   23.2878 C   0  0  0  0  0  0
  -18.9468  -30.1463   23.8888 C   0  0  0  0  0  0
  -17.6469  -30.6594   24.0571 C   0  0  0  0  0  0
  -25.9052  -34.9444   23.5106 C   0  0  0  0  0  0
  -16.5357  -29.9092   23.6357 C   0  0  0  0  0  0
  -16.7284  -28.6508   23.0377 C   0  0  0  0  0  0
  -26.4479  -31.6597   25.0715 C   0  0  0  0  0  0
  -25.3703  -31.3766   26.1446 C   0  0  0  0  0  0
  -27.0320  -30.3021   24.6153 C   0  0  0  0  0  0
  -27.6034  -32.4328   25.7492 C   0  0  0  0  0  0
  -27.5612  -37.1717   24.8403 C   0  0  0  0  0  0
  -21.4222  -29.3021   22.3665 N   0  0  0  0  0  0
  -26.4223  -37.3816   23.9496 N   0  0  0  0  0  0
  -24.6955  -31.0525   22.0936 N   0  0  0  0  0  0
  -23.4221  -28.8099   23.2985 O   0  0  0  0  0  0
  -28.3257  -26.3829   20.1599 O   0  0  0  0  0  0
  -26.5623  -34.8922   22.4673 O   0  0  0  0  0  0
  -23.5445  -32.1350   23.7281 O   0  0  0  0  0  0
  -30.4927  -19.4826   20.2855 C   0  0  0  0  0  0
  -30.8135  -18.0564   20.2656 C   0  0  0  0  0  0
  -29.2293  -19.8290   20.7344 C   0  0  0  0  0  0
  -29.8226  -17.1939   20.6981 C   0  0  0  0  0  0
  -27.4510  -21.1821   21.5849 C   0  0  0  0  0  0
  -28.9145  -23.7537   20.2284 C   0  0  0  0  0  0
  -27.4842  -22.2510   22.6731 C   0  0  0  0  0  0
  -28.9464  -22.6921   22.6337 C   0  0  0  0  0  0
  -29.2983  -22.4512   21.1601 C   0  0  1  0  0  0
  -28.0816  -25.0262   20.7586 C   0  0  0  0  0  0
  -28.6223  -21.1013   20.9150 N   0  0  0  0  0  0
  -29.7445  -15.7946   20.8152 N   0  0  0  0  0  0
  -26.4314  -20.5278   21.3574 O   0  0  0  0  0  0
  -29.2804  -23.7766   19.0508 O   0  0  0  0  0  0
  -28.4560  -18.2494   21.1325 S   0  0  0  0  0  0
  -31.4864  -12.5902   19.1820 H   0  0  0  0  0  0
  -30.3942  -11.4655   19.9403 H   0  0  0  0  0  0
  -29.8053  -11.7627   17.5115 H   0  0  0  0  0  0
  -29.6460  -13.4856   17.7447 H   0  0  0  0  0  0
  -27.8971  -11.2879   18.8948 H   0  0  0  0  0  0
  -27.3889  -12.5465   17.8010 H   0  0  0  0  0  0
  -27.6532  -14.2535   19.5021 H   0  0  0  0  0  0
  -28.7229  -12.1056   21.4023 H   0  0  0  0  0  0
  -28.4169  -13.7629   21.8354 H   0  0  0  0  0  0
  -25.2763   -9.5676   22.4748 H   0  0  0  0  0  0
  -23.9999   -7.4632   22.7473 H   0  0  0  0  0  0
  -21.0849   -8.8761   19.8947 H   0  0  0  0  0  0
  -22.3697  -10.9663   19.6150 H   0  0  0  0  0  0
  -21.2011   -7.6141   23.9704 H   0  0  0  0  0  0
  -21.1487   -6.0522   25.9071 H   0  0  0  0  0  0
  -22.0599   -2.7608   23.2837 H   0  0  0  0  0  0
  -22.4113  -11.9849   22.4779 H   0  0  0  0  0  0
  -21.1100  -13.1210   22.2637 H   0  0  0  0  0  0
  -24.6428  -15.8341   20.4945 H   0  0  0  0  0  0
  -26.2579  -15.6289   20.0437 H   0  0  0  0  0  0
  -26.7168  -32.5444   23.1072 H   0  0  0  0  0  0
  -25.0072  -33.9711   25.0422 H   0  0  0  0  0  0
  -22.7255  -31.2953   21.3930 H   0  0  0  0  0  0
  -23.3782  -35.9534   23.3150 H   0  0  0  0  0  0
  -24.3593  -36.9032   22.2051 H   0  0  0  0  0  0
  -23.7120  -37.6387   23.6715 H   0  0  0  0  0  0
  -26.1008  -31.5334   20.5966 H   0  0  0  0  0  0
  -26.8526  -30.8357   21.9993 H   0  0  0  0  0  0
  -28.1319  -28.9528   21.1939 H   0  0  0  0  0  0
  -26.0076  -25.9003   19.0140 H   0  0  0  0  0  0
  -23.9882  -27.2959   19.0060 H   0  0  0  0  0  0
  -23.7730  -30.5784   19.4011 H   0  0  0  0  0  0
  -22.7701  -29.2322   19.8557 H   0  0  0  0  0  0
  -25.1236  -36.1874   25.0815 H   0  0  0  0  0  0
  -21.0016  -28.3224   24.1397 H   0  0  0  0  0  0
  -20.5642  -26.2273   23.3605 H   0  0  0  0  0  0
  -21.6633  -26.7395   22.1208 H   0  0  0  0  0  0
  -19.6871  -25.6299   21.1232 H   0  0  0  0  0  0
  -19.6678  -27.3203   20.6747 H   0  0  0  0  0  0
  -17.4194  -26.6711   21.4028 H   0  0  0  0  0  0
  -18.0311  -26.0090   22.9034 H   0  0  0  0  0  0
  -19.7935  -30.7302   24.2232 H   0  0  0  0  0  0
  -17.5013  -31.6282   24.5166 H   0  0  0  0  0  0
  -15.5351  -30.2989   23.7673 H   0  0  0  0  0  0
  -15.8690  -28.0819   22.7099 H   0  0  0  0  0  0
  -24.5887  -30.7086   25.7802 H   0  0  0  0  0  0
  -24.8860  -32.2942   26.4793 H   0  0  0  0  0  0
  -25.8028  -30.9020   27.0262 H   0  0  0  0  0  0
  -26.2896  -29.6794   24.1138 H   0  0  0  0  0  0
  -27.3988  -29.7254   25.4649 H   0  0  0  0  0  0
  -27.8779  -30.4331   23.9407 H   0  0  0  0  0  0
  -27.2636  -33.3611   26.2088 H   0  0  0  0  0  0
  -28.3839  -32.6916   25.0331 H   0  0  0  0  0  0
  -28.0695  -31.8433   26.5400 H   0  0  0  0  0  0
  -28.2405  -38.0232   24.7855 H   0  0  0  0  0  0
  -28.1345  -36.2823   24.5725 H   0  0  0  0  0  0
  -27.2419  -37.0747   25.8796 H   0  0  0  0  0  0
  -20.9383  -29.8766   21.6908 H   0  0  0  0  0  0
  -26.0088  -38.2821   24.1764 H   0  0  0  0  0  0
  -31.2264  -20.2062   19.9615 H   0  0  0  0  0  0
  -31.7822  -17.7212   19.9237 H   0  0  0  0  0  0
  -27.2077  -21.8389   23.6438 H   0  0  0  0  0  0
  -26.7958  -23.0586   22.4274 H   0  0  0  0  0  0
  -29.5463  -22.0420   23.2742 H   0  0  0  0  0  0
  -29.1140  -23.7069   22.9917 H   0  0  0  0  0  0
  -30.3784  -22.3155   21.0834 H   0  0  0  0  0  0
  -28.2348  -25.1433   21.8280 H   0  0  0  0  0  0
  -27.0320  -24.7638   20.6420 H   0  0  0  0  0  0
  -28.8413  -15.4685   21.1247 H   0  0  0  0  0  0
  1 25  1  0  0  0
  1 30  2  0  0  0
  1 82  1  0  0  0
  2  3  1  0  0  0
  2 25  1  0  0  0
  2 86  1  0  0  0
  2 87  1  0  0  0
  3  4  1  0  0  0
  3 88  1  0  0  0
  3 89  1  0  0  0
  4  5  1  0  0  0
  4 90  1  0  0  0
  4 91  1  0  0  0
  5  6  1  0  0  0
  5 26  1  0  0  0
  5 92  1  0  0  0
  6 25  1  0  0  0
  6 93  1  0  0  0
  6 94  1  0  0  0
  7  8  2  0  0  0
  7 26  1  0  0  0
  7 29  1  0  0  0
  8  9  1  0  0  0
  8 22  1  0  0  0
  9 10  1  0  0  0
  9 27  2  0  0  0
 10 11  2  0  0  0
 10 15  1  0  0  0
 11 12  1  0  0  0
 11 95  1  0  0  0
 12 13  2  0  0  0
 12 96  1  0  0  0
 13 14  1  0  0  0
 13 31  1  0  0  0
 14 15  2  0  0  0
 14 97  1  0  0  0
 15 98  1  0  0  0
 16 17  2  0  0  0
 16 21  1  0  0  0
 16 31  1  0  0  0
 17 18  1  0  0  0
 17 99  1  0  0  0
 18 19  2  0  0  0
 18100  1  0  0  0
 19 20  1  0  0  0
 19 24  1  0  0  0
 20 21  2  0  0  0
 20101  1  0  0  0
 21 23  1  0  0  0
 22 28  1  0  0  0
 22 32  2  0  0  0
 26 27  1  0  0  0
 28102  1  0  0  0
 28103  1  0  0  0
 29104  1  0  0  0
 29105  1  0  0  0
 33 34  1  0  0  0
 33 66  1  0  0  0
 33 70  2  0  0  0
 34 36  1  0  0  0
 34 59  1  0  0  0
 34106  1  0  0  0
 35 44  2  0  0  0
 35 45  1  0  0  0
 35 68  1  0  0  0
 36 56  1  0  0  0
 36107  1  0  0  0
 37 39  1  0  0  0
 37 47  1  0  0  0
 37 66  1  0  0  0
 37108  1  0  0  0
 38 43  2  0  0  0
 38 46  1  0  0  0
 38 47  1  0  0  0
 39 64  1  0  0  0
 39 67  2  0  0  0
 40 52  1  0  0  0
 40 53  2  0  0  0
 40 58  1  0  0  0
 41109  1  0  0  0
 41110  1  0  0  0
 41111  1  0  0  0
 41 48  1  0  0  0
 42 43  1  0  0  0
 42 66  1  0  0  0
 42112  1  0  0  0
 42113  1  0  0  0
 43 44  1  0  0  0
 44114  1  0  0  0
 45 46  2  0  0  0
 45115  1  0  0  0
 46116  1  0  0  0
 47117  1  0  0  0
 47118  1  0  0  0
 48 56  1  0  0  0
 48 65  1  0  0  0
 48119  1  0  0  0
 49 50  1  0  0  0
 49 53  1  0  0  0
 49 64  1  0  0  0
 49120  1  0  0  0
 50 51  1  0  0  0
 50121  1  0  0  0
 50122  1  0  0  0
 51 52  1  0  0  0
 51123  1  0  0  0
 51124  1  0  0  0
 52125  1  0  0  0
 52126  1  0  0  0
 53 54  1  0  0  0
 54 55  2  0  0  0
 54127  1  0  0  0
 55 57  1  0  0  0
 55128  1  0  0  0
 56 69  2  0  0  0
 57 58  2  0  0  0
 57129  1  0  0  0
 58130  1  0  0  0
 59 60  1  0  0  0
 59 61  1  0  0  0
 59 62  1  0  0  0
 60131  1  0  0  0
 60132  1  0  0  0
 60133  1  0  0  0
 61134  1  0  0  0
 61135  1  0  0  0
 61136  1  0  0  0
 62137  1  0  0  0
 62138  1  0  0  0
 62139  1  0  0  0
 63 65  1  0  0  0
 63140  1  0  0  0
 63141  1  0  0  0
 63142  1  0  0  0
 64143  1  0  0  0
 65144  1  0  0  0
 68 80  1  0  0  0
 71 72  1  0  0  0
 71 73  2  0  0  0
 71145  1  0  0  0
 72 74  2  0  0  0
 72146  1  0  0  0
 73 81  1  0  0  0
 73 85  1  0  0  0
 74 82  1  0  0  0
 74 85  1  0  0  0
 75 77  1  0  0  0
 75 81  1  0  0  0
 75 83  2  0  0  0
 76 80  1  0  0  0
 76 84  2  0  0  0
 76 79  1  0  0  0
 77 78  1  0  0  0
 77147  1  0  0  0
 77148  1  0  0  0
 78 79  1  0  0  0
 78149  1  0  0  0
 78150  1  0  0  0
 79 81  1  0  0  0
 79151  1  0  0  0
 80152  1  0  0  0
 80153  1  0  0  0
 82154  1  0  0  0
M  ISO  4   1 100  68 101  80 101  82 100
M  END
> <chiral flag>
0

> <version>
0

> <s_m_source_file>
/data/baiqing/PycharmProjects/Reinvent-master-3.2/result/LINK_invent/BTK/process_docking_weight1_custom_product_contain_oxygen_bond_distance_aromatic_linkinvent_7_9_3/rearranged_h_0142.sdf

> <i_m_source_file_index>
25

> <r_mmod_Potential_Energy-OPLS-2005>
245.67610168457

> <r_mmod_Stretch_Energy-OPLS-2005>
123.21361541748

> <r_mmod_Bend_Energy-OPLS-2005>
220.54508972168

> <r_mmod_Torsional_Energy-OPLS-2005>
296.950805664062

> <r_mmod_Improper_Torsional_Energy-OPLS-2005>
6.0009560585022

> <r_mmod_Van_der_Waal_Energy-OPLS-2005>
121.878616333008

> <r_mmod_Electrostatic_Energy-OPLS-2005>
-361.977722167969

> <r_mmod_Solvation_Energy-OPLS-2005>
-239.510650634766

> <b_mmod_Minimization_Converged-OPLS-2005>
0

> <r_mmod_RMS_Derivative-OPLS-2005>
2.47356176376343

$$$$
25
                    3D
 Structure written by MMmdl.
177185  0  0  1  0            999 V2000
  -30.6693  -14.4524   20.6418 C   0  0  0  0  0  0
  -30.4378  -12.3174   19.4029 C   0  0  0  0  0  0
  -29.5017  -12.5342   18.1955 C   0  0  0  0  0  0
  -28.0196  -12.3798   18.6052 C   0  0  0  0  0  0
  -27.6671  -13.1938   19.8776 C   0  0  2  0  0  0
  -28.7035  -12.9145   20.9873 C   0  0  0  0  0  0
  -25.2627  -13.8117   20.5686 C   0  0  0  0  0  0
  -24.1849  -13.0426   20.9171 C   0  0  0  0  0  0
  -24.6381  -11.6881   20.8704 C   0  0  0  0  0  0
  -23.9025  -10.4282   21.0390 C   0  0  0  0  0  0
  -24.3588   -9.4209   21.9177 C   0  0  0  0  0  0
  -23.6273   -8.2237   22.0746 C   0  0  0  0  0  0
  -22.4256   -8.0271   21.3546 C   0  0  0  0  0  0
  -21.9882   -9.0243   20.4648 C   0  0  0  0  0  0
  -22.7200  -10.2121   20.3047 C   0  0  0  0  0  0
  -21.6855   -6.0724   22.5281 C   0  0  0  0  0  0
  -21.4018   -6.5624   23.8212 C   0  0  0  0  0  0
  -21.3661   -5.6779   24.9176 C   0  0  0  0  0  0
  -21.6037   -4.3039   24.7224 C   0  0  0  0  0  0
  -21.8816   -3.8135   23.4345 C   0  0  0  0  0  0
  -21.9199   -4.6954   22.3406 C   0  0  0  0  0  0
  -22.7873  -13.5249   21.1850 C   0  0  0  0  0  0
  -22.1666   -4.2143   21.0986 F   0  0  0  0  0  0
  -21.5638   -3.4523   25.7737 F   0  0  0  0  0  0
  -30.0352  -13.2635   20.4521 N   0  0  0  0  0  0
  -26.3040  -12.9262   20.3330 N   0  0  0  0  0  0
  -25.9290  -11.6436   20.5683 N   0  0  0  0  0  0
  -22.0497  -12.8246   22.0402 N   0  0  0  0  0  0
  -25.4378  -15.1831   20.4139 N   0  0  0  0  0  0
  -31.7661  -14.7252   20.1381 O   0  0  0  0  0  0
  -21.6635   -6.8864   21.4245 O   0  0  0  0  0  0
  -22.3558  -14.5572   20.6723 O   0  0  0  0  0  0
  -24.6146  -31.8691   23.2105 C   0  0  0  0  0  0
  -25.9040  -32.4832   23.8404 C   0  0  1  0  0  0
  -27.2398  -27.4444   20.0959 C   0  0  0  0  0  0
  -25.5900  -33.8627   24.2337 N   0  0  0  0  0  0
  -23.4038  -30.4901   21.5522 C   0  0  2  0  0  0
  -24.8521  -28.9535   20.1195 C   0  0  0  0  0  0
  -22.7420  -29.4653   22.5012 C   0  0  0  0  0  0
  -18.0277  -28.1387   22.8500 C   0  0  0  0  0  0
  -24.1483  -36.7301   23.2641 C   0  0  0  0  0  0
  -25.9318  -30.8363   21.3628 C   0  0  0  0  0  0
  -26.0116  -29.4697   20.7128 C   0  0  0  0  0  0
  -27.2121  -28.7233   20.6953 C   0  0  0  0  0  0
  -26.0656  -26.9335   19.5071 C   0  0  0  0  0  0
  -24.8729  -27.6837   19.5132 C   0  0  0  0  0  0
  -23.6125  -29.8192   20.1685 C   0  0  0  0  0  0
  -25.4108  -36.3115   24.0348 C   0  0  1  0  0  0
  -20.5870  -28.3667   23.1336 C   0  0  2  0  0  0
  -20.6760  -26.9400   22.5439 C   0  0  0  0  0  0
  -19.5743  -26.6392   21.5223 C   0  0  0  0  0  0
  -18.1918  -26.7935   22.1622 C   0  0  0  0  0  0
  -19.1524  -28.8841   23.2914 C   0  0  0  0  0  0
  -18.9452  -30.1446   23.8922 C   0  0  0  0  0  0
  -17.6449  -30.6590   24.0574 C   0  0  0  0  0  0
  -25.9039  -34.9481   23.5142 C   0  0  0  0  0  0
  -16.5337  -29.9089   23.6326 C   0  0  0  0  0  0
  -16.7266  -28.6505   23.0346 C   0  0  0  0  0  0
  -26.4471  -31.6606   25.0723 C   0  0  0  0  0  0
  -25.3737  -31.3720   26.1478 C   0  0  0  0  0  0
  -27.0286  -30.3047   24.6088 C   0  0  0  0  0  0
  -27.6073  -32.4318   25.7455 C   0  0  0  0  0  0
  -27.5587  -37.1795   24.8465 C   0  0  0  0  0  0
  -21.4150  -29.3026   22.3743 N   0  0  0  0  0  0
  -26.4292  -37.3798   23.9424 N   0  0  0  0  0  0
  -24.6684  -31.0788   22.1009 N   0  0  0  0  0  0
  -23.4185  -28.8210   23.3072 O   0  0  0  0  0  0
  -28.4008  -26.7087   20.0397 O   0  0  0  0  0  0
  -26.5596  -34.8927   22.4700 O   0  0  0  0  0  0
  -23.5340  -32.1435   23.7499 O   0  0  0  0  0  0
  -31.0001  -18.9280   23.2713 C   0  0  0  0  0  0
  -30.8724  -17.6321   21.2478 C   0  0  0  0  0  0
  -31.2135  -18.8724   21.8712 C   0  0  0  0  0  0
  -30.3737  -17.8951   23.9968 C   0  0  0  0  0  0
  -29.9966  -16.7017   23.3423 C   0  0  0  0  0  0
  -30.3040  -16.5517   21.9703 C   0  0  0  0  0  0
  -30.1309  -18.1015   25.4830 C   0  0  0  0  0  0
  -29.2867  -15.5726   24.0886 C   0  0  0  0  0  0
  -33.4468  -19.7168   21.2893 C   0  0  0  0  0  0
  -31.6956  -19.8190   19.5461 C   0  0  0  0  0  0
  -32.6437  -22.5334   20.7635 C   0  0  0  0  0  0
  -31.7513  -21.9126   22.9524 C   0  0  0  0  0  0
  -29.6700  -23.4014   21.4538 C   0  0  0  0  0  0
  -29.0897  -24.3532   20.3808 C   0  0  0  0  0  0
  -30.1995  -22.0183   20.9498 C   0  0  0  0  0  0
  -28.4947  -25.6458   20.9953 C   0  0  0  0  0  0
  -31.9438  -20.0175   21.0714 C   0  0  0  0  0  0
  -31.6220  -21.5705   21.4435 C   0  0  0  0  0  0
  -29.9312  -15.3347   21.3403 N   0  0  0  0  0  0
  -31.4812  -12.4496   19.1094 H   0  0  0  0  0  0
  -30.3574  -11.2930   19.7719 H   0  0  0  0  0  0
  -29.7495  -11.8345   17.3967 H   0  0  0  0  0  0
  -29.6612  -13.5327   17.7838 H   0  0  0  0  0  0
  -27.8306  -11.3199   18.7838 H   0  0  0  0  0  0
  -27.3692  -12.6735   17.7805 H   0  0  0  0  0  0
  -27.7274  -14.2495   19.6109 H   0  0  0  0  0  0
  -28.6886  -11.8553   21.2526 H   0  0  0  0  0  0
  -28.4484  -13.4327   21.9109 H   0  0  0  0  0  0
  -25.2731   -9.5702   22.4745 H   0  0  0  0  0  0
  -24.0009   -7.4626   22.7439 H   0  0  0  0  0  0
  -21.0822   -8.8744   19.8945 H   0  0  0  0  0  0
  -22.3654  -10.9659   19.6150 H   0  0  0  0  0  0
  -21.2003   -7.6130   23.9718 H   0  0  0  0  0  0
  -21.1490   -6.0504   25.9082 H   0  0  0  0  0  0
  -22.0599   -2.7600   23.2840 H   0  0  0  0  0  0
  -22.4075  -11.9907   22.4796 H   0  0  0  0  0  0
  -21.1110  -13.1291   22.2607 H   0  0  0  0  0  0
  -24.6758  -15.8422   20.5271 H   0  0  0  0  0  0
  -26.2933  -15.6220   20.0963 H   0  0  0  0  0  0
  -26.7118  -32.5554   23.1177 H   0  0  0  0  0  0
  -25.0059  -33.9792   25.0487 H   0  0  0  0  0  0
  -22.6916  -31.3066   21.4136 H   0  0  0  0  0  0
  -23.3757  -35.9620   23.3311 H   0  0  0  0  0  0
  -24.3579  -36.8902   22.2051 H   0  0  0  0  0  0
  -23.7211  -37.6502   23.6644 H   0  0  0  0  0  0
  -26.0440  -31.6016   20.5936 H   0  0  0  0  0  0
  -26.8206  -30.8910   21.9804 H   0  0  0  0  0  0
  -28.1148  -29.1251   21.1344 H   0  0  0  0  0  0
  -26.0796  -25.9601   19.0374 H   0  0  0  0  0  0
  -23.9822  -27.2819   19.0497 H   0  0  0  0  0  0
  -23.7179  -30.5934   19.4078 H   0  0  0  0  0  0
  -22.7368  -29.2374   19.8758 H   0  0  0  0  0  0
  -25.1272  -36.1987   25.0838 H   0  0  0  0  0  0
  -20.9958  -28.3230   24.1456 H   0  0  0  0  0  0
  -20.5672  -26.2261   23.3623 H   0  0  0  0  0  0
  -21.6633  -26.7452   22.1226 H   0  0  0  0  0  0
  -19.6902  -25.6308   21.1235 H   0  0  0  0  0  0
  -19.6694  -27.3217   20.6766 H   0  0  0  0  0  0
  -17.4203  -26.6723   21.4007 H   0  0  0  0  0  0
  -18.0293  -26.0069   22.9005 H   0  0  0  0  0  0
  -19.7922  -30.7262   24.2307 H   0  0  0  0  0  0
  -17.5000  -31.6265   24.5180 H   0  0  0  0  0  0
  -15.5341  -30.2995   23.7634 H   0  0  0  0  0  0
  -15.8668  -28.0830   22.7046 H   0  0  0  0  0  0
  -24.5908  -30.7070   25.7817 H   0  0  0  0  0  0
  -24.8922  -32.2875   26.4926 H   0  0  0  0  0  0
  -25.8083  -30.8889   27.0236 H   0  0  0  0  0  0
  -26.2807  -29.6814   24.1169 H   0  0  0  0  0  0
  -27.4089  -29.7285   25.4533 H   0  0  0  0  0  0
  -27.8635  -30.4371   23.9202 H   0  0  0  0  0  0
  -27.2723  -33.3614   26.2071 H   0  0  0  0  0  0
  -28.3832  -32.6892   25.0230 H   0  0  0  0  0  0
  -28.0799  -31.8419   26.5317 H   0  0  0  0  0  0
  -28.2617  -38.0082   24.7526 H   0  0  0  0  0  0
  -28.1068  -36.2619   24.6265 H   0  0  0  0  0  0
  -27.2319  -37.1429   25.8872 H   0  0  0  0  0  0
  -20.9318  -29.8711   21.6932 H   0  0  0  0  0  0
  -26.0188  -38.2878   24.1439 H   0  0  0  0  0  0
  -31.3419  -19.7480   23.8652 H   0  0  0  0  0  0
  -31.0535  -17.4656   20.1979 H   0  0  0  0  0  0
  -30.5867  -19.0227   25.8454 H   0  0  0  0  0  0
  -30.5522  -17.2827   26.0660 H   0  0  0  0  0  0
  -29.0611  -18.1606   25.6864 H   0  0  0  0  0  0
  -29.8701  -14.6520   24.0317 H   0  0  0  0  0  0
  -28.3109  -15.3844   23.6393 H   0  0  0  0  0  0
  -29.1076  -15.7817   25.1415 H   0  0  0  0  0  0
  -33.6745  -18.6754   21.0561 H   0  0  0  0  0  0
  -33.7561  -19.8757   22.3213 H   0  0  0  0  0  0
  -34.0958  -20.3123   20.6489 H   0  0  0  0  0  0
  -32.1533  -18.9048   19.1677 H   0  0  0  0  0  0
  -32.1294  -20.6002   18.9282 H   0  0  0  0  0  0
  -30.6312  -19.7779   19.3117 H   0  0  0  0  0  0
  -32.4156  -23.5791   20.9676 H   0  0  0  0  0  0
  -32.6689  -22.4581   19.6791 H   0  0  0  0  0  0
  -33.6594  -22.3876   21.1306 H   0  0  0  0  0  0
  -31.9425  -22.9702   23.1314 H   0  0  0  0  0  0
  -32.5910  -21.4074   23.4270 H   0  0  0  0  0  0
  -30.8315  -21.6984   23.4978 H   0  0  0  0  0  0
  -28.9195  -23.2262   22.2253 H   0  0  0  0  0  0
  -30.4538  -23.9662   21.9503 H   0  0  0  0  0  0
  -28.3248  -23.8450   19.7924 H   0  0  0  0  0  0
  -29.8869  -24.6193   19.6848 H   0  0  0  0  0  0
  -30.1857  -22.0271   19.8591 H   0  0  0  0  0  0
  -29.4713  -21.2556   21.2315 H   0  0  0  0  0  0
  -29.1410  -26.0028   21.7982 H   0  0  0  0  0  0
  -27.5326  -25.4178   21.4599 H   0  0  0  0  0  0
  -29.0699  -14.9316   21.6740 H   0  0  0  0  0  0
  1 25  1  0  0  0
  1 30  2  0  0  0
  1 89  1  0  0  0
  2  3  1  0  0  0
  2 25  1  0  0  0
  2 90  1  0  0  0
  2 91  1  0  0  0
  3  4  1  0  0  0
  3 92  1  0  0  0
  3 93  1  0  0  0
  4  5  1  0  0  0
  4 94  1  0  0  0
  4 95  1  0  0  0
  5  6  1  0  0  0
  5 26  1  0  0  0
  5 96  1  0  0  0
  6 25  1  0  0  0
  6 97  1  0  0  0
  6 98  1  0  0  0
  7  8  2  0  0  0
  7 26  1  0  0  0
  7 29  1  0  0  0
  8  9  1  0  0  0
  8 22  1  0  0  0
  9 10  1  0  0  0
  9 27  2  0  0  0
 10 11  2  0  0  0
 10 15  1  0  0  0
 11 12  1  0  0  0
 11 99  1  0  0  0
 12 13  2  0  0  0
 12100  1  0  0  0
 13 14  1  0  0  0
 13 31  1  0  0  0
 14 15  2  0  0  0
 14101  1  0  0  0
 15102  1  0  0  0
 16 17  2  0  0  0
 16 21  1  0  0  0
 16 31  1  0  0  0
 17 18  1  0  0  0
 17103  1  0  0  0
 18 19  2  0  0  0
 18104  1  0  0  0
 19 20  1  0  0  0
 19 24  1  0  0  0
 20 21  2  0  0  0
 20105  1  0  0  0
 21 23  1  0  0  0
 22 28  1  0  0  0
 22 32  2  0  0  0
 26 27  1  0  0  0
 28106  1  0  0  0
 28107  1  0  0  0
 29108  1  0  0  0
 29109  1  0  0  0
 33 34  1  0  0  0
 33 66  1  0  0  0
 33 70  2  0  0  0
 34 36  1  0  0  0
 34 59  1  0  0  0
 34110  1  0  0  0
 35 44  2  0  0  0
 35 45  1  0  0  0
 35 68  1  0  0  0
 36 56  1  0  0  0
 36111  1  0  0  0
 37 39  1  0  0  0
 37 47  1  0  0  0
 37 66  1  0  0  0
 37112  1  0  0  0
 38 43  2  0  0  0
 38 46  1  0  0  0
 38 47  1  0  0  0
 39 64  1  0  0  0
 39 67  2  0  0  0
 40 52  1  0  0  0
 40 53  2  0  0  0
 40 58  1  0  0  0
 41113  1  0  0  0
 41114  1  0  0  0
 41115  1  0  0  0
 41 48  1  0  0  0
 42 43  1  0  0  0
 42 66  1  0  0  0
 42116  1  0  0  0
 42117  1  0  0  0
 43 44  1  0  0  0
 44118  1  0  0  0
 45 46  2  0  0  0
 45119  1  0  0  0
 46120  1  0  0  0
 47121  1  0  0  0
 47122  1  0  0  0
 48 56  1  0  0  0
 48 65  1  0  0  0
 48123  1  0  0  0
 49 50  1  0  0  0
 49 53  1  0  0  0
 49 64  1  0  0  0
 49124  1  0  0  0
 50 51  1  0  0  0
 50125  1  0  0  0
 50126  1  0  0  0
 51 52  1  0  0  0
 51127  1  0  0  0
 51128  1  0  0  0
 52129  1  0  0  0
 52130  1  0  0  0
 53 54  1  0  0  0
 54 55  2  0  0  0
 54131  1  0  0  0
 55 57  1  0  0  0
 55132  1  0  0  0
 56 69  2  0  0  0
 57 58  2  0  0  0
 57133  1  0  0  0
 58134  1  0  0  0
 59 60  1  0  0  0
 59 61  1  0  0  0
 59 62  1  0  0  0
 60135  1  0  0  0
 60136  1  0  0  0
 60137  1  0  0  0
 61138  1  0  0  0
 61139  1  0  0  0
 61140  1  0  0  0
 62141  1  0  0  0
 62142  1  0  0  0
 62143  1  0  0  0
 63 65  1  0  0  0
 63144  1  0  0  0
 63145  1  0  0  0
 63146  1  0  0  0
 64147  1  0  0  0
 65148  1  0  0  0
 68 86  1  0  0  0
 71 73  2  0  0  0
 71 74  1  0  0  0
 71149  1  0  0  0
 72 73  1  0  0  0
 72 76  2  0  0  0
 72150  1  0  0  0
 73 87  1  0  0  0
 74 75  2  0  0  0
 74 77  1  0  0  0
 75 76  1  0  0  0
 75 78  1  0  0  0
 76 89  1  0  0  0
 77151  1  0  0  0
 77152  1  0  0  0
 77153  1  0  0  0
 78154  1  0  0  0
 78155  1  0  0  0
 78156  1  0  0  0
 79157  1  0  0  0
 79158  1  0  0  0
 79159  1  0  0  0
 79 87  1  0  0  0
 80 87  1  0  0  0
 80160  1  0  0  0
 80161  1  0  0  0
 80162  1  0  0  0
 81163  1  0  0  0
 81164  1  0  0  0
 81165  1  0  0  0
 81 88  1  0  0  0
 82 88  1  0  0  0
 82166  1  0  0  0
 82167  1  0  0  0
 82168  1  0  0  0
 83 84  1  0  0  0
 83 85  1  0  0  0
 83169  1  0  0  0
 83170  1  0  0  0
 84 86  1  0  0  0
 84171  1  0  0  0
 84172  1  0  0  0
 85 88  1  0  0  0
 85173  1  0  0  0
 85174  1  0  0  0
 86175  1  0  0  0
 86176  1  0  0  0
 87 88  1  0  0  0
 89177  1  0  0  0
M  ISO  4   1 100  68 101  86 101  89 100
M  END
> <chiral flag>
0

> <version>
0

> <s_m_source_file>
/data/baiqing/PycharmProjects/Reinvent-master-3.2/result/LINK_invent/BTK/process_docking_weight1_custom_product_contain_oxygen_bond_distance_aromatic_linkinvent_7_9_3/rearranged_h_0142.sdf

> <i_m_source_file_index>
26

> <r_mmod_Potential_Energy-OPLS-2005>
56.2196350097656

> <r_mmod_Stretch_Energy-OPLS-2005>
59.7793273925781

> <r_mmod_Bend_Energy-OPLS-2005>
136.256607055664

> <r_mmod_Torsional_Energy-OPLS-2005>
288.291290283203

> <r_mmod_Improper_Torsional_Energy-OPLS-2005>
4.4036283493042

> <r_mmod_Van_der_Waal_Energy-OPLS-2005>
191.104949951172

> <r_mmod_Electrostatic_Energy-OPLS-2005>
-450.273620605469

> <r_mmod_Solvation_Energy-OPLS-2005>
-184.268203735352

> <b_mmod_Minimization_Converged-OPLS-2005>
0

> <r_mmod_RMS_Derivative-OPLS-2005>
2.42141580581665

$$$$
26
                    3D
 Structure written by MMmdl.
158167  0  0  1  0            999 V2000
  -30.6899  -14.5475   20.5498 C   0  0  0  0  0  0
  -30.4235  -12.3417   19.4658 C   0  0  0  0  0  0
  -29.5044  -12.4950   18.2349 C   0  0  0  0  0  0
  -28.0217  -12.3625   18.6325 C   0  0  0  0  0  0
  -27.6549  -13.2223   19.8710 C   0  0  2  0  0  0
  -28.6930  -13.0563   21.0055 C   0  0  0  0  0  0
  -25.2535  -13.8203   20.5676 C   0  0  0  0  0  0
  -24.1806  -13.0452   20.9172 C   0  0  0  0  0  0
  -24.6394  -11.6934   20.8742 C   0  0  0  0  0  0
  -23.9074  -10.4315   21.0416 C   0  0  0  0  0  0
  -24.3617   -9.4216   21.9201 C   0  0  0  0  0  0
  -23.6285   -8.2260   22.0770 C   0  0  0  0  0  0
  -22.4277   -8.0290   21.3557 C   0  0  0  0  0  0
  -21.9918   -9.0272   20.4662 C   0  0  0  0  0  0
  -22.7246  -10.2149   20.3080 C   0  0  0  0  0  0
  -21.6851   -6.0736   22.5271 C   0  0  0  0  0  0
  -21.4005   -6.5635   23.8198 C   0  0  0  0  0  0
  -21.3644   -5.6788   24.9161 C   0  0  0  0  0  0
  -21.6047   -4.3053   24.7211 C   0  0  0  0  0  0
  -21.8818   -3.8142   23.4329 C   0  0  0  0  0  0
  -21.9187   -4.6969   22.3387 C   0  0  0  0  0  0
  -22.7826  -13.5228   21.1831 C   0  0  0  0  0  0
  -22.1661   -4.2162   21.0959 F   0  0  0  0  0  0
  -21.5625   -3.4532   25.7719 F   0  0  0  0  0  0
  -30.0230  -13.3588   20.4558 N   0  0  0  0  0  0
  -26.2984  -12.9404   20.3330 N   0  0  0  0  0  0
  -25.9323  -11.6552   20.5781 N   0  0  0  0  0  0
  -22.0489  -12.8243   22.0413 N   0  0  0  0  0  0
  -25.4255  -15.1921   20.4059 N   0  0  0  0  0  0
  -31.8341  -14.6769   20.1066 O   0  0  0  0  0  0
  -21.6627   -6.8891   21.4243 O   0  0  0  0  0  0
  -22.3520  -14.5531   20.6675 O   0  0  0  0  0  0
  -24.6168  -31.8657   23.2122 C   0  0  0  0  0  0
  -25.9068  -32.4801   23.8397 C   0  0  1  0  0  0
  -27.2125  -27.3886   20.0988 C   0  0  0  0  0  0
  -25.5943  -33.8601   24.2306 N   0  0  0  0  0  0
  -23.4048  -30.4899   21.5565 C   0  0  2  0  0  0
  -24.8472  -28.9541   20.1191 C   0  0  0  0  0  0
  -22.7429  -29.4633   22.5033 C   0  0  0  0  0  0
  -18.0261  -28.1384   22.8482 C   0  0  0  0  0  0
  -24.1469  -36.7273   23.2649 C   0  0  0  0  0  0
  -25.9407  -30.8063   21.3845 C   0  0  0  0  0  0
  -26.0115  -29.4400   20.7297 C   0  0  0  0  0  0
  -27.1981  -28.6603   20.7259 C   0  0  0  0  0  0
  -26.0408  -26.9406   19.4595 C   0  0  0  0  0  0
  -24.8573  -27.7023   19.4840 C   0  0  0  0  0  0
  -23.6136  -29.8293   20.1692 C   0  0  0  0  0  0
  -25.4107  -36.3084   24.0329 C   0  0  1  0  0  0
  -20.5857  -28.3664   23.1322 C   0  0  2  0  0  0
  -20.6772  -26.9403   22.5427 C   0  0  0  0  0  0
  -19.5753  -26.6359   21.5230 C   0  0  0  0  0  0
  -18.1907  -26.7919   22.1620 C   0  0  0  0  0  0
  -19.1515  -28.8842   23.2869 C   0  0  0  0  0  0
  -18.9464  -30.1452   23.8880 C   0  0  0  0  0  0
  -17.6482  -30.6601   24.0560 C   0  0  0  0  0  0
  -25.9057  -34.9459   23.5109 C   0  0  0  0  0  0
  -16.5362  -29.9103   23.6360 C   0  0  0  0  0  0
  -16.7262  -28.6521   23.0379 C   0  0  0  0  0  0
  -26.4480  -31.6629   25.0767 C   0  0  0  0  0  0
  -25.3739  -31.3771   26.1517 C   0  0  0  0  0  0
  -27.0362  -30.3073   24.6209 C   0  0  0  0  0  0
  -27.6004  -32.4426   25.7541 C   0  0  0  0  0  0
  -27.5563  -37.1771   24.8479 C   0  0  0  0  0  0
  -21.4163  -29.3008   22.3742 N   0  0  0  0  0  0
  -26.4273  -37.3783   23.9430 N   0  0  0  0  0  0
  -24.6709  -31.0716   22.1064 N   0  0  0  0  0  0
  -23.4179  -28.8181   23.3091 O   0  0  0  0  0  0
  -28.3481  -26.6001   20.0354 O   0  0  0  0  0  0
  -26.5609  -34.8922   22.4657 O   0  0  0  0  0  0
  -23.5365  -32.1453   23.7509 O   0  0  0  0  0  0
  -29.4194  -18.0416   21.4922 C   0  0  0  0  0  0
  -31.2202  -17.5733   20.0790 C   0  0  0  0  0  0
  -30.2265  -17.0280   20.8572 C   0  0  0  0  0  0
  -29.8057  -19.3434   21.2045 C   0  0  0  0  0  0
  -29.3645  -20.6485   21.8202 C   0  0  0  0  0  0
  -29.1957  -23.5948   19.4943 C   0  0  0  0  0  0
  -29.3593  -22.0692   19.6897 C   0  0  0  0  0  0
  -28.9501  -23.1269   21.7751 C   0  0  0  0  0  0
  -28.3634  -24.0736   20.6903 C   0  0  2  0  0  0
  -26.8740  -23.7135   20.4880 C   0  0  0  0  0  0
  -28.5222  -25.6009   21.0694 C   0  0  0  0  0  0
  -29.2806  -21.8313   21.1340 N   0  0  0  0  0  0
  -29.9861  -15.6075   21.0349 N   0  0  0  0  0  0
  -29.0574  -20.6107   23.0172 O   0  0  0  0  0  0
  -31.2031  -19.3226   20.1475 S   0  0  0  0  0  0
  -31.4680  -12.4386   19.1663 H   0  0  0  0  0  0
  -30.3340  -11.3446   19.8980 H   0  0  0  0  0  0
  -29.7552  -11.7503   17.4783 H   0  0  0  0  0  0
  -29.6743  -13.4680   17.7734 H   0  0  0  0  0  0
  -27.8273  -11.3099   18.8398 H   0  0  0  0  0  0
  -27.3818  -12.6273   17.7899 H   0  0  0  0  0  0
  -27.6832  -14.2620   19.5448 H   0  0  0  0  0  0
  -28.6778  -12.0359   21.3902 H   0  0  0  0  0  0
  -28.4440  -13.6936   21.8548 H   0  0  0  0  0  0
  -25.2769   -9.5664   22.4776 H   0  0  0  0  0  0
  -23.9972   -7.4646   22.7505 H   0  0  0  0  0  0
  -21.0836   -8.8800   19.8975 H   0  0  0  0  0  0
  -22.3711  -10.9691   19.6186 H   0  0  0  0  0  0
  -21.2013   -7.6143   23.9705 H   0  0  0  0  0  0
  -21.1456   -6.0513   25.9060 H   0  0  0  0  0  0
  -22.0614   -2.7614   23.2812 H   0  0  0  0  0  0
  -22.4112  -11.9897   22.4777 H   0  0  0  0  0  0
  -21.1131  -13.1302   22.2674 H   0  0  0  0  0  0
  -24.6594  -15.8487   20.5122 H   0  0  0  0  0  0
  -26.2710  -15.6258   20.0564 H   0  0  0  0  0  0
  -26.7129  -32.5489   23.1138 H   0  0  0  0  0  0
  -25.0133  -33.9752   25.0478 H   0  0  0  0  0  0
  -22.6951  -31.3091   21.4216 H   0  0  0  0  0  0
  -23.3754  -35.9589   23.3317 H   0  0  0  0  0  0
  -24.3550  -36.8895   22.2064 H   0  0  0  0  0  0
  -23.7198  -37.6460   23.6678 H   0  0  0  0  0  0
  -26.0794  -31.5719   20.6216 H   0  0  0  0  0  0
  -26.8176  -30.8427   22.0174 H   0  0  0  0  0  0
  -28.0977  -29.0247   21.2022 H   0  0  0  0  0  0
  -26.0324  -26.0103   18.9179 H   0  0  0  0  0  0
  -23.9668  -27.3311   18.9963 H   0  0  0  0  0  0
  -23.7324  -30.6093   19.4165 H   0  0  0  0  0  0
  -22.7326  -29.2600   19.8668 H   0  0  0  0  0  0
  -25.1265  -36.1933   25.0819 H   0  0  0  0  0  0
  -20.9898  -28.3240   24.1466 H   0  0  0  0  0  0
  -20.5757  -26.2263   23.3612 H   0  0  0  0  0  0
  -21.6631  -26.7493   22.1189 H   0  0  0  0  0  0
  -19.6937  -25.6265   21.1293 H   0  0  0  0  0  0
  -19.6718  -27.3155   20.6746 H   0  0  0  0  0  0
  -17.4193  -26.6675   21.4004 H   0  0  0  0  0  0
  -18.0287  -26.0055   22.9004 H   0  0  0  0  0  0
  -19.7957  -30.7240   24.2265 H   0  0  0  0  0  0
  -17.5061  -31.6306   24.5140 H   0  0  0  0  0  0
  -15.5381  -30.3015   23.7734 H   0  0  0  0  0  0
  -15.8632  -28.0855   22.7139 H   0  0  0  0  0  0
  -24.5891  -30.7122   25.7875 H   0  0  0  0  0  0
  -24.8949  -32.2949   26.4951 H   0  0  0  0  0  0
  -25.8071  -30.8962   27.0297 H   0  0  0  0  0  0
  -26.2932  -29.6800   24.1268 H   0  0  0  0  0  0
  -27.4131  -29.7349   25.4697 H   0  0  0  0  0  0
  -27.8760  -30.4387   23.9382 H   0  0  0  0  0  0
  -27.2544  -33.3727   26.2069 H   0  0  0  0  0  0
  -28.3821  -32.7021   25.0389 H   0  0  0  0  0  0
  -28.0661  -31.8625   26.5516 H   0  0  0  0  0  0
  -28.2574  -38.0070   24.7562 H   0  0  0  0  0  0
  -28.1044  -36.2606   24.6259 H   0  0  0  0  0  0
  -27.2270  -37.1380   25.8874 H   0  0  0  0  0  0
  -20.9391  -29.8673   21.6885 H   0  0  0  0  0  0
  -26.0152  -38.2842   24.1502 H   0  0  0  0  0  0
  -28.6113  -17.7965   22.1665 H   0  0  0  0  0  0
  -31.9808  -17.0764   19.4853 H   0  0  0  0  0  0
  -28.7566  -23.8521   18.5289 H   0  0  0  0  0  0
  -30.1834  -24.0619   19.5314 H   0  0  0  0  0  0
  -30.2951  -21.7307   19.2492 H   0  0  0  0  0  0
  -28.5431  -21.5323   19.2057 H   0  0  0  0  0  0
  -28.2680  -23.0231   22.6194 H   0  0  0  0  0  0
  -29.8805  -23.5385   22.1698 H   0  0  0  0  0  0
  -26.7131  -22.6352   20.4808 H   0  0  0  0  0  0
  -26.4970  -24.0814   19.5382 H   0  0  0  0  0  0
  -26.2523  -24.1205   21.2880 H   0  0  0  0  0  0
  -29.5347  -25.7554   21.4416 H   0  0  0  0  0  0
  -27.8705  -25.8262   21.9165 H   0  0  0  0  0  0
  -29.1212  -15.3608   21.4915 H   0  0  0  0  0  0
  1 25  1  0  0  0
  1 30  2  0  0  0
  1 83  1  0  0  0
  2  3  1  0  0  0
  2 25  1  0  0  0
  2 86  1  0  0  0
  2 87  1  0  0  0
  3  4  1  0  0  0
  3 88  1  0  0  0
  3 89  1  0  0  0
  4  5  1  0  0  0
  4 90  1  0  0  0
  4 91  1  0  0  0
  5  6  1  0  0  0
  5 26  1  0  0  0
  5 92  1  0  0  0
  6 25  1  0  0  0
  6 93  1  0  0  0
  6 94  1  0  0  0
  7  8  2  0  0  0
  7 26  1  0  0  0
  7 29  1  0  0  0
  8  9  1  0  0  0
  8 22  1  0  0  0
  9 10  1  0  0  0
  9 27  2  0  0  0
 10 11  2  0  0  0
 10 15  1  0  0  0
 11 12  1  0  0  0
 11 95  1  0  0  0
 12 13  2  0  0  0
 12 96  1  0  0  0
 13 14  1  0  0  0
 13 31  1  0  0  0
 14 15  2  0  0  0
 14 97  1  0  0  0
 15 98  1  0  0  0
 16 17  2  0  0  0
 16 21  1  0  0  0
 16 31  1  0  0  0
 17 18  1  0  0  0
 17 99  1  0  0  0
 18 19  2  0  0  0
 18100  1  0  0  0
 19 20  1  0  0  0
 19 24  1  0  0  0
 20 21  2  0  0  0
 20101  1  0  0  0
 21 23  1  0  0  0
 22 28  1  0  0  0
 22 32  2  0  0  0
 26 27  1  0  0  0
 28102  1  0  0  0
 28103  1  0  0  0
 29104  1  0  0  0
 29105  1  0  0  0
 33 34  1  0  0  0
 33 66  1  0  0  0
 33 70  2  0  0  0
 34 36  1  0  0  0
 34 59  1  0  0  0
 34106  1  0  0  0
 35 44  2  0  0  0
 35 45  1  0  0  0
 35 68  1  0  0  0
 36 56  1  0  0  0
 36107  1  0  0  0
 37 39  1  0  0  0
 37 47  1  0  0  0
 37 66  1  0  0  0
 37108  1  0  0  0
 38 43  2  0  0  0
 38 46  1  0  0  0
 38 47  1  0  0  0
 39 64  1  0  0  0
 39 67  2  0  0  0
 40 52  1  0  0  0
 40 53  2  0  0  0
 40 58  1  0  0  0
 41109  1  0  0  0
 41110  1  0  0  0
 41111  1  0  0  0
 41 48  1  0  0  0
 42 43  1  0  0  0
 42 66  1  0  0  0
 42112  1  0  0  0
 42113  1  0  0  0
 43 44  1  0  0  0
 44114  1  0  0  0
 45 46  2  0  0  0
 45115  1  0  0  0
 46116  1  0  0  0
 47117  1  0  0  0
 47118  1  0  0  0
 48 56  1  0  0  0
 48 65  1  0  0  0
 48119  1  0  0  0
 49 50  1  0  0  0
 49 53  1  0  0  0
 49 64  1  0  0  0
 49120  1  0  0  0
 50 51  1  0  0  0
 50121  1  0  0  0
 50122  1  0  0  0
 51 52  1  0  0  0
 51123  1  0  0  0
 51124  1  0  0  0
 52125  1  0  0  0
 52126  1  0  0  0
 53 54  1  0  0  0
 54 55  2  0  0  0
 54127  1  0  0  0
 55 57  1  0  0  0
 55128  1  0  0  0
 56 69  2  0  0  0
 57 58  2  0  0  0
 57129  1  0  0  0
 58130  1  0  0  0
 59 60  1  0  0  0
 59 61  1  0  0  0
 59 62  1  0  0  0
 60131  1  0  0  0
 60132  1  0  0  0
 60133  1  0  0  0
 61134  1  0  0  0
 61135  1  0  0  0
 61136  1  0  0  0
 62137  1  0  0  0
 62138  1  0  0  0
 62139  1  0  0  0
 63 65  1  0  0  0
 63140  1  0  0  0
 63141  1  0  0  0
 63142  1  0  0  0
 64143  1  0  0  0
 65144  1  0  0  0
 68 81  1  0  0  0
 71 73  1  0  0  0
 71 74  2  0  0  0
 71145  1  0  0  0
 72 73  2  0  0  0
 72 85  1  0  0  0
 72146  1  0  0  0
 73 83  1  0  0  0
 74 75  1  0  0  0
 74 85  1  0  0  0
 75 82  1  0  0  0
 75 84  2  0  0  0
 76 77  1  0  0  0
 76 79  1  0  0  0
 76147  1  0  0  0
 76148  1  0  0  0
 77 82  1  0  0  0
 77149  1  0  0  0
 77150  1  0  0  0
 78 79  1  0  0  0
 78 82  1  0  0  0
 78151  1  0  0  0
 78152  1  0  0  0
 79 80  1  0  0  0
 79 81  1  0  0  0
 80153  1  0  0  0
 80154  1  0  0  0
 80155  1  0  0  0
 81156  1  0  0  0
 81157  1  0  0  0
 83158  1  0  0  0
M  ISO  4   1 100  68 101  81 101  83 100
M  END
> <chiral flag>
0

> <version>
0

> <s_m_source_file>
/data/baiqing/PycharmProjects/Reinvent-master-3.2/result/LINK_invent/BTK/process_docking_weight1_custom_product_contain_oxygen_bond_distance_aromatic_linkinvent_7_9_3/rearranged_h_0142.sdf

> <i_m_source_file_index>
27

> <r_mmod_Potential_Energy-OPLS-2005>
137.919891357422

> <r_mmod_Stretch_Energy-OPLS-2005>
50.8566589355469

> <r_mmod_Bend_Energy-OPLS-2005>
152.489334106445

> <r_mmod_Torsional_Energy-OPLS-2005>
348.452514648438

> <r_mmod_Improper_Torsional_Energy-OPLS-2005>
4.34556722640991

> <r_mmod_Van_der_Waal_Energy-OPLS-2005>
129.252166748047

> <r_mmod_Electrostatic_Energy-OPLS-2005>
-349.043853759766

> <r_mmod_Solvation_Energy-OPLS-2005>
-222.383560180664

> <b_mmod_Minimization_Converged-OPLS-2005>
0

> <r_mmod_RMS_Derivative-OPLS-2005>
3.09550452232361

$$$$
27
                    3D
 Structure written by MMmdl.
170179  0  0  1  0            999 V2000
  -30.6724  -14.4837   20.5986 C   0  0  0  0  0  0
  -30.4377  -12.3201   19.4131 C   0  0  0  0  0  0
  -29.5012  -12.5187   18.2015 C   0  0  0  0  0  0
  -28.0192  -12.3803   18.6088 C   0  0  0  0  0  0
  -27.6670  -13.2003   19.8783 C   0  0  2  0  0  0
  -28.7084  -12.9474   20.9915 C   0  0  0  0  0  0
  -25.2604  -13.8141   20.5634 C   0  0  0  0  0  0
  -24.1861  -13.0434   20.9180 C   0  0  0  0  0  0
  -24.6406  -11.6899   20.8741 C   0  0  0  0  0  0
  -23.9065  -10.4291   21.0416 C   0  0  0  0  0  0
  -24.3619   -9.4210   21.9198 C   0  0  0  0  0  0
  -23.6287   -8.2247   22.0765 C   0  0  0  0  0  0
  -22.4276   -8.0288   21.3544 C   0  0  0  0  0  0
  -21.9906   -9.0266   20.4657 C   0  0  0  0  0  0
  -22.7235  -10.2145   20.3064 C   0  0  0  0  0  0
  -21.6855   -6.0737   22.5276 C   0  0  0  0  0  0
  -21.4021   -6.5640   23.8210 C   0  0  0  0  0  0
  -21.3649   -5.6794   24.9169 C   0  0  0  0  0  0
  -21.6043   -4.3061   24.7223 C   0  0  0  0  0  0
  -21.8818   -3.8146   23.4347 C   0  0  0  0  0  0
  -21.9194   -4.6961   22.3401 C   0  0  0  0  0  0
  -22.7883  -13.5248   21.1833 C   0  0  0  0  0  0
  -22.1664   -4.2149   21.0974 F   0  0  0  0  0  0
  -21.5616   -3.4540   25.7736 F   0  0  0  0  0  0
  -30.0421  -13.2828   20.4521 N   0  0  0  0  0  0
  -26.3046  -12.9303   20.3345 N   0  0  0  0  0  0
  -25.9332  -11.6475   20.5763 N   0  0  0  0  0  0
  -22.0513  -12.8257   22.0393 N   0  0  0  0  0  0
  -25.4309  -15.1842   20.3940 N   0  0  0  0  0  0
  -31.7768  -14.7344   20.1049 O   0  0  0  0  0  0
  -21.6636   -6.8885   21.4244 O   0  0  0  0  0  0
  -22.3584  -14.5556   20.6672 O   0  0  0  0  0  0
  -24.6177  -31.8667   23.2109 C   0  0  0  0  0  0
  -25.9058  -32.4814   23.8405 C   0  0  1  0  0  0
  -27.2324  -27.4040   20.0815 C   0  0  0  0  0  0
  -25.5907  -33.8613   24.2330 N   0  0  0  0  0  0
  -23.4063  -30.4929   21.5524 C   0  0  2  0  0  0
  -24.8504  -28.9618   20.1137 C   0  0  0  0  0  0
  -22.7432  -29.4647   22.4973 C   0  0  0  0  0  0
  -18.0283  -28.1375   22.8486 C   0  0  0  0  0  0
  -24.1480  -36.7312   23.2639 C   0  0  0  0  0  0
  -25.9409  -30.8196   21.3722 C   0  0  0  0  0  0
  -26.0139  -29.4536   20.7159 C   0  0  0  0  0  0
  -27.2017  -28.6790   20.7055 C   0  0  0  0  0  0
  -26.0396  -26.9459   19.4656 C   0  0  0  0  0  0
  -24.8596  -27.7070   19.4911 C   0  0  0  0  0  0
  -23.6159  -29.8330   20.1653 C   0  0  0  0  0  0
  -25.4099  -36.3105   24.0342 C   0  0  1  0  0  0
  -20.5876  -28.3658   23.1305 C   0  0  2  0  0  0
  -20.6768  -26.9390   22.5410 C   0  0  0  0  0  0
  -19.5748  -26.6378   21.5204 C   0  0  0  0  0  0
  -18.1929  -26.7921   22.1616 C   0  0  0  0  0  0
  -19.1532  -28.8835   23.2894 C   0  0  0  0  0  0
  -18.9456  -30.1440   23.8907 C   0  0  0  0  0  0
  -17.6456  -30.6572   24.0569 C   0  0  0  0  0  0
  -25.9031  -34.9472   23.5128 C   0  0  0  0  0  0
  -16.5348  -29.9075   23.6323 C   0  0  0  0  0  0
  -16.7274  -28.6496   23.0340 C   0  0  0  0  0  0
  -26.4472  -31.6605   25.0746 C   0  0  0  0  0  0
  -25.3733  -31.3733   26.1498 C   0  0  0  0  0  0
  -27.0308  -30.3050   24.6138 C   0  0  0  0  0  0
  -27.6048  -32.4337   25.7489 C   0  0  0  0  0  0
  -27.5581  -37.1807   24.8457 C   0  0  0  0  0  0
  -21.4153  -29.3024   22.3712 N   0  0  0  0  0  0
  -26.4285  -37.3789   23.9410 N   0  0  0  0  0  0
  -24.6732  -31.0742   22.1026 N   0  0  0  0  0  0
  -23.4192  -28.8176   23.3015 O   0  0  0  0  0  0
  -28.4034  -26.6537   20.1270 O   0  0  0  0  0  0
  -26.5586  -34.8921   22.4689 O   0  0  0  0  0  0
  -23.5363  -32.1429   23.7487 O   0  0  0  0  0  0
  -30.7679  -19.0684   21.5395 C   0  0  0  0  0  0
  -30.9740  -17.6684   21.4248 C   0  0  0  0  0  0
  -28.6209  -17.3899   20.9229 C   0  0  0  0  0  0
  -29.4792  -19.6481   21.3847 C   0  0  0  0  0  0
  -28.4083  -18.7833   21.0160 C   0  0  0  0  0  0
  -29.8847  -16.8119   21.1554 C   0  0  0  0  0  0
  -29.5976  -23.2391   18.6910 C   0  0  0  0  0  0
  -29.7556  -21.8922   19.4185 C   0  0  0  0  0  0
  -29.1790  -23.5451   21.0201 C   0  0  0  0  0  0
  -29.5574  -24.3534   19.7583 C   0  0  2  0  0  0
  -26.9920  -19.2932   20.7795 C   0  0  0  0  0  0
  -29.6463  -21.3830   23.2320 C   0  0  0  0  0  0
  -31.1846  -25.9377   20.6634 C   0  0  0  0  0  0
  -28.5346  -25.4623   19.3152 C   0  0  0  0  0  0
  -29.2228  -21.1340   21.7730 C   0  0  1  0  0  0
  -29.9388  -15.3903   21.2706 N   0  0  0  0  0  0
  -29.7826  -22.1873   20.8647 N   0  3  1  0  0  0
  -30.9188  -24.7949   19.8554 O   0  0  0  0  0  0
  -31.4806  -12.4422   19.1130 H   0  0  0  0  0  0
  -30.3564  -11.3028   19.7977 H   0  0  0  0  0  0
  -29.7409  -11.7968   17.4196 H   0  0  0  0  0  0
  -29.6708  -13.5057   17.7658 H   0  0  0  0  0  0
  -27.8183  -11.3221   18.7829 H   0  0  0  0  0  0
  -27.3757  -12.6783   17.7805 H   0  0  0  0  0  0
  -27.7191  -14.2539   19.6025 H   0  0  0  0  0  0
  -28.6919  -11.8985   21.2902 H   0  0  0  0  0  0
  -28.4538  -13.4992   21.8977 H   0  0  0  0  0  0
  -25.2775   -9.5671   22.4770 H   0  0  0  0  0  0
  -23.9988   -7.4640   22.7488 H   0  0  0  0  0  0
  -21.0828   -8.8797   19.8970 H   0  0  0  0  0  0
  -22.3709  -10.9688   19.6168 H   0  0  0  0  0  0
  -21.2029   -7.6156   23.9712 H   0  0  0  0  0  0
  -21.1462   -6.0529   25.9070 H   0  0  0  0  0  0
  -22.0607   -2.7607   23.2853 H   0  0  0  0  0  0
  -22.4105  -11.9905   22.4769 H   0  0  0  0  0  0
  -21.1135  -13.1315   22.2594 H   0  0  0  0  0  0
  -24.6537  -15.8309   20.4723 H   0  0  0  0  0  0
  -26.2479  -15.5959   19.9652 H   0  0  0  0  0  0
  -26.7131  -32.5510   23.1166 H   0  0  0  0  0  0
  -25.0066  -33.9766   25.0483 H   0  0  0  0  0  0
  -22.6964  -31.3113   21.4162 H   0  0  0  0  0  0
  -23.3730  -35.9656   23.3304 H   0  0  0  0  0  0
  -24.3582  -36.8920   22.2053 H   0  0  0  0  0  0
  -23.7240  -37.6527   23.6641 H   0  0  0  0  0  0
  -26.0626  -31.5856   20.6050 H   0  0  0  0  0  0
  -26.8266  -30.8685   21.9937 H   0  0  0  0  0  0
  -28.0965  -29.0543   21.1824 H   0  0  0  0  0  0
  -25.9574  -26.0007   18.9568 H   0  0  0  0  0  0
  -23.9638  -27.3218   19.0228 H   0  0  0  0  0  0
  -23.7305  -30.6119   19.4111 H   0  0  0  0  0  0
  -22.7377  -29.2602   19.8626 H   0  0  0  0  0  0
  -25.1272  -36.1971   25.0835 H   0  0  0  0  0  0
  -20.9972  -28.3221   24.1423 H   0  0  0  0  0  0
  -20.5653  -26.2266   23.3595 H   0  0  0  0  0  0
  -21.6640  -26.7416   22.1210 H   0  0  0  0  0  0
  -19.6903  -25.6291   21.1222 H   0  0  0  0  0  0
  -19.6691  -27.3194   20.6741 H   0  0  0  0  0  0
  -17.4197  -26.6668   21.4023 H   0  0  0  0  0  0
  -18.0334  -26.0059   22.9006 H   0  0  0  0  0  0
  -19.7930  -30.7260   24.2277 H   0  0  0  0  0  0
  -17.5005  -31.6247   24.5177 H   0  0  0  0  0  0
  -15.5350  -30.2978   23.7640 H   0  0  0  0  0  0
  -15.8673  -28.0820   22.7040 H   0  0  0  0  0  0
  -24.5884  -30.7101   25.7845 H   0  0  0  0  0  0
  -24.8951  -32.2902   26.4959 H   0  0  0  0  0  0
  -25.8084  -30.8890   27.0249 H   0  0  0  0  0  0
  -26.2866  -29.6811   24.1177 H   0  0  0  0  0  0
  -27.4066  -29.7291   25.4604 H   0  0  0  0  0  0
  -27.8703  -30.4381   23.9309 H   0  0  0  0  0  0
  -27.2668  -33.3630   26.2086 H   0  0  0  0  0  0
  -28.3829  -32.6916   25.0291 H   0  0  0  0  0  0
  -28.0741  -31.8457   26.5383 H   0  0  0  0  0  0
  -28.2590  -38.0111   24.7513 H   0  0  0  0  0  0
  -28.1084  -36.2649   24.6255 H   0  0  0  0  0  0
  -27.2308  -37.1428   25.8862 H   0  0  0  0  0  0
  -20.9316  -29.8780   21.6962 H   0  0  0  0  0  0
  -26.0173  -38.2865   24.1420 H   0  0  0  0  0  0
  -31.6084  -19.6873   21.8201 H   0  0  0  0  0  0
  -31.9549  -17.2550   21.6183 H   0  0  0  0  0  0
  -27.7807  -16.7436   20.7134 H   0  0  0  0  0  0
  -28.6681  -23.2131   18.1208 H   0  0  0  0  0  0
  -30.3951  -23.4038   17.9660 H   0  0  0  0  0  0
  -30.6676  -21.3716   19.1252 H   0  0  0  0  0  0
  -28.9159  -21.2451   19.1665 H   0  0  0  0  0  0
  -28.0929  -23.4488   21.0628 H   0  0  0  0  0  0
  -29.4880  -24.0289   21.9451 H   0  0  0  0  0  0
  -26.3358  -18.5036   20.4095 H   0  0  0  0  0  0
  -26.9812  -20.0902   20.0363 H   0  0  0  0  0  0
  -26.5527  -19.6723   21.7027 H   0  0  0  0  0  0
  -29.1817  -20.6515   23.8941 H   0  0  0  0  0  0
  -29.3345  -22.3664   23.5821 H   0  0  0  0  0  0
  -30.7256  -21.3118   23.3656 H   0  0  0  0  0  0
  -32.2584  -26.0163   20.8328 H   0  0  0  0  0  0
  -30.7034  -25.8894   21.6402 H   0  0  0  0  0  0
  -30.8771  -26.8567   20.1648 H   0  0  0  0  0  0
  -27.5962  -24.9209   19.2601 H   0  0  0  0  0  0
  -28.7680  -25.7848   18.2992 H   0  0  0  0  0  0
  -28.1473  -21.2908   21.7646 H   0  0  0  0  0  0
  -29.0888  -14.9759   21.6205 H   0  0  0  0  0  0
  -30.7629  -22.2821   21.0883 H   0  0  0  0  0  0
  1 25  1  0  0  0
  1 30  2  0  0  0
  1 86  1  0  0  0
  2  3  1  0  0  0
  2 25  1  0  0  0
  2 89  1  0  0  0
  2 90  1  0  0  0
  3  4  1  0  0  0
  3 91  1  0  0  0
  3 92  1  0  0  0
  4  5  1  0  0  0
  4 93  1  0  0  0
  4 94  1  0  0  0
  5  6  1  0  0  0
  5 26  1  0  0  0
  5 95  1  0  0  0
  6 25  1  0  0  0
  6 96  1  0  0  0
  6 97  1  0  0  0
  7  8  2  0  0  0
  7 26  1  0  0  0
  7 29  1  0  0  0
  8  9  1  0  0  0
  8 22  1  0  0  0
  9 10  1  0  0  0
  9 27  2  0  0  0
 10 11  2  0  0  0
 10 15  1  0  0  0
 11 12  1  0  0  0
 11 98  1  0  0  0
 12 13  2  0  0  0
 12 99  1  0  0  0
 13 14  1  0  0  0
 13 31  1  0  0  0
 14 15  2  0  0  0
 14100  1  0  0  0
 15101  1  0  0  0
 16 17  2  0  0  0
 16 21  1  0  0  0
 16 31  1  0  0  0
 17 18  1  0  0  0
 17102  1  0  0  0
 18 19  2  0  0  0
 18103  1  0  0  0
 19 20  1  0  0  0
 19 24  1  0  0  0
 20 21  2  0  0  0
 20104  1  0  0  0
 21 23  1  0  0  0
 22 28  1  0  0  0
 22 32  2  0  0  0
 26 27  1  0  0  0
 28105  1  0  0  0
 28106  1  0  0  0
 29107  1  0  0  0
 29108  1  0  0  0
 33 34  1  0  0  0
 33 66  1  0  0  0
 33 70  2  0  0  0
 34 36  1  0  0  0
 34 59  1  0  0  0
 34109  1  0  0  0
 35 44  2  0  0  0
 35 45  1  0  0  0
 35 68  1  0  0  0
 36 56  1  0  0  0
 36110  1  0  0  0
 37 39  1  0  0  0
 37 47  1  0  0  0
 37 66  1  0  0  0
 37111  1  0  0  0
 38 43  2  0  0  0
 38 46  1  0  0  0
 38 47  1  0  0  0
 39 64  1  0  0  0
 39 67  2  0  0  0
 40 52  1  0  0  0
 40 53  2  0  0  0
 40 58  1  0  0  0
 41112  1  0  0  0
 41113  1  0  0  0
 41114  1  0  0  0
 41 48  1  0  0  0
 42 43  1  0  0  0
 42 66  1  0  0  0
 42115  1  0  0  0
 42116  1  0  0  0
 43 44  1  0  0  0
 44117  1  0  0  0
 45 46  2  0  0  0
 45118  1  0  0  0
 46119  1  0  0  0
 47120  1  0  0  0
 47121  1  0  0  0
 48 56  1  0  0  0
 48 65  1  0  0  0
 48122  1  0  0  0
 49 50  1  0  0  0
 49 53  1  0  0  0
 49 64  1  0  0  0
 49123  1  0  0  0
 50 51  1  0  0  0
 50124  1  0  0  0
 50125  1  0  0  0
 51 52  1  0  0  0
 51126  1  0  0  0
 51127  1  0  0  0
 52128  1  0  0  0
 52129  1  0  0  0
 53 54  1  0  0  0
 54 55  2  0  0  0
 54130  1  0  0  0
 55 57  1  0  0  0
 55131  1  0  0  0
 56 69  2  0  0  0
 57 58  2  0  0  0
 57132  1  0  0  0
 58133  1  0  0  0
 59 60  1  0  0  0
 59 61  1  0  0  0
 59 62  1  0  0  0
 60134  1  0  0  0
 60135  1  0  0  0
 60136  1  0  0  0
 61137  1  0  0  0
 61138  1  0  0  0
 61139  1  0  0  0
 62140  1  0  0  0
 62141  1  0  0  0
 62142  1  0  0  0
 63 65  1  0  0  0
 63143  1  0  0  0
 63144  1  0  0  0
 63145  1  0  0  0
 64146  1  0  0  0
 65147  1  0  0  0
 68 84  1  0  0  0
 71 72  2  0  0  0
 71 74  1  0  0  0
 71148  1  0  0  0
 72 76  1  0  0  0
 72149  1  0  0  0
 73 75  1  0  0  0
 73 76  2  0  0  0
 73150  1  0  0  0
 74 75  2  0  0  0
 74 85  1  0  0  0
 75 81  1  0  0  0
 76 86  1  0  0  0
 77 78  1  0  0  0
 77 80  1  0  0  0
 77151  1  0  0  0
 77152  1  0  0  0
 78153  1  0  0  0
 78154  1  0  0  0
 78 87  1  0  0  0
 79 80  1  0  0  0
 79 87  1  0  0  0
 79155  1  0  0  0
 79156  1  0  0  0
 80 84  1  0  0  0
 80 88  1  0  0  0
 81157  1  0  0  0
 81158  1  0  0  0
 81159  1  0  0  0
 82160  1  0  0  0
 82161  1  0  0  0
 82162  1  0  0  0
 82 85  1  0  0  0
 83 88  1  0  0  0
 83163  1  0  0  0
 83164  1  0  0  0
 83165  1  0  0  0
 84166  1  0  0  0
 84167  1  0  0  0
 85 87  1  0  0  0
 85168  1  0  0  0
 86169  1  0  0  0
 87170  1  0  0  0
M  CHG  1  87   1
M  ISO  4   1 100  68 101  84 101  86 100
M  END
> <chiral flag>
0

> <version>
0

> <s_m_source_file>
/data/baiqing/PycharmProjects/Reinvent-master-3.2/result/LINK_invent/BTK/process_docking_weight1_custom_product_contain_oxygen_bond_distance_aromatic_linkinvent_7_9_3/rearranged_h_0142.sdf

> <i_m_source_file_index>
28

> <r_mmod_Potential_Energy-OPLS-2005>
-39.6975746154785

> <r_mmod_Stretch_Energy-OPLS-2005>
48.2097206115723

> <r_mmod_Bend_Energy-OPLS-2005>
153.683685302734

> <r_mmod_Torsional_Energy-OPLS-2005>
298.469543457031

> <r_mmod_Improper_Torsional_Energy-OPLS-2005>
6.03471755981445

> <r_mmod_Van_der_Waal_Energy-OPLS-2005>
155.679183959961

> <r_mmod_Electrostatic_Energy-OPLS-2005>
-305.764282226562

> <r_mmod_Solvation_Energy-OPLS-2005>
-411.959442138672

> <b_mmod_Minimization_Converged-OPLS-2005>
0

> <r_mmod_RMS_Derivative-OPLS-2005>
1.66854333877563

$$$$
28
                    3D
 Structure written by MMmdl.
159168  0  0  1  0            999 V2000
  -30.7499  -14.5159   20.6191 C   0  0  0  0  0  0
  -30.4095  -12.3524   19.4451 C   0  0  0  0  0  0
  -29.4948  -12.5239   18.2164 C   0  0  0  0  0  0
  -28.0180  -12.3674   18.6204 C   0  0  0  0  0  0
  -27.6525  -13.2228   19.8606 C   0  0  2  0  0  0
  -28.6862  -13.0542   20.9917 C   0  0  0  0  0  0
  -25.2535  -13.8198   20.5667 C   0  0  0  0  0  0
  -24.1814  -13.0449   20.9169 C   0  0  0  0  0  0
  -24.6397  -11.6924   20.8729 C   0  0  0  0  0  0
  -23.9078  -10.4300   21.0403 C   0  0  0  0  0  0
  -24.3633   -9.4213   21.9178 C   0  0  0  0  0  0
  -23.6305   -8.2250   22.0756 C   0  0  0  0  0  0
  -22.4281   -8.0289   21.3551 C   0  0  0  0  0  0
  -21.9921   -9.0262   20.4651 C   0  0  0  0  0  0
  -22.7253  -10.2136   20.3053 C   0  0  0  0  0  0
  -21.6852   -6.0742   22.5286 C   0  0  0  0  0  0
  -21.4012   -6.5644   23.8221 C   0  0  0  0  0  0
  -21.3659   -5.6795   24.9182 C   0  0  0  0  0  0
  -21.6045   -4.3058   24.7232 C   0  0  0  0  0  0
  -21.8817   -3.8151   23.4353 C   0  0  0  0  0  0
  -21.9191   -4.6969   22.3408 C   0  0  0  0  0  0
  -22.7835  -13.5230   21.1847 C   0  0  0  0  0  0
  -22.1656   -4.2155   21.0986 F   0  0  0  0  0  0
  -21.5631   -3.4540   25.7746 F   0  0  0  0  0  0
  -30.0247  -13.3609   20.4560 N   0  0  0  0  0  0
  -26.2971  -12.9400   20.3279 N   0  0  0  0  0  0
  -25.9320  -11.6543   20.5719 N   0  0  0  0  0  0
  -22.0492  -12.8215   22.0408 N   0  0  0  0  0  0
  -25.4257  -15.1924   20.4110 N   0  0  0  0  0  0
  -31.7938  -14.6879   19.9805 O   0  0  0  0  0  0
  -21.6639   -6.8888   21.4248 O   0  0  0  0  0  0
  -22.3513  -14.5540   20.6704 O   0  0  0  0  0  0
  -24.6202  -31.8650   23.2050 C   0  0  0  0  0  0
  -25.9075  -32.4806   23.8370 C   0  0  1  0  0  0
  -27.2250  -27.3729   20.0963 C   0  0  0  0  0  0
  -25.5919  -33.8607   24.2317 N   0  0  0  0  0  0
  -23.4087  -30.4882   21.5474 C   0  0  2  0  0  0
  -24.8513  -28.9446   20.1124 C   0  0  0  0  0  0
  -22.7429  -29.4650   22.4960 C   0  0  0  0  0  0
  -18.0286  -28.1368   22.8477 C   0  0  0  0  0  0
  -24.1495  -36.7300   23.2623 C   0  0  0  0  0  0
  -25.9430  -30.8096   21.3658 C   0  0  0  0  0  0
  -26.0162  -29.4399   20.7100 C   0  0  0  0  0  0
  -27.2022  -28.6618   20.6962 C   0  0  0  0  0  0
  -26.0325  -26.9012   19.5017 C   0  0  0  0  0  0
  -24.8570  -27.6780   19.5070 C   0  0  0  0  0  0
  -23.6181  -29.8200   20.1624 C   0  0  0  0  0  0
  -25.4114  -36.3099   24.0327 C   0  0  1  0  0  0
  -20.5879  -28.3667   23.1293 C   0  0  2  0  0  0
  -20.6776  -26.9396   22.5402 C   0  0  0  0  0  0
  -19.5756  -26.6378   21.5198 C   0  0  0  0  0  0
  -18.1934  -26.7913   22.1610 C   0  0  0  0  0  0
  -19.1533  -28.8830   23.2886 C   0  0  0  0  0  0
  -18.9459  -30.1436   23.8899 C   0  0  0  0  0  0
  -17.6459  -30.6570   24.0556 C   0  0  0  0  0  0
  -25.9051  -34.9464   23.5120 C   0  0  0  0  0  0
  -16.5352  -29.9071   23.6327 C   0  0  0  0  0  0
  -16.7276  -28.6490   23.0342 C   0  0  0  0  0  0
  -26.4473  -31.6587   25.0712 C   0  0  0  0  0  0
  -25.3708  -31.3683   26.1434 C   0  0  0  0  0  0
  -27.0277  -30.3016   24.6102 C   0  0  0  0  0  0
  -27.6083  -32.4267   25.7456 C   0  0  0  0  0  0
  -27.5591  -37.1797   24.8450 C   0  0  0  0  0  0
  -21.4153  -29.3040   22.3698 N   0  0  0  0  0  0
  -26.4295  -37.3790   23.9409 N   0  0  0  0  0  0
  -24.6761  -31.0701   22.0976 N   0  0  0  0  0  0
  -23.4182  -28.8182   23.3008 O   0  0  0  0  0  0
  -28.3974  -26.6252   20.1249 O   0  0  0  0  0  0
  -26.5607  -34.8914   22.4681 O   0  0  0  0  0  0
  -23.5382  -32.1440   23.7412 O   0  0  0  0  0  0
  -29.7959  -19.3782   21.4142 C   0  0  0  0  0  0
  -28.3181  -19.0589   19.8259 C   0  0  0  0  0  0
  -28.7485  -20.0365   20.6904 C   0  0  0  0  0  0
  -29.8845  -18.0631   21.0049 C   0  0  0  0  0  0
  -28.5782  -22.6577   20.0397 C   0  0  0  0  0  0
  -31.4080  -15.8410   23.5175 C   0  0  0  0  0  0
  -31.4337  -17.1751   22.8007 C   0  0  0  0  0  0
  -30.2088  -15.1542   22.8793 C   0  0  0  0  0  0
  -30.8154  -16.9123   21.4086 C   0  0  1  0  0  0
  -28.1647  -21.4527   20.9358 C   0  0  0  0  0  0
  -28.1319  -24.0858   20.4968 C   0  0  0  0  0  0
  -28.4870  -25.2865   19.5510 C   0  0  0  0  0  0
  -30.2782  -15.5004   21.4521 N   0  0  0  0  0  0
  -29.2246  -22.4888   19.0001 O   0  0  0  0  0  0
  -28.9910  -17.8705   19.9972 O   0  0  0  0  0  0
  -31.4563  -12.4289   19.1466 H   0  0  0  0  0  0
  -30.3029  -11.3502   19.8629 H   0  0  0  0  0  0
  -29.7517  -11.7932   17.4478 H   0  0  0  0  0  0
  -29.6535  -13.5076   17.7708 H   0  0  0  0  0  0
  -27.8402  -11.3123   18.8303 H   0  0  0  0  0  0
  -27.3692  -12.6242   17.7823 H   0  0  0  0  0  0
  -27.6829  -14.2655   19.5414 H   0  0  0  0  0  0
  -28.6694  -12.0349   21.3792 H   0  0  0  0  0  0
  -28.3929  -13.6926   21.8219 H   0  0  0  0  0  0
  -25.2786   -9.5678   22.4748 H   0  0  0  0  0  0
  -24.0014   -7.4639   22.7471 H   0  0  0  0  0  0
  -21.0854   -8.8786   19.8957 H   0  0  0  0  0  0
  -22.3724  -10.9675   19.6159 H   0  0  0  0  0  0
  -21.1999   -7.6152   23.9729 H   0  0  0  0  0  0
  -21.1480   -6.0524   25.9088 H   0  0  0  0  0  0
  -22.0594   -2.7613   23.2855 H   0  0  0  0  0  0
  -22.4109  -11.9868   22.4782 H   0  0  0  0  0  0
  -21.1112  -13.1232   22.2627 H   0  0  0  0  0  0
  -24.6666  -15.8537   20.5330 H   0  0  0  0  0  0
  -26.2924  -15.6331   20.1285 H   0  0  0  0  0  0
  -26.7128  -32.5483   23.1108 H   0  0  0  0  0  0
  -25.0071  -33.9777   25.0464 H   0  0  0  0  0  0
  -22.7008  -31.3075   21.4059 H   0  0  0  0  0  0
  -23.3767  -35.9625   23.3289 H   0  0  0  0  0  0
  -24.3579  -36.8925   22.2038 H   0  0  0  0  0  0
  -23.7254  -37.6505   23.6640 H   0  0  0  0  0  0
  -26.0666  -31.5732   20.5971 H   0  0  0  0  0  0
  -26.8268  -30.8587   21.9902 H   0  0  0  0  0  0
  -28.1017  -29.0404   21.1620 H   0  0  0  0  0  0
  -25.9761  -25.9277   19.0396 H   0  0  0  0  0  0
  -23.9574  -27.2902   19.0507 H   0  0  0  0  0  0
  -23.7331  -30.5937   19.4026 H   0  0  0  0  0  0
  -22.7383  -29.2462   19.8652 H   0  0  0  0  0  0
  -25.1300  -36.1954   25.0822 H   0  0  0  0  0  0
  -20.9984  -28.3232   24.1413 H   0  0  0  0  0  0
  -20.5683  -26.2268   23.3589 H   0  0  0  0  0  0
  -21.6648  -26.7434   22.1200 H   0  0  0  0  0  0
  -19.6921  -25.6296   21.1216 H   0  0  0  0  0  0
  -19.6696  -27.3191   20.6728 H   0  0  0  0  0  0
  -17.4210  -26.6653   21.4009 H   0  0  0  0  0  0
  -18.0345  -26.0049   22.9005 H   0  0  0  0  0  0
  -19.7937  -30.7245   24.2271 H   0  0  0  0  0  0
  -17.5019  -31.6255   24.5145 H   0  0  0  0  0  0
  -15.5354  -30.2971   23.7640 H   0  0  0  0  0  0
  -15.8679  -28.0811   22.7047 H   0  0  0  0  0  0
  -24.5941  -30.6968   25.7748 H   0  0  0  0  0  0
  -24.8803  -32.2810   26.4833 H   0  0  0  0  0  0
  -25.8041  -30.8895   27.0227 H   0  0  0  0  0  0
  -26.2824  -29.6806   24.1112 H   0  0  0  0  0  0
  -27.3981  -29.7230   25.4579 H   0  0  0  0  0  0
  -27.8697  -30.4328   23.9300 H   0  0  0  0  0  0
  -27.2790  -33.3598   26.2047 H   0  0  0  0  0  0
  -28.3885  -32.6770   25.0249 H   0  0  0  0  0  0
  -28.0750  -31.8350   26.5350 H   0  0  0  0  0  0
  -28.2580  -38.0123   24.7569 H   0  0  0  0  0  0
  -28.1126  -36.2667   24.6206 H   0  0  0  0  0  0
  -27.2307  -37.1367   25.8846 H   0  0  0  0  0  0
  -20.9312  -29.8772   21.6929 H   0  0  0  0  0  0
  -26.0182  -38.2860   24.1444 H   0  0  0  0  0  0
  -30.4021  -19.8195   22.1935 H   0  0  0  0  0  0
  -27.5380  -19.0262   19.0769 H   0  0  0  0  0  0
  -31.3204  -15.9383   24.6001 H   0  0  0  0  0  0
  -32.3209  -15.2825   23.3021 H   0  0  0  0  0  0
  -32.4300  -17.6170   22.7480 H   0  0  0  0  0  0
  -30.8117  -17.8575   23.3809 H   0  0  0  0  0  0
  -29.2764  -15.5462   23.2883 H   0  0  0  0  0  0
  -30.2355  -14.0838   23.0923 H   0  0  0  0  0  0
  -31.6480  -16.9574   20.7052 H   0  0  0  0  0  0
  -28.3863  -21.7277   21.9667 H   0  0  0  0  0  0
  -27.0789  -21.3741   20.8782 H   0  0  0  0  0  0
  -28.5937  -24.2591   21.4682 H   0  0  0  0  0  0
  -27.0563  -24.0667   20.6702 H   0  0  0  0  0  0
  -27.9404  -25.2147   18.6112 H   0  0  0  0  0  0
  -29.5313  -25.1766   19.2576 H   0  0  0  0  0  0
  1 25  1  0  0  0
  1 30  2  0  0  0
  1 83  1  0  0  0
  2  3  1  0  0  0
  2 25  1  0  0  0
  2 86  1  0  0  0
  2 87  1  0  0  0
  3  4  1  0  0  0
  3 88  1  0  0  0
  3 89  1  0  0  0
  4  5  1  0  0  0
  4 90  1  0  0  0
  4 91  1  0  0  0
  5  6  1  0  0  0
  5 26  1  0  0  0
  5 92  1  0  0  0
  6 25  1  0  0  0
  6 93  1  0  0  0
  6 94  1  0  0  0
  7  8  2  0  0  0
  7 26  1  0  0  0
  7 29  1  0  0  0
  8  9  1  0  0  0
  8 22  1  0  0  0
  9 10  1  0  0  0
  9 27  2  0  0  0
 10 11  2  0  0  0
 10 15  1  0  0  0
 11 12  1  0  0  0
 11 95  1  0  0  0
 12 13  2  0  0  0
 12 96  1  0  0  0
 13 14  1  0  0  0
 13 31  1  0  0  0
 14 15  2  0  0  0
 14 97  1  0  0  0
 15 98  1  0  0  0
 16 17  2  0  0  0
 16 21  1  0  0  0
 16 31  1  0  0  0
 17 18  1  0  0  0
 17 99  1  0  0  0
 18 19  2  0  0  0
 18100  1  0  0  0
 19 20  1  0  0  0
 19 24  1  0  0  0
 20 21  2  0  0  0
 20101  1  0  0  0
 21 23  1  0  0  0
 22 28  1  0  0  0
 22 32  2  0  0  0
 26 27  1  0  0  0
 28102  1  0  0  0
 28103  1  0  0  0
 29104  1  0  0  0
 29105  1  0  0  0
 33 34  1  0  0  0
 33 66  1  0  0  0
 33 70  2  0  0  0
 34 36  1  0  0  0
 34 59  1  0  0  0
 34106  1  0  0  0
 35 44  2  0  0  0
 35 45  1  0  0  0
 35 68  1  0  0  0
 36 56  1  0  0  0
 36107  1  0  0  0
 37 39  1  0  0  0
 37 47  1  0  0  0
 37 66  1  0  0  0
 37108  1  0  0  0
 38 43  2  0  0  0
 38 46  1  0  0  0
 38 47  1  0  0  0
 39 64  1  0  0  0
 39 67  2  0  0  0
 40 52  1  0  0  0
 40 53  2  0  0  0
 40 58  1  0  0  0
 41109  1  0  0  0
 41110  1  0  0  0
 41111  1  0  0  0
 41 48  1  0  0  0
 42 43  1  0  0  0
 42 66  1  0  0  0
 42112  1  0  0  0
 42113  1  0  0  0
 43 44  1  0  0  0
 44114  1  0  0  0
 45 46  2  0  0  0
 45115  1  0  0  0
 46116  1  0  0  0
 47117  1  0  0  0
 47118  1  0  0  0
 48 56  1  0  0  0
 48 65  1  0  0  0
 48119  1  0  0  0
 49 50  1  0  0  0
 49 53  1  0  0  0
 49 64  1  0  0  0
 49120  1  0  0  0
 50 51  1  0  0  0
 50121  1  0  0  0
 50122  1  0  0  0
 51 52  1  0  0  0
 51123  1  0  0  0
 51124  1  0  0  0
 52125  1  0  0  0
 52126  1  0  0  0
 53 54  1  0  0  0
 54 55  2  0  0  0
 54127  1  0  0  0
 55 57  1  0  0  0
 55128  1  0  0  0
 56 69  2  0  0  0
 57 58  2  0  0  0
 57129  1  0  0  0
 58130  1  0  0  0
 59 60  1  0  0  0
 59 61  1  0  0  0
 59 62  1  0  0  0
 60131  1  0  0  0
 60132  1  0  0  0
 60133  1  0  0  0
 61134  1  0  0  0
 61135  1  0  0  0
 61136  1  0  0  0
 62137  1  0  0  0
 62138  1  0  0  0
 62139  1  0  0  0
 63 65  1  0  0  0
 63140  1  0  0  0
 63141  1  0  0  0
 63142  1  0  0  0
 64143  1  0  0  0
 65144  1  0  0  0
 68 82  1  0  0  0
 71 73  1  0  0  0
 71 74  2  0  0  0
 71145  1  0  0  0
 72 73  2  0  0  0
 72 85  1  0  0  0
 72146  1  0  0  0
 73 80  1  0  0  0
 74 85  1  0  0  0
 74 79  1  0  0  0
 75 80  1  0  0  0
 75 81  1  0  0  0
 75 84  2  0  0  0
 76 77  1  0  0  0
 76 78  1  0  0  0
 76147  1  0  0  0
 76148  1  0  0  0
 77 79  1  0  0  0
 77149  1  0  0  0
 77150  1  0  0  0
 78 83  1  0  0  0
 78151  1  0  0  0
 78152  1  0  0  0
 79 83  1  0  0  0
 79153  1  0  0  0
 80154  1  0  0  0
 80155  1  0  0  0
 81 82  1  0  0  0
 81156  1  0  0  0
 81157  1  0  0  0
 82158  1  0  0  0
 82159  1  0  0  0
M  ISO  4   1 100  68 101  82 101  83 100
M  END
> <chiral flag>
0

> <version>
0

> <s_m_source_file>
/data/baiqing/PycharmProjects/Reinvent-master-3.2/result/LINK_invent/BTK/process_docking_weight1_custom_product_contain_oxygen_bond_distance_aromatic_linkinvent_7_9_3/rearranged_h_0142.sdf

> <i_m_source_file_index>
29

> <r_mmod_Potential_Energy-OPLS-2005>
184.032638549805

> <r_mmod_Stretch_Energy-OPLS-2005>
59.6413803100586

> <r_mmod_Bend_Energy-OPLS-2005>
165.219680786133

> <r_mmod_Torsional_Energy-OPLS-2005>
298.597381591797

> <r_mmod_Improper_Torsional_Energy-OPLS-2005>
7.37186002731323

> <r_mmod_Van_der_Waal_Energy-OPLS-2005>
130.327041625977

> <r_mmod_Electrostatic_Energy-OPLS-2005>
-289.952178955078

> <r_mmod_Solvation_Energy-OPLS-2005>
-208.950088500977

> <b_mmod_Minimization_Converged-OPLS-2005>
0

> <r_mmod_RMS_Derivative-OPLS-2005>
1.57464897632599

$$$$
29
                    3D
 Structure written by MMmdl.
179187  0  0  1  0            999 V2000
  -30.7297  -14.4230   20.5894 C   0  0  0  0  0  0
  -30.4080  -12.2848   19.4162 C   0  0  0  0  0  0
  -29.4791  -12.4861   18.2005 C   0  0  0  0  0  0
  -28.0031  -12.3492   18.6205 C   0  0  0  0  0  0
  -27.6548  -13.1992   19.8684 C   0  0  2  0  0  0
  -28.6916  -12.9934   20.9909 C   0  0  0  0  0  0
  -25.2586  -13.8168   20.5704 C   0  0  0  0  0  0
  -24.1836  -13.0438   20.9163 C   0  0  0  0  0  0
  -24.6357  -11.6899   20.8719 C   0  0  0  0  0  0
  -23.9031  -10.4287   21.0386 C   0  0  0  0  0  0
  -24.3587   -9.4217   21.9178 C   0  0  0  0  0  0
  -23.6285   -8.2247   22.0737 C   0  0  0  0  0  0
  -22.4287   -8.0268   21.3520 C   0  0  0  0  0  0
  -21.9891   -9.0221   20.4639 C   0  0  0  0  0  0
  -22.7187  -10.2118   20.3057 C   0  0  0  0  0  0
  -21.6873   -6.0721   22.5258 C   0  0  0  0  0  0
  -21.4011   -6.5622   23.8185 C   0  0  0  0  0  0
  -21.3677   -5.6785   24.9152 C   0  0  0  0  0  0
  -21.6050   -4.3045   24.7204 C   0  0  0  0  0  0
  -21.8825   -3.8126   23.4334 C   0  0  0  0  0  0
  -21.9198   -4.6948   22.3389 C   0  0  0  0  0  0
  -22.7893  -13.5250   21.1865 C   0  0  0  0  0  0
  -22.1682   -4.2127   21.0970 F   0  0  0  0  0  0
  -21.5635   -3.4545   25.7719 F   0  0  0  0  0  0
  -30.0282  -13.2705   20.4410 N   0  0  0  0  0  0
  -26.2972  -12.9296   20.3365 N   0  0  0  0  0  0
  -25.9283  -11.6453   20.5764 N   0  0  0  0  0  0
  -22.0555  -12.8208   22.0435 N   0  0  0  0  0  0
  -25.4335  -15.1892   20.4143 N   0  0  0  0  0  0
  -31.8597  -14.5947   20.1246 O   0  0  0  0  0  0
  -21.6668   -6.8852   21.4208 O   0  0  0  0  0  0
  -22.3575  -14.5561   20.6746 O   0  0  0  0  0  0
  -24.6121  -31.8758   23.2130 C   0  0  0  0  0  0
  -25.9056  -32.4838   23.8397 C   0  0  1  0  0  0
  -27.2124  -27.4589   20.0942 C   0  0  0  0  0  0
  -25.5946  -33.8647   24.2339 N   0  0  0  0  0  0
  -23.3951  -30.4998   21.5536 C   0  0  2  0  0  0
  -24.8366  -28.9749   20.1070 C   0  0  0  0  0  0
  -22.7387  -29.4696   22.5004 C   0  0  0  0  0  0
  -18.0303  -28.1366   22.8487 C   0  0  0  0  0  0
  -24.1487  -36.7291   23.2621 C   0  0  0  0  0  0
  -25.9234  -30.8403   21.3672 C   0  0  0  0  0  0
  -25.9954  -29.4786   20.7146 C   0  0  0  0  0  0
  -27.1877  -28.7227   20.7225 C   0  0  0  0  0  0
  -26.0599  -26.9962   19.4356 C   0  0  0  0  0  0
  -24.8606  -27.7253   19.4674 C   0  0  0  0  0  0
  -23.6007  -29.8434   20.1620 C   0  0  0  0  0  0
  -25.4119  -36.3116   24.0319 C   0  0  1  0  0  0
  -20.5887  -28.3640   23.1305 C   0  0  2  0  0  0
  -20.6805  -26.9372   22.5412 C   0  0  0  0  0  0
  -19.5767  -26.6369   21.5222 C   0  0  0  0  0  0
  -18.1940  -26.7928   22.1616 C   0  0  0  0  0  0
  -19.1543  -28.8802   23.2899 C   0  0  0  0  0  0
  -18.9474  -30.1420   23.8881 C   0  0  0  0  0  0
  -17.6479  -30.6568   24.0554 C   0  0  0  0  0  0
  -25.9066  -34.9468   23.5115 C   0  0  0  0  0  0
  -16.5370  -29.9056   23.6346 C   0  0  0  0  0  0
  -16.7284  -28.6489   23.0347 C   0  0  0  0  0  0
  -26.4482  -31.6598   25.0709 C   0  0  0  0  0  0
  -25.3738  -31.3718   26.1445 C   0  0  0  0  0  0
  -27.0296  -30.3024   24.6053 C   0  0  0  0  0  0
  -27.6049  -32.4312   25.7484 C   0  0  0  0  0  0
  -27.5581  -37.1794   24.8478 C   0  0  0  0  0  0
  -21.4129  -29.3008   22.3683 N   0  0  0  0  0  0
  -26.4288  -37.3796   23.9417 N   0  0  0  0  0  0
  -24.6608  -31.0854   22.1029 N   0  0  0  0  0  0
  -23.4176  -28.8223   23.3015 O   0  0  0  0  0  0
  -28.3312  -26.6611   20.1220 O   0  0  0  0  0  0
  -26.5592  -34.8937   22.4668 O   0  0  0  0  0  0
  -23.5330  -32.1509   23.7515 O   0  0  0  0  0  0
  -30.0524  -17.5636   24.6353 C   0  0  0  0  0  0
  -30.4633  -17.4823   22.2378 C   0  0  0  0  0  0
  -29.7176  -15.4792   23.4142 C   0  0  0  0  0  0
  -30.4735  -18.2025   23.4537 C   0  0  0  0  0  0
  -29.6763  -16.2090   24.6195 C   0  0  0  0  0  0
  -30.0823  -16.1252   22.2109 C   0  0  0  0  0  0
  -30.7121  -20.5420   22.3573 C   0  0  0  0  0  0
  -30.3293  -14.6539   26.4934 C   0  0  0  0  0  0
  -29.2296  -22.5000   24.6088 C   0  0  0  0  0  0
  -30.8762  -23.4890   23.0632 C   0  0  0  0  0  0
  -29.0848  -23.7946   20.1073 C   0  0  0  0  0  0
  -26.7388  -24.1244   20.7830 C   0  0  0  0  0  0
  -30.9623  -19.6406   23.5662 C   0  0  0  0  0  0
  -29.2248  -15.5355   25.9004 C   0  0  0  0  0  0
  -29.4477  -21.4116   22.3451 C   0  0  0  0  0  0
  -28.3280  -23.7162   22.6595 C   0  0  0  0  0  0
  -28.4791  -25.9137   21.3417 C   0  0  0  0  0  0
  -29.4998  -22.7787   23.1086 C   0  0  0  0  0  0
  -28.1964  -24.3768   21.2274 C   0  0  0  0  0  0
  -30.0132  -15.4942   20.9464 N   0  0  0  0  0  0
  -31.5013  -20.5560   21.4085 O   0  0  0  0  0  0
  -31.4511  -12.3768   19.1062 H   0  0  0  0  0  0
  -30.3016  -11.2742   19.8170 H   0  0  0  0  0  0
  -29.7103  -11.7500   17.4284 H   0  0  0  0  0  0
  -29.6546  -13.4645   17.7490 H   0  0  0  0  0  0
  -27.8233  -11.2942   18.8316 H   0  0  0  0  0  0
  -27.3452  -12.6008   17.7867 H   0  0  0  0  0  0
  -27.7006  -14.2458   19.5629 H   0  0  0  0  0  0
  -28.6582  -11.9756   21.3778 H   0  0  0  0  0  0
  -28.4356  -13.6367   21.8267 H   0  0  0  0  0  0
  -25.2725   -9.5732   22.4763 H   0  0  0  0  0  0
  -24.0010   -7.4654   22.7461 H   0  0  0  0  0  0
  -21.0817   -8.8714   19.8963 H   0  0  0  0  0  0
  -22.3596  -10.9655   19.6194 H   0  0  0  0  0  0
  -21.1997   -7.6137   23.9661 H   0  0  0  0  0  0
  -21.1523   -6.0538   25.9055 H   0  0  0  0  0  0
  -22.0595   -2.7590   23.2842 H   0  0  0  0  0  0
  -22.4195  -11.9873   22.4812 H   0  0  0  0  0  0
  -21.1193  -13.1213   22.2670 H   0  0  0  0  0  0
  -24.6788  -15.8521   20.5531 H   0  0  0  0  0  0
  -26.3084  -15.6284   20.1513 H   0  0  0  0  0  0
  -26.7104  -32.5515   23.1145 H   0  0  0  0  0  0
  -25.0241  -33.9857   25.0559 H   0  0  0  0  0  0
  -22.6850  -31.3173   21.4190 H   0  0  0  0  0  0
  -23.3772  -35.9611   23.3316 H   0  0  0  0  0  0
  -24.3567  -36.8874   22.2034 H   0  0  0  0  0  0
  -23.7229  -37.6489   23.6622 H   0  0  0  0  0  0
  -26.0537  -31.6041   20.5991 H   0  0  0  0  0  0
  -26.8090  -30.8835   21.9897 H   0  0  0  0  0  0
  -28.0738  -29.0975   21.2153 H   0  0  0  0  0  0
  -26.0759  -26.0687   18.8911 H   0  0  0  0  0  0
  -23.9749  -27.3343   18.9852 H   0  0  0  0  0  0
  -23.7080  -30.6288   19.4118 H   0  0  0  0  0  0
  -22.7246  -29.2675   19.8620 H   0  0  0  0  0  0
  -25.1300  -36.1988   25.0803 H   0  0  0  0  0  0
  -21.0006  -28.3212   24.1413 H   0  0  0  0  0  0
  -20.5735  -26.2240   23.3598 H   0  0  0  0  0  0
  -21.6677  -26.7444   22.1160 H   0  0  0  0  0  0
  -19.6926  -25.6292   21.1199 H   0  0  0  0  0  0
  -19.6707  -27.3232   20.6789 H   0  0  0  0  0  0
  -17.4248  -26.6720   21.3976 H   0  0  0  0  0  0
  -18.0263  -26.0056   22.8974 H   0  0  0  0  0  0
  -19.7941  -30.7262   24.2215 H   0  0  0  0  0  0
  -17.5029  -31.6237   24.5165 H   0  0  0  0  0  0
  -15.5363  -30.2951   23.7652 H   0  0  0  0  0  0
  -15.8710  -28.0796   22.7053 H   0  0  0  0  0  0
  -24.5960  -30.7006   25.7791 H   0  0  0  0  0  0
  -24.8879  -32.2882   26.4792 H   0  0  0  0  0  0
  -25.8083  -30.8969   27.0253 H   0  0  0  0  0  0
  -26.2801  -29.6781   24.1152 H   0  0  0  0  0  0
  -27.4145  -29.7259   25.4484 H   0  0  0  0  0  0
  -27.8617  -30.4340   23.9133 H   0  0  0  0  0  0
  -27.2672  -33.3655   26.1972 H   0  0  0  0  0  0
  -28.3901  -32.6782   25.0339 H   0  0  0  0  0  0
  -28.0642  -31.8480   26.5471 H   0  0  0  0  0  0
  -28.2616  -38.0071   24.7562 H   0  0  0  0  0  0
  -28.1049  -36.2614   24.6284 H   0  0  0  0  0  0
  -27.2283  -37.1445   25.8868 H   0  0  0  0  0  0
  -20.9287  -29.8736   21.6909 H   0  0  0  0  0  0
  -26.0182  -38.2861   24.1465 H   0  0  0  0  0  0
  -30.0355  -18.1153   25.5681 H   0  0  0  0  0  0
  -30.7545  -17.9627   21.3145 H   0  0  0  0  0  0
  -29.4441  -14.4383   23.4333 H   0  0  0  0  0  0
  -29.9983  -14.1981   27.4244 H   0  0  0  0  0  0
  -31.2267  -15.2321   26.7145 H   0  0  0  0  0  0
  -30.6100  -13.8551   25.8083 H   0  0  0  0  0  0
  -30.0425  -21.9538   25.0865 H   0  0  0  0  0  0
  -28.3053  -21.9372   24.7656 H   0  0  0  0  0  0
  -29.1295  -23.4324   25.1668 H   0  0  0  0  0  0
  -31.6373  -22.9092   23.5916 H   0  0  0  0  0  0
  -30.8281  -24.4599   23.5583 H   0  0  0  0  0  0
  -31.2729  -23.6495   22.0651 H   0  0  0  0  0  0
  -28.7829  -22.7932   19.8126 H   0  0  0  0  0  0
  -30.1397  -23.7825   20.3463 H   0  0  0  0  0  0
  -28.9870  -24.3910   19.2009 H   0  0  0  0  0  0
  -26.4444  -23.0880   20.9426 H   0  0  0  0  0  0
  -26.6047  -24.2797   19.7153 H   0  0  0  0  0  0
  -26.0289  -24.7551   21.3182 H   0  0  0  0  0  0
  -32.0279  -19.6354   23.7884 H   0  0  0  0  0  0
  -30.4725  -20.0701   24.4333 H   0  0  0  0  0  0
  -28.3290  -14.9442   25.7007 H   0  0  0  0  0  0
  -28.9240  -16.2945   26.6250 H   0  0  0  0  0  0
  -28.6302  -20.8049   22.7418 H   0  0  0  0  0  0
  -29.1921  -21.5437   21.3017 H   0  0  0  0  0  0
  -28.2739  -24.5282   23.3873 H   0  0  0  0  0  0
  -27.4163  -23.1538   22.8741 H   0  0  0  0  0  0
  -29.5012  -26.0705   21.6814 H   0  0  0  0  0  0
  -27.8455  -26.3373   22.1256 H   0  0  0  0  0  0
  -30.1268  -16.1833   20.2172 H   0  0  0  0  0  0
  1 25  1  0  0  0
  1 30  2  0  0  0
  1 90  1  0  0  0
  2  3  1  0  0  0
  2 25  1  0  0  0
  2 92  1  0  0  0
  2 93  1  0  0  0
  3  4  1  0  0  0
  3 94  1  0  0  0
  3 95  1  0  0  0
  4  5  1  0  0  0
  4 96  1  0  0  0
  4 97  1  0  0  0
  5  6  1  0  0  0
  5 26  1  0  0  0
  5 98  1  0  0  0
  6 25  1  0  0  0
  6 99  1  0  0  0
  6100  1  0  0  0
  7  8  2  0  0  0
  7 26  1  0  0  0
  7 29  1  0  0  0
  8  9  1  0  0  0
  8 22  1  0  0  0
  9 10  1  0  0  0
  9 27  2  0  0  0
 10 11  2  0  0  0
 10 15  1  0  0  0
 11 12  1  0  0  0
 11101  1  0  0  0
 12 13  2  0  0  0
 12102  1  0  0  0
 13 14  1  0  0  0
 13 31  1  0  0  0
 14 15  2  0  0  0
 14103  1  0  0  0
 15104  1  0  0  0
 16 17  2  0  0  0
 16 21  1  0  0  0
 16 31  1  0  0  0
 17 18  1  0  0  0
 17105  1  0  0  0
 18 19  2  0  0  0
 18106  1  0  0  0
 19 20  1  0  0  0
 19 24  1  0  0  0
 20 21  2  0  0  0
 20107  1  0  0  0
 21 23  1  0  0  0
 22 28  1  0  0  0
 22 32  2  0  0  0
 26 27  1  0  0  0
 28108  1  0  0  0
 28109  1  0  0  0
 29110  1  0  0  0
 29111  1  0  0  0
 33 34  1  0  0  0
 33 66  1  0  0  0
 33 70  2  0  0  0
 34 36  1  0  0  0
 34 59  1  0  0  0
 34112  1  0  0  0
 35 44  2  0  0  0
 35 45  1  0  0  0
 35 68  1  0  0  0
 36 56  1  0  0  0
 36113  1  0  0  0
 37 39  1  0  0  0
 37 47  1  0  0  0
 37 66  1  0  0  0
 37114  1  0  0  0
 38 43  2  0  0  0
 38 46  1  0  0  0
 38 47  1  0  0  0
 39 64  1  0  0  0
 39 67  2  0  0  0
 40 52  1  0  0  0
 40 53  2  0  0  0
 40 58  1  0  0  0
 41115  1  0  0  0
 41116  1  0  0  0
 41117  1  0  0  0
 41 48  1  0  0  0
 42 43  1  0  0  0
 42 66  1  0  0  0
 42118  1  0  0  0
 42119  1  0  0  0
 43 44  1  0  0  0
 44120  1  0  0  0
 45 46  2  0  0  0
 45121  1  0  0  0
 46122  1  0  0  0
 47123  1  0  0  0
 47124  1  0  0  0
 48 56  1  0  0  0
 48 65  1  0  0  0
 48125  1  0  0  0
 49 50  1  0  0  0
 49 53  1  0  0  0
 49 64  1  0  0  0
 49126  1  0  0  0
 50 51  1  0  0  0
 50127  1  0  0  0
 50128  1  0  0  0
 51 52  1  0  0  0
 51129  1  0  0  0
 51130  1  0  0  0
 52131  1  0  0  0
 52132  1  0  0  0
 53 54  1  0  0  0
 54 55  2  0  0  0
 54133  1  0  0  0
 55 57  1  0  0  0
 55134  1  0  0  0
 56 69  2  0  0  0
 57 58  2  0  0  0
 57135  1  0  0  0
 58136  1  0  0  0
 59 60  1  0  0  0
 59 61  1  0  0  0
 59 62  1  0  0  0
 60137  1  0  0  0
 60138  1  0  0  0
 60139  1  0  0  0
 61140  1  0  0  0
 61141  1  0  0  0
 61142  1  0  0  0
 62143  1  0  0  0
 62144  1  0  0  0
 62145  1  0  0  0
 63 65  1  0  0  0
 63146  1  0  0  0
 63147  1  0  0  0
 63148  1  0  0  0
 64149  1  0  0  0
 65150  1  0  0  0
 68 87  1  0  0  0
 71 74  2  0  0  0
 71 75  1  0  0  0
 71151  1  0  0  0
 72 74  1  0  0  0
 72 76  2  0  0  0
 72152  1  0  0  0
 73 75  2  0  0  0
 73 76  1  0  0  0
 73153  1  0  0  0
 74 83  1  0  0  0
 75 84  1  0  0  0
 76 90  1  0  0  0
 77 83  1  0  0  0
 77 85  1  0  0  0
 77 91  2  0  0  0
 78 84  1  0  0  0
 78154  1  0  0  0
 78155  1  0  0  0
 78156  1  0  0  0
 79157  1  0  0  0
 79158  1  0  0  0
 79159  1  0  0  0
 79 88  1  0  0  0
 80 88  1  0  0  0
 80160  1  0  0  0
 80161  1  0  0  0
 80162  1  0  0  0
 81163  1  0  0  0
 81164  1  0  0  0
 81165  1  0  0  0
 81 89  1  0  0  0
 82 89  1  0  0  0
 82166  1  0  0  0
 82167  1  0  0  0
 82168  1  0  0  0
 83169  1  0  0  0
 83170  1  0  0  0
 84171  1  0  0  0
 84172  1  0  0  0
 85 88  1  0  0  0
 85173  1  0  0  0
 85174  1  0  0  0
 86 88  1  0  0  0
 86 89  1  0  0  0
 86175  1  0  0  0
 86176  1  0  0  0
 87 89  1  0  0  0
 87177  1  0  0  0
 87178  1  0  0  0
 90179  1  0  0  0
M  ISO  4   1 100  68 101  87 101  90 100
M  END
> <chiral flag>
0

> <version>
0

> <s_m_source_file>
/data/baiqing/PycharmProjects/Reinvent-master-3.2/result/LINK_invent/BTK/process_docking_weight1_custom_product_contain_oxygen_bond_distance_aromatic_linkinvent_7_9_3/rearranged_h_0142.sdf

> <i_m_source_file_index>
30

> <r_mmod_Potential_Energy-OPLS-2005>
161.450897216797

> <r_mmod_Stretch_Energy-OPLS-2005>
40.4613265991211

> <r_mmod_Bend_Energy-OPLS-2005>
146.339797973633

> <r_mmod_Torsional_Energy-OPLS-2005>
317.503814697266

> <r_mmod_Improper_Torsional_Energy-OPLS-2005>
14.0480175018311

> <r_mmod_Van_der_Waal_Energy-OPLS-2005>
167.300430297852

> <r_mmod_Electrostatic_Energy-OPLS-2005>
-342.499664306641

> <r_mmod_Solvation_Energy-OPLS-2005>
-195.530975341797

> <b_mmod_Minimization_Converged-OPLS-2005>
0

> <r_mmod_RMS_Derivative-OPLS-2005>
5.37219715118408

$$$$
30
                    3D
 Structure written by MMmdl.
161170  0  0  1  0            999 V2000
  -30.6349  -14.6620   20.4558 C   0  0  0  0  0  0
  -30.4171  -12.4015   19.4536 C   0  0  0  0  0  0
  -29.4972  -12.5206   18.2209 C   0  0  0  0  0  0
  -28.0207  -12.3575   18.6302 C   0  0  0  0  0  0
  -27.6398  -13.2324   19.8554 C   0  0  2  0  0  0
  -28.6856  -13.1399   20.9829 C   0  0  0  0  0  0
  -25.2511  -13.8204   20.5759 C   0  0  0  0  0  0
  -24.1787  -13.0440   20.9235 C   0  0  0  0  0  0
  -24.6375  -11.6930   20.8755 C   0  0  0  0  0  0
  -23.9061  -10.4293   21.0406 C   0  0  0  0  0  0
  -24.3615   -9.4198   21.9184 C   0  0  0  0  0  0
  -23.6294   -8.2215   22.0733 C   0  0  0  0  0  0
  -22.4273   -8.0254   21.3519 C   0  0  0  0  0  0
  -21.9913   -9.0239   20.4621 C   0  0  0  0  0  0
  -22.7231  -10.2131   20.3051 C   0  0  0  0  0  0
  -21.6843   -6.0718   22.5277 C   0  0  0  0  0  0
  -21.4005   -6.5620   23.8227 C   0  0  0  0  0  0
  -21.3690   -5.6767   24.9190 C   0  0  0  0  0  0
  -21.6065   -4.3029   24.7220 C   0  0  0  0  0  0
  -21.8811   -3.8121   23.4340 C   0  0  0  0  0  0
  -21.9183   -4.6944   22.3398 C   0  0  0  0  0  0
  -22.7813  -13.5213   21.1910 C   0  0  0  0  0  0
  -22.1646   -4.2155   21.0964 F   0  0  0  0  0  0
  -21.5655   -3.4508   25.7717 F   0  0  0  0  0  0
  -29.9984  -13.4469   20.4098 N   0  0  0  0  0  0
  -26.2927  -12.9402   20.3328 N   0  0  0  0  0  0
  -25.9297  -11.6541   20.5765 N   0  0  0  0  0  0
  -22.0437  -12.8202   22.0458 N   0  0  0  0  0  0
  -25.4216  -15.1948   20.4232 N   0  0  0  0  0  0
  -31.8416  -14.7320   20.2156 O   0  0  0  0  0  0
  -21.6619   -6.8863   21.4236 O   0  0  0  0  0  0
  -22.3515  -14.5524   20.6760 O   0  0  0  0  0  0
  -24.6265  -31.8597   23.2055 C   0  0  0  0  0  0
  -25.9115  -32.4780   23.8368 C   0  0  1  0  0  0
  -27.1987  -27.3014   20.1554 C   0  0  0  0  0  0
  -25.5944  -33.8575   24.2274 N   0  0  0  0  0  0
  -23.4176  -30.4884   21.5457 C   0  0  2  0  0  0
  -24.8626  -28.9506   20.1085 C   0  0  0  0  0  0
  -22.7477  -29.4621   22.4898 C   0  0  0  0  0  0
  -18.0321  -28.1390   22.8507 C   0  0  0  0  0  0
  -24.1490  -36.7327   23.2628 C   0  0  0  0  0  0
  -25.9611  -30.7899   21.3786 C   0  0  0  0  0  0
  -26.0312  -29.4186   20.7204 C   0  0  0  0  0  0
  -27.2075  -28.6091   20.7303 C   0  0  0  0  0  0
  -26.0146  -26.9004   19.4957 C   0  0  0  0  0  0
  -24.8580  -27.6980   19.4811 C   0  0  0  0  0  0
  -23.6315  -29.8312   20.1577 C   0  0  0  0  0  0
  -25.4102  -36.3057   24.0308 C   0  0  1  0  0  0
  -20.5912  -28.3690   23.1291 C   0  0  2  0  0  0
  -20.6800  -26.9410   22.5417 C   0  0  0  0  0  0
  -19.5772  -26.6385   21.5214 C   0  0  0  0  0  0
  -18.1950  -26.7951   22.1611 C   0  0  0  0  0  0
  -19.1565  -28.8859   23.2908 C   0  0  0  0  0  0
  -18.9482  -30.1461   23.8915 C   0  0  0  0  0  0
  -17.6480  -30.6595   24.0562 C   0  0  0  0  0  0
  -25.9060  -34.9441   23.5081 C   0  0  0  0  0  0
  -16.5371  -29.9095   23.6336 C   0  0  0  0  0  0
  -16.7298  -28.6502   23.0372 C   0  0  0  0  0  0
  -26.4479  -31.6602   25.0747 C   0  0  0  0  0  0
  -25.3685  -31.3838   26.1450 C   0  0  0  0  0  0
  -27.0280  -30.2977   24.6265 C   0  0  0  0  0  0
  -27.6053  -32.4273   25.7563 C   0  0  0  0  0  0
  -27.5584  -37.1790   24.8424 C   0  0  0  0  0  0
  -21.4192  -29.3035   22.3659 N   0  0  0  0  0  0
  -26.4263  -37.3777   23.9432 N   0  0  0  0  0  0
  -24.6858  -31.0630   22.1004 N   0  0  0  0  0  0
  -23.4224  -28.8152   23.2970 O   0  0  0  0  0  0
  -28.2812  -26.4073   20.2425 O   0  0  0  0  0  0
  -26.5622  -34.8927   22.4643 O   0  0  0  0  0  0
  -23.5429  -32.1412   23.7398 O   0  0  0  0  0  0
  -29.2192  -16.5463   19.2867 C   0  0  0  0  0  0
  -28.7676  -17.9062   19.4698 C   0  0  0  0  0  0
  -29.8549  -15.9803   20.3696 C   0  0  0  0  0  0
  -29.0284  -18.4505   20.7121 C   0  0  0  0  0  0
  -29.5135  -21.1232   21.0942 C   0  0  0  0  0  0
  -27.3799  -21.7366   20.3331 C   0  0  0  0  0  0
  -28.6016  -19.8525   21.2707 C   0  0  1  0  0  0
  -28.5526  -22.3820   21.0967 C   0  0  2  0  0  0
  -29.6442  -23.7279   19.1954 C   0  0  0  0  0  0
  -30.1867  -24.2965   21.5707 C   0  0  0  0  0  0
  -27.9460  -24.9974   20.6005 C   0  0  0  0  0  0
  -29.0613  -23.8423   20.6158 C   0  0  0  0  0  0
  -27.2743  -20.3321   20.8138 N   0  3  0  0  0  0
  -29.9286  -17.2179   21.6456 S   0  0  0  0  0  0
  -31.4624  -12.4990   19.1550 H   0  0  0  0  0  0
  -30.3179  -11.4130   19.9043 H   0  0  0  0  0  0
  -29.7627  -11.7777   17.4688 H   0  0  0  0  0  0
  -29.6415  -13.4917   17.7473 H   0  0  0  0  0  0
  -27.8526  -11.3050   18.8559 H   0  0  0  0  0  0
  -27.3660  -12.5968   17.7932 H   0  0  0  0  0  0
  -27.6365  -14.2626   19.5077 H   0  0  0  0  0  0
  -28.6914  -12.1394   21.4183 H   0  0  0  0  0  0
  -28.4435  -13.8305   21.7939 H   0  0  0  0  0  0
  -25.2754   -9.5656   22.4763 H   0  0  0  0  0  0
  -24.0014   -7.4581   22.7413 H   0  0  0  0  0  0
  -21.0857   -8.8728   19.8914 H   0  0  0  0  0  0
  -22.3673  -10.9658   19.6161 H   0  0  0  0  0  0
  -21.1976   -7.6132   23.9744 H   0  0  0  0  0  0
  -21.1552   -6.0481   25.9110 H   0  0  0  0  0  0
  -22.0574   -2.7581   23.2811 H   0  0  0  0  0  0
  -22.4021  -11.9875   22.4882 H   0  0  0  0  0  0
  -21.1061  -13.1236   22.2663 H   0  0  0  0  0  0
  -24.6568  -15.8456   20.5632 H   0  0  0  0  0  0
  -26.2853  -15.6441   20.1397 H   0  0  0  0  0  0
  -26.7183  -32.5422   23.1131 H   0  0  0  0  0  0
  -24.9983  -33.9734   25.0339 H   0  0  0  0  0  0
  -22.7101  -31.3094   21.4080 H   0  0  0  0  0  0
  -23.3730  -35.9666   23.3190 H   0  0  0  0  0  0
  -24.3620  -36.9073   22.2064 H   0  0  0  0  0  0
  -23.7267  -37.6511   23.6733 H   0  0  0  0  0  0
  -26.0941  -31.5555   20.6127 H   0  0  0  0  0  0
  -26.8409  -30.8364   22.0096 H   0  0  0  0  0  0
  -28.0972  -28.9617   21.2303 H   0  0  0  0  0  0
  -25.9398  -25.9476   18.9939 H   0  0  0  0  0  0
  -23.9622  -27.3365   18.9952 H   0  0  0  0  0  0
  -23.7551  -30.6123   19.4068 H   0  0  0  0  0  0
  -22.7506  -29.2649   19.8484 H   0  0  0  0  0  0
  -25.1280  -36.1855   25.0796 H   0  0  0  0  0  0
  -21.0011  -28.3231   24.1403 H   0  0  0  0  0  0
  -20.5682  -26.2281   23.3613 H   0  0  0  0  0  0
  -21.6676  -26.7427   22.1187 H   0  0  0  0  0  0
  -19.6913  -25.6291   21.1257 H   0  0  0  0  0  0
  -19.6726  -27.3181   20.6733 H   0  0  0  0  0  0
  -17.4229  -26.6745   21.4000 H   0  0  0  0  0  0
  -18.0319  -26.0101   22.9004 H   0  0  0  0  0  0
  -19.7957  -30.7294   24.2267 H   0  0  0  0  0  0
  -17.5033  -31.6275   24.5170 H   0  0  0  0  0  0
  -15.5365  -30.2985   23.7680 H   0  0  0  0  0  0
  -15.8701  -28.0804   22.7093 H   0  0  0  0  0  0
  -24.5830  -30.7219   25.7791 H   0  0  0  0  0  0
  -24.8929  -32.3066   26.4776 H   0  0  0  0  0  0
  -25.7939  -30.9081   27.0293 H   0  0  0  0  0  0
  -26.2864  -29.6750   24.1231 H   0  0  0  0  0  0
  -27.3857  -29.7217   25.4823 H   0  0  0  0  0  0
  -27.8815  -30.4199   23.9586 H   0  0  0  0  0  0
  -27.2662  -33.3533   26.2212 H   0  0  0  0  0  0
  -28.3883  -32.6862   25.0429 H   0  0  0  0  0  0
  -28.0682  -31.8344   26.5471 H   0  0  0  0  0  0
  -28.2466  -38.0207   24.7556 H   0  0  0  0  0  0
  -28.1209  -36.2735   24.6080 H   0  0  0  0  0  0
  -27.2351  -37.1237   25.8837 H   0  0  0  0  0  0
  -20.9349  -29.8769   21.6898 H   0  0  0  0  0  0
  -26.0092  -38.2809   24.1551 H   0  0  0  0  0  0
  -29.1045  -16.0373   18.3389 H   0  0  0  0  0  0
  -28.2626  -18.4330   18.6711 H   0  0  0  0  0  0
  -30.0229  -21.0442   20.1351 H   0  0  0  0  0  0
  -30.2778  -21.1742   21.8692 H   0  0  0  0  0  0
  -27.6030  -21.7087   19.2664 H   0  0  0  0  0  0
  -26.4412  -22.2790   20.4521 H   0  0  0  0  0  0
  -28.4668  -19.7217   22.3451 H   0  0  0  0  0  0
  -28.2067  -22.5049   22.1258 H   0  0  0  0  0  0
  -30.4807  -23.0324   19.1565 H   0  0  0  0  0  0
  -30.0179  -24.6884   18.8451 H   0  0  0  0  0  0
  -28.8965  -23.3927   18.4776 H   0  0  0  0  0  0
  -30.9985  -23.5714   21.6243 H   0  0  0  0  0  0
  -29.8226  -24.4473   22.5894 H   0  0  0  0  0  0
  -30.6213  -25.2421   21.2444 H   0  0  0  0  0  0
  -27.4789  -25.0338   21.5894 H   0  0  0  0  0  0
  -27.1732  -24.6219   19.9350 H   0  0  0  0  0  0
  -26.8684  -19.7338   20.1155 H   0  0  0  0  0  0
  -26.6574  -20.3216   21.6117 H   0  0  0  0  0  0
  1 25  1  0  0  0
  1 30  2  0  0  0
  1 73  1  0  0  0
  2  3  1  0  0  0
  2 25  1  0  0  0
  2 85  1  0  0  0
  2 86  1  0  0  0
  3  4  1  0  0  0
  3 87  1  0  0  0
  3 88  1  0  0  0
  4  5  1  0  0  0
  4 89  1  0  0  0
  4 90  1  0  0  0
  5  6  1  0  0  0
  5 26  1  0  0  0
  5 91  1  0  0  0
  6 25  1  0  0  0
  6 92  1  0  0  0
  6 93  1  0  0  0
  7  8  2  0  0  0
  7 26  1  0  0  0
  7 29  1  0  0  0
  8  9  1  0  0  0
  8 22  1  0  0  0
  9 10  1  0  0  0
  9 27  2  0  0  0
 10 11  2  0  0  0
 10 15  1  0  0  0
 11 12  1  0  0  0
 11 94  1  0  0  0
 12 13  2  0  0  0
 12 95  1  0  0  0
 13 14  1  0  0  0
 13 31  1  0  0  0
 14 15  2  0  0  0
 14 96  1  0  0  0
 15 97  1  0  0  0
 16 17  2  0  0  0
 16 21  1  0  0  0
 16 31  1  0  0  0
 17 18  1  0  0  0
 17 98  1  0  0  0
 18 19  2  0  0  0
 18 99  1  0  0  0
 19 20  1  0  0  0
 19 24  1  0  0  0
 20 21  2  0  0  0
 20100  1  0  0  0
 21 23  1  0  0  0
 22 28  1  0  0  0
 22 32  2  0  0  0
 26 27  1  0  0  0
 28101  1  0  0  0
 28102  1  0  0  0
 29103  1  0  0  0
 29104  1  0  0  0
 33 34  1  0  0  0
 33 66  1  0  0  0
 33 70  2  0  0  0
 34 36  1  0  0  0
 34 59  1  0  0  0
 34105  1  0  0  0
 35 44  2  0  0  0
 35 45  1  0  0  0
 35 68  1  0  0  0
 36 56  1  0  0  0
 36106  1  0  0  0
 37 39  1  0  0  0
 37 47  1  0  0  0
 37 66  1  0  0  0
 37107  1  0  0  0
 38 43  2  0  0  0
 38 46  1  0  0  0
 38 47  1  0  0  0
 39 64  1  0  0  0
 39 67  2  0  0  0
 40 52  1  0  0  0
 40 53  2  0  0  0
 40 58  1  0  0  0
 41108  1  0  0  0
 41109  1  0  0  0
 41110  1  0  0  0
 41 48  1  0  0  0
 42 43  1  0  0  0
 42 66  1  0  0  0
 42111  1  0  0  0
 42112  1  0  0  0
 43 44  1  0  0  0
 44113  1  0  0  0
 45 46  2  0  0  0
 45114  1  0  0  0
 46115  1  0  0  0
 47116  1  0  0  0
 47117  1  0  0  0
 48 56  1  0  0  0
 48 65  1  0  0  0
 48118  1  0  0  0
 49 50  1  0  0  0
 49 53  1  0  0  0
 49 64  1  0  0  0
 49119  1  0  0  0
 50 51  1  0  0  0
 50120  1  0  0  0
 50121  1  0  0  0
 51 52  1  0  0  0
 51122  1  0  0  0
 51123  1  0  0  0
 52124  1  0  0  0
 52125  1  0  0  0
 53 54  1  0  0  0
 54 55  2  0  0  0
 54126  1  0  0  0
 55 57  1  0  0  0
 55127  1  0  0  0
 56 69  2  0  0  0
 57 58  2  0  0  0
 57128  1  0  0  0
 58129  1  0  0  0
 59 60  1  0  0  0
 59 61  1  0  0  0
 59 62  1  0  0  0
 60130  1  0  0  0
 60131  1  0  0  0
 60132  1  0  0  0
 61133  1  0  0  0
 61134  1  0  0  0
 61135  1  0  0  0
 62136  1  0  0  0
 62137  1  0  0  0
 62138  1  0  0  0
 63 65  1  0  0  0
 63139  1  0  0  0
 63140  1  0  0  0
 63141  1  0  0  0
 64142  1  0  0  0
 65143  1  0  0  0
 68 81  1  0  0  0
 71 72  1  0  0  0
 71 73  2  0  0  0
 71144  1  0  0  0
 72 74  2  0  0  0
 72145  1  0  0  0
 73 84  1  0  0  0
 74 84  1  0  0  0
 74 77  1  0  0  0
 75 77  1  0  0  0
 75146  1  0  0  0
 75147  1  0  0  0
 75 78  1  0  0  0
 76 78  1  0  0  0
 76 83  1  0  0  0
 76148  1  0  0  0
 76149  1  0  0  0
 77 83  1  0  0  0
 77150  1  0  0  0
 78 82  1  0  0  0
 78151  1  0  0  0
 79152  1  0  0  0
 79153  1  0  0  0
 79154  1  0  0  0
 79 82  1  0  0  0
 80 82  1  0  0  0
 80155  1  0  0  0
 80156  1  0  0  0
 80157  1  0  0  0
 81 82  1  0  0  0
 81158  1  0  0  0
 81159  1  0  0  0
 83160  1  0  0  0
 83161  1  0  0  0
M  CHG  1  83   1
M  ISO  4   1 100  68 101  73 100  81 101
M  END
> <chiral flag>
0

> <version>
0

> <s_m_source_file>
/data/baiqing/PycharmProjects/Reinvent-master-3.2/result/LINK_invent/BTK/process_docking_weight1_custom_product_contain_oxygen_bond_distance_aromatic_linkinvent_7_9_3/rearranged_h_0142.sdf

> <i_m_source_file_index>
31

> <r_mmod_Potential_Energy-OPLS-2005>
59.0905151367188

> <r_mmod_Stretch_Energy-OPLS-2005>
87.9214248657227

> <r_mmod_Bend_Energy-OPLS-2005>
178.432952880859

> <r_mmod_Torsional_Energy-OPLS-2005>
294.9326171875

> <r_mmod_Improper_Torsional_Energy-OPLS-2005>
11.9082660675049

> <r_mmod_Van_der_Waal_Energy-OPLS-2005>
108.61563873291

> <r_mmod_Electrostatic_Energy-OPLS-2005>
-221.33610534668

> <r_mmod_Solvation_Energy-OPLS-2005>
-467.370727539062

> <b_mmod_Minimization_Converged-OPLS-2005>
0

> <r_mmod_RMS_Derivative-OPLS-2005>
4.81395864486694

$$$$
31
                    3D
 Structure written by MMmdl.
171179  0  0  1  0            999 V2000
  -30.6439  -14.6702   20.5026 C   0  0  0  0  0  0
  -30.4188  -12.4073   19.4618 C   0  0  0  0  0  0
  -29.5114  -12.5147   18.2195 C   0  0  0  0  0  0
  -28.0317  -12.3504   18.6212 C   0  0  0  0  0  0
  -27.6455  -13.2265   19.8465 C   0  0  2  0  0  0
  -28.6853  -13.1145   20.9830 C   0  0  0  0  0  0
  -25.2526  -13.8194   20.5675 C   0  0  0  0  0  0
  -24.1809  -13.0454   20.9194 C   0  0  0  0  0  0
  -24.6391  -11.6922   20.8713 C   0  0  0  0  0  0
  -23.9046  -10.4300   21.0406 C   0  0  0  0  0  0
  -24.3612   -9.4207   21.9173 C   0  0  0  0  0  0
  -23.6306   -8.2225   22.0744 C   0  0  0  0  0  0
  -22.4275   -8.0258   21.3528 C   0  0  0  0  0  0
  -21.9899   -9.0229   20.4634 C   0  0  0  0  0  0
  -22.7229  -10.2124   20.3048 C   0  0  0  0  0  0
  -21.6844   -6.0724   22.5292 C   0  0  0  0  0  0
  -21.3995   -6.5631   23.8225 C   0  0  0  0  0  0
  -21.3667   -5.6787   24.9190 C   0  0  0  0  0  0
  -21.6059   -4.3040   24.7234 C   0  0  0  0  0  0
  -21.8809   -3.8135   23.4346 C   0  0  0  0  0  0
  -21.9183   -4.6958   22.3406 C   0  0  0  0  0  0
  -22.7843  -13.5252   21.1860 C   0  0  0  0  0  0
  -22.1656   -4.2152   21.0981 F   0  0  0  0  0  0
  -21.5656   -3.4514   25.7737 F   0  0  0  0  0  0
  -29.9932  -13.4603   20.4126 N   0  0  0  0  0  0
  -26.2939  -12.9391   20.3189 N   0  0  0  0  0  0
  -25.9309  -11.6535   20.5663 N   0  0  0  0  0  0
  -22.0423  -12.8288   22.0417 N   0  0  0  0  0  0
  -25.4285  -15.1926   20.4191 N   0  0  0  0  0  0
  -31.8156  -14.7498   20.1324 O   0  0  0  0  0  0
  -21.6631   -6.8868   21.4248 O   0  0  0  0  0  0
  -22.3553  -14.5542   20.6699 O   0  0  0  0  0  0
  -24.6288  -31.8560   23.2067 C   0  0  0  0  0  0
  -25.9143  -32.4729   23.8364 C   0  0  1  0  0  0
  -27.2034  -27.2747   20.1506 C   0  0  0  0  0  0
  -25.5949  -33.8549   24.2271 N   0  0  0  0  0  0
  -23.4185  -30.4869   21.5480 C   0  0  2  0  0  0
  -24.8620  -28.9258   20.1338 C   0  0  0  0  0  0
  -22.7460  -29.4631   22.4953 C   0  0  0  0  0  0
  -18.0277  -28.1377   22.8470 C   0  0  0  0  0  0
  -24.1478  -36.7266   23.2634 C   0  0  0  0  0  0
  -25.9656  -30.7669   21.3940 C   0  0  0  0  0  0
  -26.0302  -29.3839   20.7563 C   0  0  0  0  0  0
  -27.2039  -28.5677   20.7645 C   0  0  0  0  0  0
  -26.0351  -26.9147   19.4493 C   0  0  0  0  0  0
  -24.8647  -27.6928   19.4725 C   0  0  0  0  0  0
  -23.6379  -29.8186   20.1664 C   0  0  0  0  0  0
  -25.4096  -36.3064   24.0340 C   0  0  1  0  0  0
  -20.5876  -28.3660   23.1285 C   0  0  2  0  0  0
  -20.6744  -26.9386   22.5400 C   0  0  0  0  0  0
  -19.5731  -26.6372   21.5183 C   0  0  0  0  0  0
  -18.1914  -26.7922   22.1596 C   0  0  0  0  0  0
  -19.1536  -28.8847   23.2865 C   0  0  0  0  0  0
  -18.9455  -30.1457   23.8873 C   0  0  0  0  0  0
  -17.6454  -30.6573   24.0573 C   0  0  0  0  0  0
  -25.9038  -34.9430   23.5103 C   0  0  0  0  0  0
  -16.5341  -29.9062   23.6369 C   0  0  0  0  0  0
  -16.7269  -28.6492   23.0365 C   0  0  0  0  0  0
  -26.4531  -31.6539   25.0727 C   0  0  0  0  0  0
  -25.3761  -31.3696   26.1455 C   0  0  0  0  0  0
  -27.0339  -30.2924   24.6215 C   0  0  0  0  0  0
  -27.6107  -32.4260   25.7475 C   0  0  0  0  0  0
  -27.5583  -37.1788   24.8457 C   0  0  0  0  0  0
  -21.4183  -29.3016   22.3689 N   0  0  0  0  0  0
  -26.4263  -37.3766   23.9434 N   0  0  0  0  0  0
  -24.6886  -31.0550   22.1037 N   0  0  0  0  0  0
  -23.4195  -28.8184   23.3041 O   0  0  0  0  0  0
  -28.3527  -26.4913   19.9642 O   0  0  0  0  0  0
  -26.5584  -34.8914   22.4659 O   0  0  0  0  0  0
  -23.5457  -32.1411   23.7386 O   0  0  0  0  0  0
  -31.0398  -20.0162   21.0096 C   0  0  0  0  0  0
  -31.6181  -17.6302   20.9310 C   0  0  0  0  0  0
  -29.2934  -18.3221   20.9103 C   0  0  0  0  0  0
  -32.0021  -18.9858   21.0067 C   0  0  0  0  0  0
  -29.6594  -19.7321   20.9642 C   0  0  0  0  0  0
  -30.2605  -17.2357   20.8716 C   0  0  0  0  0  0
  -33.4801  -19.3175   21.0980 C   0  0  0  0  0  0
  -26.7786  -22.3988   18.6730 C   0  0  0  0  0  0
  -27.0793  -23.6079   21.7397 C   0  0  0  0  0  0
  -29.1027  -25.6904   22.1067 C   0  0  0  0  0  0
  -30.1512  -25.1358   19.9131 C   0  0  0  0  0  0
  -28.6300  -20.9455   21.0388 C   0  0  0  0  0  0
  -27.2588  -23.7310   19.2570 C   0  0  0  0  0  0
  -29.0913  -22.4623   20.6625 C   0  0  0  0  0  0
  -28.0811  -23.7519   20.5763 C   0  0  2  0  0  0
  -28.8019  -25.2424   20.6610 C   0  0  0  0  0  0
  -29.8939  -15.7959   20.8178 N   0  0  0  0  0  0
  -31.4664  -12.4996   19.1780 H   0  0  0  0  0  0
  -30.3251  -11.4196   19.9182 H   0  0  0  0  0  0
  -29.7917  -11.7551   17.4883 H   0  0  0  0  0  0
  -29.6605  -13.4802   17.7321 H   0  0  0  0  0  0
  -27.8716  -11.2990   18.8594 H   0  0  0  0  0  0
  -27.3832  -12.5687   17.7714 H   0  0  0  0  0  0
  -27.6573  -14.2581   19.4963 H   0  0  0  0  0  0
  -28.7014  -12.1025   21.3944 H   0  0  0  0  0  0
  -28.4238  -13.7700   21.8148 H   0  0  0  0  0  0
  -25.2755   -9.5703   22.4731 H   0  0  0  0  0  0
  -24.0018   -7.4629   22.7472 H   0  0  0  0  0  0
  -21.0815   -8.8759   19.8957 H   0  0  0  0  0  0
  -22.3688  -10.9651   19.6140 H   0  0  0  0  0  0
  -21.1961   -7.6138   23.9740 H   0  0  0  0  0  0
  -21.1524   -6.0501   25.9108 H   0  0  0  0  0  0
  -22.0586   -2.7597   23.2842 H   0  0  0  0  0  0
  -22.3974  -11.9964   22.4875 H   0  0  0  0  0  0
  -21.1035  -13.1356   22.2510 H   0  0  0  0  0  0
  -24.6692  -15.8504   20.5584 H   0  0  0  0  0  0
  -26.2909  -15.6373   20.1303 H   0  0  0  0  0  0
  -26.7209  -32.5392   23.1113 H   0  0  0  0  0  0
  -25.0203  -33.9668   25.0497 H   0  0  0  0  0  0
  -22.7153  -31.3107   21.4061 H   0  0  0  0  0  0
  -23.3758  -35.9574   23.3233 H   0  0  0  0  0  0
  -24.3610  -36.8929   22.2063 H   0  0  0  0  0  0
  -23.7186  -37.6442   23.6669 H   0  0  0  0  0  0
  -26.1054  -31.5211   20.6195 H   0  0  0  0  0  0
  -26.8438  -30.8186   22.0247 H   0  0  0  0  0  0
  -28.1095  -28.9292   21.2314 H   0  0  0  0  0  0
  -26.0260  -26.0752   18.7807 H   0  0  0  0  0  0
  -23.9946  -27.3662   18.9192 H   0  0  0  0  0  0
  -23.7728  -30.5906   19.4092 H   0  0  0  0  0  0
  -22.7538  -29.2580   19.8567 H   0  0  0  0  0  0
  -25.1283  -36.1912   25.0831 H   0  0  0  0  0  0
  -20.9966  -28.3192   24.1406 H   0  0  0  0  0  0
  -20.5582  -26.2282   23.3589 H   0  0  0  0  0  0
  -21.6636  -26.7386   22.1264 H   0  0  0  0  0  0
  -19.6876  -25.6270   21.1224 H   0  0  0  0  0  0
  -19.6686  -27.3174   20.6697 H   0  0  0  0  0  0
  -17.4200  -26.6715   21.3971 H   0  0  0  0  0  0
  -18.0283  -26.0041   22.8965 H   0  0  0  0  0  0
  -19.7944  -30.7289   24.2212 H   0  0  0  0  0  0
  -17.5018  -31.6255   24.5156 H   0  0  0  0  0  0
  -15.5342  -30.2955   23.7697 H   0  0  0  0  0  0
  -15.8676  -28.0810   22.7064 H   0  0  0  0  0  0
  -24.5967  -30.6987   25.7819 H   0  0  0  0  0  0
  -24.8918  -32.2859   26.4833 H   0  0  0  0  0  0
  -25.8114  -30.8940   27.0255 H   0  0  0  0  0  0
  -26.2896  -29.6667   24.1258 H   0  0  0  0  0  0
  -27.4001  -29.7198   25.4757 H   0  0  0  0  0  0
  -27.8817  -30.4145   23.9465 H   0  0  0  0  0  0
  -27.2742  -33.3605   26.1987 H   0  0  0  0  0  0
  -28.3940  -32.6713   25.0285 H   0  0  0  0  0  0
  -28.0728  -31.8389   26.5428 H   0  0  0  0  0  0
  -28.2573  -38.0117   24.7568 H   0  0  0  0  0  0
  -28.1108  -36.2663   24.6187 H   0  0  0  0  0  0
  -27.2329  -37.1328   25.8862 H   0  0  0  0  0  0
  -20.9342  -29.8780   21.6957 H   0  0  0  0  0  0
  -26.0138  -38.2828   24.1476 H   0  0  0  0  0  0
  -31.3756  -21.0416   21.0734 H   0  0  0  0  0  0
  -32.4144  -16.9009   20.9410 H   0  0  0  0  0  0
  -28.2441  -18.0656   20.9074 H   0  0  0  0  0  0
  -33.6543  -20.3716   21.3159 H   0  0  0  0  0  0
  -33.9869  -19.0834   20.1615 H   0  0  0  0  0  0
  -33.9485  -18.7233   21.8850 H   0  0  0  0  0  0
  -26.2406  -22.5874   17.7418 H   0  0  0  0  0  0
  -26.0771  -21.9021   19.3439 H   0  0  0  0  0  0
  -27.5975  -21.7210   18.4402 H   0  0  0  0  0  0
  -26.4105  -22.7605   21.5855 H   0  0  0  0  0  0
  -26.4651  -24.5021   21.8488 H   0  0  0  0  0  0
  -27.5892  -23.4438   22.6878 H   0  0  0  0  0  0
  -29.5577  -24.8939   22.6980 H   0  0  0  0  0  0
  -28.1989  -26.0205   22.6165 H   0  0  0  0  0  0
  -29.7920  -26.5365   22.1205 H   0  0  0  0  0  0
  -30.9017  -24.5812   20.4776 H   0  0  0  0  0  0
  -30.5819  -26.1171   19.7103 H   0  0  0  0  0  0
  -30.0325  -24.6502   18.9443 H   0  0  0  0  0  0
  -28.2784  -20.9627   22.0706 H   0  0  0  0  0  0
  -27.7570  -20.6595   20.4577 H   0  0  0  0  0  0
  -26.3357  -24.2597   19.4582 H   0  0  0  0  0  0
  -27.7814  -24.2847   18.4768 H   0  0  0  0  0  0
  -29.6133  -22.4024   19.7068 H   0  0  0  0  0  0
  -29.8549  -22.7285   21.3945 H   0  0  0  0  0  0
  -28.9236  -15.5891   20.9934 H   0  0  0  0  0  0
  1 25  1  0  0  0
  1 30  2  0  0  0
  1 87  1  0  0  0
  2  3  1  0  0  0
  2 25  1  0  0  0
  2 88  1  0  0  0
  2 89  1  0  0  0
  3  4  1  0  0  0
  3 90  1  0  0  0
  3 91  1  0  0  0
  4  5  1  0  0  0
  4 92  1  0  0  0
  4 93  1  0  0  0
  5  6  1  0  0  0
  5 26  1  0  0  0
  5 94  1  0  0  0
  6 25  1  0  0  0
  6 95  1  0  0  0
  6 96  1  0  0  0
  7  8  2  0  0  0
  7 26  1  0  0  0
  7 29  1  0  0  0
  8  9  1  0  0  0
  8 22  1  0  0  0
  9 10  1  0  0  0
  9 27  2  0  0  0
 10 11  2  0  0  0
 10 15  1  0  0  0
 11 12  1  0  0  0
 11 97  1  0  0  0
 12 13  2  0  0  0
 12 98  1  0  0  0
 13 14  1  0  0  0
 13 31  1  0  0  0
 14 15  2  0  0  0
 14 99  1  0  0  0
 15100  1  0  0  0
 16 17  2  0  0  0
 16 21  1  0  0  0
 16 31  1  0  0  0
 17 18  1  0  0  0
 17101  1  0  0  0
 18 19  2  0  0  0
 18102  1  0  0  0
 19 20  1  0  0  0
 19 24  1  0  0  0
 20 21  2  0  0  0
 20103  1  0  0  0
 21 23  1  0  0  0
 22 28  1  0  0  0
 22 32  2  0  0  0
 26 27  1  0  0  0
 28104  1  0  0  0
 28105  1  0  0  0
 29106  1  0  0  0
 29107  1  0  0  0
 33 34  1  0  0  0
 33 66  1  0  0  0
 33 70  2  0  0  0
 34 36  1  0  0  0
 34 59  1  0  0  0
 34108  1  0  0  0
 35 44  2  0  0  0
 35 45  1  0  0  0
 35 68  1  0  0  0
 36 56  1  0  0  0
 36109  1  0  0  0
 37 39  1  0  0  0
 37 47  1  0  0  0
 37 66  1  0  0  0
 37110  1  0  0  0
 38 43  2  0  0  0
 38 46  1  0  0  0
 38 47  1  0  0  0
 39 64  1  0  0  0
 39 67  2  0  0  0
 40 52  1  0  0  0
 40 53  2  0  0  0
 40 58  1  0  0  0
 41111  1  0  0  0
 41112  1  0  0  0
 41113  1  0  0  0
 41 48  1  0  0  0
 42 43  1  0  0  0
 42 66  1  0  0  0
 42114  1  0  0  0
 42115  1  0  0  0
 43 44  1  0  0  0
 44116  1  0  0  0
 45 46  2  0  0  0
 45117  1  0  0  0
 46118  1  0  0  0
 47119  1  0  0  0
 47120  1  0  0  0
 48 56  1  0  0  0
 48 65  1  0  0  0
 48121  1  0  0  0
 49 50  1  0  0  0
 49 53  1  0  0  0
 49 64  1  0  0  0
 49122  1  0  0  0
 50 51  1  0  0  0
 50123  1  0  0  0
 50124  1  0  0  0
 51 52  1  0  0  0
 51125  1  0  0  0
 51126  1  0  0  0
 52127  1  0  0  0
 52128  1  0  0  0
 53 54  1  0  0  0
 54 55  2  0  0  0
 54129  1  0  0  0
 55 57  1  0  0  0
 55130  1  0  0  0
 56 69  2  0  0  0
 57 58  2  0  0  0
 57131  1  0  0  0
 58132  1  0  0  0
 59 60  1  0  0  0
 59 61  1  0  0  0
 59 62  1  0  0  0
 60133  1  0  0  0
 60134  1  0  0  0
 60135  1  0  0  0
 61136  1  0  0  0
 61137  1  0  0  0
 61138  1  0  0  0
 62139  1  0  0  0
 62140  1  0  0  0
 62141  1  0  0  0
 63 65  1  0  0  0
 63142  1  0  0  0
 63143  1  0  0  0
 63144  1  0  0  0
 64145  1  0  0  0
 65146  1  0  0  0
 68 86  1  0  0  0
 71 74  2  0  0  0
 71 75  1  0  0  0
 71147  1  0  0  0
 72 74  1  0  0  0
 72 76  2  0  0  0
 72148  1  0  0  0
 73 75  2  0  0  0
 73 76  1  0  0  0
 73149  1  0  0  0
 74 77  1  0  0  0
 75 82  1  0  0  0
 76 87  1  0  0  0
 77150  1  0  0  0
 77151  1  0  0  0
 77152  1  0  0  0
 78 83  1  0  0  0
 78153  1  0  0  0
 78154  1  0  0  0
 78155  1  0  0  0
 79156  1  0  0  0
 79157  1  0  0  0
 79158  1  0  0  0
 79 85  1  0  0  0
 80159  1  0  0  0
 80160  1  0  0  0
 80161  1  0  0  0
 80 86  1  0  0  0
 81 86  1  0  0  0
 81162  1  0  0  0
 81163  1  0  0  0
 81164  1  0  0  0
 82 84  1  0  0  0
 82165  1  0  0  0
 82166  1  0  0  0
 83 85  1  0  0  0
 83167  1  0  0  0
 83168  1  0  0  0
 84 85  1  0  0  0
 84169  1  0  0  0
 84170  1  0  0  0
 85 86  1  0  0  0
 87171  1  0  0  0
M  ISO  4   1 100  68 101  86 101  87 100
M  END
> <chiral flag>
0

> <version>
0

> <s_m_source_file>
/data/baiqing/PycharmProjects/Reinvent-master-3.2/result/LINK_invent/BTK/process_docking_weight1_custom_product_contain_oxygen_bond_distance_aromatic_linkinvent_7_9_3/rearranged_h_0142.sdf

> <i_m_source_file_index>
32

> <r_mmod_Potential_Energy-OPLS-2005>
245.551895141602

> <r_mmod_Stretch_Energy-OPLS-2005>
134.109344482422

> <r_mmod_Bend_Energy-OPLS-2005>
224.535125732422

> <r_mmod_Torsional_Energy-OPLS-2005>
276.627960205078

> <r_mmod_Improper_Torsional_Energy-OPLS-2005>
6.44209480285645

> <r_mmod_Van_der_Waal_Energy-OPLS-2005>
149.586944580078

> <r_mmod_Electrostatic_Energy-OPLS-2005>
-415.348541259766

> <r_mmod_Solvation_Energy-OPLS-2005>
-186.146102905273

> <b_mmod_Minimization_Converged-OPLS-2005>
0

> <r_mmod_RMS_Derivative-OPLS-2005>
5.40362405776978

$$$$
32
                    3D
 Structure written by MMmdl.
163172  0  0  1  0            999 V2000
  -30.6384  -14.6060   20.5028 C   0  0  0  0  0  0
  -30.4382  -12.3694   19.4474 C   0  0  0  0  0  0
  -29.5082  -12.4940   18.2200 C   0  0  0  0  0  0
  -28.0287  -12.3469   18.6304 C   0  0  0  0  0  0
  -27.6560  -13.2075   19.8668 C   0  0  2  0  0  0
  -28.7014  -13.0542   20.9945 C   0  0  0  0  0  0
  -25.2582  -13.8164   20.5708 C   0  0  0  0  0  0
  -24.1827  -13.0442   20.9184 C   0  0  0  0  0  0
  -24.6373  -11.6910   20.8726 C   0  0  0  0  0  0
  -23.9033  -10.4305   21.0394 C   0  0  0  0  0  0
  -24.3589   -9.4233   21.9184 C   0  0  0  0  0  0
  -23.6282   -8.2261   22.0748 C   0  0  0  0  0  0
  -22.4276   -8.0279   21.3536 C   0  0  0  0  0  0
  -21.9901   -9.0251   20.4634 C   0  0  0  0  0  0
  -22.7212  -10.2138   20.3041 C   0  0  0  0  0  0
  -21.6858   -6.0737   22.5276 C   0  0  0  0  0  0
  -21.4025   -6.5637   23.8211 C   0  0  0  0  0  0
  -21.3653   -5.6778   24.9166 C   0  0  0  0  0  0
  -21.6039   -4.3047   24.7216 C   0  0  0  0  0  0
  -21.8814   -3.8142   23.4335 C   0  0  0  0  0  0
  -21.9202   -4.6964   22.3395 C   0  0  0  0  0  0
  -22.7847  -13.5254   21.1838 C   0  0  0  0  0  0
  -22.1672   -4.2154   21.0971 F   0  0  0  0  0  0
  -21.5624   -3.4519   25.7723 F   0  0  0  0  0  0
  -30.0225  -13.3862   20.4323 N   0  0  0  0  0  0
  -26.2999  -12.9314   20.3334 N   0  0  0  0  0  0
  -25.9297  -11.6481   20.5730 N   0  0  0  0  0  0
  -22.0462  -12.8277   22.0389 N   0  0  0  0  0  0
  -25.4301  -15.1891   20.4203 N   0  0  0  0  0  0
  -31.7942  -14.7767   20.1025 O   0  0  0  0  0  0
  -21.6638   -6.8880   21.4239 O   0  0  0  0  0  0
  -22.3540  -14.5556   20.6668 O   0  0  0  0  0  0
  -24.6212  -31.8627   23.2052 C   0  0  0  0  0  0
  -25.9069  -32.4788   23.8371 C   0  0  1  0  0  0
  -27.2242  -27.3574   20.1180 C   0  0  0  0  0  0
  -25.5891  -33.8590   24.2284 N   0  0  0  0  0  0
  -23.4131  -30.4866   21.5476 C   0  0  2  0  0  0
  -24.8595  -28.9454   20.1135 C   0  0  0  0  0  0
  -22.7450  -29.4633   22.4960 C   0  0  0  0  0  0
  -18.0262  -28.1407   22.8489 C   0  0  0  0  0  0
  -24.1486  -36.7320   23.2640 C   0  0  0  0  0  0
  -25.9507  -30.8059   21.3711 C   0  0  0  0  0  0
  -26.0256  -29.4351   20.7163 C   0  0  0  0  0  0
  -27.2130  -28.6518   20.7097 C   0  0  0  0  0  0
  -26.0427  -26.9156   19.4829 C   0  0  0  0  0  0
  -24.8679  -27.6888   19.4880 C   0  0  0  0  0  0
  -23.6246  -29.8199   20.1629 C   0  0  0  0  0  0
  -25.4105  -36.3096   24.0329 C   0  0  1  0  0  0
  -20.5868  -28.3692   23.1305 C   0  0  2  0  0  0
  -20.6751  -26.9422   22.5424 C   0  0  0  0  0  0
  -19.5720  -26.6403   21.5224 C   0  0  0  0  0  0
  -18.1899  -26.7953   22.1631 C   0  0  0  0  0  0
  -19.1520  -28.8866   23.2886 C   0  0  0  0  0  0
  -18.9451  -30.1478   23.8891 C   0  0  0  0  0  0
  -17.6455  -30.6607   24.0576 C   0  0  0  0  0  0
  -25.9047  -34.9457   23.5111 C   0  0  0  0  0  0
  -16.5341  -29.9114   23.6352 C   0  0  0  0  0  0
  -16.7255  -28.6537   23.0358 C   0  0  0  0  0  0
  -26.4454  -31.6580   25.0732 C   0  0  0  0  0  0
  -25.3685  -31.3729   26.1466 C   0  0  0  0  0  0
  -27.0276  -30.2990   24.6185 C   0  0  0  0  0  0
  -27.6026  -32.4302   25.7494 C   0  0  0  0  0  0
  -27.5581  -37.1815   24.8451 C   0  0  0  0  0  0
  -21.4168  -29.3047   22.3712 N   0  0  0  0  0  0
  -26.4280  -37.3793   23.9414 N   0  0  0  0  0  0
  -24.6799  -31.0689   22.0974 N   0  0  0  0  0  0
  -23.4193  -28.8164   23.3013 O   0  0  0  0  0  0
  -28.3514  -26.5338   20.1473 O   0  0  0  0  0  0
  -26.5639  -34.8917   22.4694 O   0  0  0  0  0  0
  -23.5386  -32.1403   23.7397 O   0  0  0  0  0  0
  -29.2052  -18.9242   19.0709 C   0  0  0  0  0  0
  -30.3950  -18.0400   21.4267 C   0  0  0  0  0  0
  -29.6964  -19.9176   19.9556 C   0  0  0  0  0  0
  -29.2979  -17.5315   19.3357 C   0  0  0  0  0  0
  -29.9044  -17.0521   20.5298 C   0  0  0  0  0  0
  -30.3047  -19.4381   21.1441 C   0  0  0  0  0  0
  -28.2692  -21.9116   19.0826 C   0  0  0  0  0  0
  -28.9139  -22.5926   20.2627 C   0  0  1  0  0  0
  -29.6317  -21.4117   19.5240 C   0  0  1  0  0  0
  -28.7114  -16.5792   18.3089 C   0  0  0  0  0  0
  -28.0742  -25.1873   22.1373 C   0  0  0  0  0  0
  -29.2541  -24.1202   20.1241 C   0  0  0  0  0  0
  -30.8606  -21.7359   18.6802 C   0  0  0  0  0  0
  -28.1566  -25.1471   20.6018 C   0  0  2  0  0  0
  -29.8503  -15.6450   20.9010 N   0  0  0  0  0  0
  -30.8123  -20.3251   22.0330 F   0  0  0  0  0  0
  -30.9978  -20.8897   17.6586 F   0  0  0  0  0  0
  -31.9638  -21.7191   19.4281 F   0  0  0  0  0  0
  -31.4805  -12.4892   19.1442 H   0  0  0  0  0  0
  -30.3673  -11.3706   19.8812 H   0  0  0  0  0  0
  -29.7663  -11.7369   17.4781 H   0  0  0  0  0  0
  -29.6649  -13.4564   17.7304 H   0  0  0  0  0  0
  -27.8547  -11.2936   18.8525 H   0  0  0  0  0  0
  -27.3777  -12.5941   17.7902 H   0  0  0  0  0  0
  -27.6769  -14.2418   19.5358 H   0  0  0  0  0  0
  -28.7041  -12.0326   21.3756 H   0  0  0  0  0  0
  -28.4464  -13.6856   21.8472 H   0  0  0  0  0  0
  -25.2726   -9.5738   22.4764 H   0  0  0  0  0  0
  -24.0008   -7.4656   22.7466 H   0  0  0  0  0  0
  -21.0843   -8.8751   19.8938 H   0  0  0  0  0  0
  -22.3663  -10.9668   19.6143 H   0  0  0  0  0  0
  -21.2022   -7.6144   23.9719 H   0  0  0  0  0  0
  -21.1477   -6.0503   25.9070 H   0  0  0  0  0  0
  -22.0602   -2.7611   23.2814 H   0  0  0  0  0  0
  -22.4055  -11.9973   22.4860 H   0  0  0  0  0  0
  -21.1059  -13.1314   22.2515 H   0  0  0  0  0  0
  -24.6692  -15.8436   20.5657 H   0  0  0  0  0  0
  -26.2894  -15.6416   20.1392 H   0  0  0  0  0  0
  -26.7143  -32.5483   23.1137 H   0  0  0  0  0  0
  -24.9951  -33.9731   25.0366 H   0  0  0  0  0  0
  -22.7035  -31.3049   21.4078 H   0  0  0  0  0  0
  -23.3735  -35.9666   23.3281 H   0  0  0  0  0  0
  -24.3584  -36.8969   22.2062 H   0  0  0  0  0  0
  -23.7245  -37.6519   23.6674 H   0  0  0  0  0  0
  -26.0813  -31.5692   20.6017 H   0  0  0  0  0  0
  -26.8325  -30.8544   21.9986 H   0  0  0  0  0  0
  -28.1095  -29.0198   21.1878 H   0  0  0  0  0  0
  -26.0178  -25.9634   18.9741 H   0  0  0  0  0  0
  -23.9771  -27.3135   19.0030 H   0  0  0  0  0  0
  -23.7352  -30.5948   19.4032 H   0  0  0  0  0  0
  -22.7467  -29.2435   19.8655 H   0  0  0  0  0  0
  -25.1279  -36.1951   25.0819 H   0  0  0  0  0  0
  -20.9956  -28.3266   24.1428 H   0  0  0  0  0  0
  -20.5679  -26.2293   23.3615 H   0  0  0  0  0  0
  -21.6616  -26.7475   22.1201 H   0  0  0  0  0  0
  -19.6874  -25.6313   21.1254 H   0  0  0  0  0  0
  -19.6660  -27.3214   20.6750 H   0  0  0  0  0  0
  -17.4180  -26.6726   21.4020 H   0  0  0  0  0  0
  -18.0266  -26.0096   22.9018 H   0  0  0  0  0  0
  -19.7928  -30.7301   24.2241 H   0  0  0  0  0  0
  -17.5017  -31.6285   24.5186 H   0  0  0  0  0  0
  -15.5343  -30.3024   23.7686 H   0  0  0  0  0  0
  -15.8648  -28.0878   22.7063 H   0  0  0  0  0  0
  -24.5837  -30.7098   25.7805 H   0  0  0  0  0  0
  -24.8896  -32.2897   26.4911 H   0  0  0  0  0  0
  -25.8002  -30.8895   27.0238 H   0  0  0  0  0  0
  -26.2851  -29.6770   24.1174 H   0  0  0  0  0  0
  -27.3903  -29.7216   25.4702 H   0  0  0  0  0  0
  -27.8751  -30.4248   23.9443 H   0  0  0  0  0  0
  -27.2638  -33.3585   26.2105 H   0  0  0  0  0  0
  -28.3810  -32.6891   25.0304 H   0  0  0  0  0  0
  -28.0716  -31.8407   26.5383 H   0  0  0  0  0  0
  -28.2583  -38.0131   24.7520 H   0  0  0  0  0  0
  -28.1089  -36.2660   24.6227 H   0  0  0  0  0  0
  -27.2314  -37.1412   25.8860 H   0  0  0  0  0  0
  -20.9332  -29.8790   21.6953 H   0  0  0  0  0  0
  -26.0158  -38.2867   24.1420 H   0  0  0  0  0  0
  -28.7496  -19.2479   18.1456 H   0  0  0  0  0  0
  -30.8392  -17.7342   22.3624 H   0  0  0  0  0  0
  -28.2241  -22.4532   18.1402 H   0  0  0  0  0  0
  -27.3945  -21.3003   19.2978 H   0  0  0  0  0  0
  -28.5445  -22.3273   21.2509 H   0  0  0  0  0  0
  -28.6660  -17.0442   17.3235 H   0  0  0  0  0  0
  -27.6973  -16.2996   18.5907 H   0  0  0  0  0  0
  -29.3125  -15.6780   18.2099 H   0  0  0  0  0  0
  -27.8729  -24.2010   22.5554 H   0  0  0  0  0  0
  -27.2795  -25.8516   22.4786 H   0  0  0  0  0  0
  -29.0080  -25.5462   22.5704 H   0  0  0  0  0  0
  -29.4565  -24.3324   19.0746 H   0  0  0  0  0  0
  -30.1875  -24.3157   20.6515 H   0  0  0  0  0  0
  -30.7899  -22.7314   18.2424 H   0  0  0  0  0  0
  -27.2101  -24.7528   20.2377 H   0  0  0  0  0  0
  -28.9538  -15.3409   21.2492 H   0  0  0  0  0  0
  1 25  1  0  0  0
  1 30  2  0  0  0
  1 85  1  0  0  0
  2  3  1  0  0  0
  2 25  1  0  0  0
  2 89  1  0  0  0
  2 90  1  0  0  0
  3  4  1  0  0  0
  3 91  1  0  0  0
  3 92  1  0  0  0
  4  5  1  0  0  0
  4 93  1  0  0  0
  4 94  1  0  0  0
  5  6  1  0  0  0
  5 26  1  0  0  0
  5 95  1  0  0  0
  6 25  1  0  0  0
  6 96  1  0  0  0
  6 97  1  0  0  0
  7  8  2  0  0  0
  7 26  1  0  0  0
  7 29  1  0  0  0
  8  9  1  0  0  0
  8 22  1  0  0  0
  9 10  1  0  0  0
  9 27  2  0  0  0
 10 11  2  0  0  0
 10 15  1  0  0  0
 11 12  1  0  0  0
 11 98  1  0  0  0
 12 13  2  0  0  0
 12 99  1  0  0  0
 13 14  1  0  0  0
 13 31  1  0  0  0
 14 15  2  0  0  0
 14100  1  0  0  0
 15101  1  0  0  0
 16 17  2  0  0  0
 16 21  1  0  0  0
 16 31  1  0  0  0
 17 18  1  0  0  0
 17102  1  0  0  0
 18 19  2  0  0  0
 18103  1  0  0  0
 19 20  1  0  0  0
 19 24  1  0  0  0
 20 21  2  0  0  0
 20104  1  0  0  0
 21 23  1  0  0  0
 22 28  1  0  0  0
 22 32  2  0  0  0
 26 27  1  0  0  0
 28105  1  0  0  0
 28106  1  0  0  0
 29107  1  0  0  0
 29108  1  0  0  0
 33 34  1  0  0  0
 33 66  1  0  0  0
 33 70  2  0  0  0
 34 36  1  0  0  0
 34 59  1  0  0  0
 34109  1  0  0  0
 35 44  2  0  0  0
 35 45  1  0  0  0
 35 68  1  0  0  0
 36 56  1  0  0  0
 36110  1  0  0  0
 37 39  1  0  0  0
 37 47  1  0  0  0
 37 66  1  0  0  0
 37111  1  0  0  0
 38 43  2  0  0  0
 38 46  1  0  0  0
 38 47  1  0  0  0
 39 64  1  0  0  0
 39 67  2  0  0  0
 40 52  1  0  0  0
 40 53  2  0  0  0
 40 58  1  0  0  0
 41112  1  0  0  0
 41113  1  0  0  0
 41114  1  0  0  0
 41 48  1  0  0  0
 42 43  1  0  0  0
 42 66  1  0  0  0
 42115  1  0  0  0
 42116  1  0  0  0
 43 44  1  0  0  0
 44117  1  0  0  0
 45 46  2  0  0  0
 45118  1  0  0  0
 46119  1  0  0  0
 47120  1  0  0  0
 47121  1  0  0  0
 48 56  1  0  0  0
 48 65  1  0  0  0
 48122  1  0  0  0
 49 50  1  0  0  0
 49 53  1  0  0  0
 49 64  1  0  0  0
 49123  1  0  0  0
 50 51  1  0  0  0
 50124  1  0  0  0
 50125  1  0  0  0
 51 52  1  0  0  0
 51126  1  0  0  0
 51127  1  0  0  0
 52128  1  0  0  0
 52129  1  0  0  0
 53 54  1  0  0  0
 54 55  2  0  0  0
 54130  1  0  0  0
 55 57  1  0  0  0
 55131  1  0  0  0
 56 69  2  0  0  0
 57 58  2  0  0  0
 57132  1  0  0  0
 58133  1  0  0  0
 59 60  1  0  0  0
 59 61  1  0  0  0
 59 62  1  0  0  0
 60134  1  0  0  0
 60135  1  0  0  0
 60136  1  0  0  0
 61137  1  0  0  0
 61138  1  0  0  0
 61139  1  0  0  0
 62140  1  0  0  0
 62141  1  0  0  0
 62142  1  0  0  0
 63 65  1  0  0  0
 63143  1  0  0  0
 63144  1  0  0  0
 63145  1  0  0  0
 64146  1  0  0  0
 65147  1  0  0  0
 68 84  1  0  0  0
 71 73  2  0  0  0
 71 74  1  0  0  0
 71148  1  0  0  0
 72 75  1  0  0  0
 72 76  2  0  0  0
 72149  1  0  0  0
 73 76  1  0  0  0
 73 79  1  0  0  0
 74 75  2  0  0  0
 74 80  1  0  0  0
 75 85  1  0  0  0
 76 86  1  0  0  0
 77 78  1  0  0  0
 77 79  1  0  0  0
 77150  1  0  0  0
 77151  1  0  0  0
 78 79  1  0  0  0
 78 82  1  0  0  0
 78152  1  0  0  0
 79 83  1  0  0  0
 80153  1  0  0  0
 80154  1  0  0  0
 80155  1  0  0  0
 81156  1  0  0  0
 81157  1  0  0  0
 81158  1  0  0  0
 81 84  1  0  0  0
 82 84  1  0  0  0
 82159  1  0  0  0
 82160  1  0  0  0
 83 87  1  0  0  0
 83 88  1  0  0  0
 83161  1  0  0  0
 84162  1  0  0  0
 85163  1  0  0  0
M  ISO  4   1 100  68 101  84 101  85 100
M  END
> <chiral flag>
0

> <version>
0

> <s_m_source_file>
/data/baiqing/PycharmProjects/Reinvent-master-3.2/result/LINK_invent/BTK/process_docking_weight1_custom_product_contain_oxygen_bond_distance_aromatic_linkinvent_7_9_3/rearranged_h_0142.sdf

> <i_m_source_file_index>
33

> <r_mmod_Potential_Energy-OPLS-2005>
112.872657775879

> <r_mmod_Stretch_Energy-OPLS-2005>
67.2619552612305

> <r_mmod_Bend_Energy-OPLS-2005>
119.27269744873

> <r_mmod_Torsional_Energy-OPLS-2005>
322.650939941406

> <r_mmod_Improper_Torsional_Energy-OPLS-2005>
5.4506516456604

> <r_mmod_Van_der_Waal_Energy-OPLS-2005>
134.611282348633

> <r_mmod_Electrostatic_Energy-OPLS-2005>
-371.836975097656

> <r_mmod_Solvation_Energy-OPLS-2005>
-200.791549682617

> <b_mmod_Minimization_Converged-OPLS-2005>
0

> <r_mmod_RMS_Derivative-OPLS-2005>
2.0296847820282

$$$$
33
                    3D
 Structure written by MMmdl.
169178  0  0  1  0            999 V2000
  -30.5948  -14.6977   20.4699 C   0  0  0  0  0  0
  -30.4455  -12.4255   19.4554 C   0  0  0  0  0  0
  -29.5113  -12.5087   18.2262 C   0  0  0  0  0  0
  -28.0349  -12.3352   18.6402 C   0  0  0  0  0  0
  -27.6483  -13.2150   19.8582 C   0  0  2  0  0  0
  -28.6973  -13.1036   20.9880 C   0  0  0  0  0  0
  -25.2526  -13.8112   20.5717 C   0  0  0  0  0  0
  -24.1800  -13.0388   20.9206 C   0  0  0  0  0  0
  -24.6383  -11.6872   20.8744 C   0  0  0  0  0  0
  -23.9057  -10.4263   21.0408 C   0  0  0  0  0  0
  -24.3609   -9.4183   21.9187 C   0  0  0  0  0  0
  -23.6280   -8.2225   22.0756 C   0  0  0  0  0  0
  -22.4262   -8.0271   21.3547 C   0  0  0  0  0  0
  -21.9896   -9.0244   20.4650 C   0  0  0  0  0  0
  -22.7230  -10.2119   20.3055 C   0  0  0  0  0  0
  -21.6848   -6.0731   22.5282 C   0  0  0  0  0  0
  -21.4014   -6.5634   23.8215 C   0  0  0  0  0  0
  -21.3656   -5.6789   24.9177 C   0  0  0  0  0  0
  -21.6040   -4.3052   24.7229 C   0  0  0  0  0  0
  -21.8818   -3.8143   23.4351 C   0  0  0  0  0  0
  -21.9192   -4.6960   22.3408 C   0  0  0  0  0  0
  -22.7827  -13.5197   21.1860 C   0  0  0  0  0  0
  -22.1661   -4.2145   21.0987 F   0  0  0  0  0  0
  -21.5627   -3.4537   25.7744 F   0  0  0  0  0  0
  -30.0050  -13.4588   20.4141 N   0  0  0  0  0  0
  -26.2964  -12.9311   20.3311 N   0  0  0  0  0  0
  -25.9312  -11.6470   20.5747 N   0  0  0  0  0  0
  -22.0462  -12.8210   22.0426 N   0  0  0  0  0  0
  -25.4182  -15.1827   20.4180 N   0  0  0  0  0  0
  -31.7778  -14.8618   20.1596 O   0  0  0  0  0  0
  -21.6626   -6.8868   21.4240 O   0  0  0  0  0  0
  -22.3528  -14.5510   20.6706 O   0  0  0  0  0  0
  -24.6287  -31.8570   23.1995 C   0  0  0  0  0  0
  -25.9125  -32.4759   23.8334 C   0  0  1  0  0  0
  -27.2280  -27.2928   20.1193 C   0  0  0  0  0  0
  -25.5923  -33.8558   24.2257 N   0  0  0  0  0  0
  -23.4234  -30.4796   21.5434 C   0  0  2  0  0  0
  -24.8706  -28.9306   20.1116 C   0  0  0  0  0  0
  -22.7488  -29.4606   22.4928 C   0  0  0  0  0  0
  -18.0285  -28.1380   22.8488 C   0  0  0  0  0  0
  -24.1486  -36.7293   23.2639 C   0  0  0  0  0  0
  -25.9668  -30.7803   21.3732 C   0  0  0  0  0  0
  -26.0416  -29.4051   20.7157 C   0  0  0  0  0  0
  -27.2226  -28.5996   20.7070 C   0  0  0  0  0  0
  -26.0290  -26.8768   19.4942 C   0  0  0  0  0  0
  -24.8681  -27.6729   19.4915 C   0  0  0  0  0  0
  -23.6393  -29.8131   20.1596 C   0  0  0  0  0  0
  -25.4110  -36.3069   24.0324 C   0  0  1  0  0  0
  -20.5889  -28.3686   23.1277 C   0  0  2  0  0  0
  -20.6770  -26.9406   22.5410 C   0  0  0  0  0  0
  -19.5744  -26.6379   21.5211 C   0  0  0  0  0  0
  -18.1926  -26.7922   22.1627 C   0  0  0  0  0  0
  -19.1540  -28.8849   23.2877 C   0  0  0  0  0  0
  -18.9463  -30.1452   23.8895 C   0  0  0  0  0  0
  -17.6463  -30.6584   24.0559 C   0  0  0  0  0  0
  -25.9051  -34.9441   23.5095 C   0  0  0  0  0  0
  -16.5353  -29.9085   23.6325 C   0  0  0  0  0  0
  -16.7273  -28.6498   23.0354 C   0  0  0  0  0  0
  -26.4500  -31.6574   25.0715 C   0  0  0  0  0  0
  -25.3726  -31.3734   26.1440 C   0  0  0  0  0  0
  -27.0344  -30.2990   24.6188 C   0  0  0  0  0  0
  -27.6045  -32.4319   25.7498 C   0  0  0  0  0  0
  -27.5574  -37.1799   24.8462 C   0  0  0  0  0  0
  -21.4197  -29.3040   22.3675 N   0  0  0  0  0  0
  -26.4285  -37.3768   23.9407 N   0  0  0  0  0  0
  -24.6920  -31.0562   22.0956 N   0  0  0  0  0  0
  -23.4202  -28.8147   23.3016 O   0  0  0  0  0  0
  -28.3448  -26.4314   20.1683 O   0  0  0  0  0  0
  -26.5630  -34.8917   22.4669 O   0  0  0  0  0  0
  -23.5445  -32.1379   23.7308 O   0  0  0  0  0  0
  -29.0539  -19.4033   19.6498 C   0  0  0  0  0  0
  -30.8357  -17.9912   21.1832 C   0  0  0  0  0  0
  -28.9653  -17.9786   19.7017 C   0  0  0  0  0  0
  -29.8815  -17.2115   20.4836 C   0  0  0  0  0  0
  -30.0546  -20.1030   20.3638 C   0  0  0  0  0  0
  -29.7019  -23.5508   21.6618 C   0  0  0  0  0  0
  -30.6748  -22.3672   21.4985 C   0  0  0  0  0  0
  -29.3421  -23.9272   20.2365 C   0  0  2  0  0  0
  -30.3817  -21.6649   20.1363 C   0  0  1  0  0  0
  -27.8876  -17.3021   18.8782 C   0  0  0  0  0  0
  -31.0818  -21.2059   17.6939 C   0  0  0  0  0  0
  -32.8351  -21.0049   19.4511 C   0  0  0  0  0  0
  -32.0458  -23.2214   18.7336 C   0  0  0  0  0  0
  -28.1327  -24.9593   20.0187 C   0  0  0  0  0  0
  -31.5579  -21.7855   19.0469 C   0  0  0  0  0  0
  -30.9060  -19.3592   21.1371 N   0  0  0  0  0  0
  -29.7332  -15.7544   20.6536 N   0  0  0  0  0  0
  -29.2708  -22.5490   19.6951 O   0  0  0  0  0  0
  -31.4844  -12.5662   19.1524 H   0  0  0  0  0  0
  -30.3977  -11.4366   19.9136 H   0  0  0  0  0  0
  -29.7851  -11.7512   17.4910 H   0  0  0  0  0  0
  -29.6414  -13.4732   17.7324 H   0  0  0  0  0  0
  -27.8814  -11.2833   18.8832 H   0  0  0  0  0  0
  -27.3785  -12.5512   17.7960 H   0  0  0  0  0  0
  -27.6511  -14.2416   19.4974 H   0  0  0  0  0  0
  -28.7230  -12.0902   21.3918 H   0  0  0  0  0  0
  -28.4389  -13.7536   21.8260 H   0  0  0  0  0  0
  -25.2757   -9.5660   22.4759 H   0  0  0  0  0  0
  -23.9994   -7.4609   22.7469 H   0  0  0  0  0  0
  -21.0830   -8.8761   19.8954 H   0  0  0  0  0  0
  -22.3692  -10.9658   19.6163 H   0  0  0  0  0  0
  -21.2006   -7.6144   23.9719 H   0  0  0  0  0  0
  -21.1476   -6.0520   25.9080 H   0  0  0  0  0  0
  -22.0600   -2.7608   23.2854 H   0  0  0  0  0  0
  -22.4074  -11.9878   22.4827 H   0  0  0  0  0  0
  -21.1083  -13.1247   22.2617 H   0  0  0  0  0  0
  -24.6441  -15.8282   20.5284 H   0  0  0  0  0  0
  -26.2599  -15.6271   20.0829 H   0  0  0  0  0  0
  -26.7192  -32.5421   23.1079 H   0  0  0  0  0  0
  -25.0039  -33.9694   25.0380 H   0  0  0  0  0  0
  -22.7185  -31.3009   21.3983 H   0  0  0  0  0  0
  -23.3737  -35.9637   23.3301 H   0  0  0  0  0  0
  -24.3575  -36.8919   22.2054 H   0  0  0  0  0  0
  -23.7255  -37.6501   23.6668 H   0  0  0  0  0  0
  -26.0995  -31.5417   20.6036 H   0  0  0  0  0  0
  -26.8466  -30.8304   22.0031 H   0  0  0  0  0  0
  -28.1205  -28.9612   21.1887 H   0  0  0  0  0  0
  -25.9544  -25.9165   19.0077 H   0  0  0  0  0  0
  -23.9710  -27.3022   19.0148 H   0  0  0  0  0  0
  -23.7599  -30.5884   19.4020 H   0  0  0  0  0  0
  -22.7586  -29.2435   19.8570 H   0  0  0  0  0  0
  -25.1290  -36.1914   25.0815 H   0  0  0  0  0  0
  -20.9976  -28.3257   24.1399 H   0  0  0  0  0  0
  -20.5656  -26.2298   23.3613 H   0  0  0  0  0  0
  -21.6640  -26.7425   22.1212 H   0  0  0  0  0  0
  -19.6905  -25.6290   21.1241 H   0  0  0  0  0  0
  -19.6677  -27.3188   20.6740 H   0  0  0  0  0  0
  -17.4194  -26.6664   21.4033 H   0  0  0  0  0  0
  -18.0331  -26.0066   22.9025 H   0  0  0  0  0  0
  -19.7941  -30.7265   24.2264 H   0  0  0  0  0  0
  -17.5020  -31.6265   24.5162 H   0  0  0  0  0  0
  -15.5355  -30.2988   23.7647 H   0  0  0  0  0  0
  -15.8673  -28.0815   22.7075 H   0  0  0  0  0  0
  -24.5897  -30.7082   25.7782 H   0  0  0  0  0  0
  -24.8923  -32.2911   26.4844 H   0  0  0  0  0  0
  -25.8045  -30.8932   27.0228 H   0  0  0  0  0  0
  -26.2927  -29.6740   24.1198 H   0  0  0  0  0  0
  -27.4015  -29.7247   25.4705 H   0  0  0  0  0  0
  -27.8808  -30.4262   23.9433 H   0  0  0  0  0  0
  -27.2636  -33.3619   26.2062 H   0  0  0  0  0  0
  -28.3870  -32.6880   25.0341 H   0  0  0  0  0  0
  -28.0696  -31.8453   26.5432 H   0  0  0  0  0  0
  -28.2587  -38.0099   24.7501 H   0  0  0  0  0  0
  -28.1073  -36.2630   24.6288 H   0  0  0  0  0  0
  -27.2296  -37.1452   25.8865 H   0  0  0  0  0  0
  -20.9376  -29.8773   21.6893 H   0  0  0  0  0  0
  -26.0160  -38.2841   24.1406 H   0  0  0  0  0  0
  -28.3869  -19.9673   19.0119 H   0  0  0  0  0  0
  -31.5503  -17.5099   21.8342 H   0  0  0  0  0  0
  -30.1371  -24.3824   22.2167 H   0  0  0  0  0  0
  -28.8070  -23.2262   22.1943 H   0  0  0  0  0  0
  -30.5620  -21.6884   22.3438 H   0  0  0  0  0  0
  -31.7041  -22.7191   21.5377 H   0  0  0  0  0  0
  -30.1925  -24.4539   19.8259 H   0  0  0  0  0  0
  -27.6485  -17.8932   17.9936 H   0  0  0  0  0  0
  -26.9790  -17.2048   19.4683 H   0  0  0  0  0  0
  -28.1986  -16.3172   18.5316 H   0  0  0  0  0  0
  -30.8414  -20.1455   17.7579 H   0  0  0  0  0  0
  -31.8481  -21.3009   16.9236 H   0  0  0  0  0  0
  -30.1915  -21.7209   17.3316 H   0  0  0  0  0  0
  -32.6908  -19.9262   19.4159 H   0  0  0  0  0  0
  -33.1712  -21.2645   20.4549 H   0  0  0  0  0  0
  -33.6660  -21.2034   18.7733 H   0  0  0  0  0  0
  -31.2980  -23.7948   18.1868 H   0  0  0  0  0  0
  -32.9190  -23.2122   18.0800 H   0  0  0  0  0  0
  -32.3391  -23.7713   19.6275 H   0  0  0  0  0  0
  -27.2968  -24.6515   20.6486 H   0  0  0  0  0  0
  -27.8105  -24.8027   18.9893 H   0  0  0  0  0  0
  -28.7838  -15.4442   20.7885 H   0  0  0  0  0  0
  1 25  1  0  0  0
  1 30  2  0  0  0
  1 87  1  0  0  0
  2  3  1  0  0  0
  2 25  1  0  0  0
  2 89  1  0  0  0
  2 90  1  0  0  0
  3  4  1  0  0  0
  3 91  1  0  0  0
  3 92  1  0  0  0
  4  5  1  0  0  0
  4 93  1  0  0  0
  4 94  1  0  0  0
  5  6  1  0  0  0
  5 26  1  0  0  0
  5 95  1  0  0  0
  6 25  1  0  0  0
  6 96  1  0  0  0
  6 97  1  0  0  0
  7  8  2  0  0  0
  7 26  1  0  0  0
  7 29  1  0  0  0
  8  9  1  0  0  0
  8 22  1  0  0  0
  9 10  1  0  0  0
  9 27  2  0  0  0
 10 11  2  0  0  0
 10 15  1  0  0  0
 11 12  1  0  0  0
 11 98  1  0  0  0
 12 13  2  0  0  0
 12 99  1  0  0  0
 13 14  1  0  0  0
 13 31  1  0  0  0
 14 15  2  0  0  0
 14100  1  0  0  0
 15101  1  0  0  0
 16 17  2  0  0  0
 16 21  1  0  0  0
 16 31  1  0  0  0
 17 18  1  0  0  0
 17102  1  0  0  0
 18 19  2  0  0  0
 18103  1  0  0  0
 19 20  1  0  0  0
 19 24  1  0  0  0
 20 21  2  0  0  0
 20104  1  0  0  0
 21 23  1  0  0  0
 22 28  1  0  0  0
 22 32  2  0  0  0
 26 27  1  0  0  0
 28105  1  0  0  0
 28106  1  0  0  0
 29107  1  0  0  0
 29108  1  0  0  0
 33 34  1  0  0  0
 33 66  1  0  0  0
 33 70  2  0  0  0
 34 36  1  0  0  0
 34 59  1  0  0  0
 34109  1  0  0  0
 35 44  2  0  0  0
 35 45  1  0  0  0
 35 68  1  0  0  0
 36 56  1  0  0  0
 36110  1  0  0  0
 37 39  1  0  0  0
 37 47  1  0  0  0
 37 66  1  0  0  0
 37111  1  0  0  0
 38 43  2  0  0  0
 38 46  1  0  0  0
 38 47  1  0  0  0
 39 64  1  0  0  0
 39 67  2  0  0  0
 40 52  1  0  0  0
 40 53  2  0  0  0
 40 58  1  0  0  0
 41112  1  0  0  0
 41113  1  0  0  0
 41114  1  0  0  0
 41 48  1  0  0  0
 42 43  1  0  0  0
 42 66  1  0  0  0
 42115  1  0  0  0
 42116  1  0  0  0
 43 44  1  0  0  0
 44117  1  0  0  0
 45 46  2  0  0  0
 45118  1  0  0  0
 46119  1  0  0  0
 47120  1  0  0  0
 47121  1  0  0  0
 48 56  1  0  0  0
 48 65  1  0  0  0
 48122  1  0  0  0
 49 50  1  0  0  0
 49 53  1  0  0  0
 49 64  1  0  0  0
 49123  1  0  0  0
 50 51  1  0  0  0
 50124  1  0  0  0
 50125  1  0  0  0
 51 52  1  0  0  0
 51126  1  0  0  0
 51127  1  0  0  0
 52128  1  0  0  0
 52129  1  0  0  0
 53 54  1  0  0  0
 54 55  2  0  0  0
 54130  1  0  0  0
 55 57  1  0  0  0
 55131  1  0  0  0
 56 69  2  0  0  0
 57 58  2  0  0  0
 57132  1  0  0  0
 58133  1  0  0  0
 59 60  1  0  0  0
 59 61  1  0  0  0
 59 62  1  0  0  0
 60134  1  0  0  0
 60135  1  0  0  0
 60136  1  0  0  0
 61137  1  0  0  0
 61138  1  0  0  0
 61139  1  0  0  0
 62140  1  0  0  0
 62141  1  0  0  0
 62142  1  0  0  0
 63 65  1  0  0  0
 63143  1  0  0  0
 63144  1  0  0  0
 63145  1  0  0  0
 64146  1  0  0  0
 65147  1  0  0  0
 68 84  1  0  0  0
 71 73  2  0  0  0
 71 75  1  0  0  0
 71148  1  0  0  0
 72 74  2  0  0  0
 72 86  1  0  0  0
 72149  1  0  0  0
 73 74  1  0  0  0
 73 80  1  0  0  0
 74 87  1  0  0  0
 75 86  2  0  0  0
 75 79  1  0  0  0
 76 77  1  0  0  0
 76 78  1  0  0  0
 76150  1  0  0  0
 76151  1  0  0  0
 77 79  1  0  0  0
 77152  1  0  0  0
 77153  1  0  0  0
 78 84  1  0  0  0
 78 88  1  0  0  0
 78154  1  0  0  0
 79 85  1  0  0  0
 79 88  1  0  0  0
 80155  1  0  0  0
 80156  1  0  0  0
 80157  1  0  0  0
 81158  1  0  0  0
 81159  1  0  0  0
 81160  1  0  0  0
 81 85  1  0  0  0
 82 85  1  0  0  0
 82161  1  0  0  0
 82162  1  0  0  0
 82163  1  0  0  0
 83 85  1  0  0  0
 83164  1  0  0  0
 83165  1  0  0  0
 83166  1  0  0  0
 84167  1  0  0  0
 84168  1  0  0  0
 87169  1  0  0  0
M  ISO  4   1 100  68 101  84 101  87 100
M  END
> <chiral flag>
0

> <version>
0

> <s_m_source_file>
/data/baiqing/PycharmProjects/Reinvent-master-3.2/result/LINK_invent/BTK/process_docking_weight1_custom_product_contain_oxygen_bond_distance_aromatic_linkinvent_7_9_3/rearranged_h_0142.sdf

> <i_m_source_file_index>
34

> <r_mmod_Potential_Energy-OPLS-2005>
115.689346313477

> <r_mmod_Stretch_Energy-OPLS-2005>
113.54906463623

> <r_mmod_Bend_Energy-OPLS-2005>
186.769012451172

> <r_mmod_Torsional_Energy-OPLS-2005>
288.351776123047

> <r_mmod_Improper_Torsional_Energy-OPLS-2005>
7.31879806518555

> <r_mmod_Van_der_Waal_Energy-OPLS-2005>
153.153045654297

> <r_mmod_Electrostatic_Energy-OPLS-2005>
-489.794647216797

> <r_mmod_Solvation_Energy-OPLS-2005>
-210.047393798828

> <b_mmod_Minimization_Converged-OPLS-2005>
0

> <r_mmod_RMS_Derivative-OPLS-2005>
0.920926570892334

$$$$
34
                    3D
 Structure written by MMmdl.
161170  0  0  1  0            999 V2000
  -30.6899  -14.4553   20.6042 C   0  0  0  0  0  0
  -30.4344  -12.3046   19.4150 C   0  0  0  0  0  0
  -29.5015  -12.5195   18.2045 C   0  0  0  0  0  0
  -28.0205  -12.3803   18.6124 C   0  0  0  0  0  0
  -27.6700  -13.2011   19.8818 C   0  0  2  0  0  0
  -28.7085  -12.9417   20.9962 C   0  0  0  0  0  0
  -25.2635  -13.8148   20.5676 C   0  0  0  0  0  0
  -24.1863  -13.0437   20.9152 C   0  0  0  0  0  0
  -24.6397  -11.6895   20.8705 C   0  0  0  0  0  0
  -23.9054  -10.4292   21.0392 C   0  0  0  0  0  0
  -24.3605   -9.4210   21.9175 C   0  0  0  0  0  0
  -23.6285   -8.2246   22.0751 C   0  0  0  0  0  0
  -22.4267   -8.0280   21.3545 C   0  0  0  0  0  0
  -21.9899   -9.0249   20.4649 C   0  0  0  0  0  0
  -22.7220  -10.2129   20.3049 C   0  0  0  0  0  0
  -21.6850   -6.0735   22.5280 C   0  0  0  0  0  0
  -21.4011   -6.5638   23.8214 C   0  0  0  0  0  0
  -21.3660   -5.6789   24.9176 C   0  0  0  0  0  0
  -21.6046   -4.3053   24.7222 C   0  0  0  0  0  0
  -21.8819   -3.8144   23.4343 C   0  0  0  0  0  0
  -21.9194   -4.6963   22.3402 C   0  0  0  0  0  0
  -22.7890  -13.5254   21.1821 C   0  0  0  0  0  0
  -22.1669   -4.2150   21.0980 F   0  0  0  0  0  0
  -21.5626   -3.4534   25.7733 F   0  0  0  0  0  0
  -30.0475  -13.2627   20.4618 N   0  0  0  0  0  0
  -26.3069  -12.9306   20.3370 N   0  0  0  0  0  0
  -25.9325  -11.6469   20.5728 N   0  0  0  0  0  0
  -22.0517  -12.8260   22.0380 N   0  0  0  0  0  0
  -25.4382  -15.1867   20.4122 N   0  0  0  0  0  0
  -31.7764  -14.7018   20.0709 O   0  0  0  0  0  0
  -21.6635   -6.8872   21.4241 O   0  0  0  0  0  0
  -22.3584  -14.5561   20.6668 O   0  0  0  0  0  0
  -24.6141  -31.8675   23.2090 C   0  0  0  0  0  0
  -25.9033  -32.4824   23.8394 C   0  0  1  0  0  0
  -27.2430  -27.4338   20.0926 C   0  0  0  0  0  0
  -25.5882  -33.8620   24.2323 N   0  0  0  0  0  0
  -23.4025  -30.4900   21.5500 C   0  0  2  0  0  0
  -24.8495  -28.9526   20.1162 C   0  0  0  0  0  0
  -22.7401  -29.4660   22.4997 C   0  0  0  0  0  0
  -18.0266  -28.1383   22.8506 C   0  0  0  0  0  0
  -24.1481  -36.7312   23.2638 C   0  0  0  0  0  0
  -25.9313  -30.8320   21.3626 C   0  0  0  0  0  0
  -26.0087  -29.4662   20.7096 C   0  0  0  0  0  0
  -27.2053  -28.7147   20.6920 C   0  0  0  0  0  0
  -26.0608  -26.9299   19.5014 C   0  0  0  0  0  0
  -24.8708  -27.6841   19.5108 C   0  0  0  0  0  0
  -23.6104  -29.8189   20.1655 C   0  0  0  0  0  0
  -25.4102  -36.3115   24.0341 C   0  0  1  0  0  0
  -20.5857  -28.3665   23.1330 C   0  0  2  0  0  0
  -20.6753  -26.9402   22.5425 C   0  0  0  0  0  0
  -19.5731  -26.6395   21.5218 C   0  0  0  0  0  0
  -18.1911  -26.7932   22.1632 C   0  0  0  0  0  0
  -19.1516  -28.8839   23.2917 C   0  0  0  0  0  0
  -18.9446  -30.1447   23.8926 C   0  0  0  0  0  0
  -17.6450  -30.6594   24.0570 C   0  0  0  0  0  0
  -25.9031  -34.9478   23.5134 C   0  0  0  0  0  0
  -16.5340  -29.9100   23.6326 C   0  0  0  0  0  0
  -16.7259  -28.6510   23.0362 C   0  0  0  0  0  0
  -26.4454  -31.6615   25.0732 C   0  0  0  0  0  0
  -25.3720  -31.3752   26.1492 C   0  0  0  0  0  0
  -27.0264  -30.3045   24.6125 C   0  0  0  0  0  0
  -27.6045  -32.4333   25.7477 C   0  0  0  0  0  0
  -27.5585  -37.1802   24.8458 C   0  0  0  0  0  0
  -21.4127  -29.3034   22.3734 N   0  0  0  0  0  0
  -26.4287  -37.3803   23.9418 N   0  0  0  0  0  0
  -24.6678  -31.0778   22.0990 N   0  0  0  0  0  0
  -23.4167  -28.8205   23.3046 O   0  0  0  0  0  0
  -28.4352  -26.7350   20.1045 O   0  0  0  0  0  0
  -26.5602  -34.8929   22.4701 O   0  0  0  0  0  0
  -23.5334  -32.1425   23.7483 O   0  0  0  0  0  0
  -28.5211  -18.7513   21.9153 C   0  0  0  0  0  0
  -28.8203  -17.3619   21.9495 C   0  0  0  0  0  0
  -30.7645  -17.5794   20.4204 C   0  0  0  0  0  0
  -30.4459  -18.9467   20.4084 C   0  0  0  0  0  0
  -29.3545  -19.5531   21.1297 C   0  0  0  0  0  0
  -29.9047  -16.7691   21.2253 C   0  0  0  0  0  0
  -29.1710  -22.1301   20.4383 C   0  0  0  0  0  0
  -30.8597  -20.2615   19.8048 C   0  0  0  0  0  0
  -30.8880  -25.5105   19.3199 C   0  0  0  0  0  0
  -30.1655  -24.8489   21.6241 C   0  0  0  0  0  0
  -29.9618  -23.2102   19.6647 C   0  0  0  0  0  0
  -28.4325  -25.3245   19.8304 C   0  0  0  0  0  0
  -29.8356  -24.7084   20.1204 C   0  0  0  0  0  0
  -29.7288  -20.8555   20.5855 N   0  0  0  0  0  0
  -30.0212  -15.3503   21.3548 N   0  0  0  0  0  0
  -28.0442  -22.3594   20.8815 O   0  0  0  0  0  0
  -31.4783  -12.4156   19.1158 H   0  0  0  0  0  0
  -30.3427  -11.2847   19.7917 H   0  0  0  0  0  0
  -29.7415  -11.8058   17.4154 H   0  0  0  0  0  0
  -29.6737  -13.5099   17.7803 H   0  0  0  0  0  0
  -27.8229  -11.3223   18.7889 H   0  0  0  0  0  0
  -27.3746  -12.6750   17.7847 H   0  0  0  0  0  0
  -27.7273  -14.2554   19.6094 H   0  0  0  0  0  0
  -28.6819  -11.8928   21.2955 H   0  0  0  0  0  0
  -28.4544  -13.4965   21.9002 H   0  0  0  0  0  0
  -25.2752   -9.5694   22.4745 H   0  0  0  0  0  0
  -24.0000   -7.4640   22.7470 H   0  0  0  0  0  0
  -21.0829   -8.8758   19.8961 H   0  0  0  0  0  0
  -22.3672  -10.9661   19.6154 H   0  0  0  0  0  0
  -21.2001   -7.6146   23.9714 H   0  0  0  0  0  0
  -21.1488   -6.0522   25.9079 H   0  0  0  0  0  0
  -22.0598   -2.7606   23.2838 H   0  0  0  0  0  0
  -22.4110  -11.9924   22.4791 H   0  0  0  0  0  0
  -21.1136  -13.1308   22.2560 H   0  0  0  0  0  0
  -24.6749  -15.8447   20.5255 H   0  0  0  0  0  0
  -26.3002  -15.6262   20.1141 H   0  0  0  0  0  0
  -26.7107  -32.5532   23.1161 H   0  0  0  0  0  0
  -25.0010  -33.9785   25.0453 H   0  0  0  0  0  0
  -22.6920  -31.3072   21.4101 H   0  0  0  0  0  0
  -23.3752  -35.9635   23.3297 H   0  0  0  0  0  0
  -24.3576  -36.8934   22.2054 H   0  0  0  0  0  0
  -23.7219  -37.6508   23.6656 H   0  0  0  0  0  0
  -26.0460  -31.5986   20.5949 H   0  0  0  0  0  0
  -26.8179  -30.8837   21.9825 H   0  0  0  0  0  0
  -28.1023  -29.1110   21.1469 H   0  0  0  0  0  0
  -26.0404  -25.9606   19.0254 H   0  0  0  0  0  0
  -23.9791  -27.2812   19.0513 H   0  0  0  0  0  0
  -23.7150  -30.5915   19.4028 H   0  0  0  0  0  0
  -22.7349  -29.2357   19.8744 H   0  0  0  0  0  0
  -25.1274  -36.1982   25.0832 H   0  0  0  0  0  0
  -20.9956  -28.3229   24.1448 H   0  0  0  0  0  0
  -20.5657  -26.2269   23.3609 H   0  0  0  0  0  0
  -21.6625  -26.7447   22.1219 H   0  0  0  0  0  0
  -19.6885  -25.6309   21.1240 H   0  0  0  0  0  0
  -19.6675  -27.3210   20.6752 H   0  0  0  0  0  0
  -17.4183  -26.6697   21.4031 H   0  0  0  0  0  0
  -18.0305  -26.0068   22.9020 H   0  0  0  0  0  0
  -19.7920  -30.7253   24.2315 H   0  0  0  0  0  0
  -17.5007  -31.6278   24.5167 H   0  0  0  0  0  0
  -15.5345  -30.3016   23.7630 H   0  0  0  0  0  0
  -15.8655  -28.0835   22.7078 H   0  0  0  0  0  0
  -24.5830  -30.7178   25.7822 H   0  0  0  0  0  0
  -24.8986  -32.2929   26.4993 H   0  0  0  0  0  0
  -25.8056  -30.8854   27.0220 H   0  0  0  0  0  0
  -26.2802  -29.6839   24.1147 H   0  0  0  0  0  0
  -27.3974  -29.7269   25.4602 H   0  0  0  0  0  0
  -27.8673  -30.4348   23.9308 H   0  0  0  0  0  0
  -27.2673  -33.3622   26.2088 H   0  0  0  0  0  0
  -28.3818  -32.6917   25.0273 H   0  0  0  0  0  0
  -28.0749  -31.8437   26.5357 H   0  0  0  0  0  0
  -28.2599  -38.0106   24.7531 H   0  0  0  0  0  0
  -28.1088  -36.2643   24.6246 H   0  0  0  0  0  0
  -27.2314  -37.1408   25.8863 H   0  0  0  0  0  0
  -20.9280  -29.8755   21.6960 H   0  0  0  0  0  0
  -26.0181  -38.2882   24.1432 H   0  0  0  0  0  0
  -27.6889  -19.1669   22.4652 H   0  0  0  0  0  0
  -28.1773  -16.7316   22.5473 H   0  0  0  0  0  0
  -31.5929  -17.1928   19.8455 H   0  0  0  0  0  0
  -30.7218  -20.2985   18.7232 H   0  0  0  0  0  0
  -31.8478  -20.5987   20.1215 H   0  0  0  0  0  0
  -31.8942  -25.1137   19.4600 H   0  0  0  0  0  0
  -30.9163  -26.5584   19.6218 H   0  0  0  0  0  0
  -30.6749  -25.4891   18.2505 H   0  0  0  0  0  0
  -31.1368  -24.4136   21.8623 H   0  0  0  0  0  0
  -29.4214  -24.3578   22.2519 H   0  0  0  0  0  0
  -30.1939  -25.8950   21.9311 H   0  0  0  0  0  0
  -29.6862  -23.1250   18.6130 H   0  0  0  0  0  0
  -31.0155  -22.9359   19.7131 H   0  0  0  0  0  0
  -27.6697  -24.8404   20.4413 H   0  0  0  0  0  0
  -28.1681  -25.1572   18.7848 H   0  0  0  0  0  0
  -29.2725  -14.9211   21.8755 H   0  0  0  0  0  0
  1 25  1  0  0  0
  1 30  2  0  0  0
  1 85  1  0  0  0
  2  3  1  0  0  0
  2 25  1  0  0  0
  2 87  1  0  0  0
  2 88  1  0  0  0
  3  4  1  0  0  0
  3 89  1  0  0  0
  3 90  1  0  0  0
  4  5  1  0  0  0
  4 91  1  0  0  0
  4 92  1  0  0  0
  5  6  1  0  0  0
  5 26  1  0  0  0
  5 93  1  0  0  0
  6 25  1  0  0  0
  6 94  1  0  0  0
  6 95  1  0  0  0
  7  8  2  0  0  0
  7 26  1  0  0  0
  7 29  1  0  0  0
  8  9  1  0  0  0
  8 22  1  0  0  0
  9 10  1  0  0  0
  9 27  2  0  0  0
 10 11  2  0  0  0
 10 15  1  0  0  0
 11 12  1  0  0  0
 11 96  1  0  0  0
 12 13  2  0  0  0
 12 97  1  0  0  0
 13 14  1  0  0  0
 13 31  1  0  0  0
 14 15  2  0  0  0
 14 98  1  0  0  0
 15 99  1  0  0  0
 16 17  2  0  0  0
 16 21  1  0  0  0
 16 31  1  0  0  0
 17 18  1  0  0  0
 17100  1  0  0  0
 18 19  2  0  0  0
 18101  1  0  0  0
 19 20  1  0  0  0
 19 24  1  0  0  0
 20 21  2  0  0  0
 20102  1  0  0  0
 21 23  1  0  0  0
 22 28  1  0  0  0
 22 32  2  0  0  0
 26 27  1  0  0  0
 28103  1  0  0  0
 28104  1  0  0  0
 29105  1  0  0  0
 29106  1  0  0  0
 33 34  1  0  0  0
 33 66  1  0  0  0
 33 70  2  0  0  0
 34 36  1  0  0  0
 34 59  1  0  0  0
 34107  1  0  0  0
 35 44  2  0  0  0
 35 45  1  0  0  0
 35 68  1  0  0  0
 36 56  1  0  0  0
 36108  1  0  0  0
 37 39  1  0  0  0
 37 47  1  0  0  0
 37 66  1  0  0  0
 37109  1  0  0  0
 38 43  2  0  0  0
 38 46  1  0  0  0
 38 47  1  0  0  0
 39 64  1  0  0  0
 39 67  2  0  0  0
 40 52  1  0  0  0
 40 53  2  0  0  0
 40 58  1  0  0  0
 41110  1  0  0  0
 41111  1  0  0  0
 41112  1  0  0  0
 41 48  1  0  0  0
 42 43  1  0  0  0
 42 66  1  0  0  0
 42113  1  0  0  0
 42114  1  0  0  0
 43 44  1  0  0  0
 44115  1  0  0  0
 45 46  2  0  0  0
 45116  1  0  0  0
 46117  1  0  0  0
 47118  1  0  0  0
 47119  1  0  0  0
 48 56  1  0  0  0
 48 65  1  0  0  0
 48120  1  0  0  0
 49 50  1  0  0  0
 49 53  1  0  0  0
 49 64  1  0  0  0
 49121  1  0  0  0
 50 51  1  0  0  0
 50122  1  0  0  0
 50123  1  0  0  0
 51 52  1  0  0  0
 51124  1  0  0  0
 51125  1  0  0  0
 52126  1  0  0  0
 52127  1  0  0  0
 53 54  1  0  0  0
 54 55  2  0  0  0
 54128  1  0  0  0
 55 57  1  0  0  0
 55129  1  0  0  0
 56 69  2  0  0  0
 57 58  2  0  0  0
 57130  1  0  0  0
 58131  1  0  0  0
 59 60  1  0  0  0
 59 61  1  0  0  0
 59 62  1  0  0  0
 60132  1  0  0  0
 60133  1  0  0  0
 60134  1  0  0  0
 61135  1  0  0  0
 61136  1  0  0  0
 61137  1  0  0  0
 62138  1  0  0  0
 62139  1  0  0  0
 62140  1  0  0  0
 63 65  1  0  0  0
 63141  1  0  0  0
 63142  1  0  0  0
 63143  1  0  0  0
 64144  1  0  0  0
 65145  1  0  0  0
 68 82  1  0  0  0
 71 72  2  0  0  0
 71 75  1  0  0  0
 71146  1  0  0  0
 72 76  1  0  0  0
 72147  1  0  0  0
 73 74  1  0  0  0
 73 76  2  0  0  0
 73148  1  0  0  0
 74 75  2  0  0  0
 74 78  1  0  0  0
 75 84  1  0  0  0
 76 85  1  0  0  0
 77 81  1  0  0  0
 77 84  1  0  0  0
 77 86  2  0  0  0
 78 84  1  0  0  0
 78149  1  0  0  0
 78150  1  0  0  0
 79151  1  0  0  0
 79152  1  0  0  0
 79153  1  0  0  0
 79 83  1  0  0  0
 80 83  1  0  0  0
 80154  1  0  0  0
 80155  1  0  0  0
 80156  1  0  0  0
 81 83  1  0  0  0
 81157  1  0  0  0
 81158  1  0  0  0
 82 83  1  0  0  0
 82159  1  0  0  0
 82160  1  0  0  0
 85161  1  0  0  0
M  ISO  4   1 100  68 101  82 101  85 100
M  END
> <chiral flag>
0

> <version>
0

> <s_m_source_file>
/data/baiqing/PycharmProjects/Reinvent-master-3.2/result/LINK_invent/BTK/process_docking_weight1_custom_product_contain_oxygen_bond_distance_aromatic_linkinvent_7_9_3/rearranged_h_0142.sdf

> <i_m_source_file_index>
35

> <r_mmod_Potential_Energy-OPLS-2005>
284.616516113281

> <r_mmod_Stretch_Energy-OPLS-2005>
51.2581558227539

> <r_mmod_Bend_Energy-OPLS-2005>
484.866455078125

> <r_mmod_Torsional_Energy-OPLS-2005>
205.027160644531

> <r_mmod_Improper_Torsional_Energy-OPLS-2005>
4.62198638916016

> <r_mmod_Van_der_Waal_Energy-OPLS-2005>
150.949737548828

> <r_mmod_Electrostatic_Energy-OPLS-2005>
-405.235473632812

> <r_mmod_Solvation_Energy-OPLS-2005>
-217.882614135742

> <b_mmod_Minimization_Converged-OPLS-2005>
0

> <r_mmod_RMS_Derivative-OPLS-2005>
1.06362330913544

$$$$
35
                    3D
 Structure written by MMmdl.
152161  0  0  1  0            999 V2000
  -30.6227  -14.6709   20.3982 C   0  0  0  0  0  0
  -30.4340  -12.3911   19.4475 C   0  0  0  0  0  0
  -29.5043  -12.4712   18.2178 C   0  0  0  0  0  0
  -28.0263  -12.3261   18.6331 C   0  0  0  0  0  0
  -27.6443  -13.2177   19.8454 C   0  0  2  0  0  0
  -28.6981  -13.1360   20.9729 C   0  0  0  0  0  0
  -25.2579  -13.8186   20.5717 C   0  0  0  0  0  0
  -24.1834  -13.0464   20.9195 C   0  0  0  0  0  0
  -24.6397  -11.6937   20.8758 C   0  0  0  0  0  0
  -23.9059  -10.4328   21.0413 C   0  0  0  0  0  0
  -24.3615   -9.4244   21.9184 C   0  0  0  0  0  0
  -23.6301   -8.2268   22.0748 C   0  0  0  0  0  0
  -22.4291   -8.0294   21.3533 C   0  0  0  0  0  0
  -21.9923   -9.0280   20.4644 C   0  0  0  0  0  0
  -22.7238  -10.2168   20.3060 C   0  0  0  0  0  0
  -21.6862   -6.0747   22.5278 C   0  0  0  0  0  0
  -21.4012   -6.5643   23.8212 C   0  0  0  0  0  0
  -21.3658   -5.6790   24.9171 C   0  0  0  0  0  0
  -21.6047   -4.3053   24.7211 C   0  0  0  0  0  0
  -21.8824   -3.8152   23.4331 C   0  0  0  0  0  0
  -21.9197   -4.6974   22.3398 C   0  0  0  0  0  0
  -22.7856  -13.5274   21.1822 C   0  0  0  0  0  0
  -22.1664   -4.2171   21.0964 F   0  0  0  0  0  0
  -21.5635   -3.4525   25.7715 F   0  0  0  0  0  0
  -30.0051  -13.4479   20.3816 N   0  0  0  0  0  0
  -26.2971  -12.9345   20.3293 N   0  0  0  0  0  0
  -25.9319  -11.6513   20.5774 N   0  0  0  0  0  0
  -22.0434  -12.8331   22.0377 N   0  0  0  0  0  0
  -25.4344  -15.1904   20.4145 N   0  0  0  0  0  0
  -31.8346  -14.7725   20.1877 O   0  0  0  0  0  0
  -21.6652   -6.8898   21.4244 O   0  0  0  0  0  0
  -22.3567  -14.5579   20.6641 O   0  0  0  0  0  0
  -24.6260  -31.8574   23.2010 C   0  0  0  0  0  0
  -25.9088  -32.4774   23.8337 C   0  0  1  0  0  0
  -27.2157  -27.3145   20.1069 C   0  0  0  0  0  0
  -25.5886  -33.8582   24.2252 N   0  0  0  0  0  0
  -23.4198  -30.4803   21.5449 C   0  0  2  0  0  0
  -24.8615  -28.9279   20.1144 C   0  0  0  0  0  0
  -22.7465  -29.4613   22.4961 C   0  0  0  0  0  0
  -18.0279  -28.1359   22.8471 C   0  0  0  0  0  0
  -24.1480  -36.7314   23.2637 C   0  0  0  0  0  0
  -25.9601  -30.7851   21.3711 C   0  0  0  0  0  0
  -26.0327  -29.4112   20.7129 C   0  0  0  0  0  0
  -27.2174  -28.6158   20.6959 C   0  0  0  0  0  0
  -26.0252  -26.8805   19.4874 C   0  0  0  0  0  0
  -24.8578  -27.6672   19.4956 C   0  0  0  0  0  0
  -23.6305  -29.8085   20.1644 C   0  0  0  0  0  0
  -25.4106  -36.3091   24.0322 C   0  0  1  0  0  0
  -20.5869  -28.3655   23.1276 C   0  0  2  0  0  0
  -20.6751  -26.9380   22.5400 C   0  0  0  0  0  0
  -19.5749  -26.6356   21.5183 C   0  0  0  0  0  0
  -18.1929  -26.7905   22.1601 C   0  0  0  0  0  0
  -19.1529  -28.8827   23.2862 C   0  0  0  0  0  0
  -18.9457  -30.1429   23.8882 C   0  0  0  0  0  0
  -17.6463  -30.6574   24.0541 C   0  0  0  0  0  0
  -25.9040  -34.9455   23.5099 C   0  0  0  0  0  0
  -16.5350  -29.9062   23.6324 C   0  0  0  0  0  0
  -16.7266  -28.6467   23.0355 C   0  0  0  0  0  0
  -26.4453  -31.6613   25.0737 C   0  0  0  0  0  0
  -25.3680  -31.3762   26.1468 C   0  0  0  0  0  0
  -27.0283  -30.3031   24.6200 C   0  0  0  0  0  0
  -27.6009  -32.4345   25.7513 C   0  0  0  0  0  0
  -27.5586  -37.1810   24.8457 C   0  0  0  0  0  0
  -21.4180  -29.3027   22.3688 N   0  0  0  0  0  0
  -26.4294  -37.3781   23.9400 N   0  0  0  0  0  0
  -24.6876  -31.0570   22.0964 N   0  0  0  0  0  0
  -23.4172  -28.8155   23.3048 O   0  0  0  0  0  0
  -28.3277  -26.4659   20.1079 O   0  0  0  0  0  0
  -26.5631  -34.8915   22.4676 O   0  0  0  0  0  0
  -23.5424  -32.1371   23.7336 O   0  0  0  0  0  0
  -29.7383  -17.9829   21.6524 C   0  0  0  0  0  0
  -29.5421  -19.3828   21.3505 C   0  0  0  0  0  0
  -29.4226  -18.9940   18.9126 C   0  0  0  0  0  0
  -29.6086  -17.6317   19.2321 C   0  0  0  0  0  0
  -29.7670  -17.1067   20.5517 C   0  0  0  0  0  0
  -29.3722  -19.9142   20.0141 C   0  0  0  0  0  0
  -28.7657  -22.4136   20.4294 C   0  0  0  0  0  0
  -29.6792  -16.2328   18.6634 C   0  0  0  0  0  0
  -28.7424  -23.8504   19.7584 C   0  0  0  0  0  0
  -28.1336  -25.0726   20.5833 C   0  0  0  0  0  0
  -29.7911  -15.7270   20.0928 N   0  0  0  0  0  0
  -29.1979  -21.3373   19.6983 N   0  0  0  0  0  0
  -28.3823  -22.2939   21.5955 O   0  0  0  0  0  0
  -31.4752  -12.5092   19.1420 H   0  0  0  0  0  0
  -30.3678  -11.4129   19.9244 H   0  0  0  0  0  0
  -29.7651  -11.6900   17.5021 H   0  0  0  0  0  0
  -29.6530  -13.4193   17.7002 H   0  0  0  0  0  0
  -27.8588  -11.2776   18.8813 H   0  0  0  0  0  0
  -27.3748  -12.5451   17.7855 H   0  0  0  0  0  0
  -27.6378  -14.2397   19.4711 H   0  0  0  0  0  0
  -28.7137  -12.1466   21.4340 H   0  0  0  0  0  0
  -28.4636  -13.8470   21.7661 H   0  0  0  0  0  0
  -25.2742   -9.5747   22.4769 H   0  0  0  0  0  0
  -24.0017   -7.4680   22.7476 H   0  0  0  0  0  0
  -21.0844   -8.8800   19.8969 H   0  0  0  0  0  0
  -22.3667  -10.9711   19.6188 H   0  0  0  0  0  0
  -21.1992   -7.6145   23.9732 H   0  0  0  0  0  0
  -21.1468   -6.0498   25.9080 H   0  0  0  0  0  0
  -22.0603   -2.7615   23.2811 H   0  0  0  0  0  0
  -22.3984  -12.0015   22.4859 H   0  0  0  0  0  0
  -21.1047  -13.1423   22.2460 H   0  0  0  0  0  0
  -24.6840  -15.8579   20.5466 H   0  0  0  0  0  0
  -26.3067  -15.6273   20.1435 H   0  0  0  0  0  0
  -26.7160  -32.5426   23.1088 H   0  0  0  0  0  0
  -24.9973  -33.9712   25.0355 H   0  0  0  0  0  0
  -22.7149  -31.3023   21.4010 H   0  0  0  0  0  0
  -23.3736  -35.9663   23.3314 H   0  0  0  0  0  0
  -24.3560  -36.8931   22.2054 H   0  0  0  0  0  0
  -23.7258  -37.6521   23.6658 H   0  0  0  0  0  0
  -26.0925  -31.5473   20.6011 H   0  0  0  0  0  0
  -26.8402  -30.8310   22.0010 H   0  0  0  0  0  0
  -28.1214  -28.9821   21.1611 H   0  0  0  0  0  0
  -25.9872  -25.9174   18.9976 H   0  0  0  0  0  0
  -23.9579  -27.2933   19.0250 H   0  0  0  0  0  0
  -23.7483  -30.5776   19.4022 H   0  0  0  0  0  0
  -22.7492  -29.2369   19.8690 H   0  0  0  0  0  0
  -25.1298  -36.1948   25.0822 H   0  0  0  0  0  0
  -20.9959  -28.3219   24.1394 H   0  0  0  0  0  0
  -20.5607  -26.2268   23.3589 H   0  0  0  0  0  0
  -21.6624  -26.7392   22.1226 H   0  0  0  0  0  0
  -19.6909  -25.6258   21.1217 H   0  0  0  0  0  0
  -19.6700  -27.3146   20.6692 H   0  0  0  0  0  0
  -17.4195  -26.6638   21.4005 H   0  0  0  0  0  0
  -18.0360  -26.0036   22.8992 H   0  0  0  0  0  0
  -19.7938  -30.7232   24.2255 H   0  0  0  0  0  0
  -17.5024  -31.6270   24.5122 H   0  0  0  0  0  0
  -15.5347  -30.2968   23.7657 H   0  0  0  0  0  0
  -15.8655  -28.0782   22.7097 H   0  0  0  0  0  0
  -24.5811  -30.7160   25.7794 H   0  0  0  0  0  0
  -24.8917  -32.2939   26.4936 H   0  0  0  0  0  0
  -25.7991  -30.8897   27.0227 H   0  0  0  0  0  0
  -26.2857  -29.6821   24.1169 H   0  0  0  0  0  0
  -27.3896  -29.7260   25.4724 H   0  0  0  0  0  0
  -27.8767  -30.4318   23.9473 H   0  0  0  0  0  0
  -27.2594  -33.3611   26.2136 H   0  0  0  0  0  0
  -28.3790  -32.6964   25.0335 H   0  0  0  0  0  0
  -28.0700  -31.8449   26.5399 H   0  0  0  0  0  0
  -28.2600  -38.0101   24.7490 H   0  0  0  0  0  0
  -28.1069  -36.2638   24.6294 H   0  0  0  0  0  0
  -27.2294  -37.1480   25.8850 H   0  0  0  0  0  0
  -20.9356  -29.8766   21.6917 H   0  0  0  0  0  0
  -26.0183  -38.2861   24.1382 H   0  0  0  0  0  0
  -29.8296  -17.6284   22.6687 H   0  0  0  0  0  0
  -29.5222  -20.0684   22.1851 H   0  0  0  0  0  0
  -29.3064  -19.3176   17.8877 H   0  0  0  0  0  0
  -30.5639  -16.0733   18.0439 H   0  0  0  0  0  0
  -28.7650  -15.9419   18.1465 H   0  0  0  0  0  0
  -28.2074  -23.7664   18.8113 H   0  0  0  0  0  0
  -29.7736  -24.0927   19.5034 H   0  0  0  0  0  0
  -28.5795  -25.0428   21.5771 H   0  0  0  0  0  0
  -27.0780  -24.8604   20.7628 H   0  0  0  0  0  0
  -29.3945  -21.5735   18.7346 H   0  0  0  0  0  0
  1 25  1  0  0  0
  1 30  2  0  0  0
  1 81  1  0  0  0
  2  3  1  0  0  0
  2 25  1  0  0  0
  2 84  1  0  0  0
  2 85  1  0  0  0
  3  4  1  0  0  0
  3 86  1  0  0  0
  3 87  1  0  0  0
  4  5  1  0  0  0
  4 88  1  0  0  0
  4 89  1  0  0  0
  5  6  1  0  0  0
  5 26  1  0  0  0
  5 90  1  0  0  0
  6 25  1  0  0  0
  6 91  1  0  0  0
  6 92  1  0  0  0
  7  8  2  0  0  0
  7 26  1  0  0  0
  7 29  1  0  0  0
  8  9  1  0  0  0
  8 22  1  0  0  0
  9 10  1  0  0  0
  9 27  2  0  0  0
 10 11  2  0  0  0
 10 15  1  0  0  0
 11 12  1  0  0  0
 11 93  1  0  0  0
 12 13  2  0  0  0
 12 94  1  0  0  0
 13 14  1  0  0  0
 13 31  1  0  0  0
 14 15  2  0  0  0
 14 95  1  0  0  0
 15 96  1  0  0  0
 16 17  2  0  0  0
 16 21  1  0  0  0
 16 31  1  0  0  0
 17 18  1  0  0  0
 17 97  1  0  0  0
 18 19  2  0  0  0
 18 98  1  0  0  0
 19 20  1  0  0  0
 19 24  1  0  0  0
 20 21  2  0  0  0
 20 99  1  0  0  0
 21 23  1  0  0  0
 22 28  1  0  0  0
 22 32  2  0  0  0
 26 27  1  0  0  0
 28100  1  0  0  0
 28101  1  0  0  0
 29102  1  0  0  0
 29103  1  0  0  0
 33 34  1  0  0  0
 33 66  1  0  0  0
 33 70  2  0  0  0
 34 36  1  0  0  0
 34 59  1  0  0  0
 34104  1  0  0  0
 35 44  2  0  0  0
 35 45  1  0  0  0
 35 68  1  0  0  0
 36 56  1  0  0  0
 36105  1  0  0  0
 37 39  1  0  0  0
 37 47  1  0  0  0
 37 66  1  0  0  0
 37106  1  0  0  0
 38 43  2  0  0  0
 38 46  1  0  0  0
 38 47  1  0  0  0
 39 64  1  0  0  0
 39 67  2  0  0  0
 40 52  1  0  0  0
 40 53  2  0  0  0
 40 58  1  0  0  0
 41107  1  0  0  0
 41108  1  0  0  0
 41109  1  0  0  0
 41 48  1  0  0  0
 42 43  1  0  0  0
 42 66  1  0  0  0
 42110  1  0  0  0
 42111  1  0  0  0
 43 44  1  0  0  0
 44112  1  0  0  0
 45 46  2  0  0  0
 45113  1  0  0  0
 46114  1  0  0  0
 47115  1  0  0  0
 47116  1  0  0  0
 48 56  1  0  0  0
 48 65  1  0  0  0
 48117  1  0  0  0
 49 50  1  0  0  0
 49 53  1  0  0  0
 49 64  1  0  0  0
 49118  1  0  0  0
 50 51  1  0  0  0
 50119  1  0  0  0
 50120  1  0  0  0
 51 52  1  0  0  0
 51121  1  0  0  0
 51122  1  0  0  0
 52123  1  0  0  0
 52124  1  0  0  0
 53 54  1  0  0  0
 54 55  2  0  0  0
 54125  1  0  0  0
 55 57  1  0  0  0
 55126  1  0  0  0
 56 69  2  0  0  0
 57 58  2  0  0  0
 57127  1  0  0  0
 58128  1  0  0  0
 59 60  1  0  0  0
 59 61  1  0  0  0
 59 62  1  0  0  0
 60129  1  0  0  0
 60130  1  0  0  0
 60131  1  0  0  0
 61132  1  0  0  0
 61133  1  0  0  0
 61134  1  0  0  0
 62135  1  0  0  0
 62136  1  0  0  0
 62137  1  0  0  0
 63 65  1  0  0  0
 63138  1  0  0  0
 63139  1  0  0  0
 63140  1  0  0  0
 64141  1  0  0  0
 65142  1  0  0  0
 68 80  1  0  0  0
 71 72  2  0  0  0
 71 75  1  0  0  0
 71143  1  0  0  0
 72 76  1  0  0  0
 72144  1  0  0  0
 73 74  1  0  0  0
 73 76  2  0  0  0
 73145  1  0  0  0
 74 75  2  0  0  0
 74 78  1  0  0  0
 75 81  1  0  0  0
 76 82  1  0  0  0
 77 79  1  0  0  0
 77 82  1  0  0  0
 77 83  2  0  0  0
 78 81  1  0  0  0
 78146  1  0  0  0
 78147  1  0  0  0
 79 80  1  0  0  0
 79148  1  0  0  0
 79149  1  0  0  0
 80150  1  0  0  0
 80151  1  0  0  0
 82152  1  0  0  0
M  ISO  4   1 100  68 101  80 101  81 100
M  END
> <chiral flag>
0

> <version>
0

> <s_m_source_file>
/data/baiqing/PycharmProjects/Reinvent-master-3.2/result/LINK_invent/BTK/process_docking_weight1_custom_product_contain_oxygen_bond_distance_aromatic_linkinvent_7_9_3/rearranged_h_0142.sdf

> <i_m_source_file_index>
36

> <r_mmod_Potential_Energy-OPLS-2005>
557.89697265625

> <r_mmod_Stretch_Energy-OPLS-2005>
96.1717834472656

> <r_mmod_Bend_Energy-OPLS-2005>
546.0205078125

> <r_mmod_Torsional_Energy-OPLS-2005>
301.188171386719

> <r_mmod_Improper_Torsional_Energy-OPLS-2005>
25.5018520355225

> <r_mmod_Van_der_Waal_Energy-OPLS-2005>
131.056655883789

> <r_mmod_Electrostatic_Energy-OPLS-2005>
-379.427795410156

> <r_mmod_Solvation_Energy-OPLS-2005>
-223.091552734375

> <b_mmod_Minimization_Converged-OPLS-2005>
0

> <r_mmod_RMS_Derivative-OPLS-2005>
3.1510181427002

$$$$
36
                    3D
 Structure written by MMmdl.
162171  0  0  1  0            999 V2000
  -30.6601  -14.5128   20.5038 C   0  0  0  0  0  0
  -30.4272  -12.3091   19.4397 C   0  0  0  0  0  0
  -29.5072  -12.4929   18.2157 C   0  0  0  0  0  0
  -28.0234  -12.3662   18.6176 C   0  0  0  0  0  0
  -27.6614  -13.2081   19.8702 C   0  0  2  0  0  0
  -28.6988  -13.0070   20.9976 C   0  0  0  0  0  0
  -25.2588  -13.8161   20.5631 C   0  0  0  0  0  0
  -24.1831  -13.0444   20.9136 C   0  0  0  0  0  0
  -24.6391  -11.6909   20.8700 C   0  0  0  0  0  0
  -23.9048  -10.4307   21.0396 C   0  0  0  0  0  0
  -24.3598   -9.4232   21.9177 C   0  0  0  0  0  0
  -23.6291   -8.2262   22.0745 C   0  0  0  0  0  0
  -22.4274   -8.0286   21.3541 C   0  0  0  0  0  0
  -21.9902   -9.0259   20.4646 C   0  0  0  0  0  0
  -22.7214  -10.2144   20.3054 C   0  0  0  0  0  0
  -21.6856   -6.0727   22.5277 C   0  0  0  0  0  0
  -21.4015   -6.5637   23.8209 C   0  0  0  0  0  0
  -21.3651   -5.6786   24.9170 C   0  0  0  0  0  0
  -21.6037   -4.3055   24.7216 C   0  0  0  0  0  0
  -21.8815   -3.8143   23.4345 C   0  0  0  0  0  0
  -21.9194   -4.6961   22.3394 C   0  0  0  0  0  0
  -22.7848  -13.5256   21.1818 C   0  0  0  0  0  0
  -22.1665   -4.2138   21.0970 F   0  0  0  0  0  0
  -21.5646   -3.4543   25.7739 F   0  0  0  0  0  0
  -30.0285  -13.3087   20.4454 N   0  0  0  0  0  0
  -26.3018  -12.9334   20.3292 N   0  0  0  0  0  0
  -25.9311  -11.6492   20.5688 N   0  0  0  0  0  0
  -22.0468  -12.8265   22.0367 N   0  0  0  0  0  0
  -25.4366  -15.1871   20.4027 N   0  0  0  0  0  0
  -31.8130  -14.6793   20.0942 O   0  0  0  0  0  0
  -21.6644   -6.8879   21.4243 O   0  0  0  0  0  0
  -22.3534  -14.5562   20.6674 O   0  0  0  0  0  0
  -24.6151  -31.8663   23.2091 C   0  0  0  0  0  0
  -25.9047  -32.4807   23.8381 C   0  0  1  0  0  0
  -27.2256  -27.4110   20.1156 C   0  0  0  0  0  0
  -25.5903  -33.8605   24.2320 N   0  0  0  0  0  0
  -23.4034  -30.4901   21.5480 C   0  0  2  0  0  0
  -24.8506  -28.9522   20.1148 C   0  0  0  0  0  0
  -22.7398  -29.4654   22.4968 C   0  0  0  0  0  0
  -18.0266  -28.1374   22.8488 C   0  0  0  0  0  0
  -24.1487  -36.7323   23.2636 C   0  0  0  0  0  0
  -25.9329  -30.8275   21.3639 C   0  0  0  0  0  0
  -26.0105  -29.4589   20.7146 C   0  0  0  0  0  0
  -27.2034  -28.6972   20.7076 C   0  0  0  0  0  0
  -26.0526  -26.9268   19.4998 C   0  0  0  0  0  0
  -24.8679  -27.6880   19.5003 C   0  0  0  0  0  0
  -23.6139  -29.8213   20.1627 C   0  0  0  0  0  0
  -25.4104  -36.3104   24.0336 C   0  0  1  0  0  0
  -20.5858  -28.3660   23.1321 C   0  0  2  0  0  0
  -20.6757  -26.9400   22.5413 C   0  0  0  0  0  0
  -19.5747  -26.6387   21.5197 C   0  0  0  0  0  0
  -18.1922  -26.7919   22.1607 C   0  0  0  0  0  0
  -19.1513  -28.8830   23.2903 C   0  0  0  0  0  0
  -18.9449  -30.1430   23.8923 C   0  0  0  0  0  0
  -17.6455  -30.6589   24.0566 C   0  0  0  0  0  0
  -25.9030  -34.9467   23.5123 C   0  0  0  0  0  0
  -16.5339  -29.9094   23.6322 C   0  0  0  0  0  0
  -16.7258  -28.6501   23.0351 C   0  0  0  0  0  0
  -26.4479  -31.6586   25.0711 C   0  0  0  0  0  0
  -25.3752  -31.3707   26.1469 C   0  0  0  0  0  0
  -27.0310  -30.3026   24.6091 C   0  0  0  0  0  0
  -27.6055  -32.4297   25.7483 C   0  0  0  0  0  0
  -27.5584  -37.1810   24.8456 C   0  0  0  0  0  0
  -21.4123  -29.3040   22.3726 N   0  0  0  0  0  0
  -26.4290  -37.3789   23.9409 N   0  0  0  0  0  0
  -24.6685  -31.0758   22.0990 N   0  0  0  0  0  0
  -23.4175  -28.8194   23.3003 O   0  0  0  0  0  0
  -28.3838  -26.6615   20.1000 O   0  0  0  0  0  0
  -26.5584  -34.8924   22.4681 O   0  0  0  0  0  0
  -23.5344  -32.1417   23.7488 O   0  0  0  0  0  0
  -29.7846  -18.0432   18.0275 C   0  0  0  0  0  0
  -29.5943  -19.2583   18.7118 C   0  0  0  0  0  0
  -29.8940  -16.8350   18.7374 C   0  0  0  0  0  0
  -29.5875  -18.0489   20.8276 C   0  0  0  0  0  0
  -29.4904  -19.2837   20.1237 C   0  0  0  0  0  0
  -29.8131  -16.8160   20.1496 C   0  0  0  0  0  0
  -28.0083  -20.8329   21.2602 C   0  0  0  0  0  0
  -28.7347  -21.6893   20.2472 C   0  0  1  0  0  0
  -30.5841  -24.9915   19.5757 C   0  0  0  0  0  0
  -28.5742  -24.0325   18.4334 C   0  0  0  0  0  0
  -29.4965  -22.9776   20.6154 C   0  0  0  0  0  0
  -28.3066  -25.3049   20.6004 C   0  0  0  0  0  0
  -29.2162  -24.3075   19.8087 C   0  0  0  0  0  0
  -29.3624  -20.4976   20.8483 N   0  0  0  0  0  0
  -29.8889  -15.5674   20.8606 N   0  0  0  0  0  0
  -31.4735  -12.4089   19.1436 H   0  0  0  0  0  0
  -30.3297  -11.3008   19.8451 H   0  0  0  0  0  0
  -29.7503  -11.7548   17.4504 H   0  0  0  0  0  0
  -29.6871  -13.4686   17.7597 H   0  0  0  0  0  0
  -27.8196  -11.3119   18.8081 H   0  0  0  0  0  0
  -27.3845  -12.6508   17.7811 H   0  0  0  0  0  0
  -27.7029  -14.2525   19.5593 H   0  0  0  0  0  0
  -28.6746  -11.9797   21.3647 H   0  0  0  0  0  0
  -28.4654  -13.6376   21.8565 H   0  0  0  0  0  0
  -25.2750   -9.5735   22.4732 H   0  0  0  0  0  0
  -24.0016   -7.4659   22.7459 H   0  0  0  0  0  0
  -21.0838   -8.8775   19.8945 H   0  0  0  0  0  0
  -22.3678  -10.9676   19.6164 H   0  0  0  0  0  0
  -21.2017   -7.6145   23.9715 H   0  0  0  0  0  0
  -21.1469   -6.0512   25.9067 H   0  0  0  0  0  0
  -22.0606   -2.7607   23.2839 H   0  0  0  0  0  0
  -22.4069  -11.9954   22.4806 H   0  0  0  0  0  0
  -21.1075  -13.1305   22.2529 H   0  0  0  0  0  0
  -24.6805  -15.8544   20.5070 H   0  0  0  0  0  0
  -26.2968  -15.6127   20.0813 H   0  0  0  0  0  0
  -26.7107  -32.5521   23.1135 H   0  0  0  0  0  0
  -25.0064  -33.9745   25.0474 H   0  0  0  0  0  0
  -22.6932  -31.3074   21.4071 H   0  0  0  0  0  0
  -23.3739  -35.9662   23.3283 H   0  0  0  0  0  0
  -24.3592  -36.8950   22.2053 H   0  0  0  0  0  0
  -23.7241  -37.6527   23.6656 H   0  0  0  0  0  0
  -26.0412  -31.5909   20.5927 H   0  0  0  0  0  0
  -26.8223  -30.8855   21.9793 H   0  0  0  0  0  0
  -28.0996  -29.0840   21.1726 H   0  0  0  0  0  0
  -26.0546  -25.9620   19.0135 H   0  0  0  0  0  0
  -23.9793  -27.2976   19.0238 H   0  0  0  0  0  0
  -23.7221  -30.5947   19.4011 H   0  0  0  0  0  0
  -22.7396  -29.2388   19.8672 H   0  0  0  0  0  0
  -25.1274  -36.1964   25.0825 H   0  0  0  0  0  0
  -20.9936  -28.3215   24.1445 H   0  0  0  0  0  0
  -20.5647  -26.2261   23.3589 H   0  0  0  0  0  0
  -21.6635  -26.7448   22.1223 H   0  0  0  0  0  0
  -19.6917  -25.6298   21.1224 H   0  0  0  0  0  0
  -19.6702  -27.3199   20.6728 H   0  0  0  0  0  0
  -17.4194  -26.6667   21.4006 H   0  0  0  0  0  0
  -18.0342  -26.0055   22.8999 H   0  0  0  0  0  0
  -19.7926  -30.7225   24.2328 H   0  0  0  0  0  0
  -17.5021  -31.6270   24.5152 H   0  0  0  0  0  0
  -15.5351  -30.3011   23.7632 H   0  0  0  0  0  0
  -15.8648  -28.0826   22.7075 H   0  0  0  0  0  0
  -24.5910  -30.7060   25.7828 H   0  0  0  0  0  0
  -24.8959  -32.2871   26.4918 H   0  0  0  0  0  0
  -25.8113  -30.8882   27.0224 H   0  0  0  0  0  0
  -26.2854  -29.6778   24.1158 H   0  0  0  0  0  0
  -27.4094  -29.7262   25.4544 H   0  0  0  0  0  0
  -27.8680  -30.4337   23.9230 H   0  0  0  0  0  0
  -27.2678  -33.3588   26.2086 H   0  0  0  0  0  0
  -28.3871  -32.6862   25.0321 H   0  0  0  0  0  0
  -28.0719  -31.8397   26.5383 H   0  0  0  0  0  0
  -28.2586  -38.0120   24.7511 H   0  0  0  0  0  0
  -28.1089  -36.2649   24.6257 H   0  0  0  0  0  0
  -27.2309  -37.1446   25.8859 H   0  0  0  0  0  0
  -20.9270  -29.8790   21.6981 H   0  0  0  0  0  0
  -26.0177  -38.2865   24.1405 H   0  0  0  0  0  0
  -29.8553  -18.0374   16.9484 H   0  0  0  0  0  0
  -29.5545  -20.1613   18.1217 H   0  0  0  0  0  0
  -30.0304  -15.9200   18.1766 H   0  0  0  0  0  0
  -29.5142  -18.0582   21.9057 H   0  0  0  0  0  0
  -27.2861  -20.0855   20.9340 H   0  0  0  0  0  0
  -27.9964  -21.1111   22.3134 H   0  0  0  0  0  0
  -28.4762  -21.5469   19.2023 H   0  0  0  0  0  0
  -31.2738  -24.3453   19.0313 H   0  0  0  0  0  0
  -31.0573  -25.2625   20.5201 H   0  0  0  0  0  0
  -30.4891  -25.9048   18.9873 H   0  0  0  0  0  0
  -29.1592  -23.3268   17.8431 H   0  0  0  0  0  0
  -28.4891  -24.9479   17.8472 H   0  0  0  0  0  0
  -27.5663  -23.6277   18.5368 H   0  0  0  0  0  0
  -30.5527  -22.7284   20.5020 H   0  0  0  0  0  0
  -29.3805  -23.1603   21.6853 H   0  0  0  0  0  0
  -28.6351  -25.3549   21.6389 H   0  0  0  0  0  0
  -27.2872  -24.9164   20.6441 H   0  0  0  0  0  0
  -29.0829  -15.3424   21.4254 H   0  0  0  0  0  0
  1 25  1  0  0  0
  1 30  2  0  0  0
  1 85  1  0  0  0
  2  3  1  0  0  0
  2 25  1  0  0  0
  2 86  1  0  0  0
  2 87  1  0  0  0
  3  4  1  0  0  0
  3 88  1  0  0  0
  3 89  1  0  0  0
  4  5  1  0  0  0
  4 90  1  0  0  0
  4 91  1  0  0  0
  5  6  1  0  0  0
  5 26  1  0  0  0
  5 92  1  0  0  0
  6 25  1  0  0  0
  6 93  1  0  0  0
  6 94  1  0  0  0
  7  8  2  0  0  0
  7 26  1  0  0  0
  7 29  1  0  0  0
  8  9  1  0  0  0
  8 22  1  0  0  0
  9 10  1  0  0  0
  9 27  2  0  0  0
 10 11  2  0  0  0
 10 15  1  0  0  0
 11 12  1  0  0  0
 11 95  1  0  0  0
 12 13  2  0  0  0
 12 96  1  0  0  0
 13 14  1  0  0  0
 13 31  1  0  0  0
 14 15  2  0  0  0
 14 97  1  0  0  0
 15 98  1  0  0  0
 16 17  2  0  0  0
 16 21  1  0  0  0
 16 31  1  0  0  0
 17 18  1  0  0  0
 17 99  1  0  0  0
 18 19  2  0  0  0
 18100  1  0  0  0
 19 20  1  0  0  0
 19 24  1  0  0  0
 20 21  2  0  0  0
 20101  1  0  0  0
 21 23  1  0  0  0
 22 28  1  0  0  0
 22 32  2  0  0  0
 26 27  1  0  0  0
 28102  1  0  0  0
 28103  1  0  0  0
 29104  1  0  0  0
 29105  1  0  0  0
 33 34  1  0  0  0
 33 66  1  0  0  0
 33 70  2  0  0  0
 34 36  1  0  0  0
 34 59  1  0  0  0
 34106  1  0  0  0
 35 44  2  0  0  0
 35 45  1  0  0  0
 35 68  1  0  0  0
 36 56  1  0  0  0
 36107  1  0  0  0
 37 39  1  0  0  0
 37 47  1  0  0  0
 37 66  1  0  0  0
 37108  1  0  0  0
 38 43  2  0  0  0
 38 46  1  0  0  0
 38 47  1  0  0  0
 39 64  1  0  0  0
 39 67  2  0  0  0
 40 52  1  0  0  0
 40 53  2  0  0  0
 40 58  1  0  0  0
 41109  1  0  0  0
 41110  1  0  0  0
 41111  1  0  0  0
 41 48  1  0  0  0
 42 43  1  0  0  0
 42 66  1  0  0  0
 42112  1  0  0  0
 42113  1  0  0  0
 43 44  1  0  0  0
 44114  1  0  0  0
 45 46  2  0  0  0
 45115  1  0  0  0
 46116  1  0  0  0
 47117  1  0  0  0
 47118  1  0  0  0
 48 56  1  0  0  0
 48 65  1  0  0  0
 48119  1  0  0  0
 49 50  1  0  0  0
 49 53  1  0  0  0
 49 64  1  0  0  0
 49120  1  0  0  0
 50 51  1  0  0  0
 50121  1  0  0  0
 50122  1  0  0  0
 51 52  1  0  0  0
 51123  1  0  0  0
 51124  1  0  0  0
 52125  1  0  0  0
 52126  1  0  0  0
 53 54  1  0  0  0
 54 55  2  0  0  0
 54127  1  0  0  0
 55 57  1  0  0  0
 55128  1  0  0  0
 56 69  2  0  0  0
 57 58  2  0  0  0
 57129  1  0  0  0
 58130  1  0  0  0
 59 60  1  0  0  0
 59 61  1  0  0  0
 59 62  1  0  0  0
 60131  1  0  0  0
 60132  1  0  0  0
 60133  1  0  0  0
 61134  1  0  0  0
 61135  1  0  0  0
 61136  1  0  0  0
 62137  1  0  0  0
 62138  1  0  0  0
 62139  1  0  0  0
 63 65  1  0  0  0
 63140  1  0  0  0
 63141  1  0  0  0
 63142  1  0  0  0
 64143  1  0  0  0
 65144  1  0  0  0
 68 82  1  0  0  0
 71 72  2  0  0  0
 71 73  1  0  0  0
 71145  1  0  0  0
 72 75  1  0  0  0
 72146  1  0  0  0
 73 76  2  0  0  0
 73147  1  0  0  0
 74 75  2  0  0  0
 74 76  1  0  0  0
 74148  1  0  0  0
 75 84  1  0  0  0
 76 85  1  0  0  0
 77 78  1  0  0  0
 77 84  1  0  0  0
 77149  1  0  0  0
 77150  1  0  0  0
 78 81  1  0  0  0
 78 84  1  0  0  0
 78151  1  0  0  0
 79152  1  0  0  0
 79153  1  0  0  0
 79154  1  0  0  0
 79 83  1  0  0  0
 80 83  1  0  0  0
 80155  1  0  0  0
 80156  1  0  0  0
 80157  1  0  0  0
 81 83  1  0  0  0
 81158  1  0  0  0
 81159  1  0  0  0
 82 83  1  0  0  0
 82160  1  0  0  0
 82161  1  0  0  0
 85162  1  0  0  0
M  ISO  4   1 100  68 101  82 101  85 100
M  END
> <chiral flag>
0

> <version>
0

> <s_m_source_file>
/data/baiqing/PycharmProjects/Reinvent-master-3.2/result/LINK_invent/BTK/process_docking_weight1_custom_product_contain_oxygen_bond_distance_aromatic_linkinvent_7_9_3/rearranged_h_0142.sdf

> <i_m_source_file_index>
37

> <r_mmod_Potential_Energy-OPLS-2005>
89.8339691162109

> <r_mmod_Stretch_Energy-OPLS-2005>
46.8835372924805

> <r_mmod_Bend_Energy-OPLS-2005>
114.817687988281

> <r_mmod_Torsional_Energy-OPLS-2005>
316.344512939453

> <r_mmod_Improper_Torsional_Energy-OPLS-2005>
13.5179738998413

> <r_mmod_Van_der_Waal_Energy-OPLS-2005>
155.661926269531

> <r_mmod_Electrostatic_Energy-OPLS-2005>
-352.80615234375

> <r_mmod_Solvation_Energy-OPLS-2005>
-222.504089355469

> <b_mmod_Minimization_Converged-OPLS-2005>
0

> <r_mmod_RMS_Derivative-OPLS-2005>
2.60564398765564

$$$$
37
                    3D
 Structure written by MMmdl.
164172  0  0  1  0            999 V2000
  -30.5249  -14.9733   20.4255 C   0  0  0  0  0  0
  -30.4295  -12.5967   19.5118 C   0  0  0  0  0  0
  -29.5228  -12.5362   18.2590 C   0  0  0  0  0  0
  -28.0500  -12.3272   18.6610 C   0  0  0  0  0  0
  -27.6256  -13.2490   19.8343 C   0  0  2  0  0  0
  -28.6598  -13.2596   20.9753 C   0  0  0  0  0  0
  -25.2429  -13.8211   20.5664 C   0  0  0  0  0  0
  -24.1762  -13.0419   20.9188 C   0  0  0  0  0  0
  -24.6387  -11.6914   20.8736 C   0  0  0  0  0  0
  -23.9081  -10.4288   21.0405 C   0  0  0  0  0  0
  -24.3623   -9.4215   21.9192 C   0  0  0  0  0  0
  -23.6303   -8.2255   22.0753 C   0  0  0  0  0  0
  -22.4288   -8.0292   21.3547 C   0  0  0  0  0  0
  -21.9920   -9.0261   20.4643 C   0  0  0  0  0  0
  -22.7251  -10.2136   20.3053 C   0  0  0  0  0  0
  -21.6858   -6.0742   22.5290 C   0  0  0  0  0  0
  -21.4036   -6.5642   23.8231 C   0  0  0  0  0  0
  -21.3653   -5.6777   24.9180 C   0  0  0  0  0  0
  -21.6024   -4.3046   24.7221 C   0  0  0  0  0  0
  -21.8832   -3.8149   23.4343 C   0  0  0  0  0  0
  -21.9185   -4.6970   22.3396 C   0  0  0  0  0  0
  -22.7783  -13.5213   21.1829 C   0  0  0  0  0  0
  -22.1652   -4.2161   21.0982 F   0  0  0  0  0  0
  -21.5604   -3.4538   25.7738 F   0  0  0  0  0  0
  -29.9390  -13.6987   20.3970 N   0  0  0  0  0  0
  -26.2843  -12.9431   20.3172 N   0  0  0  0  0  0
  -25.9307  -11.6562   20.5681 N   0  0  0  0  0  0
  -22.0393  -12.8218   22.0367 N   0  0  0  0  0  0
  -25.4067  -15.1951   20.4163 N   0  0  0  0  0  0
  -31.6790  -15.0498   19.9854 O   0  0  0  0  0  0
  -21.6646   -6.8899   21.4259 O   0  0  0  0  0  0
  -22.3470  -14.5517   20.6680 O   0  0  0  0  0  0
  -24.6481  -31.8362   23.1830 C   0  0  0  0  0  0
  -25.9235  -32.4654   23.8250 C   0  0  1  0  0  0
  -27.2407  -27.1202   20.1356 C   0  0  0  0  0  0
  -25.5955  -33.8462   24.2165 N   0  0  0  0  0  0
  -23.4529  -30.4506   21.5262 C   0  0  2  0  0  0
  -24.9041  -28.8647   20.1009 C   0  0  0  0  0  0
  -22.7592  -29.4482   22.4831 C   0  0  0  0  0  0
  -18.0310  -28.1407   22.8457 C   0  0  0  0  0  0
  -24.1473  -36.7231   23.2652 C   0  0  0  0  0  0
  -26.0084  -30.7007   21.3834 C   0  0  0  0  0  0
  -26.0777  -29.3112   20.7213 C   0  0  0  0  0  0
  -27.2377  -28.4505   20.7255 C   0  0  0  0  0  0
  -26.0470  -26.7724   19.4710 C   0  0  0  0  0  0
  -24.9017  -27.6101   19.4613 C   0  0  0  0  0  0
  -23.6786  -29.7684   20.1468 C   0  0  0  0  0  0
  -25.4112  -36.3010   24.0320 C   0  0  1  0  0  0
  -20.5923  -28.3705   23.1244 C   0  0  2  0  0  0
  -20.6772  -26.9410   22.5395 C   0  0  0  0  0  0
  -19.5751  -26.6382   21.5206 C   0  0  0  0  0  0
  -18.1935  -26.7944   22.1614 C   0  0  0  0  0  0
  -19.1566  -28.8879   23.2831 C   0  0  0  0  0  0
  -18.9486  -30.1485   23.8845 C   0  0  0  0  0  0
  -17.6476  -30.6592   24.0554 C   0  0  0  0  0  0
  -25.9072  -34.9388   23.5056 C   0  0  0  0  0  0
  -16.5367  -29.9078   23.6347 C   0  0  0  0  0  0
  -16.7290  -28.6507   23.0345 C   0  0  0  0  0  0
  -26.4538  -31.6574   25.0724 C   0  0  0  0  0  0
  -25.3721  -31.3779   26.1416 C   0  0  0  0  0  0
  -27.0437  -30.2970   24.6365 C   0  0  0  0  0  0
  -27.6043  -32.4372   25.7505 C   0  0  0  0  0  0
  -27.5565  -37.1771   24.8473 C   0  0  0  0  0  0
  -21.4275  -29.3020   22.3600 N   0  0  0  0  0  0
  -26.4270  -37.3738   23.9426 N   0  0  0  0  0  0
  -24.7226  -31.0196   22.0849 N   0  0  0  0  0  0
  -23.4220  -28.8059   23.3006 O   0  0  0  0  0  0
  -28.3234  -26.1750   20.2747 O   0  0  0  0  0  0
  -26.5671  -34.8893   22.4643 O   0  0  0  0  0  0
  -23.5585  -32.1244   23.7032 O   0  0  0  0  0  0
  -29.4526  -18.7926   22.1087 C   0  0  0  0  0  0
  -29.6128  -17.6880   22.8578 C   0  0  0  0  0  0
  -29.5992  -17.4698   20.1142 C   0  0  0  0  0  0
  -29.3433  -18.7647   20.6643 C   0  0  0  0  0  0
  -29.7139  -16.2707   22.3117 C   0  0  0  0  0  0
  -29.8731  -21.8986   18.5610 C   0  0  0  0  0  0
  -30.3767  -21.8984   20.9692 C   0  0  0  0  0  0
  -27.7626  -23.2418   21.6129 C   0  0  0  0  0  0
  -26.9105  -22.8423   19.3208 C   0  0  0  0  0  0
  -28.6844  -20.1413   19.9909 C   0  0  0  0  0  0
  -28.5786  -24.7511   19.6719 C   0  0  0  0  0  0
  -29.2214  -21.7718   19.9567 C   0  0  0  0  0  0
  -28.1835  -23.1522   20.1357 C   0  0  0  0  0  0
  -29.8247  -16.1609   20.8391 N   0  0  0  0  0  0
  -31.4681  -12.7368   19.2142 H   0  0  0  0  0  0
  -30.4144  -11.6419   20.0416 H   0  0  0  0  0  0
  -29.8489  -11.7354   17.5925 H   0  0  0  0  0  0
  -29.6247  -13.4614   17.6906 H   0  0  0  0  0  0
  -27.9241  -11.2825   18.9504 H   0  0  0  0  0  0
  -27.3959  -12.4822   17.8033 H   0  0  0  0  0  0
  -27.5904  -14.2605   19.4238 H   0  0  0  0  0  0
  -28.7530  -12.2756   21.4360 H   0  0  0  0  0  0
  -28.3194  -13.9249   21.7625 H   0  0  0  0  0  0
  -25.2764   -9.5690   22.4776 H   0  0  0  0  0  0
  -23.9989   -7.4650   22.7482 H   0  0  0  0  0  0
  -21.0837   -8.8792   19.8972 H   0  0  0  0  0  0
  -22.3714  -10.9673   19.6160 H   0  0  0  0  0  0
  -21.2089   -7.6157   23.9763 H   0  0  0  0  0  0
  -21.1427   -6.0481   25.9082 H   0  0  0  0  0  0
  -22.0619   -2.7617   23.2821 H   0  0  0  0  0  0
  -22.3959  -11.9883   22.4803 H   0  0  0  0  0  0
  -21.1000  -13.1280   22.2521 H   0  0  0  0  0  0
  -24.6389  -15.8388   20.5666 H   0  0  0  0  0  0
  -26.2632  -15.6575   20.1389 H   0  0  0  0  0  0
  -26.7308  -32.5209   23.0973 H   0  0  0  0  0  0
  -25.0114  -33.9576   25.0322 H   0  0  0  0  0  0
  -22.7572  -31.2767   21.3658 H   0  0  0  0  0  0
  -23.3753  -35.9544   23.3300 H   0  0  0  0  0  0
  -24.3549  -36.8870   22.2067 H   0  0  0  0  0  0
  -23.7199  -37.6410   23.6694 H   0  0  0  0  0  0
  -26.1802  -31.4572   20.6160 H   0  0  0  0  0  0
  -26.8756  -30.7417   22.0322 H   0  0  0  0  0  0
  -28.1298  -28.7877   21.2346 H   0  0  0  0  0  0
  -25.9736  -25.8096   18.9891 H   0  0  0  0  0  0
  -24.0040  -27.2636   18.9659 H   0  0  0  0  0  0
  -23.8124  -30.5387   19.3867 H   0  0  0  0  0  0
  -22.7931  -29.2090   19.8416 H   0  0  0  0  0  0
  -25.1294  -36.1828   25.0814 H   0  0  0  0  0  0
  -21.0019  -28.3283   24.1367 H   0  0  0  0  0  0
  -20.5641  -26.2322   23.3606 H   0  0  0  0  0  0
  -21.6639  -26.7372   22.1218 H   0  0  0  0  0  0
  -19.6891  -25.6285   21.1264 H   0  0  0  0  0  0
  -19.6720  -27.3166   20.6726 H   0  0  0  0  0  0
  -17.4199  -26.6702   21.4009 H   0  0  0  0  0  0
  -18.0313  -26.0092   22.9019 H   0  0  0  0  0  0
  -19.7956  -30.7324   24.2178 H   0  0  0  0  0  0
  -17.5024  -31.6265   24.5175 H   0  0  0  0  0  0
  -15.5362  -30.2959   23.7708 H   0  0  0  0  0  0
  -15.8693  -28.0821   22.7079 H   0  0  0  0  0  0
  -24.5887  -30.7126   25.7770 H   0  0  0  0  0  0
  -24.8918  -32.2961   26.4806 H   0  0  0  0  0  0
  -25.7998  -30.8989   27.0234 H   0  0  0  0  0  0
  -26.3094  -29.6656   24.1333 H   0  0  0  0  0  0
  -27.4010  -29.7294   25.4982 H   0  0  0  0  0  0
  -27.9005  -30.4228   23.9733 H   0  0  0  0  0  0
  -27.2627  -33.3702   26.2005 H   0  0  0  0  0  0
  -28.3893  -32.6901   25.0367 H   0  0  0  0  0  0
  -28.0676  -31.8559   26.5491 H   0  0  0  0  0  0
  -28.2583  -38.0071   24.7527 H   0  0  0  0  0  0
  -28.1063  -36.2601   24.6284 H   0  0  0  0  0  0
  -27.2292  -37.1395   25.8880 H   0  0  0  0  0  0
  -20.9502  -29.8723   21.6768 H   0  0  0  0  0  0
  -26.0124  -38.2798   24.1445 H   0  0  0  0  0  0
  -29.3761  -19.7405   22.6163 H   0  0  0  0  0  0
  -29.6641  -17.7864   23.9331 H   0  0  0  0  0  0
  -29.4693  -17.3012   19.0534 H   0  0  0  0  0  0
  -28.8269  -15.7473   22.6621 H   0  0  0  0  0  0
  -30.5702  -15.7992   22.8006 H   0  0  0  0  0  0
  -30.6274  -21.1239   18.4033 H   0  0  0  0  0  0
  -30.3720  -22.8578   18.4207 H   0  0  0  0  0  0
  -29.1432  -21.7911   17.7583 H   0  0  0  0  0  0
  -31.1296  -21.1246   20.8143 H   0  0  0  0  0  0
  -30.0351  -21.8012   21.9979 H   0  0  0  0  0  0
  -30.8782  -22.8634   20.8823 H   0  0  0  0  0  0
  -26.9473  -23.9548   21.7441 H   0  0  0  0  0  0
  -28.5829  -23.5877   22.2413 H   0  0  0  0  0  0
  -27.4289  -22.2755   21.9927 H   0  0  0  0  0  0
  -26.1428  -23.5990   19.4828 H   0  0  0  0  0  0
  -26.4757  -21.8797   19.5819 H   0  0  0  0  0  0
  -27.1170  -22.8282   18.2492 H   0  0  0  0  0  0
  -27.7190  -20.1909   20.4949 H   0  0  0  0  0  0
  -28.4092  -19.8629   18.9724 H   0  0  0  0  0  0
  -28.3898  -24.8498   18.6025 H   0  0  0  0  0  0
  -29.6666  -24.7332   19.7186 H   0  0  0  0  0  0
  1 25  1  0  0  0
  1 30  2  0  0  0
  1 84  1  0  0  0
  2  3  1  0  0  0
  2 25  1  0  0  0
  2 85  1  0  0  0
  2 86  1  0  0  0
  3  4  1  0  0  0
  3 87  1  0  0  0
  3 88  1  0  0  0
  4  5  1  0  0  0
  4 89  1  0  0  0
  4 90  1  0  0  0
  5  6  1  0  0  0
  5 26  1  0  0  0
  5 91  1  0  0  0
  6 25  1  0  0  0
  6 92  1  0  0  0
  6 93  1  0  0  0
  7  8  2  0  0  0
  7 26  1  0  0  0
  7 29  1  0  0  0
  8  9  1  0  0  0
  8 22  1  0  0  0
  9 10  1  0  0  0
  9 27  2  0  0  0
 10 11  2  0  0  0
 10 15  1  0  0  0
 11 12  1  0  0  0
 11 94  1  0  0  0
 12 13  2  0  0  0
 12 95  1  0  0  0
 13 14  1  0  0  0
 13 31  1  0  0  0
 14 15  2  0  0  0
 14 96  1  0  0  0
 15 97  1  0  0  0
 16 17  2  0  0  0
 16 21  1  0  0  0
 16 31  1  0  0  0
 17 18  1  0  0  0
 17 98  1  0  0  0
 18 19  2  0  0  0
 18 99  1  0  0  0
 19 20  1  0  0  0
 19 24  1  0  0  0
 20 21  2  0  0  0
 20100  1  0  0  0
 21 23  1  0  0  0
 22 28  1  0  0  0
 22 32  2  0  0  0
 26 27  1  0  0  0
 28101  1  0  0  0
 28102  1  0  0  0
 29103  1  0  0  0
 29104  1  0  0  0
 33 34  1  0  0  0
 33 66  1  0  0  0
 33 70  2  0  0  0
 34 36  1  0  0  0
 34 59  1  0  0  0
 34105  1  0  0  0
 35 44  2  0  0  0
 35 45  1  0  0  0
 35 68  1  0  0  0
 36 56  1  0  0  0
 36106  1  0  0  0
 37 39  1  0  0  0
 37 47  1  0  0  0
 37 66  1  0  0  0
 37107  1  0  0  0
 38 43  2  0  0  0
 38 46  1  0  0  0
 38 47  1  0  0  0
 39 64  1  0  0  0
 39 67  2  0  0  0
 40 52  1  0  0  0
 40 53  2  0  0  0
 40 58  1  0  0  0
 41108  1  0  0  0
 41109  1  0  0  0
 41110  1  0  0  0
 41 48  1  0  0  0
 42 43  1  0  0  0
 42 66  1  0  0  0
 42111  1  0  0  0
 42112  1  0  0  0
 43 44  1  0  0  0
 44113  1  0  0  0
 45 46  2  0  0  0
 45114  1  0  0  0
 46115  1  0  0  0
 47116  1  0  0  0
 47117  1  0  0  0
 48 56  1  0  0  0
 48 65  1  0  0  0
 48118  1  0  0  0
 49 50  1  0  0  0
 49 53  1  0  0  0
 49 64  1  0  0  0
 49119  1  0  0  0
 50 51  1  0  0  0
 50120  1  0  0  0
 50121  1  0  0  0
 51 52  1  0  0  0
 51122  1  0  0  0
 51123  1  0  0  0
 52124  1  0  0  0
 52125  1  0  0  0
 53 54  1  0  0  0
 54 55  2  0  0  0
 54126  1  0  0  0
 55 57  1  0  0  0
 55127  1  0  0  0
 56 69  2  0  0  0
 57 58  2  0  0  0
 57128  1  0  0  0
 58129  1  0  0  0
 59 60  1  0  0  0
 59 61  1  0  0  0
 59 62  1  0  0  0
 60130  1  0  0  0
 60131  1  0  0  0
 60132  1  0  0  0
 61133  1  0  0  0
 61134  1  0  0  0
 61135  1  0  0  0
 62136  1  0  0  0
 62137  1  0  0  0
 62138  1  0  0  0
 63 65  1  0  0  0
 63139  1  0  0  0
 63140  1  0  0  0
 63141  1  0  0  0
 64142  1  0  0  0
 65143  1  0  0  0
 68 81  1  0  0  0
 71 72  2  0  0  0
 71 74  1  0  0  0
 71144  1  0  0  0
 72 75  1  0  0  0
 72145  1  0  0  0
 73 74  2  0  0  0
 73 84  1  0  0  0
 73146  1  0  0  0
 74 80  1  0  0  0
 75 84  1  0  0  0
 75147  1  0  0  0
 75148  1  0  0  0
 76149  1  0  0  0
 76150  1  0  0  0
 76151  1  0  0  0
 76 82  1  0  0  0
 77 82  1  0  0  0
 77152  1  0  0  0
 77153  1  0  0  0
 77154  1  0  0  0
 78155  1  0  0  0
 78156  1  0  0  0
 78157  1  0  0  0
 78 83  1  0  0  0
 79 83  1  0  0  0
 79158  1  0  0  0
 79159  1  0  0  0
 79160  1  0  0  0
 80 82  1  0  0  0
 80161  1  0  0  0
 80162  1  0  0  0
 81 83  1  0  0  0
 81163  1  0  0  0
 81164  1  0  0  0
 82 83  1  0  0  0
M  ISO  4   1 100  68 101  81 101  84 100
M  END
> <chiral flag>
0

> <version>
0

> <s_m_source_file>
/data/baiqing/PycharmProjects/Reinvent-master-3.2/result/LINK_invent/BTK/process_docking_weight1_custom_product_contain_oxygen_bond_distance_aromatic_linkinvent_7_9_3/rearranged_h_0142.sdf

> <i_m_source_file_index>
38

> <r_mmod_Potential_Energy-OPLS-2005>
846.080749511719

> <r_mmod_Stretch_Energy-OPLS-2005>
329.272247314453

> <r_mmod_Bend_Energy-OPLS-2005>
357.580200195312

> <r_mmod_Torsional_Energy-OPLS-2005>
333.093078613281

> <r_mmod_Improper_Torsional_Energy-OPLS-2005>
4.23506164550781

> <r_mmod_Van_der_Waal_Energy-OPLS-2005>
123.230529785156

> <r_mmod_Electrostatic_Energy-OPLS-2005>
-325.725067138672

> <r_mmod_Solvation_Energy-OPLS-2005>
-180.877777099609

> <b_mmod_Minimization_Converged-OPLS-2005>
0

> <r_mmod_RMS_Derivative-OPLS-2005>
3.46633982658386

$$$$
38
                    3D
 Structure written by MMmdl.
176185  0  0  1  0            999 V2000
  -30.6002  -14.6020   20.5100 C   0  0  0  0  0  0
  -30.4294  -12.3704   19.4409 C   0  0  0  0  0  0
  -29.5010  -12.5005   18.2137 C   0  0  0  0  0  0
  -28.0213  -12.3417   18.6222 C   0  0  0  0  0  0
  -27.6451  -13.2049   19.8554 C   0  0  2  0  0  0
  -28.6833  -13.0409   20.9861 C   0  0  0  0  0  0
  -25.2541  -13.8140   20.5664 C   0  0  0  0  0  0
  -24.1808  -13.0425   20.9206 C   0  0  0  0  0  0
  -24.6353  -11.6894   20.8724 C   0  0  0  0  0  0
  -23.9030  -10.4288   21.0404 C   0  0  0  0  0  0
  -24.3601   -9.4205   21.9178 C   0  0  0  0  0  0
  -23.6290   -8.2234   22.0739 C   0  0  0  0  0  0
  -22.4266   -8.0272   21.3536 C   0  0  0  0  0  0
  -21.9898   -9.0237   20.4634 C   0  0  0  0  0  0
  -22.7208  -10.2122   20.3050 C   0  0  0  0  0  0
  -21.6852   -6.0731   22.5275 C   0  0  0  0  0  0
  -21.4015   -6.5636   23.8210 C   0  0  0  0  0  0
  -21.3661   -5.6787   24.9170 C   0  0  0  0  0  0
  -21.6041   -4.3050   24.7220 C   0  0  0  0  0  0
  -21.8823   -3.8140   23.4340 C   0  0  0  0  0  0
  -21.9197   -4.6960   22.3396 C   0  0  0  0  0  0
  -22.7841  -13.5234   21.1876 C   0  0  0  0  0  0
  -22.1667   -4.2151   21.0974 F   0  0  0  0  0  0
  -21.5631   -3.4532   25.7735 F   0  0  0  0  0  0
  -29.9980  -13.3797   20.4241 N   0  0  0  0  0  0
  -26.2924  -12.9290   20.3240 N   0  0  0  0  0  0
  -25.9265  -11.6457   20.5699 N   0  0  0  0  0  0
  -22.0480  -12.8219   22.0422 N   0  0  0  0  0  0
  -25.4274  -15.1862   20.4055 N   0  0  0  0  0  0
  -31.7762  -14.7639   20.1669 O   0  0  0  0  0  0
  -21.6629   -6.8865   21.4236 O   0  0  0  0  0  0
  -22.3538  -14.5548   20.6725 O   0  0  0  0  0  0
  -24.6222  -31.8621   23.1996 C   0  0  0  0  0  0
  -25.9084  -32.4799   23.8325 C   0  0  1  0  0  0
  -27.2321  -27.3453   20.1217 C   0  0  0  0  0  0
  -25.5907  -33.8591   24.2273 N   0  0  0  0  0  0
  -23.4150  -30.4819   21.5412 C   0  0  2  0  0  0
  -24.8599  -28.9292   20.1080 C   0  0  0  0  0  0
  -22.7451  -29.4644   22.4941 C   0  0  0  0  0  0
  -18.0293  -28.1419   22.8512 C   0  0  0  0  0  0
  -24.1479  -36.7270   23.2642 C   0  0  0  0  0  0
  -25.9492  -30.8008   21.3634 C   0  0  0  0  0  0
  -26.0200  -29.4262   20.7128 C   0  0  0  0  0  0
  -27.2021  -28.6417   20.7128 C   0  0  0  0  0  0
  -26.0557  -26.8813   19.4980 C   0  0  0  0  0  0
  -24.8773  -27.6610   19.4953 C   0  0  0  0  0  0
  -23.6252  -29.8073   20.1576 C   0  0  0  0  0  0
  -25.4115  -36.3093   24.0337 C   0  0  1  0  0  0
  -20.5898  -28.3716   23.1307 C   0  0  2  0  0  0
  -20.6774  -26.9439   22.5433 C   0  0  0  0  0  0
  -19.5747  -26.6417   21.5234 C   0  0  0  0  0  0
  -18.1928  -26.7975   22.1635 C   0  0  0  0  0  0
  -19.1548  -28.8886   23.2916 C   0  0  0  0  0  0
  -18.9466  -30.1484   23.8939 C   0  0  0  0  0  0
  -17.6463  -30.6615   24.0591 C   0  0  0  0  0  0
  -25.9053  -34.9466   23.5117 C   0  0  0  0  0  0
  -16.5356  -29.9121   23.6329 C   0  0  0  0  0  0
  -16.7285  -28.6536   23.0362 C   0  0  0  0  0  0
  -26.4479  -31.6615   25.0690 C   0  0  0  0  0  0
  -25.3715  -31.3749   26.1426 C   0  0  0  0  0  0
  -27.0299  -30.3040   24.6116 C   0  0  0  0  0  0
  -27.6068  -32.4328   25.7436 C   0  0  0  0  0  0
  -27.5592  -37.1790   24.8474 C   0  0  0  0  0  0
  -21.4180  -29.3055   22.3679 N   0  0  0  0  0  0
  -26.4290  -37.3793   23.9428 N   0  0  0  0  0  0
  -24.6806  -31.0654   22.0921 N   0  0  0  0  0  0
  -23.4185  -28.8193   23.3030 O   0  0  0  0  0  0
  -28.4046  -26.5958   20.1897 O   0  0  0  0  0  0
  -26.5626  -34.8937   22.4684 O   0  0  0  0  0  0
  -23.5405  -32.1415   23.7343 O   0  0  0  0  0  0
  -30.4451  -19.8647   21.3962 C   0  0  0  0  0  0
  -28.9459  -18.0421   20.7829 C   0  0  0  0  0  0
  -31.2718  -17.5548   21.2863 C   0  0  0  0  0  0
  -29.1443  -19.4443   21.0508 C   0  0  0  0  0  0
  -31.4963  -18.9279   21.5267 C   0  0  0  0  0  0
  -30.0008  -17.0752   20.9033 C   0  0  0  0  0  0
  -28.2510  -24.1206   20.4770 C   0  0  0  0  0  0
  -28.5739  -25.2616   19.7903 C   0  0  0  0  0  0
  -27.9948  -20.3930   21.2546 C   0  0  0  0  0  0
  -27.3317  -24.0436   21.6641 C   0  0  0  0  0  0
  -28.7486  -22.6761   20.1849 C   0  0  0  0  0  0
  -26.8541  -22.5834   21.6804 C   0  0  0  0  0  0
  -35.4695  -17.5548   22.1112 C   0  0  0  0  0  0
  -33.8087  -18.6810   19.7412 C   0  0  0  0  0  0
  -34.1713  -20.9651   20.6536 C   0  0  0  0  0  0
  -32.8459  -19.3800   22.0658 C   0  0  0  0  0  0
  -35.3567  -19.0405   21.7162 C   0  0  0  0  0  0
  -34.0259  -19.4812   21.0474 C   0  0  0  0  0  0
  -27.9045  -21.7588   21.0218 N   0  0  0  0  0  0
  -29.7512  -15.6477   20.7581 N   0  0  0  0  0  0
  -26.9292  -19.8311   21.8256 N   0  3  0  0  0  0
  -31.4711  -12.5026   19.1433 H   0  0  0  0  0  0
  -30.3642  -11.3691   19.8702 H   0  0  0  0  0  0
  -29.7609  -11.7544   17.4613 H   0  0  0  0  0  0
  -29.6499  -13.4736   17.7419 H   0  0  0  0  0  0
  -27.8527  -11.2870   18.8445 H   0  0  0  0  0  0
  -27.3706  -12.5816   17.7804 H   0  0  0  0  0  0
  -27.6656  -14.2410   19.5180 H   0  0  0  0  0  0
  -28.6868  -12.0151   21.3591 H   0  0  0  0  0  0
  -28.4317  -13.6669   21.8439 H   0  0  0  0  0  0
  -25.2748   -9.5693   22.4745 H   0  0  0  0  0  0
  -24.0015   -7.4620   22.7450 H   0  0  0  0  0  0
  -21.0833   -8.8743   19.8934 H   0  0  0  0  0  0
  -22.3663  -10.9662   19.6160 H   0  0  0  0  0  0
  -21.2002   -7.6145   23.9715 H   0  0  0  0  0  0
  -21.1481   -6.0512   25.9075 H   0  0  0  0  0  0
  -22.0601   -2.7607   23.2833 H   0  0  0  0  0  0
  -22.4080  -11.9872   22.4802 H   0  0  0  0  0  0
  -21.1096  -13.1239   22.2620 H   0  0  0  0  0  0
  -24.6472  -15.8290   20.4824 H   0  0  0  0  0  0
  -26.2442  -15.6071   19.9841 H   0  0  0  0  0  0
  -26.7155  -32.5483   23.1077 H   0  0  0  0  0  0
  -25.0048  -33.9728   25.0417 H   0  0  0  0  0  0
  -22.7075  -31.3012   21.3971 H   0  0  0  0  0  0
  -23.3762  -35.9583   23.3315 H   0  0  0  0  0  0
  -24.3565  -36.8871   22.2055 H   0  0  0  0  0  0
  -23.7193  -37.6460   23.6642 H   0  0  0  0  0  0
  -26.0737  -31.5619   20.5910 H   0  0  0  0  0  0
  -26.8312  -30.8541   21.9892 H   0  0  0  0  0  0
  -28.0977  -29.0185   21.1852 H   0  0  0  0  0  0
  -26.0380  -25.9066   19.0312 H   0  0  0  0  0  0
  -23.9845  -27.2747   19.0225 H   0  0  0  0  0  0
  -23.7414  -30.5795   19.3969 H   0  0  0  0  0  0
  -22.7454  -29.2336   19.8606 H   0  0  0  0  0  0
  -25.1290  -36.1949   25.0826 H   0  0  0  0  0  0
  -21.0030  -28.3324   24.1412 H   0  0  0  0  0  0
  -20.5693  -26.2327   23.3633 H   0  0  0  0  0  0
  -21.6644  -26.7480   22.1221 H   0  0  0  0  0  0
  -19.6887  -25.6329   21.1260 H   0  0  0  0  0  0
  -19.6679  -27.3229   20.6763 H   0  0  0  0  0  0
  -17.4197  -26.6766   21.4030 H   0  0  0  0  0  0
  -18.0297  -26.0116   22.9018 H   0  0  0  0  0  0
  -19.7937  -30.7304   24.2326 H   0  0  0  0  0  0
  -17.5005  -31.6293   24.5187 H   0  0  0  0  0  0
  -15.5359  -30.3024   23.7618 H   0  0  0  0  0  0
  -15.8686  -28.0843   22.7076 H   0  0  0  0  0  0
  -24.5888  -30.7108   25.7742 H   0  0  0  0  0  0
  -24.8921  -32.2922   26.4856 H   0  0  0  0  0  0
  -25.8047  -30.8915   27.0194 H   0  0  0  0  0  0
  -26.2853  -29.6792   24.1175 H   0  0  0  0  0  0
  -27.4039  -29.7299   25.4604 H   0  0  0  0  0  0
  -27.8699  -30.4322   23.9282 H   0  0  0  0  0  0
  -27.2721  -33.3642   26.2015 H   0  0  0  0  0  0
  -28.3862  -32.6872   25.0234 H   0  0  0  0  0  0
  -28.0746  -31.8443   26.5339 H   0  0  0  0  0  0
  -28.2633  -38.0074   24.7552 H   0  0  0  0  0  0
  -28.1064  -36.2611   24.6262 H   0  0  0  0  0  0
  -27.2317  -37.1422   25.8881 H   0  0  0  0  0  0
  -20.9341  -29.8711   21.6842 H   0  0  0  0  0  0
  -26.0178  -38.2865   24.1445 H   0  0  0  0  0  0
  -30.6172  -20.8940   21.6747 H   0  0  0  0  0  0
  -27.9495  -17.6935   20.5495 H   0  0  0  0  0  0
  -32.0877  -16.8672   21.4540 H   0  0  0  0  0  0
  -29.2433  -25.2147   18.9420 H   0  0  0  0  0  0
  -26.5053  -24.7492   21.5827 H   0  0  0  0  0  0
  -27.8877  -24.2676   22.5745 H   0  0  0  0  0  0
  -29.8016  -22.5959   20.4560 H   0  0  0  0  0  0
  -28.6526  -22.4415   19.1244 H   0  0  0  0  0  0
  -25.9212  -22.4885   21.1207 H   0  0  0  0  0  0
  -26.6573  -22.2679   22.7077 H   0  0  0  0  0  0
  -36.4346  -17.3618   22.5804 H   0  0  0  0  0  0
  -35.3996  -16.8949   21.2470 H   0  0  0  0  0  0
  -34.7079  -17.2486   22.8270 H   0  0  0  0  0  0
  -32.9404  -19.0378   19.1868 H   0  0  0  0  0  0
  -33.6644  -17.6174   19.9235 H   0  0  0  0  0  0
  -34.6686  -18.7721   19.0769 H   0  0  0  0  0  0
  -33.2618  -21.3428   20.1847 H   0  0  0  0  0  0
  -34.9898  -21.1188   19.9493 H   0  0  0  0  0  0
  -34.3732  -21.5947   21.5218 H   0  0  0  0  0  0
  -33.0842  -18.6776   22.8630 H   0  0  0  0  0  0
  -32.7198  -20.3237   22.5981 H   0  0  0  0  0  0
  -36.1864  -19.2682   21.0454 H   0  0  0  0  0  0
  -35.5296  -19.6472   22.6067 H   0  0  0  0  0  0
  -28.7872  -15.3691   20.8459 H   0  0  0  0  0  0
  -26.9853  -18.8679   22.1145 H   0  0  0  0  0  0
  -26.0569  -20.3178   21.9346 H   0  0  0  0  0  0
  1 25  1  0  0  0
  1 30  2  0  0  0
  1 90  1  0  0  0
  2  3  1  0  0  0
  2 25  1  0  0  0
  2 92  1  0  0  0
  2 93  1  0  0  0
  3  4  1  0  0  0
  3 94  1  0  0  0
  3 95  1  0  0  0
  4  5  1  0  0  0
  4 96  1  0  0  0
  4 97  1  0  0  0
  5  6  1  0  0  0
  5 26  1  0  0  0
  5 98  1  0  0  0
  6 25  1  0  0  0
  6 99  1  0  0  0
  6100  1  0  0  0
  7  8  2  0  0  0
  7 26  1  0  0  0
  7 29  1  0  0  0
  8  9  1  0  0  0
  8 22  1  0  0  0
  9 10  1  0  0  0
  9 27  2  0  0  0
 10 11  2  0  0  0
 10 15  1  0  0  0
 11 12  1  0  0  0
 11101  1  0  0  0
 12 13  2  0  0  0
 12102  1  0  0  0
 13 14  1  0  0  0
 13 31  1  0  0  0
 14 15  2  0  0  0
 14103  1  0  0  0
 15104  1  0  0  0
 16 17  2  0  0  0
 16 21  1  0  0  0
 16 31  1  0  0  0
 17 18  1  0  0  0
 17105  1  0  0  0
 18 19  2  0  0  0
 18106  1  0  0  0
 19 20  1  0  0  0
 19 24  1  0  0  0
 20 21  2  0  0  0
 20107  1  0  0  0
 21 23  1  0  0  0
 22 28  1  0  0  0
 22 32  2  0  0  0
 26 27  1  0  0  0
 28108  1  0  0  0
 28109  1  0  0  0
 29110  1  0  0  0
 29111  1  0  0  0
 33 34  1  0  0  0
 33 66  1  0  0  0
 33 70  2  0  0  0
 34 36  1  0  0  0
 34 59  1  0  0  0
 34112  1  0  0  0
 35 44  2  0  0  0
 35 45  1  0  0  0
 35 68  1  0  0  0
 36 56  1  0  0  0
 36113  1  0  0  0
 37 39  1  0  0  0
 37 47  1  0  0  0
 37 66  1  0  0  0
 37114  1  0  0  0
 38 43  2  0  0  0
 38 46  1  0  0  0
 38 47  1  0  0  0
 39 64  1  0  0  0
 39 67  2  0  0  0
 40 52  1  0  0  0
 40 53  2  0  0  0
 40 58  1  0  0  0
 41115  1  0  0  0
 41116  1  0  0  0
 41117  1  0  0  0
 41 48  1  0  0  0
 42 43  1  0  0  0
 42 66  1  0  0  0
 42118  1  0  0  0
 42119  1  0  0  0
 43 44  1  0  0  0
 44120  1  0  0  0
 45 46  2  0  0  0
 45121  1  0  0  0
 46122  1  0  0  0
 47123  1  0  0  0
 47124  1  0  0  0
 48 56  1  0  0  0
 48 65  1  0  0  0
 48125  1  0  0  0
 49 50  1  0  0  0
 49 53  1  0  0  0
 49 64  1  0  0  0
 49126  1  0  0  0
 50 51  1  0  0  0
 50127  1  0  0  0
 50128  1  0  0  0
 51 52  1  0  0  0
 51129  1  0  0  0
 51130  1  0  0  0
 52131  1  0  0  0
 52132  1  0  0  0
 53 54  1  0  0  0
 54 55  2  0  0  0
 54133  1  0  0  0
 55 57  1  0  0  0
 55134  1  0  0  0
 56 69  2  0  0  0
 57 58  2  0  0  0
 57135  1  0  0  0
 58136  1  0  0  0
 59 60  1  0  0  0
 59 61  1  0  0  0
 59 62  1  0  0  0
 60137  1  0  0  0
 60138  1  0  0  0
 60139  1  0  0  0
 61140  1  0  0  0
 61141  1  0  0  0
 61142  1  0  0  0
 62143  1  0  0  0
 62144  1  0  0  0
 62145  1  0  0  0
 63 65  1  0  0  0
 63146  1  0  0  0
 63147  1  0  0  0
 63148  1  0  0  0
 64149  1  0  0  0
 65150  1  0  0  0
 68 78  1  0  0  0
 71 74  2  0  0  0
 71 75  1  0  0  0
 71151  1  0  0  0
 72 74  1  0  0  0
 72 76  2  0  0  0
 72152  1  0  0  0
 73 75  2  0  0  0
 73 76  1  0  0  0
 73153  1  0  0  0
 74 79  1  0  0  0
 75 86  1  0  0  0
 76 90  1  0  0  0
 77 78  2  0  0  0
 77 80  1  0  0  0
 77 81  1  0  0  0
 78154  1  0  0  0
 79 89  1  0  0  0
 79 91  2  0  0  0
 80 82  1  0  0  0
 80155  1  0  0  0
 80156  1  0  0  0
 81 89  1  0  0  0
 81157  1  0  0  0
 81158  1  0  0  0
 82 89  1  0  0  0
 82159  1  0  0  0
 82160  1  0  0  0
 83 87  1  0  0  0
 83161  1  0  0  0
 83162  1  0  0  0
 83163  1  0  0  0
 84164  1  0  0  0
 84165  1  0  0  0
 84166  1  0  0  0
 84 88  1  0  0  0
 85 88  1  0  0  0
 85167  1  0  0  0
 85168  1  0  0  0
 85169  1  0  0  0
 86 88  1  0  0  0
 86170  1  0  0  0
 86171  1  0  0  0
 87 88  1  0  0  0
 87172  1  0  0  0
 87173  1  0  0  0
 90174  1  0  0  0
 91175  1  0  0  0
 91176  1  0  0  0
M  CHG  1  91   1
M  ISO  4   1 100  68 101  78 101  90 100
M  END
> <chiral flag>
0

> <version>
0

> <s_m_source_file>
/data/baiqing/PycharmProjects/Reinvent-master-3.2/result/LINK_invent/BTK/process_docking_weight1_custom_product_contain_oxygen_bond_distance_aromatic_linkinvent_7_9_3/rearranged_h_0142.sdf

> <i_m_source_file_index>
39

> <r_mmod_Potential_Energy-OPLS-2005>
-57.1677665710449

> <r_mmod_Stretch_Energy-OPLS-2005>
70.0374603271484

> <r_mmod_Bend_Energy-OPLS-2005>
181.946334838867

> <r_mmod_Torsional_Energy-OPLS-2005>
273.836578369141

> <r_mmod_Improper_Torsional_Energy-OPLS-2005>
9.86742687225342

> <r_mmod_Van_der_Waal_Energy-OPLS-2005>
150.568572998047

> <r_mmod_Electrostatic_Energy-OPLS-2005>
-392.797790527344

> <r_mmod_Solvation_Energy-OPLS-2005>
-388.262512207031

> <b_mmod_Minimization_Converged-OPLS-2005>
0

> <r_mmod_RMS_Derivative-OPLS-2005>
2.36191153526306

$$$$
39
                    3D
 Structure written by MMmdl.
158166  0  0  1  0            999 V2000
  -30.6753  -14.5825   20.5107 C   0  0  0  0  0  0
  -30.4199  -12.3617   19.4455 C   0  0  0  0  0  0
  -29.4960  -12.4872   18.2178 C   0  0  0  0  0  0
  -28.0218  -12.3316   18.6362 C   0  0  0  0  0  0
  -27.6462  -13.2149   19.8567 C   0  0  2  0  0  0
  -28.6899  -13.0888   20.9872 C   0  0  0  0  0  0
  -25.2533  -13.8170   20.5699 C   0  0  0  0  0  0
  -24.1805  -13.0428   20.9209 C   0  0  0  0  0  0
  -24.6380  -11.6905   20.8757 C   0  0  0  0  0  0
  -23.9050  -10.4289   21.0424 C   0  0  0  0  0  0
  -24.3611   -9.4208   21.9195 C   0  0  0  0  0  0
  -23.6297   -8.2236   22.0759 C   0  0  0  0  0  0
  -22.4278   -8.0271   21.3550 C   0  0  0  0  0  0
  -21.9913   -9.0238   20.4650 C   0  0  0  0  0  0
  -22.7230  -10.2121   20.3065 C   0  0  0  0  0  0
  -21.6839   -6.0743   22.5284 C   0  0  0  0  0  0
  -21.4010   -6.5651   23.8220 C   0  0  0  0  0  0
  -21.3657   -5.6802   24.9184 C   0  0  0  0  0  0
  -21.6046   -4.3066   24.7233 C   0  0  0  0  0  0
  -21.8811   -3.8156   23.4349 C   0  0  0  0  0  0
  -21.9187   -4.6974   22.3407 C   0  0  0  0  0  0
  -22.7833  -13.5227   21.1856 C   0  0  0  0  0  0
  -22.1652   -4.2166   21.0979 F   0  0  0  0  0  0
  -21.5633   -3.4541   25.7736 F   0  0  0  0  0  0
  -30.0038  -13.3976   20.4088 N   0  0  0  0  0  0
  -26.2945  -12.9346   20.3309 N   0  0  0  0  0  0
  -25.9301  -11.6506   20.5787 N   0  0  0  0  0  0
  -22.0464  -12.8214   22.0401 N   0  0  0  0  0  0
  -25.4228  -15.1894   20.4117 N   0  0  0  0  0  0
  -31.8647  -14.6525   20.1850 O   0  0  0  0  0  0
  -21.6630   -6.8881   21.4246 O   0  0  0  0  0  0
  -22.3533  -14.5538   20.6716 O   0  0  0  0  0  0
  -24.6207  -31.8661   23.2074 C   0  0  0  0  0  0
  -25.9066  -32.4821   23.8411 C   0  0  1  0  0  0
  -27.2181  -27.3776   20.1237 C   0  0  0  0  0  0
  -25.5916  -33.8620   24.2341 N   0  0  0  0  0  0
  -23.4133  -30.4880   21.5498 C   0  0  2  0  0  0
  -24.8593  -28.9489   20.1155 C   0  0  0  0  0  0
  -22.7459  -29.4631   22.4980 C   0  0  0  0  0  0
  -18.0275  -28.1384   22.8481 C   0  0  0  0  0  0
  -24.1470  -36.7316   23.2642 C   0  0  0  0  0  0
  -25.9474  -30.8121   21.3730 C   0  0  0  0  0  0
  -26.0215  -29.4391   20.7288 C   0  0  0  0  0  0
  -27.2072  -28.6566   20.7404 C   0  0  0  0  0  0
  -26.0526  -26.9309   19.4736 C   0  0  0  0  0  0
  -24.8709  -27.6934   19.4848 C   0  0  0  0  0  0
  -23.6253  -29.8228   20.1636 C   0  0  0  0  0  0
  -25.4095  -36.3117   24.0334 C   0  0  1  0  0  0
  -20.5875  -28.3671   23.1297 C   0  0  2  0  0  0
  -20.6762  -26.9405   22.5406 C   0  0  0  0  0  0
  -19.5747  -26.6370   21.5211 C   0  0  0  0  0  0
  -18.1923  -26.7920   22.1614 C   0  0  0  0  0  0
  -19.1531  -28.8843   23.2872 C   0  0  0  0  0  0
  -18.9451  -30.1447   23.8888 C   0  0  0  0  0  0
  -17.6453  -30.6583   24.0561 C   0  0  0  0  0  0
  -25.9025  -34.9476   23.5131 C   0  0  0  0  0  0
  -16.5345  -29.9077   23.6330 C   0  0  0  0  0  0
  -16.7257  -28.6495   23.0345 C   0  0  0  0  0  0
  -26.4463  -31.6626   25.0773 C   0  0  0  0  0  0
  -25.3693  -31.3748   26.1510 C   0  0  0  0  0  0
  -27.0334  -30.3065   24.6187 C   0  0  0  0  0  0
  -27.6041  -32.4363   25.7515 C   0  0  0  0  0  0
  -27.5564  -37.1813   24.8461 C   0  0  0  0  0  0
  -21.4173  -29.3039   22.3723 N   0  0  0  0  0  0
  -26.4283  -37.3801   23.9402 N   0  0  0  0  0  0
  -24.6788  -31.0716   22.1004 N   0  0  0  0  0  0
  -23.4198  -28.8172   23.3043 O   0  0  0  0  0  0
  -28.3189  -26.5397   20.0699 O   0  0  0  0  0  0
  -26.5588  -34.8920   22.4690 O   0  0  0  0  0  0
  -23.5377  -32.1435   23.7430 O   0  0  0  0  0  0
  -28.3379  -18.3431   19.9113 C   0  0  0  0  0  0
  -27.7736  -19.6660   19.9872 C   0  0  0  0  0  0
  -29.4156  -18.1397   20.7420 C   0  0  0  0  0  0
  -28.4005  -20.5070   20.8807 C   0  0  0  0  0  0
  -30.3652  -16.9770   20.9293 C   0  0  0  0  0  0
  -28.7211  -24.3231   23.2003 C   0  0  0  0  0  0
  -26.6205  -24.6280   21.8996 C   0  0  0  0  0  0
  -27.9046  -21.8680   21.3838 C   0  0  0  0  0  0
  -28.5513  -23.2338   20.9173 C   0  0  0  0  0  0
  -28.7576  -25.9060   21.2911 C   0  0  0  0  0  0
  -28.1533  -24.5149   21.7725 C   0  0  0  0  0  0
  -29.9211  -15.6992   20.7410 N   0  0  0  0  0  0
  -31.5269  -17.2364   21.2651 O   0  0  0  0  0  0
  -29.7771  -19.6566   21.5838 S   0  0  0  0  0  0
  -31.4640  -12.4603   19.1408 H   0  0  0  0  0  0
  -30.3329  -11.3715   19.8963 H   0  0  0  0  0  0
  -29.7566  -11.7359   17.4707 H   0  0  0  0  0  0
  -29.6409  -13.4581   17.7415 H   0  0  0  0  0  0
  -27.8619  -11.2803   18.8804 H   0  0  0  0  0  0
  -27.3643  -12.5494   17.7943 H   0  0  0  0  0  0
  -27.6603  -14.2464   19.5039 H   0  0  0  0  0  0
  -28.6916  -12.0801   21.4030 H   0  0  0  0  0  0
  -28.4483  -13.7563   21.8161 H   0  0  0  0  0  0
  -25.2745   -9.5683   22.4782 H   0  0  0  0  0  0
  -24.0001   -7.4627   22.7470 H   0  0  0  0  0  0
  -21.0851   -8.8758   19.8942 H   0  0  0  0  0  0
  -22.3693  -10.9671   19.6182 H   0  0  0  0  0  0
  -21.2000   -7.6157   23.9731 H   0  0  0  0  0  0
  -21.1491   -6.0531   25.9090 H   0  0  0  0  0  0
  -22.0595   -2.7618   23.2841 H   0  0  0  0  0  0
  -22.4074  -11.9868   22.4778 H   0  0  0  0  0  0
  -21.1081  -13.1259   22.2612 H   0  0  0  0  0  0
  -24.6502  -15.8369   20.5238 H   0  0  0  0  0  0
  -26.2631  -15.6326   20.0659 H   0  0  0  0  0  0
  -26.7147  -32.5526   23.1192 H   0  0  0  0  0  0
  -25.0144  -33.9795   25.0541 H   0  0  0  0  0  0
  -22.7061  -31.3080   21.4084 H   0  0  0  0  0  0
  -23.3726  -35.9658   23.3327 H   0  0  0  0  0  0
  -24.3560  -36.8916   22.2048 H   0  0  0  0  0  0
  -23.7207  -37.6518   23.6645 H   0  0  0  0  0  0
  -26.0684  -31.5729   20.6008 H   0  0  0  0  0  0
  -26.8320  -30.8683   21.9949 H   0  0  0  0  0  0
  -28.1031  -29.0255   21.2203 H   0  0  0  0  0  0
  -26.0580  -25.9722   18.9744 H   0  0  0  0  0  0
  -23.9844  -27.3129   18.9982 H   0  0  0  0  0  0
  -23.7439  -30.5997   19.4079 H   0  0  0  0  0  0
  -22.7467  -29.2497   19.8612 H   0  0  0  0  0  0
  -25.1263  -36.2006   25.0826 H   0  0  0  0  0  0
  -20.9954  -28.3229   24.1423 H   0  0  0  0  0  0
  -20.5681  -26.2280   23.3597 H   0  0  0  0  0  0
  -21.6630  -26.7458   22.1207 H   0  0  0  0  0  0
  -19.6918  -25.6274   21.1253 H   0  0  0  0  0  0
  -19.6683  -27.3189   20.6745 H   0  0  0  0  0  0
  -17.4198  -26.6675   21.4002 H   0  0  0  0  0  0
  -18.0290  -26.0074   22.9012 H   0  0  0  0  0  0
  -19.7943  -30.7251   24.2258 H   0  0  0  0  0  0
  -17.5019  -31.6265   24.5160 H   0  0  0  0  0  0
  -15.5348  -30.2974   23.7658 H   0  0  0  0  0  0
  -15.8659  -28.0810   22.7059 H   0  0  0  0  0  0
  -24.5887  -30.7077   25.7835 H   0  0  0  0  0  0
  -24.8858  -32.2900   26.4942 H   0  0  0  0  0  0
  -25.8024  -30.8943   27.0291 H   0  0  0  0  0  0
  -26.2918  -29.6790   24.1232 H   0  0  0  0  0  0
  -27.4086  -29.7347   25.4681 H   0  0  0  0  0  0
  -27.8738  -30.4399   23.9375 H   0  0  0  0  0  0
  -27.2701  -33.3692   26.2070 H   0  0  0  0  0  0
  -28.3839  -32.6887   25.0319 H   0  0  0  0  0  0
  -28.0705  -31.8505   26.5448 H   0  0  0  0  0  0
  -28.2608  -38.0087   24.7521 H   0  0  0  0  0  0
  -28.1039  -36.2628   24.6291 H   0  0  0  0  0  0
  -27.2297  -37.1474   25.8870 H   0  0  0  0  0  0
  -20.9353  -29.8794   21.6966 H   0  0  0  0  0  0
  -26.0179  -38.2877   24.1419 H   0  0  0  0  0  0
  -27.9332  -17.5933   19.2460 H   0  0  0  0  0  0
  -26.8932  -19.9317   19.4169 H   0  0  0  0  0  0
  -28.2631  -23.4951   23.7407 H   0  0  0  0  0  0
  -28.5602  -25.2057   23.8213 H   0  0  0  0  0  0
  -29.7962  -24.1403   23.1746 H   0  0  0  0  0  0
  -26.1972  -23.8125   22.4877 H   0  0  0  0  0  0
  -26.1360  -24.6042   20.9248 H   0  0  0  0  0  0
  -26.3273  -25.5545   22.3943 H   0  0  0  0  0  0
  -27.9422  -21.8118   22.4690 H   0  0  0  0  0  0
  -26.8381  -21.9251   21.1614 H   0  0  0  0  0  0
  -28.2907  -23.4052   19.8714 H   0  0  0  0  0  0
  -29.6365  -23.1306   20.9358 H   0  0  0  0  0  0
  -29.8380  -25.7904   21.2020 H   0  0  0  0  0  0
  -28.6320  -26.6413   22.0884 H   0  0  0  0  0  0
  -28.9243  -15.5779   20.7152 H   0  0  0  0  0  0
  1 25  1  0  0  0
  1 30  2  0  0  0
  1 82  1  0  0  0
  2  3  1  0  0  0
  2 25  1  0  0  0
  2 85  1  0  0  0
  2 86  1  0  0  0
  3  4  1  0  0  0
  3 87  1  0  0  0
  3 88  1  0  0  0
  4  5  1  0  0  0
  4 89  1  0  0  0
  4 90  1  0  0  0
  5  6  1  0  0  0
  5 26  1  0  0  0
  5 91  1  0  0  0
  6 25  1  0  0  0
  6 92  1  0  0  0
  6 93  1  0  0  0
  7  8  2  0  0  0
  7 26  1  0  0  0
  7 29  1  0  0  0
  8  9  1  0  0  0
  8 22  1  0  0  0
  9 10  1  0  0  0
  9 27  2  0  0  0
 10 11  2  0  0  0
 10 15  1  0  0  0
 11 12  1  0  0  0
 11 94  1  0  0  0
 12 13  2  0  0  0
 12 95  1  0  0  0
 13 14  1  0  0  0
 13 31  1  0  0  0
 14 15  2  0  0  0
 14 96  1  0  0  0
 15 97  1  0  0  0
 16 17  2  0  0  0
 16 21  1  0  0  0
 16 31  1  0  0  0
 17 18  1  0  0  0
 17 98  1  0  0  0
 18 19  2  0  0  0
 18 99  1  0  0  0
 19 20  1  0  0  0
 19 24  1  0  0  0
 20 21  2  0  0  0
 20100  1  0  0  0
 21 23  1  0  0  0
 22 28  1  0  0  0
 22 32  2  0  0  0
 26 27  1  0  0  0
 28101  1  0  0  0
 28102  1  0  0  0
 29103  1  0  0  0
 29104  1  0  0  0
 33 34  1  0  0  0
 33 66  1  0  0  0
 33 70  2  0  0  0
 34 36  1  0  0  0
 34 59  1  0  0  0
 34105  1  0  0  0
 35 44  2  0  0  0
 35 45  1  0  0  0
 35 68  1  0  0  0
 36 56  1  0  0  0
 36106  1  0  0  0
 37 39  1  0  0  0
 37 47  1  0  0  0
 37 66  1  0  0  0
 37107  1  0  0  0
 38 43  2  0  0  0
 38 46  1  0  0  0
 38 47  1  0  0  0
 39 64  1  0  0  0
 39 67  2  0  0  0
 40 52  1  0  0  0
 40 53  2  0  0  0
 40 58  1  0  0  0
 41108  1  0  0  0
 41109  1  0  0  0
 41110  1  0  0  0
 41 48  1  0  0  0
 42 43  1  0  0  0
 42 66  1  0  0  0
 42111  1  0  0  0
 42112  1  0  0  0
 43 44  1  0  0  0
 44113  1  0  0  0
 45 46  2  0  0  0
 45114  1  0  0  0
 46115  1  0  0  0
 47116  1  0  0  0
 47117  1  0  0  0
 48 56  1  0  0  0
 48 65  1  0  0  0
 48118  1  0  0  0
 49 50  1  0  0  0
 49 53  1  0  0  0
 49 64  1  0  0  0
 49119  1  0  0  0
 50 51  1  0  0  0
 50120  1  0  0  0
 50121  1  0  0  0
 51 52  1  0  0  0
 51122  1  0  0  0
 51123  1  0  0  0
 52124  1  0  0  0
 52125  1  0  0  0
 53 54  1  0  0  0
 54 55  2  0  0  0
 54126  1  0  0  0
 55 57  1  0  0  0
 55127  1  0  0  0
 56 69  2  0  0  0
 57 58  2  0  0  0
 57128  1  0  0  0
 58129  1  0  0  0
 59 60  1  0  0  0
 59 61  1  0  0  0
 59 62  1  0  0  0
 60130  1  0  0  0
 60131  1  0  0  0
 60132  1  0  0  0
 61133  1  0  0  0
 61134  1  0  0  0
 61135  1  0  0  0
 62136  1  0  0  0
 62137  1  0  0  0
 62138  1  0  0  0
 63 65  1  0  0  0
 63139  1  0  0  0
 63140  1  0  0  0
 63141  1  0  0  0
 64142  1  0  0  0
 65143  1  0  0  0
 68 80  1  0  0  0
 71 72  1  0  0  0
 71 73  2  0  0  0
 71144  1  0  0  0
 72 74  2  0  0  0
 72145  1  0  0  0
 73 75  1  0  0  0
 73 84  1  0  0  0
 74 78  1  0  0  0
 74 84  1  0  0  0
 75 82  1  0  0  0
 75 83  2  0  0  0
 76146  1  0  0  0
 76147  1  0  0  0
 76148  1  0  0  0
 76 81  1  0  0  0
 77 81  1  0  0  0
 77149  1  0  0  0
 77150  1  0  0  0
 77151  1  0  0  0
 78 79  1  0  0  0
 78152  1  0  0  0
 78153  1  0  0  0
 79 81  1  0  0  0
 79154  1  0  0  0
 79155  1  0  0  0
 80 81  1  0  0  0
 80156  1  0  0  0
 80157  1  0  0  0
 82158  1  0  0  0
M  ISO  4   1 100  68 101  80 101  82 100
M  END
> <chiral flag>
0

> <version>
0

> <s_m_source_file>
/data/baiqing/PycharmProjects/Reinvent-master-3.2/result/LINK_invent/BTK/process_docking_weight1_custom_product_contain_oxygen_bond_distance_aromatic_linkinvent_7_9_3/rearranged_h_0142.sdf

> <i_m_source_file_index>
40

> <r_mmod_Potential_Energy-OPLS-2005>
-23.1814250946045

> <r_mmod_Stretch_Energy-OPLS-2005>
56.8400993347168

> <r_mmod_Bend_Energy-OPLS-2005>
137.552230834961

> <r_mmod_Torsional_Energy-OPLS-2005>
246.212600708008

> <r_mmod_Improper_Torsional_Energy-OPLS-2005>
6.7410192489624

> <r_mmod_Van_der_Waal_Energy-OPLS-2005>
125.068893432617

> <r_mmod_Electrostatic_Energy-OPLS-2005>
-413.520324707031

> <r_mmod_Solvation_Energy-OPLS-2005>
-216.160049438477

> <b_mmod_Minimization_Converged-OPLS-2005>
0

> <r_mmod_RMS_Derivative-OPLS-2005>
2.37503242492676

$$$$
40
                    3D
 Structure written by MMmdl.
157166  0  0  1  0            999 V2000
  -30.5804  -14.8112   20.3998 C   0  0  0  0  0  0
  -30.4415  -12.4745   19.5007 C   0  0  0  0  0  0
  -29.5243  -12.4356   18.2571 C   0  0  0  0  0  0
  -28.0410  -12.3138   18.6594 C   0  0  0  0  0  0
  -27.6406  -13.2367   19.8421 C   0  0  2  0  0  0
  -28.6821  -13.2077   20.9804 C   0  0  0  0  0  0
  -25.2513  -13.8213   20.5680 C   0  0  0  0  0  0
  -24.1806  -13.0456   20.9201 C   0  0  0  0  0  0
  -24.6399  -11.6936   20.8752 C   0  0  0  0  0  0
  -23.9076  -10.4307   21.0413 C   0  0  0  0  0  0
  -24.3620   -9.4217   21.9189 C   0  0  0  0  0  0
  -23.6296   -8.2250   22.0754 C   0  0  0  0  0  0
  -22.4282   -8.0287   21.3539 C   0  0  0  0  0  0
  -21.9917   -9.0266   20.4647 C   0  0  0  0  0  0
  -22.7248  -10.2145   20.3062 C   0  0  0  0  0  0
  -21.6858   -6.0737   22.5272 C   0  0  0  0  0  0
  -21.4020   -6.5641   23.8205 C   0  0  0  0  0  0
  -21.3662   -5.6791   24.9165 C   0  0  0  0  0  0
  -21.6044   -4.3053   24.7217 C   0  0  0  0  0  0
  -21.8822   -3.8147   23.4336 C   0  0  0  0  0  0
  -21.9194   -4.6963   22.3394 C   0  0  0  0  0  0
  -22.7828  -13.5237   21.1858 C   0  0  0  0  0  0
  -22.1663   -4.2147   21.0973 F   0  0  0  0  0  0
  -21.5628   -3.4538   25.7732 F   0  0  0  0  0  0
  -29.9769  -13.5672   20.3925 N   0  0  0  0  0  0
  -26.2939  -12.9431   20.3250 N   0  0  0  0  0  0
  -25.9333  -11.6573   20.5764 N   0  0  0  0  0  0
  -22.0467  -12.8231   22.0410 N   0  0  0  0  0  0
  -25.4214  -15.1934   20.4092 N   0  0  0  0  0  0
  -31.7792  -14.8897   20.1165 O   0  0  0  0  0  0
  -21.6644   -6.8882   21.4236 O   0  0  0  0  0  0
  -22.3518  -14.5547   20.6710 O   0  0  0  0  0  0
  -24.6341  -31.8522   23.1952 C   0  0  0  0  0  0
  -25.9157  -32.4732   23.8308 C   0  0  1  0  0  0
  -27.2230  -27.2341   20.1300 C   0  0  0  0  0  0
  -25.5945  -33.8536   24.2233 N   0  0  0  0  0  0
  -23.4328  -30.4737   21.5380 C   0  0  2  0  0  0
  -24.8814  -28.9178   20.1043 C   0  0  0  0  0  0
  -22.7522  -29.4585   22.4883 C   0  0  0  0  0  0
  -18.0298  -28.1393   22.8481 C   0  0  0  0  0  0
  -24.1495  -36.7272   23.2641 C   0  0  0  0  0  0
  -25.9805  -30.7559   21.3796 C   0  0  0  0  0  0
  -26.0528  -29.3768   20.7193 C   0  0  0  0  0  0
  -27.2225  -28.5462   20.7234 C   0  0  0  0  0  0
  -26.0252  -26.8486   19.4849 C   0  0  0  0  0  0
  -24.8748  -27.6634   19.4752 C   0  0  0  0  0  0
  -23.6533  -29.8078   20.1536 C   0  0  0  0  0  0
  -25.4123  -36.3052   24.0322 C   0  0  1  0  0  0
  -20.5905  -28.3706   23.1260 C   0  0  2  0  0  0
  -20.6784  -26.9420   22.5409 C   0  0  0  0  0  0
  -19.5762  -26.6384   21.5212 C   0  0  0  0  0  0
  -18.1942  -26.7935   22.1620 C   0  0  0  0  0  0
  -19.1552  -28.8866   23.2867 C   0  0  0  0  0  0
  -18.9469  -30.1463   23.8890 C   0  0  0  0  0  0
  -17.6467  -30.6591   24.0557 C   0  0  0  0  0  0
  -25.9065  -34.9425   23.5080 C   0  0  0  0  0  0
  -16.5360  -29.9084   23.6331 C   0  0  0  0  0  0
  -16.7283  -28.6502   23.0355 C   0  0  0  0  0  0
  -26.4515  -31.6567   25.0711 C   0  0  0  0  0  0
  -25.3726  -31.3717   26.1421 C   0  0  0  0  0  0
  -27.0363  -30.2978   24.6220 C   0  0  0  0  0  0
  -27.6066  -32.4309   25.7490 C   0  0  0  0  0  0
  -27.5580  -37.1794   24.8465 C   0  0  0  0  0  0
  -21.4225  -29.3044   22.3638 N   0  0  0  0  0  0
  -26.4292  -37.3757   23.9406 N   0  0  0  0  0  0
  -24.7016  -31.0464   22.0936 N   0  0  0  0  0  0
  -23.4208  -28.8133   23.3002 O   0  0  0  0  0  0
  -28.3007  -26.3135   20.2458 O   0  0  0  0  0  0
  -26.5642  -34.8909   22.4651 O   0  0  0  0  0  0
  -23.5483  -32.1359   23.7229 O   0  0  0  0  0  0
  -29.9377  -18.5596   17.7296 C   0  0  0  0  0  0
  -29.6442  -19.7817   18.3492 C   0  0  0  0  0  0
  -29.5034  -18.6131   20.4675 C   0  0  0  0  0  0
  -29.9936  -17.3441   18.4387 C   0  0  0  0  0  0
  -29.3936  -19.8859   19.7323 C   0  0  0  0  0  0
  -29.8161  -17.3048   19.8542 C   0  0  0  0  0  0
  -28.6284  -23.7431   20.1528 C   0  0  0  0  0  0
  -28.2782  -25.0055   19.6604 C   0  0  0  0  0  0
  -29.0686  -23.3240   21.5477 C   0  0  0  0  0  0
  -28.6717  -22.4056   19.3489 C   0  0  0  0  0  0
  -29.3499  -21.7695   21.5409 C   0  0  0  0  0  0
  -30.1486  -16.0975   17.5864 C   0  0  0  0  0  0
  -29.0404  -21.2298   20.2138 N   0  0  0  0  0  0
  -29.7942  -15.9642   20.5519 N   0  0  0  0  0  0
  -31.4801  -12.6057   19.1920 H   0  0  0  0  0  0
  -30.4083  -11.5207   20.0292 H   0  0  0  0  0  0
  -29.7966  -11.5859   17.6289 H   0  0  0  0  0  0
  -29.6838  -13.3130   17.6371 H   0  0  0  0  0  0
  -27.8738  -11.2731   18.9381 H   0  0  0  0  0  0
  -27.3981  -12.5009   17.7990 H   0  0  0  0  0  0
  -27.6264  -14.2494   19.4389 H   0  0  0  0  0  0
  -28.7281  -12.2222   21.4468 H   0  0  0  0  0  0
  -28.4088  -13.9087   21.7704 H   0  0  0  0  0  0
  -25.2755   -9.5700   22.4772 H   0  0  0  0  0  0
  -24.0000   -7.4648   22.7482 H   0  0  0  0  0  0
  -21.0840   -8.8799   19.8959 H   0  0  0  0  0  0
  -22.3702  -10.9691   19.6178 H   0  0  0  0  0  0
  -21.2019   -7.6150   23.9708 H   0  0  0  0  0  0
  -21.1479   -6.0519   25.9068 H   0  0  0  0  0  0
  -22.0599   -2.7609   23.2833 H   0  0  0  0  0  0
  -22.4074  -11.9886   22.4793 H   0  0  0  0  0  0
  -21.1095  -13.1281   22.2628 H   0  0  0  0  0  0
  -24.6541  -15.8476   20.5187 H   0  0  0  0  0  0
  -26.2691  -15.6323   20.0731 H   0  0  0  0  0  0
  -26.7223  -32.5371   23.1044 H   0  0  0  0  0  0
  -25.0082  -33.9666   25.0373 H   0  0  0  0  0  0
  -22.7307  -31.2969   21.3901 H   0  0  0  0  0  0
  -23.3758  -35.9603   23.3295 H   0  0  0  0  0  0
  -24.3587  -36.8905   22.2057 H   0  0  0  0  0  0
  -23.7251  -37.6470   23.6674 H   0  0  0  0  0  0
  -26.1260  -31.5170   20.6115 H   0  0  0  0  0  0
  -26.8551  -30.8023   22.0170 H   0  0  0  0  0  0
  -28.1141  -28.8871   21.2305 H   0  0  0  0  0  0
  -25.9400  -25.8799   19.0160 H   0  0  0  0  0  0
  -23.9769  -27.3049   18.9907 H   0  0  0  0  0  0
  -23.7811  -30.5848   19.3989 H   0  0  0  0  0  0
  -22.7706  -29.2438   19.8470 H   0  0  0  0  0  0
  -25.1307  -36.1887   25.0814 H   0  0  0  0  0  0
  -21.0002  -28.3289   24.1380 H   0  0  0  0  0  0
  -20.5682  -26.2317   23.3617 H   0  0  0  0  0  0
  -21.6651  -26.7442   22.1205 H   0  0  0  0  0  0
  -19.6925  -25.6290   21.1256 H   0  0  0  0  0  0
  -19.6706  -27.3181   20.6730 H   0  0  0  0  0  0
  -17.4214  -26.6683   21.4020 H   0  0  0  0  0  0
  -18.0340  -26.0079   22.9018 H   0  0  0  0  0  0
  -19.7944  -30.7278   24.2267 H   0  0  0  0  0  0
  -17.5020  -31.6272   24.5155 H   0  0  0  0  0  0
  -15.5359  -30.2981   23.7660 H   0  0  0  0  0  0
  -15.8685  -28.0814   22.7080 H   0  0  0  0  0  0
  -24.5923  -30.7047   25.7739 H   0  0  0  0  0  0
  -24.8891  -32.2879   26.4821 H   0  0  0  0  0  0
  -25.8037  -30.8914   27.0214 H   0  0  0  0  0  0
  -26.2949  -29.6716   24.1246 H   0  0  0  0  0  0
  -27.4030  -29.7256   25.4751 H   0  0  0  0  0  0
  -27.8835  -30.4236   23.9474 H   0  0  0  0  0  0
  -27.2683  -33.3622   26.2046 H   0  0  0  0  0  0
  -28.3896  -32.6847   25.0331 H   0  0  0  0  0  0
  -28.0715  -31.8442   26.5426 H   0  0  0  0  0  0
  -28.2589  -38.0098   24.7509 H   0  0  0  0  0  0
  -28.1085  -36.2627   24.6293 H   0  0  0  0  0  0
  -27.2299  -37.1439   25.8869 H   0  0  0  0  0  0
  -20.9416  -29.8757   21.6831 H   0  0  0  0  0  0
  -26.0164  -38.2828   24.1405 H   0  0  0  0  0  0
  -30.0819  -18.5629   16.6583 H   0  0  0  0  0  0
  -29.6025  -20.6442   17.7026 H   0  0  0  0  0  0
  -29.3092  -18.6348   21.5298 H   0  0  0  0  0  0
  -28.0048  -25.0857   18.6177 H   0  0  0  0  0  0
  -28.2786  -23.5672   22.2592 H   0  0  0  0  0  0
  -29.9577  -23.8827   21.8421 H   0  0  0  0  0  0
  -29.4083  -22.5447   18.5577 H   0  0  0  0  0  0
  -27.7059  -22.2337   18.8711 H   0  0  0  0  0  0
  -28.7471  -21.2658   22.2979 H   0  0  0  0  0  0
  -30.3963  -21.5719   21.7801 H   0  0  0  0  0  0
  -30.0987  -16.3228   16.5208 H   0  0  0  0  0  0
  -29.3279  -15.4168   17.7999 H   0  0  0  0  0  0
  -31.1034  -15.6037   17.7589 H   0  0  0  0  0  0
  -28.9312  -15.7804   21.0412 H   0  0  0  0  0  0
  1 25  1  0  0  0
  1 30  2  0  0  0
  1 84  1  0  0  0
  2  3  1  0  0  0
  2 25  1  0  0  0
  2 85  1  0  0  0
  2 86  1  0  0  0
  3  4  1  0  0  0
  3 87  1  0  0  0
  3 88  1  0  0  0
  4  5  1  0  0  0
  4 89  1  0  0  0
  4 90  1  0  0  0
  5  6  1  0  0  0
  5 26  1  0  0  0
  5 91  1  0  0  0
  6 25  1  0  0  0
  6 92  1  0  0  0
  6 93  1  0  0  0
  7  8  2  0  0  0
  7 26  1  0  0  0
  7 29  1  0  0  0
  8  9  1  0  0  0
  8 22  1  0  0  0
  9 10  1  0  0  0
  9 27  2  0  0  0
 10 11  2  0  0  0
 10 15  1  0  0  0
 11 12  1  0  0  0
 11 94  1  0  0  0
 12 13  2  0  0  0
 12 95  1  0  0  0
 13 14  1  0  0  0
 13 31  1  0  0  0
 14 15  2  0  0  0
 14 96  1  0  0  0
 15 97  1  0  0  0
 16 17  2  0  0  0
 16 21  1  0  0  0
 16 31  1  0  0  0
 17 18  1  0  0  0
 17 98  1  0  0  0
 18 19  2  0  0  0
 18 99  1  0  0  0
 19 20  1  0  0  0
 19 24  1  0  0  0
 20 21  2  0  0  0
 20100  1  0  0  0
 21 23  1  0  0  0
 22 28  1  0  0  0
 22 32  2  0  0  0
 26 27  1  0  0  0
 28101  1  0  0  0
 28102  1  0  0  0
 29103  1  0  0  0
 29104  1  0  0  0
 33 34  1  0  0  0
 33 66  1  0  0  0
 33 70  2  0  0  0
 34 36  1  0  0  0
 34 59  1  0  0  0
 34105  1  0  0  0
 35 44  2  0  0  0
 35 45  1  0  0  0
 35 68  1  0  0  0
 36 56  1  0  0  0
 36106  1  0  0  0
 37 39  1  0  0  0
 37 47  1  0  0  0
 37 66  1  0  0  0
 37107  1  0  0  0
 38 43  2  0  0  0
 38 46  1  0  0  0
 38 47  1  0  0  0
 39 64  1  0  0  0
 39 67  2  0  0  0
 40 52  1  0  0  0
 40 53  2  0  0  0
 40 58  1  0  0  0
 41108  1  0  0  0
 41109  1  0  0  0
 41110  1  0  0  0
 41 48  1  0  0  0
 42 43  1  0  0  0
 42 66  1  0  0  0
 42111  1  0  0  0
 42112  1  0  0  0
 43 44  1  0  0  0
 44113  1  0  0  0
 45 46  2  0  0  0
 45114  1  0  0  0
 46115  1  0  0  0
 47116  1  0  0  0
 47117  1  0  0  0
 48 56  1  0  0  0
 48 65  1  0  0  0
 48118  1  0  0  0
 49 50  1  0  0  0
 49 53  1  0  0  0
 49 64  1  0  0  0
 49119  1  0  0  0
 50 51  1  0  0  0
 50120  1  0  0  0
 50121  1  0  0  0
 51 52  1  0  0  0
 51122  1  0  0  0
 51123  1  0  0  0
 52124  1  0  0  0
 52125  1  0  0  0
 53 54  1  0  0  0
 54 55  2  0  0  0
 54126  1  0  0  0
 55 57  1  0  0  0
 55127  1  0  0  0
 56 69  2  0  0  0
 57 58  2  0  0  0
 57128  1  0  0  0
 58129  1  0  0  0
 59 60  1  0  0  0
 59 61  1  0  0  0
 59 62  1  0  0  0
 60130  1  0  0  0
 60131  1  0  0  0
 60132  1  0  0  0
 61133  1  0  0  0
 61134  1  0  0  0
 61135  1  0  0  0
 62136  1  0  0  0
 62137  1  0  0  0
 62138  1  0  0  0
 63 65  1  0  0  0
 63139  1  0  0  0
 63140  1  0  0  0
 63141  1  0  0  0
 64142  1  0  0  0
 65143  1  0  0  0
 68 78  1  0  0  0
 71 72  2  0  0  0
 71 74  1  0  0  0
 71144  1  0  0  0
 72 75  1  0  0  0
 72145  1  0  0  0
 73 75  2  0  0  0
 73 76  1  0  0  0
 73146  1  0  0  0
 74 76  2  0  0  0
 74 82  1  0  0  0
 75 83  1  0  0  0
 76 84  1  0  0  0
 77 78  2  0  0  0
 77 79  1  0  0  0
 77 80  1  0  0  0
 78147  1  0  0  0
 79 81  1  0  0  0
 79148  1  0  0  0
 79149  1  0  0  0
 80 83  1  0  0  0
 80150  1  0  0  0
 80151  1  0  0  0
 81 83  1  0  0  0
 81152  1  0  0  0
 81153  1  0  0  0
 82154  1  0  0  0
 82155  1  0  0  0
 82156  1  0  0  0
 84157  1  0  0  0
M  ISO  4   1 100  68 101  78 101  84 100
M  END
> <chiral flag>
0

> <version>
0

> <s_m_source_file>
/data/baiqing/PycharmProjects/Reinvent-master-3.2/result/LINK_invent/BTK/process_docking_weight1_custom_product_contain_oxygen_bond_distance_aromatic_linkinvent_7_9_3/rearranged_h_0142.sdf

> <i_m_source_file_index>
41

> <r_mmod_Potential_Energy-OPLS-2005>
300.867797851562

> <r_mmod_Stretch_Energy-OPLS-2005>
141.337173461914

> <r_mmod_Bend_Energy-OPLS-2005>
216.196975708008

> <r_mmod_Torsional_Energy-OPLS-2005>
269.725830078125

> <r_mmod_Improper_Torsional_Energy-OPLS-2005>
6.57728576660156

> <r_mmod_Van_der_Waal_Energy-OPLS-2005>
141.128860473633

> <r_mmod_Electrostatic_Energy-OPLS-2005>
-361.104522705078

> <r_mmod_Solvation_Energy-OPLS-2005>
-229.141311645508

> <b_mmod_Minimization_Converged-OPLS-2005>
0

> <r_mmod_RMS_Derivative-OPLS-2005>
0.853066027164459

$$$$
41
                    3D
 Structure written by MMmdl.
175183  0  0  1  0            999 V2000
  -30.6030  -14.5447   20.5639 C   0  0  0  0  0  0
  -30.4549  -12.3489   19.4115 C   0  0  0  0  0  0
  -29.5060  -12.5105   18.2005 C   0  0  0  0  0  0
  -28.0252  -12.3499   18.6126 C   0  0  0  0  0  0
  -27.6612  -13.1857   19.8680 C   0  0  2  0  0  0
  -28.7089  -12.9442   20.9802 C   0  0  0  0  0  0
  -25.2624  -13.8092   20.5660 C   0  0  0  0  0  0
  -24.1840  -13.0414   20.9149 C   0  0  0  0  0  0
  -24.6366  -11.6869   20.8710 C   0  0  0  0  0  0
  -23.9020  -10.4264   21.0409 C   0  0  0  0  0  0
  -24.3583   -9.4195   21.9182 C   0  0  0  0  0  0
  -23.6263   -8.2226   22.0754 C   0  0  0  0  0  0
  -22.4247   -8.0260   21.3546 C   0  0  0  0  0  0
  -21.9874   -9.0238   20.4651 C   0  0  0  0  0  0
  -22.7191  -10.2123   20.3055 C   0  0  0  0  0  0
  -21.6845   -6.0717   22.5272 C   0  0  0  0  0  0
  -21.4009   -6.5623   23.8200 C   0  0  0  0  0  0
  -21.3659   -5.6784   24.9172 C   0  0  0  0  0  0
  -21.6033   -4.3042   24.7228 C   0  0  0  0  0  0
  -21.8820   -3.8129   23.4345 C   0  0  0  0  0  0
  -21.9187   -4.6943   22.3398 C   0  0  0  0  0  0
  -22.7880  -13.5252   21.1812 C   0  0  0  0  0  0
  -22.1662   -4.2130   21.0977 F   0  0  0  0  0  0
  -21.5630   -3.4517   25.7737 F   0  0  0  0  0  0
  -30.0313  -13.3119   20.4356 N   0  0  0  0  0  0
  -26.3016  -12.9208   20.3311 N   0  0  0  0  0  0
  -25.9269  -11.6391   20.5710 N   0  0  0  0  0  0
  -22.0507  -12.8273   22.0393 N   0  0  0  0  0  0
  -25.4372  -15.1815   20.4110 N   0  0  0  0  0  0
  -31.7473  -14.8086   20.1728 O   0  0  0  0  0  0
  -21.6624   -6.8854   21.4230 O   0  0  0  0  0  0
  -22.3582  -14.5554   20.6656 O   0  0  0  0  0  0
  -24.6190  -31.8636   23.2075 C   0  0  0  0  0  0
  -25.9070  -32.4791   23.8374 C   0  0  1  0  0  0
  -27.2267  -27.3809   20.1095 C   0  0  0  0  0  0
  -25.5914  -33.8591   24.2310 N   0  0  0  0  0  0
  -23.4083  -30.4892   21.5483 C   0  0  2  0  0  0
  -24.8521  -28.9503   20.1124 C   0  0  0  0  0  0
  -22.7425  -29.4653   22.4961 C   0  0  0  0  0  0
  -18.0280  -28.1383   22.8491 C   0  0  0  0  0  0
  -24.1490  -36.7304   23.2636 C   0  0  0  0  0  0
  -25.9424  -30.8143   21.3675 C   0  0  0  0  0  0
  -26.0160  -29.4462   20.7116 C   0  0  0  0  0  0
  -27.2042  -28.6713   20.7034 C   0  0  0  0  0  0
  -26.0390  -26.9141   19.4973 C   0  0  0  0  0  0
  -24.8613  -27.6859   19.5001 C   0  0  0  0  0  0
  -23.6171  -29.8239   20.1620 C   0  0  0  0  0  0
  -25.4109  -36.3093   24.0333 C   0  0  1  0  0  0
  -20.5872  -28.3677   23.1295 C   0  0  2  0  0  0
  -20.6771  -26.9409   22.5407 C   0  0  0  0  0  0
  -19.5754  -26.6384   21.5202 C   0  0  0  0  0  0
  -18.1929  -26.7928   22.1614 C   0  0  0  0  0  0
  -19.1530  -28.8849   23.2886 C   0  0  0  0  0  0
  -18.9458  -30.1449   23.8902 C   0  0  0  0  0  0
  -17.6462  -30.6584   24.0569 C   0  0  0  0  0  0
  -25.9035  -34.9456   23.5117 C   0  0  0  0  0  0
  -16.5353  -29.9090   23.6326 C   0  0  0  0  0  0
  -16.7270  -28.6507   23.0345 C   0  0  0  0  0  0
  -26.4489  -31.6584   25.0717 C   0  0  0  0  0  0
  -25.3752  -31.3719   26.1470 C   0  0  0  0  0  0
  -27.0307  -30.3013   24.6123 C   0  0  0  0  0  0
  -27.6064  -32.4304   25.7467 C   0  0  0  0  0  0
  -27.5584  -37.1798   24.8460 C   0  0  0  0  0  0
  -21.4150  -29.3037   22.3698 N   0  0  0  0  0  0
  -26.4292  -37.3781   23.9408 N   0  0  0  0  0  0
  -24.6751  -31.0710   22.0988 N   0  0  0  0  0  0
  -23.4173  -28.8187   23.3017 O   0  0  0  0  0  0
  -28.3847  -26.6117   20.1529 O   0  0  0  0  0  0
  -26.5597  -34.8919   22.4678 O   0  0  0  0  0  0
  -23.5370  -32.1408   23.7452 O   0  0  0  0  0  0
  -29.1455  -16.9732   22.7025 C   0  0  0  0  0  0
  -28.9919  -19.3742   22.3771 C   0  0  0  0  0  0
  -29.9391  -17.9719   20.6236 C   0  0  0  0  0  0
  -28.7636  -18.2428   23.1923 C   0  0  0  0  0  0
  -29.7113  -16.8131   21.4233 C   0  0  0  0  0  0
  -29.5758  -19.2746   21.0903 C   0  0  0  0  0  0
  -28.9568  -22.6251   18.3932 C   0  0  0  0  0  0
  -27.9589  -17.1131   25.3612 C   0  0  0  0  0  0
  -26.5585  -18.8298   24.2239 C   0  0  0  0  0  0
  -28.6845  -19.4908   25.4024 C   0  0  0  0  0  0
  -30.7653  -25.1494   19.4984 C   0  0  0  0  0  0
  -29.8786  -24.4928   21.7332 C   0  0  0  0  0  0
  -29.3309  -21.7069   20.7387 C   0  0  0  0  0  0
  -28.2995  -25.1829   19.8814 C   0  0  0  0  0  0
  -29.6824  -22.8612   19.7315 C   0  0  2  0  0  0
  -28.0114  -18.4124   24.5269 C   0  0  0  0  0  0
  -29.6218  -24.3919   20.2141 C   0  0  0  0  0  0
  -29.6876  -15.4679   20.9327 N   0  0  0  0  0  0
  -29.7443  -20.3921   20.2681 O   0  0  0  0  0  0
  -31.4918  -12.5060   19.1102 H   0  0  0  0  0  0
  -30.4081  -11.3338   19.8074 H   0  0  0  0  0  0
  -29.7569  -11.7826   17.4266 H   0  0  0  0  0  0
  -29.6518  -13.4944   17.7501 H   0  0  0  0  0  0
  -27.8500  -11.2915   18.8103 H   0  0  0  0  0  0
  -27.3748  -12.6140   17.7772 H   0  0  0  0  0  0
  -27.6978  -14.2310   19.5634 H   0  0  0  0  0  0
  -28.7114  -11.8909   21.2671 H   0  0  0  0  0  0
  -28.4606  -13.4836   21.8963 H   0  0  0  0  0  0
  -25.2741   -9.5642   22.4759 H   0  0  0  0  0  0
  -23.9951   -7.4608   22.7486 H   0  0  0  0  0  0
  -21.0792   -8.8756   19.8977 H   0  0  0  0  0  0
  -22.3650  -10.9664   19.6160 H   0  0  0  0  0  0
  -21.2017   -7.6137   23.9706 H   0  0  0  0  0  0
  -21.1484   -6.0518   25.9073 H   0  0  0  0  0  0
  -22.0607   -2.7584   23.2867 H   0  0  0  0  0  0
  -22.4091  -11.9943   22.4815 H   0  0  0  0  0  0
  -21.1135  -13.1356   22.2588 H   0  0  0  0  0  0
  -24.6728  -15.8370   20.5269 H   0  0  0  0  0  0
  -26.2899  -15.6244   20.0910 H   0  0  0  0  0  0
  -26.7140  -32.5488   23.1125 H   0  0  0  0  0  0
  -25.0077  -33.9748   25.0465 H   0  0  0  0  0  0
  -22.6990  -31.3075   21.4094 H   0  0  0  0  0  0
  -23.3735  -35.9656   23.3318 H   0  0  0  0  0  0
  -24.3576  -36.8893   22.2043 H   0  0  0  0  0  0
  -23.7265  -37.6526   23.6636 H   0  0  0  0  0  0
  -26.0645  -31.5806   20.6008 H   0  0  0  0  0  0
  -26.8261  -30.8627   21.9915 H   0  0  0  0  0  0
  -28.1007  -29.0479   21.1763 H   0  0  0  0  0  0
  -25.9956  -25.9476   19.0176 H   0  0  0  0  0  0
  -23.9670  -27.2989   19.0316 H   0  0  0  0  0  0
  -23.7310  -30.6003   19.4050 H   0  0  0  0  0  0
  -22.7382  -29.2502   19.8621 H   0  0  0  0  0  0
  -25.1284  -36.1952   25.0827 H   0  0  0  0  0  0
  -20.9960  -28.3254   24.1416 H   0  0  0  0  0  0
  -20.5663  -26.2290   23.3598 H   0  0  0  0  0  0
  -21.6647  -26.7438   22.1215 H   0  0  0  0  0  0
  -19.6917  -25.6294   21.1231 H   0  0  0  0  0  0
  -19.6693  -27.3193   20.6730 H   0  0  0  0  0  0
  -17.4195  -26.6669   21.4020 H   0  0  0  0  0  0
  -18.0336  -26.0064   22.9006 H   0  0  0  0  0  0
  -19.7933  -30.7266   24.2268 H   0  0  0  0  0  0
  -17.5016  -31.6261   24.5173 H   0  0  0  0  0  0
  -15.5357  -30.2998   23.7640 H   0  0  0  0  0  0
  -15.8666  -28.0826   22.7060 H   0  0  0  0  0  0
  -24.5923  -30.7061   25.7828 H   0  0  0  0  0  0
  -24.8958  -32.2890   26.4902 H   0  0  0  0  0  0
  -25.8110  -30.8908   27.0234 H   0  0  0  0  0  0
  -26.2855  -29.6768   24.1187 H   0  0  0  0  0  0
  -27.4064  -29.7260   25.4593 H   0  0  0  0  0  0
  -27.8700  -30.4306   23.9285 H   0  0  0  0  0  0
  -27.2691  -33.3592   26.2078 H   0  0  0  0  0  0
  -28.3853  -32.6879   25.0278 H   0  0  0  0  0  0
  -28.0758  -31.8411   26.5352 H   0  0  0  0  0  0
  -28.2608  -38.0091   24.7498 H   0  0  0  0  0  0
  -28.1074  -36.2621   24.6289 H   0  0  0  0  0  0
  -27.2306  -37.1448   25.8866 H   0  0  0  0  0  0
  -20.9311  -29.8767   21.6926 H   0  0  0  0  0  0
  -26.0177  -38.2856   24.1416 H   0  0  0  0  0  0
  -28.9319  -16.0818   23.2730 H   0  0  0  0  0  0
  -28.6584  -20.3298   22.7475 H   0  0  0  0  0  0
  -30.3193  -17.8624   19.6182 H   0  0  0  0  0  0
  -29.1639  -21.6267   18.0064 H   0  0  0  0  0  0
  -29.2770  -23.3321   17.6287 H   0  0  0  0  0  0
  -27.8752  -22.7108   18.5042 H   0  0  0  0  0  0
  -27.4084  -16.3206   24.8515 H   0  0  0  0  0  0
  -27.4502  -17.2729   26.3129 H   0  0  0  0  0  0
  -28.9581  -16.7414   25.5925 H   0  0  0  0  0  0
  -26.0533  -18.0781   23.6150 H   0  0  0  0  0  0
  -26.5044  -19.7733   23.6811 H   0  0  0  0  0  0
  -25.9774  -18.9525   25.1386 H   0  0  0  0  0  0
  -29.7224  -19.2337   25.6170 H   0  0  0  0  0  0
  -28.1717  -19.5957   26.3594 H   0  0  0  0  0  0
  -28.6759  -20.4775   24.9414 H   0  0  0  0  0  0
  -30.8413  -26.1833   19.8383 H   0  0  0  0  0  0
  -30.6101  -25.1798   18.4194 H   0  0  0  0  0  0
  -31.7381  -24.6915   19.6812 H   0  0  0  0  0  0
  -29.9432  -25.5304   22.0626 H   0  0  0  0  0  0
  -30.8138  -24.0078   22.0159 H   0  0  0  0  0  0
  -29.0752  -24.0310   22.3081 H   0  0  0  0  0  0
  -28.2592  -21.7110   20.9439 H   0  0  0  0  0  0
  -29.8462  -21.8812   21.6824 H   0  0  0  0  0  0
  -27.4697  -24.7398   20.4360 H   0  0  0  0  0  0
  -28.0683  -25.0775   18.8212 H   0  0  0  0  0  0
  -30.7354  -22.6648   19.5246 H   0  0  0  0  0  0
  -28.8182  -14.9999   21.1355 H   0  0  0  0  0  0
  1 25  1  0  0  0
  1 30  2  0  0  0
  1 88  1  0  0  0
  2  3  1  0  0  0
  2 25  1  0  0  0
  2 90  1  0  0  0
  2 91  1  0  0  0
  3  4  1  0  0  0
  3 92  1  0  0  0
  3 93  1  0  0  0
  4  5  1  0  0  0
  4 94  1  0  0  0
  4 95  1  0  0  0
  5  6  1  0  0  0
  5 26  1  0  0  0
  5 96  1  0  0  0
  6 25  1  0  0  0
  6 97  1  0  0  0
  6 98  1  0  0  0
  7  8  2  0  0  0
  7 26  1  0  0  0
  7 29  1  0  0  0
  8  9  1  0  0  0
  8 22  1  0  0  0
  9 10  1  0  0  0
  9 27  2  0  0  0
 10 11  2  0  0  0
 10 15  1  0  0  0
 11 12  1  0  0  0
 11 99  1  0  0  0
 12 13  2  0  0  0
 12100  1  0  0  0
 13 14  1  0  0  0
 13 31  1  0  0  0
 14 15  2  0  0  0
 14101  1  0  0  0
 15102  1  0  0  0
 16 17  2  0  0  0
 16 21  1  0  0  0
 16 31  1  0  0  0
 17 18  1  0  0  0
 17103  1  0  0  0
 18 19  2  0  0  0
 18104  1  0  0  0
 19 20  1  0  0  0
 19 24  1  0  0  0
 20 21  2  0  0  0
 20105  1  0  0  0
 21 23  1  0  0  0
 22 28  1  0  0  0
 22 32  2  0  0  0
 26 27  1  0  0  0
 28106  1  0  0  0
 28107  1  0  0  0
 29108  1  0  0  0
 29109  1  0  0  0
 33 34  1  0  0  0
 33 66  1  0  0  0
 33 70  2  0  0  0
 34 36  1  0  0  0
 34 59  1  0  0  0
 34110  1  0  0  0
 35 44  2  0  0  0
 35 45  1  0  0  0
 35 68  1  0  0  0
 36 56  1  0  0  0
 36111  1  0  0  0
 37 39  1  0  0  0
 37 47  1  0  0  0
 37 66  1  0  0  0
 37112  1  0  0  0
 38 43  2  0  0  0
 38 46  1  0  0  0
 38 47  1  0  0  0
 39 64  1  0  0  0
 39 67  2  0  0  0
 40 52  1  0  0  0
 40 53  2  0  0  0
 40 58  1  0  0  0
 41113  1  0  0  0
 41114  1  0  0  0
 41115  1  0  0  0
 41 48  1  0  0  0
 42 43  1  0  0  0
 42 66  1  0  0  0
 42116  1  0  0  0
 42117  1  0  0  0
 43 44  1  0  0  0
 44118  1  0  0  0
 45 46  2  0  0  0
 45119  1  0  0  0
 46120  1  0  0  0
 47121  1  0  0  0
 47122  1  0  0  0
 48 56  1  0  0  0
 48 65  1  0  0  0
 48123  1  0  0  0
 49 50  1  0  0  0
 49 53  1  0  0  0
 49 64  1  0  0  0
 49124  1  0  0  0
 50 51  1  0  0  0
 50125  1  0  0  0
 50126  1  0  0  0
 51 52  1  0  0  0
 51127  1  0  0  0
 51128  1  0  0  0
 52129  1  0  0  0
 52130  1  0  0  0
 53 54  1  0  0  0
 54 55  2  0  0  0
 54131  1  0  0  0
 55 57  1  0  0  0
 55132  1  0  0  0
 56 69  2  0  0  0
 57 58  2  0  0  0
 57133  1  0  0  0
 58134  1  0  0  0
 59 60  1  0  0  0
 59 61  1  0  0  0
 59 62  1  0  0  0
 60135  1  0  0  0
 60136  1  0  0  0
 60137  1  0  0  0
 61138  1  0  0  0
 61139  1  0  0  0
 61140  1  0  0  0
 62141  1  0  0  0
 62142  1  0  0  0
 62143  1  0  0  0
 63 65  1  0  0  0
 63144  1  0  0  0
 63145  1  0  0  0
 63146  1  0  0  0
 64147  1  0  0  0
 65148  1  0  0  0
 68 84  1  0  0  0
 71 74  2  0  0  0
 71 75  1  0  0  0
 71149  1  0  0  0
 72 74  1  0  0  0
 72 76  2  0  0  0
 72150  1  0  0  0
 73 75  2  0  0  0
 73 76  1  0  0  0
 73151  1  0  0  0
 74 86  1  0  0  0
 75 88  1  0  0  0
 76 89  1  0  0  0
 77152  1  0  0  0
 77153  1  0  0  0
 77154  1  0  0  0
 77 85  1  0  0  0
 78155  1  0  0  0
 78156  1  0  0  0
 78157  1  0  0  0
 78 86  1  0  0  0
 79 86  1  0  0  0
 79158  1  0  0  0
 79159  1  0  0  0
 79160  1  0  0  0
 80 86  1  0  0  0
 80161  1  0  0  0
 80162  1  0  0  0
 80163  1  0  0  0
 81164  1  0  0  0
 81165  1  0  0  0
 81166  1  0  0  0
 81 87  1  0  0  0
 82 87  1  0  0  0
 82167  1  0  0  0
 82168  1  0  0  0
 82169  1  0  0  0
 83 85  1  0  0  0
 83 89  1  0  0  0
 83170  1  0  0  0
 83171  1  0  0  0
 84 87  1  0  0  0
 84172  1  0  0  0
 84173  1  0  0  0
 85 87  1  0  0  0
 85174  1  0  0  0
 88175  1  0  0  0
M  ISO  4   1 100  68 101  84 101  88 100
M  END
> <chiral flag>
0

> <version>
0

> <s_m_source_file>
/data/baiqing/PycharmProjects/Reinvent-master-3.2/result/LINK_invent/BTK/process_docking_weight1_custom_product_contain_oxygen_bond_distance_aromatic_linkinvent_7_9_3/rearranged_h_0142.sdf

> <i_m_source_file_index>
42

> <r_mmod_Potential_Energy-OPLS-2005>
79.4316558837891

> <r_mmod_Stretch_Energy-OPLS-2005>
60.9204635620117

> <r_mmod_Bend_Energy-OPLS-2005>
155.048690795898

> <r_mmod_Torsional_Energy-OPLS-2005>
258.701812744141

> <r_mmod_Improper_Torsional_Energy-OPLS-2005>
9.61070346832275

> <r_mmod_Van_der_Waal_Energy-OPLS-2005>
168.109405517578

> <r_mmod_Electrostatic_Energy-OPLS-2005>
-405.502685546875

> <r_mmod_Solvation_Energy-OPLS-2005>
-194.369155883789

> <b_mmod_Minimization_Converged-OPLS-2005>
0

> <r_mmod_RMS_Derivative-OPLS-2005>
2.50745558738708

$$$$
42
                    3D
 Structure written by MMmdl.
159168  0  0  1  0            999 V2000
  -30.6410  -14.6896   20.4847 C   0  0  0  0  0  0
  -30.4278  -12.4263   19.4589 C   0  0  0  0  0  0
  -29.5033  -12.5002   18.2254 C   0  0  0  0  0  0
  -28.0293  -12.3318   18.6425 C   0  0  0  0  0  0
  -27.6419  -13.2271   19.8503 C   0  0  2  0  0  0
  -28.6886  -13.1459   20.9824 C   0  0  0  0  0  0
  -25.2510  -13.8190   20.5694 C   0  0  0  0  0  0
  -24.1799  -13.0438   20.9209 C   0  0  0  0  0  0
  -24.6387  -11.6916   20.8754 C   0  0  0  0  0  0
  -23.9066  -10.4292   21.0413 C   0  0  0  0  0  0
  -24.3618   -9.4205   21.9188 C   0  0  0  0  0  0
  -23.6292   -8.2241   22.0757 C   0  0  0  0  0  0
  -22.4273   -8.0282   21.3547 C   0  0  0  0  0  0
  -21.9909   -9.0256   20.4650 C   0  0  0  0  0  0
  -22.7239  -10.2135   20.3060 C   0  0  0  0  0  0
  -21.6851   -6.0736   22.5279 C   0  0  0  0  0  0
  -21.4015   -6.5640   23.8212 C   0  0  0  0  0  0
  -21.3659   -5.6793   24.9174 C   0  0  0  0  0  0
  -21.6042   -4.3055   24.7224 C   0  0  0  0  0  0
  -21.8818   -3.8147   23.4346 C   0  0  0  0  0  0
  -21.9192   -4.6964   22.3403 C   0  0  0  0  0  0
  -22.7820  -13.5224   21.1866 C   0  0  0  0  0  0
  -22.1660   -4.2150   21.0979 F   0  0  0  0  0  0
  -21.5629   -3.4539   25.7738 F   0  0  0  0  0  0
  -29.9905  -13.4836   20.3953 N   0  0  0  0  0  0
  -26.2935  -12.9390   20.3286 N   0  0  0  0  0  0
  -25.9315  -11.6537   20.5755 N   0  0  0  0  0  0
  -22.0464  -12.8220   22.0424 N   0  0  0  0  0  0
  -25.4185  -15.1916   20.4100 N   0  0  0  0  0  0
  -31.8331  -14.7693   20.1751 O   0  0  0  0  0  0
  -21.6638   -6.8879   21.4241 O   0  0  0  0  0  0
  -22.3507  -14.5528   20.6709 O   0  0  0  0  0  0
  -24.6278  -31.8576   23.1999 C   0  0  0  0  0  0
  -25.9115  -32.4767   23.8338 C   0  0  1  0  0  0
  -27.2214  -27.2992   20.1301 C   0  0  0  0  0  0
  -25.5919  -33.8569   24.2262 N   0  0  0  0  0  0
  -23.4228  -30.4795   21.5428 C   0  0  2  0  0  0
  -24.8702  -28.9267   20.1140 C   0  0  0  0  0  0
  -22.7483  -29.4613   22.4930 C   0  0  0  0  0  0
  -18.0288  -28.1387   22.8487 C   0  0  0  0  0  0
  -24.1489  -36.7292   23.2640 C   0  0  0  0  0  0
  -25.9647  -30.7830   21.3728 C   0  0  0  0  0  0
  -26.0400  -29.4072   20.7177 C   0  0  0  0  0  0
  -27.2225  -28.6067   20.7107 C   0  0  0  0  0  0
  -26.0328  -26.8708   19.5048 C   0  0  0  0  0  0
  -24.8689  -27.6649   19.4970 C   0  0  0  0  0  0
  -23.6392  -29.8102   20.1598 C   0  0  0  0  0  0
  -25.4114  -36.3077   24.0327 C   0  0  1  0  0  0
  -20.5889  -28.3693   23.1280 C   0  0  2  0  0  0
  -20.6777  -26.9415   22.5411 C   0  0  0  0  0  0
  -19.5753  -26.6386   21.5213 C   0  0  0  0  0  0
  -18.1933  -26.7930   22.1625 C   0  0  0  0  0  0
  -19.1541  -28.8856   23.2878 C   0  0  0  0  0  0
  -18.9464  -30.1458   23.8896 C   0  0  0  0  0  0
  -17.6464  -30.6589   24.0564 C   0  0  0  0  0  0
  -25.9051  -34.9446   23.5097 C   0  0  0  0  0  0
  -16.5354  -29.9088   23.6331 C   0  0  0  0  0  0
  -16.7274  -28.6505   23.0352 C   0  0  0  0  0  0
  -26.4493  -31.6587   25.0719 C   0  0  0  0  0  0
  -25.3722  -31.3733   26.1443 C   0  0  0  0  0  0
  -27.0341  -30.3008   24.6187 C   0  0  0  0  0  0
  -27.6045  -32.4332   25.7493 C   0  0  0  0  0  0
  -27.5578  -37.1801   24.8465 C   0  0  0  0  0  0
  -21.4195  -29.3042   22.3671 N   0  0  0  0  0  0
  -26.4290  -37.3773   23.9407 N   0  0  0  0  0  0
  -24.6907  -31.0573   22.0954 N   0  0  0  0  0  0
  -23.4196  -28.8159   23.3024 O   0  0  0  0  0  0
  -28.3272  -26.4350   20.1319 O   0  0  0  0  0  0
  -26.5629  -34.8918   22.4669 O   0  0  0  0  0  0
  -23.5436  -32.1380   23.7317 O   0  0  0  0  0  0
  -31.9543  -18.6533   22.0598 C   0  0  0  0  0  0
  -31.4687  -17.3781   21.7496 C   0  0  0  0  0  0
  -29.6625  -18.4342   20.5163 C   0  0  0  0  0  0
  -30.1267  -19.7833   20.8301 C   0  0  0  0  0  0
  -31.3327  -19.8339   21.5959 C   0  0  0  0  0  0
  -30.3276  -17.2135   20.9452 C   0  0  0  0  0  0
  -29.4382  -21.0619   20.2217 C   0  0  0  0  0  0
  -32.0780  -21.1128   21.9145 C   0  0  0  0  0  0
  -31.2211  -22.1371   22.6359 C   0  0  0  0  0  0
  -30.5446  -23.0587   21.6363 C   0  0  0  0  0  0
  -29.2906  -22.5160   20.9176 C   0  0  1  0  0  0
  -28.7624  -23.7572   20.0119 C   0  0  0  0  0  0
  -28.1545  -25.0751   20.7158 C   0  0  0  0  0  0
  -29.8827  -15.8339   20.6671 N   0  0  0  0  0  0
  -28.8903  -20.9473   19.1219 O   0  0  0  0  0  0
  -31.4691  -12.5434   19.1543 H   0  0  0  0  0  0
  -30.3641  -11.4464   19.9351 H   0  0  0  0  0  0
  -29.7771  -11.7317   17.5017 H   0  0  0  0  0  0
  -29.6368  -13.4580   17.7197 H   0  0  0  0  0  0
  -27.8798  -11.2825   18.8996 H   0  0  0  0  0  0
  -27.3713  -12.5328   17.7962 H   0  0  0  0  0  0
  -27.6407  -14.2510   19.4767 H   0  0  0  0  0  0
  -28.7145  -12.1460   21.4185 H   0  0  0  0  0  0
  -28.4341  -13.8282   21.7953 H   0  0  0  0  0  0
  -25.2762   -9.5680   22.4764 H   0  0  0  0  0  0
  -24.0002   -7.4629   22.7475 H   0  0  0  0  0  0
  -21.0841   -8.8775   19.8955 H   0  0  0  0  0  0
  -22.3697  -10.9675   19.6171 H   0  0  0  0  0  0
  -21.2009   -7.6148   23.9716 H   0  0  0  0  0  0
  -21.1482   -6.0523   25.9077 H   0  0  0  0  0  0
  -22.0598   -2.7610   23.2844 H   0  0  0  0  0  0
  -22.4080  -11.9884   22.4818 H   0  0  0  0  0  0
  -21.1082  -13.1249   22.2628 H   0  0  0  0  0  0
  -24.6475  -15.8414   20.5190 H   0  0  0  0  0  0
  -26.2590  -15.6339   20.0619 H   0  0  0  0  0  0
  -26.7182  -32.5431   23.1086 H   0  0  0  0  0  0
  -25.0052  -33.9710   25.0396 H   0  0  0  0  0  0
  -22.7175  -31.3003   21.3971 H   0  0  0  0  0  0
  -23.3747  -35.9628   23.3304 H   0  0  0  0  0  0
  -24.3578  -36.8914   22.2055 H   0  0  0  0  0  0
  -23.7248  -37.6495   23.6664 H   0  0  0  0  0  0
  -26.0978  -31.5445   20.6032 H   0  0  0  0  0  0
  -26.8443  -30.8333   22.0032 H   0  0  0  0  0  0
  -28.1234  -28.9724   21.1833 H   0  0  0  0  0  0
  -25.9998  -25.9014   19.0276 H   0  0  0  0  0  0
  -23.9730  -27.2920   19.0202 H   0  0  0  0  0  0
  -23.7611  -30.5848   19.4018 H   0  0  0  0  0  0
  -22.7585  -29.2409   19.8571 H   0  0  0  0  0  0
  -25.1296  -36.1926   25.0820 H   0  0  0  0  0  0
  -20.9981  -28.3270   24.1401 H   0  0  0  0  0  0
  -20.5681  -26.2303   23.3613 H   0  0  0  0  0  0
  -21.6646  -26.7447   22.1204 H   0  0  0  0  0  0
  -19.6917  -25.6296   21.1246 H   0  0  0  0  0  0
  -19.6690  -27.3194   20.6741 H   0  0  0  0  0  0
  -17.4203  -26.6676   21.4028 H   0  0  0  0  0  0
  -18.0335  -26.0072   22.9022 H   0  0  0  0  0  0
  -19.7939  -30.7274   24.2266 H   0  0  0  0  0  0
  -17.5018  -31.6270   24.5167 H   0  0  0  0  0  0
  -15.5355  -30.2991   23.7653 H   0  0  0  0  0  0
  -15.8674  -28.0824   22.7068 H   0  0  0  0  0  0
  -24.5892  -30.7089   25.7772 H   0  0  0  0  0  0
  -24.8920  -32.2903   26.4867 H   0  0  0  0  0  0
  -25.8042  -30.8909   27.0220 H   0  0  0  0  0  0
  -26.2920  -29.6757   24.1206 H   0  0  0  0  0  0
  -27.4027  -29.7269   25.4700 H   0  0  0  0  0  0
  -27.8794  -30.4291   23.9421 H   0  0  0  0  0  0
  -27.2644  -33.3631   26.2064 H   0  0  0  0  0  0
  -28.3857  -32.6898   25.0326 H   0  0  0  0  0  0
  -28.0710  -31.8465   26.5418 H   0  0  0  0  0  0
  -28.2597  -38.0097   24.7505 H   0  0  0  0  0  0
  -28.1072  -36.2628   24.6297 H   0  0  0  0  0  0
  -27.2297  -37.1460   25.8868 H   0  0  0  0  0  0
  -20.9378  -29.8756   21.6872 H   0  0  0  0  0  0
  -26.0170  -38.2848   24.1401 H   0  0  0  0  0  0
  -32.8569  -18.7102   22.6530 H   0  0  0  0  0  0
  -32.0021  -16.5219   22.1383 H   0  0  0  0  0  0
  -28.7763  -18.3400   19.9040 H   0  0  0  0  0  0
  -32.5152  -21.5151   20.9994 H   0  0  0  0  0  0
  -32.9324  -20.8896   22.5555 H   0  0  0  0  0  0
  -31.8820  -22.7532   23.2479 H   0  0  0  0  0  0
  -30.5155  -21.6756   23.3286 H   0  0  0  0  0  0
  -31.2725  -23.4106   20.9033 H   0  0  0  0  0  0
  -30.2684  -23.9468   22.2009 H   0  0  0  0  0  0
  -28.5323  -22.3480   21.6823 H   0  0  0  0  0  0
  -28.0139  -23.3937   19.3075 H   0  0  0  0  0  0
  -29.5914  -24.0771   19.3801 H   0  0  0  0  0  0
  -28.5776  -25.1658   21.7138 H   0  0  0  0  0  0
  -27.0996  -24.8791   20.9113 H   0  0  0  0  0  0
  -28.8852  -15.6893   20.6479 H   0  0  0  0  0  0
  1 25  1  0  0  0
  1 30  2  0  0  0
  1 84  1  0  0  0
  2  3  1  0  0  0
  2 25  1  0  0  0
  2 86  1  0  0  0
  2 87  1  0  0  0
  3  4  1  0  0  0
  3 88  1  0  0  0
  3 89  1  0  0  0
  4  5  1  0  0  0
  4 90  1  0  0  0
  4 91  1  0  0  0
  5  6  1  0  0  0
  5 26  1  0  0  0
  5 92  1  0  0  0
  6 25  1  0  0  0
  6 93  1  0  0  0
  6 94  1  0  0  0
  7  8  2  0  0  0
  7 26  1  0  0  0
  7 29  1  0  0  0
  8  9  1  0  0  0
  8 22  1  0  0  0
  9 10  1  0  0  0
  9 27  2  0  0  0
 10 11  2  0  0  0
 10 15  1  0  0  0
 11 12  1  0  0  0
 11 95  1  0  0  0
 12 13  2  0  0  0
 12 96  1  0  0  0
 13 14  1  0  0  0
 13 31  1  0  0  0
 14 15  2  0  0  0
 14 97  1  0  0  0
 15 98  1  0  0  0
 16 17  2  0  0  0
 16 21  1  0  0  0
 16 31  1  0  0  0
 17 18  1  0  0  0
 17 99  1  0  0  0
 18 19  2  0  0  0
 18100  1  0  0  0
 19 20  1  0  0  0
 19 24  1  0  0  0
 20 21  2  0  0  0
 20101  1  0  0  0
 21 23  1  0  0  0
 22 28  1  0  0  0
 22 32  2  0  0  0
 26 27  1  0  0  0
 28102  1  0  0  0
 28103  1  0  0  0
 29104  1  0  0  0
 29105  1  0  0  0
 33 34  1  0  0  0
 33 66  1  0  0  0
 33 70  2  0  0  0
 34 36  1  0  0  0
 34 59  1  0  0  0
 34106  1  0  0  0
 35 44  2  0  0  0
 35 45  1  0  0  0
 35 68  1  0  0  0
 36 56  1  0  0  0
 36107  1  0  0  0
 37 39  1  0  0  0
 37 47  1  0  0  0
 37 66  1  0  0  0
 37108  1  0  0  0
 38 43  2  0  0  0
 38 46  1  0  0  0
 38 47  1  0  0  0
 39 64  1  0  0  0
 39 67  2  0  0  0
 40 52  1  0  0  0
 40 53  2  0  0  0
 40 58  1  0  0  0
 41109  1  0  0  0
 41110  1  0  0  0
 41111  1  0  0  0
 41 48  1  0  0  0
 42 43  1  0  0  0
 42 66  1  0  0  0
 42112  1  0  0  0
 42113  1  0  0  0
 43 44  1  0  0  0
 44114  1  0  0  0
 45 46  2  0  0  0
 45115  1  0  0  0
 46116  1  0  0  0
 47117  1  0  0  0
 47118  1  0  0  0
 48 56  1  0  0  0
 48 65  1  0  0  0
 48119  1  0  0  0
 49 50  1  0  0  0
 49 53  1  0  0  0
 49 64  1  0  0  0
 49120  1  0  0  0
 50 51  1  0  0  0
 50121  1  0  0  0
 50122  1  0  0  0
 51 52  1  0  0  0
 51123  1  0  0  0
 51124  1  0  0  0
 52125  1  0  0  0
 52126  1  0  0  0
 53 54  1  0  0  0
 54 55  2  0  0  0
 54127  1  0  0  0
 55 57  1  0  0  0
 55128  1  0  0  0
 56 69  2  0  0  0
 57 58  2  0  0  0
 57129  1  0  0  0
 58130  1  0  0  0
 59 60  1  0  0  0
 59 61  1  0  0  0
 59 62  1  0  0  0
 60131  1  0  0  0
 60132  1  0  0  0
 60133  1  0  0  0
 61134  1  0  0  0
 61135  1  0  0  0
 61136  1  0  0  0
 62137  1  0  0  0
 62138  1  0  0  0
 62139  1  0  0  0
 63 65  1  0  0  0
 63140  1  0  0  0
 63141  1  0  0  0
 63142  1  0  0  0
 64143  1  0  0  0
 65144  1  0  0  0
 68 83  1  0  0  0
 71 72  2  0  0  0
 71 75  1  0  0  0
 71145  1  0  0  0
 72 76  1  0  0  0
 72146  1  0  0  0
 73 74  1  0  0  0
 73 76  2  0  0  0
 73147  1  0  0  0
 74 75  2  0  0  0
 74 77  1  0  0  0
 75 78  1  0  0  0
 76 84  1  0  0  0
 77 81  1  0  0  0
 77 85  2  0  0  0
 78 79  1  0  0  0
 78148  1  0  0  0
 78149  1  0  0  0
 79 80  1  0  0  0
 79150  1  0  0  0
 79151  1  0  0  0
 80 81  1  0  0  0
 80152  1  0  0  0
 80153  1  0  0  0
 81 82  1  0  0  0
 81154  1  0  0  0
 82 83  1  0  0  0
 82155  1  0  0  0
 82156  1  0  0  0
 83157  1  0  0  0
 83158  1  0  0  0
 84159  1  0  0  0
M  ISO  4   1 100  68 101  83 101  84 100
M  END
> <chiral flag>
0

> <version>
0

> <s_m_source_file>
/data/baiqing/PycharmProjects/Reinvent-master-3.2/result/LINK_invent/BTK/process_docking_weight1_custom_product_contain_oxygen_bond_distance_aromatic_linkinvent_7_9_3/rearranged_h_0142.sdf

> <i_m_source_file_index>
43

> <r_mmod_Potential_Energy-OPLS-2005>
227.263381958008

> <r_mmod_Stretch_Energy-OPLS-2005>
120.04615020752

> <r_mmod_Bend_Energy-OPLS-2005>
170.140029907227

> <r_mmod_Torsional_Energy-OPLS-2005>
281.834838867188

> <r_mmod_Improper_Torsional_Energy-OPLS-2005>
6.98530054092407

> <r_mmod_Van_der_Waal_Energy-OPLS-2005>
149.470993041992

> <r_mmod_Electrostatic_Energy-OPLS-2005>
-349.795684814453

> <r_mmod_Solvation_Energy-OPLS-2005>
-214.903594970703

> <b_mmod_Minimization_Converged-OPLS-2005>
0

> <r_mmod_RMS_Derivative-OPLS-2005>
0.448812663555145

$$$$
43
                    3D
 Structure written by MMmdl.
158166  0  0  1  0            999 V2000
  -30.6533  -14.5131   20.6004 C   0  0  0  0  0  0
  -30.4476  -12.3467   19.4064 C   0  0  0  0  0  0
  -29.5004  -12.5274   18.1986 C   0  0  0  0  0  0
  -28.0232  -12.3731   18.6131 C   0  0  0  0  0  0
  -27.6682  -13.2001   19.8768 C   0  0  2  0  0  0
  -28.7125  -12.9455   20.9870 C   0  0  0  0  0  0
  -25.2647  -13.8137   20.5728 C   0  0  0  0  0  0
  -24.1853  -13.0442   20.9177 C   0  0  0  0  0  0
  -24.6381  -11.6891   20.8685 C   0  0  0  0  0  0
  -23.9014  -10.4303   21.0370 C   0  0  0  0  0  0
  -24.3579   -9.4226   21.9147 C   0  0  0  0  0  0
  -23.6275   -8.2253   22.0743 C   0  0  0  0  0  0
  -22.4247   -8.0280   21.3553 C   0  0  0  0  0  0
  -21.9864   -9.0238   20.4648 C   0  0  0  0  0  0
  -22.7182  -10.2125   20.3043 C   0  0  0  0  0  0
  -21.6855   -6.0722   22.5280 C   0  0  0  0  0  0
  -21.4014   -6.5618   23.8208 C   0  0  0  0  0  0
  -21.3656   -5.6773   24.9167 C   0  0  0  0  0  0
  -21.6048   -4.3043   24.7216 C   0  0  0  0  0  0
  -21.8817   -3.8138   23.4346 C   0  0  0  0  0  0
  -21.9192   -4.6956   22.3406 C   0  0  0  0  0  0
  -22.7883  -13.5260   21.1823 C   0  0  0  0  0  0
  -22.1659   -4.2138   21.0987 F   0  0  0  0  0  0
  -21.5632   -3.4524   25.7737 F   0  0  0  0  0  0
  -30.0445  -13.2999   20.4546 N   0  0  0  0  0  0
  -26.3053  -12.9290   20.3340 N   0  0  0  0  0  0
  -25.9297  -11.6452   20.5663 N   0  0  0  0  0  0
  -22.0491  -12.8292   22.0395 N   0  0  0  0  0  0
  -25.4435  -15.1849   20.4271 N   0  0  0  0  0  0
  -31.7358  -14.7886   20.0679 O   0  0  0  0  0  0
  -21.6643   -6.8858   21.4244 O   0  0  0  0  0  0
  -22.3566  -14.5548   20.6650 O   0  0  0  0  0  0
  -24.6203  -31.8656   23.2101 C   0  0  0  0  0  0
  -25.9080  -32.4808   23.8402 C   0  0  1  0  0  0
  -27.2338  -27.3848   20.0923 C   0  0  0  0  0  0
  -25.5925  -33.8613   24.2332 N   0  0  0  0  0  0
  -23.4106  -30.4923   21.5498 C   0  0  2  0  0  0
  -24.8560  -28.9555   20.1130 C   0  0  0  0  0  0
  -22.7449  -29.4655   22.4951 C   0  0  0  0  0  0
  -18.0276  -28.1386   22.8479 C   0  0  0  0  0  0
  -24.1483  -36.7288   23.2639 C   0  0  0  0  0  0
  -25.9479  -30.8124   21.3765 C   0  0  0  0  0  0
  -26.0207  -29.4462   20.7152 C   0  0  0  0  0  0
  -27.2087  -28.6682   20.7023 C   0  0  0  0  0  0
  -26.0434  -26.9297   19.4751 C   0  0  0  0  0  0
  -24.8647  -27.6974   19.4918 C   0  0  0  0  0  0
  -23.6248  -29.8333   20.1623 C   0  0  0  0  0  0
  -25.4107  -36.3103   24.0343 C   0  0  1  0  0  0
  -20.5876  -28.3687   23.1297 C   0  0  2  0  0  0
  -20.6768  -26.9416   22.5423 C   0  0  0  0  0  0
  -19.5749  -26.6389   21.5212 C   0  0  0  0  0  0
  -18.1924  -26.7931   22.1609 C   0  0  0  0  0  0
  -19.1532  -28.8844   23.2890 C   0  0  0  0  0  0
  -18.9459  -30.1446   23.8919 C   0  0  0  0  0  0
  -17.6466  -30.6585   24.0567 C   0  0  0  0  0  0
  -25.9042  -34.9467   23.5132 C   0  0  0  0  0  0
  -16.5354  -29.9093   23.6326 C   0  0  0  0  0  0
  -16.7272  -28.6508   23.0345 C   0  0  0  0  0  0
  -26.4501  -31.6607   25.0741 C   0  0  0  0  0  0
  -25.3764  -31.3729   26.1496 C   0  0  0  0  0  0
  -27.0343  -30.3036   24.6178 C   0  0  0  0  0  0
  -27.6087  -32.4332   25.7481 C   0  0  0  0  0  0
  -27.5581  -37.1804   24.8467 C   0  0  0  0  0  0
  -21.4163  -29.3049   22.3697 N   0  0  0  0  0  0
  -26.4288  -37.3796   23.9417 N   0  0  0  0  0  0
  -24.6774  -31.0722   22.1021 N   0  0  0  0  0  0
  -23.4197  -28.8180   23.2997 O   0  0  0  0  0  0
  -28.3921  -26.6116   20.1284 O   0  0  0  0  0  0
  -26.5593  -34.8927   22.4687 O   0  0  0  0  0  0
  -23.5384  -32.1429   23.7460 O   0  0  0  0  0  0
  -30.4222  -17.7722   20.4632 C   0  0  0  0  0  0
  -28.8529  -17.3694   22.1540 C   0  0  0  0  0  0
  -29.7850  -16.8040   21.3241 C   0  0  0  0  0  0
  -29.9407  -19.0658   20.6446 C   0  0  0  0  0  0
  -29.3995  -24.3033   20.3125 C   0  0  0  0  0  0
  -31.4807  -23.2344   19.4336 C   0  0  0  0  0  0
  -29.3636  -22.8921   18.1481 C   0  0  0  0  0  0
  -30.3134  -20.3454   19.8984 C   0  0  0  0  0  0
  -28.3229  -25.2296   19.6671 C   0  0  0  0  0  0
  -29.6702  -21.6995   20.3920 C   0  0  0  0  0  0
  -29.9546  -23.0248   19.5703 C   0  0  0  0  0  0
  -29.9636  -15.3787   21.3751 N   0  0  0  0  0  0
  -29.8155  -24.5690   21.4453 O   0  0  0  0  0  0
  -28.7241  -19.0870   21.9034 S   0  0  0  0  0  0
  -31.4854  -12.4866   19.0978 H   0  0  0  0  0  0
  -30.3888  -11.3265   19.7852 H   0  0  0  0  0  0
  -29.7435  -11.8077   17.4166 H   0  0  0  0  0  0
  -29.6507  -13.5146   17.7560 H   0  0  0  0  0  0
  -27.8343  -11.3142   18.7978 H   0  0  0  0  0  0
  -27.3721  -12.6548   17.7849 H   0  0  0  0  0  0
  -27.7206  -14.2525   19.5964 H   0  0  0  0  0  0
  -28.7026  -11.8917   21.2657 H   0  0  0  0  0  0
  -28.4505  -13.4773   21.9020 H   0  0  0  0  0  0
  -25.2720   -9.5722   22.4709 H   0  0  0  0  0  0
  -23.9995   -7.4651   22.7458 H   0  0  0  0  0  0
  -21.0779   -8.8748   19.8957 H   0  0  0  0  0  0
  -22.3614  -10.9656   19.6150 H   0  0  0  0  0  0
  -21.2012   -7.6128   23.9706 H   0  0  0  0  0  0
  -21.1472   -6.0502   25.9064 H   0  0  0  0  0  0
  -22.0604   -2.7602   23.2842 H   0  0  0  0  0  0
  -22.4081  -11.9960   22.4811 H   0  0  0  0  0  0
  -21.1105  -13.1325   22.2557 H   0  0  0  0  0  0
  -24.6978  -15.8518   20.5945 H   0  0  0  0  0  0
  -26.3078  -15.6221   20.1384 H   0  0  0  0  0  0
  -26.7149  -32.5502   23.1154 H   0  0  0  0  0  0
  -25.0108  -33.9774   25.0501 H   0  0  0  0  0  0
  -22.7011  -31.3107   21.4118 H   0  0  0  0  0  0
  -23.3756  -35.9608   23.3326 H   0  0  0  0  0  0
  -24.3584  -36.8873   22.2049 H   0  0  0  0  0  0
  -23.7222  -37.6495   23.6640 H   0  0  0  0  0  0
  -26.0803  -31.5837   20.6163 H   0  0  0  0  0  0
  -26.8276  -30.8541   22.0077 H   0  0  0  0  0  0
  -28.1038  -29.0448   21.1774 H   0  0  0  0  0  0
  -25.9910  -25.9776   18.9707 H   0  0  0  0  0  0
  -23.9692  -27.3155   19.0208 H   0  0  0  0  0  0
  -23.7511  -30.6139   19.4107 H   0  0  0  0  0  0
  -22.7451  -29.2663   19.8538 H   0  0  0  0  0  0
  -25.1281  -36.1966   25.0834 H   0  0  0  0  0  0
  -20.9954  -28.3269   24.1421 H   0  0  0  0  0  0
  -20.5660  -26.2301   23.3624 H   0  0  0  0  0  0
  -21.6647  -26.7458   22.1237 H   0  0  0  0  0  0
  -19.6920  -25.6299   21.1246 H   0  0  0  0  0  0
  -19.6686  -27.3196   20.6738 H   0  0  0  0  0  0
  -17.4200  -26.6689   21.4006 H   0  0  0  0  0  0
  -18.0315  -26.0082   22.9008 H   0  0  0  0  0  0
  -19.7936  -30.7251   24.2318 H   0  0  0  0  0  0
  -17.5023  -31.6270   24.5162 H   0  0  0  0  0  0
  -15.5361  -30.3007   23.7639 H   0  0  0  0  0  0
  -15.8664  -28.0840   22.7056 H   0  0  0  0  0  0
  -24.5906  -30.7118   25.7833 H   0  0  0  0  0  0
  -24.8991  -32.2890   26.4984 H   0  0  0  0  0  0
  -25.8104  -30.8859   27.0234 H   0  0  0  0  0  0
  -26.2910  -29.6777   24.1231 H   0  0  0  0  0  0
  -27.4088  -29.7306   25.4668 H   0  0  0  0  0  0
  -27.8761  -30.4339   23.9372 H   0  0  0  0  0  0
  -27.2723  -33.3613   26.2120 H   0  0  0  0  0  0
  -28.3844  -32.6936   25.0263 H   0  0  0  0  0  0
  -28.0834  -31.8432   26.5332 H   0  0  0  0  0  0
  -28.2619  -38.0083   24.7512 H   0  0  0  0  0  0
  -28.1052  -36.2619   24.6284 H   0  0  0  0  0  0
  -27.2314  -37.1461   25.8876 H   0  0  0  0  0  0
  -20.9325  -29.8795   21.6943 H   0  0  0  0  0  0
  -26.0171  -38.2871   24.1427 H   0  0  0  0  0  0
  -31.1760  -17.4973   19.7387 H   0  0  0  0  0  0
  -28.2149  -16.8995   22.8958 H   0  0  0  0  0  0
  -31.7052  -24.1720   18.9210 H   0  0  0  0  0  0
  -31.9584  -22.4414   18.8594 H   0  0  0  0  0  0
  -31.9679  -23.2732   20.4087 H   0  0  0  0  0  0
  -29.6069  -23.7570   17.5293 H   0  0  0  0  0  0
  -28.2788  -22.7771   18.1641 H   0  0  0  0  0  0
  -29.7682  -22.0292   17.6202 H   0  0  0  0  0  0
  -30.0621  -20.1923   18.8492 H   0  0  0  0  0  0
  -31.3991  -20.4439   19.9231 H   0  0  0  0  0  0
  -27.3675  -24.7835   19.9393 H   0  0  0  0  0  0
  -28.3912  -25.2235   18.5814 H   0  0  0  0  0  0
  -29.9763  -21.8548   21.4276 H   0  0  0  0  0  0
  -28.5880  -21.5651   20.4260 H   0  0  0  0  0  0
  -29.2555  -14.8968   21.9073 H   0  0  0  0  0  0
  1 25  1  0  0  0
  1 30  2  0  0  0
  1 82  1  0  0  0
  2  3  1  0  0  0
  2 25  1  0  0  0
  2 85  1  0  0  0
  2 86  1  0  0  0
  3  4  1  0  0  0
  3 87  1  0  0  0
  3 88  1  0  0  0
  4  5  1  0  0  0
  4 89  1  0  0  0
  4 90  1  0  0  0
  5  6  1  0  0  0
  5 26  1  0  0  0
  5 91  1  0  0  0
  6 25  1  0  0  0
  6 92  1  0  0  0
  6 93  1  0  0  0
  7  8  2  0  0  0
  7 26  1  0  0  0
  7 29  1  0  0  0
  8  9  1  0  0  0
  8 22  1  0  0  0
  9 10  1  0  0  0
  9 27  2  0  0  0
 10 11  2  0  0  0
 10 15  1  0  0  0
 11 12  1  0  0  0
 11 94  1  0  0  0
 12 13  2  0  0  0
 12 95  1  0  0  0
 13 14  1  0  0  0
 13 31  1  0  0  0
 14 15  2  0  0  0
 14 96  1  0  0  0
 15 97  1  0  0  0
 16 17  2  0  0  0
 16 21  1  0  0  0
 16 31  1  0  0  0
 17 18  1  0  0  0
 17 98  1  0  0  0
 18 19  2  0  0  0
 18 99  1  0  0  0
 19 20  1  0  0  0
 19 24  1  0  0  0
 20 21  2  0  0  0
 20100  1  0  0  0
 21 23  1  0  0  0
 22 28  1  0  0  0
 22 32  2  0  0  0
 26 27  1  0  0  0
 28101  1  0  0  0
 28102  1  0  0  0
 29103  1  0  0  0
 29104  1  0  0  0
 33 34  1  0  0  0
 33 66  1  0  0  0
 33 70  2  0  0  0
 34 36  1  0  0  0
 34 59  1  0  0  0
 34105  1  0  0  0
 35 44  2  0  0  0
 35 45  1  0  0  0
 35 68  1  0  0  0
 36 56  1  0  0  0
 36106  1  0  0  0
 37 39  1  0  0  0
 37 47  1  0  0  0
 37 66  1  0  0  0
 37107  1  0  0  0
 38 43  2  0  0  0
 38 46  1  0  0  0
 38 47  1  0  0  0
 39 64  1  0  0  0
 39 67  2  0  0  0
 40 52  1  0  0  0
 40 53  2  0  0  0
 40 58  1  0  0  0
 41108  1  0  0  0
 41109  1  0  0  0
 41110  1  0  0  0
 41 48  1  0  0  0
 42 43  1  0  0  0
 42 66  1  0  0  0
 42111  1  0  0  0
 42112  1  0  0  0
 43 44  1  0  0  0
 44113  1  0  0  0
 45 46  2  0  0  0
 45114  1  0  0  0
 46115  1  0  0  0
 47116  1  0  0  0
 47117  1  0  0  0
 48 56  1  0  0  0
 48 65  1  0  0  0
 48118  1  0  0  0
 49 50  1  0  0  0
 49 53  1  0  0  0
 49 64  1  0  0  0
 49119  1  0  0  0
 50 51  1  0  0  0
 50120  1  0  0  0
 50121  1  0  0  0
 51 52  1  0  0  0
 51122  1  0  0  0
 51123  1  0  0  0
 52124  1  0  0  0
 52125  1  0  0  0
 53 54  1  0  0  0
 54 55  2  0  0  0
 54126  1  0  0  0
 55 57  1  0  0  0
 55127  1  0  0  0
 56 69  2  0  0  0
 57 58  2  0  0  0
 57128  1  0  0  0
 58129  1  0  0  0
 59 60  1  0  0  0
 59 61  1  0  0  0
 59 62  1  0  0  0
 60130  1  0  0  0
 60131  1  0  0  0
 60132  1  0  0  0
 61133  1  0  0  0
 61134  1  0  0  0
 61135  1  0  0  0
 62136  1  0  0  0
 62137  1  0  0  0
 62138  1  0  0  0
 63 65  1  0  0  0
 63139  1  0  0  0
 63140  1  0  0  0
 63141  1  0  0  0
 64142  1  0  0  0
 65143  1  0  0  0
 68 79  1  0  0  0
 71 73  1  0  0  0
 71 74  2  0  0  0
 71144  1  0  0  0
 72 73  2  0  0  0
 72 84  1  0  0  0
 72145  1  0  0  0
 73 82  1  0  0  0
 74 78  1  0  0  0
 74 84  1  0  0  0
 75 79  1  0  0  0
 75 81  1  0  0  0
 75 83  2  0  0  0
 76146  1  0  0  0
 76147  1  0  0  0
 76148  1  0  0  0
 76 81  1  0  0  0
 77 81  1  0  0  0
 77149  1  0  0  0
 77150  1  0  0  0
 77151  1  0  0  0
 78 80  1  0  0  0
 78152  1  0  0  0
 78153  1  0  0  0
 79154  1  0  0  0
 79155  1  0  0  0
 80 81  1  0  0  0
 80156  1  0  0  0
 80157  1  0  0  0
 82158  1  0  0  0
M  ISO  4   1 100  68 101  79 101  82 100
M  END
> <chiral flag>
0

> <version>
0

> <s_m_source_file>
/data/baiqing/PycharmProjects/Reinvent-master-3.2/result/LINK_invent/BTK/process_docking_weight1_custom_product_contain_oxygen_bond_distance_aromatic_linkinvent_7_9_3/rearranged_h_0142.sdf

> <i_m_source_file_index>
44

> <r_mmod_Potential_Energy-OPLS-2005>
28.5656719207764

> <r_mmod_Stretch_Energy-OPLS-2005>
55.4453392028809

> <r_mmod_Bend_Energy-OPLS-2005>
130.056549072266

> <r_mmod_Torsional_Energy-OPLS-2005>
222.237670898438

> <r_mmod_Improper_Torsional_Energy-OPLS-2005>
3.1082775592804

> <r_mmod_Van_der_Waal_Energy-OPLS-2005>
134.912200927734

> <r_mmod_Electrostatic_Energy-OPLS-2005>
-312.056365966797

> <r_mmod_Solvation_Energy-OPLS-2005>
-226.126571655273

> <b_mmod_Minimization_Converged-OPLS-2005>
0

> <r_mmod_RMS_Derivative-OPLS-2005>
2.89524865150452

$$$$
44
                    3D
 Structure written by MMmdl.
160169  0  0  1  0            999 V2000
  -30.6276  -14.7528   20.4407 C   0  0  0  0  0  0
  -30.4247  -12.4570   19.4828 C   0  0  0  0  0  0
  -29.5114  -12.5048   18.2389 C   0  0  0  0  0  0
  -28.0366  -12.3347   18.6493 C   0  0  0  0  0  0
  -27.6391  -13.2387   19.8476 C   0  0  2  0  0  0
  -28.6827  -13.1937   20.9853 C   0  0  0  0  0  0
  -25.2497  -13.8204   20.5689 C   0  0  0  0  0  0
  -24.1797  -13.0443   20.9215 C   0  0  0  0  0  0
  -24.6401  -11.6932   20.8741 C   0  0  0  0  0  0
  -23.9080  -10.4303   21.0400 C   0  0  0  0  0  0
  -24.3629   -9.4218   21.9182 C   0  0  0  0  0  0
  -23.6301   -8.2252   22.0752 C   0  0  0  0  0  0
  -22.4286   -8.0282   21.3541 C   0  0  0  0  0  0
  -21.9917   -9.0260   20.4650 C   0  0  0  0  0  0
  -22.7247  -10.2141   20.3060 C   0  0  0  0  0  0
  -21.6857   -6.0734   22.5281 C   0  0  0  0  0  0
  -21.4017   -6.5637   23.8213 C   0  0  0  0  0  0
  -21.3661   -5.6791   24.9175 C   0  0  0  0  0  0
  -21.6047   -4.3054   24.7226 C   0  0  0  0  0  0
  -21.8821   -3.8147   23.4346 C   0  0  0  0  0  0
  -21.9195   -4.6961   22.3403 C   0  0  0  0  0  0
  -22.7824  -13.5229   21.1866 C   0  0  0  0  0  0
  -22.1666   -4.2147   21.0977 F   0  0  0  0  0  0
  -21.5628   -3.4536   25.7735 F   0  0  0  0  0  0
  -29.9836  -13.5351   20.4002 N   0  0  0  0  0  0
  -26.2928  -12.9432   20.3269 N   0  0  0  0  0  0
  -25.9333  -11.6568   20.5752 N   0  0  0  0  0  0
  -22.0466  -12.8226   22.0422 N   0  0  0  0  0  0
  -25.4148  -15.1928   20.4075 N   0  0  0  0  0  0
  -31.8268  -14.7873   20.1566 O   0  0  0  0  0  0
  -21.6652   -6.8879   21.4245 O   0  0  0  0  0  0
  -22.3510  -14.5525   20.6699 O   0  0  0  0  0  0
  -24.6281  -31.8546   23.1960 C   0  0  0  0  0  0
  -25.9112  -32.4753   23.8310 C   0  0  1  0  0  0
  -27.2215  -27.2606   20.1224 C   0  0  0  0  0  0
  -25.5903  -33.8557   24.2236 N   0  0  0  0  0  0
  -23.4249  -30.4754   21.5388 C   0  0  2  0  0  0
  -24.8704  -28.9138   20.1124 C   0  0  0  0  0  0
  -22.7491  -29.4603   22.4911 C   0  0  0  0  0  0
  -18.0285  -28.1390   22.8480 C   0  0  0  0  0  0
  -24.1485  -36.7285   23.2645 C   0  0  0  0  0  0
  -25.9680  -30.7663   21.3726 C   0  0  0  0  0  0
  -26.0400  -29.3861   20.7188 C   0  0  0  0  0  0
  -27.2149  -28.5706   20.7127 C   0  0  0  0  0  0
  -26.0230  -26.8453   19.5016 C   0  0  0  0  0  0
  -24.8660  -27.6517   19.4969 C   0  0  0  0  0  0
  -23.6422  -29.8022   20.1569 C   0  0  0  0  0  0
  -25.4114  -36.3071   24.0328 C   0  0  1  0  0  0
  -20.5885  -28.3696   23.1273 C   0  0  2  0  0  0
  -20.6770  -26.9414   22.5412 C   0  0  0  0  0  0
  -19.5749  -26.6379   21.5211 C   0  0  0  0  0  0
  -18.1926  -26.7929   22.1617 C   0  0  0  0  0  0
  -19.1541  -28.8861   23.2867 C   0  0  0  0  0  0
  -18.9463  -30.1458   23.8890 C   0  0  0  0  0  0
  -17.6467  -30.6592   24.0561 C   0  0  0  0  0  0
  -25.9052  -34.9443   23.5091 C   0  0  0  0  0  0
  -16.5357  -29.9094   23.6326 C   0  0  0  0  0  0
  -16.7274  -28.6509   23.0350 C   0  0  0  0  0  0
  -26.4492  -31.6581   25.0700 C   0  0  0  0  0  0
  -25.3718  -31.3722   26.1424 C   0  0  0  0  0  0
  -27.0339  -30.3006   24.6160 C   0  0  0  0  0  0
  -27.6041  -32.4330   25.7470 C   0  0  0  0  0  0
  -27.5577  -37.1800   24.8468 C   0  0  0  0  0  0
  -21.4201  -29.3045   22.3670 N   0  0  0  0  0  0
  -26.4288  -37.3772   23.9410 N   0  0  0  0  0  0
  -24.6930  -31.0512   22.0924 N   0  0  0  0  0  0
  -23.4211  -28.8150   23.3003 O   0  0  0  0  0  0
  -28.3545  -26.4199   20.1849 O   0  0  0  0  0  0
  -26.5642  -34.8927   22.4670 O   0  0  0  0  0  0
  -23.5438  -32.1369   23.7269 O   0  0  0  0  0  0
  -29.3134  -18.4964   20.5095 C   0  0  0  0  0  0
  -30.8747  -20.0721   19.5046 C   0  0  0  0  0  0
  -31.4460  -17.6920   19.6804 C   0  0  0  0  0  0
  -29.6286  -19.8764   20.1330 C   0  0  0  0  0  0
  -30.2065  -17.3567   20.2859 C   0  0  0  0  0  0
  -31.7668  -19.0084   19.2967 C   0  0  0  0  0  0
  -28.7054  -21.1068   20.2417 C   0  0  0  0  0  0
  -30.1930  -23.8889   22.0727 C   0  0  0  0  0  0
  -28.6795  -24.1397   22.1069 C   0  0  0  0  0  0
  -30.4040  -22.7416   21.0706 C   0  0  0  0  0  0
  -28.2095  -23.7181   20.7145 C   0  0  2  0  0  0
  -28.4182  -24.9875   19.7185 C   0  0  0  0  0  0
  -29.0616  -22.4346   20.5313 N   0  0  0  0  0  0
  -29.8833  -15.9237   20.6049 N   0  0  0  0  0  0
  -27.4166  -20.8863   20.0071 N   0  3  0  0  0  0
  -32.9534  -19.2555   18.6922 F   0  0  0  0  0  0
  -31.4688  -12.5613   19.1822 H   0  0  0  0  0  0
  -30.3513  -11.4867   19.9751 H   0  0  0  0  0  0
  -29.7957  -11.7244   17.5312 H   0  0  0  0  0  0
  -29.6429  -13.4538   17.7167 H   0  0  0  0  0  0
  -27.8925  -11.2869   18.9140 H   0  0  0  0  0  0
  -27.3815  -12.5246   17.7983 H   0  0  0  0  0  0
  -27.6274  -14.2578   19.4603 H   0  0  0  0  0  0
  -28.7200  -12.2057   21.4446 H   0  0  0  0  0  0
  -28.4168  -13.8908   21.7815 H   0  0  0  0  0  0
  -25.2773   -9.5702   22.4760 H   0  0  0  0  0  0
  -24.0014   -7.4656   22.7470 H   0  0  0  0  0  0
  -21.0842   -8.8776   19.8964 H   0  0  0  0  0  0
  -22.3691  -10.9677   19.6175 H   0  0  0  0  0  0
  -21.2010   -7.6145   23.9714 H   0  0  0  0  0  0
  -21.1480   -6.0519   25.9075 H   0  0  0  0  0  0
  -22.0597   -2.7607   23.2844 H   0  0  0  0  0  0
  -22.4087  -11.9900   22.4835 H   0  0  0  0  0  0
  -21.1079  -13.1250   22.2602 H   0  0  0  0  0  0
  -24.6360  -15.8358   20.5030 H   0  0  0  0  0  0
  -26.2454  -15.6328   20.0344 H   0  0  0  0  0  0
  -26.7172  -32.5412   23.1048 H   0  0  0  0  0  0
  -25.0019  -33.9681   25.0361 H   0  0  0  0  0  0
  -22.7198  -31.2960   21.3896 H   0  0  0  0  0  0
  -23.3745  -35.9620   23.3320 H   0  0  0  0  0  0
  -24.3571  -36.8893   22.2055 H   0  0  0  0  0  0
  -23.7244  -37.6493   23.6663 H   0  0  0  0  0  0
  -26.1017  -31.5209   20.5970 H   0  0  0  0  0  0
  -26.8489  -30.8227   21.9996 H   0  0  0  0  0  0
  -28.1136  -28.9255   21.1972 H   0  0  0  0  0  0
  -25.9431  -25.8781   19.0315 H   0  0  0  0  0  0
  -23.9652  -27.2830   19.0258 H   0  0  0  0  0  0
  -23.7701  -30.5731   19.3953 H   0  0  0  0  0  0
  -22.7601  -29.2355   19.8534 H   0  0  0  0  0  0
  -25.1301  -36.1914   25.0820 H   0  0  0  0  0  0
  -20.9978  -28.3269   24.1391 H   0  0  0  0  0  0
  -20.5641  -26.2316   23.3617 H   0  0  0  0  0  0
  -21.6642  -26.7412   22.1227 H   0  0  0  0  0  0
  -19.6908  -25.6286   21.1243 H   0  0  0  0  0  0
  -19.6687  -27.3188   20.6738 H   0  0  0  0  0  0
  -17.4194  -26.6663   21.4018 H   0  0  0  0  0  0
  -18.0332  -26.0076   22.9018 H   0  0  0  0  0  0
  -19.7940  -30.7270   24.2261 H   0  0  0  0  0  0
  -17.5023  -31.6269   24.5169 H   0  0  0  0  0  0
  -15.5362  -30.3001   23.7656 H   0  0  0  0  0  0
  -15.8663  -28.0829   22.7082 H   0  0  0  0  0  0
  -24.5899  -30.7061   25.7760 H   0  0  0  0  0  0
  -24.8899  -32.2885   26.4845 H   0  0  0  0  0  0
  -25.8045  -30.8908   27.0202 H   0  0  0  0  0  0
  -26.2908  -29.6753   24.1192 H   0  0  0  0  0  0
  -27.4053  -29.7269   25.4661 H   0  0  0  0  0  0
  -27.8774  -30.4305   23.9375 H   0  0  0  0  0  0
  -27.2643  -33.3632   26.2039 H   0  0  0  0  0  0
  -28.3854  -32.6890   25.0300 H   0  0  0  0  0  0
  -28.0709  -31.8461   26.5389 H   0  0  0  0  0  0
  -28.2604  -38.0089   24.7518 H   0  0  0  0  0  0
  -28.1063  -36.2623   24.6293 H   0  0  0  0  0  0
  -27.2299  -37.1455   25.8873 H   0  0  0  0  0  0
  -20.9399  -29.8775   21.6873 H   0  0  0  0  0  0
  -26.0164  -38.2843   24.1418 H   0  0  0  0  0  0
  -28.3511  -18.3105   20.9657 H   0  0  0  0  0  0
  -31.1603  -21.0473   19.1408 H   0  0  0  0  0  0
  -32.1947  -16.9536   19.4556 H   0  0  0  0  0  0
  -30.5789  -23.6419   23.0611 H   0  0  0  0  0  0
  -30.7194  -24.7801   21.7280 H   0  0  0  0  0  0
  -28.4422  -25.1752   22.3513 H   0  0  0  0  0  0
  -28.1989  -23.5148   22.8610 H   0  0  0  0  0  0
  -30.8406  -21.8843   21.5868 H   0  0  0  0  0  0
  -31.0901  -23.0412   20.2766 H   0  0  0  0  0  0
  -27.1457  -23.4831   20.7592 H   0  0  0  0  0  0
  -27.7823  -24.8520   18.8463 H   0  0  0  0  0  0
  -29.4214  -24.8894   19.3029 H   0  0  0  0  0  0
  -28.9333  -15.7562   20.8987 H   0  0  0  0  0  0
  -27.1198  -19.9634   19.7302 H   0  0  0  0  0  0
  -26.7225  -21.6061   20.0979 H   0  0  0  0  0  0
  1 25  1  0  0  0
  1 30  2  0  0  0
  1 84  1  0  0  0
  2  3  1  0  0  0
  2 25  1  0  0  0
  2 87  1  0  0  0
  2 88  1  0  0  0
  3  4  1  0  0  0
  3 89  1  0  0  0
  3 90  1  0  0  0
  4  5  1  0  0  0
  4 91  1  0  0  0
  4 92  1  0  0  0
  5  6  1  0  0  0
  5 26  1  0  0  0
  5 93  1  0  0  0
  6 25  1  0  0  0
  6 94  1  0  0  0
  6 95  1  0  0  0
  7  8  2  0  0  0
  7 26  1  0  0  0
  7 29  1  0  0  0
  8  9  1  0  0  0
  8 22  1  0  0  0
  9 10  1  0  0  0
  9 27  2  0  0  0
 10 11  2  0  0  0
 10 15  1  0  0  0
 11 12  1  0  0  0
 11 96  1  0  0  0
 12 13  2  0  0  0
 12 97  1  0  0  0
 13 14  1  0  0  0
 13 31  1  0  0  0
 14 15  2  0  0  0
 14 98  1  0  0  0
 15 99  1  0  0  0
 16 17  2  0  0  0
 16 21  1  0  0  0
 16 31  1  0  0  0
 17 18  1  0  0  0
 17100  1  0  0  0
 18 19  2  0  0  0
 18101  1  0  0  0
 19 20  1  0  0  0
 19 24  1  0  0  0
 20 21  2  0  0  0
 20102  1  0  0  0
 21 23  1  0  0  0
 22 28  1  0  0  0
 22 32  2  0  0  0
 26 27  1  0  0  0
 28103  1  0  0  0
 28104  1  0  0  0
 29105  1  0  0  0
 29106  1  0  0  0
 33 34  1  0  0  0
 33 66  1  0  0  0
 33 70  2  0  0  0
 34 36  1  0  0  0
 34 59  1  0  0  0
 34107  1  0  0  0
 35 44  2  0  0  0
 35 45  1  0  0  0
 35 68  1  0  0  0
 36 56  1  0  0  0
 36108  1  0  0  0
 37 39  1  0  0  0
 37 47  1  0  0  0
 37 66  1  0  0  0
 37109  1  0  0  0
 38 43  2  0  0  0
 38 46  1  0  0  0
 38 47  1  0  0  0
 39 64  1  0  0  0
 39 67  2  0  0  0
 40 52  1  0  0  0
 40 53  2  0  0  0
 40 58  1  0  0  0
 41110  1  0  0  0
 41111  1  0  0  0
 41112  1  0  0  0
 41 48  1  0  0  0
 42 43  1  0  0  0
 42 66  1  0  0  0
 42113  1  0  0  0
 42114  1  0  0  0
 43 44  1  0  0  0
 44115  1  0  0  0
 45 46  2  0  0  0
 45116  1  0  0  0
 46117  1  0  0  0
 47118  1  0  0  0
 47119  1  0  0  0
 48 56  1  0  0  0
 48 65  1  0  0  0
 48120  1  0  0  0
 49 50  1  0  0  0
 49 53  1  0  0  0
 49 64  1  0  0  0
 49121  1  0  0  0
 50 51  1  0  0  0
 50122  1  0  0  0
 50123  1  0  0  0
 51 52  1  0  0  0
 51124  1  0  0  0
 51125  1  0  0  0
 52126  1  0  0  0
 52127  1  0  0  0
 53 54  1  0  0  0
 54 55  2  0  0  0
 54128  1  0  0  0
 55 57  1  0  0  0
 55129  1  0  0  0
 56 69  2  0  0  0
 57 58  2  0  0  0
 57130  1  0  0  0
 58131  1  0  0  0
 59 60  1  0  0  0
 59 61  1  0  0  0
 59 62  1  0  0  0
 60132  1  0  0  0
 60133  1  0  0  0
 60134  1  0  0  0
 61135  1  0  0  0
 61136  1  0  0  0
 61137  1  0  0  0
 62138  1  0  0  0
 62139  1  0  0  0
 62140  1  0  0  0
 63 65  1  0  0  0
 63141  1  0  0  0
 63142  1  0  0  0
 63143  1  0  0  0
 64144  1  0  0  0
 65145  1  0  0  0
 68 82  1  0  0  0
 71 74  2  0  0  0
 71 75  1  0  0  0
 71146  1  0  0  0
 72 74  1  0  0  0
 72 76  2  0  0  0
 72147  1  0  0  0
 73 75  2  0  0  0
 73 76  1  0  0  0
 73148  1  0  0  0
 74 77  1  0  0  0
 75 84  1  0  0  0
 76 86  1  0  0  0
 77 83  1  0  0  0
 77 85  2  0  0  0
 78 79  1  0  0  0
 78 80  1  0  0  0
 78149  1  0  0  0
 78150  1  0  0  0
 79 81  1  0  0  0
 79151  1  0  0  0
 79152  1  0  0  0
 80 83  1  0  0  0
 80153  1  0  0  0
 80154  1  0  0  0
 81 82  1  0  0  0
 81 83  1  0  0  0
 81155  1  0  0  0
 82156  1  0  0  0
 82157  1  0  0  0
 84158  1  0  0  0
 85159  1  0  0  0
 85160  1  0  0  0
M  CHG  1  85   1
M  ISO  4   1 100  68 101  82 101  84 100
M  END
> <chiral flag>
0

> <version>
0

> <s_m_source_file>
/data/baiqing/PycharmProjects/Reinvent-master-3.2/result/LINK_invent/BTK/process_docking_weight1_custom_product_contain_oxygen_bond_distance_aromatic_linkinvent_7_9_3/rearranged_h_0142.sdf

> <i_m_source_file_index>
45

> <r_mmod_Potential_Energy-OPLS-2005>
56.7558822631836

> <r_mmod_Stretch_Energy-OPLS-2005>
138.080474853516

> <r_mmod_Bend_Energy-OPLS-2005>
222.899108886719

> <r_mmod_Torsional_Energy-OPLS-2005>
284.005523681641

> <r_mmod_Improper_Torsional_Energy-OPLS-2005>
5.59113836288452

> <r_mmod_Van_der_Waal_Energy-OPLS-2005>
145.029403686523

> <r_mmod_Electrostatic_Energy-OPLS-2005>
-410.869018554688

> <r_mmod_Solvation_Energy-OPLS-2005>
-412.329528808594

> <b_mmod_Minimization_Converged-OPLS-2005>
0

> <r_mmod_RMS_Derivative-OPLS-2005>
1.69252848625183

$$$$
45
                    3D
 Structure written by MMmdl.
168176  0  0  1  0            999 V2000
  -30.7160  -14.4657   20.5572 C   0  0  0  0  0  0
  -30.4169  -12.3062   19.4224 C   0  0  0  0  0  0
  -29.4900  -12.5041   18.2053 C   0  0  0  0  0  0
  -28.0090  -12.3733   18.6144 C   0  0  0  0  0  0
  -27.6559  -13.2135   19.8710 C   0  0  2  0  0  0
  -28.6997  -13.0056   20.9924 C   0  0  0  0  0  0
  -25.2558  -13.8182   20.5674 C   0  0  0  0  0  0
  -24.1802  -13.0439   20.9160 C   0  0  0  0  0  0
  -24.6373  -11.6918   20.8720 C   0  0  0  0  0  0
  -23.9042  -10.4292   21.0380 C   0  0  0  0  0  0
  -24.3596   -9.4212   21.9157 C   0  0  0  0  0  0
  -23.6275   -8.2247   22.0746 C   0  0  0  0  0  0
  -22.4260   -8.0277   21.3544 C   0  0  0  0  0  0
  -21.9886   -9.0239   20.4644 C   0  0  0  0  0  0
  -22.7211  -10.2121   20.3038 C   0  0  0  0  0  0
  -21.6851   -6.0720   22.5270 C   0  0  0  0  0  0
  -21.4016   -6.5623   23.8201 C   0  0  0  0  0  0
  -21.3667   -5.6782   24.9167 C   0  0  0  0  0  0
  -21.6038   -4.3041   24.7220 C   0  0  0  0  0  0
  -21.8825   -3.8133   23.4344 C   0  0  0  0  0  0
  -21.9195   -4.6947   22.3398 C   0  0  0  0  0  0
  -22.7833  -13.5234   21.1826 C   0  0  0  0  0  0
  -22.1658   -4.2128   21.0978 F   0  0  0  0  0  0
  -21.5633   -3.4533   25.7738 F   0  0  0  0  0  0
  -30.0310  -13.2980   20.4362 N   0  0  0  0  0  0
  -26.2992  -12.9353   20.3359 N   0  0  0  0  0  0
  -25.9300  -11.6508   20.5740 N   0  0  0  0  0  0
  -22.0489  -12.8221   22.0407 N   0  0  0  0  0  0
  -25.4270  -15.1893   20.4086 N   0  0  0  0  0  0
  -31.8626  -14.6053   20.1227 O   0  0  0  0  0  0
  -21.6642   -6.8866   21.4233 O   0  0  0  0  0  0
  -22.3507  -14.5528   20.6683 O   0  0  0  0  0  0
  -24.6114  -31.8683   23.2142 C   0  0  0  0  0  0
  -25.9018  -32.4818   23.8436 C   0  0  1  0  0  0
  -27.2383  -27.4534   20.0891 C   0  0  0  0  0  0
  -25.5897  -33.8625   24.2345 N   0  0  0  0  0  0
  -23.3994  -30.4890   21.5568 C   0  0  2  0  0  0
  -24.8433  -28.9647   20.1122 C   0  0  0  0  0  0
  -22.7431  -29.4629   22.5055 C   0  0  0  0  0  0
  -18.0283  -28.1387   22.8442 C   0  0  0  0  0  0
  -24.1485  -36.7321   23.2633 C   0  0  0  0  0  0
  -25.9243  -30.8365   21.3694 C   0  0  0  0  0  0
  -25.9990  -29.4744   20.7145 C   0  0  0  0  0  0
  -27.1937  -28.7243   20.7026 C   0  0  0  0  0  0
  -26.0639  -26.9620   19.4694 C   0  0  0  0  0  0
  -24.8714  -27.7082   19.4852 C   0  0  0  0  0  0
  -23.6038  -29.8264   20.1678 C   0  0  0  0  0  0
  -25.4109  -36.3112   24.0328 C   0  0  1  0  0  0
  -20.5850  -28.3631   23.1331 C   0  0  2  0  0  0
  -20.6754  -26.9370   22.5428 C   0  0  0  0  0  0
  -19.5741  -26.6374   21.5212 C   0  0  0  0  0  0
  -18.1915  -26.7932   22.1598 C   0  0  0  0  0  0
  -19.1523  -28.8834   23.2864 C   0  0  0  0  0  0
  -18.9459  -30.1432   23.8875 C   0  0  0  0  0  0
  -17.6458  -30.6567   24.0546 C   0  0  0  0  0  0
  -25.9040  -34.9470   23.5142 C   0  0  0  0  0  0
  -16.5339  -29.9057   23.6322 C   0  0  0  0  0  0
  -16.7276  -28.6485   23.0324 C   0  0  0  0  0  0
  -26.4467  -31.6607   25.0763 C   0  0  0  0  0  0
  -25.3756  -31.3677   26.1534 C   0  0  0  0  0  0
  -27.0292  -30.3062   24.6093 C   0  0  0  0  0  0
  -27.6046  -32.4356   25.7505 C   0  0  0  0  0  0
  -27.5585  -37.1806   24.8464 C   0  0  0  0  0  0
  -21.4169  -29.2996   22.3782 N   0  0  0  0  0  0
  -26.4302  -37.3780   23.9407 N   0  0  0  0  0  0
  -24.6627  -31.0803   22.1048 N   0  0  0  0  0  0
  -23.4200  -28.8212   23.3123 O   0  0  0  0  0  0
  -28.4407  -26.7758   20.1165 O   0  0  0  0  0  0
  -26.5592  -34.8904   22.4699 O   0  0  0  0  0  0
  -23.5314  -32.1464   23.7537 O   0  0  0  0  0  0
  -31.6059  -17.3966   21.0307 C   0  0  0  0  0  0
  -31.6547  -18.7972   20.7569 C   0  0  0  0  0  0
  -30.4136  -19.3226   20.4823 C   0  0  0  0  0  0
  -30.3605  -16.8272   20.9159 C   0  0  0  0  0  0
  -32.9511  -19.5523   20.7431 C   0  0  0  0  0  0
  -28.6190  -21.3991   21.9943 C   0  0  0  0  0  0
  -31.0398  -22.0585   21.9606 C   0  0  0  0  0  0
  -28.5772  -24.6466   22.2003 C   0  0  0  0  0  0
  -30.7214  -25.1846   20.9944 C   0  0  0  0  0  0
  -30.0606  -20.7198   20.0273 C   0  0  0  0  0  0
  -29.4008  -23.1106   20.2566 C   0  0  0  0  0  0
  -28.4988  -25.3817   19.8013 C   0  0  0  0  0  0
  -29.7887  -21.8388   21.0881 C   0  0  0  0  0  0
  -29.3123  -24.5655   20.8443 C   0  0  0  0  0  0
  -30.0046  -15.5135   21.0209 N   0  0  0  0  0  0
  -29.1834  -18.0764   20.5848 S   0  0  0  0  0  0
  -31.4622  -12.3939   19.1200 H   0  0  0  0  0  0
  -30.3089  -11.3018   19.8313 H   0  0  0  0  0  0
  -29.7283  -11.7777   17.4270 H   0  0  0  0  0  0
  -29.6612  -13.4893   17.7680 H   0  0  0  0  0  0
  -27.8061  -11.3177   18.8013 H   0  0  0  0  0  0
  -27.3652  -12.6614   17.7829 H   0  0  0  0  0  0
  -27.6926  -14.2596   19.5665 H   0  0  0  0  0  0
  -28.6746  -11.9723   21.3410 H   0  0  0  0  0  0
  -28.4659  -13.6177   21.8655 H   0  0  0  0  0  0
  -25.2744   -9.5682   22.4723 H   0  0  0  0  0  0
  -23.9982   -7.4638   22.7462 H   0  0  0  0  0  0
  -21.0821   -8.8747   19.8949 H   0  0  0  0  0  0
  -22.3660  -10.9647   19.6143 H   0  0  0  0  0  0
  -21.2018   -7.6135   23.9696 H   0  0  0  0  0  0
  -21.1477   -6.0517   25.9067 H   0  0  0  0  0  0
  -22.0605   -2.7593   23.2852 H   0  0  0  0  0  0
  -22.4130  -11.9894   22.4790 H   0  0  0  0  0  0
  -21.1110  -13.1233   22.2625 H   0  0  0  0  0  0
  -24.6586  -15.8452   20.5073 H   0  0  0  0  0  0
  -26.2788  -15.6267   20.0796 H   0  0  0  0  0  0
  -26.7083  -32.5524   23.1194 H   0  0  0  0  0  0
  -25.0076  -33.9809   25.0501 H   0  0  0  0  0  0
  -22.6847  -31.3027   21.4233 H   0  0  0  0  0  0
  -23.3729  -35.9665   23.3313 H   0  0  0  0  0  0
  -24.3580  -36.8950   22.2048 H   0  0  0  0  0  0
  -23.7248  -37.6529   23.6656 H   0  0  0  0  0  0
  -26.0402  -31.6052   20.6026 H   0  0  0  0  0  0
  -26.8100  -30.8811   21.9906 H   0  0  0  0  0  0
  -28.0870  -29.1158   21.1707 H   0  0  0  0  0  0
  -26.0370  -26.0185   18.9489 H   0  0  0  0  0  0
  -23.9909  -27.3117   18.9981 H   0  0  0  0  0  0
  -23.7080  -30.6072   19.4128 H   0  0  0  0  0  0
  -22.7282  -29.2455   19.8711 H   0  0  0  0  0  0
  -25.1272  -36.1985   25.0814 H   0  0  0  0  0  0
  -20.9897  -28.3174   24.1466 H   0  0  0  0  0  0
  -20.5695  -26.2215   23.3596 H   0  0  0  0  0  0
  -21.6617  -26.7456   22.1190 H   0  0  0  0  0  0
  -19.6890  -25.6305   21.1199 H   0  0  0  0  0  0
  -19.6692  -27.3198   20.6754 H   0  0  0  0  0  0
  -17.4202  -26.6695   21.3986 H   0  0  0  0  0  0
  -18.0279  -26.0116   22.9035 H   0  0  0  0  0  0
  -19.7944  -30.7240   24.2242 H   0  0  0  0  0  0
  -17.5020  -31.6249   24.5149 H   0  0  0  0  0  0
  -15.5327  -30.2922   23.7687 H   0  0  0  0  0  0
  -15.8699  -28.0800   22.7009 H   0  0  0  0  0  0
  -24.5910  -30.7051   25.7870 H   0  0  0  0  0  0
  -24.8951  -32.2810   26.5057 H   0  0  0  0  0  0
  -25.8134  -30.8797   27.0252 H   0  0  0  0  0  0
  -26.2800  -29.6839   24.1175 H   0  0  0  0  0  0
  -27.4132  -29.7287   25.4516 H   0  0  0  0  0  0
  -27.8620  -30.4428   23.9182 H   0  0  0  0  0  0
  -27.2649  -33.3650   26.2098 H   0  0  0  0  0  0
  -28.3806  -32.6949   25.0289 H   0  0  0  0  0  0
  -28.0761  -31.8488   26.5407 H   0  0  0  0  0  0
  -28.2572  -38.0127   24.7531 H   0  0  0  0  0  0
  -28.1120  -36.2663   24.6267 H   0  0  0  0  0  0
  -27.2329  -37.1433   25.8874 H   0  0  0  0  0  0
  -20.9379  -29.8759   21.7013 H   0  0  0  0  0  0
  -26.0202  -38.2850   24.1439 H   0  0  0  0  0  0
  -32.5091  -16.8491   21.2603 H   0  0  0  0  0  0
  -33.7641  -18.9264   20.3763 H   0  0  0  0  0  0
  -33.2270  -19.8799   21.7453 H   0  0  0  0  0  0
  -32.9165  -20.4346   20.1044 H   0  0  0  0  0  0
  -28.7555  -20.3867   22.3746 H   0  0  0  0  0  0
  -27.6721  -21.4184   21.4563 H   0  0  0  0  0  0
  -28.5103  -22.0402   22.8663 H   0  0  0  0  0  0
  -31.3292  -21.1431   22.4717 H   0  0  0  0  0  0
  -30.8742  -22.7928   22.7470 H   0  0  0  0  0  0
  -31.8871  -22.3922   21.3619 H   0  0  0  0  0  0
  -28.3891  -25.6804   22.4948 H   0  0  0  0  0  0
  -29.1556  -24.1998   23.0066 H   0  0  0  0  0  0
  -27.6102  -24.1456   22.1646 H   0  0  0  0  0  0
  -30.6783  -26.2593   21.1767 H   0  0  0  0  0  0
  -31.3243  -25.0250   20.1007 H   0  0  0  0  0  0
  -31.2676  -24.7650   21.8364 H   0  0  0  0  0  0
  -29.1736  -20.6338   19.3994 H   0  0  0  0  0  0
  -30.8350  -21.0545   19.3370 H   0  0  0  0  0  0
  -28.4454  -22.8777   19.7821 H   0  0  0  0  0  0
  -30.0886  -23.1776   19.4109 H   0  0  0  0  0  0
  -28.9449  -25.2881   18.8101 H   0  0  0  0  0  0
  -27.5211  -24.9117   19.7513 H   0  0  0  0  0  0
  -29.0384  -15.3163   21.2348 H   0  0  0  0  0  0
  1 25  1  0  0  0
  1 30  2  0  0  0
  1 85  1  0  0  0
  2  3  1  0  0  0
  2 25  1  0  0  0
  2 87  1  0  0  0
  2 88  1  0  0  0
  3  4  1  0  0  0
  3 89  1  0  0  0
  3 90  1  0  0  0
  4  5  1  0  0  0
  4 91  1  0  0  0
  4 92  1  0  0  0
  5  6  1  0  0  0
  5 26  1  0  0  0
  5 93  1  0  0  0
  6 25  1  0  0  0
  6 94  1  0  0  0
  6 95  1  0  0  0
  7  8  2  0  0  0
  7 26  1  0  0  0
  7 29  1  0  0  0
  8  9  1  0  0  0
  8 22  1  0  0  0
  9 10  1  0  0  0
  9 27  2  0  0  0
 10 11  2  0  0  0
 10 15  1  0  0  0
 11 12  1  0  0  0
 11 96  1  0  0  0
 12 13  2  0  0  0
 12 97  1  0  0  0
 13 14  1  0  0  0
 13 31  1  0  0  0
 14 15  2  0  0  0
 14 98  1  0  0  0
 15 99  1  0  0  0
 16 17  2  0  0  0
 16 21  1  0  0  0
 16 31  1  0  0  0
 17 18  1  0  0  0
 17100  1  0  0  0
 18 19  2  0  0  0
 18101  1  0  0  0
 19 20  1  0  0  0
 19 24  1  0  0  0
 20 21  2  0  0  0
 20102  1  0  0  0
 21 23  1  0  0  0
 22 28  1  0  0  0
 22 32  2  0  0  0
 26 27  1  0  0  0
 28103  1  0  0  0
 28104  1  0  0  0
 29105  1  0  0  0
 29106  1  0  0  0
 33 34  1  0  0  0
 33 66  1  0  0  0
 33 70  2  0  0  0
 34 36  1  0  0  0
 34 59  1  0  0  0
 34107  1  0  0  0
 35 44  2  0  0  0
 35 45  1  0  0  0
 35 68  1  0  0  0
 36 56  1  0  0  0
 36108  1  0  0  0
 37 39  1  0  0  0
 37 47  1  0  0  0
 37 66  1  0  0  0
 37109  1  0  0  0
 38 43  2  0  0  0
 38 46  1  0  0  0
 38 47  1  0  0  0
 39 64  1  0  0  0
 39 67  2  0  0  0
 40 52  1  0  0  0
 40 53  2  0  0  0
 40 58  1  0  0  0
 41110  1  0  0  0
 41111  1  0  0  0
 41112  1  0  0  0
 41 48  1  0  0  0
 42 43  1  0  0  0
 42 66  1  0  0  0
 42113  1  0  0  0
 42114  1  0  0  0
 43 44  1  0  0  0
 44115  1  0  0  0
 45 46  2  0  0  0
 45116  1  0  0  0
 46117  1  0  0  0
 47118  1  0  0  0
 47119  1  0  0  0
 48 56  1  0  0  0
 48 65  1  0  0  0
 48120  1  0  0  0
 49 50  1  0  0  0
 49 53  1  0  0  0
 49 64  1  0  0  0
 49121  1  0  0  0
 50 51  1  0  0  0
 50122  1  0  0  0
 50123  1  0  0  0
 51 52  1  0  0  0
 51124  1  0  0  0
 51125  1  0  0  0
 52126  1  0  0  0
 52127  1  0  0  0
 53 54  1  0  0  0
 54 55  2  0  0  0
 54128  1  0  0  0
 55 57  1  0  0  0
 55129  1  0  0  0
 56 69  2  0  0  0
 57 58  2  0  0  0
 57130  1  0  0  0
 58131  1  0  0  0
 59 60  1  0  0  0
 59 61  1  0  0  0
 59 62  1  0  0  0
 60132  1  0  0  0
 60133  1  0  0  0
 60134  1  0  0  0
 61135  1  0  0  0
 61136  1  0  0  0
 61137  1  0  0  0
 62138  1  0  0  0
 62139  1  0  0  0
 62140  1  0  0  0
 63 65  1  0  0  0
 63141  1  0  0  0
 63142  1  0  0  0
 63143  1  0  0  0
 64144  1  0  0  0
 65145  1  0  0  0
 68 82  1  0  0  0
 71 72  1  0  0  0
 71 74  2  0  0  0
 71146  1  0  0  0
 72 73  2  0  0  0
 72 75  1  0  0  0
 73 80  1  0  0  0
 73 86  1  0  0  0
 74 85  1  0  0  0
 74 86  1  0  0  0
 75147  1  0  0  0
 75148  1  0  0  0
 75149  1  0  0  0
 76150  1  0  0  0
 76151  1  0  0  0
 76152  1  0  0  0
 76 83  1  0  0  0
 77 83  1  0  0  0
 77153  1  0  0  0
 77154  1  0  0  0
 77155  1  0  0  0
 78156  1  0  0  0
 78157  1  0  0  0
 78158  1  0  0  0
 78 84  1  0  0  0
 79 84  1  0  0  0
 79159  1  0  0  0
 79160  1  0  0  0
 79161  1  0  0  0
 80 83  1  0  0  0
 80162  1  0  0  0
 80163  1  0  0  0
 81 83  1  0  0  0
 81 84  1  0  0  0
 81164  1  0  0  0
 81165  1  0  0  0
 82 84  1  0  0  0
 82166  1  0  0  0
 82167  1  0  0  0
 85168  1  0  0  0
M  ISO  4   1 100  68 101  82 101  85 100
M  END
> <chiral flag>
0

> <version>
0

> <s_m_source_file>
/data/baiqing/PycharmProjects/Reinvent-master-3.2/result/LINK_invent/BTK/process_docking_weight1_custom_product_contain_oxygen_bond_distance_aromatic_linkinvent_7_9_3/rearranged_h_0142.sdf

> <i_m_source_file_index>
46

> <r_mmod_Potential_Energy-OPLS-2005>
-0.424732834100723

> <r_mmod_Stretch_Energy-OPLS-2005>
38.0350608825684

> <r_mmod_Bend_Energy-OPLS-2005>
138.303619384766

> <r_mmod_Torsional_Energy-OPLS-2005>
226.554946899414

> <r_mmod_Improper_Torsional_Energy-OPLS-2005>
4.76715660095215

> <r_mmod_Van_der_Waal_Energy-OPLS-2005>
145.611083984375

> <r_mmod_Electrostatic_Energy-OPLS-2005>
-382.693786621094

> <r_mmod_Solvation_Energy-OPLS-2005>
-184.906692504883

> <b_mmod_Minimization_Converged-OPLS-2005>
0

> <r_mmod_RMS_Derivative-OPLS-2005>
3.75393390655518

$$$$
46
                    3D
 Structure written by MMmdl.
162171  0  0  1  0            999 V2000
  -30.5956  -14.6562   20.5110 C   0  0  0  0  0  0
  -30.4450  -12.4035   19.4544 C   0  0  0  0  0  0
  -29.5115  -12.5176   18.2272 C   0  0  0  0  0  0
  -28.0340  -12.3505   18.6370 C   0  0  0  0  0  0
  -27.6572  -13.2141   19.8700 C   0  0  2  0  0  0
  -28.7005  -13.0501   20.9984 C   0  0  0  0  0  0
  -25.2577  -13.8162   20.5686 C   0  0  0  0  0  0
  -24.1834  -13.0432   20.9177 C   0  0  0  0  0  0
  -24.6397  -11.6901   20.8729 C   0  0  0  0  0  0
  -23.9063  -10.4289   21.0401 C   0  0  0  0  0  0
  -24.3615   -9.4206   21.9182 C   0  0  0  0  0  0
  -23.6289   -8.2242   22.0754 C   0  0  0  0  0  0
  -22.4273   -8.0279   21.3544 C   0  0  0  0  0  0
  -21.9906   -9.0252   20.4647 C   0  0  0  0  0  0
  -22.7234  -10.2131   20.3052 C   0  0  0  0  0  0
  -21.6851   -6.0733   22.5279 C   0  0  0  0  0  0
  -21.4014   -6.5639   23.8212 C   0  0  0  0  0  0
  -21.3659   -5.6792   24.9174 C   0  0  0  0  0  0
  -21.6044   -4.3055   24.7225 C   0  0  0  0  0  0
  -21.8819   -3.8146   23.4346 C   0  0  0  0  0  0
  -21.9193   -4.6962   22.3402 C   0  0  0  0  0  0
  -22.7857  -13.5230   21.1844 C   0  0  0  0  0  0
  -22.1661   -4.2148   21.0979 F   0  0  0  0  0  0
  -21.5629   -3.4538   25.7738 F   0  0  0  0  0  0
  -30.0163  -13.4130   20.4446 N   0  0  0  0  0  0
  -26.3008  -12.9339   20.3342 N   0  0  0  0  0  0
  -25.9329  -11.6494   20.5759 N   0  0  0  0  0  0
  -22.0500  -12.8223   22.0403 N   0  0  0  0  0  0
  -25.4299  -15.1883   20.4118 N   0  0  0  0  0  0
  -31.7291  -14.8609   20.0639 O   0  0  0  0  0  0
  -21.6637   -6.8875   21.4240 O   0  0  0  0  0  0
  -22.3542  -14.5539   20.6698 O   0  0  0  0  0  0
  -24.6258  -31.8576   23.1996 C   0  0  0  0  0  0
  -25.9103  -32.4766   23.8331 C   0  0  1  0  0  0
  -27.2347  -27.3181   20.1109 C   0  0  0  0  0  0
  -25.5911  -33.8568   24.2258 N   0  0  0  0  0  0
  -23.4199  -30.4790   21.5414 C   0  0  2  0  0  0
  -24.8670  -28.9279   20.1080 C   0  0  0  0  0  0
  -22.7470  -29.4610   22.4924 C   0  0  0  0  0  0
  -18.0283  -28.1393   22.8492 C   0  0  0  0  0  0
  -24.1485  -36.7290   23.2641 C   0  0  0  0  0  0
  -25.9588  -30.7869   21.3696 C   0  0  0  0  0  0
  -26.0320  -29.4128   20.7132 C   0  0  0  0  0  0
  -27.2130  -28.6164   20.7083 C   0  0  0  0  0  0
  -26.0433  -26.8741   19.4949 C   0  0  0  0  0  0
  -24.8742  -27.6639   19.4932 C   0  0  0  0  0  0
  -23.6344  -29.8088   20.1572 C   0  0  0  0  0  0
  -25.4111  -36.3077   24.0328 C   0  0  1  0  0  0
  -20.5882  -28.3690   23.1287 C   0  0  2  0  0  0
  -20.6772  -26.9413   22.5417 C   0  0  0  0  0  0
  -19.5749  -26.6386   21.5220 C   0  0  0  0  0  0
  -18.1927  -26.7937   22.1627 C   0  0  0  0  0  0
  -19.1538  -28.8858   23.2886 C   0  0  0  0  0  0
  -18.9463  -30.1461   23.8900 C   0  0  0  0  0  0
  -17.6465  -30.6595   24.0568 C   0  0  0  0  0  0
  -25.9048  -34.9446   23.5097 C   0  0  0  0  0  0
  -16.5354  -29.9097   23.6333 C   0  0  0  0  0  0
  -16.7270  -28.6515   23.0353 C   0  0  0  0  0  0
  -26.4487  -31.6587   25.0710 C   0  0  0  0  0  0
  -25.3722  -31.3736   26.1441 C   0  0  0  0  0  0
  -27.0337  -30.3011   24.6169 C   0  0  0  0  0  0
  -27.6039  -32.4331   25.7485 C   0  0  0  0  0  0
  -27.5576  -37.1798   24.8466 C   0  0  0  0  0  0
  -21.4184  -29.3038   22.3675 N   0  0  0  0  0  0
  -26.4288  -37.3773   23.9411 N   0  0  0  0  0  0
  -24.6869  -31.0588   22.0939 N   0  0  0  0  0  0
  -23.4193  -28.8158   23.3011 O   0  0  0  0  0  0
  -28.3854  -26.5194   20.1845 O   0  0  0  0  0  0
  -26.5628  -34.8920   22.4670 O   0  0  0  0  0  0
  -23.5421  -32.1371   23.7327 O   0  0  0  0  0  0
  -30.1070  -17.8440   19.7009 C   0  0  0  0  0  0
  -29.0887  -17.8319   21.9477 C   0  0  0  0  0  0
  -29.7978  -19.2348   19.6973 C   0  0  0  0  0  0
  -29.1706  -19.9451   20.7727 C   0  0  0  0  0  0
  -28.7651  -19.2320   21.9139 C   0  0  0  0  0  0
  -29.7407  -17.1097   20.8830 C   0  0  0  0  0  0
  -28.3636  -23.9063   20.4100 C   0  0  0  0  0  0
  -29.6944  -20.4475   18.7878 C   0  0  0  0  0  0
  -28.9424  -21.2700   19.9772 C   0  0  2  0  0  0
  -27.9491  -19.8746   23.0155 C   0  0  0  0  0  0
  -29.8478  -22.6266   21.9872 C   0  0  0  0  0  0
  -30.7256  -23.1336   19.7396 C   0  0  0  0  0  0
  -28.5356  -25.2068   19.5112 C   0  0  0  0  0  0
  -29.4440  -22.7175   20.4969 C   0  0  0  0  0  0
  -29.8044  -15.6503   21.0266 N   0  0  0  0  0  0
  -27.3288  -23.8053   21.0767 O   0  0  0  0  0  0
  -31.4852  -12.5401   19.1536 H   0  0  0  0  0  0
  -30.3900  -11.4034   19.8873 H   0  0  0  0  0  0
  -29.7787  -11.7699   17.4793 H   0  0  0  0  0  0
  -29.6503  -13.4892   17.7501 H   0  0  0  0  0  0
  -27.8715  -11.2959   18.8628 H   0  0  0  0  0  0
  -27.3793  -12.5846   17.7968 H   0  0  0  0  0  0
  -27.6810  -14.2533   19.5407 H   0  0  0  0  0  0
  -28.7167  -12.0191   21.3552 H   0  0  0  0  0  0
  -28.4358  -13.6540   21.8673 H   0  0  0  0  0  0
  -25.2762   -9.5681   22.4754 H   0  0  0  0  0  0
  -23.9999   -7.4633   22.7474 H   0  0  0  0  0  0
  -21.0837   -8.8769   19.8953 H   0  0  0  0  0  0
  -22.3694  -10.9667   19.6159 H   0  0  0  0  0  0
  -21.2005   -7.6147   23.9714 H   0  0  0  0  0  0
  -21.1482   -6.0523   25.9077 H   0  0  0  0  0  0
  -22.0599   -2.7608   23.2846 H   0  0  0  0  0  0
  -22.4114  -11.9880   22.4786 H   0  0  0  0  0  0
  -21.1122  -13.1255   22.2617 H   0  0  0  0  0  0
  -24.6653  -15.8448   20.5246 H   0  0  0  0  0  0
  -26.2868  -15.6295   20.1017 H   0  0  0  0  0  0
  -26.7169  -32.5428   23.1078 H   0  0  0  0  0  0
  -25.0046  -33.9708   25.0396 H   0  0  0  0  0  0
  -22.7140  -31.2993   21.3959 H   0  0  0  0  0  0
  -23.3746  -35.9624   23.3307 H   0  0  0  0  0  0
  -24.3572  -36.8910   22.2055 H   0  0  0  0  0  0
  -23.7242  -37.6493   23.6666 H   0  0  0  0  0  0
  -26.0902  -31.5491   20.6004 H   0  0  0  0  0  0
  -26.8398  -30.8363   21.9983 H   0  0  0  0  0  0
  -28.1079  -28.9857   21.1893 H   0  0  0  0  0  0
  -25.9811  -25.8990   19.0366 H   0  0  0  0  0  0
  -23.9767  -27.2826   19.0257 H   0  0  0  0  0  0
  -23.7527  -30.5836   19.3988 H   0  0  0  0  0  0
  -22.7545  -29.2372   19.8562 H   0  0  0  0  0  0
  -25.1295  -36.1921   25.0821 H   0  0  0  0  0  0
  -20.9977  -28.3267   24.1406 H   0  0  0  0  0  0
  -20.5679  -26.2298   23.3615 H   0  0  0  0  0  0
  -21.6639  -26.7444   22.1204 H   0  0  0  0  0  0
  -19.6911  -25.6297   21.1246 H   0  0  0  0  0  0
  -19.6693  -27.3201   20.6755 H   0  0  0  0  0  0
  -17.4200  -26.6688   21.4026 H   0  0  0  0  0  0
  -18.0321  -26.0082   22.9022 H   0  0  0  0  0  0
  -19.7940  -30.7278   24.2264 H   0  0  0  0  0  0
  -17.5023  -31.6276   24.5173 H   0  0  0  0  0  0
  -15.5358  -30.3006   23.7660 H   0  0  0  0  0  0
  -15.8666  -28.0842   22.7064 H   0  0  0  0  0  0
  -24.5891  -30.7087   25.7782 H   0  0  0  0  0  0
  -24.8920  -32.2911   26.4856 H   0  0  0  0  0  0
  -25.8046  -30.8926   27.0223 H   0  0  0  0  0  0
  -26.2915  -29.6758   24.1195 H   0  0  0  0  0  0
  -27.4041  -29.7270   25.4671 H   0  0  0  0  0  0
  -27.8776  -30.4303   23.9389 H   0  0  0  0  0  0
  -27.2636  -33.3630   26.2056 H   0  0  0  0  0  0
  -28.3853  -32.6896   25.0320 H   0  0  0  0  0  0
  -28.0705  -31.8466   26.5410 H   0  0  0  0  0  0
  -28.2593  -38.0094   24.7504 H   0  0  0  0  0  0
  -28.1068  -36.2623   24.6298 H   0  0  0  0  0  0
  -27.2295  -37.1455   25.8869 H   0  0  0  0  0  0
  -20.9360  -29.8756   21.6882 H   0  0  0  0  0  0
  -26.0165  -38.2845   24.1413 H   0  0  0  0  0  0
  -30.5181  -17.3548   18.8289 H   0  0  0  0  0  0
  -28.7646  -17.2709   22.8135 H   0  0  0  0  0  0
  -29.0679  -20.2625   17.9144 H   0  0  0  0  0  0
  -30.6839  -20.8015   18.5028 H   0  0  0  0  0  0
  -27.8730  -21.2940   19.7614 H   0  0  0  0  0  0
  -27.2880  -19.1453   23.4851 H   0  0  0  0  0  0
  -27.3285  -20.6789   22.6188 H   0  0  0  0  0  0
  -28.6034  -20.2856   23.7844 H   0  0  0  0  0  0
  -28.9974  -22.3853   22.6227 H   0  0  0  0  0  0
  -30.2529  -23.5716   22.3516 H   0  0  0  0  0  0
  -30.6109  -21.8658   22.1533 H   0  0  0  0  0  0
  -30.5550  -23.2165   18.6653 H   0  0  0  0  0  0
  -31.5252  -22.4077   19.8899 H   0  0  0  0  0  0
  -31.1176  -24.0891   20.0917 H   0  0  0  0  0  0
  -27.8623  -25.1276   18.6601 H   0  0  0  0  0  0
  -29.5271  -25.2146   19.0659 H   0  0  0  0  0  0
  -29.0241  -15.2649   21.5362 H   0  0  0  0  0  0
  1 25  1  0  0  0
  1 30  2  0  0  0
  1 85  1  0  0  0
  2  3  1  0  0  0
  2 25  1  0  0  0
  2 87  1  0  0  0
  2 88  1  0  0  0
  3  4  1  0  0  0
  3 89  1  0  0  0
  3 90  1  0  0  0
  4  5  1  0  0  0
  4 91  1  0  0  0
  4 92  1  0  0  0
  5  6  1  0  0  0
  5 26  1  0  0  0
  5 93  1  0  0  0
  6 25  1  0  0  0
  6 94  1  0  0  0
  6 95  1  0  0  0
  7  8  2  0  0  0
  7 26  1  0  0  0
  7 29  1  0  0  0
  8  9  1  0  0  0
  8 22  1  0  0  0
  9 10  1  0  0  0
  9 27  2  0  0  0
 10 11  2  0  0  0
 10 15  1  0  0  0
 11 12  1  0  0  0
 11 96  1  0  0  0
 12 13  2  0  0  0
 12 97  1  0  0  0
 13 14  1  0  0  0
 13 31  1  0  0  0
 14 15  2  0  0  0
 14 98  1  0  0  0
 15 99  1  0  0  0
 16 17  2  0  0  0
 16 21  1  0  0  0
 16 31  1  0  0  0
 17 18  1  0  0  0
 17100  1  0  0  0
 18 19  2  0  0  0
 18101  1  0  0  0
 19 20  1  0  0  0
 19 24  1  0  0  0
 20 21  2  0  0  0
 20102  1  0  0  0
 21 23  1  0  0  0
 22 28  1  0  0  0
 22 32  2  0  0  0
 26 27  1  0  0  0
 28103  1  0  0  0
 28104  1  0  0  0
 29105  1  0  0  0
 29106  1  0  0  0
 33 34  1  0  0  0
 33 66  1  0  0  0
 33 70  2  0  0  0
 34 36  1  0  0  0
 34 59  1  0  0  0
 34107  1  0  0  0
 35 44  2  0  0  0
 35 45  1  0  0  0
 35 68  1  0  0  0
 36 56  1  0  0  0
 36108  1  0  0  0
 37 39  1  0  0  0
 37 47  1  0  0  0
 37 66  1  0  0  0
 37109  1  0  0  0
 38 43  2  0  0  0
 38 46  1  0  0  0
 38 47  1  0  0  0
 39 64  1  0  0  0
 39 67  2  0  0  0
 40 52  1  0  0  0
 40 53  2  0  0  0
 40 58  1  0  0  0
 41110  1  0  0  0
 41111  1  0  0  0
 41112  1  0  0  0
 41 48  1  0  0  0
 42 43  1  0  0  0
 42 66  1  0  0  0
 42113  1  0  0  0
 42114  1  0  0  0
 43 44  1  0  0  0
 44115  1  0  0  0
 45 46  2  0  0  0
 45116  1  0  0  0
 46117  1  0  0  0
 47118  1  0  0  0
 47119  1  0  0  0
 48 56  1  0  0  0
 48 65  1  0  0  0
 48120  1  0  0  0
 49 50  1  0  0  0
 49 53  1  0  0  0
 49 64  1  0  0  0
 49121  1  0  0  0
 50 51  1  0  0  0
 50122  1  0  0  0
 50123  1  0  0  0
 51 52  1  0  0  0
 51124  1  0  0  0
 51125  1  0  0  0
 52126  1  0  0  0
 52127  1  0  0  0
 53 54  1  0  0  0
 54 55  2  0  0  0
 54128  1  0  0  0
 55 57  1  0  0  0
 55129  1  0  0  0
 56 69  2  0  0  0
 57 58  2  0  0  0
 57130  1  0  0  0
 58131  1  0  0  0
 59 60  1  0  0  0
 59 61  1  0  0  0
 59 62  1  0  0  0
 60132  1  0  0  0
 60133  1  0  0  0
 60134  1  0  0  0
 61135  1  0  0  0
 61136  1  0  0  0
 61137  1  0  0  0
 62138  1  0  0  0
 62139  1  0  0  0
 62140  1  0  0  0
 63 65  1  0  0  0
 63141  1  0  0  0
 63142  1  0  0  0
 63143  1  0  0  0
 64144  1  0  0  0
 65145  1  0  0  0
 68 83  1  0  0  0
 71 73  2  0  0  0
 71 76  1  0  0  0
 71146  1  0  0  0
 72 75  1  0  0  0
 72 76  2  0  0  0
 72147  1  0  0  0
 73 74  1  0  0  0
 73 78  1  0  0  0
 74 75  2  0  0  0
 74 79  1  0  0  0
 75 80  1  0  0  0
 76 85  1  0  0  0
 77 83  1  0  0  0
 77 84  1  0  0  0
 77 86  2  0  0  0
 78148  1  0  0  0
 78149  1  0  0  0
 78 79  1  0  0  0
 79 84  1  0  0  0
 79150  1  0  0  0
 80151  1  0  0  0
 80152  1  0  0  0
 80153  1  0  0  0
 81154  1  0  0  0
 81155  1  0  0  0
 81156  1  0  0  0
 81 84  1  0  0  0
 82 84  1  0  0  0
 82157  1  0  0  0
 82158  1  0  0  0
 82159  1  0  0  0
 83160  1  0  0  0
 83161  1  0  0  0
 85162  1  0  0  0
M  ISO  4   1 100  68 101  83 101  85 100
M  END
> <chiral flag>
0

> <version>
0

> <s_m_source_file>
/data/baiqing/PycharmProjects/Reinvent-master-3.2/result/LINK_invent/BTK/process_docking_weight1_custom_product_contain_oxygen_bond_distance_aromatic_linkinvent_7_9_3/rearranged_h_0142.sdf

> <i_m_source_file_index>
47

> <r_mmod_Potential_Energy-OPLS-2005>
531.447082519531

> <r_mmod_Stretch_Energy-OPLS-2005>
113.219688415527

> <r_mmod_Bend_Energy-OPLS-2005>
525.974914550781

> <r_mmod_Torsional_Energy-OPLS-2005>
256.593383789062

> <r_mmod_Improper_Torsional_Energy-OPLS-2005>
8.07006931304932

> <r_mmod_Van_der_Waal_Energy-OPLS-2005>
138.650024414062

> <r_mmod_Electrostatic_Energy-OPLS-2005>
-340.674072265625

> <r_mmod_Solvation_Energy-OPLS-2005>
-220.463882446289

> <b_mmod_Minimization_Converged-OPLS-2005>
0

> <r_mmod_RMS_Derivative-OPLS-2005>
0.468872606754303

$$$$
47
                    3D
 Structure written by MMmdl.
162170  0  0  1  0            999 V2000
  -30.6312  -14.6092   20.5255 C   0  0  0  0  0  0
  -30.4411  -12.3782   19.4498 C   0  0  0  0  0  0
  -29.5093  -12.5098   18.2244 C   0  0  0  0  0  0
  -28.0310  -12.3523   18.6339 C   0  0  0  0  0  0
  -27.6576  -13.2142   19.8689 C   0  0  2  0  0  0
  -28.6995  -13.0462   20.9982 C   0  0  0  0  0  0
  -25.2574  -13.8164   20.5659 C   0  0  0  0  0  0
  -24.1841  -13.0438   20.9189 C   0  0  0  0  0  0
  -24.6400  -11.6912   20.8738 C   0  0  0  0  0  0
  -23.9069  -10.4293   21.0407 C   0  0  0  0  0  0
  -24.3622   -9.4208   21.9185 C   0  0  0  0  0  0
  -23.6293   -8.2245   22.0757 C   0  0  0  0  0  0
  -22.4279   -8.0284   21.3542 C   0  0  0  0  0  0
  -21.9914   -9.0259   20.4648 C   0  0  0  0  0  0
  -22.7242  -10.2135   20.3054 C   0  0  0  0  0  0
  -21.6855   -6.0738   22.5281 C   0  0  0  0  0  0
  -21.4013   -6.5642   23.8212 C   0  0  0  0  0  0
  -21.3661   -5.6793   24.9177 C   0  0  0  0  0  0
  -21.6044   -4.3056   24.7225 C   0  0  0  0  0  0
  -21.8819   -3.8148   23.4347 C   0  0  0  0  0  0
  -21.9192   -4.6968   22.3401 C   0  0  0  0  0  0
  -22.7857  -13.5233   21.1845 C   0  0  0  0  0  0
  -22.1661   -4.2150   21.0979 F   0  0  0  0  0  0
  -21.5630   -3.4539   25.7738 F   0  0  0  0  0  0
  -30.0220  -13.3855   20.4432 N   0  0  0  0  0  0
  -26.3013  -12.9343   20.3335 N   0  0  0  0  0  0
  -25.9334  -11.6501   20.5768 N   0  0  0  0  0  0
  -22.0500  -12.8224   22.0405 N   0  0  0  0  0  0
  -25.4269  -15.1877   20.4032 N   0  0  0  0  0  0
  -31.7764  -14.7928   20.0995 O   0  0  0  0  0  0
  -21.6642   -6.8886   21.4243 O   0  0  0  0  0  0
  -22.3545  -14.5538   20.6703 O   0  0  0  0  0  0
  -24.6226  -31.8612   23.2045 C   0  0  0  0  0  0
  -25.9102  -32.4779   23.8343 C   0  0  1  0  0  0
  -27.2239  -27.3484   20.1056 C   0  0  0  0  0  0
  -25.5926  -33.8584   24.2265 N   0  0  0  0  0  0
  -23.4133  -30.4862   21.5457 C   0  0  2  0  0  0
  -24.8594  -28.9473   20.1088 C   0  0  0  0  0  0
  -22.7441  -29.4637   22.4943 C   0  0  0  0  0  0
  -18.0290  -28.1389   22.8498 C   0  0  0  0  0  0
  -24.1495  -36.7303   23.2635 C   0  0  0  0  0  0
  -25.9502  -30.8017   21.3701 C   0  0  0  0  0  0
  -26.0248  -29.4309   20.7159 C   0  0  0  0  0  0
  -27.2072  -28.6391   20.7111 C   0  0  0  0  0  0
  -26.0385  -26.9192   19.4621 C   0  0  0  0  0  0
  -24.8652  -27.6941   19.4785 C   0  0  0  0  0  0
  -23.6250  -29.8212   20.1595 C   0  0  0  0  0  0
  -25.4115  -36.3074   24.0313 C   0  0  1  0  0  0
  -20.5878  -28.3678   23.1307 C   0  0  2  0  0  0
  -20.6771  -26.9410   22.5404 C   0  0  0  0  0  0
  -19.5748  -26.6396   21.5209 C   0  0  0  0  0  0
  -18.1936  -26.7935   22.1623 C   0  0  0  0  0  0
  -19.1540  -28.8851   23.2902 C   0  0  0  0  0  0
  -18.9464  -30.1458   23.8909 C   0  0  0  0  0  0
  -17.6460  -30.6592   24.0579 C   0  0  0  0  0  0
  -25.9046  -34.9453   23.5086 C   0  0  0  0  0  0
  -16.5351  -29.9096   23.6333 C   0  0  0  0  0  0
  -16.7274  -28.6513   23.0347 C   0  0  0  0  0  0
  -26.4495  -31.6583   25.0702 C   0  0  0  0  0  0
  -25.3741  -31.3725   26.1434 C   0  0  0  0  0  0
  -27.0316  -30.3006   24.6127 C   0  0  0  0  0  0
  -27.6047  -32.4306   25.7491 C   0  0  0  0  0  0
  -27.5573  -37.1798   24.8458 C   0  0  0  0  0  0
  -21.4154  -29.3042   22.3699 N   0  0  0  0  0  0
  -26.4287  -37.3767   23.9403 N   0  0  0  0  0  0
  -24.6815  -31.0634   22.0990 N   0  0  0  0  0  0
  -23.4193  -28.8187   23.3011 O   0  0  0  0  0  0
  -28.3594  -26.5327   20.1635 O   0  0  0  0  0  0
  -26.5607  -34.8914   22.4649 O   0  0  0  0  0  0
  -23.5396  -32.1416   23.7390 O   0  0  0  0  0  0
  -30.7826  -19.2163   19.9912 C   0  0  0  0  0  0
  -30.7841  -17.7919   20.0369 C   0  0  0  0  0  0
  -29.0084  -19.2832   21.6170 C   0  0  0  0  0  0
  -29.9066  -19.9984   20.7904 C   0  0  0  0  0  0
  -29.0093  -17.8580   21.6765 C   0  0  0  0  0  0
  -29.9081  -17.0752   20.8946 C   0  0  0  0  0  0
  -28.0425  -17.1773   22.6319 C   0  0  0  0  0  0
  -30.6595  -24.5629   20.3789 C   0  0  0  0  0  0
  -28.9338  -24.3182   22.1836 C   0  0  0  0  0  0
  -30.0797  -21.5481   20.9212 C   0  0  0  0  0  0
  -29.0350  -22.5701   20.3064 C   0  0  0  0  0  0
  -28.2307  -25.0873   19.9005 C   0  0  0  0  0  0
  -29.2155  -24.1193   20.6801 C   0  0  0  0  0  0
  -29.8431  -15.6209   20.9923 N   0  0  0  0  0  0
  -31.4817  -12.5072   19.1466 H   0  0  0  0  0  0
  -30.3776  -11.3775   19.8794 H   0  0  0  0  0  0
  -29.7696  -11.7644   17.4724 H   0  0  0  0  0  0
  -29.6569  -13.4828   17.7534 H   0  0  0  0  0  0
  -27.8607  -11.2983   18.8555 H   0  0  0  0  0  0
  -27.3790  -12.5946   17.7939 H   0  0  0  0  0  0
  -27.6841  -14.2541   19.5415 H   0  0  0  0  0  0
  -28.7035  -12.0197   21.3671 H   0  0  0  0  0  0
  -28.4426  -13.6644   21.8599 H   0  0  0  0  0  0
  -25.2769   -9.5685   22.4759 H   0  0  0  0  0  0
  -24.0005   -7.4637   22.7473 H   0  0  0  0  0  0
  -21.0849   -8.8779   19.8950 H   0  0  0  0  0  0
  -22.3707  -10.9677   19.6164 H   0  0  0  0  0  0
  -21.2007   -7.6149   23.9718 H   0  0  0  0  0  0
  -21.1482   -6.0522   25.9076 H   0  0  0  0  0  0
  -22.0598   -2.7611   23.2844 H   0  0  0  0  0  0
  -22.4115  -11.9887   22.4788 H   0  0  0  0  0  0
  -21.1118  -13.1253   22.2603 H   0  0  0  0  0  0
  -24.6551  -15.8387   20.4978 H   0  0  0  0  0  0
  -26.2678  -15.6226   20.0453 H   0  0  0  0  0  0
  -26.7162  -32.5432   23.1080 H   0  0  0  0  0  0
  -25.0080  -33.9742   25.0412 H   0  0  0  0  0  0
  -22.7066  -31.3063   21.4042 H   0  0  0  0  0  0
  -23.3738  -35.9653   23.3296 H   0  0  0  0  0  0
  -24.3596  -36.8928   22.2051 H   0  0  0  0  0  0
  -23.7274  -37.6514   23.6663 H   0  0  0  0  0  0
  -26.0661  -31.5661   20.6000 H   0  0  0  0  0  0
  -26.8375  -30.8557   21.9894 H   0  0  0  0  0  0
  -28.0989  -29.0038   21.2017 H   0  0  0  0  0  0
  -25.9865  -25.9736   18.9435 H   0  0  0  0  0  0
  -23.9718  -27.3193   18.9985 H   0  0  0  0  0  0
  -23.7346  -30.5972   19.3998 H   0  0  0  0  0  0
  -22.7475  -29.2420   19.8619 H   0  0  0  0  0  0
  -25.1301  -36.1908   25.0798 H   0  0  0  0  0  0
  -20.9973  -28.3237   24.1429 H   0  0  0  0  0  0
  -20.5686  -26.2278   23.3593 H   0  0  0  0  0  0
  -21.6644  -26.7459   22.1196 H   0  0  0  0  0  0
  -19.6915  -25.6318   21.1230 H   0  0  0  0  0  0
  -19.6693  -27.3216   20.6756 H   0  0  0  0  0  0
  -17.4200  -26.6691   21.4033 H   0  0  0  0  0  0
  -18.0344  -26.0081   22.9020 H   0  0  0  0  0  0
  -19.7934  -30.7277   24.2276 H   0  0  0  0  0  0
  -17.5015  -31.6274   24.5167 H   0  0  0  0  0  0
  -15.5351  -30.2996   23.7658 H   0  0  0  0  0  0
  -15.8670  -28.0840   22.7038 H   0  0  0  0  0  0
  -24.5931  -30.7051   25.7776 H   0  0  0  0  0  0
  -24.8927  -32.2901   26.4825 H   0  0  0  0  0  0
  -25.8092  -30.8938   27.0222 H   0  0  0  0  0  0
  -26.2874  -29.6773   24.1155 H   0  0  0  0  0  0
  -27.4032  -29.7231   25.4602 H   0  0  0  0  0  0
  -27.8739  -30.4288   23.9327 H   0  0  0  0  0  0
  -27.2648  -33.3602   26.2076 H   0  0  0  0  0  0
  -28.3884  -32.6871   25.0349 H   0  0  0  0  0  0
  -28.0690  -31.8421   26.5415 H   0  0  0  0  0  0
  -28.2567  -38.0112   24.7496 H   0  0  0  0  0  0
  -28.1086  -36.2635   24.6286 H   0  0  0  0  0  0
  -27.2293  -37.1456   25.8861 H   0  0  0  0  0  0
  -20.9311  -29.8763   21.6920 H   0  0  0  0  0  0
  -26.0155  -38.2833   24.1416 H   0  0  0  0  0  0
  -31.5066  -19.7120   19.3592 H   0  0  0  0  0  0
  -31.4825  -17.2596   19.4083 H   0  0  0  0  0  0
  -28.3407  -19.8402   22.2596 H   0  0  0  0  0  0
  -27.5232  -17.8994   23.2632 H   0  0  0  0  0  0
  -28.5757  -16.4931   23.2932 H   0  0  0  0  0  0
  -27.2903  -16.6123   22.0812 H   0  0  0  0  0  0
  -31.3815  -24.0480   21.0130 H   0  0  0  0  0  0
  -30.7944  -25.6291   20.5643 H   0  0  0  0  0  0
  -30.9309  -24.3694   19.3422 H   0  0  0  0  0  0
  -29.6271  -23.7648   22.8161 H   0  0  0  0  0  0
  -27.9226  -24.0056   22.4479 H   0  0  0  0  0  0
  -29.0272  -25.3692   22.4633 H   0  0  0  0  0  0
  -31.0636  -21.7891   20.5178 H   0  0  0  0  0  0
  -30.1586  -21.7423   21.9900 H   0  0  0  0  0  0
  -28.0330  -22.2557   20.6003 H   0  0  0  0  0  0
  -29.0584  -22.4637   19.2211 H   0  0  0  0  0  0
  -28.3505  -24.9376   18.8266 H   0  0  0  0  0  0
  -27.2281  -24.7387   20.1436 H   0  0  0  0  0  0
  -28.9944  -15.2771   21.4134 H   0  0  0  0  0  0
  1 25  1  0  0  0
  1 30  2  0  0  0
  1 84  1  0  0  0
  2  3  1  0  0  0
  2 25  1  0  0  0
  2 85  1  0  0  0
  2 86  1  0  0  0
  3  4  1  0  0  0
  3 87  1  0  0  0
  3 88  1  0  0  0
  4  5  1  0  0  0
  4 89  1  0  0  0
  4 90  1  0  0  0
  5  6  1  0  0  0
  5 26  1  0  0  0
  5 91  1  0  0  0
  6 25  1  0  0  0
  6 92  1  0  0  0
  6 93  1  0  0  0
  7  8  2  0  0  0
  7 26  1  0  0  0
  7 29  1  0  0  0
  8  9  1  0  0  0
  8 22  1  0  0  0
  9 10  1  0  0  0
  9 27  2  0  0  0
 10 11  2  0  0  0
 10 15  1  0  0  0
 11 12  1  0  0  0
 11 94  1  0  0  0
 12 13  2  0  0  0
 12 95  1  0  0  0
 13 14  1  0  0  0
 13 31  1  0  0  0
 14 15  2  0  0  0
 14 96  1  0  0  0
 15 97  1  0  0  0
 16 17  2  0  0  0
 16 21  1  0  0  0
 16 31  1  0  0  0
 17 18  1  0  0  0
 17 98  1  0  0  0
 18 19  2  0  0  0
 18 99  1  0  0  0
 19 20  1  0  0  0
 19 24  1  0  0  0
 20 21  2  0  0  0
 20100  1  0  0  0
 21 23  1  0  0  0
 22 28  1  0  0  0
 22 32  2  0  0  0
 26 27  1  0  0  0
 28101  1  0  0  0
 28102  1  0  0  0
 29103  1  0  0  0
 29104  1  0  0  0
 33 34  1  0  0  0
 33 66  1  0  0  0
 33 70  2  0  0  0
 34 36  1  0  0  0
 34 59  1  0  0  0
 34105  1  0  0  0
 35 44  2  0  0  0
 35 45  1  0  0  0
 35 68  1  0  0  0
 36 56  1  0  0  0
 36106  1  0  0  0
 37 39  1  0  0  0
 37 47  1  0  0  0
 37 66  1  0  0  0
 37107  1  0  0  0
 38 43  2  0  0  0
 38 46  1  0  0  0
 38 47  1  0  0  0
 39 64  1  0  0  0
 39 67  2  0  0  0
 40 52  1  0  0  0
 40 53  2  0  0  0
 40 58  1  0  0  0
 41108  1  0  0  0
 41109  1  0  0  0
 41110  1  0  0  0
 41 48  1  0  0  0
 42 43  1  0  0  0
 42 66  1  0  0  0
 42111  1  0  0  0
 42112  1  0  0  0
 43 44  1  0  0  0
 44113  1  0  0  0
 45 46  2  0  0  0
 45114  1  0  0  0
 46115  1  0  0  0
 47116  1  0  0  0
 47117  1  0  0  0
 48 56  1  0  0  0
 48 65  1  0  0  0
 48118  1  0  0  0
 49 50  1  0  0  0
 49 53  1  0  0  0
 49 64  1  0  0  0
 49119  1  0  0  0
 50 51  1  0  0  0
 50120  1  0  0  0
 50121  1  0  0  0
 51 52  1  0  0  0
 51122  1  0  0  0
 51123  1  0  0  0
 52124  1  0  0  0
 52125  1  0  0  0
 53 54  1  0  0  0
 54 55  2  0  0  0
 54126  1  0  0  0
 55 57  1  0  0  0
 55127  1  0  0  0
 56 69  2  0  0  0
 57 58  2  0  0  0
 57128  1  0  0  0
 58129  1  0  0  0
 59 60  1  0  0  0
 59 61  1  0  0  0
 59 62  1  0  0  0
 60130  1  0  0  0
 60131  1  0  0  0
 60132  1  0  0  0
 61133  1  0  0  0
 61134  1  0  0  0
 61135  1  0  0  0
 62136  1  0  0  0
 62137  1  0  0  0
 62138  1  0  0  0
 63 65  1  0  0  0
 63139  1  0  0  0
 63140  1  0  0  0
 63141  1  0  0  0
 64142  1  0  0  0
 65143  1  0  0  0
 68 82  1  0  0  0
 71 72  2  0  0  0
 71 74  1  0  0  0
 71144  1  0  0  0
 72 76  1  0  0  0
 72145  1  0  0  0
 73 74  2  0  0  0
 73 75  1  0  0  0
 73146  1  0  0  0
 74 80  1  0  0  0
 75 76  2  0  0  0
 75 77  1  0  0  0
 76 84  1  0  0  0
 77147  1  0  0  0
 77148  1  0  0  0
 77149  1  0  0  0
 78150  1  0  0  0
 78151  1  0  0  0
 78152  1  0  0  0
 78 83  1  0  0  0
 79 83  1  0  0  0
 79153  1  0  0  0
 79154  1  0  0  0
 79155  1  0  0  0
 80 81  1  0  0  0
 80156  1  0  0  0
 80157  1  0  0  0
 81 83  1  0  0  0
 81158  1  0  0  0
 81159  1  0  0  0
 82 83  1  0  0  0
 82160  1  0  0  0
 82161  1  0  0  0
 84162  1  0  0  0
M  ISO  4   1 100  68 101  82 101  84 100
M  END
> <chiral flag>
0

> <version>
0

> <s_m_source_file>
/data/baiqing/PycharmProjects/Reinvent-master-3.2/result/LINK_invent/BTK/process_docking_weight1_custom_product_contain_oxygen_bond_distance_aromatic_linkinvent_7_9_3/rearranged_h_0142.sdf

> <i_m_source_file_index>
48

> <r_mmod_Potential_Energy-OPLS-2005>
25.7066287994385

> <r_mmod_Stretch_Energy-OPLS-2005>
71.2707366943359

> <r_mmod_Bend_Energy-OPLS-2005>
133.864517211914

> <r_mmod_Torsional_Energy-OPLS-2005>
221.897705078125

> <r_mmod_Improper_Torsional_Energy-OPLS-2005>
4.36692476272583

> <r_mmod_Van_der_Waal_Energy-OPLS-2005>
146.378509521484

> <r_mmod_Electrostatic_Energy-OPLS-2005>
-397.1767578125

> <r_mmod_Solvation_Energy-OPLS-2005>
-192.410583496094

> <b_mmod_Minimization_Converged-OPLS-2005>
0

> <r_mmod_RMS_Derivative-OPLS-2005>
2.17398476600647

$$$$
48
                    3D
 Structure written by MMmdl.
170179  0  0  1  0            999 V2000
  -30.7092  -14.4330   20.6198 C   0  0  0  0  0  0
  -30.4301  -12.2973   19.4120 C   0  0  0  0  0  0
  -29.5000  -12.5191   18.2013 C   0  0  0  0  0  0
  -28.0197  -12.3765   18.6090 C   0  0  0  0  0  0
  -27.6692  -13.2000   19.8761 C   0  0  2  0  0  0
  -28.7046  -12.9475   20.9954 C   0  0  0  0  0  0
  -25.2630  -13.8182   20.5679 C   0  0  0  0  0  0
  -24.1855  -13.0477   20.9204 C   0  0  0  0  0  0
  -24.6377  -11.6939   20.8717 C   0  0  0  0  0  0
  -23.9041  -10.4332   21.0414 C   0  0  0  0  0  0
  -24.3604   -9.4262   21.9213 C   0  0  0  0  0  0
  -23.6290   -8.2289   22.0755 C   0  0  0  0  0  0
  -22.4273   -8.0320   21.3552 C   0  0  0  0  0  0
  -21.9910   -9.0294   20.4665 C   0  0  0  0  0  0
  -22.7209  -10.2184   20.3064 C   0  0  0  0  0  0
  -21.6867   -6.0756   22.5295 C   0  0  0  0  0  0
  -21.4011   -6.5641   23.8231 C   0  0  0  0  0  0
  -21.3668   -5.6785   24.9196 C   0  0  0  0  0  0
  -21.6044   -4.3044   24.7235 C   0  0  0  0  0  0
  -21.8823   -3.8158   23.4347 C   0  0  0  0  0  0
  -21.9189   -4.6984   22.3408 C   0  0  0  0  0  0
  -22.7892  -13.5318   21.1886 C   0  0  0  0  0  0
  -22.1667   -4.2163   21.0988 F   0  0  0  0  0  0
  -21.5636   -3.4520   25.7754 F   0  0  0  0  0  0
  -30.0515  -13.2519   20.4643 N   0  0  0  0  0  0
  -26.3045  -12.9316   20.3323 N   0  0  0  0  0  0
  -25.9292  -11.6482   20.5712 N   0  0  0  0  0  0
  -22.0475  -12.8320   22.0423 N   0  0  0  0  0  0
  -25.4397  -15.1894   20.4100 N   0  0  0  0  0  0
  -31.7687  -14.6996   20.0420 O   0  0  0  0  0  0
  -21.6637   -6.8908   21.4261 O   0  0  0  0  0  0
  -22.3614  -14.5649   20.6762 O   0  0  0  0  0  0
  -24.6195  -31.8658   23.2108 C   0  0  0  0  0  0
  -25.9110  -32.4782   23.8356 C   0  0  1  0  0  0
  -27.2234  -27.4309   20.0942 C   0  0  0  0  0  0
  -25.5966  -33.8579   24.2304 N   0  0  0  0  0  0
  -23.4024  -30.4957   21.5525 C   0  0  2  0  0  0
  -24.8456  -28.9617   20.1090 C   0  0  0  0  0  0
  -22.7451  -29.4700   22.5024 C   0  0  0  0  0  0
  -18.0325  -28.1343   22.8506 C   0  0  0  0  0  0
  -24.1489  -36.7297   23.2648 C   0  0  0  0  0  0
  -25.9338  -30.8309   21.3643 C   0  0  0  0  0  0
  -26.0096  -29.4684   20.7058 C   0  0  0  0  0  0
  -27.2030  -28.7093   20.6966 C   0  0  0  0  0  0
  -26.0484  -26.9471   19.4782 C   0  0  0  0  0  0
  -24.8595  -27.6960   19.4975 C   0  0  0  0  0  0
  -23.6069  -29.8295   20.1662 C   0  0  0  0  0  0
  -25.4101  -36.3083   24.0357 C   0  0  1  0  0  0
  -20.5885  -28.3679   23.1356 C   0  0  2  0  0  0
  -20.6850  -26.9433   22.5428 C   0  0  0  0  0  0
  -19.5852  -26.6447   21.5174 C   0  0  0  0  0  0
  -18.2024  -26.7943   22.1566 C   0  0  0  0  0  0
  -19.1538  -28.8832   23.2949 C   0  0  0  0  0  0
  -18.9448  -30.1451   23.8936 C   0  0  0  0  0  0
  -17.6431  -30.6554   24.0568 C   0  0  0  0  0  0
  -25.9020  -34.9453   23.5113 C   0  0  0  0  0  0
  -16.5348  -29.9012   23.6324 C   0  0  0  0  0  0
  -16.7310  -28.6435   23.0344 C   0  0  0  0  0  0
  -26.4538  -31.6583   25.0696 C   0  0  0  0  0  0
  -25.3841  -31.3702   26.1465 C   0  0  0  0  0  0
  -27.0364  -30.3011   24.6084 C   0  0  0  0  0  0
  -27.6088  -32.4309   25.7484 C   0  0  0  0  0  0
  -27.5574  -37.1803   24.8478 C   0  0  0  0  0  0
  -21.4171  -29.3054   22.3788 N   0  0  0  0  0  0
  -26.4280  -37.3777   23.9427 N   0  0  0  0  0  0
  -24.6700  -31.0789   22.0999 N   0  0  0  0  0  0
  -23.4232  -28.8256   23.3059 O   0  0  0  0  0  0
  -28.3458  -26.6304   20.1353 O   0  0  0  0  0  0
  -26.5575  -34.8923   22.4659 O   0  0  0  0  0  0
  -23.5401  -32.1416   23.7543 O   0  0  0  0  0  0
  -30.5320  -17.5500   20.4407 C   0  0  0  0  0  0
  -30.1908  -18.9232   20.4069 C   0  0  0  0  0  0
  -28.9381  -17.2221   22.2331 C   0  0  0  0  0  0
  -28.5661  -18.5820   22.1928 C   0  0  0  0  0  0
  -29.9012  -16.6834   21.3639 C   0  0  0  0  0  0
  -29.2101  -19.4582   21.2796 C   0  0  0  0  0  0
  -26.2619  -18.1350   23.3247 C   0  0  0  0  0  0
  -26.1202  -19.4151   22.5491 C   0  0  0  0  0  0
  -27.4699  -19.0361   23.1177 C   0  0  0  0  0  0
  -28.0353  -19.7824   24.3074 C   0  0  0  0  0  0
  -26.9828  -22.6666   21.4427 C   0  0  0  0  0  0
  -27.0204  -22.9478   18.9695 C   0  0  0  0  0  0
  -28.8082  -24.1221   20.3261 C   0  0  0  0  0  0
  -28.1360  -25.4153   20.8901 C   0  0  0  0  0  0
  -28.7912  -21.5248   20.0750 C   0  0  0  0  0  0
  -27.9180  -22.8278   20.2194 C   0  0  0  0  0  0
  -30.1191  -15.2794   21.4762 N   0  0  0  0  0  0
  -28.8923  -20.8049   21.3122 O   0  0  0  0  0  0
  -31.4758  -12.3947   19.1138 H   0  0  0  0  0  0
  -30.3304  -11.2791   19.7865 H   0  0  0  0  0  0
  -29.7388  -11.8127   17.4049 H   0  0  0  0  0  0
  -29.6732  -13.5108   17.7809 H   0  0  0  0  0  0
  -27.8222  -11.3173   18.7785 H   0  0  0  0  0  0
  -27.3727  -12.6700   17.7815 H   0  0  0  0  0  0
  -27.7272  -14.2529   19.6010 H   0  0  0  0  0  0
  -28.6708  -11.9029   21.3050 H   0  0  0  0  0  0
  -28.4382  -13.5147   21.8881 H   0  0  0  0  0  0
  -25.2739   -9.5729   22.4808 H   0  0  0  0  0  0
  -24.0020   -7.4651   22.7405 H   0  0  0  0  0  0
  -21.0882   -8.8810   19.8925 H   0  0  0  0  0  0
  -22.3688  -10.9742   19.6176 H   0  0  0  0  0  0
  -21.1998   -7.6142   23.9748 H   0  0  0  0  0  0
  -21.1480   -6.0506   25.9099 H   0  0  0  0  0  0
  -22.0582   -2.7609   23.2843 H   0  0  0  0  0  0
  -22.4022  -11.9971   22.4843 H   0  0  0  0  0  0
  -21.1090  -13.1388   22.2576 H   0  0  0  0  0  0
  -24.6765  -15.8480   20.5195 H   0  0  0  0  0  0
  -26.3021  -15.6208   20.1001 H   0  0  0  0  0  0
  -26.7206  -32.5459   23.1128 H   0  0  0  0  0  0
  -25.0239  -33.9703   25.0539 H   0  0  0  0  0  0
  -22.6902  -31.3138   21.4246 H   0  0  0  0  0  0
  -23.3714  -35.9656   23.3299 H   0  0  0  0  0  0
  -24.3635  -36.8885   22.2065 H   0  0  0  0  0  0
  -23.7240  -37.6522   23.6625 H   0  0  0  0  0  0
  -26.0543  -31.6042   20.6047 H   0  0  0  0  0  0
  -26.8200  -30.8719   21.9824 H   0  0  0  0  0  0
  -28.0989  -29.0924   21.1648 H   0  0  0  0  0  0
  -26.0538  -25.9778   19.0019 H   0  0  0  0  0  0
  -23.9655  -27.2953   19.0403 H   0  0  0  0  0  0
  -23.7112  -30.6099   19.4125 H   0  0  0  0  0  0
  -22.7271  -29.2531   19.8709 H   0  0  0  0  0  0
  -25.1270  -36.1969   25.0853 H   0  0  0  0  0  0
  -20.9995  -28.3180   24.1460 H   0  0  0  0  0  0
  -20.5700  -26.2268   23.3570 H   0  0  0  0  0  0
  -21.6782  -26.7489   22.1291 H   0  0  0  0  0  0
  -19.7027  -25.6396   21.1111 H   0  0  0  0  0  0
  -19.6787  -27.3326   20.6750 H   0  0  0  0  0  0
  -17.4357  -26.6790   21.3905 H   0  0  0  0  0  0
  -18.0345  -25.9995   22.8850 H   0  0  0  0  0  0
  -19.7904  -30.7300   24.2310 H   0  0  0  0  0  0
  -17.4930  -31.6234   24.5153 H   0  0  0  0  0  0
  -15.5333  -30.2880   23.7616 H   0  0  0  0  0  0
  -15.8777  -28.0686   22.6975 H   0  0  0  0  0  0
  -24.6036  -30.7007   25.7870 H   0  0  0  0  0  0
  -24.9049  -32.2866   26.4915 H   0  0  0  0  0  0
  -25.8279  -30.8938   27.0215 H   0  0  0  0  0  0
  -26.2904  -29.6746   24.1177 H   0  0  0  0  0  0
  -27.4188  -29.7263   25.4542 H   0  0  0  0  0  0
  -27.8726  -30.4308   23.9185 H   0  0  0  0  0  0
  -27.2684  -33.3593   26.2078 H   0  0  0  0  0  0
  -28.3912  -32.6892   25.0334 H   0  0  0  0  0  0
  -28.0718  -31.8412   26.5406 H   0  0  0  0  0  0
  -28.2612  -38.0082   24.7494 H   0  0  0  0  0  0
  -28.1041  -36.2616   24.6307 H   0  0  0  0  0  0
  -27.2318  -37.1469   25.8890 H   0  0  0  0  0  0
  -20.9372  -29.8756   21.6976 H   0  0  0  0  0  0
  -26.0157  -38.2864   24.1366 H   0  0  0  0  0  0
  -31.2781  -17.1846   19.7511 H   0  0  0  0  0  0
  -30.6989  -19.5686   19.7051 H   0  0  0  0  0  0
  -28.4567  -16.5684   22.9464 H   0  0  0  0  0  0
  -26.1747  -17.2148   22.7509 H   0  0  0  0  0  0
  -25.8006  -18.1065   24.3093 H   0  0  0  0  0  0
  -25.5688  -20.2191   23.0293 H   0  0  0  0  0  0
  -25.9829  -19.3319   21.4739 H   0  0  0  0  0  0
  -28.5676  -20.6737   23.9753 H   0  0  0  0  0  0
  -28.7314  -19.1466   24.8543 H   0  0  0  0  0  0
  -27.2399  -20.0859   24.9888 H   0  0  0  0  0  0
  -26.1875  -23.4065   21.4872 H   0  0  0  0  0  0
  -27.5289  -22.7045   22.3870 H   0  0  0  0  0  0
  -26.4694  -21.7107   21.3895 H   0  0  0  0  0  0
  -26.3800  -23.8247   19.0172 H   0  0  0  0  0  0
  -26.3571  -22.0874   18.8687 H   0  0  0  0  0  0
  -27.6110  -23.0182   18.0541 H   0  0  0  0  0  0
  -29.6648  -23.9013   20.9643 H   0  0  0  0  0  0
  -29.2437  -24.3371   19.3474 H   0  0  0  0  0  0
  -28.5262  -25.5954   21.8923 H   0  0  0  0  0  0
  -27.0736  -25.2487   21.0585 H   0  0  0  0  0  0
  -29.7870  -21.7683   19.7026 H   0  0  0  0  0  0
  -28.3479  -20.8609   19.3311 H   0  0  0  0  0  0
  -29.4492  -14.8104   22.0676 H   0  0  0  0  0  0
  1 25  1  0  0  0
  1 30  2  0  0  0
  1 87  1  0  0  0
  2  3  1  0  0  0
  2 25  1  0  0  0
  2 89  1  0  0  0
  2 90  1  0  0  0
  3  4  1  0  0  0
  3 91  1  0  0  0
  3 92  1  0  0  0
  4  5  1  0  0  0
  4 93  1  0  0  0
  4 94  1  0  0  0
  5  6  1  0  0  0
  5 26  1  0  0  0
  5 95  1  0  0  0
  6 25  1  0  0  0
  6 96  1  0  0  0
  6 97  1  0  0  0
  7  8  2  0  0  0
  7 26  1  0  0  0
  7 29  1  0  0  0
  8  9  1  0  0  0
  8 22  1  0  0  0
  9 10  1  0  0  0
  9 27  2  0  0  0
 10 11  2  0  0  0
 10 15  1  0  0  0
 11 12  1  0  0  0
 11 98  1  0  0  0
 12 13  2  0  0  0
 12 99  1  0  0  0
 13 14  1  0  0  0
 13 31  1  0  0  0
 14 15  2  0  0  0
 14100  1  0  0  0
 15101  1  0  0  0
 16 17  2  0  0  0
 16 21  1  0  0  0
 16 31  1  0  0  0
 17 18  1  0  0  0
 17102  1  0  0  0
 18 19  2  0  0  0
 18103  1  0  0  0
 19 20  1  0  0  0
 19 24  1  0  0  0
 20 21  2  0  0  0
 20104  1  0  0  0
 21 23  1  0  0  0
 22 28  1  0  0  0
 22 32  2  0  0  0
 26 27  1  0  0  0
 28105  1  0  0  0
 28106  1  0  0  0
 29107  1  0  0  0
 29108  1  0  0  0
 33 34  1  0  0  0
 33 66  1  0  0  0
 33 70  2  0  0  0
 34 36  1  0  0  0
 34 59  1  0  0  0
 34109  1  0  0  0
 35 44  2  0  0  0
 35 45  1  0  0  0
 35 68  1  0  0  0
 36 56  1  0  0  0
 36110  1  0  0  0
 37 39  1  0  0  0
 37 47  1  0  0  0
 37 66  1  0  0  0
 37111  1  0  0  0
 38 43  2  0  0  0
 38 46  1  0  0  0
 38 47  1  0  0  0
 39 64  1  0  0  0
 39 67  2  0  0  0
 40 52  1  0  0  0
 40 53  2  0  0  0
 40 58  1  0  0  0
 41112  1  0  0  0
 41113  1  0  0  0
 41114  1  0  0  0
 41 48  1  0  0  0
 42 43  1  0  0  0
 42 66  1  0  0  0
 42115  1  0  0  0
 42116  1  0  0  0
 43 44  1  0  0  0
 44117  1  0  0  0
 45 46  2  0  0  0
 45118  1  0  0  0
 46119  1  0  0  0
 47120  1  0  0  0
 47121  1  0  0  0
 48 56  1  0  0  0
 48 65  1  0  0  0
 48122  1  0  0  0
 49 50  1  0  0  0
 49 53  1  0  0  0
 49 64  1  0  0  0
 49123  1  0  0  0
 50 51  1  0  0  0
 50124  1  0  0  0
 50125  1  0  0  0
 51 52  1  0  0  0
 51126  1  0  0  0
 51127  1  0  0  0
 52128  1  0  0  0
 52129  1  0  0  0
 53 54  1  0  0  0
 54 55  2  0  0  0
 54130  1  0  0  0
 55 57  1  0  0  0
 55131  1  0  0  0
 56 69  2  0  0  0
 57 58  2  0  0  0
 57132  1  0  0  0
 58133  1  0  0  0
 59 60  1  0  0  0
 59 61  1  0  0  0
 59 62  1  0  0  0
 60134  1  0  0  0
 60135  1  0  0  0
 60136  1  0  0  0
 61137  1  0  0  0
 61138  1  0  0  0
 61139  1  0  0  0
 62140  1  0  0  0
 62141  1  0  0  0
 62142  1  0  0  0
 63 65  1  0  0  0
 63143  1  0  0  0
 63144  1  0  0  0
 63145  1  0  0  0
 64146  1  0  0  0
 65147  1  0  0  0
 68 84  1  0  0  0
 71 72  2  0  0  0
 71 75  1  0  0  0
 71148  1  0  0  0
 72 76  1  0  0  0
 72149  1  0  0  0
 73 74  1  0  0  0
 73 75  2  0  0  0
 73150  1  0  0  0
 74 76  2  0  0  0
 74 79  1  0  0  0
 75 87  1  0  0  0
 76 88  1  0  0  0
 77 78  1  0  0  0
 77 79  1  0  0  0
 77151  1  0  0  0
 77152  1  0  0  0
 78 79  1  0  0  0
 78153  1  0  0  0
 78154  1  0  0  0
 79 80  1  0  0  0
 80155  1  0  0  0
 80156  1  0  0  0
 80157  1  0  0  0
 81158  1  0  0  0
 81159  1  0  0  0
 81160  1  0  0  0
 81 86  1  0  0  0
 82 86  1  0  0  0
 82161  1  0  0  0
 82162  1  0  0  0
 82163  1  0  0  0
 83 84  1  0  0  0
 83 86  1  0  0  0
 83164  1  0  0  0
 83165  1  0  0  0
 84166  1  0  0  0
 84167  1  0  0  0
 85 86  1  0  0  0
 85 88  1  0  0  0
 85168  1  0  0  0
 85169  1  0  0  0
 87170  1  0  0  0
M  ISO  4   1 100  68 101  84 101  87 100
M  END
> <chiral flag>
0

> <version>
0

> <s_m_source_file>
/data/baiqing/PycharmProjects/Reinvent-master-3.2/result/LINK_invent/BTK/process_docking_weight1_custom_product_contain_oxygen_bond_distance_aromatic_linkinvent_7_9_3/rearranged_h_0142.sdf

> <i_m_source_file_index>
49

> <r_mmod_Potential_Energy-OPLS-2005>
64.5204238891602

> <r_mmod_Stretch_Energy-OPLS-2005>
43.7230796813965

> <r_mmod_Bend_Energy-OPLS-2005>
116.662582397461

> <r_mmod_Torsional_Energy-OPLS-2005>
325.073577880859

> <r_mmod_Improper_Torsional_Energy-OPLS-2005>
3.89902234077454

> <r_mmod_Van_der_Waal_Energy-OPLS-2005>
156.098815917969

> <r_mmod_Electrostatic_Energy-OPLS-2005>
-399.357421875

> <r_mmod_Solvation_Energy-OPLS-2005>
-194.109008789062

> <b_mmod_Minimization_Converged-OPLS-2005>
0

> <r_mmod_RMS_Derivative-OPLS-2005>
4.91654062271118

$$$$
49
                    3D
 Structure written by MMmdl.
166175  0  0  1  0            999 V2000
  -30.7073  -14.4005   20.5965 C   0  0  0  0  0  0
  -30.4216  -12.2646   19.4168 C   0  0  0  0  0  0
  -29.4951  -12.5030   18.2055 C   0  0  0  0  0  0
  -28.0149  -12.3700   18.6140 C   0  0  0  0  0  0
  -27.6681  -13.1931   19.8829 C   0  0  2  0  0  0
  -28.7037  -12.9309   21.0009 C   0  0  0  0  0  0
  -25.2621  -13.8143   20.5673 C   0  0  0  0  0  0
  -24.1846  -13.0436   20.9151 C   0  0  0  0  0  0
  -24.6378  -11.6895   20.8712 C   0  0  0  0  0  0
  -23.9041  -10.4290   21.0402 C   0  0  0  0  0  0
  -24.3605   -9.4210   21.9183 C   0  0  0  0  0  0
  -23.6285   -8.2243   22.0754 C   0  0  0  0  0  0
  -22.4268   -8.0277   21.3543 C   0  0  0  0  0  0
  -21.9895   -9.0248   20.4647 C   0  0  0  0  0  0
  -22.7215  -10.2131   20.3053 C   0  0  0  0  0  0
  -21.6848   -6.0736   22.5282 C   0  0  0  0  0  0
  -21.4019   -6.5646   23.8216 C   0  0  0  0  0  0
  -21.3656   -5.6796   24.9176 C   0  0  0  0  0  0
  -21.6044   -4.3057   24.7230 C   0  0  0  0  0  0
  -21.8817   -3.8150   23.4350 C   0  0  0  0  0  0
  -21.9196   -4.6966   22.3407 C   0  0  0  0  0  0
  -22.7871  -13.5248   21.1819 C   0  0  0  0  0  0
  -22.1660   -4.2151   21.0982 F   0  0  0  0  0  0
  -21.5623   -3.4540   25.7741 F   0  0  0  0  0  0
  -30.0491  -13.2208   20.4685 N   0  0  0  0  0  0
  -26.3049  -12.9284   20.3388 N   0  0  0  0  0  0
  -25.9303  -11.6458   20.5755 N   0  0  0  0  0  0
  -22.0510  -12.8248   22.0381 N   0  0  0  0  0  0
  -25.4369  -15.1863   20.4113 N   0  0  0  0  0  0
  -31.7952  -14.6434   20.0626 O   0  0  0  0  0  0
  -21.6634   -6.8874   21.4239 O   0  0  0  0  0  0
  -22.3554  -14.5552   20.6666 O   0  0  0  0  0  0
  -24.6096  -31.8708   23.2126 C   0  0  0  0  0  0
  -25.9012  -32.4834   23.8404 C   0  0  1  0  0  0
  -27.2400  -27.4842   20.0953 C   0  0  0  0  0  0
  -25.5886  -33.8631   24.2346 N   0  0  0  0  0  0
  -23.3947  -30.4925   21.5522 C   0  0  2  0  0  0
  -24.8442  -28.9592   20.1196 C   0  0  0  0  0  0
  -22.7375  -29.4668   22.5024 C   0  0  0  0  0  0
  -18.0265  -28.1337   22.8493 C   0  0  0  0  0  0
  -24.1496  -36.7338   23.2635 C   0  0  0  0  0  0
  -25.9179  -30.8499   21.3595 C   0  0  0  0  0  0
  -25.9985  -29.4848   20.7154 C   0  0  0  0  0  0
  -27.2010  -28.7505   20.7073 C   0  0  0  0  0  0
  -26.0774  -26.9569   19.4984 C   0  0  0  0  0  0
  -24.8757  -27.6899   19.5121 C   0  0  0  0  0  0
  -23.6011  -29.8176   20.1681 C   0  0  0  0  0  0
  -25.4107  -36.3123   24.0343 C   0  0  1  0  0  0
  -20.5850  -28.3620   23.1332 C   0  0  2  0  0  0
  -20.6754  -26.9361   22.5416 C   0  0  0  0  0  0
  -19.5741  -26.6359   21.5203 C   0  0  0  0  0  0
  -18.1919  -26.7888   22.1613 C   0  0  0  0  0  0
  -19.1513  -28.8796   23.2911 C   0  0  0  0  0  0
  -18.9434  -30.1405   23.8915 C   0  0  0  0  0  0
  -17.6438  -30.6553   24.0559 C   0  0  0  0  0  0
  -25.9020  -34.9484   23.5140 C   0  0  0  0  0  0
  -16.5330  -29.9053   23.6315 C   0  0  0  0  0  0
  -16.7258  -28.6464   23.0349 C   0  0  0  0  0  0
  -26.4463  -31.6590   25.0711 C   0  0  0  0  0  0
  -25.3747  -31.3673   26.1469 C   0  0  0  0  0  0
  -27.0297  -30.3044   24.6048 C   0  0  0  0  0  0
  -27.6048  -32.4292   25.7470 C   0  0  0  0  0  0
  -27.5588  -37.1825   24.8461 C   0  0  0  0  0  0
  -21.4112  -29.3008   22.3758 N   0  0  0  0  0  0
  -26.4307  -37.3793   23.9393 N   0  0  0  0  0  0
  -24.6584  -31.0844   22.1003 N   0  0  0  0  0  0
  -23.4174  -28.8221   23.3051 O   0  0  0  0  0  0
  -28.4048  -26.7695   20.0589 O   0  0  0  0  0  0
  -26.5579  -34.8931   22.4700 O   0  0  0  0  0  0
  -23.5306  -32.1431   23.7557 O   0  0  0  0  0  0
  -28.7862  -17.8686   18.7895 C   0  0  0  0  0  0
  -28.6501  -18.9944   19.6174 C   0  0  0  0  0  0
  -29.2801  -16.6659   19.3163 C   0  0  0  0  0  0
  -29.4884  -17.7172   21.5106 C   0  0  0  0  0  0
  -29.0176  -18.9451   20.9845 C   0  0  0  0  0  0
  -29.6312  -16.5798   20.6846 C   0  0  0  0  0  0
  -29.2820  -22.4148   22.1551 C   0  0  0  0  0  0
  -29.5144  -23.7308   21.9610 C   0  0  0  0  0  0
  -29.5505  -21.6869   23.4512 C   0  0  0  0  0  0
  -28.8112  -21.3981   21.1485 C   0  0  0  0  0  0
  -29.5930  -20.2021   23.0715 C   0  0  0  0  0  0
  -28.5166  -23.9569   19.5741 C   0  0  0  0  0  0
  -30.7154  -24.9918   20.1875 C   0  0  0  0  0  0
  -28.5666  -25.8867   21.1639 C   0  0  0  0  0  0
  -29.3206  -24.6138   20.7191 C   0  0  0  0  0  0
  -28.8973  -20.0969   21.7939 N   0  0  0  0  0  0
  -30.0341  -15.3474   21.2628 N   0  0  0  0  0  0
  -31.4682  -12.3565   19.1207 H   0  0  0  0  0  0
  -30.3072  -11.2453   19.7878 H   0  0  0  0  0  0
  -29.7281  -11.7948   17.4095 H   0  0  0  0  0  0
  -29.6747  -13.4956   17.7900 H   0  0  0  0  0  0
  -27.8151  -11.3132   18.7951 H   0  0  0  0  0  0
  -27.3673  -12.6600   17.7861 H   0  0  0  0  0  0
  -27.7224  -14.2450   19.6085 H   0  0  0  0  0  0
  -28.6579  -11.8862   21.3141 H   0  0  0  0  0  0
  -28.4605  -13.5057   21.8947 H   0  0  0  0  0  0
  -25.2757   -9.5693   22.4748 H   0  0  0  0  0  0
  -23.9998   -7.4643   22.7482 H   0  0  0  0  0  0
  -21.0823   -8.8770   19.8955 H   0  0  0  0  0  0
  -22.3680  -10.9670   19.6160 H   0  0  0  0  0  0
  -21.2012   -7.6156   23.9722 H   0  0  0  0  0  0
  -21.1478   -6.0525   25.9079 H   0  0  0  0  0  0
  -22.0598   -2.7612   23.2852 H   0  0  0  0  0  0
  -22.4122  -11.9919   22.4790 H   0  0  0  0  0  0
  -21.1137  -13.1290   22.2596 H   0  0  0  0  0  0
  -24.6743  -15.8444   20.5300 H   0  0  0  0  0  0
  -26.3041  -15.6282   20.1310 H   0  0  0  0  0  0
  -26.7090  -32.5574   23.1184 H   0  0  0  0  0  0
  -25.0073  -33.9796   25.0516 H   0  0  0  0  0  0
  -22.6818  -31.3083   21.4143 H   0  0  0  0  0  0
  -23.3749  -35.9684   23.3308 H   0  0  0  0  0  0
  -24.3594  -36.8937   22.2047 H   0  0  0  0  0  0
  -23.7269  -37.6561   23.6636 H   0  0  0  0  0  0
  -26.0171  -31.6130   20.5865 H   0  0  0  0  0  0
  -26.8103  -30.9108   21.9698 H   0  0  0  0  0  0
  -28.0952  -29.1523   21.1620 H   0  0  0  0  0  0
  -26.1077  -25.9843   19.0280 H   0  0  0  0  0  0
  -23.9877  -27.2776   19.0540 H   0  0  0  0  0  0
  -23.7018  -30.5885   19.4036 H   0  0  0  0  0  0
  -22.7287  -29.2286   19.8783 H   0  0  0  0  0  0
  -25.1289  -36.2003   25.0840 H   0  0  0  0  0  0
  -20.9937  -28.3172   24.1454 H   0  0  0  0  0  0
  -20.5625  -26.2226   23.3597 H   0  0  0  0  0  0
  -21.6631  -26.7396   22.1226 H   0  0  0  0  0  0
  -19.6899  -25.6277   21.1209 H   0  0  0  0  0  0
  -19.6679  -27.3190   20.6753 H   0  0  0  0  0  0
  -17.4188  -26.6639   21.4016 H   0  0  0  0  0  0
  -18.0329  -26.0011   22.8990 H   0  0  0  0  0  0
  -19.7911  -30.7219   24.2290 H   0  0  0  0  0  0
  -17.4988  -31.6242   24.5141 H   0  0  0  0  0  0
  -15.5325  -30.2958   23.7612 H   0  0  0  0  0  0
  -15.8664  -28.0785   22.7051 H   0  0  0  0  0  0
  -24.5888  -30.7066   25.7785 H   0  0  0  0  0  0
  -24.8989  -32.2833   26.4980 H   0  0  0  0  0  0
  -25.8104  -30.8770   27.0181 H   0  0  0  0  0  0
  -26.2822  -29.6791   24.1149 H   0  0  0  0  0  0
  -27.4145  -29.7281   25.4470 H   0  0  0  0  0  0
  -27.8620  -30.4388   23.9135 H   0  0  0  0  0  0
  -27.2662  -33.3543   26.2143 H   0  0  0  0  0  0
  -28.3809  -32.6919   25.0271 H   0  0  0  0  0  0
  -28.0780  -31.8359   26.5308 H   0  0  0  0  0  0
  -28.2615  -38.0113   24.7494 H   0  0  0  0  0  0
  -28.1075  -36.2645   24.6303 H   0  0  0  0  0  0
  -27.2305  -37.1501   25.8864 H   0  0  0  0  0  0
  -20.9250  -29.8754   21.7018 H   0  0  0  0  0  0
  -26.0211  -38.2884   24.1357 H   0  0  0  0  0  0
  -28.5017  -17.9274   17.7489 H   0  0  0  0  0  0
  -28.2558  -19.8946   19.1694 H   0  0  0  0  0  0
  -29.3545  -15.8115   18.6584 H   0  0  0  0  0  0
  -29.7485  -17.6348   22.5556 H   0  0  0  0  0  0
  -29.8886  -24.2737   22.8180 H   0  0  0  0  0  0
  -28.7229  -21.8769   24.1357 H   0  0  0  0  0  0
  -30.4722  -22.0201   23.9304 H   0  0  0  0  0  0
  -29.4702  -21.4274   20.2815 H   0  0  0  0  0  0
  -27.7840  -21.5974   20.8424 H   0  0  0  0  0  0
  -29.1218  -19.5820   23.8368 H   0  0  0  0  0  0
  -30.6267  -19.8714   22.9565 H   0  0  0  0  0  0
  -29.0415  -23.1193   19.1192 H   0  0  0  0  0  0
  -28.3452  -24.6599   18.7589 H   0  0  0  0  0  0
  -27.5331  -23.6246   19.9089 H   0  0  0  0  0  0
  -31.2846  -24.1049   19.9044 H   0  0  0  0  0  0
  -31.2961  -25.5290   20.9384 H   0  0  0  0  0  0
  -30.6516  -25.6303   19.3058 H   0  0  0  0  0  0
  -27.6031  -25.6058   21.5974 H   0  0  0  0  0  0
  -29.1176  -26.4104   21.9468 H   0  0  0  0  0  0
  -29.3909  -14.9859   21.9519 H   0  0  0  0  0  0
  1 25  1  0  0  0
  1 30  2  0  0  0
  1 87  1  0  0  0
  2  3  1  0  0  0
  2 25  1  0  0  0
  2 88  1  0  0  0
  2 89  1  0  0  0
  3  4  1  0  0  0
  3 90  1  0  0  0
  3 91  1  0  0  0
  4  5  1  0  0  0
  4 92  1  0  0  0
  4 93  1  0  0  0
  5  6  1  0  0  0
  5 26  1  0  0  0
  5 94  1  0  0  0
  6 25  1  0  0  0
  6 95  1  0  0  0
  6 96  1  0  0  0
  7  8  2  0  0  0
  7 26  1  0  0  0
  7 29  1  0  0  0
  8  9  1  0  0  0
  8 22  1  0  0  0
  9 10  1  0  0  0
  9 27  2  0  0  0
 10 11  2  0  0  0
 10 15  1  0  0  0
 11 12  1  0  0  0
 11 97  1  0  0  0
 12 13  2  0  0  0
 12 98  1  0  0  0
 13 14  1  0  0  0
 13 31  1  0  0  0
 14 15  2  0  0  0
 14 99  1  0  0  0
 15100  1  0  0  0
 16 17  2  0  0  0
 16 21  1  0  0  0
 16 31  1  0  0  0
 17 18  1  0  0  0
 17101  1  0  0  0
 18 19  2  0  0  0
 18102  1  0  0  0
 19 20  1  0  0  0
 19 24  1  0  0  0
 20 21  2  0  0  0
 20103  1  0  0  0
 21 23  1  0  0  0
 22 28  1  0  0  0
 22 32  2  0  0  0
 26 27  1  0  0  0
 28104  1  0  0  0
 28105  1  0  0  0
 29106  1  0  0  0
 29107  1  0  0  0
 33 34  1  0  0  0
 33 66  1  0  0  0
 33 70  2  0  0  0
 34 36  1  0  0  0
 34 59  1  0  0  0
 34108  1  0  0  0
 35 44  2  0  0  0
 35 45  1  0  0  0
 35 68  1  0  0  0
 36 56  1  0  0  0
 36109  1  0  0  0
 37 39  1  0  0  0
 37 47  1  0  0  0
 37 66  1  0  0  0
 37110  1  0  0  0
 38 43  2  0  0  0
 38 46  1  0  0  0
 38 47  1  0  0  0
 39 64  1  0  0  0
 39 67  2  0  0  0
 40 52  1  0  0  0
 40 53  2  0  0  0
 40 58  1  0  0  0
 41111  1  0  0  0
 41112  1  0  0  0
 41113  1  0  0  0
 41 48  1  0  0  0
 42 43  1  0  0  0
 42 66  1  0  0  0
 42114  1  0  0  0
 42115  1  0  0  0
 43 44  1  0  0  0
 44116  1  0  0  0
 45 46  2  0  0  0
 45117  1  0  0  0
 46118  1  0  0  0
 47119  1  0  0  0
 47120  1  0  0  0
 48 56  1  0  0  0
 48 65  1  0  0  0
 48121  1  0  0  0
 49 50  1  0  0  0
 49 53  1  0  0  0
 49 64  1  0  0  0
 49122  1  0  0  0
 50 51  1  0  0  0
 50123  1  0  0  0
 50124  1  0  0  0
 51 52  1  0  0  0
 51125  1  0  0  0
 51126  1  0  0  0
 52127  1  0  0  0
 52128  1  0  0  0
 53 54  1  0  0  0
 54 55  2  0  0  0
 54129  1  0  0  0
 55 57  1  0  0  0
 55130  1  0  0  0
 56 69  2  0  0  0
 57 58  2  0  0  0
 57131  1  0  0  0
 58132  1  0  0  0
 59 60  1  0  0  0
 59 61  1  0  0  0
 59 62  1  0  0  0
 60133  1  0  0  0
 60134  1  0  0  0
 60135  1  0  0  0
 61136  1  0  0  0
 61137  1  0  0  0
 61138  1  0  0  0
 62139  1  0  0  0
 62140  1  0  0  0
 62141  1  0  0  0
 63 65  1  0  0  0
 63142  1  0  0  0
 63143  1  0  0  0
 63144  1  0  0  0
 64145  1  0  0  0
 65146  1  0  0  0
 68 84  1  0  0  0
 71 72  2  0  0  0
 71 73  1  0  0  0
 71147  1  0  0  0
 72 75  1  0  0  0
 72148  1  0  0  0
 73 76  2  0  0  0
 73149  1  0  0  0
 74 75  2  0  0  0
 74 76  1  0  0  0
 74150  1  0  0  0
 75 86  1  0  0  0
 76 87  1  0  0  0
 77 78  2  0  0  0
 77 79  1  0  0  0
 77 80  1  0  0  0
 78 85  1  0  0  0
 78151  1  0  0  0
 79 81  1  0  0  0
 79152  1  0  0  0
 79153  1  0  0  0
 80 86  1  0  0  0
 80154  1  0  0  0
 80155  1  0  0  0
 81 86  1  0  0  0
 81156  1  0  0  0
 81157  1  0  0  0
 82158  1  0  0  0
 82159  1  0  0  0
 82160  1  0  0  0
 82 85  1  0  0  0
 83 85  1  0  0  0
 83161  1  0  0  0
 83162  1  0  0  0
 83163  1  0  0  0
 84 85  1  0  0  0
 84164  1  0  0  0
 84165  1  0  0  0
 87166  1  0  0  0
M  ISO  4   1 100  68 101  84 101  87 100
M  END
> <chiral flag>
0

> <version>
0

> <s_m_source_file>
/data/baiqing/PycharmProjects/Reinvent-master-3.2/result/LINK_invent/BTK/process_docking_weight1_custom_product_contain_oxygen_bond_distance_aromatic_linkinvent_7_9_3/rearranged_h_0142.sdf

> <i_m_source_file_index>
50

> <r_mmod_Potential_Energy-OPLS-2005>
42.1148567199707

> <r_mmod_Stretch_Energy-OPLS-2005>
33.6341018676758

> <r_mmod_Bend_Energy-OPLS-2005>
131.252944946289

> <r_mmod_Torsional_Energy-OPLS-2005>
279.503173828125

> <r_mmod_Improper_Torsional_Energy-OPLS-2005>
8.64173603057861

> <r_mmod_Van_der_Waal_Energy-OPLS-2005>
161.256240844727

> <r_mmod_Electrostatic_Energy-OPLS-2005>
-356.726196289062

> <r_mmod_Solvation_Energy-OPLS-2005>
-222.541305541992

> <b_mmod_Minimization_Converged-OPLS-2005>
0

> <r_mmod_RMS_Derivative-OPLS-2005>
1.60432231426239

$$$$
50
                    3D
 Structure written by MMmdl.
179188  0  0  1  0            999 V2000
  -30.5623  -14.7523   20.4223 C   0  0  0  0  0  0
  -30.4296  -12.4466   19.4817 C   0  0  0  0  0  0
  -29.5044  -12.4989   18.2453 C   0  0  0  0  0  0
  -28.0287  -12.3183   18.6554 C   0  0  0  0  0  0
  -27.6351  -13.2024   19.8707 C   0  0  2  0  0  0
  -28.6833  -13.1257   21.0010 C   0  0  0  0  0  0
  -25.2479  -13.8092   20.5753 C   0  0  0  0  0  0
  -24.1738  -13.0383   20.9224 C   0  0  0  0  0  0
  -24.6291  -11.6845   20.8793 C   0  0  0  0  0  0
  -23.8974  -10.4235   21.0429 C   0  0  0  0  0  0
  -24.3543   -9.4153   21.9193 C   0  0  0  0  0  0
  -23.6229   -8.2184   22.0751 C   0  0  0  0  0  0
  -22.4213   -8.0228   21.3553 C   0  0  0  0  0  0
  -21.9851   -9.0187   20.4652 C   0  0  0  0  0  0
  -22.7163  -10.2063   20.3056 C   0  0  0  0  0  0
  -21.6817   -6.0702   22.5280 C   0  0  0  0  0  0
  -21.4005   -6.5626   23.8216 C   0  0  0  0  0  0
  -21.3663   -5.6795   24.9191 C   0  0  0  0  0  0
  -21.6049   -4.3050   24.7250 C   0  0  0  0  0  0
  -21.8817   -3.8135   23.4372 C   0  0  0  0  0  0
  -21.9178   -4.6942   22.3417 C   0  0  0  0  0  0
  -22.7764  -13.5181   21.1891 C   0  0  0  0  0  0
  -22.1642   -4.2123   21.0993 F   0  0  0  0  0  0
  -21.5639   -3.4546   25.7765 F   0  0  0  0  0  0
  -29.9803  -13.5016   20.4210 N   0  0  0  0  0  0
  -26.2873  -12.9229   20.3419 N   0  0  0  0  0  0
  -25.9216  -11.6404   20.5837 N   0  0  0  0  0  0
  -22.0395  -12.8177   22.0431 N   0  0  0  0  0  0
  -25.4229  -15.1816   20.4167 N   0  0  0  0  0  0
  -31.7326  -14.8773   20.0511 O   0  0  0  0  0  0
  -21.6600   -6.8818   21.4228 O   0  0  0  0  0  0
  -22.3462  -14.5496   20.6724 O   0  0  0  0  0  0
  -24.6343  -31.8508   23.1988 C   0  0  0  0  0  0
  -25.9156  -32.4724   23.8326 C   0  0  1  0  0  0
  -27.2150  -27.2328   20.1142 C   0  0  0  0  0  0
  -25.5954  -33.8535   24.2238 N   0  0  0  0  0  0
  -23.4311  -30.4757   21.5409 C   0  0  2  0  0  0
  -24.8790  -28.9227   20.1057 C   0  0  0  0  0  0
  -22.7487  -29.4583   22.4874 C   0  0  0  0  0  0
  -18.0288  -28.1389   22.8496 C   0  0  0  0  0  0
  -24.1508  -36.7249   23.2638 C   0  0  0  0  0  0
  -25.9818  -30.7499   21.3892 C   0  0  0  0  0  0
  -26.0522  -29.3738   20.7234 C   0  0  0  0  0  0
  -27.2183  -28.5388   20.7218 C   0  0  0  0  0  0
  -26.0065  -26.8457   19.4961 C   0  0  0  0  0  0
  -24.8641  -27.6663   19.4846 C   0  0  0  0  0  0
  -23.6540  -29.8160   20.1558 C   0  0  0  0  0  0
  -25.4129  -36.3027   24.0317 C   0  0  1  0  0  0
  -20.5898  -28.3706   23.1262 C   0  0  2  0  0  0
  -20.6794  -26.9420   22.5408 C   0  0  0  0  0  0
  -19.5765  -26.6389   21.5225 C   0  0  0  0  0  0
  -18.1937  -26.7929   22.1629 C   0  0  0  0  0  0
  -19.1540  -28.8866   23.2880 C   0  0  0  0  0  0
  -18.9461  -30.1466   23.8899 C   0  0  0  0  0  0
  -17.6460  -30.6588   24.0576 C   0  0  0  0  0  0
  -25.9069  -34.9415   23.5076 C   0  0  0  0  0  0
  -16.5352  -29.9083   23.6346 C   0  0  0  0  0  0
  -16.7274  -28.6509   23.0356 C   0  0  0  0  0  0
  -26.4537  -31.6548   25.0714 C   0  0  0  0  0  0
  -25.3743  -31.3712   26.1416 C   0  0  0  0  0  0
  -27.0418  -30.2945   24.6277 C   0  0  0  0  0  0
  -27.6074  -32.4311   25.7483 C   0  0  0  0  0  0
  -27.5574  -37.1775   24.8458 C   0  0  0  0  0  0
  -21.4182  -29.3032   22.3609 N   0  0  0  0  0  0
  -26.4289  -37.3731   23.9405 N   0  0  0  0  0  0
  -24.7011  -31.0434   22.0981 N   0  0  0  0  0  0
  -23.4164  -28.8092   23.2972 O   0  0  0  0  0  0
  -28.3193  -26.3411   20.1634 O   0  0  0  0  0  0
  -26.5635  -34.8898   22.4637 O   0  0  0  0  0  0
  -23.5478  -32.1358   23.7256 O   0  0  0  0  0  0
  -28.1063  -17.7044   17.9278 C   0  0  0  0  0  0
  -28.6954  -16.7106   18.7206 C   0  0  0  0  0  0
  -29.5079  -18.4518   20.2033 C   0  0  0  0  0  0
  -28.9534  -19.5281   19.3683 C   0  0  0  0  0  0
  -28.2272  -19.0802   18.2162 C   0  0  0  0  0  0
  -29.3981  -17.0240   19.8954 C   0  0  0  0  0  0
  -29.6944  -21.5581   20.9621 C   0  0  0  0  0  0
  -29.5426  -23.1189   21.0518 C   0  0  0  0  0  0
  -28.1181  -22.2060   19.3406 C   0  0  0  0  0  0
  -29.2803  -21.1118   19.5404 C   0  0  2  0  0  0
  -28.2977  -23.5319   20.2327 C   0  0  2  0  0  0
  -27.5916  -20.0063   17.1845 C   0  0  0  0  0  0
  -31.4835  -20.4749   15.6868 C   0  0  0  0  0  0
  -33.5126  -19.6952   16.8993 C   0  0  0  0  0  0
  -32.9245  -22.1337   16.9051 C   0  0  0  0  0  0
  -30.4091  -21.4921   18.5222 C   0  0  0  0  0  0
  -28.3415  -24.9861   19.4865 C   0  0  0  0  0  0
  -31.5295  -20.4558   18.2371 C   0  0  0  0  0  0
  -32.3503  -20.7054   16.9433 C   0  0  0  0  0  0
  -29.7861  -15.8621   20.7394 N   0  0  0  0  0  0
  -27.1585  -23.5775   21.0786 O   0  0  0  0  0  0
  -31.4699  -12.5768   19.1804 H   0  0  0  0  0  0
  -30.3807  -11.4671   19.9576 H   0  0  0  0  0  0
  -29.7884  -11.7300   17.5263 H   0  0  0  0  0  0
  -29.6290  -13.4530   17.7337 H   0  0  0  0  0  0
  -27.8816  -11.2659   18.9037 H   0  0  0  0  0  0
  -27.3691  -12.5191   17.8097 H   0  0  0  0  0  0
  -27.6189  -14.2240   19.5146 H   0  0  0  0  0  0
  -28.7281  -12.1152   21.4140 H   0  0  0  0  0  0
  -28.4133  -13.7799   21.8303 H   0  0  0  0  0  0
  -25.2685   -9.5623   22.4769 H   0  0  0  0  0  0
  -23.9953   -7.4558   22.7449 H   0  0  0  0  0  0
  -21.0798   -8.8670   19.8939 H   0  0  0  0  0  0
  -22.3626  -10.9581   19.6154 H   0  0  0  0  0  0
  -21.1978   -7.6128   23.9710 H   0  0  0  0  0  0
  -21.1515   -6.0535   25.9088 H   0  0  0  0  0  0
  -22.0594   -2.7591   23.2898 H   0  0  0  0  0  0
  -22.4030  -11.9848   22.4845 H   0  0  0  0  0  0
  -21.0995  -13.1161   22.2628 H   0  0  0  0  0  0
  -24.6568  -15.8379   20.5207 H   0  0  0  0  0  0
  -26.2765  -15.6178   20.0933 H   0  0  0  0  0  0
  -26.7206  -32.5385   23.1050 H   0  0  0  0  0  0
  -25.0176  -33.9706   25.0432 H   0  0  0  0  0  0
  -22.7295  -31.2987   21.3931 H   0  0  0  0  0  0
  -23.3778  -35.9571   23.3279 H   0  0  0  0  0  0
  -24.3603  -36.8896   22.2056 H   0  0  0  0  0  0
  -23.7275  -37.6442   23.6693 H   0  0  0  0  0  0
  -26.1367  -31.5158   20.6277 H   0  0  0  0  0  0
  -26.8507  -30.7894   22.0352 H   0  0  0  0  0  0
  -28.1119  -28.8718   21.2318 H   0  0  0  0  0  0
  -25.8849  -25.8733   19.0468 H   0  0  0  0  0  0
  -23.9641  -27.3059   19.0078 H   0  0  0  0  0  0
  -23.7828  -30.5964   19.4050 H   0  0  0  0  0  0
  -22.7705  -29.2549   19.8490 H   0  0  0  0  0  0
  -25.1325  -36.1854   25.0809 H   0  0  0  0  0  0
  -21.0020  -28.3330   24.1373 H   0  0  0  0  0  0
  -20.5753  -26.2310   23.3606 H   0  0  0  0  0  0
  -21.6652  -26.7471   22.1163 H   0  0  0  0  0  0
  -19.6942  -25.6305   21.1247 H   0  0  0  0  0  0
  -19.6728  -27.3218   20.6769 H   0  0  0  0  0  0
  -17.4214  -26.6703   21.4018 H   0  0  0  0  0  0
  -18.0321  -26.0058   22.9011 H   0  0  0  0  0  0
  -19.7939  -30.7291   24.2259 H   0  0  0  0  0  0
  -17.5011  -31.6276   24.5158 H   0  0  0  0  0  0
  -15.5356  -30.2987   23.7671 H   0  0  0  0  0  0
  -15.8669  -28.0837   22.7052 H   0  0  0  0  0  0
  -24.5936  -30.7052   25.7719 H   0  0  0  0  0  0
  -24.8940  -32.2900   26.4790 H   0  0  0  0  0  0
  -25.8047  -30.8908   27.0215 H   0  0  0  0  0  0
  -26.3047  -29.6625   24.1316 H   0  0  0  0  0  0
  -27.4065  -29.7277   25.4856 H   0  0  0  0  0  0
  -27.8932  -30.4163   23.9577 H   0  0  0  0  0  0
  -27.2664  -33.3626   26.2011 H   0  0  0  0  0  0
  -28.3906  -32.6841   25.0320 H   0  0  0  0  0  0
  -28.0717  -31.8469   26.5437 H   0  0  0  0  0  0
  -28.2555  -38.0098   24.7506 H   0  0  0  0  0  0
  -28.1107  -36.2628   24.6286 H   0  0  0  0  0  0
  -27.2295  -37.1415   25.8858 H   0  0  0  0  0  0
  -20.9330  -29.8751   21.6827 H   0  0  0  0  0  0
  -26.0150  -38.2794   24.1413 H   0  0  0  0  0  0
  -27.5607  -17.3839   17.0512 H   0  0  0  0  0  0
  -28.5716  -15.6888   18.4037 H   0  0  0  0  0  0
  -30.0690  -18.7340   21.0835 H   0  0  0  0  0  0
  -29.0112  -21.1054   21.6801 H   0  0  0  0  0  0
  -30.6975  -21.2182   21.2244 H   0  0  0  0  0  0
  -30.4231  -23.5906   20.6153 H   0  0  0  0  0  0
  -29.5086  -23.4761   22.0804 H   0  0  0  0  0  0
  -27.1736  -21.7265   19.6029 H   0  0  0  0  0  0
  -27.9992  -22.4885   18.2955 H   0  0  0  0  0  0
  -27.1362  -19.4405   16.3708 H   0  0  0  0  0  0
  -28.3219  -20.6522   16.7076 H   0  0  0  0  0  0
  -26.7941  -20.6074   17.6147 H   0  0  0  0  0  0
  -32.0776  -20.5641   14.7766 H   0  0  0  0  0  0
  -30.6730  -21.1970   15.5986 H   0  0  0  0  0  0
  -31.0369  -19.4802   15.6854 H   0  0  0  0  0  0
  -34.1112  -19.8150   15.9950 H   0  0  0  0  0  0
  -33.1476  -18.6667   16.9097 H   0  0  0  0  0  0
  -34.1821  -19.8121   17.7521 H   0  0  0  0  0  0
  -33.5556  -22.2793   16.0273 H   0  0  0  0  0  0
  -33.5300  -22.3478   17.7855 H   0  0  0  0  0  0
  -32.1387  -22.8882   16.8528 H   0  0  0  0  0  0
  -30.8637  -22.4440   18.7868 H   0  0  0  0  0  0
  -29.9355  -21.7073   17.5715 H   0  0  0  0  0  0
  -27.6488  -24.9559   18.6504 H   0  0  0  0  0  0
  -29.3000  -24.9927   18.9670 H   0  0  0  0  0  0
  -31.1217  -19.4509   18.1394 H   0  0  0  0  0  0
  -32.1904  -20.4159   19.1042 H   0  0  0  0  0  0
  -29.0295  -15.5870   21.3489 H   0  0  0  0  0  0
  -27.0244  -22.7101   21.4423 H   0  0  0  0  0  0
  1 25  1  0  0  0
  1 30  2  0  0  0
  1 90  1  0  0  0
  2  3  1  0  0  0
  2 25  1  0  0  0
  2 92  1  0  0  0
  2 93  1  0  0  0
  3  4  1  0  0  0
  3 94  1  0  0  0
  3 95  1  0  0  0
  4  5  1  0  0  0
  4 96  1  0  0  0
  4 97  1  0  0  0
  5  6  1  0  0  0
  5 26  1  0  0  0
  5 98  1  0  0  0
  6 25  1  0  0  0
  6 99  1  0  0  0
  6100  1  0  0  0
  7  8  2  0  0  0
  7 26  1  0  0  0
  7 29  1  0  0  0
  8  9  1  0  0  0
  8 22  1  0  0  0
  9 10  1  0  0  0
  9 27  2  0  0  0
 10 11  2  0  0  0
 10 15  1  0  0  0
 11 12  1  0  0  0
 11101  1  0  0  0
 12 13  2  0  0  0
 12102  1  0  0  0
 13 14  1  0  0  0
 13 31  1  0  0  0
 14 15  2  0  0  0
 14103  1  0  0  0
 15104  1  0  0  0
 16 17  2  0  0  0
 16 21  1  0  0  0
 16 31  1  0  0  0
 17 18  1  0  0  0
 17105  1  0  0  0
 18 19  2  0  0  0
 18106  1  0  0  0
 19 20  1  0  0  0
 19 24  1  0  0  0
 20 21  2  0  0  0
 20107  1  0  0  0
 21 23  1  0  0  0
 22 28  1  0  0  0
 22 32  2  0  0  0
 26 27  1  0  0  0
 28108  1  0  0  0
 28109  1  0  0  0
 29110  1  0  0  0
 29111  1  0  0  0
 33 34  1  0  0  0
 33 66  1  0  0  0
 33 70  2  0  0  0
 34 36  1  0  0  0
 34 59  1  0  0  0
 34112  1  0  0  0
 35 44  2  0  0  0
 35 45  1  0  0  0
 35 68  1  0  0  0
 36 56  1  0  0  0
 36113  1  0  0  0
 37 39  1  0  0  0
 37 47  1  0  0  0
 37 66  1  0  0  0
 37114  1  0  0  0
 38 43  2  0  0  0
 38 46  1  0  0  0
 38 47  1  0  0  0
 39 64  1  0  0  0
 39 67  2  0  0  0
 40 52  1  0  0  0
 40 53  2  0  0  0
 40 58  1  0  0  0
 41115  1  0  0  0
 41116  1  0  0  0
 41117  1  0  0  0
 41 48  1  0  0  0
 42 43  1  0  0  0
 42 66  1  0  0  0
 42118  1  0  0  0
 42119  1  0  0  0
 43 44  1  0  0  0
 44120  1  0  0  0
 45 46  2  0  0  0
 45121  1  0  0  0
 46122  1  0  0  0
 47123  1  0  0  0
 47124  1  0  0  0
 48 56  1  0  0  0
 48 65  1  0  0  0
 48125  1  0  0  0
 49 50  1  0  0  0
 49 53  1  0  0  0
 49 64  1  0  0  0
 49126  1  0  0  0
 50 51  1  0  0  0
 50127  1  0  0  0
 50128  1  0  0  0
 51 52  1  0  0  0
 51129  1  0  0  0
 51130  1  0  0  0
 52131  1  0  0  0
 52132  1  0  0  0
 53 54  1  0  0  0
 54 55  2  0  0  0
 54133  1  0  0  0
 55 57  1  0  0  0
 55134  1  0  0  0
 56 69  2  0  0  0
 57 58  2  0  0  0
 57135  1  0  0  0
 58136  1  0  0  0
 59 60  1  0  0  0
 59 61  1  0  0  0
 59 62  1  0  0  0
 60137  1  0  0  0
 60138  1  0  0  0
 60139  1  0  0  0
 61140  1  0  0  0
 61141  1  0  0  0
 61142  1  0  0  0
 62143  1  0  0  0
 62144  1  0  0  0
 62145  1  0  0  0
 63 65  1  0  0  0
 63146  1  0  0  0
 63147  1  0  0  0
 63148  1  0  0  0
 64149  1  0  0  0
 65150  1  0  0  0
 68 87  1  0  0  0
 71 72  2  0  0  0
 71 75  1  0  0  0
 71151  1  0  0  0
 72 76  1  0  0  0
 72152  1  0  0  0
 73 74  1  0  0  0
 73 76  2  0  0  0
 73153  1  0  0  0
 74 75  2  0  0  0
 74 80  1  0  0  0
 75 82  1  0  0  0
 76 90  1  0  0  0
 77 78  1  0  0  0
 77 80  1  0  0  0
 77154  1  0  0  0
 77155  1  0  0  0
 78 81  1  0  0  0
 78156  1  0  0  0
 78157  1  0  0  0
 79 80  1  0  0  0
 79 81  1  0  0  0
 79158  1  0  0  0
 79159  1  0  0  0
 80 86  1  0  0  0
 81 87  1  0  0  0
 81 91  1  0  0  0
 82160  1  0  0  0
 82161  1  0  0  0
 82162  1  0  0  0
 83163  1  0  0  0
 83164  1  0  0  0
 83165  1  0  0  0
 83 89  1  0  0  0
 84 89  1  0  0  0
 84166  1  0  0  0
 84167  1  0  0  0
 84168  1  0  0  0
 85 89  1  0  0  0
 85169  1  0  0  0
 85170  1  0  0  0
 85171  1  0  0  0
 86 88  1  0  0  0
 86172  1  0  0  0
 86173  1  0  0  0
 87174  1  0  0  0
 87175  1  0  0  0
 88 89  1  0  0  0
 88176  1  0  0  0
 88177  1  0  0  0
 90178  1  0  0  0
 91179  1  0  0  0
M  ISO  4   1 100  68 101  87 101  90 100
M  END
> <chiral flag>
0

> <version>
0

> <s_m_source_file>
/data/baiqing/PycharmProjects/Reinvent-master-3.2/result/LINK_invent/BTK/process_docking_weight1_custom_product_contain_oxygen_bond_distance_aromatic_linkinvent_7_9_3/rearranged_h_0142.sdf

> <i_m_source_file_index>
51

> <r_mmod_Potential_Energy-OPLS-2005>
353.375

> <r_mmod_Stretch_Energy-OPLS-2005>
148.594360351562

> <r_mmod_Bend_Energy-OPLS-2005>
237.910034179688

> <r_mmod_Torsional_Energy-OPLS-2005>
345.682495117188

> <r_mmod_Improper_Torsional_Energy-OPLS-2005>
7.55651903152466

> <r_mmod_Van_der_Waal_Energy-OPLS-2005>
144.835845947266

> <r_mmod_Electrostatic_Energy-OPLS-2005>
-413.189178466797

> <r_mmod_Solvation_Energy-OPLS-2005>
-212.288360595703

> <b_mmod_Minimization_Converged-OPLS-2005>
0

> <r_mmod_RMS_Derivative-OPLS-2005>
3.50664520263672

$$$$
51
                    3D
 Structure written by MMmdl.
155164  0  0  1  0            999 V2000
  -30.6339  -14.6693   20.4709 C   0  0  0  0  0  0
  -30.4257  -12.4016   19.4730 C   0  0  0  0  0  0
  -29.5095  -12.5124   18.2341 C   0  0  0  0  0  0
  -28.0313  -12.3531   18.6383 C   0  0  0  0  0  0
  -27.6494  -13.2291   19.8620 C   0  0  2  0  0  0
  -28.6921  -13.1154   20.9986 C   0  0  0  0  0  0
  -25.2518  -13.8208   20.5664 C   0  0  0  0  0  0
  -24.1791  -13.0450   20.9185 C   0  0  0  0  0  0
  -24.6389  -11.6928   20.8721 C   0  0  0  0  0  0
  -23.9060  -10.4303   21.0379 C   0  0  0  0  0  0
  -24.3619   -9.4227   21.9170 C   0  0  0  0  0  0
  -23.6301   -8.2247   22.0739 C   0  0  0  0  0  0
  -22.4277   -8.0269   21.3532 C   0  0  0  0  0  0
  -21.9920   -9.0250   20.4636 C   0  0  0  0  0  0
  -22.7234  -10.2135   20.3042 C   0  0  0  0  0  0
  -21.6845   -6.0734   22.5281 C   0  0  0  0  0  0
  -21.4006   -6.5640   23.8223 C   0  0  0  0  0  0
  -21.3670   -5.6779   24.9186 C   0  0  0  0  0  0
  -21.6057   -4.3047   24.7230 C   0  0  0  0  0  0
  -21.8814   -3.8137   23.4345 C   0  0  0  0  0  0
  -21.9195   -4.6957   22.3400 C   0  0  0  0  0  0
  -22.7808  -13.5215   21.1865 C   0  0  0  0  0  0
  -22.1650   -4.2138   21.0973 F   0  0  0  0  0  0
  -21.5661   -3.4537   25.7756 F   0  0  0  0  0  0
  -30.0075  -13.4466   20.4339 N   0  0  0  0  0  0
  -26.2961  -12.9414   20.3305 N   0  0  0  0  0  0
  -25.9326  -11.6556   20.5738 N   0  0  0  0  0  0
  -22.0447  -12.8213   22.0418 N   0  0  0  0  0  0
  -25.4240  -15.1927   20.4099 N   0  0  0  0  0  0
  -31.7992  -14.7817   20.0755 O   0  0  0  0  0  0
  -21.6622   -6.8874   21.4239 O   0  0  0  0  0  0
  -22.3483  -14.5518   20.6713 O   0  0  0  0  0  0
  -24.6282  -31.8600   23.2031 C   0  0  0  0  0  0
  -25.9124  -32.4778   23.8364 C   0  0  1  0  0  0
  -27.2136  -27.2978   20.1148 C   0  0  0  0  0  0
  -25.5941  -33.8583   24.2280 N   0  0  0  0  0  0
  -23.4224  -30.4862   21.5459 C   0  0  2  0  0  0
  -24.8672  -28.9442   20.1073 C   0  0  0  0  0  0
  -22.7487  -29.4627   22.4916 C   0  0  0  0  0  0
  -18.0286  -28.1393   22.8473 C   0  0  0  0  0  0
  -24.1490  -36.7282   23.2641 C   0  0  0  0  0  0
  -25.9675  -30.7815   21.3815 C   0  0  0  0  0  0
  -26.0385  -29.4106   20.7163 C   0  0  0  0  0  0
  -27.2148  -28.5994   20.7111 C   0  0  0  0  0  0
  -26.0239  -26.9047   19.4569 C   0  0  0  0  0  0
  -24.8632  -27.6972   19.4683 C   0  0  0  0  0  0
  -23.6380  -29.8273   20.1594 C   0  0  0  0  0  0
  -25.4121  -36.3085   24.0330 C   0  0  1  0  0  0
  -20.5890  -28.3701   23.1267 C   0  0  2  0  0  0
  -20.6773  -26.9419   22.5406 C   0  0  0  0  0  0
  -19.5753  -26.6382   21.5207 C   0  0  0  0  0  0
  -18.1935  -26.7933   22.1620 C   0  0  0  0  0  0
  -19.1542  -28.8863   23.2863 C   0  0  0  0  0  0
  -18.9466  -30.1462   23.8878 C   0  0  0  0  0  0
  -17.6471  -30.6591   24.0558 C   0  0  0  0  0  0
  -25.9067  -34.9453   23.5105 C   0  0  0  0  0  0
  -16.5360  -29.9091   23.6333 C   0  0  0  0  0  0
  -16.7275  -28.6516   23.0341 C   0  0  0  0  0  0
  -26.4498  -31.6604   25.0745 C   0  0  0  0  0  0
  -25.3716  -31.3757   26.1463 C   0  0  0  0  0  0
  -27.0342  -30.3019   24.6230 C   0  0  0  0  0  0
  -27.6059  -32.4346   25.7506 C   0  0  0  0  0  0
  -27.5586  -37.1798   24.8462 C   0  0  0  0  0  0
  -21.4199  -29.3052   22.3656 N   0  0  0  0  0  0
  -26.4294  -37.3785   23.9407 N   0  0  0  0  0  0
  -24.6914  -31.0595   22.0993 N   0  0  0  0  0  0
  -23.4206  -28.8165   23.2993 O   0  0  0  0  0  0
  -28.3115  -26.4157   20.1970 O   0  0  0  0  0  0
  -26.5625  -34.8922   22.4663 O   0  0  0  0  0  0
  -23.5445  -32.1411   23.7346 O   0  0  0  0  0  0
  -29.6743  -18.4150   20.8598 C   0  0  0  0  0  0
  -30.1807  -17.2862   18.8698 C   0  0  0  0  0  0
  -29.9386  -17.1243   20.2069 C   0  0  0  0  0  0
  -29.7834  -19.5415   20.0246 C   0  0  0  0  0  0
  -29.7444  -21.9501   19.0249 C   0  0  0  0  0  0
  -29.8471  -21.0987   20.2932 C   0  0  1  0  0  0
  -28.8424  -22.3335   20.1406 C   0  0  1  0  0  0
  -28.6196  -23.8641   22.1880 C   0  0  0  0  0  0
  -28.1004  -24.9606   19.9282 C   0  0  0  0  0  0
  -28.9455  -23.8301   20.6884 C   0  0  2  0  0  0
  -29.8945  -15.7816   20.8125 N   0  0  0  0  0  0
  -27.5135  -21.8571   20.0127 O   0  0  0  0  0  0
  -30.1287  -18.9664   18.3976 S   0  0  0  0  0  0
  -31.4722  -12.5000   19.1800 H   0  0  0  0  0  0
  -30.3393  -11.4114   19.9219 H   0  0  0  0  0  0
  -29.7793  -11.7614   17.4919 H   0  0  0  0  0  0
  -29.6556  -13.4813   17.7528 H   0  0  0  0  0  0
  -27.8604  -11.2997   18.8650 H   0  0  0  0  0  0
  -27.3830  -12.5895   17.7934 H   0  0  0  0  0  0
  -27.6613  -14.2611   19.5117 H   0  0  0  0  0  0
  -28.7039  -12.1057   21.4116 H   0  0  0  0  0  0
  -28.4362  -13.7799   21.8251 H   0  0  0  0  0  0
  -25.2770   -9.5718   22.4742 H   0  0  0  0  0  0
  -24.0033   -7.4630   22.7449 H   0  0  0  0  0  0
  -21.0860   -8.8748   19.8939 H   0  0  0  0  0  0
  -22.3673  -10.9669   19.6145 H   0  0  0  0  0  0
  -21.1959   -7.6141   23.9722 H   0  0  0  0  0  0
  -21.1513   -6.0504   25.9089 H   0  0  0  0  0  0
  -22.0585   -2.7594   23.2825 H   0  0  0  0  0  0
  -22.4055  -11.9886   22.4840 H   0  0  0  0  0  0
  -21.1060  -13.1242   22.2605 H   0  0  0  0  0  0
  -24.6602  -15.8508   20.5217 H   0  0  0  0  0  0
  -26.2827  -15.6302   20.0983 H   0  0  0  0  0  0
  -26.7185  -32.5431   23.1108 H   0  0  0  0  0  0
  -25.0088  -33.9725   25.0425 H   0  0  0  0  0  0
  -22.7171  -31.3079   21.4051 H   0  0  0  0  0  0
  -23.3774  -35.9596   23.3306 H   0  0  0  0  0  0
  -24.3583  -36.8900   22.2058 H   0  0  0  0  0  0
  -23.7219  -37.6474   23.6660 H   0  0  0  0  0  0
  -26.1121  -31.5484   20.6197 H   0  0  0  0  0  0
  -26.8434  -30.8194   22.0178 H   0  0  0  0  0  0
  -28.1125  -28.9529   21.1996 H   0  0  0  0  0  0
  -25.9494  -25.9657   18.9302 H   0  0  0  0  0  0
  -23.9680  -27.3378   18.9794 H   0  0  0  0  0  0
  -23.7622  -30.6067   19.4064 H   0  0  0  0  0  0
  -22.7564  -29.2619   19.8535 H   0  0  0  0  0  0
  -25.1304  -36.1945   25.0824 H   0  0  0  0  0  0
  -20.9987  -28.3280   24.1389 H   0  0  0  0  0  0
  -20.5671  -26.2315   23.3613 H   0  0  0  0  0  0
  -21.6640  -26.7440   22.1204 H   0  0  0  0  0  0
  -19.6911  -25.6290   21.1246 H   0  0  0  0  0  0
  -19.6695  -27.3173   20.6723 H   0  0  0  0  0  0
  -17.4206  -26.6668   21.4022 H   0  0  0  0  0  0
  -18.0337  -26.0082   22.9026 H   0  0  0  0  0  0
  -19.7949  -30.7265   24.2249 H   0  0  0  0  0  0
  -17.5035  -31.6271   24.5167 H   0  0  0  0  0  0
  -15.5358  -30.2993   23.7671 H   0  0  0  0  0  0
  -15.8677  -28.0839   22.7051 H   0  0  0  0  0  0
  -24.5873  -30.7135   25.7781 H   0  0  0  0  0  0
  -24.8925  -32.2927   26.4902 H   0  0  0  0  0  0
  -25.8017  -30.8912   27.0234 H   0  0  0  0  0  0
  -26.2923  -29.6769   24.1243 H   0  0  0  0  0  0
  -27.4009  -29.7289   25.4758 H   0  0  0  0  0  0
  -27.8814  -30.4299   23.9485 H   0  0  0  0  0  0
  -27.2679  -33.3658   26.2068 H   0  0  0  0  0  0
  -28.3870  -32.6893   25.0329 H   0  0  0  0  0  0
  -28.0727  -31.8480   26.5429 H   0  0  0  0  0  0
  -28.2605  -38.0103   24.7540 H   0  0  0  0  0  0
  -28.1083  -36.2631   24.6257 H   0  0  0  0  0  0
  -27.2298  -37.1412   25.8866 H   0  0  0  0  0  0
  -20.9386  -29.8788   21.6871 H   0  0  0  0  0  0
  -26.0181  -38.2860   24.1424 H   0  0  0  0  0  0
  -29.4814  -18.4769   21.9221 H   0  0  0  0  0  0
  -30.3898  -16.5353   18.1165 H   0  0  0  0  0  0
  -29.2537  -21.5588   18.1365 H   0  0  0  0  0  0
  -30.5903  -22.6013   18.8120 H   0  0  0  0  0  0
  -30.6993  -21.2936   20.9416 H   0  0  0  0  0  0
  -29.2805  -23.2052   22.7503 H   0  0  0  0  0  0
  -27.5942  -23.5443   22.3764 H   0  0  0  0  0  0
  -28.7310  -24.8701   22.5931 H   0  0  0  0  0  0
  -27.0680  -24.6961   20.1520 H   0  0  0  0  0  0
  -28.2261  -24.8206   18.8538 H   0  0  0  0  0  0
  -29.9947  -24.1149   20.5906 H   0  0  0  0  0  0
  -29.0830  -15.5935   21.3834 H   0  0  0  0  0  0
  -27.1832  -22.1122   19.1573 H   0  0  0  0  0  0
  1 25  1  0  0  0
  1 30  2  0  0  0
  1 81  1  0  0  0
  2  3  1  0  0  0
  2 25  1  0  0  0
  2 84  1  0  0  0
  2 85  1  0  0  0
  3  4  1  0  0  0
  3 86  1  0  0  0
  3 87  1  0  0  0
  4  5  1  0  0  0
  4 88  1  0  0  0
  4 89  1  0  0  0
  5  6  1  0  0  0
  5 26  1  0  0  0
  5 90  1  0  0  0
  6 25  1  0  0  0
  6 91  1  0  0  0
  6 92  1  0  0  0
  7  8  2  0  0  0
  7 26  1  0  0  0
  7 29  1  0  0  0
  8  9  1  0  0  0
  8 22  1  0  0  0
  9 10  1  0  0  0
  9 27  2  0  0  0
 10 11  2  0  0  0
 10 15  1  0  0  0
 11 12  1  0  0  0
 11 93  1  0  0  0
 12 13  2  0  0  0
 12 94  1  0  0  0
 13 14  1  0  0  0
 13 31  1  0  0  0
 14 15  2  0  0  0
 14 95  1  0  0  0
 15 96  1  0  0  0
 16 17  2  0  0  0
 16 21  1  0  0  0
 16 31  1  0  0  0
 17 18  1  0  0  0
 17 97  1  0  0  0
 18 19  2  0  0  0
 18 98  1  0  0  0
 19 20  1  0  0  0
 19 24  1  0  0  0
 20 21  2  0  0  0
 20 99  1  0  0  0
 21 23  1  0  0  0
 22 28  1  0  0  0
 22 32  2  0  0  0
 26 27  1  0  0  0
 28100  1  0  0  0
 28101  1  0  0  0
 29102  1  0  0  0
 29103  1  0  0  0
 33 34  1  0  0  0
 33 66  1  0  0  0
 33 70  2  0  0  0
 34 36  1  0  0  0
 34 59  1  0  0  0
 34104  1  0  0  0
 35 44  2  0  0  0
 35 45  1  0  0  0
 35 68  1  0  0  0
 36 56  1  0  0  0
 36105  1  0  0  0
 37 39  1  0  0  0
 37 47  1  0  0  0
 37 66  1  0  0  0
 37106  1  0  0  0
 38 43  2  0  0  0
 38 46  1  0  0  0
 38 47  1  0  0  0
 39 64  1  0  0  0
 39 67  2  0  0  0
 40 52  1  0  0  0
 40 53  2  0  0  0
 40 58  1  0  0  0
 41107  1  0  0  0
 41108  1  0  0  0
 41109  1  0  0  0
 41 48  1  0  0  0
 42 43  1  0  0  0
 42 66  1  0  0  0
 42110  1  0  0  0
 42111  1  0  0  0
 43 44  1  0  0  0
 44112  1  0  0  0
 45 46  2  0  0  0
 45113  1  0  0  0
 46114  1  0  0  0
 47115  1  0  0  0
 47116  1  0  0  0
 48 56  1  0  0  0
 48 65  1  0  0  0
 48117  1  0  0  0
 49 50  1  0  0  0
 49 53  1  0  0  0
 49 64  1  0  0  0
 49118  1  0  0  0
 50 51  1  0  0  0
 50119  1  0  0  0
 50120  1  0  0  0
 51 52  1  0  0  0
 51121  1  0  0  0
 51122  1  0  0  0
 52123  1  0  0  0
 52124  1  0  0  0
 53 54  1  0  0  0
 54 55  2  0  0  0
 54125  1  0  0  0
 55 57  1  0  0  0
 55126  1  0  0  0
 56 69  2  0  0  0
 57 58  2  0  0  0
 57127  1  0  0  0
 58128  1  0  0  0
 59 60  1  0  0  0
 59 61  1  0  0  0
 59 62  1  0  0  0
 60129  1  0  0  0
 60130  1  0  0  0
 60131  1  0  0  0
 61132  1  0  0  0
 61133  1  0  0  0
 61134  1  0  0  0
 62135  1  0  0  0
 62136  1  0  0  0
 62137  1  0  0  0
 63 65  1  0  0  0
 63138  1  0  0  0
 63139  1  0  0  0
 63140  1  0  0  0
 64141  1  0  0  0
 65142  1  0  0  0
 68 79  1  0  0  0
 71 73  1  0  0  0
 71 74  2  0  0  0
 71143  1  0  0  0
 72 73  2  0  0  0
 72 83  1  0  0  0
 72144  1  0  0  0
 73 81  1  0  0  0
 74 83  1  0  0  0
 74 76  1  0  0  0
 75 76  1  0  0  0
 75 77  1  0  0  0
 75145  1  0  0  0
 75146  1  0  0  0
 76 77  1  0  0  0
 76147  1  0  0  0
 77 80  1  0  0  0
 77 82  1  0  0  0
 78148  1  0  0  0
 78149  1  0  0  0
 78150  1  0  0  0
 78 80  1  0  0  0
 79 80  1  0  0  0
 79151  1  0  0  0
 79152  1  0  0  0
 80153  1  0  0  0
 81154  1  0  0  0
 82155  1  0  0  0
M  ISO  4   1 100  68 101  79 101  81 100
M  END
> <chiral flag>
0

> <version>
0

> <s_m_source_file>
/data/baiqing/PycharmProjects/Reinvent-master-3.2/result/LINK_invent/BTK/process_docking_weight1_custom_product_contain_oxygen_bond_distance_aromatic_linkinvent_7_9_3/rearranged_h_0142.sdf

> <i_m_source_file_index>
52

> <r_mmod_Potential_Energy-OPLS-2005>
153.025512695312

> <r_mmod_Stretch_Energy-OPLS-2005>
103.251579284668

> <r_mmod_Bend_Energy-OPLS-2005>
169.93537902832

> <r_mmod_Torsional_Energy-OPLS-2005>
270.686584472656

> <r_mmod_Improper_Torsional_Energy-OPLS-2005>
5.24153566360474

> <r_mmod_Van_der_Waal_Energy-OPLS-2005>
124.977714538574

> <r_mmod_Electrostatic_Energy-OPLS-2005>
-357.881164550781

> <r_mmod_Solvation_Energy-OPLS-2005>
-224.255828857422

> <b_mmod_Minimization_Converged-OPLS-2005>
0

> <r_mmod_RMS_Derivative-OPLS-2005>
2.74438428878784

$$$$
52
                    3D
 Structure written by MMmdl.
154163  0  0  1  0            999 V2000
  -30.5784  -14.7352   20.4921 C   0  0  0  0  0  0
  -30.4449  -12.4520   19.4774 C   0  0  0  0  0  0
  -29.5202  -12.5217   18.2407 C   0  0  0  0  0  0
  -28.0436  -12.3403   18.6480 C   0  0  0  0  0  0
  -27.6490  -13.2239   19.8615 C   0  0  2  0  0  0
  -28.6893  -13.1187   20.9986 C   0  0  0  0  0  0
  -25.2531  -13.8176   20.5667 C   0  0  0  0  0  0
  -24.1815  -13.0432   20.9190 C   0  0  0  0  0  0
  -24.6396  -11.6904   20.8731 C   0  0  0  0  0  0
  -23.9071  -10.4289   21.0400 C   0  0  0  0  0  0
  -24.3618   -9.4207   21.9177 C   0  0  0  0  0  0
  -23.6289   -8.2241   22.0753 C   0  0  0  0  0  0
  -22.4277   -8.0280   21.3549 C   0  0  0  0  0  0
  -21.9916   -9.0252   20.4647 C   0  0  0  0  0  0
  -22.7240  -10.2128   20.3048 C   0  0  0  0  0  0
  -21.6856   -6.0731   22.5273 C   0  0  0  0  0  0
  -21.4017   -6.5633   23.8210 C   0  0  0  0  0  0
  -21.3660   -5.6791   24.9170 C   0  0  0  0  0  0
  -21.6043   -4.3047   24.7220 C   0  0  0  0  0  0
  -21.8820   -3.8144   23.4342 C   0  0  0  0  0  0
  -21.9192   -4.6966   22.3396 C   0  0  0  0  0  0
  -22.7833  -13.5216   21.1862 C   0  0  0  0  0  0
  -22.1660   -4.2147   21.0974 F   0  0  0  0  0  0
  -21.5634   -3.4532   25.7735 F   0  0  0  0  0  0
  -29.9955  -13.4886   20.4339 N   0  0  0  0  0  0
  -26.2965  -12.9361   20.3297 N   0  0  0  0  0  0
  -25.9331  -11.6513   20.5745 N   0  0  0  0  0  0
  -22.0484  -12.8199   22.0416 N   0  0  0  0  0  0
  -25.4209  -15.1893   20.4048 N   0  0  0  0  0  0
  -31.7480  -14.8913   20.1249 O   0  0  0  0  0  0
  -21.6646   -6.8873   21.4238 O   0  0  0  0  0  0
  -22.3517  -14.5530   20.6713 O   0  0  0  0  0  0
  -24.6303  -31.8552   23.1970 C   0  0  0  0  0  0
  -25.9112  -32.4774   23.8330 C   0  0  1  0  0  0
  -27.2328  -27.2761   20.1395 C   0  0  0  0  0  0
  -25.5906  -33.8564   24.2266 N   0  0  0  0  0  0
  -23.4291  -30.4736   21.5398 C   0  0  2  0  0  0
  -24.8804  -28.9190   20.1151 C   0  0  0  0  0  0
  -22.7518  -29.4568   22.4904 C   0  0  0  0  0  0
  -18.0295  -28.1394   22.8490 C   0  0  0  0  0  0
  -24.1465  -36.7268   23.2613 C   0  0  0  0  0  0
  -25.9714  -30.7761   21.3714 C   0  0  0  0  0  0
  -26.0506  -29.3962   20.7202 C   0  0  0  0  0  0
  -27.2335  -28.5885   20.7170 C   0  0  0  0  0  0
  -26.0440  -26.8638   19.5018 C   0  0  0  0  0  0
  -24.8815  -27.6610   19.4922 C   0  0  0  0  0  0
  -23.6487  -29.8032   20.1583 C   0  0  0  0  0  0
  -25.4083  -36.3070   24.0333 C   0  0  1  0  0  0
  -20.5911  -28.3674   23.1283 C   0  0  2  0  0  0
  -20.6769  -26.9389   22.5410 C   0  0  0  0  0  0
  -19.5738  -26.6383   21.5211 C   0  0  0  0  0  0
  -18.1924  -26.7932   22.1632 C   0  0  0  0  0  0
  -19.1555  -28.8849   23.2878 C   0  0  0  0  0  0
  -18.9468  -30.1463   23.8888 C   0  0  0  0  0  0
  -17.6469  -30.6594   24.0571 C   0  0  0  0  0  0
  -25.9052  -34.9444   23.5106 C   0  0  0  0  0  0
  -16.5357  -29.9092   23.6357 C   0  0  0  0  0  0
  -16.7284  -28.6508   23.0377 C   0  0  0  0  0  0
  -26.4479  -31.6597   25.0715 C   0  0  0  0  0  0
  -25.3703  -31.3766   26.1446 C   0  0  0  0  0  0
  -27.0320  -30.3021   24.6153 C   0  0  0  0  0  0
  -27.6034  -32.4328   25.7492 C   0  0  0  0  0  0
  -27.5612  -37.1717   24.8403 C   0  0  0  0  0  0
  -21.4222  -29.3021   22.3665 N   0  0  0  0  0  0
  -26.4223  -37.3816   23.9496 N   0  0  0  0  0  0
  -24.6955  -31.0525   22.0936 N   0  0  0  0  0  0
  -23.4221  -28.8099   23.2985 O   0  0  0  0  0  0
  -28.3257  -26.3829   20.1599 O   0  0  0  0  0  0
  -26.5623  -34.8922   22.4673 O   0  0  0  0  0  0
  -23.5445  -32.1350   23.7281 O   0  0  0  0  0  0
  -30.4927  -19.4826   20.2855 C   0  0  0  0  0  0
  -30.8135  -18.0564   20.2656 C   0  0  0  0  0  0
  -29.2293  -19.8290   20.7344 C   0  0  0  0  0  0
  -29.8226  -17.1939   20.6981 C   0  0  0  0  0  0
  -27.4510  -21.1821   21.5849 C   0  0  0  0  0  0
  -28.9145  -23.7537   20.2284 C   0  0  0  0  0  0
  -27.4842  -22.2510   22.6731 C   0  0  0  0  0  0
  -28.9464  -22.6921   22.6337 C   0  0  0  0  0  0
  -29.2983  -22.4512   21.1601 C   0  0  1  0  0  0
  -28.0816  -25.0262   20.7586 C   0  0  0  0  0  0
  -28.6223  -21.1013   20.9150 N   0  0  0  0  0  0
  -29.7445  -15.7946   20.8152 N   0  0  0  0  0  0
  -26.4314  -20.5278   21.3574 O   0  0  0  0  0  0
  -29.2804  -23.7766   19.0508 O   0  0  0  0  0  0
  -28.4560  -18.2494   21.1325 S   0  0  0  0  0  0
  -31.4864  -12.5902   19.1820 H   0  0  0  0  0  0
  -30.3942  -11.4655   19.9403 H   0  0  0  0  0  0
  -29.8053  -11.7627   17.5115 H   0  0  0  0  0  0
  -29.6460  -13.4856   17.7447 H   0  0  0  0  0  0
  -27.8971  -11.2879   18.8948 H   0  0  0  0  0  0
  -27.3889  -12.5465   17.8010 H   0  0  0  0  0  0
  -27.6532  -14.2535   19.5021 H   0  0  0  0  0  0
  -28.7229  -12.1056   21.4023 H   0  0  0  0  0  0
  -28.4169  -13.7629   21.8354 H   0  0  0  0  0  0
  -25.2763   -9.5676   22.4748 H   0  0  0  0  0  0
  -23.9999   -7.4632   22.7473 H   0  0  0  0  0  0
  -21.0849   -8.8761   19.8947 H   0  0  0  0  0  0
  -22.3697  -10.9663   19.6150 H   0  0  0  0  0  0
  -21.2011   -7.6141   23.9704 H   0  0  0  0  0  0
  -21.1487   -6.0522   25.9071 H   0  0  0  0  0  0
  -22.0599   -2.7608   23.2837 H   0  0  0  0  0  0
  -22.4113  -11.9849   22.4779 H   0  0  0  0  0  0
  -21.1100  -13.1210   22.2637 H   0  0  0  0  0  0
  -24.6428  -15.8341   20.4945 H   0  0  0  0  0  0
  -26.2579  -15.6289   20.0437 H   0  0  0  0  0  0
  -26.7168  -32.5444   23.1072 H   0  0  0  0  0  0
  -25.0072  -33.9711   25.0422 H   0  0  0  0  0  0
  -22.7255  -31.2953   21.3930 H   0  0  0  0  0  0
  -23.3782  -35.9534   23.3150 H   0  0  0  0  0  0
  -24.3593  -36.9032   22.2051 H   0  0  0  0  0  0
  -23.7120  -37.6387   23.6715 H   0  0  0  0  0  0
  -26.1008  -31.5334   20.5966 H   0  0  0  0  0  0
  -26.8526  -30.8357   21.9993 H   0  0  0  0  0  0
  -28.1319  -28.9528   21.1939 H   0  0  0  0  0  0
  -26.0076  -25.9003   19.0140 H   0  0  0  0  0  0
  -23.9882  -27.2959   19.0060 H   0  0  0  0  0  0
  -23.7730  -30.5784   19.4011 H   0  0  0  0  0  0
  -22.7701  -29.2322   19.8557 H   0  0  0  0  0  0
  -25.1236  -36.1874   25.0815 H   0  0  0  0  0  0
  -21.0016  -28.3224   24.1397 H   0  0  0  0  0  0
  -20.5642  -26.2273   23.3605 H   0  0  0  0  0  0
  -21.6633  -26.7395   22.1208 H   0  0  0  0  0  0
  -19.6871  -25.6299   21.1232 H   0  0  0  0  0  0
  -19.6678  -27.3203   20.6747 H   0  0  0  0  0  0
  -17.4194  -26.6711   21.4028 H   0  0  0  0  0  0
  -18.0311  -26.0090   22.9034 H   0  0  0  0  0  0
  -19.7935  -30.7302   24.2232 H   0  0  0  0  0  0
  -17.5013  -31.6282   24.5166 H   0  0  0  0  0  0
  -15.5351  -30.2989   23.7673 H   0  0  0  0  0  0
  -15.8690  -28.0819   22.7099 H   0  0  0  0  0  0
  -24.5887  -30.7086   25.7802 H   0  0  0  0  0  0
  -24.8860  -32.2942   26.4793 H   0  0  0  0  0  0
  -25.8028  -30.9020   27.0262 H   0  0  0  0  0  0
  -26.2896  -29.6794   24.1138 H   0  0  0  0  0  0
  -27.3988  -29.7254   25.4649 H   0  0  0  0  0  0
  -27.8779  -30.4331   23.9407 H   0  0  0  0  0  0
  -27.2636  -33.3611   26.2088 H   0  0  0  0  0  0
  -28.3839  -32.6916   25.0331 H   0  0  0  0  0  0
  -28.0695  -31.8433   26.5400 H   0  0  0  0  0  0
  -28.2405  -38.0232   24.7855 H   0  0  0  0  0  0
  -28.1345  -36.2823   24.5725 H   0  0  0  0  0  0
  -27.2419  -37.0747   25.8796 H   0  0  0  0  0  0
  -20.9383  -29.8766   21.6908 H   0  0  0  0  0  0
  -26.0088  -38.2821   24.1764 H   0  0  0  0  0  0
  -31.2264  -20.2062   19.9615 H   0  0  0  0  0  0
  -31.7822  -17.7212   19.9237 H   0  0  0  0  0  0
  -27.2077  -21.8389   23.6438 H   0  0  0  0  0  0
  -26.7958  -23.0586   22.4274 H   0  0  0  0  0  0
  -29.5463  -22.0420   23.2742 H   0  0  0  0  0  0
  -29.1140  -23.7069   22.9917 H   0  0  0  0  0  0
  -30.3784  -22.3155   21.0834 H   0  0  0  0  0  0
  -28.2348  -25.1433   21.8280 H   0  0  0  0  0  0
  -27.0320  -24.7638   20.6420 H   0  0  0  0  0  0
  -28.8413  -15.4685   21.1247 H   0  0  0  0  0  0
  1 25  1  0  0  0
  1 30  2  0  0  0
  1 82  1  0  0  0
  2  3  1  0  0  0
  2 25  1  0  0  0
  2 86  1  0  0  0
  2 87  1  0  0  0
  3  4  1  0  0  0
  3 88  1  0  0  0
  3 89  1  0  0  0
  4  5  1  0  0  0
  4 90  1  0  0  0
  4 91  1  0  0  0
  5  6  1  0  0  0
  5 26  1  0  0  0
  5 92  1  0  0  0
  6 25  1  0  0  0
  6 93  1  0  0  0
  6 94  1  0  0  0
  7  8  2  0  0  0
  7 26  1  0  0  0
  7 29  1  0  0  0
  8  9  1  0  0  0
  8 22  1  0  0  0
  9 10  1  0  0  0
  9 27  2  0  0  0
 10 11  2  0  0  0
 10 15  1  0  0  0
 11 12  1  0  0  0
 11 95  1  0  0  0
 12 13  2  0  0  0
 12 96  1  0  0  0
 13 14  1  0  0  0
 13 31  1  0  0  0
 14 15  2  0  0  0
 14 97  1  0  0  0
 15 98  1  0  0  0
 16 17  2  0  0  0
 16 21  1  0  0  0
 16 31  1  0  0  0
 17 18  1  0  0  0
 17 99  1  0  0  0
 18 19  2  0  0  0
 18100  1  0  0  0
 19 20  1  0  0  0
 19 24  1  0  0  0
 20 21  2  0  0  0
 20101  1  0  0  0
 21 23  1  0  0  0
 22 28  1  0  0  0
 22 32  2  0  0  0
 26 27  1  0  0  0
 28102  1  0  0  0
 28103  1  0  0  0
 29104  1  0  0  0
 29105  1  0  0  0
 33 34  1  0  0  0
 33 66  1  0  0  0
 33 70  2  0  0  0
 34 36  1  0  0  0
 34 59  1  0  0  0
 34106  1  0  0  0
 35 44  2  0  0  0
 35 45  1  0  0  0
 35 68  1  0  0  0
 36 56  1  0  0  0
 36107  1  0  0  0
 37 39  1  0  0  0
 37 47  1  0  0  0
 37 66  1  0  0  0
 37108  1  0  0  0
 38 43  2  0  0  0
 38 46  1  0  0  0
 38 47  1  0  0  0
 39 64  1  0  0  0
 39 67  2  0  0  0
 40 52  1  0  0  0
 40 53  2  0  0  0
 40 58  1  0  0  0
 41109  1  0  0  0
 41110  1  0  0  0
 41111  1  0  0  0
 41 48  1  0  0  0
 42 43  1  0  0  0
 42 66  1  0  0  0
 42112  1  0  0  0
 42113  1  0  0  0
 43 44  1  0  0  0
 44114  1  0  0  0
 45 46  2  0  0  0
 45115  1  0  0  0
 46116  1  0  0  0
 47117  1  0  0  0
 47118  1  0  0  0
 48 56  1  0  0  0
 48 65  1  0  0  0
 48119  1  0  0  0
 49 50  1  0  0  0
 49 53  1  0  0  0
 49 64  1  0  0  0
 49120  1  0  0  0
 50 51  1  0  0  0
 50121  1  0  0  0
 50122  1  0  0  0
 51 52  1  0  0  0
 51123  1  0  0  0
 51124  1  0  0  0
 52125  1  0  0  0
 52126  1  0  0  0
 53 54  1  0  0  0
 54 55  2  0  0  0
 54127  1  0  0  0
 55 57  1  0  0  0
 55128  1  0  0  0
 56 69  2  0  0  0
 57 58  2  0  0  0
 57129  1  0  0  0
 58130  1  0  0  0
 59 60  1  0  0  0
 59 61  1  0  0  0
 59 62  1  0  0  0
 60131  1  0  0  0
 60132  1  0  0  0
 60133  1  0  0  0
 61134  1  0  0  0
 61135  1  0  0  0
 61136  1  0  0  0
 62137  1  0  0  0
 62138  1  0  0  0
 62139  1  0  0  0
 63 65  1  0  0  0
 63140  1  0  0  0
 63141  1  0  0  0
 63142  1  0  0  0
 64143  1  0  0  0
 65144  1  0  0  0
 68 80  1  0  0  0
 71 72  1  0  0  0
 71 73  2  0  0  0
 71145  1  0  0  0
 72 74  2  0  0  0
 72146  1  0  0  0
 73 81  1  0  0  0
 73 85  1  0  0  0
 74 82  1  0  0  0
 74 85  1  0  0  0
 75 77  1  0  0  0
 75 81  1  0  0  0
 75 83  2  0  0  0
 76 80  1  0  0  0
 76 84  2  0  0  0
 76 79  1  0  0  0
 77 78  1  0  0  0
 77147  1  0  0  0
 77148  1  0  0  0
 78 79  1  0  0  0
 78149  1  0  0  0
 78150  1  0  0  0
 79 81  1  0  0  0
 79151  1  0  0  0
 80152  1  0  0  0
 80153  1  0  0  0
 82154  1  0  0  0
M  ISO  4   1 100  68 101  80 101  82 100
M  END
> <chiral flag>
0

> <version>
0

> <s_m_source_file>
/data/baiqing/PycharmProjects/Reinvent-master-3.2/result/LINK_invent/BTK/process_docking_weight1_custom_product_contain_oxygen_bond_distance_aromatic_linkinvent_7_9_3/rearranged_h_0142.sdf

> <i_m_source_file_index>
53

> <r_mmod_Potential_Energy-OPLS-2005>
245.67610168457

> <r_mmod_Stretch_Energy-OPLS-2005>
123.21361541748

> <r_mmod_Bend_Energy-OPLS-2005>
220.54508972168

> <r_mmod_Torsional_Energy-OPLS-2005>
296.950805664062

> <r_mmod_Improper_Torsional_Energy-OPLS-2005>
6.0009560585022

> <r_mmod_Van_der_Waal_Energy-OPLS-2005>
121.878616333008

> <r_mmod_Electrostatic_Energy-OPLS-2005>
-361.977722167969

> <r_mmod_Solvation_Energy-OPLS-2005>
-239.510650634766

> <b_mmod_Minimization_Converged-OPLS-2005>
0

> <r_mmod_RMS_Derivative-OPLS-2005>
2.47356176376343

$$$$
53
                    3D
 Structure written by MMmdl.
158167  0  0  1  0            999 V2000
  -30.6544  -14.5044   20.5784 C   0  0  0  0  0  0
  -30.4404  -12.3295   19.4141 C   0  0  0  0  0  0
  -29.4995  -12.5127   18.2030 C   0  0  0  0  0  0
  -28.0195  -12.3639   18.6151 C   0  0  0  0  0  0
  -27.6623  -13.1974   19.8739 C   0  0  2  0  0  0
  -28.7059  -12.9596   20.9892 C   0  0  0  0  0  0
  -25.2599  -13.8131   20.5658 C   0  0  0  0  0  0
  -24.1848  -13.0428   20.9191 C   0  0  0  0  0  0
  -24.6388  -11.6890   20.8741 C   0  0  0  0  0  0
  -23.9051  -10.4284   21.0412 C   0  0  0  0  0  0
  -24.3606   -9.4199   21.9189 C   0  0  0  0  0  0
  -23.6283   -8.2234   22.0752 C   0  0  0  0  0  0
  -22.4264   -8.0278   21.3543 C   0  0  0  0  0  0
  -21.9901   -9.0251   20.4647 C   0  0  0  0  0  0
  -22.7226  -10.2130   20.3059 C   0  0  0  0  0  0
  -21.6852   -6.0731   22.5280 C   0  0  0  0  0  0
  -21.4011   -6.5637   23.8212 C   0  0  0  0  0  0
  -21.3658   -5.6790   24.9176 C   0  0  0  0  0  0
  -21.6045   -4.3052   24.7227 C   0  0  0  0  0  0
  -21.8820   -3.8144   23.4349 C   0  0  0  0  0  0
  -21.9190   -4.6959   22.3404 C   0  0  0  0  0  0
  -22.7872  -13.5238   21.1855 C   0  0  0  0  0  0
  -22.1662   -4.2145   21.0980 F   0  0  0  0  0  0
  -21.5629   -3.4537   25.7741 F   0  0  0  0  0  0
  -30.0341  -13.2979   20.4432 N   0  0  0  0  0  0
  -26.3022  -12.9279   20.3337 N   0  0  0  0  0  0
  -25.9309  -11.6454   20.5753 N   0  0  0  0  0  0
  -22.0499  -12.8235   22.0405 N   0  0  0  0  0  0
  -25.4327  -15.1844   20.4009 N   0  0  0  0  0  0
  -31.7896  -14.7293   20.1445 O   0  0  0  0  0  0
  -21.6631   -6.8873   21.4240 O   0  0  0  0  0  0
  -22.3568  -14.5547   20.6701 O   0  0  0  0  0  0
  -24.6153  -31.8673   23.2087 C   0  0  0  0  0  0
  -25.9042  -32.4822   23.8399 C   0  0  1  0  0  0
  -27.2385  -27.4231   20.1072 C   0  0  0  0  0  0
  -25.5882  -33.8619   24.2329 N   0  0  0  0  0  0
  -23.4061  -30.4889   21.5497 C   0  0  2  0  0  0
  -24.8559  -28.9485   20.1227 C   0  0  0  0  0  0
  -22.7427  -29.4649   22.4989 C   0  0  0  0  0  0
  -18.0272  -28.1386   22.8499 C   0  0  0  0  0  0
  -24.1481  -36.7319   23.2635 C   0  0  0  0  0  0
  -25.9355  -30.8288   21.3649 C   0  0  0  0  0  0
  -26.0164  -29.4581   20.7217 C   0  0  0  0  0  0
  -27.2138  -28.7020   20.7145 C   0  0  0  0  0  0
  -26.0650  -26.9287   19.5067 C   0  0  0  0  0  0
  -24.8747  -27.6812   19.5137 C   0  0  0  0  0  0
  -23.6182  -29.8175   20.1665 C   0  0  0  0  0  0
  -25.4103  -36.3115   24.0335 C   0  0  1  0  0  0
  -20.5870  -28.3672   23.1317 C   0  0  2  0  0  0
  -20.6757  -26.9407   22.5419 C   0  0  0  0  0  0
  -19.5734  -26.6394   21.5217 C   0  0  0  0  0  0
  -18.1917  -26.7935   22.1629 C   0  0  0  0  0  0
  -19.1526  -28.8849   23.2905 C   0  0  0  0  0  0
  -18.9448  -30.1453   23.8921 C   0  0  0  0  0  0
  -17.6448  -30.6587   24.0576 C   0  0  0  0  0  0
  -25.9030  -34.9476   23.5134 C   0  0  0  0  0  0
  -16.5341  -29.9092   23.6324 C   0  0  0  0  0  0
  -16.7262  -28.6509   23.0348 C   0  0  0  0  0  0
  -26.4468  -31.6596   25.0724 C   0  0  0  0  0  0
  -25.3736  -31.3698   26.1474 C   0  0  0  0  0  0
  -27.0292  -30.3035   24.6096 C   0  0  0  0  0  0
  -27.6056  -32.4303   25.7482 C   0  0  0  0  0  0
  -27.5582  -37.1809   24.8462 C   0  0  0  0  0  0
  -21.4153  -29.3033   22.3726 N   0  0  0  0  0  0
  -26.4293  -37.3797   23.9409 N   0  0  0  0  0  0
  -24.6706  -31.0764   22.0993 N   0  0  0  0  0  0
  -23.4198  -28.8187   23.3031 O   0  0  0  0  0  0
  -28.3809  -26.6577   20.0272 O   0  0  0  0  0  0
  -26.5606  -34.8925   22.4703 O   0  0  0  0  0  0
  -23.5339  -32.1429   23.7462 O   0  0  0  0  0  0
  -31.2072  -18.9386   21.7367 C   0  0  0  0  0  0
  -28.8453  -19.0745   21.1921 C   0  0  0  0  0  0
  -31.1947  -17.5411   21.4953 C   0  0  0  0  0  0
  -28.8265  -17.6765   20.9752 C   0  0  0  0  0  0
  -30.0276  -19.7185   21.6174 C   0  0  0  0  0  0
  -29.9896  -16.8870   21.1445 C   0  0  0  0  0  0
  -28.9500  -24.4804   20.9124 C   0  0  0  0  0  0
  -28.6490  -25.7935   21.0642 C   0  0  0  0  0  0
  -29.9958  -21.1182   22.1112 C   0  0  0  0  0  0
  -28.9257  -23.6937   19.6211 C   0  0  0  0  0  0
  -29.3608  -23.5552   22.0435 C   0  0  0  0  0  0
  -29.1310  -22.2148   20.0134 C   0  0  0  0  0  0
  -29.5236  -22.2059   21.4371 N   0  0  0  0  0  0
  -29.8476  -15.4652   21.0767 N   0  0  0  0  0  0
  -30.4521  -21.3101   23.3464 N   0  3  0  0  0  0
  -31.4803  -12.4622   19.1096 H   0  0  0  0  0  0
  -30.3708  -11.3133   19.8059 H   0  0  0  0  0  0
  -29.7439  -11.7898   17.4236 H   0  0  0  0  0  0
  -29.6574  -13.4988   17.7635 H   0  0  0  0  0  0
  -27.8323  -11.3065   18.8068 H   0  0  0  0  0  0
  -27.3689  -12.6405   17.7848 H   0  0  0  0  0  0
  -27.7084  -14.2460   19.5809 H   0  0  0  0  0  0
  -28.6946  -11.9128   21.2970 H   0  0  0  0  0  0
  -28.4597  -13.5227   21.8908 H   0  0  0  0  0  0
  -25.2755   -9.5674   22.4760 H   0  0  0  0  0  0
  -23.9996   -7.4623   22.7468 H   0  0  0  0  0  0
  -21.0832   -8.8772   19.8952 H   0  0  0  0  0  0
  -22.3692  -10.9671   19.6166 H   0  0  0  0  0  0
  -21.2002   -7.6145   23.9717 H   0  0  0  0  0  0
  -21.1480   -6.0518   25.9078 H   0  0  0  0  0  0
  -22.0601   -2.7606   23.2851 H   0  0  0  0  0  0
  -22.4099  -11.9888   22.4791 H   0  0  0  0  0  0
  -21.1121  -13.1269   22.2604 H   0  0  0  0  0  0
  -24.6558  -15.8314   20.4825 H   0  0  0  0  0  0
  -26.2531  -15.6049   19.9857 H   0  0  0  0  0  0
  -26.7121  -32.5554   23.1174 H   0  0  0  0  0  0
  -25.0028  -33.9785   25.0470 H   0  0  0  0  0  0
  -22.6948  -31.3051   21.4079 H   0  0  0  0  0  0
  -23.3739  -35.9657   23.3310 H   0  0  0  0  0  0
  -24.3578  -36.8925   22.2048 H   0  0  0  0  0  0
  -23.7229  -37.6525   23.6645 H   0  0  0  0  0  0
  -26.0447  -31.5886   20.5897 H   0  0  0  0  0  0
  -26.8236  -30.8905   21.9821 H   0  0  0  0  0  0
  -28.1143  -29.0935   21.1667 H   0  0  0  0  0  0
  -26.0788  -25.9578   19.0312 H   0  0  0  0  0  0
  -23.9845  -27.2840   19.0460 H   0  0  0  0  0  0
  -23.7300  -30.5911   19.4059 H   0  0  0  0  0  0
  -22.7425  -29.2378   19.8687 H   0  0  0  0  0  0
  -25.1269  -36.1989   25.0826 H   0  0  0  0  0  0
  -20.9963  -28.3234   24.1437 H   0  0  0  0  0  0
  -20.5656  -26.2275   23.3604 H   0  0  0  0  0  0
  -21.6625  -26.7442   22.1214 H   0  0  0  0  0  0
  -19.6888  -25.6314   21.1220 H   0  0  0  0  0  0
  -19.6666  -27.3227   20.6768 H   0  0  0  0  0  0
  -17.4180  -26.6693   21.4033 H   0  0  0  0  0  0
  -18.0315  -26.0074   22.9017 H   0  0  0  0  0  0
  -19.7924  -30.7266   24.2301 H   0  0  0  0  0  0
  -17.4997  -31.6267   24.5174 H   0  0  0  0  0  0
  -15.5340  -30.2993   23.7635 H   0  0  0  0  0  0
  -15.8664  -28.0828   22.7052 H   0  0  0  0  0  0
  -24.5914  -30.7035   25.7817 H   0  0  0  0  0  0
  -24.8917  -32.2847   26.4932 H   0  0  0  0  0  0
  -25.8088  -30.8867   27.0233 H   0  0  0  0  0  0
  -26.2834  -29.6807   24.1138 H   0  0  0  0  0  0
  -27.4046  -29.7254   25.4551 H   0  0  0  0  0  0
  -27.8679  -30.4347   23.9255 H   0  0  0  0  0  0
  -27.2697  -33.3601   26.2090 H   0  0  0  0  0  0
  -28.3857  -32.6863   25.0299 H   0  0  0  0  0  0
  -28.0740  -31.8402   26.5373 H   0  0  0  0  0  0
  -28.2601  -38.0108   24.7528 H   0  0  0  0  0  0
  -28.1075  -36.2637   24.6264 H   0  0  0  0  0  0
  -27.2307  -37.1448   25.8869 H   0  0  0  0  0  0
  -20.9311  -29.8770   21.6961 H   0  0  0  0  0  0
  -26.0184  -38.2873   24.1418 H   0  0  0  0  0  0
  -32.1247  -19.4040   22.0715 H   0  0  0  0  0  0
  -27.9232  -19.6341   21.1146 H   0  0  0  0  0  0
  -32.1006  -16.9709   21.6479 H   0  0  0  0  0  0
  -27.8878  -17.2080   20.7169 H   0  0  0  0  0  0
  -28.6690  -26.2994   22.0198 H   0  0  0  0  0  0
  -29.7259  -24.0361   18.9644 H   0  0  0  0  0  0
  -27.9771  -23.8413   19.1039 H   0  0  0  0  0  0
  -28.5938  -23.5463   22.8202 H   0  0  0  0  0  0
  -30.2957  -23.9102   22.4807 H   0  0  0  0  0  0
  -29.8943  -21.7485   19.3881 H   0  0  0  0  0  0
  -28.2051  -21.6535   19.8804 H   0  0  0  0  0  0
  -28.9283  -15.1193   21.3008 H   0  0  0  0  0  0
  -30.7567  -20.5077   23.8772 H   0  0  0  0  0  0
  -30.4873  -22.2164   23.7785 H   0  0  0  0  0  0
  1 25  1  0  0  0
  1 30  2  0  0  0
  1 84  1  0  0  0
  2  3  1  0  0  0
  2 25  1  0  0  0
  2 86  1  0  0  0
  2 87  1  0  0  0
  3  4  1  0  0  0
  3 88  1  0  0  0
  3 89  1  0  0  0
  4  5  1  0  0  0
  4 90  1  0  0  0
  4 91  1  0  0  0
  5  6  1  0  0  0
  5 26  1  0  0  0
  5 92  1  0  0  0
  6 25  1  0  0  0
  6 93  1  0  0  0
  6 94  1  0  0  0
  7  8  2  0  0  0
  7 26  1  0  0  0
  7 29  1  0  0  0
  8  9  1  0  0  0
  8 22  1  0  0  0
  9 10  1  0  0  0
  9 27  2  0  0  0
 10 11  2  0  0  0
 10 15  1  0  0  0
 11 12  1  0  0  0
 11 95  1  0  0  0
 12 13  2  0  0  0
 12 96  1  0  0  0
 13 14  1  0  0  0
 13 31  1  0  0  0
 14 15  2  0  0  0
 14 97  1  0  0  0
 15 98  1  0  0  0
 16 17  2  0  0  0
 16 21  1  0  0  0
 16 31  1  0  0  0
 17 18  1  0  0  0
 17 99  1  0  0  0
 18 19  2  0  0  0
 18100  1  0  0  0
 19 20  1  0  0  0
 19 24  1  0  0  0
 20 21  2  0  0  0
 20101  1  0  0  0
 21 23  1  0  0  0
 22 28  1  0  0  0
 22 32  2  0  0  0
 26 27  1  0  0  0
 28102  1  0  0  0
 28103  1  0  0  0
 29104  1  0  0  0
 29105  1  0  0  0
 33 34  1  0  0  0
 33 66  1  0  0  0
 33 70  2  0  0  0
 34 36  1  0  0  0
 34 59  1  0  0  0
 34106  1  0  0  0
 35 44  2  0  0  0
 35 45  1  0  0  0
 35 68  1  0  0  0
 36 56  1  0  0  0
 36107  1  0  0  0
 37 39  1  0  0  0
 37 47  1  0  0  0
 37 66  1  0  0  0
 37108  1  0  0  0
 38 43  2  0  0  0
 38 46  1  0  0  0
 38 47  1  0  0  0
 39 64  1  0  0  0
 39 67  2  0  0  0
 40 52  1  0  0  0
 40 53  2  0  0  0
 40 58  1  0  0  0
 41109  1  0  0  0
 41110  1  0  0  0
 41111  1  0  0  0
 41 48  1  0  0  0
 42 43  1  0  0  0
 42 66  1  0  0  0
 42112  1  0  0  0
 42113  1  0  0  0
 43 44  1  0  0  0
 44114  1  0  0  0
 45 46  2  0  0  0
 45115  1  0  0  0
 46116  1  0  0  0
 47117  1  0  0  0
 47118  1  0  0  0
 48 56  1  0  0  0
 48 65  1  0  0  0
 48119  1  0  0  0
 49 50  1  0  0  0
 49 53  1  0  0  0
 49 64  1  0  0  0
 49120  1  0  0  0
 50 51  1  0  0  0
 50121  1  0  0  0
 50122  1  0  0  0
 51 52  1  0  0  0
 51123  1  0  0  0
 51124  1  0  0  0
 52125  1  0  0  0
 52126  1  0  0  0
 53 54  1  0  0  0
 54 55  2  0  0  0
 54127  1  0  0  0
 55 57  1  0  0  0
 55128  1  0  0  0
 56 69  2  0  0  0
 57 58  2  0  0  0
 57129  1  0  0  0
 58130  1  0  0  0
 59 60  1  0  0  0
 59 61  1  0  0  0
 59 62  1  0  0  0
 60131  1  0  0  0
 60132  1  0  0  0
 60133  1  0  0  0
 61134  1  0  0  0
 61135  1  0  0  0
 61136  1  0  0  0
 62137  1  0  0  0
 62138  1  0  0  0
 62139  1  0  0  0
 63 65  1  0  0  0
 63140  1  0  0  0
 63141  1  0  0  0
 63142  1  0  0  0
 64143  1  0  0  0
 65144  1  0  0  0
 68 78  1  0  0  0
 71 73  2  0  0  0
 71 75  1  0  0  0
 71145  1  0  0  0
 72 74  1  0  0  0
 72 75  2  0  0  0
 72146  1  0  0  0
 73 76  1  0  0  0
 73147  1  0  0  0
 74 76  2  0  0  0
 74148  1  0  0  0
 75 79  1  0  0  0
 76 84  1  0  0  0
 77 78  2  0  0  0
 77 80  1  0  0  0
 77 81  1  0  0  0
 78149  1  0  0  0
 79 83  1  0  0  0
 79 85  2  0  0  0
 80 82  1  0  0  0
 80150  1  0  0  0
 80151  1  0  0  0
 81 83  1  0  0  0
 81152  1  0  0  0
 81153  1  0  0  0
 82 83  1  0  0  0
 82154  1  0  0  0
 82155  1  0  0  0
 84156  1  0  0  0
 85157  1  0  0  0
 85158  1  0  0  0
M  CHG  1  85   1
M  ISO  4   1 100  68 101  78 101  84 100
M  END
> <chiral flag>
0

> <version>
0

> <s_m_source_file>
/data/baiqing/PycharmProjects/Reinvent-master-3.2/result/LINK_invent/BTK/process_docking_weight1_custom_product_contain_oxygen_bond_distance_aromatic_linkinvent_7_9_3/rearranged_h_0142.sdf

> <i_m_source_file_index>
54

> <r_mmod_Potential_Energy-OPLS-2005>
-173.386520385742

> <r_mmod_Stretch_Energy-OPLS-2005>
40.2616806030273

> <r_mmod_Bend_Energy-OPLS-2005>
122.212905883789

> <r_mmod_Torsional_Energy-OPLS-2005>
268.444274902344

> <r_mmod_Improper_Torsional_Energy-OPLS-2005>
6.02711153030396

> <r_mmod_Van_der_Waal_Energy-OPLS-2005>
143.036193847656

> <r_mmod_Electrostatic_Energy-OPLS-2005>
-367.6953125

> <r_mmod_Solvation_Energy-OPLS-2005>
-400.694976806641

> <b_mmod_Minimization_Converged-OPLS-2005>
0

> <r_mmod_RMS_Derivative-OPLS-2005>
0.992272138595581

$$$$
54
                    3D
 Structure written by MMmdl.
184192  0  0  1  0            999 V2000
  -30.8005  -14.4054   20.5725 C   0  0  0  0  0  0
  -30.3788  -12.2620   19.4497 C   0  0  0  0  0  0
  -29.4824  -12.4975   18.2209 C   0  0  0  0  0  0
  -28.0052  -12.3693   18.6273 C   0  0  0  0  0  0
  -27.6551  -13.2157   19.8806 C   0  0  2  0  0  0
  -28.6981  -13.0432   21.0134 C   0  0  0  0  0  0
  -25.2495  -13.8142   20.5715 C   0  0  0  0  0  0
  -24.1785  -13.0405   20.9203 C   0  0  0  0  0  0
  -24.6368  -11.6893   20.8790 C   0  0  0  0  0  0
  -23.9046  -10.4273   21.0418 C   0  0  0  0  0  0
  -24.3595   -9.4191   21.9189 C   0  0  0  0  0  0
  -23.6276   -8.2225   22.0758 C   0  0  0  0  0  0
  -22.4259   -8.0275   21.3547 C   0  0  0  0  0  0
  -21.9888   -9.0238   20.4654 C   0  0  0  0  0  0
  -22.7214  -10.2117   20.3057 C   0  0  0  0  0  0
  -21.6851   -6.0718   22.5276 C   0  0  0  0  0  0
  -21.4012   -6.5623   23.8210 C   0  0  0  0  0  0
  -21.3668   -5.6787   24.9176 C   0  0  0  0  0  0
  -21.6040   -4.3042   24.7232 C   0  0  0  0  0  0
  -21.8821   -3.8128   23.4351 C   0  0  0  0  0  0
  -21.9183   -4.6947   22.3411 C   0  0  0  0  0  0
  -22.7797  -13.5220   21.1857 C   0  0  0  0  0  0
  -22.1660   -4.2130   21.0995 F   0  0  0  0  0  0
  -21.5631   -3.4545   25.7747 F   0  0  0  0  0  0
  -30.0376  -13.2842   20.4580 N   0  0  0  0  0  0
  -26.2987  -12.9357   20.3438 N   0  0  0  0  0  0
  -25.9305  -11.6503   20.5841 N   0  0  0  0  0  0
  -22.0440  -12.8231   22.0440 N   0  0  0  0  0  0
  -25.4142  -15.1836   20.4101 N   0  0  0  0  0  0
  -31.8757  -14.4908   19.9777 O   0  0  0  0  0  0
  -21.6636   -6.8857   21.4234 O   0  0  0  0  0  0
  -22.3504  -14.5538   20.6724 O   0  0  0  0  0  0
  -24.6062  -31.8730   23.2178 C   0  0  0  0  0  0
  -25.8993  -32.4829   23.8432 C   0  0  1  0  0  0
  -27.2116  -27.4717   20.1081 C   0  0  0  0  0  0
  -25.5875  -33.8639   24.2351 N   0  0  0  0  0  0
  -23.3923  -30.4955   21.5585 C   0  0  2  0  0  0
  -24.8380  -28.9809   20.1021 C   0  0  0  0  0  0
  -22.7393  -29.4646   22.5046 C   0  0  0  0  0  0
  -18.0288  -28.1379   22.8486 C   0  0  0  0  0  0
  -24.1489  -36.7301   23.2639 C   0  0  0  0  0  0
  -25.9171  -30.8479   21.3717 C   0  0  0  0  0  0
  -25.9931  -29.4903   20.7120 C   0  0  0  0  0  0
  -27.1848  -28.7429   20.7218 C   0  0  0  0  0  0
  -26.0644  -26.9860   19.4549 C   0  0  0  0  0  0
  -24.8686  -27.7277   19.4627 C   0  0  0  0  0  0
  -23.5967  -29.8383   20.1653 C   0  0  0  0  0  0
  -25.4102  -36.3102   24.0345 C   0  0  1  0  0  0
  -20.5851  -28.3665   23.1391 C   0  0  2  0  0  0
  -20.6794  -26.9395   22.5541 C   0  0  0  0  0  0
  -19.5839  -26.6311   21.5276 C   0  0  0  0  0  0
  -18.1959  -26.7921   22.1620 C   0  0  0  0  0  0
  -19.1512  -28.8854   23.2906 C   0  0  0  0  0  0
  -18.9436  -30.1461   23.8922 C   0  0  0  0  0  0
  -17.6439  -30.6620   24.0533 C   0  0  0  0  0  0
  -25.9026  -34.9475   23.5138 C   0  0  0  0  0  0
  -16.5357  -29.9071   23.6326 C   0  0  0  0  0  0
  -16.7275  -28.6478   23.0373 C   0  0  0  0  0  0
  -26.4469  -31.6592   25.0736 C   0  0  0  0  0  0
  -25.3734  -31.3716   26.1475 C   0  0  0  0  0  0
  -27.0294  -30.3030   24.6099 C   0  0  0  0  0  0
  -27.6050  -32.4317   25.7475 C   0  0  0  0  0  0
  -27.5582  -37.1804   24.8466 C   0  0  0  0  0  0
  -21.4148  -29.2963   22.3766 N   0  0  0  0  0  0
  -26.4293  -37.3786   23.9405 N   0  0  0  0  0  0
  -24.6553  -31.0869   22.1066 N   0  0  0  0  0  0
  -23.4196  -28.8205   23.3094 O   0  0  0  0  0  0
  -28.3058  -26.6541   20.1678 O   0  0  0  0  0  0
  -26.5615  -34.8921   22.4716 O   0  0  0  0  0  0
  -23.5283  -32.1487   23.7606 O   0  0  0  0  0  0
  -32.9114  -18.1073   20.7934 C   0  0  0  0  0  0
  -32.1192  -19.1483   20.2980 C   0  0  0  0  0  0
  -32.2975  -16.9321   21.2365 C   0  0  0  0  0  0
  -30.7134  -19.0999   20.3879 C   0  0  0  0  0  0
  -30.0821  -17.9294   20.9265 C   0  0  0  0  0  0
  -30.8880  -16.7757   21.1807 C   0  0  0  0  0  0
  -28.9437  -22.6097   20.2467 C   0  0  0  0  0  0
  -31.6500  -22.4697   18.3703 C   0  0  0  0  0  0
  -28.1520  -17.2302   22.5156 C   0  0  0  0  0  0
  -27.7584  -17.4831   19.9914 C   0  0  0  0  0  0
  -30.4461  -21.5158   21.9978 C   0  0  0  0  0  0
  -28.3743  -24.8180   23.5598 C   0  0  0  0  0  0
  -26.3931  -26.0392   22.7541 C   0  0  0  0  0  0
  -29.9467  -20.3058   19.8045 C   0  0  0  0  0  0
  -31.4428  -22.4561   19.8998 C   0  0  0  0  0  0
  -27.2542  -24.0788   21.3986 C   0  0  0  0  0  0
  -28.6645  -26.2406   21.4962 C   0  0  0  0  0  0
  -28.5712  -17.9369   21.2075 C   0  0  0  0  0  0
  -30.1933  -21.7057   20.4755 C   0  0  1  0  0  0
  -27.6682  -25.3025   22.2687 C   0  0  0  0  0  0
  -30.3330  -15.4521   21.2896 N   0  0  0  0  0  0
  -28.3174  -23.0794   21.3299 N   0  0  0  0  0  0
  -28.5663  -22.8925   19.1102 O   0  0  0  0  0  0
  -31.4312  -12.2654   19.1604 H   0  0  0  0  0  0
  -30.2005  -11.2650   19.8578 H   0  0  0  0  0  0
  -29.7167  -11.7820   17.4319 H   0  0  0  0  0  0
  -29.6725  -13.4872   17.8041 H   0  0  0  0  0  0
  -27.8046  -11.3159   18.8211 H   0  0  0  0  0  0
  -27.3611  -12.6516   17.7953 H   0  0  0  0  0  0
  -27.6876  -14.2550   19.5611 H   0  0  0  0  0  0
  -28.6511  -12.0295   21.4179 H   0  0  0  0  0  0
  -28.4730  -13.7084   21.8479 H   0  0  0  0  0  0
  -25.2721   -9.5684   22.4783 H   0  0  0  0  0  0
  -23.9993   -7.4612   22.7472 H   0  0  0  0  0  0
  -21.0809   -8.8743   19.8954 H   0  0  0  0  0  0
  -22.3653  -10.9661   19.6186 H   0  0  0  0  0  0
  -21.2010   -7.6137   23.9714 H   0  0  0  0  0  0
  -21.1498   -6.0518   25.9086 H   0  0  0  0  0  0
  -22.0589   -2.7591   23.2866 H   0  0  0  0  0  0
  -22.4008  -11.9871   22.4823 H   0  0  0  0  0  0
  -21.1083  -13.1308   22.2689 H   0  0  0  0  0  0
  -24.6420  -15.8335   20.5106 H   0  0  0  0  0  0
  -26.2679  -15.6268   20.1016 H   0  0  0  0  0  0
  -26.7065  -32.5589   23.1191 H   0  0  0  0  0  0
  -25.0016  -33.9836   25.0488 H   0  0  0  0  0  0
  -22.6742  -31.3069   21.4264 H   0  0  0  0  0  0
  -23.3755  -35.9637   23.3331 H   0  0  0  0  0  0
  -24.3582  -36.8887   22.2045 H   0  0  0  0  0  0
  -23.7255  -37.6517   23.6656 H   0  0  0  0  0  0
  -26.0418  -31.6259   20.6149 H   0  0  0  0  0  0
  -26.7991  -30.8851   22.0009 H   0  0  0  0  0  0
  -28.0655  -29.1293   21.2164 H   0  0  0  0  0  0
  -26.0797  -26.0117   18.9871 H   0  0  0  0  0  0
  -23.9870  -27.3283   18.9792 H   0  0  0  0  0  0
  -23.7043  -30.6203   19.4139 H   0  0  0  0  0  0
  -22.7247  -29.2530   19.8669 H   0  0  0  0  0  0
  -25.1286  -36.1984   25.0851 H   0  0  0  0  0  0
  -20.9880  -28.3283   24.1541 H   0  0  0  0  0  0
  -20.5620  -26.2305   23.3742 H   0  0  0  0  0  0
  -21.6714  -26.7408   22.1431 H   0  0  0  0  0  0
  -19.6823  -27.3038   20.6716 H   0  0  0  0  0  0
  -19.7028  -25.6173   21.1402 H   0  0  0  0  0  0
  -17.4277  -26.6626   21.3979 H   0  0  0  0  0  0
  -18.0343  -26.0061   22.9030 H   0  0  0  0  0  0
  -19.7895  -30.7272   24.2319 H   0  0  0  0  0  0
  -17.4957  -31.6318   24.5080 H   0  0  0  0  0  0
  -15.5345  -30.2989   23.7581 H   0  0  0  0  0  0
  -15.8670  -28.0750   22.7165 H   0  0  0  0  0  0
  -24.5885  -30.7082   25.7837 H   0  0  0  0  0  0
  -24.8942  -32.2874   26.4942 H   0  0  0  0  0  0
  -25.8052  -30.8885   27.0231 H   0  0  0  0  0  0
  -26.2853  -29.6767   24.1153 H   0  0  0  0  0  0
  -27.4061  -29.7275   25.4561 H   0  0  0  0  0  0
  -27.8693  -30.4340   23.9264 H   0  0  0  0  0  0
  -27.2670  -33.3593   26.2100 H   0  0  0  0  0  0
  -28.3815  -32.6895   25.0271 H   0  0  0  0  0  0
  -28.0747  -31.8405   26.5334 H   0  0  0  0  0  0
  -28.2613  -38.0084   24.7492 H   0  0  0  0  0  0
  -28.1057  -36.2615   24.6317 H   0  0  0  0  0  0
  -27.2303  -37.1489   25.8869 H   0  0  0  0  0  0
  -20.9336  -29.8658   21.6945 H   0  0  0  0  0  0
  -26.0185  -38.2884   24.1362 H   0  0  0  0  0  0
  -33.9895  -18.1827   20.7616 H   0  0  0  0  0  0
  -32.6124  -20.0026   19.8668 H   0  0  0  0  0  0
  -32.9376  -16.1088   21.5226 H   0  0  0  0  0  0
  -31.9112  -21.4829   17.9879 H   0  0  0  0  0  0
  -32.4740  -23.1336   18.1060 H   0  0  0  0  0  0
  -30.7734  -22.8214   17.8265 H   0  0  0  0  0  0
  -28.7813  -17.5528   23.3462 H   0  0  0  0  0  0
  -28.1917  -16.1451   22.4635 H   0  0  0  0  0  0
  -27.1245  -17.4840   22.7780 H   0  0  0  0  0  0
  -28.0203  -18.0525   19.1009 H   0  0  0  0  0  0
  -26.6918  -17.6279   20.1597 H   0  0  0  0  0  0
  -27.9329  -16.4371   19.7591 H   0  0  0  0  0  0
  -29.6615  -20.9187   22.4636 H   0  0  0  0  0  0
  -30.5153  -22.4605   22.5337 H   0  0  0  0  0  0
  -31.3862  -21.0052   22.1878 H   0  0  0  0  0  0
  -27.7816  -24.0548   24.0713 H   0  0  0  0  0  0
  -28.5289  -25.6351   24.2664 H   0  0  0  0  0  0
  -29.3544  -24.3842   23.3628 H   0  0  0  0  0  0
  -25.8752  -25.4597   23.5198 H   0  0  0  0  0  0
  -25.6618  -26.2005   21.9634 H   0  0  0  0  0  0
  -26.6235  -27.0081   23.2011 H   0  0  0  0  0  0
  -28.8784  -20.1066   19.7804 H   0  0  0  0  0  0
  -30.1824  -20.3461   18.7436 H   0  0  0  0  0  0
  -31.4072  -23.4954   20.2323 H   0  0  0  0  0  0
  -32.3544  -22.0737   20.3573 H   0  0  0  0  0  0
  -26.9363  -24.3905   20.4032 H   0  0  0  0  0  0
  -26.3861  -23.5834   21.8379 H   0  0  0  0  0  0
  -28.9008  -27.1090   22.1082 H   0  0  0  0  0  0
  -29.6114  -25.7114   21.3858 H   0  0  0  0  0  0
  -28.2967  -18.9679   21.4135 H   0  0  0  0  0  0
  -29.4064  -15.3607   21.6765 H   0  0  0  0  0  0
  -28.6794  -22.7583   22.2179 H   0  0  0  0  0  0
  1 25  1  0  0  0
  1 30  2  0  0  0
  1 91  1  0  0  0
  2  3  1  0  0  0
  2 25  1  0  0  0
  2 94  1  0  0  0
  2 95  1  0  0  0
  3  4  1  0  0  0
  3 96  1  0  0  0
  3 97  1  0  0  0
  4  5  1  0  0  0
  4 98  1  0  0  0
  4 99  1  0  0  0
  5  6  1  0  0  0
  5 26  1  0  0  0
  5100  1  0  0  0
  6 25  1  0  0  0
  6101  1  0  0  0
  6102  1  0  0  0
  7  8  2  0  0  0
  7 26  1  0  0  0
  7 29  1  0  0  0
  8  9  1  0  0  0
  8 22  1  0  0  0
  9 10  1  0  0  0
  9 27  2  0  0  0
 10 11  2  0  0  0
 10 15  1  0  0  0
 11 12  1  0  0  0
 11103  1  0  0  0
 12 13  2  0  0  0
 12104  1  0  0  0
 13 14  1  0  0  0
 13 31  1  0  0  0
 14 15  2  0  0  0
 14105  1  0  0  0
 15106  1  0  0  0
 16 17  2  0  0  0
 16 21  1  0  0  0
 16 31  1  0  0  0
 17 18  1  0  0  0
 17107  1  0  0  0
 18 19  2  0  0  0
 18108  1  0  0  0
 19 20  1  0  0  0
 19 24  1  0  0  0
 20 21  2  0  0  0
 20109  1  0  0  0
 21 23  1  0  0  0
 22 28  1  0  0  0
 22 32  2  0  0  0
 26 27  1  0  0  0
 28110  1  0  0  0
 28111  1  0  0  0
 29112  1  0  0  0
 29113  1  0  0  0
 33 34  1  0  0  0
 33 66  1  0  0  0
 33 70  2  0  0  0
 34 36  1  0  0  0
 34 59  1  0  0  0
 34114  1  0  0  0
 35 44  2  0  0  0
 35 45  1  0  0  0
 35 68  1  0  0  0
 36 56  1  0  0  0
 36115  1  0  0  0
 37 39  1  0  0  0
 37 47  1  0  0  0
 37 66  1  0  0  0
 37116  1  0  0  0
 38 43  2  0  0  0
 38 46  1  0  0  0
 38 47  1  0  0  0
 39 64  1  0  0  0
 39 67  2  0  0  0
 40 52  1  0  0  0
 40 53  2  0  0  0
 40 58  1  0  0  0
 41117  1  0  0  0
 41118  1  0  0  0
 41119  1  0  0  0
 41 48  1  0  0  0
 42 43  1  0  0  0
 42 66  1  0  0  0
 42120  1  0  0  0
 42121  1  0  0  0
 43 44  1  0  0  0
 44122  1  0  0  0
 45 46  2  0  0  0
 45123  1  0  0  0
 46124  1  0  0  0
 47125  1  0  0  0
 47126  1  0  0  0
 48 56  1  0  0  0
 48 65  1  0  0  0
 48127  1  0  0  0
 49 50  1  0  0  0
 49 53  1  0  0  0
 49 64  1  0  0  0
 49128  1  0  0  0
 50 51  1  0  0  0
 50129  1  0  0  0
 50130  1  0  0  0
 51 52  1  0  0  0
 51131  1  0  0  0
 51132  1  0  0  0
 52133  1  0  0  0
 52134  1  0  0  0
 53 54  1  0  0  0
 54 55  2  0  0  0
 54135  1  0  0  0
 55 57  1  0  0  0
 55136  1  0  0  0
 56 69  2  0  0  0
 57 58  2  0  0  0
 57137  1  0  0  0
 58138  1  0  0  0
 59 60  1  0  0  0
 59 61  1  0  0  0
 59 62  1  0  0  0
 60139  1  0  0  0
 60140  1  0  0  0
 60141  1  0  0  0
 61142  1  0  0  0
 61143  1  0  0  0
 61144  1  0  0  0
 62145  1  0  0  0
 62146  1  0  0  0
 62147  1  0  0  0
 63 65  1  0  0  0
 63148  1  0  0  0
 63149  1  0  0  0
 63150  1  0  0  0
 64151  1  0  0  0
 65152  1  0  0  0
 68 87  1  0  0  0
 71 72  2  0  0  0
 71 73  1  0  0  0
 71153  1  0  0  0
 72 74  1  0  0  0
 72154  1  0  0  0
 73 76  2  0  0  0
 73155  1  0  0  0
 74 75  2  0  0  0
 74 84  1  0  0  0
 75 76  1  0  0  0
 75 88  1  0  0  0
 76 91  1  0  0  0
 77 92  1  0  0  0
 77 93  2  0  0  0
 77 89  1  0  0  0
 78 85  1  0  0  0
 78156  1  0  0  0
 78157  1  0  0  0
 78158  1  0  0  0
 79159  1  0  0  0
 79160  1  0  0  0
 79161  1  0  0  0
 79 88  1  0  0  0
 80 88  1  0  0  0
 80162  1  0  0  0
 80163  1  0  0  0
 80164  1  0  0  0
 81165  1  0  0  0
 81166  1  0  0  0
 81167  1  0  0  0
 81 89  1  0  0  0
 82168  1  0  0  0
 82169  1  0  0  0
 82170  1  0  0  0
 82 90  1  0  0  0
 83 90  1  0  0  0
 83171  1  0  0  0
 83172  1  0  0  0
 83173  1  0  0  0
 84 89  1  0  0  0
 84174  1  0  0  0
 84175  1  0  0  0
 85 89  1  0  0  0
 85176  1  0  0  0
 85177  1  0  0  0
 86 90  1  0  0  0
 86 92  1  0  0  0
 86178  1  0  0  0
 86179  1  0  0  0
 87 90  1  0  0  0
 87180  1  0  0  0
 87181  1  0  0  0
 88182  1  0  0  0
 91183  1  0  0  0
 92184  1  0  0  0
M  ISO  4   1 100  68 101  87 101  91 100
M  END
> <chiral flag>
0

> <version>
0

> <s_m_source_file>
/data/baiqing/PycharmProjects/Reinvent-master-3.2/result/LINK_invent/BTK/process_docking_weight1_custom_product_contain_oxygen_bond_distance_aromatic_linkinvent_7_9_3/rearranged_h_0142.sdf

> <i_m_source_file_index>
55

> <r_mmod_Potential_Energy-OPLS-2005>
28.4823188781738

> <r_mmod_Stretch_Energy-OPLS-2005>
49.8969535827637

> <r_mmod_Bend_Energy-OPLS-2005>
131.003189086914

> <r_mmod_Torsional_Energy-OPLS-2005>
294.908599853516

> <r_mmod_Improper_Torsional_Energy-OPLS-2005>
3.77394199371338

> <r_mmod_Van_der_Waal_Energy-OPLS-2005>
175.990173339844

> <r_mmod_Electrostatic_Energy-OPLS-2005>
-436.936218261719

> <r_mmod_Solvation_Energy-OPLS-2005>
-209.349533081055

> <b_mmod_Minimization_Converged-OPLS-2005>
0

> <r_mmod_RMS_Derivative-OPLS-2005>
4.82745552062988

$$$$
55
                    3D
 Structure written by MMmdl.
163172  0  0  1  0            999 V2000
  -30.5721  -14.7472   20.4391 C   0  0  0  0  0  0
  -30.4463  -12.4539   19.4406 C   0  0  0  0  0  0
  -29.5070  -12.5016   18.2148 C   0  0  0  0  0  0
  -28.0328  -12.3236   18.6372 C   0  0  0  0  0  0
  -27.6414  -13.2219   19.8412 C   0  0  2  0  0  0
  -28.6955  -13.1488   20.9662 C   0  0  0  0  0  0
  -25.2537  -13.8162   20.5708 C   0  0  0  0  0  0
  -24.1813  -13.0417   20.9193 C   0  0  0  0  0  0
  -24.6404  -11.6895   20.8741 C   0  0  0  0  0  0
  -23.9078  -10.4284   21.0411 C   0  0  0  0  0  0
  -24.3627   -9.4194   21.9188 C   0  0  0  0  0  0
  -23.6295   -8.2236   22.0762 C   0  0  0  0  0  0
  -22.4276   -8.0279   21.3549 C   0  0  0  0  0  0
  -21.9920   -9.0258   20.4648 C   0  0  0  0  0  0
  -22.7259  -10.2127   20.3053 C   0  0  0  0  0  0
  -21.6849   -6.0730   22.5287 C   0  0  0  0  0  0
  -21.4017   -6.5635   23.8212 C   0  0  0  0  0  0
  -21.3661   -5.6787   24.9176 C   0  0  0  0  0  0
  -21.6032   -4.3052   24.7229 C   0  0  0  0  0  0
  -21.8820   -3.8148   23.4354 C   0  0  0  0  0  0
  -21.9194   -4.6965   22.3406 C   0  0  0  0  0  0
  -22.7828  -13.5202   21.1858 C   0  0  0  0  0  0
  -22.1660   -4.2139   21.0988 F   0  0  0  0  0  0
  -21.5630   -3.4539   25.7745 F   0  0  0  0  0  0
  -29.9876  -13.5071   20.3676 N   0  0  0  0  0  0
  -26.2955  -12.9354   20.3271 N   0  0  0  0  0  0
  -25.9330  -11.6503   20.5746 N   0  0  0  0  0  0
  -22.0472  -12.8204   22.0418 N   0  0  0  0  0  0
  -25.4189  -15.1900   20.4178 N   0  0  0  0  0  0
  -31.7881  -14.8818   20.2740 O   0  0  0  0  0  0
  -21.6639   -6.8884   21.4244 O   0  0  0  0  0  0
  -22.3506  -14.5504   20.6708 O   0  0  0  0  0  0
  -24.6278  -31.8578   23.2006 C   0  0  0  0  0  0
  -25.9120  -32.4764   23.8342 C   0  0  1  0  0  0
  -27.2166  -27.2796   20.1337 C   0  0  0  0  0  0
  -25.5928  -33.8565   24.2263 N   0  0  0  0  0  0
  -23.4237  -30.4802   21.5433 C   0  0  2  0  0  0
  -24.8713  -28.9276   20.1130 C   0  0  0  0  0  0
  -22.7499  -29.4616   22.4934 C   0  0  0  0  0  0
  -18.0292  -28.1392   22.8481 C   0  0  0  0  0  0
  -24.1491  -36.7286   23.2640 C   0  0  0  0  0  0
  -25.9667  -30.7772   21.3769 C   0  0  0  0  0  0
  -26.0414  -29.3990   20.7233 C   0  0  0  0  0  0
  -27.2194  -28.5874   20.7220 C   0  0  0  0  0  0
  -26.0303  -26.8761   19.4857 C   0  0  0  0  0  0
  -24.8691  -27.6728   19.4834 C   0  0  0  0  0  0
  -23.6414  -29.8127   20.1599 C   0  0  0  0  0  0
  -25.4119  -36.3067   24.0316 C   0  0  1  0  0  0
  -20.5892  -28.3696   23.1288 C   0  0  2  0  0  0
  -20.6782  -26.9426   22.5419 C   0  0  0  0  0  0
  -19.5757  -26.6388   21.5221 C   0  0  0  0  0  0
  -18.1934  -26.7929   22.1630 C   0  0  0  0  0  0
  -19.1543  -28.8861   23.2865 C   0  0  0  0  0  0
  -18.9466  -30.1455   23.8893 C   0  0  0  0  0  0
  -17.6466  -30.6593   24.0562 C   0  0  0  0  0  0
  -25.9054  -34.9436   23.5090 C   0  0  0  0  0  0
  -16.5357  -29.9089   23.6332 C   0  0  0  0  0  0
  -16.7271  -28.6503   23.0353 C   0  0  0  0  0  0
  -26.4500  -31.6570   25.0713 C   0  0  0  0  0  0
  -25.3728  -31.3726   26.1432 C   0  0  0  0  0  0
  -27.0352  -30.2986   24.6184 C   0  0  0  0  0  0
  -27.6045  -32.4317   25.7500 C   0  0  0  0  0  0
  -27.5576  -37.1804   24.8465 C   0  0  0  0  0  0
  -21.4213  -29.3031   22.3679 N   0  0  0  0  0  0
  -26.4292  -37.3767   23.9402 N   0  0  0  0  0  0
  -24.6916  -31.0571   22.0964 N   0  0  0  0  0  0
  -23.4210  -28.8159   23.3030 O   0  0  0  0  0  0
  -28.3092  -26.3894   20.1524 O   0  0  0  0  0  0
  -26.5628  -34.8912   22.4662 O   0  0  0  0  0  0
  -23.5434  -32.1394   23.7319 O   0  0  0  0  0  0
  -28.6863  -19.5501   22.1834 C   0  0  0  0  0  0
  -29.6518  -18.4382   20.2473 C   0  0  0  0  0  0
  -29.0064  -17.1121   22.1873 C   0  0  0  0  0  0
  -29.2398  -19.6807   20.8918 C   0  0  0  0  0  0
  -28.5631  -18.2937   22.8167 C   0  0  0  0  0  0
  -29.5580  -17.1329   20.8914 C   0  0  0  0  0  0
  -28.7075  -21.4950   18.9731 C   0  0  0  0  0  0
  -28.5703  -23.0554   18.8615 C   0  0  0  0  0  0
  -28.9669  -22.4376   21.1271 C   0  0  0  0  0  0
  -29.4143  -21.1565   20.2978 C   0  0  2  0  0  0
  -28.9958  -23.7302   20.1975 C   0  0  1  0  0  0
  -27.9254  -18.2066   24.1892 C   0  0  0  0  0  0
  -30.4488  -24.2371   20.1172 C   0  0  0  0  0  0
  -28.0687  -24.9883   20.6345 C   0  0  0  0  0  0
  -29.7113  -15.8149   20.2490 N   0  0  0  0  0  0
  -31.4816  -12.6050   19.1269 H   0  0  0  0  0  0
  -30.4144  -11.4742   19.9220 H   0  0  0  0  0  0
  -29.7891  -11.7347   17.4929 H   0  0  0  0  0  0
  -29.6204  -13.4578   17.7007 H   0  0  0  0  0  0
  -27.8889  -11.2737   18.8966 H   0  0  0  0  0  0
  -27.3727  -12.5210   17.7914 H   0  0  0  0  0  0
  -27.6263  -14.2425   19.4588 H   0  0  0  0  0  0
  -28.7399  -12.1483   21.3976 H   0  0  0  0  0  0
  -28.4406  -13.8281   21.7821 H   0  0  0  0  0  0
  -25.2774   -9.5652   22.4767 H   0  0  0  0  0  0
  -23.9989   -7.4624   22.7491 H   0  0  0  0  0  0
  -21.0849   -8.8773   19.8968 H   0  0  0  0  0  0
  -22.3724  -10.9655   19.6161 H   0  0  0  0  0  0
  -21.2012   -7.6142   23.9707 H   0  0  0  0  0  0
  -21.1478   -6.0526   25.9070 H   0  0  0  0  0  0
  -22.0604   -2.7609   23.2854 H   0  0  0  0  0  0
  -22.4098  -11.9856   22.4778 H   0  0  0  0  0  0
  -21.1082  -13.1202   22.2633 H   0  0  0  0  0  0
  -24.6462  -15.8332   20.5504 H   0  0  0  0  0  0
  -26.2701  -15.6539   20.1307 H   0  0  0  0  0  0
  -26.7192  -32.5436   23.1091 H   0  0  0  0  0  0
  -25.0062  -33.9703   25.0394 H   0  0  0  0  0  0
  -22.7162  -31.3004   21.3996 H   0  0  0  0  0  0
  -23.3744  -35.9629   23.3301 H   0  0  0  0  0  0
  -24.3594  -36.8914   22.2061 H   0  0  0  0  0  0
  -23.7251  -37.6485   23.6675 H   0  0  0  0  0  0
  -26.1047  -31.5377   20.6069 H   0  0  0  0  0  0
  -26.8444  -30.8299   22.0096 H   0  0  0  0  0  0
  -28.1150  -28.9450   21.2098 H   0  0  0  0  0  0
  -25.9894  -25.9214   18.9797 H   0  0  0  0  0  0
  -23.9731  -27.3133   18.9947 H   0  0  0  0  0  0
  -23.7673  -30.5881   19.4044 H   0  0  0  0  0  0
  -22.7596  -29.2471   19.8545 H   0  0  0  0  0  0
  -25.1309  -36.1910   25.0809 H   0  0  0  0  0  0
  -20.9970  -28.3271   24.1410 H   0  0  0  0  0  0
  -20.5715  -26.2310   23.3615 H   0  0  0  0  0  0
  -21.6644  -26.7473   22.1196 H   0  0  0  0  0  0
  -19.6929  -25.6296   21.1245 H   0  0  0  0  0  0
  -19.6684  -27.3202   20.6753 H   0  0  0  0  0  0
  -17.4209  -26.6668   21.4025 H   0  0  0  0  0  0
  -18.0327  -26.0077   22.9037 H   0  0  0  0  0  0
  -19.7942  -30.7263   24.2271 H   0  0  0  0  0  0
  -17.5026  -31.6274   24.5162 H   0  0  0  0  0  0
  -15.5358  -30.2996   23.7657 H   0  0  0  0  0  0
  -15.8670  -28.0821   22.7082 H   0  0  0  0  0  0
  -24.5881  -30.7099   25.7760 H   0  0  0  0  0  0
  -24.8944  -32.2901   26.4864 H   0  0  0  0  0  0
  -25.8034  -30.8891   27.0206 H   0  0  0  0  0  0
  -26.2934  -29.6731   24.1199 H   0  0  0  0  0  0
  -27.4034  -29.7246   25.4699 H   0  0  0  0  0  0
  -27.8811  -30.4266   23.9427 H   0  0  0  0  0  0
  -27.2629  -33.3608   26.2079 H   0  0  0  0  0  0
  -28.3857  -32.6895   25.0338 H   0  0  0  0  0  0
  -28.0706  -31.8446   26.5420 H   0  0  0  0  0  0
  -28.2591  -38.0105   24.7506 H   0  0  0  0  0  0
  -28.1078  -36.2632   24.6300 H   0  0  0  0  0  0
  -27.2298  -37.1455   25.8870 H   0  0  0  0  0  0
  -20.9411  -29.8760   21.6875 H   0  0  0  0  0  0
  -26.0161  -38.2840   24.1394 H   0  0  0  0  0  0
  -28.3444  -20.4279   22.7117 H   0  0  0  0  0  0
  -30.0232  -18.4943   19.2340 H   0  0  0  0  0  0
  -28.8597  -16.1653   22.6905 H   0  0  0  0  0  0
  -29.2259  -21.0652   18.1157 H   0  0  0  0  0  0
  -27.7052  -21.0653   18.9877 H   0  0  0  0  0  0
  -27.5328  -23.2995   18.6271 H   0  0  0  0  0  0
  -29.1585  -23.4380   18.0268 H   0  0  0  0  0  0
  -29.5727  -22.5671   22.0254 H   0  0  0  0  0  0
  -27.9377  -22.2972   21.4626 H   0  0  0  0  0  0
  -30.4861  -21.2530   20.1256 H   0  0  0  0  0  0
  -28.6801  -18.3135   24.9688 H   0  0  0  0  0  0
  -27.4240  -17.2474   24.3242 H   0  0  0  0  0  0
  -27.1837  -18.9942   24.3256 H   0  0  0  0  0  0
  -31.1480  -23.4571   19.8153 H   0  0  0  0  0  0
  -30.7796  -24.6223   21.0820 H   0  0  0  0  0  0
  -30.5478  -25.0521   19.3987 H   0  0  0  0  0  0
  -28.1430  -25.0624   21.7197 H   0  0  0  0  0  0
  -27.0324  -24.6932   20.4721 H   0  0  0  0  0  0
  -28.8193  -15.4536   19.9524 H   0  0  0  0  0  0
  1 25  1  0  0  0
  1 30  2  0  0  0
  1 85  1  0  0  0
  2  3  1  0  0  0
  2 25  1  0  0  0
  2 86  1  0  0  0
  2 87  1  0  0  0
  3  4  1  0  0  0
  3 88  1  0  0  0
  3 89  1  0  0  0
  4  5  1  0  0  0
  4 90  1  0  0  0
  4 91  1  0  0  0
  5  6  1  0  0  0
  5 26  1  0  0  0
  5 92  1  0  0  0
  6 25  1  0  0  0
  6 93  1  0  0  0
  6 94  1  0  0  0
  7  8  2  0  0  0
  7 26  1  0  0  0
  7 29  1  0  0  0
  8  9  1  0  0  0
  8 22  1  0  0  0
  9 10  1  0  0  0
  9 27  2  0  0  0
 10 11  2  0  0  0
 10 15  1  0  0  0
 11 12  1  0  0  0
 11 95  1  0  0  0
 12 13  2  0  0  0
 12 96  1  0  0  0
 13 14  1  0  0  0
 13 31  1  0  0  0
 14 15  2  0  0  0
 14 97  1  0  0  0
 15 98  1  0  0  0
 16 17  2  0  0  0
 16 21  1  0  0  0
 16 31  1  0  0  0
 17 18  1  0  0  0
 17 99  1  0  0  0
 18 19  2  0  0  0
 18100  1  0  0  0
 19 20  1  0  0  0
 19 24  1  0  0  0
 20 21  2  0  0  0
 20101  1  0  0  0
 21 23  1  0  0  0
 22 28  1  0  0  0
 22 32  2  0  0  0
 26 27  1  0  0  0
 28102  1  0  0  0
 28103  1  0  0  0
 29104  1  0  0  0
 29105  1  0  0  0
 33 34  1  0  0  0
 33 66  1  0  0  0
 33 70  2  0  0  0
 34 36  1  0  0  0
 34 59  1  0  0  0
 34106  1  0  0  0
 35 44  2  0  0  0
 35 45  1  0  0  0
 35 68  1  0  0  0
 36 56  1  0  0  0
 36107  1  0  0  0
 37 39  1  0  0  0
 37 47  1  0  0  0
 37 66  1  0  0  0
 37108  1  0  0  0
 38 43  2  0  0  0
 38 46  1  0  0  0
 38 47  1  0  0  0
 39 64  1  0  0  0
 39 67  2  0  0  0
 40 52  1  0  0  0
 40 53  2  0  0  0
 40 58  1  0  0  0
 41109  1  0  0  0
 41110  1  0  0  0
 41111  1  0  0  0
 41 48  1  0  0  0
 42 43  1  0  0  0
 42 66  1  0  0  0
 42112  1  0  0  0
 42113  1  0  0  0
 43 44  1  0  0  0
 44114  1  0  0  0
 45 46  2  0  0  0
 45115  1  0  0  0
 46116  1  0  0  0
 47117  1  0  0  0
 47118  1  0  0  0
 48 56  1  0  0  0
 48 65  1  0  0  0
 48119  1  0  0  0
 49 50  1  0  0  0
 49 53  1  0  0  0
 49 64  1  0  0  0
 49120  1  0  0  0
 50 51  1  0  0  0
 50121  1  0  0  0
 50122  1  0  0  0
 51 52  1  0  0  0
 51123  1  0  0  0
 51124  1  0  0  0
 52125  1  0  0  0
 52126  1  0  0  0
 53 54  1  0  0  0
 54 55  2  0  0  0
 54127  1  0  0  0
 55 57  1  0  0  0
 55128  1  0  0  0
 56 69  2  0  0  0
 57 58  2  0  0  0
 57129  1  0  0  0
 58130  1  0  0  0
 59 60  1  0  0  0
 59 61  1  0  0  0
 59 62  1  0  0  0
 60131  1  0  0  0
 60132  1  0  0  0
 60133  1  0  0  0
 61134  1  0  0  0
 61135  1  0  0  0
 61136  1  0  0  0
 62137  1  0  0  0
 62138  1  0  0  0
 62139  1  0  0  0
 63 65  1  0  0  0
 63140  1  0  0  0
 63141  1  0  0  0
 63142  1  0  0  0
 64143  1  0  0  0
 65144  1  0  0  0
 68 84  1  0  0  0
 71 74  2  0  0  0
 71 75  1  0  0  0
 71145  1  0  0  0
 72 74  1  0  0  0
 72 76  2  0  0  0
 72146  1  0  0  0
 73 75  2  0  0  0
 73 76  1  0  0  0
 73147  1  0  0  0
 74 80  1  0  0  0
 75 82  1  0  0  0
 76 85  1  0  0  0
 77 78  1  0  0  0
 77 80  1  0  0  0
 77148  1  0  0  0
 77149  1  0  0  0
 78 81  1  0  0  0
 78150  1  0  0  0
 78151  1  0  0  0
 79 80  1  0  0  0
 79 81  1  0  0  0
 79152  1  0  0  0
 79153  1  0  0  0
 80154  1  0  0  0
 81 83  1  0  0  0
 81 84  1  0  0  0
 82155  1  0  0  0
 82156  1  0  0  0
 82157  1  0  0  0
 83158  1  0  0  0
 83159  1  0  0  0
 83160  1  0  0  0
 84161  1  0  0  0
 84162  1  0  0  0
 85163  1  0  0  0
M  ISO  4   1 100  68 101  84 101  85 100
M  END
> <chiral flag>
0

> <version>
0

> <s_m_source_file>
/data/baiqing/PycharmProjects/Reinvent-master-3.2/result/LINK_invent/BTK/process_docking_weight1_custom_product_contain_oxygen_bond_distance_aromatic_linkinvent_7_9_3/rearranged_h_0142.sdf

> <i_m_source_file_index>
56

> <r_mmod_Potential_Energy-OPLS-2005>
303.890014648438

> <r_mmod_Stretch_Energy-OPLS-2005>
110.126426696777

> <r_mmod_Bend_Energy-OPLS-2005>
191.939117431641

> <r_mmod_Torsional_Energy-OPLS-2005>
336.889068603516

> <r_mmod_Improper_Torsional_Energy-OPLS-2005>
17.1610260009766

> <r_mmod_Van_der_Waal_Energy-OPLS-2005>
128.298583984375

> <r_mmod_Electrostatic_Energy-OPLS-2005>
-369.827239990234

> <r_mmod_Solvation_Energy-OPLS-2005>
-197.69499206543

> <b_mmod_Minimization_Converged-OPLS-2005>
0

> <r_mmod_RMS_Derivative-OPLS-2005>
2.49842357635498

$$$$
56
                    3D
 Structure written by MMmdl.
168176  0  0  1  0            999 V2000
  -30.6664  -14.4902   20.5051 C   0  0  0  0  0  0
  -30.4291  -12.2882   19.4291 C   0  0  0  0  0  0
  -29.4961  -12.4488   18.2103 C   0  0  0  0  0  0
  -28.0121  -12.3322   18.6214 C   0  0  0  0  0  0
  -27.6556  -13.1846   19.8683 C   0  0  2  0  0  0
  -28.7037  -12.9889   20.9887 C   0  0  0  0  0  0
  -25.2530  -13.8079   20.5735 C   0  0  0  0  0  0
  -24.1786  -13.0369   20.9192 C   0  0  0  0  0  0
  -24.6347  -11.6850   20.8736 C   0  0  0  0  0  0
  -23.9024  -10.4261   21.0400 C   0  0  0  0  0  0
  -24.3590   -9.4195   21.9184 C   0  0  0  0  0  0
  -23.6274   -8.2237   22.0760 C   0  0  0  0  0  0
  -22.4259   -8.0268   21.3548 C   0  0  0  0  0  0
  -21.9879   -9.0230   20.4647 C   0  0  0  0  0  0
  -22.7195  -10.2108   20.3050 C   0  0  0  0  0  0
  -21.6863   -6.0730   22.5282 C   0  0  0  0  0  0
  -21.4019   -6.5630   23.8213 C   0  0  0  0  0  0
  -21.3655   -5.6783   24.9172 C   0  0  0  0  0  0
  -21.6042   -4.3047   24.7228 C   0  0  0  0  0  0
  -21.8817   -3.8149   23.4348 C   0  0  0  0  0  0
  -21.9185   -4.6958   22.3404 C   0  0  0  0  0  0
  -22.7811  -13.5184   21.1855 C   0  0  0  0  0  0
  -22.1660   -4.2144   21.0980 F   0  0  0  0  0  0
  -21.5631   -3.4528   25.7745 F   0  0  0  0  0  0
  -30.0315  -13.2916   20.4246 N   0  0  0  0  0  0
  -26.2972  -12.9240   20.3360 N   0  0  0  0  0  0
  -25.9269  -11.6420   20.5776 N   0  0  0  0  0  0
  -22.0456  -12.8188   22.0417 N   0  0  0  0  0  0
  -25.4129  -15.1809   20.4282 N   0  0  0  0  0  0
  -31.8314  -14.6696   20.1364 O   0  0  0  0  0  0
  -21.6638   -6.8864   21.4241 O   0  0  0  0  0  0
  -22.3503  -14.5500   20.6705 O   0  0  0  0  0  0
  -24.6129  -31.8684   23.2089 C   0  0  0  0  0  0
  -25.9029  -32.4826   23.8375 C   0  0  1  0  0  0
  -27.2515  -27.4483   20.0737 C   0  0  0  0  0  0
  -25.5889  -33.8627   24.2318 N   0  0  0  0  0  0
  -23.4010  -30.4888   21.5501 C   0  0  2  0  0  0
  -24.8474  -28.9505   20.1165 C   0  0  0  0  0  0
  -22.7404  -29.4662   22.5010 C   0  0  0  0  0  0
  -18.0275  -28.1380   22.8497 C   0  0  0  0  0  0
  -24.1488  -36.7321   23.2639 C   0  0  0  0  0  0
  -25.9281  -30.8314   21.3632 C   0  0  0  0  0  0
  -26.0034  -29.4651   20.7132 C   0  0  0  0  0  0
  -27.2007  -28.7159   20.6978 C   0  0  0  0  0  0
  -26.0663  -26.9333   19.4965 C   0  0  0  0  0  0
  -24.8722  -27.6811   19.5117 C   0  0  0  0  0  0
  -23.6070  -29.8155   20.1662 C   0  0  0  0  0  0
  -25.4113  -36.3124   24.0335 C   0  0  1  0  0  0
  -20.5861  -28.3670   23.1322 C   0  0  2  0  0  0
  -20.6768  -26.9406   22.5421 C   0  0  0  0  0  0
  -19.5746  -26.6386   21.5222 C   0  0  0  0  0  0
  -18.1923  -26.7924   22.1626 C   0  0  0  0  0  0
  -19.1519  -28.8844   23.2907 C   0  0  0  0  0  0
  -18.9446  -30.1445   23.8914 C   0  0  0  0  0  0
  -17.6450  -30.6585   24.0566 C   0  0  0  0  0  0
  -25.9038  -34.9483   23.5131 C   0  0  0  0  0  0
  -16.5344  -29.9085   23.6328 C   0  0  0  0  0  0
  -16.7266  -28.6504   23.0351 C   0  0  0  0  0  0
  -26.4453  -31.6615   25.0717 C   0  0  0  0  0  0
  -25.3702  -31.3729   26.1457 C   0  0  0  0  0  0
  -27.0289  -30.3051   24.6111 C   0  0  0  0  0  0
  -27.6033  -32.4331   25.7472 C   0  0  0  0  0  0
  -27.5593  -37.1816   24.8459 C   0  0  0  0  0  0
  -21.4136  -29.3033   22.3735 N   0  0  0  0  0  0
  -26.4303  -37.3802   23.9408 N   0  0  0  0  0  0
  -24.6657  -31.0771   22.0996 N   0  0  0  0  0  0
  -23.4176  -28.8214   23.3061 O   0  0  0  0  0  0
  -28.4637  -26.7848   20.0742 O   0  0  0  0  0  0
  -26.5604  -34.8937   22.4698 O   0  0  0  0  0  0
  -23.5320  -32.1449   23.7473 O   0  0  0  0  0  0
  -29.5438  -18.9504   19.6173 C   0  0  0  0  0  0
  -29.2135  -17.5663   19.6384 C   0  0  0  0  0  0
  -30.0048  -16.8273   20.4967 C   0  0  0  0  0  0
  -30.5548  -19.2859   20.4758 C   0  0  0  0  0  0
  -30.0715  -24.1371   20.7509 C   0  0  0  0  0  0
  -28.5738  -16.3273   17.5319 C   0  0  0  0  0  0
  -32.3333  -24.0137   18.4733 C   0  0  0  0  0  0
  -32.2710  -23.0153   21.3644 C   0  0  0  0  0  0
  -28.0899  -17.0285   18.8052 C   0  0  0  0  0  0
  -28.7861  -24.3278   19.9223 C   0  0  0  0  0  0
  -31.4394  -22.8626   18.9736 C   0  0  0  0  0  0
  -28.7161  -25.6868   19.1872 C   0  0  0  0  0  0
  -30.2557  -21.6070   20.8227 C   0  0  0  0  0  0
  -31.0080  -22.9191   20.4687 C   0  0  2  0  0  0
  -29.8456  -15.5118   20.8126 N   0  0  0  0  0  0
  -30.3293  -24.9369   21.6569 O   0  0  0  0  0  0
  -31.1323  -20.4671   20.8052 O   0  0  0  0  0  0
  -31.2110  -17.8599   21.2477 S   0  0  0  0  0  0
  -31.4728  -12.3943   19.1273 H   0  0  0  0  0  0
  -30.3379  -11.2876   19.8534 H   0  0  0  0  0  0
  -29.7289  -11.6858   17.4659 H   0  0  0  0  0  0
  -29.6807  -13.4047   17.7232 H   0  0  0  0  0  0
  -27.8131  -11.2802   18.8302 H   0  0  0  0  0  0
  -27.3672  -12.6007   17.7841 H   0  0  0  0  0  0
  -27.6861  -14.2193   19.5460 H   0  0  0  0  0  0
  -28.6850  -11.9601   21.3502 H   0  0  0  0  0  0
  -28.4728  -13.6060   21.8588 H   0  0  0  0  0  0
  -25.2751   -9.5688   22.4734 H   0  0  0  0  0  0
  -23.9991   -7.4635   22.7477 H   0  0  0  0  0  0
  -21.0820   -8.8733   19.8941 H   0  0  0  0  0  0
  -22.3668  -10.9638   19.6141 H   0  0  0  0  0  0
  -21.2029   -7.6148   23.9710 H   0  0  0  0  0  0
  -21.1473   -6.0528   25.9068 H   0  0  0  0  0  0
  -22.0604   -2.7611   23.2859 H   0  0  0  0  0  0
  -22.4103  -11.9852   22.4780 H   0  0  0  0  0  0
  -21.1068  -13.1210   22.2630 H   0  0  0  0  0  0
  -24.6401  -15.8240   20.5635 H   0  0  0  0  0  0
  -26.2596  -15.6388   20.1262 H   0  0  0  0  0  0
  -26.7110  -32.5531   23.1145 H   0  0  0  0  0  0
  -25.0035  -33.9794   25.0458 H   0  0  0  0  0  0
  -22.6899  -31.3055   21.4090 H   0  0  0  0  0  0
  -23.3751  -35.9653   23.3304 H   0  0  0  0  0  0
  -24.3582  -36.8935   22.2053 H   0  0  0  0  0  0
  -23.7238  -37.6528   23.6647 H   0  0  0  0  0  0
  -26.0411  -31.5953   20.5922 H   0  0  0  0  0  0
  -26.8160  -30.8856   21.9824 H   0  0  0  0  0  0
  -28.0959  -29.1138   21.1552 H   0  0  0  0  0  0
  -26.0389  -25.9561   19.0379 H   0  0  0  0  0  0
  -23.9798  -27.2746   19.0567 H   0  0  0  0  0  0
  -23.7081  -30.5871   19.4016 H   0  0  0  0  0  0
  -22.7326  -29.2295   19.8773 H   0  0  0  0  0  0
  -25.1289  -36.1995   25.0824 H   0  0  0  0  0  0
  -20.9951  -28.3234   24.1444 H   0  0  0  0  0  0
  -20.5701  -26.2269   23.3607 H   0  0  0  0  0  0
  -21.6637  -26.7470   22.1190 H   0  0  0  0  0  0
  -19.6910  -25.6302   21.1243 H   0  0  0  0  0  0
  -19.6685  -27.3207   20.6758 H   0  0  0  0  0  0
  -17.4198  -26.6691   21.4019 H   0  0  0  0  0  0
  -18.0310  -26.0064   22.9011 H   0  0  0  0  0  0
  -19.7922  -30.7264   24.2287 H   0  0  0  0  0  0
  -17.5002  -31.6267   24.5161 H   0  0  0  0  0  0
  -15.5343  -30.2992   23.7640 H   0  0  0  0  0  0
  -15.8662  -28.0824   22.7055 H   0  0  0  0  0  0
  -24.5850  -30.7123   25.7763 H   0  0  0  0  0  0
  -24.8920  -32.2895   26.4921 H   0  0  0  0  0  0
  -25.8020  -30.8854   27.0206 H   0  0  0  0  0  0
  -26.2848  -29.6823   24.1135 H   0  0  0  0  0  0
  -27.4023  -29.7284   25.4583 H   0  0  0  0  0  0
  -27.8690  -30.4369   23.9289 H   0  0  0  0  0  0
  -27.2663  -33.3621   26.2084 H   0  0  0  0  0  0
  -28.3816  -32.6918   25.0279 H   0  0  0  0  0  0
  -28.0739  -31.8439   26.5360 H   0  0  0  0  0  0
  -28.2597  -38.0126   24.7529 H   0  0  0  0  0  0
  -28.1102  -36.2658   24.6247 H   0  0  0  0  0  0
  -27.2310  -37.1420   25.8861 H   0  0  0  0  0  0
  -20.9306  -29.8725   21.6923 H   0  0  0  0  0  0
  -26.0195  -38.2885   24.1400 H   0  0  0  0  0  0
  -29.0037  -19.6469   18.9916 H   0  0  0  0  0  0
  -27.7495  -15.8162   17.0336 H   0  0  0  0  0  0
  -29.3377  -15.5867   17.7564 H   0  0  0  0  0  0
  -29.0004  -17.0399   16.8258 H   0  0  0  0  0  0
  -32.5051  -23.9212   17.4004 H   0  0  0  0  0  0
  -33.3120  -23.9998   18.9545 H   0  0  0  0  0  0
  -31.8870  -24.9927   18.6486 H   0  0  0  0  0  0
  -32.7937  -23.9640   21.2376 H   0  0  0  0  0  0
  -32.9856  -22.2256   21.1338 H   0  0  0  0  0  0
  -32.0221  -22.9241   22.4216 H   0  0  0  0  0  0
  -27.4033  -17.8294   18.5248 H   0  0  0  0  0  0
  -27.4937  -16.3504   19.4020 H   0  0  0  0  0  0
  -27.9201  -24.2119   20.5733 H   0  0  0  0  0  0
  -28.7193  -23.5277   19.1876 H   0  0  0  0  0  0
  -31.9707  -21.9272   18.7940 H   0  0  0  0  0  0
  -30.5610  -22.8044   18.3322 H   0  0  0  0  0  0
  -28.0196  -25.6376   18.3520 H   0  0  0  0  0  0
  -29.6764  -25.8835   18.7104 H   0  0  0  0  0  0
  -29.4175  -21.4930   20.1369 H   0  0  0  0  0  0
  -29.8158  -21.6765   21.8195 H   0  0  0  0  0  0
  -28.9018  -15.2188   21.0093 H   0  0  0  0  0  0
  1 25  1  0  0  0
  1 30  2  0  0  0
  1 85  1  0  0  0
  2  3  1  0  0  0
  2 25  1  0  0  0
  2 89  1  0  0  0
  2 90  1  0  0  0
  3  4  1  0  0  0
  3 91  1  0  0  0
  3 92  1  0  0  0
  4  5  1  0  0  0
  4 93  1  0  0  0
  4 94  1  0  0  0
  5  6  1  0  0  0
  5 26  1  0  0  0
  5 95  1  0  0  0
  6 25  1  0  0  0
  6 96  1  0  0  0
  6 97  1  0  0  0
  7  8  2  0  0  0
  7 26  1  0  0  0
  7 29  1  0  0  0
  8  9  1  0  0  0
  8 22  1  0  0  0
  9 10  1  0  0  0
  9 27  2  0  0  0
 10 11  2  0  0  0
 10 15  1  0  0  0
 11 12  1  0  0  0
 11 98  1  0  0  0
 12 13  2  0  0  0
 12 99  1  0  0  0
 13 14  1  0  0  0
 13 31  1  0  0  0
 14 15  2  0  0  0
 14100  1  0  0  0
 15101  1  0  0  0
 16 17  2  0  0  0
 16 21  1  0  0  0
 16 31  1  0  0  0
 17 18  1  0  0  0
 17102  1  0  0  0
 18 19  2  0  0  0
 18103  1  0  0  0
 19 20  1  0  0  0
 19 24  1  0  0  0
 20 21  2  0  0  0
 20104  1  0  0  0
 21 23  1  0  0  0
 22 28  1  0  0  0
 22 32  2  0  0  0
 26 27  1  0  0  0
 28105  1  0  0  0
 28106  1  0  0  0
 29107  1  0  0  0
 29108  1  0  0  0
 33 34  1  0  0  0
 33 66  1  0  0  0
 33 70  2  0  0  0
 34 36  1  0  0  0
 34 59  1  0  0  0
 34109  1  0  0  0
 35 44  2  0  0  0
 35 45  1  0  0  0
 35 68  1  0  0  0
 36 56  1  0  0  0
 36110  1  0  0  0
 37 39  1  0  0  0
 37 47  1  0  0  0
 37 66  1  0  0  0
 37111  1  0  0  0
 38 43  2  0  0  0
 38 46  1  0  0  0
 38 47  1  0  0  0
 39 64  1  0  0  0
 39 67  2  0  0  0
 40 52  1  0  0  0
 40 53  2  0  0  0
 40 58  1  0  0  0
 41112  1  0  0  0
 41113  1  0  0  0
 41114  1  0  0  0
 41 48  1  0  0  0
 42 43  1  0  0  0
 42 66  1  0  0  0
 42115  1  0  0  0
 42116  1  0  0  0
 43 44  1  0  0  0
 44117  1  0  0  0
 45 46  2  0  0  0
 45118  1  0  0  0
 46119  1  0  0  0
 47120  1  0  0  0
 47121  1  0  0  0
 48 56  1  0  0  0
 48 65  1  0  0  0
 48122  1  0  0  0
 49 50  1  0  0  0
 49 53  1  0  0  0
 49 64  1  0  0  0
 49123  1  0  0  0
 50 51  1  0  0  0
 50124  1  0  0  0
 50125  1  0  0  0
 51 52  1  0  0  0
 51126  1  0  0  0
 51127  1  0  0  0
 52128  1  0  0  0
 52129  1  0  0  0
 53 54  1  0  0  0
 54 55  2  0  0  0
 54130  1  0  0  0
 55 57  1  0  0  0
 55131  1  0  0  0
 56 69  2  0  0  0
 57 58  2  0  0  0
 57132  1  0  0  0
 58133  1  0  0  0
 59 60  1  0  0  0
 59 61  1  0  0  0
 59 62  1  0  0  0
 60134  1  0  0  0
 60135  1  0  0  0
 60136  1  0  0  0
 61137  1  0  0  0
 61138  1  0  0  0
 61139  1  0  0  0
 62140  1  0  0  0
 62141  1  0  0  0
 62142  1  0  0  0
 63 65  1  0  0  0
 63143  1  0  0  0
 63144  1  0  0  0
 63145  1  0  0  0
 64146  1  0  0  0
 65147  1  0  0  0
 68 82  1  0  0  0
 71 72  1  0  0  0
 71 74  2  0  0  0
 71148  1  0  0  0
 72 73  2  0  0  0
 72 79  1  0  0  0
 73 85  1  0  0  0
 73 88  1  0  0  0
 74 87  1  0  0  0
 74 88  1  0  0  0
 75 80  1  0  0  0
 75 86  2  0  0  0
 75 84  1  0  0  0
 76 79  1  0  0  0
 76149  1  0  0  0
 76150  1  0  0  0
 76151  1  0  0  0
 77 81  1  0  0  0
 77152  1  0  0  0
 77153  1  0  0  0
 77154  1  0  0  0
 78155  1  0  0  0
 78156  1  0  0  0
 78157  1  0  0  0
 78 84  1  0  0  0
 79158  1  0  0  0
 79159  1  0  0  0
 80 82  1  0  0  0
 80160  1  0  0  0
 80161  1  0  0  0
 81 84  1  0  0  0
 81162  1  0  0  0
 81163  1  0  0  0
 82164  1  0  0  0
 82165  1  0  0  0
 83 84  1  0  0  0
 83 87  1  0  0  0
 83166  1  0  0  0
 83167  1  0  0  0
 85168  1  0  0  0
M  ISO  4   1 100  68 101  82 101  85 100
M  END
> <chiral flag>
0

> <version>
0

> <s_m_source_file>
/data/baiqing/PycharmProjects/Reinvent-master-3.2/result/LINK_invent/BTK/process_docking_weight1_custom_product_contain_oxygen_bond_distance_aromatic_linkinvent_7_9_3/rearranged_h_0142.sdf

> <i_m_source_file_index>
57

> <r_mmod_Potential_Energy-OPLS-2005>
-12.8621311187744

> <r_mmod_Stretch_Energy-OPLS-2005>
38.1791381835938

> <r_mmod_Bend_Energy-OPLS-2005>
115.220069885254

> <r_mmod_Torsional_Energy-OPLS-2005>
245.165832519531

> <r_mmod_Improper_Torsional_Energy-OPLS-2005>
6.28463935852051

> <r_mmod_Van_der_Waal_Energy-OPLS-2005>
130.177001953125

> <r_mmod_Electrostatic_Energy-OPLS-2005>
-332.464172363281

> <r_mmod_Solvation_Energy-OPLS-2005>
-232.152786254883

> <b_mmod_Minimization_Converged-OPLS-2005>
0

> <r_mmod_RMS_Derivative-OPLS-2005>
2.04542851448059

$$$$
57
                    3D
 Structure written by MMmdl.
162171  0  0  1  0            999 V2000
  -30.6092  -14.6009   20.5581 C   0  0  0  0  0  0
  -30.4412  -12.3815   19.4388 C   0  0  0  0  0  0
  -29.5050  -12.5302   18.2177 C   0  0  0  0  0  0
  -28.0270  -12.3663   18.6263 C   0  0  0  0  0  0
  -27.6594  -13.2093   19.8762 C   0  0  2  0  0  0
  -28.7006  -13.0045   20.9991 C   0  0  0  0  0  0
  -25.2571  -13.8148   20.5686 C   0  0  0  0  0  0
  -24.1829  -13.0421   20.9170 C   0  0  0  0  0  0
  -24.6397  -11.6892   20.8734 C   0  0  0  0  0  0
  -23.9064  -10.4283   21.0402 C   0  0  0  0  0  0
  -24.3621   -9.4203   21.9176 C   0  0  0  0  0  0
  -23.6295   -8.2242   22.0751 C   0  0  0  0  0  0
  -22.4273   -8.0287   21.3546 C   0  0  0  0  0  0
  -21.9911   -9.0255   20.4647 C   0  0  0  0  0  0
  -22.7241  -10.2130   20.3046 C   0  0  0  0  0  0
  -21.6846   -6.0744   22.5284 C   0  0  0  0  0  0
  -21.4016   -6.5652   23.8221 C   0  0  0  0  0  0
  -21.3660   -5.6800   24.9178 C   0  0  0  0  0  0
  -21.6039   -4.3061   24.7228 C   0  0  0  0  0  0
  -21.8817   -3.8153   23.4348 C   0  0  0  0  0  0
  -21.9198   -4.6972   22.3400 C   0  0  0  0  0  0
  -22.7857  -13.5225   21.1854 C   0  0  0  0  0  0
  -22.1662   -4.2165   21.0971 F   0  0  0  0  0  0
  -21.5628   -3.4537   25.7738 F   0  0  0  0  0  0
  -30.0218  -13.3670   20.4547 N   0  0  0  0  0  0
  -26.3011  -12.9326   20.3362 N   0  0  0  0  0  0
  -25.9323  -11.6479   20.5752 N   0  0  0  0  0  0
  -22.0505  -12.8206   22.0413 N   0  0  0  0  0  0
  -25.4274  -15.1877   20.4157 N   0  0  0  0  0  0
  -31.7194  -14.8384   20.0699 O   0  0  0  0  0  0
  -21.6637   -6.8887   21.4246 O   0  0  0  0  0  0
  -22.3539  -14.5544   20.6722 O   0  0  0  0  0  0
  -24.6257  -31.8583   23.2006 C   0  0  0  0  0  0
  -25.9102  -32.4774   23.8339 C   0  0  1  0  0  0
  -27.2352  -27.3268   20.1233 C   0  0  0  0  0  0
  -25.5925  -33.8569   24.2268 N   0  0  0  0  0  0
  -23.4201  -30.4807   21.5413 C   0  0  2  0  0  0
  -24.8649  -28.9314   20.1120 C   0  0  0  0  0  0
  -22.7479  -29.4624   22.4925 C   0  0  0  0  0  0
  -18.0288  -28.1404   22.8483 C   0  0  0  0  0  0
  -24.1489  -36.7272   23.2652 C   0  0  0  0  0  0
  -25.9588  -30.7951   21.3666 C   0  0  0  0  0  0
  -26.0312  -29.4219   20.7107 C   0  0  0  0  0  0
  -27.2141  -28.6309   20.7030 C   0  0  0  0  0  0
  -26.0399  -26.8743   19.5188 C   0  0  0  0  0  0
  -24.8713  -27.6611   19.5118 C   0  0  0  0  0  0
  -23.6325  -29.8118   20.1568 C   0  0  0  0  0  0
  -25.4119  -36.3082   24.0346 C   0  0  1  0  0  0
  -20.5890  -28.3695   23.1304 C   0  0  2  0  0  0
  -20.6774  -26.9418   22.5443 C   0  0  0  0  0  0
  -19.5766  -26.6388   21.5240 C   0  0  0  0  0  0
  -18.1925  -26.7960   22.1600 C   0  0  0  0  0  0
  -19.1541  -28.8865   23.2893 C   0  0  0  0  0  0
  -18.9469  -30.1457   23.8920 C   0  0  0  0  0  0
  -17.6465  -30.6594   24.0582 C   0  0  0  0  0  0
  -25.9047  -34.9446   23.5105 C   0  0  0  0  0  0
  -16.5359  -29.9102   23.6335 C   0  0  0  0  0  0
  -16.7276  -28.6521   23.0351 C   0  0  0  0  0  0
  -26.4500  -31.6595   25.0707 C   0  0  0  0  0  0
  -25.3744  -31.3734   26.1447 C   0  0  0  0  0  0
  -27.0360  -30.3033   24.6148 C   0  0  0  0  0  0
  -27.6082  -32.4331   25.7451 C   0  0  0  0  0  0
  -27.5593  -37.1790   24.8470 C   0  0  0  0  0  0
  -21.4190  -29.3040   22.3691 N   0  0  0  0  0  0
  -26.4291  -37.3779   23.9432 N   0  0  0  0  0  0
  -24.6867  -31.0625   22.0929 N   0  0  0  0  0  0
  -23.4213  -28.8166   23.3002 O   0  0  0  0  0  0
  -28.3951  -26.5427   20.1880 O   0  0  0  0  0  0
  -26.5622  -34.8921   22.4674 O   0  0  0  0  0  0
  -23.5424  -32.1366   23.7337 O   0  0  0  0  0  0
  -29.9578  -19.2649   20.1711 C   0  0  0  0  0  0
  -30.1538  -17.8497   20.0942 C   0  0  0  0  0  0
  -29.2854  -17.6353   22.3225 C   0  0  0  0  0  0
  -29.4435  -19.9123   21.3332 C   0  0  0  0  0  0
  -29.1287  -19.0450   22.4291 C   0  0  0  0  0  0
  -29.8113  -16.9979   21.1777 C   0  0  0  0  0  0
  -28.5193  -24.0127   20.7574 C   0  0  0  0  0  0
  -30.7647  -22.1148   21.7132 C   0  0  0  0  0  0
  -30.7172  -22.6857   20.2937 C   0  0  0  0  0  0
  -29.3833  -21.4881   21.4671 C   0  0  1  0  0  0
  -29.1807  -22.6372   20.3680 C   0  0  1  0  0  0
  -29.8639  -20.0551   24.6372 C   0  0  0  0  0  0
  -28.6796  -19.5593   23.7949 C   0  0  0  0  0  0
  -28.4813  -25.1582   19.6718 C   0  0  0  0  0  0
  -29.8491  -15.5438   21.1858 N   0  0  0  0  0  0
  -28.0249  -24.2571   21.8625 O   0  0  0  0  0  0
  -31.4822  -12.5177   19.1402 H   0  0  0  0  0  0
  -30.3769  -11.3710   19.8459 H   0  0  0  0  0  0
  -29.7648  -11.8007   17.4501 H   0  0  0  0  0  0
  -29.6495  -13.5119   17.7631 H   0  0  0  0  0  0
  -27.8535  -11.3093   18.8289 H   0  0  0  0  0  0
  -27.3736  -12.6250   17.7929 H   0  0  0  0  0  0
  -27.6955  -14.2561   19.5726 H   0  0  0  0  0  0
  -28.7071  -11.9626   21.3243 H   0  0  0  0  0  0
  -28.4343  -13.5778   21.8876 H   0  0  0  0  0  0
  -25.2765   -9.5687   22.4745 H   0  0  0  0  0  0
  -24.0017   -7.4632   22.7459 H   0  0  0  0  0  0
  -21.0845   -8.8765   19.8949 H   0  0  0  0  0  0
  -22.3700  -10.9662   19.6156 H   0  0  0  0  0  0
  -21.2003   -7.6164   23.9734 H   0  0  0  0  0  0
  -21.1479   -6.0523   25.9084 H   0  0  0  0  0  0
  -22.0594   -2.7620   23.2832 H   0  0  0  0  0  0
  -22.4124  -11.9860   22.4779 H   0  0  0  0  0  0
  -21.1128  -13.1225   22.2644 H   0  0  0  0  0  0
  -24.6591  -15.8385   20.5354 H   0  0  0  0  0  0
  -26.2880  -15.6387   20.1310 H   0  0  0  0  0  0
  -26.7173  -32.5440   23.1093 H   0  0  0  0  0  0
  -25.0117  -33.9732   25.0448 H   0  0  0  0  0  0
  -22.7144  -31.3000   21.3956 H   0  0  0  0  0  0
  -23.3764  -35.9586   23.3306 H   0  0  0  0  0  0
  -24.3583  -36.8884   22.2062 H   0  0  0  0  0  0
  -23.7215  -37.6469   23.6663 H   0  0  0  0  0  0
  -26.0955  -31.5598   20.6001 H   0  0  0  0  0  0
  -26.8392  -30.8392   21.9955 H   0  0  0  0  0  0
  -28.1118  -29.0099   21.1702 H   0  0  0  0  0  0
  -25.9660  -25.8977   19.0687 H   0  0  0  0  0  0
  -23.9725  -27.2730   19.0527 H   0  0  0  0  0  0
  -23.7507  -30.5855   19.3976 H   0  0  0  0  0  0
  -22.7547  -29.2378   19.8548 H   0  0  0  0  0  0
  -25.1302  -36.1931   25.0839 H   0  0  0  0  0  0
  -20.9992  -28.3256   24.1419 H   0  0  0  0  0  0
  -20.5672  -26.2304   23.3639 H   0  0  0  0  0  0
  -21.6647  -26.7436   22.1245 H   0  0  0  0  0  0
  -19.6931  -25.6301   21.1265 H   0  0  0  0  0  0
  -19.6729  -27.3196   20.6779 H   0  0  0  0  0  0
  -17.4234  -26.6760   21.3955 H   0  0  0  0  0  0
  -18.0243  -26.0095   22.8967 H   0  0  0  0  0  0
  -19.7952  -30.7264   24.2298 H   0  0  0  0  0  0
  -17.5033  -31.6284   24.5169 H   0  0  0  0  0  0
  -15.5365  -30.3017   23.7662 H   0  0  0  0  0  0
  -15.8669  -28.0852   22.7069 H   0  0  0  0  0  0
  -24.5961  -30.7021   25.7803 H   0  0  0  0  0  0
  -24.8883  -32.2891   26.4824 H   0  0  0  0  0  0
  -25.8085  -30.8983   27.0257 H   0  0  0  0  0  0
  -26.2921  -29.6744   24.1243 H   0  0  0  0  0  0
  -27.4179  -29.7324   25.4628 H   0  0  0  0  0  0
  -27.8732  -30.4356   23.9287 H   0  0  0  0  0  0
  -27.2729  -33.3653   26.2017 H   0  0  0  0  0  0
  -28.3883  -32.6857   25.0251 H   0  0  0  0  0  0
  -28.0771  -31.8464   26.5371 H   0  0  0  0  0  0
  -28.2623  -38.0078   24.7533 H   0  0  0  0  0  0
  -28.1079  -36.2619   24.6263 H   0  0  0  0  0  0
  -27.2332  -37.1401   25.8879 H   0  0  0  0  0  0
  -20.9359  -29.8773   21.6916 H   0  0  0  0  0  0
  -26.0172  -38.2858   24.1439 H   0  0  0  0  0  0
  -30.2415  -19.8674   19.3199 H   0  0  0  0  0  0
  -30.5543  -17.4256   19.1847 H   0  0  0  0  0  0
  -29.0200  -17.0193   23.1705 H   0  0  0  0  0  0
  -30.7441  -22.8907   22.4812 H   0  0  0  0  0  0
  -31.5698  -21.4005   21.8931 H   0  0  0  0  0  0
  -31.1343  -21.9963   19.5572 H   0  0  0  0  0  0
  -31.1626  -23.6768   20.1990 H   0  0  0  0  0  0
  -28.7229  -21.7249   22.2981 H   0  0  0  0  0  0
  -28.7394  -22.2346   19.4568 H   0  0  0  0  0  0
  -29.5587  -20.2657   25.6632 H   0  0  0  0  0  0
  -30.2932  -20.9692   24.2302 H   0  0  0  0  0  0
  -30.6571  -19.3057   24.6770 H   0  0  0  0  0  0
  -28.1958  -18.7464   24.3395 H   0  0  0  0  0  0
  -27.9082  -20.3225   23.7055 H   0  0  0  0  0  0
  -27.7145  -24.9261   18.9365 H   0  0  0  0  0  0
  -29.4181  -25.0999   19.1176 H   0  0  0  0  0  0
  -29.0983  -15.1231   21.7125 H   0  0  0  0  0  0
  1 25  1  0  0  0
  1 30  2  0  0  0
  1 85  1  0  0  0
  2  3  1  0  0  0
  2 25  1  0  0  0
  2 87  1  0  0  0
  2 88  1  0  0  0
  3  4  1  0  0  0
  3 89  1  0  0  0
  3 90  1  0  0  0
  4  5  1  0  0  0
  4 91  1  0  0  0
  4 92  1  0  0  0
  5  6  1  0  0  0
  5 26  1  0  0  0
  5 93  1  0  0  0
  6 25  1  0  0  0
  6 94  1  0  0  0
  6 95  1  0  0  0
  7  8  2  0  0  0
  7 26  1  0  0  0
  7 29  1  0  0  0
  8  9  1  0  0  0
  8 22  1  0  0  0
  9 10  1  0  0  0
  9 27  2  0  0  0
 10 11  2  0  0  0
 10 15  1  0  0  0
 11 12  1  0  0  0
 11 96  1  0  0  0
 12 13  2  0  0  0
 12 97  1  0  0  0
 13 14  1  0  0  0
 13 31  1  0  0  0
 14 15  2  0  0  0
 14 98  1  0  0  0
 15 99  1  0  0  0
 16 17  2  0  0  0
 16 21  1  0  0  0
 16 31  1  0  0  0
 17 18  1  0  0  0
 17100  1  0  0  0
 18 19  2  0  0  0
 18101  1  0  0  0
 19 20  1  0  0  0
 19 24  1  0  0  0
 20 21  2  0  0  0
 20102  1  0  0  0
 21 23  1  0  0  0
 22 28  1  0  0  0
 22 32  2  0  0  0
 26 27  1  0  0  0
 28103  1  0  0  0
 28104  1  0  0  0
 29105  1  0  0  0
 29106  1  0  0  0
 33 34  1  0  0  0
 33 66  1  0  0  0
 33 70  2  0  0  0
 34 36  1  0  0  0
 34 59  1  0  0  0
 34107  1  0  0  0
 35 44  2  0  0  0
 35 45  1  0  0  0
 35 68  1  0  0  0
 36 56  1  0  0  0
 36108  1  0  0  0
 37 39  1  0  0  0
 37 47  1  0  0  0
 37 66  1  0  0  0
 37109  1  0  0  0
 38 43  2  0  0  0
 38 46  1  0  0  0
 38 47  1  0  0  0
 39 64  1  0  0  0
 39 67  2  0  0  0
 40 52  1  0  0  0
 40 53  2  0  0  0
 40 58  1  0  0  0
 41110  1  0  0  0
 41111  1  0  0  0
 41112  1  0  0  0
 41 48  1  0  0  0
 42 43  1  0  0  0
 42 66  1  0  0  0
 42113  1  0  0  0
 42114  1  0  0  0
 43 44  1  0  0  0
 44115  1  0  0  0
 45 46  2  0  0  0
 45116  1  0  0  0
 46117  1  0  0  0
 47118  1  0  0  0
 47119  1  0  0  0
 48 56  1  0  0  0
 48 65  1  0  0  0
 48120  1  0  0  0
 49 50  1  0  0  0
 49 53  1  0  0  0
 49 64  1  0  0  0
 49121  1  0  0  0
 50 51  1  0  0  0
 50122  1  0  0  0
 50123  1  0  0  0
 51 52  1  0  0  0
 51124  1  0  0  0
 51125  1  0  0  0
 52126  1  0  0  0
 52127  1  0  0  0
 53 54  1  0  0  0
 54 55  2  0  0  0
 54128  1  0  0  0
 55 57  1  0  0  0
 55129  1  0  0  0
 56 69  2  0  0  0
 57 58  2  0  0  0
 57130  1  0  0  0
 58131  1  0  0  0
 59 60  1  0  0  0
 59 61  1  0  0  0
 59 62  1  0  0  0
 60132  1  0  0  0
 60133  1  0  0  0
 60134  1  0  0  0
 61135  1  0  0  0
 61136  1  0  0  0
 61137  1  0  0  0
 62138  1  0  0  0
 62139  1  0  0  0
 62140  1  0  0  0
 63 65  1  0  0  0
 63141  1  0  0  0
 63142  1  0  0  0
 63143  1  0  0  0
 64144  1  0  0  0
 65145  1  0  0  0
 68 84  1  0  0  0
 71 72  2  0  0  0
 71 74  1  0  0  0
 71146  1  0  0  0
 72 76  1  0  0  0
 72147  1  0  0  0
 73 75  1  0  0  0
 73 76  2  0  0  0
 73148  1  0  0  0
 74 75  2  0  0  0
 74 80  1  0  0  0
 75 83  1  0  0  0
 76 85  1  0  0  0
 77 84  1  0  0  0
 77 86  2  0  0  0
 77 81  1  0  0  0
 78 79  1  0  0  0
 78 80  1  0  0  0
 78149  1  0  0  0
 78150  1  0  0  0
 79 81  1  0  0  0
 79151  1  0  0  0
 79152  1  0  0  0
 80 81  1  0  0  0
 80153  1  0  0  0
 81154  1  0  0  0
 82 83  1  0  0  0
 82155  1  0  0  0
 82156  1  0  0  0
 82157  1  0  0  0
 83158  1  0  0  0
 83159  1  0  0  0
 84160  1  0  0  0
 84161  1  0  0  0
 85162  1  0  0  0
M  ISO  4   1 100  68 101  84 101  85 100
M  END
> <chiral flag>
0

> <version>
0

> <s_m_source_file>
/data/baiqing/PycharmProjects/Reinvent-master-3.2/result/LINK_invent/BTK/process_docking_weight1_custom_product_contain_oxygen_bond_distance_aromatic_linkinvent_7_9_3/rearranged_h_0142.sdf

> <i_m_source_file_index>
58

> <r_mmod_Potential_Energy-OPLS-2005>
107.171546936035

> <r_mmod_Stretch_Energy-OPLS-2005>
81.7988128662109

> <r_mmod_Bend_Energy-OPLS-2005>
167.6689453125

> <r_mmod_Torsional_Energy-OPLS-2005>
241.825897216797

> <r_mmod_Improper_Torsional_Energy-OPLS-2005>
3.26829719543457

> <r_mmod_Van_der_Waal_Energy-OPLS-2005>
141.621063232422

> <r_mmod_Electrostatic_Energy-OPLS-2005>
-344.788696289062

> <r_mmod_Solvation_Energy-OPLS-2005>
-223.420776367188

> <b_mmod_Minimization_Converged-OPLS-2005>
0

> <r_mmod_RMS_Derivative-OPLS-2005>
2.86107301712036

$$$$
58
                    3D
 Structure written by MMmdl.
158167  0  0  1  0            999 V2000
  -30.7133  -14.5157   20.5493 C   0  0  0  0  0  0
  -30.4175  -12.3297   19.4364 C   0  0  0  0  0  0
  -29.4955  -12.5024   18.2125 C   0  0  0  0  0  0
  -28.0183  -12.3588   18.6257 C   0  0  0  0  0  0
  -27.6565  -13.2164   19.8685 C   0  0  2  0  0  0
  -28.7008  -13.0451   20.9959 C   0  0  0  0  0  0
  -25.2567  -13.8179   20.5689 C   0  0  0  0  0  0
  -24.1828  -13.0441   20.9178 C   0  0  0  0  0  0
  -24.6396  -11.6912   20.8730 C   0  0  0  0  0  0
  -23.9065  -10.4296   21.0399 C   0  0  0  0  0  0
  -24.3617   -9.4212   21.9179 C   0  0  0  0  0  0
  -23.6293   -8.2245   22.0752 C   0  0  0  0  0  0
  -22.4274   -8.0282   21.3541 C   0  0  0  0  0  0
  -21.9908   -9.0255   20.4645 C   0  0  0  0  0  0
  -22.7235  -10.2135   20.3051 C   0  0  0  0  0  0
  -21.6854   -6.0735   22.5278 C   0  0  0  0  0  0
  -21.4017   -6.5639   23.8212 C   0  0  0  0  0  0
  -21.3658   -5.6792   24.9175 C   0  0  0  0  0  0
  -21.6044   -4.3055   24.7227 C   0  0  0  0  0  0
  -21.8818   -3.8144   23.4349 C   0  0  0  0  0  0
  -21.9196   -4.6961   22.3403 C   0  0  0  0  0  0
  -22.7853  -13.5236   21.1845 C   0  0  0  0  0  0
  -22.1663   -4.2146   21.0981 F   0  0  0  0  0  0
  -21.5629   -3.4539   25.7741 F   0  0  0  0  0  0
  -30.0264  -13.3433   20.4325 N   0  0  0  0  0  0
  -26.3008  -12.9364   20.3351 N   0  0  0  0  0  0
  -25.9329  -11.6518   20.5767 N   0  0  0  0  0  0
  -22.0493  -12.8224   22.0399 N   0  0  0  0  0  0
  -25.4276  -15.1902   20.4113 N   0  0  0  0  0  0
  -31.8531  -14.6409   20.0966 O   0  0  0  0  0  0
  -21.6639   -6.8876   21.4239 O   0  0  0  0  0  0
  -22.3538  -14.5545   20.6700 O   0  0  0  0  0  0
  -24.6186  -31.8660   23.2085 C   0  0  0  0  0  0
  -25.9067  -32.4813   23.8393 C   0  0  1  0  0  0
  -27.2263  -27.4051   20.0985 C   0  0  0  0  0  0
  -25.5909  -33.8610   24.2323 N   0  0  0  0  0  0
  -23.4093  -30.4902   21.5494 C   0  0  2  0  0  0
  -24.8577  -28.9609   20.1062 C   0  0  0  0  0  0
  -22.7444  -29.4648   22.4968 C   0  0  0  0  0  0
  -18.0281  -28.1381   22.8491 C   0  0  0  0  0  0
  -24.1485  -36.7308   23.2636 C   0  0  0  0  0  0
  -25.9429  -30.8232   21.3681 C   0  0  0  0  0  0
  -26.0220  -29.4587   20.7080 C   0  0  0  0  0  0
  -27.2141  -28.6885   20.7015 C   0  0  0  0  0  0
  -26.0494  -26.9406   19.4728 C   0  0  0  0  0  0
  -24.8683  -27.7031   19.4819 C   0  0  0  0  0  0
  -23.6195  -29.8277   20.1624 C   0  0  0  0  0  0
  -25.4106  -36.3106   24.0337 C   0  0  1  0  0  0
  -20.5877  -28.3674   23.1302 C   0  0  2  0  0  0
  -20.6768  -26.9405   22.5413 C   0  0  0  0  0  0
  -19.5745  -26.6388   21.5210 C   0  0  0  0  0  0
  -18.1924  -26.7928   22.1622 C   0  0  0  0  0  0
  -19.1531  -28.8846   23.2892 C   0  0  0  0  0  0
  -18.9456  -30.1451   23.8903 C   0  0  0  0  0  0
  -17.6456  -30.6582   24.0566 C   0  0  0  0  0  0
  -25.9039  -34.9470   23.5129 C   0  0  0  0  0  0
  -16.5349  -29.9083   23.6328 C   0  0  0  0  0  0
  -16.7270  -28.6503   23.0349 C   0  0  0  0  0  0
  -26.4477  -31.6596   25.0731 C   0  0  0  0  0  0
  -25.3732  -31.3714   26.1477 C   0  0  0  0  0  0
  -27.0304  -30.3030   24.6131 C   0  0  0  0  0  0
  -27.6056  -32.4310   25.7493 C   0  0  0  0  0  0
  -27.5578  -37.1812   24.8465 C   0  0  0  0  0  0
  -21.4164  -29.3036   22.3708 N   0  0  0  0  0  0
  -26.4291  -37.3792   23.9405 N   0  0  0  0  0  0
  -24.6753  -31.0735   22.1002 N   0  0  0  0  0  0
  -23.4204  -28.8187   23.3017 O   0  0  0  0  0  0
  -28.3143  -26.5506   20.1669 O   0  0  0  0  0  0
  -26.5598  -34.8925   22.4689 O   0  0  0  0  0  0
  -23.5367  -32.1426   23.7454 O   0  0  0  0  0  0
  -31.2703  -19.6704   21.4797 C   0  0  0  0  0  0
  -31.8350  -17.3010   21.3161 C   0  0  0  0  0  0
  -29.9008  -19.3854   21.2965 C   0  0  0  0  0  0
  -30.4721  -16.9583   21.1349 C   0  0  0  0  0  0
  -32.2269  -18.6416   21.4798 C   0  0  0  0  0  0
  -29.5146  -18.0147   21.1284 C   0  0  0  0  0  0
  -28.5679  -24.1228   20.5934 C   0  0  0  0  0  0
  -28.0313  -25.3508   20.8091 C   0  0  0  0  0  0
  -28.9151  -20.4939   21.4492 C   0  0  0  0  0  0
  -29.6766  -23.7349   19.6459 C   0  0  0  0  0  0
  -28.0921  -22.8730   21.3185 C   0  0  0  0  0  0
  -30.0620  -22.2820   20.0181 C   0  0  0  0  0  0
  -29.0336  -21.7755   20.9614 N   0  0  0  0  0  0
  -30.0266  -15.5847   21.0236 N   0  0  0  0  0  0
  -27.8274  -20.2375   22.1758 N   0  3  0  0  0  0
  -33.5333  -18.9434   21.6728 F   0  0  0  0  0  0
  -28.2047  -17.6840   21.0042 F   0  0  0  0  0  0
  -31.4634  -12.4126   19.1353 H   0  0  0  0  0  0
  -30.3113  -11.3290   19.8582 H   0  0  0  0  0  0
  -29.7419  -11.7656   17.4468 H   0  0  0  0  0  0
  -29.6598  -13.4814   17.7591 H   0  0  0  0  0  0
  -27.8383  -11.3046   18.8389 H   0  0  0  0  0  0
  -27.3665  -12.6140   17.7893 H   0  0  0  0  0  0
  -27.6855  -14.2571   19.5456 H   0  0  0  0  0  0
  -28.6850  -12.0236   21.3787 H   0  0  0  0  0  0
  -28.4625  -13.6837   21.8477 H   0  0  0  0  0  0
  -25.2763   -9.5691   22.4751 H   0  0  0  0  0  0
  -24.0005   -7.4638   22.7471 H   0  0  0  0  0  0
  -21.0838   -8.8773   19.8952 H   0  0  0  0  0  0
  -22.3692  -10.9673   19.6160 H   0  0  0  0  0  0
  -21.2005   -7.6148   23.9715 H   0  0  0  0  0  0
  -21.1480   -6.0522   25.9078 H   0  0  0  0  0  0
  -22.0598   -2.7606   23.2852 H   0  0  0  0  0  0
  -22.4107  -11.9888   22.4790 H   0  0  0  0  0  0
  -21.1110  -13.1248   22.2598 H   0  0  0  0  0  0
  -24.6596  -15.8428   20.5231 H   0  0  0  0  0  0
  -26.2827  -15.6375   20.1059 H   0  0  0  0  0  0
  -26.7142  -32.5524   23.1157 H   0  0  0  0  0  0
  -25.0066  -33.9769   25.0473 H   0  0  0  0  0  0
  -22.6996  -31.3083   21.4110 H   0  0  0  0  0  0
  -23.3743  -35.9646   23.3317 H   0  0  0  0  0  0
  -24.3575  -36.8903   22.2045 H   0  0  0  0  0  0
  -23.7243  -37.6521   23.6640 H   0  0  0  0  0  0
  -26.0626  -31.5917   20.6029 H   0  0  0  0  0  0
  -26.8274  -30.8723   21.9916 H   0  0  0  0  0  0
  -28.1074  -29.0559   21.1866 H   0  0  0  0  0  0
  -26.0382  -25.9670   19.0023 H   0  0  0  0  0  0
  -23.9753  -27.3145   19.0121 H   0  0  0  0  0  0
  -23.7271  -30.6057   19.4058 H   0  0  0  0  0  0
  -22.7430  -29.2490   19.8650 H   0  0  0  0  0  0
  -25.1280  -36.1973   25.0830 H   0  0  0  0  0  0
  -20.9970  -28.3246   24.1423 H   0  0  0  0  0  0
  -20.5664  -26.2283   23.3605 H   0  0  0  0  0  0
  -21.6638  -26.7440   22.1205 H   0  0  0  0  0  0
  -19.6903  -25.6303   21.1228 H   0  0  0  0  0  0
  -19.6677  -27.3206   20.6746 H   0  0  0  0  0  0
  -17.4191  -26.6680   21.4028 H   0  0  0  0  0  0
  -18.0323  -26.0067   22.9014 H   0  0  0  0  0  0
  -19.7931  -30.7267   24.2272 H   0  0  0  0  0  0
  -17.5009  -31.6262   24.5164 H   0  0  0  0  0  0
  -15.5348  -30.2982   23.7650 H   0  0  0  0  0  0
  -15.8672  -28.0821   22.7059 H   0  0  0  0  0  0
  -24.5906  -30.7062   25.7812 H   0  0  0  0  0  0
  -24.8925  -32.2874   26.4924 H   0  0  0  0  0  0
  -25.8077  -30.8883   27.0237 H   0  0  0  0  0  0
  -26.2858  -29.6802   24.1161 H   0  0  0  0  0  0
  -27.4032  -29.7262   25.4604 H   0  0  0  0  0  0
  -27.8716  -30.4332   23.9317 H   0  0  0  0  0  0
  -27.2684  -33.3607   26.2088 H   0  0  0  0  0  0
  -28.3859  -32.6869   25.0312 H   0  0  0  0  0  0
  -28.0731  -31.8419   26.5391 H   0  0  0  0  0  0
  -28.2612  -38.0092   24.7502 H   0  0  0  0  0  0
  -28.1059  -36.2629   24.6309 H   0  0  0  0  0  0
  -27.2298  -37.1485   25.8869 H   0  0  0  0  0  0
  -20.9334  -29.8760   21.6926 H   0  0  0  0  0  0
  -26.0186  -38.2874   24.1397 H   0  0  0  0  0  0
  -31.6051  -20.6744   21.6840 H   0  0  0  0  0  0
  -32.6065  -16.5494   21.3653 H   0  0  0  0  0  0
  -27.2381  -25.4694   21.5370 H   0  0  0  0  0  0
  -30.5209  -24.4177   19.7450 H   0  0  0  0  0  0
  -29.3176  -23.7862   18.6177 H   0  0  0  0  0  0
  -27.0793  -22.6321   20.9904 H   0  0  0  0  0  0
  -28.0742  -23.0509   22.3953 H   0  0  0  0  0  0
  -31.0437  -22.2934   20.4888 H   0  0  0  0  0  0
  -30.1283  -21.6529   19.1287 H   0  0  0  0  0  0
  -29.0537  -15.4229   21.2341 H   0  0  0  0  0  0
  -27.6570  -19.2859   22.4681 H   0  0  0  0  0  0
  -27.1105  -20.9225   22.3380 H   0  0  0  0  0  0
  1 25  1  0  0  0
  1 30  2  0  0  0
  1 84  1  0  0  0
  2  3  1  0  0  0
  2 25  1  0  0  0
  2 88  1  0  0  0
  2 89  1  0  0  0
  3  4  1  0  0  0
  3 90  1  0  0  0
  3 91  1  0  0  0
  4  5  1  0  0  0
  4 92  1  0  0  0
  4 93  1  0  0  0
  5  6  1  0  0  0
  5 26  1  0  0  0
  5 94  1  0  0  0
  6 25  1  0  0  0
  6 95  1  0  0  0
  6 96  1  0  0  0
  7  8  2  0  0  0
  7 26  1  0  0  0
  7 29  1  0  0  0
  8  9  1  0  0  0
  8 22  1  0  0  0
  9 10  1  0  0  0
  9 27  2  0  0  0
 10 11  2  0  0  0
 10 15  1  0  0  0
 11 12  1  0  0  0
 11 97  1  0  0  0
 12 13  2  0  0  0
 12 98  1  0  0  0
 13 14  1  0  0  0
 13 31  1  0  0  0
 14 15  2  0  0  0
 14 99  1  0  0  0
 15100  1  0  0  0
 16 17  2  0  0  0
 16 21  1  0  0  0
 16 31  1  0  0  0
 17 18  1  0  0  0
 17101  1  0  0  0
 18 19  2  0  0  0
 18102  1  0  0  0
 19 20  1  0  0  0
 19 24  1  0  0  0
 20 21  2  0  0  0
 20103  1  0  0  0
 21 23  1  0  0  0
 22 28  1  0  0  0
 22 32  2  0  0  0
 26 27  1  0  0  0
 28104  1  0  0  0
 28105  1  0  0  0
 29106  1  0  0  0
 29107  1  0  0  0
 33 34  1  0  0  0
 33 66  1  0  0  0
 33 70  2  0  0  0
 34 36  1  0  0  0
 34 59  1  0  0  0
 34108  1  0  0  0
 35 44  2  0  0  0
 35 45  1  0  0  0
 35 68  1  0  0  0
 36 56  1  0  0  0
 36109  1  0  0  0
 37 39  1  0  0  0
 37 47  1  0  0  0
 37 66  1  0  0  0
 37110  1  0  0  0
 38 43  2  0  0  0
 38 46  1  0  0  0
 38 47  1  0  0  0
 39 64  1  0  0  0
 39 67  2  0  0  0
 40 52  1  0  0  0
 40 53  2  0  0  0
 40 58  1  0  0  0
 41111  1  0  0  0
 41112  1  0  0  0
 41113  1  0  0  0
 41 48  1  0  0  0
 42 43  1  0  0  0
 42 66  1  0  0  0
 42114  1  0  0  0
 42115  1  0  0  0
 43 44  1  0  0  0
 44116  1  0  0  0
 45 46  2  0  0  0
 45117  1  0  0  0
 46118  1  0  0  0
 47119  1  0  0  0
 47120  1  0  0  0
 48 56  1  0  0  0
 48 65  1  0  0  0
 48121  1  0  0  0
 49 50  1  0  0  0
 49 53  1  0  0  0
 49 64  1  0  0  0
 49122  1  0  0  0
 50 51  1  0  0  0
 50123  1  0  0  0
 50124  1  0  0  0
 51 52  1  0  0  0
 51125  1  0  0  0
 51126  1  0  0  0
 52127  1  0  0  0
 52128  1  0  0  0
 53 54  1  0  0  0
 54 55  2  0  0  0
 54129  1  0  0  0
 55 57  1  0  0  0
 55130  1  0  0  0
 56 69  2  0  0  0
 57 58  2  0  0  0
 57131  1  0  0  0
 58132  1  0  0  0
 59 60  1  0  0  0
 59 61  1  0  0  0
 59 62  1  0  0  0
 60133  1  0  0  0
 60134  1  0  0  0
 60135  1  0  0  0
 61136  1  0  0  0
 61137  1  0  0  0
 61138  1  0  0  0
 62139  1  0  0  0
 62140  1  0  0  0
 62141  1  0  0  0
 63 65  1  0  0  0
 63142  1  0  0  0
 63143  1  0  0  0
 63144  1  0  0  0
 64145  1  0  0  0
 65146  1  0  0  0
 68 78  1  0  0  0
 71 73  2  0  0  0
 71 75  1  0  0  0
 71147  1  0  0  0
 72 74  1  0  0  0
 72 75  2  0  0  0
 72148  1  0  0  0
 73 76  1  0  0  0
 73 79  1  0  0  0
 74 76  2  0  0  0
 74 84  1  0  0  0
 75 86  1  0  0  0
 76 87  1  0  0  0
 77 78  2  0  0  0
 77 80  1  0  0  0
 77 81  1  0  0  0
 78149  1  0  0  0
 79 83  1  0  0  0
 79 85  2  0  0  0
 80 82  1  0  0  0
 80150  1  0  0  0
 80151  1  0  0  0
 81 83  1  0  0  0
 81152  1  0  0  0
 81153  1  0  0  0
 82 83  1  0  0  0
 82154  1  0  0  0
 82155  1  0  0  0
 84156  1  0  0  0
 85157  1  0  0  0
 85158  1  0  0  0
M  CHG  1  85   1
M  ISO  4   1 100  68 101  78 101  84 100
M  END
> <chiral flag>
0

> <version>
0

> <s_m_source_file>
/data/baiqing/PycharmProjects/Reinvent-master-3.2/result/LINK_invent/BTK/process_docking_weight1_custom_product_contain_oxygen_bond_distance_aromatic_linkinvent_7_9_3/rearranged_h_0142.sdf

> <i_m_source_file_index>
59

> <r_mmod_Potential_Energy-OPLS-2005>
-233.838516235352

> <r_mmod_Stretch_Energy-OPLS-2005>
49.1615943908691

> <r_mmod_Bend_Energy-OPLS-2005>
128.970687866211

> <r_mmod_Torsional_Energy-OPLS-2005>
243.22135925293

> <r_mmod_Improper_Torsional_Energy-OPLS-2005>
5.12637329101562

> <r_mmod_Van_der_Waal_Energy-OPLS-2005>
161.175354003906

> <r_mmod_Electrostatic_Energy-OPLS-2005>
-441.836822509766

> <r_mmod_Solvation_Energy-OPLS-2005>
-403.751647949219

> <b_mmod_Minimization_Converged-OPLS-2005>
0

> <r_mmod_RMS_Derivative-OPLS-2005>
0.696701347827911

$$$$
59
                    3D
 Structure written by MMmdl.
168176  0  0  1  0            999 V2000
  -30.5763  -14.5907   20.5479 C   0  0  0  0  0  0
  -30.4541  -12.3724   19.4241 C   0  0  0  0  0  0
  -29.5076  -12.5170   18.2094 C   0  0  0  0  0  0
  -28.0269  -12.3514   18.6193 C   0  0  0  0  0  0
  -27.6571  -13.1907   19.8694 C   0  0  2  0  0  0
  -28.7051  -12.9710   20.9845 C   0  0  0  0  0  0
  -25.2611  -13.8107   20.5680 C   0  0  0  0  0  0
  -24.1844  -13.0409   20.9185 C   0  0  0  0  0  0
  -24.6364  -11.6863   20.8719 C   0  0  0  0  0  0
  -23.9024  -10.4267   21.0396 C   0  0  0  0  0  0
  -24.3593   -9.4189   21.9168 C   0  0  0  0  0  0
  -23.6284   -8.2220   22.0734 C   0  0  0  0  0  0
  -22.4261   -8.0249   21.3533 C   0  0  0  0  0  0
  -21.9890   -9.0217   20.4633 C   0  0  0  0  0  0
  -22.7200  -10.2103   20.3045 C   0  0  0  0  0  0
  -21.6857   -6.0714   22.5285 C   0  0  0  0  0  0
  -21.4007   -6.5622   23.8212 C   0  0  0  0  0  0
  -21.3658   -5.6771   24.9174 C   0  0  0  0  0  0
  -21.6058   -4.3040   24.7219 C   0  0  0  0  0  0
  -21.8830   -3.8126   23.4344 C   0  0  0  0  0  0
  -21.9192   -4.6948   22.3398 C   0  0  0  0  0  0
  -22.7877  -13.5221   21.1862 C   0  0  0  0  0  0
  -22.1671   -4.2138   21.0978 F   0  0  0  0  0  0
  -21.5638   -3.4523   25.7735 F   0  0  0  0  0  0
  -30.0194  -13.3476   20.4359 N   0  0  0  0  0  0
  -26.3001  -12.9237   20.3327 N   0  0  0  0  0  0
  -25.9281  -11.6426   20.5735 N   0  0  0  0  0  0
  -22.0514  -12.8204   22.0414 N   0  0  0  0  0  0
  -25.4364  -15.1827   20.4117 N   0  0  0  0  0  0
  -31.7313  -14.8389   20.1895 O   0  0  0  0  0  0
  -21.6635   -6.8841   21.4236 O   0  0  0  0  0  0
  -22.3569  -14.5528   20.6712 O   0  0  0  0  0  0
  -24.6190  -31.8605   23.2043 C   0  0  0  0  0  0
  -25.9063  -32.4786   23.8352 C   0  0  1  0  0  0
  -27.2320  -27.3739   20.1216 C   0  0  0  0  0  0
  -25.5908  -33.8589   24.2277 N   0  0  0  0  0  0
  -23.4102  -30.4817   21.5441 C   0  0  2  0  0  0
  -24.8563  -28.9336   20.1177 C   0  0  0  0  0  0
  -22.7427  -29.4623   22.4948 C   0  0  0  0  0  0
  -18.0277  -28.1400   22.8481 C   0  0  0  0  0  0
  -24.1492  -36.7316   23.2636 C   0  0  0  0  0  0
  -25.9416  -30.8106   21.3617 C   0  0  0  0  0  0
  -26.0197  -29.4385   20.7132 C   0  0  0  0  0  0
  -27.2105  -28.6694   20.7018 C   0  0  0  0  0  0
  -26.0485  -26.8897   19.5243 C   0  0  0  0  0  0
  -24.8689  -27.6622   19.5165 C   0  0  0  0  0  0
  -23.6220  -29.8092   20.1618 C   0  0  0  0  0  0
  -25.4114  -36.3080   24.0325 C   0  0  1  0  0  0
  -20.5872  -28.3691   23.1316 C   0  0  2  0  0  0
  -20.6778  -26.9424   22.5418 C   0  0  0  0  0  0
  -19.5763  -26.6393   21.5217 C   0  0  0  0  0  0
  -18.1936  -26.7943   22.1620 C   0  0  0  0  0  0
  -19.1526  -28.8857   23.2897 C   0  0  0  0  0  0
  -18.9461  -30.1469   23.8907 C   0  0  0  0  0  0
  -17.6463  -30.6605   24.0580 C   0  0  0  0  0  0
  -25.9048  -34.9451   23.5093 C   0  0  0  0  0  0
  -16.5354  -29.9107   23.6342 C   0  0  0  0  0  0
  -16.7266  -28.6531   23.0342 C   0  0  0  0  0  0
  -26.4473  -31.6596   25.0710 C   0  0  0  0  0  0
  -25.3739  -31.3728   26.1462 C   0  0  0  0  0  0
  -27.0314  -30.3034   24.6121 C   0  0  0  0  0  0
  -27.6036  -32.4330   25.7473 C   0  0  0  0  0  0
  -27.5579  -37.1804   24.8461 C   0  0  0  0  0  0
  -21.4145  -29.3048   22.3706 N   0  0  0  0  0  0
  -26.4292  -37.3772   23.9398 N   0  0  0  0  0  0
  -24.6752  -31.0667   22.0954 N   0  0  0  0  0  0
  -23.4172  -28.8164   23.3010 O   0  0  0  0  0  0
  -28.3949  -26.6155   20.1216 O   0  0  0  0  0  0
  -26.5616  -34.8905   22.4660 O   0  0  0  0  0  0
  -23.5381  -32.1377   23.7426 O   0  0  0  0  0  0
  -28.9803  -19.4979   22.2565 C   0  0  0  0  0  0
  -29.8363  -18.0420   20.5118 C   0  0  0  0  0  0
  -28.8195  -18.3918   23.1163 C   0  0  0  0  0  0
  -29.1301  -17.0781   22.6575 C   0  0  0  0  0  0
  -29.6489  -16.8916   21.3440 C   0  0  0  0  0  0
  -29.4939  -19.3640   20.9489 C   0  0  0  0  0  0
  -28.2095  -18.7011   24.4393 C   0  0  0  0  0  0
  -28.8220  -15.8431   23.5078 C   0  0  0  0  0  0
  -28.9951  -18.3209   25.6895 C   0  0  0  0  0  0
  -29.5557  -22.3993   17.9898 C   0  0  0  0  0  0
  -30.8387  -23.3583   19.9064 C   0  0  0  0  0  0
  -28.4663  -24.1800   19.3517 C   0  0  0  0  0  0
  -28.3296  -25.2144   20.5213 C   0  0  0  0  0  0
  -28.9433  -21.7238   20.3407 C   0  0  0  0  0  0
  -29.4345  -22.9203   19.4385 C   0  0  0  0  0  0
  -29.6396  -15.5403   20.8283 N   0  0  0  0  0  0
  -27.1531  -19.3272   24.5602 O   0  0  0  0  0  0
  -29.6602  -20.4688   20.1038 O   0  0  0  0  0  0
  -31.4908  -12.5340   19.1201 H   0  0  0  0  0  0
  -30.4106  -11.3593   19.8254 H   0  0  0  0  0  0
  -29.7635  -11.7918   17.4367 H   0  0  0  0  0  0
  -29.6523  -13.5011   17.7614 H   0  0  0  0  0  0
  -27.8484  -11.2929   18.8171 H   0  0  0  0  0  0
  -27.3751  -12.6186   17.7874 H   0  0  0  0  0  0
  -27.6872  -14.2331   19.5583 H   0  0  0  0  0  0
  -28.7180  -11.9248   21.2966 H   0  0  0  0  0  0
  -28.4508  -13.5304   21.8841 H   0  0  0  0  0  0
  -25.2747   -9.5678   22.4727 H   0  0  0  0  0  0
  -24.0007   -7.4610   22.7456 H   0  0  0  0  0  0
  -21.0816   -8.8714   19.8940 H   0  0  0  0  0  0
  -22.3650  -10.9628   19.6147 H   0  0  0  0  0  0
  -21.1996   -7.6131   23.9710 H   0  0  0  0  0  0
  -21.1483   -6.0501   25.9077 H   0  0  0  0  0  0
  -22.0614   -2.7590   23.2845 H   0  0  0  0  0  0
  -22.4142  -11.9863   22.4802 H   0  0  0  0  0  0
  -21.1132  -13.1230   22.2635 H   0  0  0  0  0  0
  -24.6667  -15.8330   20.5209 H   0  0  0  0  0  0
  -26.2743  -15.6223   20.0528 H   0  0  0  0  0  0
  -26.7129  -32.5463   23.1101 H   0  0  0  0  0  0
  -25.0058  -33.9751   25.0416 H   0  0  0  0  0  0
  -22.7034  -31.3011   21.4003 H   0  0  0  0  0  0
  -23.3737  -35.9671   23.3293 H   0  0  0  0  0  0
  -24.3578  -36.8940   22.2053 H   0  0  0  0  0  0
  -23.7267  -37.6520   23.6670 H   0  0  0  0  0  0
  -26.0569  -31.5695   20.5874 H   0  0  0  0  0  0
  -26.8302  -30.8705   21.9787 H   0  0  0  0  0  0
  -28.1092  -29.0542   21.1630 H   0  0  0  0  0  0
  -26.0355  -25.9124   19.0646 H   0  0  0  0  0  0
  -23.9737  -27.2680   19.0540 H   0  0  0  0  0  0
  -23.7368  -30.5815   19.4001 H   0  0  0  0  0  0
  -22.7449  -29.2314   19.8634 H   0  0  0  0  0  0
  -25.1287  -36.1928   25.0823 H   0  0  0  0  0  0
  -20.9978  -28.3266   24.1437 H   0  0  0  0  0  0
  -20.5715  -26.2287   23.3598 H   0  0  0  0  0  0
  -21.6639  -26.7477   22.1193 H   0  0  0  0  0  0
  -19.6926  -25.6302   21.1253 H   0  0  0  0  0  0
  -19.6720  -27.3203   20.6752 H   0  0  0  0  0  0
  -17.4202  -26.6700   21.4023 H   0  0  0  0  0  0
  -18.0337  -26.0093   22.9028 H   0  0  0  0  0  0
  -19.7935  -30.7290   24.2268 H   0  0  0  0  0  0
  -17.5017  -31.6280   24.5189 H   0  0  0  0  0  0
  -15.5360  -30.3020   23.7660 H   0  0  0  0  0  0
  -15.8662  -28.0868   22.7041 H   0  0  0  0  0  0
  -24.5892  -30.7097   25.7790 H   0  0  0  0  0  0
  -24.8966  -32.2910   26.4908 H   0  0  0  0  0  0
  -25.8089  -30.8874   27.0211 H   0  0  0  0  0  0
  -26.2873  -29.6787   24.1175 H   0  0  0  0  0  0
  -27.4068  -29.7277   25.4588 H   0  0  0  0  0  0
  -27.8699  -30.4319   23.9277 H   0  0  0  0  0  0
  -27.2635  -33.3612   26.2072 H   0  0  0  0  0  0
  -28.3836  -32.6929   25.0308 H   0  0  0  0  0  0
  -28.0725  -31.8456   26.5372 H   0  0  0  0  0  0
  -28.2583  -38.0111   24.7497 H   0  0  0  0  0  0
  -28.1080  -36.2637   24.6285 H   0  0  0  0  0  0
  -27.2299  -37.1455   25.8865 H   0  0  0  0  0  0
  -20.9309  -29.8748   21.6906 H   0  0  0  0  0  0
  -26.0169  -38.2838   24.1414 H   0  0  0  0  0  0
  -28.6891  -20.4627   22.6433 H   0  0  0  0  0  0
  -30.1730  -17.9065   19.4938 H   0  0  0  0  0  0
  -29.6281  -15.1135   23.4308 H   0  0  0  0  0  0
  -27.8951  -15.3847   23.1596 H   0  0  0  0  0  0
  -28.7004  -16.0286   24.5705 H   0  0  0  0  0  0
  -28.4224  -17.6132   26.2890 H   0  0  0  0  0  0
  -29.1857  -19.2046   26.2982 H   0  0  0  0  0  0
  -29.9532  -17.8740   25.4296 H   0  0  0  0  0  0
  -28.5850  -22.0921   17.5998 H   0  0  0  0  0  0
  -30.2274  -21.5442   17.9064 H   0  0  0  0  0  0
  -29.9474  -23.1666   17.3215 H   0  0  0  0  0  0
  -31.5640  -22.5541   19.7834 H   0  0  0  0  0  0
  -30.8507  -23.6292   20.9633 H   0  0  0  0  0  0
  -31.2009  -24.2200   19.3437 H   0  0  0  0  0  0
  -28.7885  -24.7702   18.4925 H   0  0  0  0  0  0
  -27.4664  -23.8406   19.0789 H   0  0  0  0  0  0
  -29.1395  -25.0764   21.2349 H   0  0  0  0  0  0
  -27.4209  -25.0108   21.0901 H   0  0  0  0  0  0
  -27.8828  -21.5398   20.1653 H   0  0  0  0  0  0
  -29.0321  -22.0526   21.3748 H   0  0  0  0  0  0
  -28.7547  -15.0836   20.9790 H   0  0  0  0  0  0
  1 25  1  0  0  0
  1 30  2  0  0  0
  1 86  1  0  0  0
  2  3  1  0  0  0
  2 25  1  0  0  0
  2 89  1  0  0  0
  2 90  1  0  0  0
  3  4  1  0  0  0
  3 91  1  0  0  0
  3 92  1  0  0  0
  4  5  1  0  0  0
  4 93  1  0  0  0
  4 94  1  0  0  0
  5  6  1  0  0  0
  5 26  1  0  0  0
  5 95  1  0  0  0
  6 25  1  0  0  0
  6 96  1  0  0  0
  6 97  1  0  0  0
  7  8  2  0  0  0
  7 26  1  0  0  0
  7 29  1  0  0  0
  8  9  1  0  0  0
  8 22  1  0  0  0
  9 10  1  0  0  0
  9 27  2  0  0  0
 10 11  2  0  0  0
 10 15  1  0  0  0
 11 12  1  0  0  0
 11 98  1  0  0  0
 12 13  2  0  0  0
 12 99  1  0  0  0
 13 14  1  0  0  0
 13 31  1  0  0  0
 14 15  2  0  0  0
 14100  1  0  0  0
 15101  1  0  0  0
 16 17  2  0  0  0
 16 21  1  0  0  0
 16 31  1  0  0  0
 17 18  1  0  0  0
 17102  1  0  0  0
 18 19  2  0  0  0
 18103  1  0  0  0
 19 20  1  0  0  0
 19 24  1  0  0  0
 20 21  2  0  0  0
 20104  1  0  0  0
 21 23  1  0  0  0
 22 28  1  0  0  0
 22 32  2  0  0  0
 26 27  1  0  0  0
 28105  1  0  0  0
 28106  1  0  0  0
 29107  1  0  0  0
 29108  1  0  0  0
 33 34  1  0  0  0
 33 66  1  0  0  0
 33 70  2  0  0  0
 34 36  1  0  0  0
 34 59  1  0  0  0
 34109  1  0  0  0
 35 44  2  0  0  0
 35 45  1  0  0  0
 35 68  1  0  0  0
 36 56  1  0  0  0
 36110  1  0  0  0
 37 39  1  0  0  0
 37 47  1  0  0  0
 37 66  1  0  0  0
 37111  1  0  0  0
 38 43  2  0  0  0
 38 46  1  0  0  0
 38 47  1  0  0  0
 39 64  1  0  0  0
 39 67  2  0  0  0
 40 52  1  0  0  0
 40 53  2  0  0  0
 40 58  1  0  0  0
 41112  1  0  0  0
 41113  1  0  0  0
 41114  1  0  0  0
 41 48  1  0  0  0
 42 43  1  0  0  0
 42 66  1  0  0  0
 42115  1  0  0  0
 42116  1  0  0  0
 43 44  1  0  0  0
 44117  1  0  0  0
 45 46  2  0  0  0
 45118  1  0  0  0
 46119  1  0  0  0
 47120  1  0  0  0
 47121  1  0  0  0
 48 56  1  0  0  0
 48 65  1  0  0  0
 48122  1  0  0  0
 49 50  1  0  0  0
 49 53  1  0  0  0
 49 64  1  0  0  0
 49123  1  0  0  0
 50 51  1  0  0  0
 50124  1  0  0  0
 50125  1  0  0  0
 51 52  1  0  0  0
 51126  1  0  0  0
 51127  1  0  0  0
 52128  1  0  0  0
 52129  1  0  0  0
 53 54  1  0  0  0
 54 55  2  0  0  0
 54130  1  0  0  0
 55 57  1  0  0  0
 55131  1  0  0  0
 56 69  2  0  0  0
 57 58  2  0  0  0
 57132  1  0  0  0
 58133  1  0  0  0
 59 60  1  0  0  0
 59 61  1  0  0  0
 59 62  1  0  0  0
 60134  1  0  0  0
 60135  1  0  0  0
 60136  1  0  0  0
 61137  1  0  0  0
 61138  1  0  0  0
 61139  1  0  0  0
 62140  1  0  0  0
 62141  1  0  0  0
 62142  1  0  0  0
 63 65  1  0  0  0
 63143  1  0  0  0
 63144  1  0  0  0
 63145  1  0  0  0
 64146  1  0  0  0
 65147  1  0  0  0
 68 83  1  0  0  0
 71 73  2  0  0  0
 71 76  1  0  0  0
 71148  1  0  0  0
 72 75  1  0  0  0
 72 76  2  0  0  0
 72149  1  0  0  0
 73 74  1  0  0  0
 73 77  1  0  0  0
 74 75  2  0  0  0
 74 78  1  0  0  0
 75 86  1  0  0  0
 76 88  1  0  0  0
 77 79  1  0  0  0
 77 87  2  0  0  0
 78150  1  0  0  0
 78151  1  0  0  0
 78152  1  0  0  0
 79153  1  0  0  0
 79154  1  0  0  0
 79155  1  0  0  0
 80156  1  0  0  0
 80157  1  0  0  0
 80158  1  0  0  0
 80 85  1  0  0  0
 81 85  1  0  0  0
 81159  1  0  0  0
 81160  1  0  0  0
 81161  1  0  0  0
 82 83  1  0  0  0
 82 85  1  0  0  0
 82162  1  0  0  0
 82163  1  0  0  0
 83164  1  0  0  0
 83165  1  0  0  0
 84 85  1  0  0  0
 84 88  1  0  0  0
 84166  1  0  0  0
 84167  1  0  0  0
 86168  1  0  0  0
M  ISO  4   1 100  68 101  83 101  86 100
M  END
> <chiral flag>
0

> <version>
0

> <s_m_source_file>
/data/baiqing/PycharmProjects/Reinvent-master-3.2/result/LINK_invent/BTK/process_docking_weight1_custom_product_contain_oxygen_bond_distance_aromatic_linkinvent_7_9_3/rearranged_h_0142.sdf

> <i_m_source_file_index>
60

> <r_mmod_Potential_Energy-OPLS-2005>
108.528343200684

> <r_mmod_Stretch_Energy-OPLS-2005>
63.6263275146484

> <r_mmod_Bend_Energy-OPLS-2005>
153.764892578125

> <r_mmod_Torsional_Energy-OPLS-2005>
317.719085693359

> <r_mmod_Improper_Torsional_Energy-OPLS-2005>
11.4532871246338

> <r_mmod_Van_der_Waal_Energy-OPLS-2005>
154.488037109375

> <r_mmod_Electrostatic_Energy-OPLS-2005>
-409.687194824219

> <r_mmod_Solvation_Energy-OPLS-2005>
-215.645812988281

> <b_mmod_Minimization_Converged-OPLS-2005>
0

> <r_mmod_RMS_Derivative-OPLS-2005>
2.6321713924408

$$$$
60
                    3D
 Structure written by MMmdl.
157166  0  0  1  0            999 V2000
  -30.6654  -14.5740   20.5380 C   0  0  0  0  0  0
  -30.4305  -12.3637   19.4385 C   0  0  0  0  0  0
  -29.5026  -12.5042   18.2134 C   0  0  0  0  0  0
  -28.0255  -12.3457   18.6283 C   0  0  0  0  0  0
  -27.6537  -13.2137   19.8611 C   0  0  2  0  0  0
  -28.6970  -13.0535   20.9890 C   0  0  0  0  0  0
  -25.2575  -13.8173   20.5672 C   0  0  0  0  0  0
  -24.1839  -13.0446   20.9179 C   0  0  0  0  0  0
  -24.6394  -11.6912   20.8734 C   0  0  0  0  0  0
  -23.9056  -10.4300   21.0400 C   0  0  0  0  0  0
  -24.3608   -9.4215   21.9176 C   0  0  0  0  0  0
  -23.6287   -8.2246   22.0755 C   0  0  0  0  0  0
  -22.4271   -8.0280   21.3548 C   0  0  0  0  0  0
  -21.9904   -9.0250   20.4646 C   0  0  0  0  0  0
  -22.7227  -10.2133   20.3051 C   0  0  0  0  0  0
  -21.6858   -6.0732   22.5275 C   0  0  0  0  0  0
  -21.4013   -6.5632   23.8207 C   0  0  0  0  0  0
  -21.3666   -5.6789   24.9170 C   0  0  0  0  0  0
  -21.6046   -4.3049   24.7224 C   0  0  0  0  0  0
  -21.8815   -3.8142   23.4347 C   0  0  0  0  0  0
  -21.9193   -4.6962   22.3404 C   0  0  0  0  0  0
  -22.7862  -13.5237   21.1836 C   0  0  0  0  0  0
  -22.1663   -4.2143   21.0984 F   0  0  0  0  0  0
  -21.5635   -3.4537   25.7739 F   0  0  0  0  0  0
  -30.0149  -13.3781   20.4230 N   0  0  0  0  0  0
  -26.2990  -12.9344   20.3299 N   0  0  0  0  0  0
  -25.9317  -11.6502   20.5739 N   0  0  0  0  0  0
  -22.0501  -12.8245   22.0404 N   0  0  0  0  0  0
  -25.4314  -15.1892   20.4087 N   0  0  0  0  0  0
  -31.8258  -14.7240   20.1473 O   0  0  0  0  0  0
  -21.6645   -6.8873   21.4236 O   0  0  0  0  0  0
  -22.3549  -14.5538   20.6677 O   0  0  0  0  0  0
  -24.6207  -31.8627   23.2051 C   0  0  0  0  0  0
  -25.9077  -32.4795   23.8364 C   0  0  1  0  0  0
  -27.2305  -27.3719   20.1131 C   0  0  0  0  0  0
  -25.5915  -33.8592   24.2298 N   0  0  0  0  0  0
  -23.4135  -30.4850   21.5460 C   0  0  2  0  0  0
  -24.8634  -28.9428   20.1136 C   0  0  0  0  0  0
  -22.7446  -29.4641   22.4957 C   0  0  0  0  0  0
  -18.0283  -28.1381   22.8488 C   0  0  0  0  0  0
  -24.1492  -36.7303   23.2640 C   0  0  0  0  0  0
  -25.9488  -30.8091   21.3693 C   0  0  0  0  0  0
  -26.0276  -29.4379   20.7178 C   0  0  0  0  0  0
  -27.2179  -28.6600   20.7157 C   0  0  0  0  0  0
  -26.0529  -26.9097   19.4945 C   0  0  0  0  0  0
  -24.8743  -27.6807   19.4950 C   0  0  0  0  0  0
  -23.6268  -29.8161   20.1621 C   0  0  0  0  0  0
  -25.4115  -36.3090   24.0332 C   0  0  1  0  0  0
  -20.5876  -28.3681   23.1294 C   0  0  2  0  0  0
  -20.6773  -26.9411   22.5416 C   0  0  0  0  0  0
  -19.5756  -26.6386   21.5213 C   0  0  0  0  0  0
  -18.1929  -26.7928   22.1616 C   0  0  0  0  0  0
  -19.1530  -28.8849   23.2887 C   0  0  0  0  0  0
  -18.9458  -30.1453   23.8902 C   0  0  0  0  0  0
  -17.6457  -30.6584   24.0567 C   0  0  0  0  0  0
  -25.9048  -34.9460   23.5115 C   0  0  0  0  0  0
  -16.5349  -29.9081   23.6334 C   0  0  0  0  0  0
  -16.7271  -28.6498   23.0356 C   0  0  0  0  0  0
  -26.4485  -31.6586   25.0710 C   0  0  0  0  0  0
  -25.3738  -31.3706   26.1450 C   0  0  0  0  0  0
  -27.0332  -30.3023   24.6128 C   0  0  0  0  0  0
  -27.6054  -32.4314   25.7471 C   0  0  0  0  0  0
  -27.5586  -37.1802   24.8465 C   0  0  0  0  0  0
  -21.4168  -29.3033   22.3685 N   0  0  0  0  0  0
  -26.4298  -37.3781   23.9409 N   0  0  0  0  0  0
  -24.6792  -31.0680   22.0977 N   0  0  0  0  0  0
  -23.4181  -28.8197   23.3040 O   0  0  0  0  0  0
  -28.3288  -26.5229   20.1057 O   0  0  0  0  0  0
  -26.5610  -34.8922   22.4678 O   0  0  0  0  0  0
  -23.5384  -32.1410   23.7406 O   0  0  0  0  0  0
  -28.8963  -19.1539   18.4047 C   0  0  0  0  0  0
  -29.3480  -18.0442   19.1486 C   0  0  0  0  0  0
  -28.8697  -20.4497   18.9662 C   0  0  0  0  0  0
  -29.7442  -19.5332   21.0332 C   0  0  0  0  0  0
  -29.7901  -18.2139   20.4761 C   0  0  0  0  0  0
  -29.2828  -20.6763   20.2975 C   0  0  0  0  0  0
  -28.6888  -24.3317   21.2557 C   0  0  0  0  0  0
  -28.4508  -25.6793   21.1996 C   0  0  0  0  0  0
  -28.8095  -23.6110   22.5824 C   0  0  0  0  0  0
  -28.8678  -23.2620   20.1648 C   0  0  0  0  0  0
  -29.3615  -22.2072   22.2891 C   0  0  0  0  0  0
  -30.3787  -17.0164   21.2746 C   0  0  0  0  0  0
  -29.2289  -21.9955   20.8550 N   0  0  0  0  0  0
  -29.9216  -15.6303   20.9623 N   0  0  0  0  0  0
  -31.4739  -12.4770   19.1386 H   0  0  0  0  0  0
  -30.3499  -11.3657   19.8720 H   0  0  0  0  0  0
  -29.7619  -11.7626   17.4563 H   0  0  0  0  0  0
  -29.6518  -13.4807   17.7493 H   0  0  0  0  0  0
  -27.8587  -11.2919   18.8552 H   0  0  0  0  0  0
  -27.3714  -12.5808   17.7885 H   0  0  0  0  0  0
  -27.6771  -14.2515   19.5268 H   0  0  0  0  0  0
  -28.6981  -12.0303   21.3673 H   0  0  0  0  0  0
  -28.4485  -13.6842   21.8444 H   0  0  0  0  0  0
  -25.2758   -9.5689   22.4743 H   0  0  0  0  0  0
  -24.0005   -7.4638   22.7471 H   0  0  0  0  0  0
  -21.0838   -8.8754   19.8954 H   0  0  0  0  0  0
  -22.3677  -10.9663   19.6157 H   0  0  0  0  0  0
  -21.1996   -7.6139   23.9701 H   0  0  0  0  0  0
  -21.1501   -6.0527   25.9071 H   0  0  0  0  0  0
  -22.0591   -2.7603   23.2848 H   0  0  0  0  0  0
  -22.4114  -11.9913   22.4817 H   0  0  0  0  0  0
  -21.1104  -13.1262   22.2577 H   0  0  0  0  0  0
  -24.6672  -15.8474   20.5143 H   0  0  0  0  0  0
  -26.2834  -15.6247   20.0792 H   0  0  0  0  0  0
  -26.7148  -32.5491   23.1121 H   0  0  0  0  0  0
  -25.0063  -33.9743   25.0441 H   0  0  0  0  0  0
  -22.7059  -31.3042   21.4042 H   0  0  0  0  0  0
  -23.3752  -35.9641   23.3306 H   0  0  0  0  0  0
  -24.3589  -36.8920   22.2057 H   0  0  0  0  0  0
  -23.7251  -37.6507   23.6658 H   0  0  0  0  0  0
  -26.0711  -31.5725   20.5990 H   0  0  0  0  0  0
  -26.8319  -30.8612   21.9944 H   0  0  0  0  0  0
  -28.1154  -29.0323   21.1891 H   0  0  0  0  0  0
  -26.0482  -25.9351   19.0255 H   0  0  0  0  0  0
  -23.9821  -27.2960   19.0215 H   0  0  0  0  0  0
  -23.7362  -30.5907   19.4021 H   0  0  0  0  0  0
  -22.7494  -29.2378   19.8667 H   0  0  0  0  0  0
  -25.1297  -36.1944   25.0826 H   0  0  0  0  0  0
  -20.9976  -28.3259   24.1412 H   0  0  0  0  0  0
  -20.5685  -26.2292   23.3608 H   0  0  0  0  0  0
  -21.6642  -26.7450   22.1209 H   0  0  0  0  0  0
  -19.6920  -25.6298   21.1240 H   0  0  0  0  0  0
  -19.6698  -27.3198   20.6744 H   0  0  0  0  0  0
  -17.4208  -26.6695   21.4005 H   0  0  0  0  0  0
  -18.0318  -26.0059   22.8997 H   0  0  0  0  0  0
  -19.7935  -30.7270   24.2270 H   0  0  0  0  0  0
  -17.5014  -31.6269   24.5163 H   0  0  0  0  0  0
  -15.5350  -30.2988   23.7654 H   0  0  0  0  0  0
  -15.8672  -28.0821   22.7067 H   0  0  0  0  0  0
  -24.5893  -30.7085   25.7771 H   0  0  0  0  0  0
  -24.8956  -32.2872   26.4914 H   0  0  0  0  0  0
  -25.8071  -30.8843   27.0200 H   0  0  0  0  0  0
  -26.2897  -29.6760   24.1189 H   0  0  0  0  0  0
  -27.4100  -29.7280   25.4603 H   0  0  0  0  0  0
  -27.8729  -30.4336   23.9300 H   0  0  0  0  0  0
  -27.2667  -33.3595   26.2088 H   0  0  0  0  0  0
  -28.3831  -32.6912   25.0275 H   0  0  0  0  0  0
  -28.0764  -31.8421   26.5349 H   0  0  0  0  0  0
  -28.2601  -38.0101   24.7509 H   0  0  0  0  0  0
  -28.1081  -36.2630   24.6285 H   0  0  0  0  0  0
  -27.2308  -37.1451   25.8869 H   0  0  0  0  0  0
  -20.9340  -29.8722   21.6870 H   0  0  0  0  0  0
  -26.0181  -38.2858   24.1400 H   0  0  0  0  0  0
  -28.5723  -19.0142   17.3829 H   0  0  0  0  0  0
  -29.3744  -17.0675   18.6846 H   0  0  0  0  0  0
  -28.5183  -21.2669   18.3537 H   0  0  0  0  0  0
  -30.0911  -19.6590   22.0490 H   0  0  0  0  0  0
  -28.3465  -26.2441   22.1163 H   0  0  0  0  0  0
  -27.8135  -23.5297   23.0200 H   0  0  0  0  0  0
  -29.4371  -24.1603   23.2861 H   0  0  0  0  0  0
  -29.6496  -23.5646   19.4661 H   0  0  0  0  0  0
  -27.9347  -23.1477   19.6110 H   0  0  0  0  0  0
  -28.8143  -21.4538   22.8579 H   0  0  0  0  0  0
  -30.4135  -22.1373   22.5701 H   0  0  0  0  0  0
  -30.1696  -17.1848   22.3318 H   0  0  0  0  0  0
  -31.4650  -17.0747   21.1869 H   0  0  0  0  0  0
  -28.9634  -15.4207   21.1967 H   0  0  0  0  0  0
  1 25  1  0  0  0
  1 30  2  0  0  0
  1 84  1  0  0  0
  2  3  1  0  0  0
  2 25  1  0  0  0
  2 85  1  0  0  0
  2 86  1  0  0  0
  3  4  1  0  0  0
  3 87  1  0  0  0
  3 88  1  0  0  0
  4  5  1  0  0  0
  4 89  1  0  0  0
  4 90  1  0  0  0
  5  6  1  0  0  0
  5 26  1  0  0  0
  5 91  1  0  0  0
  6 25  1  0  0  0
  6 92  1  0  0  0
  6 93  1  0  0  0
  7  8  2  0  0  0
  7 26  1  0  0  0
  7 29  1  0  0  0
  8  9  1  0  0  0
  8 22  1  0  0  0
  9 10  1  0  0  0
  9 27  2  0  0  0
 10 11  2  0  0  0
 10 15  1  0  0  0
 11 12  1  0  0  0
 11 94  1  0  0  0
 12 13  2  0  0  0
 12 95  1  0  0  0
 13 14  1  0  0  0
 13 31  1  0  0  0
 14 15  2  0  0  0
 14 96  1  0  0  0
 15 97  1  0  0  0
 16 17  2  0  0  0
 16 21  1  0  0  0
 16 31  1  0  0  0
 17 18  1  0  0  0
 17 98  1  0  0  0
 18 19  2  0  0  0
 18 99  1  0  0  0
 19 20  1  0  0  0
 19 24  1  0  0  0
 20 21  2  0  0  0
 20100  1  0  0  0
 21 23  1  0  0  0
 22 28  1  0  0  0
 22 32  2  0  0  0
 26 27  1  0  0  0
 28101  1  0  0  0
 28102  1  0  0  0
 29103  1  0  0  0
 29104  1  0  0  0
 33 34  1  0  0  0
 33 66  1  0  0  0
 33 70  2  0  0  0
 34 36  1  0  0  0
 34 59  1  0  0  0
 34105  1  0  0  0
 35 44  2  0  0  0
 35 45  1  0  0  0
 35 68  1  0  0  0
 36 56  1  0  0  0
 36106  1  0  0  0
 37 39  1  0  0  0
 37 47  1  0  0  0
 37 66  1  0  0  0
 37107  1  0  0  0
 38 43  2  0  0  0
 38 46  1  0  0  0
 38 47  1  0  0  0
 39 64  1  0  0  0
 39 67  2  0  0  0
 40 52  1  0  0  0
 40 53  2  0  0  0
 40 58  1  0  0  0
 41108  1  0  0  0
 41109  1  0  0  0
 41110  1  0  0  0
 41 48  1  0  0  0
 42 43  1  0  0  0
 42 66  1  0  0  0
 42111  1  0  0  0
 42112  1  0  0  0
 43 44  1  0  0  0
 44113  1  0  0  0
 45 46  2  0  0  0
 45114  1  0  0  0
 46115  1  0  0  0
 47116  1  0  0  0
 47117  1  0  0  0
 48 56  1  0  0  0
 48 65  1  0  0  0
 48118  1  0  0  0
 49 50  1  0  0  0
 49 53  1  0  0  0
 49 64  1  0  0  0
 49119  1  0  0  0
 50 51  1  0  0  0
 50120  1  0  0  0
 50121  1  0  0  0
 51 52  1  0  0  0
 51122  1  0  0  0
 51123  1  0  0  0
 52124  1  0  0  0
 52125  1  0  0  0
 53 54  1  0  0  0
 54 55  2  0  0  0
 54126  1  0  0  0
 55 57  1  0  0  0
 55127  1  0  0  0
 56 69  2  0  0  0
 57 58  2  0  0  0
 57128  1  0  0  0
 58129  1  0  0  0
 59 60  1  0  0  0
 59 61  1  0  0  0
 59 62  1  0  0  0
 60130  1  0  0  0
 60131  1  0  0  0
 60132  1  0  0  0
 61133  1  0  0  0
 61134  1  0  0  0
 61135  1  0  0  0
 62136  1  0  0  0
 62137  1  0  0  0
 62138  1  0  0  0
 63 65  1  0  0  0
 63139  1  0  0  0
 63140  1  0  0  0
 63141  1  0  0  0
 64142  1  0  0  0
 65143  1  0  0  0
 68 78  1  0  0  0
 71 72  2  0  0  0
 71 73  1  0  0  0
 71144  1  0  0  0
 72 75  1  0  0  0
 72145  1  0  0  0
 73 76  2  0  0  0
 73146  1  0  0  0
 74 75  2  0  0  0
 74 76  1  0  0  0
 74147  1  0  0  0
 75 82  1  0  0  0
 76 83  1  0  0  0
 77 78  2  0  0  0
 77 79  1  0  0  0
 77 80  1  0  0  0
 78148  1  0  0  0
 79 81  1  0  0  0
 79149  1  0  0  0
 79150  1  0  0  0
 80 83  1  0  0  0
 80151  1  0  0  0
 80152  1  0  0  0
 81 83  1  0  0  0
 81153  1  0  0  0
 81154  1  0  0  0
 82 84  1  0  0  0
 82155  1  0  0  0
 82156  1  0  0  0
 84157  1  0  0  0
M  ISO  4   1 100  68 101  78 101  84 100
M  END
> <chiral flag>
0

> <version>
0

> <s_m_source_file>
/data/baiqing/PycharmProjects/Reinvent-master-3.2/result/LINK_invent/BTK/process_docking_weight1_custom_product_contain_oxygen_bond_distance_aromatic_linkinvent_7_9_3/rearranged_h_0142.sdf

> <i_m_source_file_index>
61

> <r_mmod_Potential_Energy-OPLS-2005>
-24.4748802185059

> <r_mmod_Stretch_Energy-OPLS-2005>
54.9409523010254

> <r_mmod_Bend_Energy-OPLS-2005>
160.006576538086

> <r_mmod_Torsional_Energy-OPLS-2005>
224.774780273438

> <r_mmod_Improper_Torsional_Energy-OPLS-2005>
3.68377351760864

> <r_mmod_Van_der_Waal_Energy-OPLS-2005>
137.758285522461

> <r_mmod_Electrostatic_Energy-OPLS-2005>
-408.834564208984

> <r_mmod_Solvation_Energy-OPLS-2005>
-228.031005859375

> <b_mmod_Minimization_Converged-OPLS-2005>
0

> <r_mmod_RMS_Derivative-OPLS-2005>
1.20920896530151

$$$$
61
                    3D
 Structure written by MMmdl.
171179  0  0  1  0            999 V2000
  -30.6573  -14.5458   20.5086 C   0  0  0  0  0  0
  -30.4266  -12.3225   19.4684 C   0  0  0  0  0  0
  -29.5153  -12.4946   18.2325 C   0  0  0  0  0  0
  -28.0271  -12.3723   18.6236 C   0  0  0  0  0  0
  -27.6594  -13.2123   19.8778 C   0  0  2  0  0  0
  -28.6990  -13.0253   21.0074 C   0  0  0  0  0  0
  -25.2602  -13.8168   20.5744 C   0  0  0  0  0  0
  -24.1848  -13.0450   20.9209 C   0  0  0  0  0  0
  -24.6394  -11.6914   20.8742 C   0  0  0  0  0  0
  -23.9068  -10.4305   21.0405 C   0  0  0  0  0  0
  -24.3621   -9.4230   21.9179 C   0  0  0  0  0  0
  -23.6324   -8.2259   22.0741 C   0  0  0  0  0  0
  -22.4305   -8.0307   21.3533 C   0  0  0  0  0  0
  -21.9921   -9.0280   20.4644 C   0  0  0  0  0  0
  -22.7243  -10.2164   20.3044 C   0  0  0  0  0  0
  -21.6857   -6.0767   22.5269 C   0  0  0  0  0  0
  -21.4028   -6.5656   23.8208 C   0  0  0  0  0  0
  -21.3662   -5.6794   24.9149 C   0  0  0  0  0  0
  -21.6045   -4.3051   24.7191 C   0  0  0  0  0  0
  -21.8834   -3.8166   23.4299 C   0  0  0  0  0  0
  -21.9193   -4.6995   22.3371 C   0  0  0  0  0  0
  -22.7867  -13.5263   21.1825 C   0  0  0  0  0  0
  -22.1659   -4.2198   21.0938 F   0  0  0  0  0  0
  -21.5626   -3.4526   25.7691 F   0  0  0  0  0  0
  -30.0265  -13.3378   20.4555 N   0  0  0  0  0  0
  -26.3028  -12.9336   20.3385 N   0  0  0  0  0  0
  -25.9316  -11.6490   20.5742 N   0  0  0  0  0  0
  -22.0478  -12.8294   22.0392 N   0  0  0  0  0  0
  -25.4344  -15.1874   20.4119 N   0  0  0  0  0  0
  -31.7990  -14.7158   20.0691 O   0  0  0  0  0  0
  -21.6660   -6.8911   21.4238 O   0  0  0  0  0  0
  -22.3555  -14.5561   20.6654 O   0  0  0  0  0  0
  -24.6164  -31.8634   23.2086 C   0  0  0  0  0  0
  -25.9037  -32.4797   23.8397 C   0  0  1  0  0  0
  -27.2228  -27.3957   20.1081 C   0  0  0  0  0  0
  -25.5864  -33.8610   24.2309 N   0  0  0  0  0  0
  -23.4071  -30.4874   21.5485 C   0  0  2  0  0  0
  -24.8552  -28.9497   20.1144 C   0  0  0  0  0  0
  -22.7411  -29.4639   22.4948 C   0  0  0  0  0  0
  -18.0249  -28.1367   22.8464 C   0  0  0  0  0  0
  -24.1482  -36.7319   23.2649 C   0  0  0  0  0  0
  -25.9429  -30.8150   21.3743 C   0  0  0  0  0  0
  -26.0177  -29.4508   20.7125 C   0  0  0  0  0  0
  -27.2102  -28.6849   20.6968 C   0  0  0  0  0  0
  -26.0438  -26.9189   19.4943 C   0  0  0  0  0  0
  -24.8640  -27.6863   19.5000 C   0  0  0  0  0  0
  -23.6205  -29.8211   20.1631 C   0  0  0  0  0  0
  -25.4102  -36.3116   24.0349 C   0  0  1  0  0  0
  -20.5845  -28.3671   23.1283 C   0  0  2  0  0  0
  -20.6740  -26.9397   22.5412 C   0  0  0  0  0  0
  -19.5735  -26.6372   21.5197 C   0  0  0  0  0  0
  -18.1902  -26.7909   22.1596 C   0  0  0  0  0  0
  -19.1500  -28.8834   23.2862 C   0  0  0  0  0  0
  -18.9443  -30.1432   23.8893 C   0  0  0  0  0  0
  -17.6453  -30.6582   24.0556 C   0  0  0  0  0  0
  -25.9026  -34.9466   23.5134 C   0  0  0  0  0  0
  -16.5341  -29.9094   23.6324 C   0  0  0  0  0  0
  -16.7241  -28.6504   23.0351 C   0  0  0  0  0  0
  -26.4445  -31.6590   25.0738 C   0  0  0  0  0  0
  -25.3712  -31.3729   26.1501 C   0  0  0  0  0  0
  -27.0308  -30.3015   24.6184 C   0  0  0  0  0  0
  -27.5983  -32.4336   25.7516 C   0  0  0  0  0  0
  -27.5576  -37.1817   24.8452 C   0  0  0  0  0  0
  -21.4125  -29.3038   22.3706 N   0  0  0  0  0  0
  -26.4287  -37.3792   23.9406 N   0  0  0  0  0  0
  -24.6737  -31.0707   22.1018 N   0  0  0  0  0  0
  -23.4143  -28.8161   23.2999 O   0  0  0  0  0  0
  -28.3552  -26.6043   20.1271 O   0  0  0  0  0  0
  -26.5604  -34.8925   22.4707 O   0  0  0  0  0  0
  -23.5339  -32.1395   23.7442 O   0  0  0  0  0  0
  -29.0963  -16.6844   18.8988 C   0  0  0  0  0  0
  -29.8629  -18.1062   20.7019 C   0  0  0  0  0  0
  -28.7387  -17.8216   18.1508 C   0  0  0  0  0  0
  -29.0191  -19.1363   18.6291 C   0  0  0  0  0  0
  -29.6690  -16.7957   20.1803 C   0  0  0  0  0  0
  -29.5464  -19.2836   19.9559 C   0  0  0  0  0  0
  -28.8843  -24.1587   19.9329 C   0  0  0  0  0  0
  -28.0465  -17.5645   16.8190 C   0  0  0  0  0  0
  -29.5937  -20.3423   16.3904 C   0  0  0  0  0  0
  -31.0505  -24.6227   22.3077 C   0  0  0  0  0  0
  -31.0346  -22.8773   19.8048 C   0  0  0  0  0  0
  -28.7922  -20.3459   17.7027 C   0  0  0  0  0  0
  -28.1764  -25.2907   20.7299 C   0  0  0  0  0  0
  -30.1409  -23.3880   22.1015 C   0  0  0  0  0  0
  -28.9754  -21.6300   20.6543 C   0  0  0  0  0  0
  -29.7309  -23.0286   20.6372 C   0  0  1  0  0  0
  -29.9166  -15.5947   20.9387 N   0  0  0  0  0  0
  -28.7531  -24.1342   18.7059 O   0  0  0  0  0  0
  -29.8959  -20.5060   20.5354 O   0  0  0  0  0  0
  -31.4803  -12.4041   19.1944 H   0  0  0  0  0  0
  -30.3122  -11.3247   19.8947 H   0  0  0  0  0  0
  -29.7647  -11.7425   17.4842 H   0  0  0  0  0  0
  -29.6982  -13.4584   17.7535 H   0  0  0  0  0  0
  -27.8185  -11.3192   18.8090 H   0  0  0  0  0  0
  -27.3982  -12.6647   17.7820 H   0  0  0  0  0  0
  -27.6811  -14.2545   19.5682 H   0  0  0  0  0  0
  -28.6825  -11.9975   21.3730 H   0  0  0  0  0  0
  -28.4620  -13.6454   21.8736 H   0  0  0  0  0  0
  -25.2760   -9.5752   22.4744 H   0  0  0  0  0  0
  -24.0064   -7.4655   22.7449 H   0  0  0  0  0  0
  -21.0855   -8.8809   19.8927 H   0  0  0  0  0  0
  -22.3711  -10.9717   19.6155 H   0  0  0  0  0  0
  -21.2033   -7.6163   23.9745 H   0  0  0  0  0  0
  -21.1458   -6.0480   25.9058 H   0  0  0  0  0  0
  -22.0609   -2.7638   23.2752 H   0  0  0  0  0  0
  -22.4044  -11.9986   22.4858 H   0  0  0  0  0  0
  -21.1067  -13.1341   22.2453 H   0  0  0  0  0  0
  -24.6780  -15.8530   20.5286 H   0  0  0  0  0  0
  -26.2897  -15.6237   20.0917 H   0  0  0  0  0  0
  -26.7085  -32.5482   23.1139 H   0  0  0  0  0  0
  -24.9983  -33.9761   25.0431 H   0  0  0  0  0  0
  -22.6971  -31.3044   21.4077 H   0  0  0  0  0  0
  -23.3736  -35.9650   23.3310 H   0  0  0  0  0  0
  -24.3582  -36.8941   22.2059 H   0  0  0  0  0  0
  -23.7235  -37.6531   23.6666 H   0  0  0  0  0  0
  -26.0736  -31.5805   20.6092 H   0  0  0  0  0  0
  -26.8232  -30.8548   22.0027 H   0  0  0  0  0  0
  -28.1146  -29.0611   21.1575 H   0  0  0  0  0  0
  -26.0328  -25.9508   19.0132 H   0  0  0  0  0  0
  -23.9716  -27.2995   19.0308 H   0  0  0  0  0  0
  -23.7375  -30.5965   19.4067 H   0  0  0  0  0  0
  -22.7419  -29.2475   19.8626 H   0  0  0  0  0  0
  -25.1274  -36.1991   25.0843 H   0  0  0  0  0  0
  -20.9917  -28.3268   24.1412 H   0  0  0  0  0  0
  -20.5630  -26.2281   23.3609 H   0  0  0  0  0  0
  -21.6618  -26.7443   22.1230 H   0  0  0  0  0  0
  -19.6918  -25.6286   21.1224 H   0  0  0  0  0  0
  -19.6691  -27.3174   20.6719 H   0  0  0  0  0  0
  -17.4180  -26.6621   21.3998 H   0  0  0  0  0  0
  -18.0325  -26.0047   22.8993 H   0  0  0  0  0  0
  -19.7939  -30.7209   24.2270 H   0  0  0  0  0  0
  -17.5045  -31.6279   24.5145 H   0  0  0  0  0  0
  -15.5344  -30.3021   23.7677 H   0  0  0  0  0  0
  -15.8611  -28.0850   22.7084 H   0  0  0  0  0  0
  -24.5831  -30.7129   25.7862 H   0  0  0  0  0  0
  -24.8975  -32.2916   26.4980 H   0  0  0  0  0  0
  -25.8064  -30.8871   27.0247 H   0  0  0  0  0  0
  -26.2918  -29.6778   24.1149 H   0  0  0  0  0  0
  -27.3951  -29.7238   25.4691 H   0  0  0  0  0  0
  -27.8794  -30.4306   23.9459 H   0  0  0  0  0  0
  -27.2550  -33.3599   26.2139 H   0  0  0  0  0  0
  -28.3778  -32.6974   25.0354 H   0  0  0  0  0  0
  -28.0684  -31.8459   26.5415 H   0  0  0  0  0  0
  -28.2582  -38.0124   24.7509 H   0  0  0  0  0  0
  -28.1079  -36.2652   24.6256 H   0  0  0  0  0  0
  -27.2301  -37.1465   25.8858 H   0  0  0  0  0  0
  -20.9278  -29.8776   21.6951 H   0  0  0  0  0  0
  -26.0176  -38.2876   24.1393 H   0  0  0  0  0  0
  -28.9161  -15.7076   18.4721 H   0  0  0  0  0  0
  -30.2816  -18.2220   21.6942 H   0  0  0  0  0  0
  -27.4384  -16.6571   16.8623 H   0  0  0  0  0  0
  -28.7813  -17.4232   16.0249 H   0  0  0  0  0  0
  -27.3757  -18.3800   16.5496 H   0  0  0  0  0  0
  -29.4655  -21.2927   15.8701 H   0  0  0  0  0  0
  -29.2781  -19.5713   15.6935 H   0  0  0  0  0  0
  -30.6587  -20.2177   16.5770 H   0  0  0  0  0  0
  -31.1732  -24.8269   23.3716 H   0  0  0  0  0  0
  -30.6563  -25.5296   21.8540 H   0  0  0  0  0  0
  -32.0490  -24.4697   21.8999 H   0  0  0  0  0  0
  -31.5155  -23.8414   19.6287 H   0  0  0  0  0  0
  -30.8545  -22.4357   18.8243 H   0  0  0  0  0  0
  -31.7650  -22.2427   20.3083 H   0  0  0  0  0  0
  -29.0948  -21.2710   18.1703 H   0  0  0  0  0  0
  -27.7271  -20.4548   17.4960 H   0  0  0  0  0  0
  -28.5044  -25.3357   21.7657 H   0  0  0  0  0  0
  -27.1224  -25.0174   20.7761 H   0  0  0  0  0  0
  -29.2458  -23.5074   22.7106 H   0  0  0  0  0  0
  -30.6540  -22.5301   22.5401 H   0  0  0  0  0  0
  -28.1453  -21.5957   19.9522 H   0  0  0  0  0  0
  -28.4646  -21.5191   21.6114 H   0  0  0  0  0  0
  -29.1413  -15.3202   21.5237 H   0  0  0  0  0  0
  1 25  1  0  0  0
  1 30  2  0  0  0
  1 87  1  0  0  0
  2  3  1  0  0  0
  2 25  1  0  0  0
  2 90  1  0  0  0
  2 91  1  0  0  0
  3  4  1  0  0  0
  3 92  1  0  0  0
  3 93  1  0  0  0
  4  5  1  0  0  0
  4 94  1  0  0  0
  4 95  1  0  0  0
  5  6  1  0  0  0
  5 26  1  0  0  0
  5 96  1  0  0  0
  6 25  1  0  0  0
  6 97  1  0  0  0
  6 98  1  0  0  0
  7  8  2  0  0  0
  7 26  1  0  0  0
  7 29  1  0  0  0
  8  9  1  0  0  0
  8 22  1  0  0  0
  9 10  1  0  0  0
  9 27  2  0  0  0
 10 11  2  0  0  0
 10 15  1  0  0  0
 11 12  1  0  0  0
 11 99  1  0  0  0
 12 13  2  0  0  0
 12100  1  0  0  0
 13 14  1  0  0  0
 13 31  1  0  0  0
 14 15  2  0  0  0
 14101  1  0  0  0
 15102  1  0  0  0
 16 17  2  0  0  0
 16 21  1  0  0  0
 16 31  1  0  0  0
 17 18  1  0  0  0
 17103  1  0  0  0
 18 19  2  0  0  0
 18104  1  0  0  0
 19 20  1  0  0  0
 19 24  1  0  0  0
 20 21  2  0  0  0
 20105  1  0  0  0
 21 23  1  0  0  0
 22 28  1  0  0  0
 22 32  2  0  0  0
 26 27  1  0  0  0
 28106  1  0  0  0
 28107  1  0  0  0
 29108  1  0  0  0
 29109  1  0  0  0
 33 34  1  0  0  0
 33 66  1  0  0  0
 33 70  2  0  0  0
 34 36  1  0  0  0
 34 59  1  0  0  0
 34110  1  0  0  0
 35 44  2  0  0  0
 35 45  1  0  0  0
 35 68  1  0  0  0
 36 56  1  0  0  0
 36111  1  0  0  0
 37 39  1  0  0  0
 37 47  1  0  0  0
 37 66  1  0  0  0
 37112  1  0  0  0
 38 43  2  0  0  0
 38 46  1  0  0  0
 38 47  1  0  0  0
 39 64  1  0  0  0
 39 67  2  0  0  0
 40 52  1  0  0  0
 40 53  2  0  0  0
 40 58  1  0  0  0
 41113  1  0  0  0
 41114  1  0  0  0
 41115  1  0  0  0
 41 48  1  0  0  0
 42 43  1  0  0  0
 42 66  1  0  0  0
 42116  1  0  0  0
 42117  1  0  0  0
 43 44  1  0  0  0
 44118  1  0  0  0
 45 46  2  0  0  0
 45119  1  0  0  0
 46120  1  0  0  0
 47121  1  0  0  0
 47122  1  0  0  0
 48 56  1  0  0  0
 48 65  1  0  0  0
 48123  1  0  0  0
 49 50  1  0  0  0
 49 53  1  0  0  0
 49 64  1  0  0  0
 49124  1  0  0  0
 50 51  1  0  0  0
 50125  1  0  0  0
 50126  1  0  0  0
 51 52  1  0  0  0
 51127  1  0  0  0
 51128  1  0  0  0
 52129  1  0  0  0
 52130  1  0  0  0
 53 54  1  0  0  0
 54 55  2  0  0  0
 54131  1  0  0  0
 55 57  1  0  0  0
 55132  1  0  0  0
 56 69  2  0  0  0
 57 58  2  0  0  0
 57133  1  0  0  0
 58134  1  0  0  0
 59 60  1  0  0  0
 59 61  1  0  0  0
 59 62  1  0  0  0
 60135  1  0  0  0
 60136  1  0  0  0
 60137  1  0  0  0
 61138  1  0  0  0
 61139  1  0  0  0
 61140  1  0  0  0
 62141  1  0  0  0
 62142  1  0  0  0
 62143  1  0  0  0
 63 65  1  0  0  0
 63144  1  0  0  0
 63145  1  0  0  0
 63146  1  0  0  0
 64147  1  0  0  0
 65148  1  0  0  0
 68 83  1  0  0  0
 71 73  2  0  0  0
 71 75  1  0  0  0
 71149  1  0  0  0
 72 75  2  0  0  0
 72 76  1  0  0  0
 72150  1  0  0  0
 73 74  1  0  0  0
 73 78  1  0  0  0
 74 76  2  0  0  0
 74 82  1  0  0  0
 75 87  1  0  0  0
 76 89  1  0  0  0
 77 83  1  0  0  0
 77 88  2  0  0  0
 77 86  1  0  0  0
 78151  1  0  0  0
 78152  1  0  0  0
 78153  1  0  0  0
 79 82  1  0  0  0
 79154  1  0  0  0
 79155  1  0  0  0
 79156  1  0  0  0
 80 84  1  0  0  0
 80157  1  0  0  0
 80158  1  0  0  0
 80159  1  0  0  0
 81160  1  0  0  0
 81161  1  0  0  0
 81162  1  0  0  0
 81 86  1  0  0  0
 82163  1  0  0  0
 82164  1  0  0  0
 83165  1  0  0  0
 83166  1  0  0  0
 84 86  1  0  0  0
 84167  1  0  0  0
 84168  1  0  0  0
 85 86  1  0  0  0
 85 89  1  0  0  0
 85169  1  0  0  0
 85170  1  0  0  0
 87171  1  0  0  0
M  ISO  4   1 100  68 101  83 101  87 100
M  END
> <chiral flag>
0

> <version>
0

> <s_m_source_file>
/data/baiqing/PycharmProjects/Reinvent-master-3.2/result/LINK_invent/BTK/process_docking_weight1_custom_product_contain_oxygen_bond_distance_aromatic_linkinvent_7_9_3/rearranged_h_0142.sdf

> <i_m_source_file_index>
62

> <r_mmod_Potential_Energy-OPLS-2005>
164.257537841797

> <r_mmod_Stretch_Energy-OPLS-2005>
62.5181083679199

> <r_mmod_Bend_Energy-OPLS-2005>
134.563354492188

> <r_mmod_Torsional_Energy-OPLS-2005>
318.741882324219

> <r_mmod_Improper_Torsional_Energy-OPLS-2005>
6.81822299957275

> <r_mmod_Van_der_Waal_Energy-OPLS-2005>
156.485534667969

> <r_mmod_Electrostatic_Energy-OPLS-2005>
-321.580505371094

> <r_mmod_Solvation_Energy-OPLS-2005>
-217.052124023438

> <b_mmod_Minimization_Converged-OPLS-2005>
0

> <r_mmod_RMS_Derivative-OPLS-2005>
4.72305250167847

$$$$
62
                    3D
 Structure written by MMmdl.
162171  0  0  1  0            999 V2000
  -30.6772  -14.5891   20.5078 C   0  0  0  0  0  0
  -30.4174  -12.3571   19.4481 C   0  0  0  0  0  0
  -29.4997  -12.4996   18.2195 C   0  0  0  0  0  0
  -28.0188  -12.3693   18.6178 C   0  0  0  0  0  0
  -27.6513  -13.2268   19.8611 C   0  0  2  0  0  0
  -28.6981  -13.0800   20.9868 C   0  0  0  0  0  0
  -25.2556  -13.8201   20.5687 C   0  0  0  0  0  0
  -24.1838  -13.0440   20.9169 C   0  0  0  0  0  0
  -24.6422  -11.6928   20.8723 C   0  0  0  0  0  0
  -23.9089  -10.4285   21.0361 C   0  0  0  0  0  0
  -24.3644   -9.4199   21.9136 C   0  0  0  0  0  0
  -23.6306   -8.2242   22.0729 C   0  0  0  0  0  0
  -22.4296   -8.0262   21.3525 C   0  0  0  0  0  0
  -21.9917   -9.0249   20.4638 C   0  0  0  0  0  0
  -22.7248  -10.2116   20.3025 C   0  0  0  0  0  0
  -21.6868   -6.0709   22.5252 C   0  0  0  0  0  0
  -21.4028   -6.5613   23.8188 C   0  0  0  0  0  0
  -21.3692   -5.6777   24.9151 C   0  0  0  0  0  0
  -21.6053   -4.3032   24.7210 C   0  0  0  0  0  0
  -21.8821   -3.8110   23.4340 C   0  0  0  0  0  0
  -21.9215   -4.6932   22.3390 C   0  0  0  0  0  0
  -22.7853  -13.5210   21.1793 C   0  0  0  0  0  0
  -22.1652   -4.2103   21.0970 F   0  0  0  0  0  0
  -21.5660   -3.4533   25.7734 F   0  0  0  0  0  0
  -30.0128  -13.3984   20.4112 N   0  0  0  0  0  0
  -26.2997  -12.9412   20.3317 N   0  0  0  0  0  0
  -25.9355  -11.6558   20.5753 N   0  0  0  0  0  0
  -22.0538  -12.8232   22.0387 N   0  0  0  0  0  0
  -25.4233  -15.1925   20.4116 N   0  0  0  0  0  0
  -31.8401  -14.7055   20.1091 O   0  0  0  0  0  0
  -21.6661   -6.8859   21.4214 O   0  0  0  0  0  0
  -22.3510  -14.5486   20.6589 O   0  0  0  0  0  0
  -24.6190  -31.8615   23.2038 C   0  0  0  0  0  0
  -25.9035  -32.4814   23.8369 C   0  0  1  0  0  0
  -27.2318  -27.3522   20.1128 C   0  0  0  0  0  0
  -25.5842  -33.8615   24.2277 N   0  0  0  0  0  0
  -23.4141  -30.4800   21.5473 C   0  0  2  0  0  0
  -24.8635  -28.9300   20.1229 C   0  0  0  0  0  0
  -22.7453  -29.4592   22.4989 C   0  0  0  0  0  0
  -18.0264  -28.1386   22.8469 C   0  0  0  0  0  0
  -24.1468  -36.7318   23.2638 C   0  0  0  0  0  0
  -25.9523  -30.7972   21.3758 C   0  0  0  0  0  0
  -26.0301  -29.4256   20.7215 C   0  0  0  0  0  0
  -27.2218  -28.6480   20.7017 C   0  0  0  0  0  0
  -26.0479  -26.8885   19.5063 C   0  0  0  0  0  0
  -24.8700  -27.6645   19.5111 C   0  0  0  0  0  0
  -23.6312  -29.8089   20.1656 C   0  0  0  0  0  0
  -25.4107  -36.3115   24.0323 C   0  0  1  0  0  0
  -20.5863  -28.3650   23.1317 C   0  0  2  0  0  0
  -20.6749  -26.9377   22.5436 C   0  0  0  0  0  0
  -19.5742  -26.6376   21.5221 C   0  0  0  0  0  0
  -18.1910  -26.7934   22.1609 C   0  0  0  0  0  0
  -19.1518  -28.8840   23.2885 C   0  0  0  0  0  0
  -18.9449  -30.1447   23.8889 C   0  0  0  0  0  0
  -17.6453  -30.6585   24.0557 C   0  0  0  0  0  0
  -25.9030  -34.9485   23.5124 C   0  0  0  0  0  0
  -16.5343  -29.9080   23.6335 C   0  0  0  0  0  0
  -16.7254  -28.6506   23.0336 C   0  0  0  0  0  0
  -26.4431  -31.6639   25.0748 C   0  0  0  0  0  0
  -25.3662  -31.3789   26.1483 C   0  0  0  0  0  0
  -27.0266  -30.3054   24.6214 C   0  0  0  0  0  0
  -27.5982  -32.4398   25.7512 C   0  0  0  0  0  0
  -27.5596  -37.1809   24.8446 C   0  0  0  0  0  0
  -21.4173  -29.3007   22.3732 N   0  0  0  0  0  0
  -26.4294  -37.3811   23.9405 N   0  0  0  0  0  0
  -24.6800  -31.0625   22.1000 N   0  0  0  0  0  0
  -23.4197  -28.8150   23.3061 O   0  0  0  0  0  0
  -28.3794  -26.5703   20.0217 O   0  0  0  0  0  0
  -26.5636  -34.8934   22.4709 O   0  0  0  0  0  0
  -23.5358  -32.1422   23.7353 O   0  0  0  0  0  0
  -29.8972  -18.2185   20.6398 C   0  0  0  0  0  0
  -31.8626  -18.4292   22.6017 C   0  0  0  0  0  0
  -30.3508  -19.5375   21.0003 C   0  0  0  0  0  0
  -31.3888  -17.1514   22.2637 C   0  0  0  0  0  0
  -30.4266  -17.0122   21.2281 C   0  0  0  0  0  0
  -31.3860  -19.5970   21.9774 C   0  0  0  0  0  0
  -30.0984  -22.3217   20.7151 C   0  0  0  0  0  0
  -28.3264  -21.3258   20.3089 C   0  0  0  0  0  0
  -29.8025  -20.8412   20.2928 C   0  0  2  0  0  0
  -28.7783  -22.8088   20.0791 C   0  0  1  0  0  0
  -31.9138  -15.9686   23.0683 C   0  0  0  0  0  0
  -27.9089  -24.0150   20.6246 C   0  0  0  0  0  0
  -28.5492  -25.4319   20.9236 C   0  0  0  0  0  0
  -31.9977  -20.7821   22.3727 N   0  0  0  0  0  0
  -29.9465  -15.6882   20.8655 N   0  0  0  0  0  0
  -31.4623  -12.4310   19.1454 H   0  0  0  0  0  0
  -30.3077  -11.3670   19.8969 H   0  0  0  0  0  0
  -29.7564  -11.7493   17.4718 H   0  0  0  0  0  0
  -29.6626  -13.4720   17.7497 H   0  0  0  0  0  0
  -27.8157  -11.3162   18.8156 H   0  0  0  0  0  0
  -27.3852  -12.6433   17.7722 H   0  0  0  0  0  0
  -27.6716  -14.2683   19.5350 H   0  0  0  0  0  0
  -28.7085  -12.0618   21.3776 H   0  0  0  0  0  0
  -28.4580  -13.7277   21.8322 H   0  0  0  0  0  0
  -25.2790   -9.5691   22.4707 H   0  0  0  0  0  0
  -24.0014   -7.4659   22.7483 H   0  0  0  0  0  0
  -21.0818   -8.8770   19.8981 H   0  0  0  0  0  0
  -22.3671  -10.9659   19.6149 H   0  0  0  0  0  0
  -21.1997   -7.6128   23.9675 H   0  0  0  0  0  0
  -21.1524   -6.0507   25.9065 H   0  0  0  0  0  0
  -22.0585   -2.7565   23.2852 H   0  0  0  0  0  0
  -22.4178  -11.9911   22.4788 H   0  0  0  0  0  0
  -21.1153  -13.1215   22.2600 H   0  0  0  0  0  0
  -24.6583  -15.8472   20.5402 H   0  0  0  0  0  0
  -26.2751  -15.6384   20.0984 H   0  0  0  0  0  0
  -26.7102  -32.5489   23.1116 H   0  0  0  0  0  0
  -24.9880  -33.9776   25.0342 H   0  0  0  0  0  0
  -22.7034  -31.2959   21.4001 H   0  0  0  0  0  0
  -23.3758  -35.9627   23.3307 H   0  0  0  0  0  0
  -24.3533  -36.8949   22.2052 H   0  0  0  0  0  0
  -23.7203  -37.6503   23.6677 H   0  0  0  0  0  0
  -26.0828  -31.5629   20.6094 H   0  0  0  0  0  0
  -26.8318  -30.8444   22.0084 H   0  0  0  0  0  0
  -28.1345  -29.0323   21.1385 H   0  0  0  0  0  0
  -26.0347  -25.9281   19.0108 H   0  0  0  0  0  0
  -23.9770  -27.2813   19.0359 H   0  0  0  0  0  0
  -23.7466  -30.5809   19.4048 H   0  0  0  0  0  0
  -22.7545  -29.2307   19.8662 H   0  0  0  0  0  0
  -25.1305  -36.1976   25.0824 H   0  0  0  0  0  0
  -20.9919  -28.3197   24.1453 H   0  0  0  0  0  0
  -20.5606  -26.2257   23.3631 H   0  0  0  0  0  0
  -21.6621  -26.7395   22.1252 H   0  0  0  0  0  0
  -19.6891  -25.6281   21.1248 H   0  0  0  0  0  0
  -19.6718  -27.3184   20.6755 H   0  0  0  0  0  0
  -17.4203  -26.6684   21.3992 H   0  0  0  0  0  0
  -18.0283  -26.0084   22.9007 H   0  0  0  0  0  0
  -19.7931  -30.7252   24.2261 H   0  0  0  0  0  0
  -17.5012  -31.6264   24.5157 H   0  0  0  0  0  0
  -15.5338  -30.2975   23.7682 H   0  0  0  0  0  0
  -15.8653  -28.0832   22.7050 H   0  0  0  0  0  0
  -24.5759  -30.7237   25.7798 H   0  0  0  0  0  0
  -24.8936  -32.2967   26.4990 H   0  0  0  0  0  0
  -25.7950  -30.8869   27.0220 H   0  0  0  0  0  0
  -26.2851  -29.6854   24.1152 H   0  0  0  0  0  0
  -27.3848  -29.7275   25.4746 H   0  0  0  0  0  0
  -27.8775  -30.4342   23.9520 H   0  0  0  0  0  0
  -27.2535  -33.3623   26.2205 H   0  0  0  0  0  0
  -28.3708  -32.7114   25.0309 H   0  0  0  0  0  0
  -28.0757  -31.8488   26.5335 H   0  0  0  0  0  0
  -28.2605  -38.0114   24.7527 H   0  0  0  0  0  0
  -28.1104  -36.2658   24.6238 H   0  0  0  0  0  0
  -27.2315  -37.1418   25.8843 H   0  0  0  0  0  0
  -20.9354  -29.8717   21.6932 H   0  0  0  0  0  0
  -26.0194  -38.2884   24.1453 H   0  0  0  0  0  0
  -29.1406  -18.1361   19.8729 H   0  0  0  0  0  0
  -32.6162  -18.5112   23.3721 H   0  0  0  0  0  0
  -30.9967  -22.7436   20.2592 H   0  0  0  0  0  0
  -30.0877  -22.4739   21.7952 H   0  0  0  0  0  0
  -27.8587  -21.1853   21.2853 H   0  0  0  0  0  0
  -27.7016  -20.9053   19.5192 H   0  0  0  0  0  0
  -30.0996  -20.7380   19.2470 H   0  0  0  0  0  0
  -28.9725  -22.9521   19.0133 H   0  0  0  0  0  0
  -32.3586  -16.3018   24.0072 H   0  0  0  0  0  0
  -32.6794  -15.4201   22.5168 H   0  0  0  0  0  0
  -31.1109  -15.2785   23.3301 H   0  0  0  0  0  0
  -27.4763  -23.6954   21.5737 H   0  0  0  0  0  0
  -27.0433  -24.1544   19.9804 H   0  0  0  0  0  0
  -29.6202  -25.2930   21.0718 H   0  0  0  0  0  0
  -28.1834  -25.7567   21.9002 H   0  0  0  0  0  0
  -32.8632  -20.7299   22.8998 H   0  0  0  0  0  0
  -31.9494  -21.5833   21.7530 H   0  0  0  0  0  0
  -28.9495  -15.5434   20.9375 H   0  0  0  0  0  0
  1 25  1  0  0  0
  1 30  2  0  0  0
  1 85  1  0  0  0
  2  3  1  0  0  0
  2 25  1  0  0  0
  2 86  1  0  0  0
  2 87  1  0  0  0
  3  4  1  0  0  0
  3 88  1  0  0  0
  3 89  1  0  0  0
  4  5  1  0  0  0
  4 90  1  0  0  0
  4 91  1  0  0  0
  5  6  1  0  0  0
  5 26  1  0  0  0
  5 92  1  0  0  0
  6 25  1  0  0  0
  6 93  1  0  0  0
  6 94  1  0  0  0
  7  8  2  0  0  0
  7 26  1  0  0  0
  7 29  1  0  0  0
  8  9  1  0  0  0
  8 22  1  0  0  0
  9 10  1  0  0  0
  9 27  2  0  0  0
 10 11  2  0  0  0
 10 15  1  0  0  0
 11 12  1  0  0  0
 11 95  1  0  0  0
 12 13  2  0  0  0
 12 96  1  0  0  0
 13 14  1  0  0  0
 13 31  1  0  0  0
 14 15  2  0  0  0
 14 97  1  0  0  0
 15 98  1  0  0  0
 16 17  2  0  0  0
 16 21  1  0  0  0
 16 31  1  0  0  0
 17 18  1  0  0  0
 17 99  1  0  0  0
 18 19  2  0  0  0
 18100  1  0  0  0
 19 20  1  0  0  0
 19 24  1  0  0  0
 20 21  2  0  0  0
 20101  1  0  0  0
 21 23  1  0  0  0
 22 28  1  0  0  0
 22 32  2  0  0  0
 26 27  1  0  0  0
 28102  1  0  0  0
 28103  1  0  0  0
 29104  1  0  0  0
 29105  1  0  0  0
 33 34  1  0  0  0
 33 66  1  0  0  0
 33 70  2  0  0  0
 34 36  1  0  0  0
 34 59  1  0  0  0
 34106  1  0  0  0
 35 44  2  0  0  0
 35 45  1  0  0  0
 35 68  1  0  0  0
 36 56  1  0  0  0
 36107  1  0  0  0
 37 39  1  0  0  0
 37 47  1  0  0  0
 37 66  1  0  0  0
 37108  1  0  0  0
 38 43  2  0  0  0
 38 46  1  0  0  0
 38 47  1  0  0  0
 39 64  1  0  0  0
 39 67  2  0  0  0
 40 52  1  0  0  0
 40 53  2  0  0  0
 40 58  1  0  0  0
 41109  1  0  0  0
 41110  1  0  0  0
 41111  1  0  0  0
 41 48  1  0  0  0
 42 43  1  0  0  0
 42 66  1  0  0  0
 42112  1  0  0  0
 42113  1  0  0  0
 43 44  1  0  0  0
 44114  1  0  0  0
 45 46  2  0  0  0
 45115  1  0  0  0
 46116  1  0  0  0
 47117  1  0  0  0
 47118  1  0  0  0
 48 56  1  0  0  0
 48 65  1  0  0  0
 48119  1  0  0  0
 49 50  1  0  0  0
 49 53  1  0  0  0
 49 64  1  0  0  0
 49120  1  0  0  0
 50 51  1  0  0  0
 50121  1  0  0  0
 50122  1  0  0  0
 51 52  1  0  0  0
 51123  1  0  0  0
 51124  1  0  0  0
 52125  1  0  0  0
 52126  1  0  0  0
 53 54  1  0  0  0
 54 55  2  0  0  0
 54127  1  0  0  0
 55 57  1  0  0  0
 55128  1  0  0  0
 56 69  2  0  0  0
 57 58  2  0  0  0
 57129  1  0  0  0
 58130  1  0  0  0
 59 60  1  0  0  0
 59 61  1  0  0  0
 59 62  1  0  0  0
 60131  1  0  0  0
 60132  1  0  0  0
 60133  1  0  0  0
 61134  1  0  0  0
 61135  1  0  0  0
 61136  1  0  0  0
 62137  1  0  0  0
 62138  1  0  0  0
 62139  1  0  0  0
 63 65  1  0  0  0
 63140  1  0  0  0
 63141  1  0  0  0
 63142  1  0  0  0
 64143  1  0  0  0
 65144  1  0  0  0
 68 83  1  0  0  0
 71 73  2  0  0  0
 71 75  1  0  0  0
 71145  1  0  0  0
 72 74  1  0  0  0
 72 76  2  0  0  0
 72146  1  0  0  0
 73 76  1  0  0  0
 73 79  1  0  0  0
 74 75  2  0  0  0
 74 81  1  0  0  0
 75 85  1  0  0  0
 76 84  1  0  0  0
 77 79  1  0  0  0
 77 80  1  0  0  0
 77147  1  0  0  0
 77148  1  0  0  0
 78 79  1  0  0  0
 78 80  1  0  0  0
 78149  1  0  0  0
 78150  1  0  0  0
 79151  1  0  0  0
 80 82  1  0  0  0
 80152  1  0  0  0
 81153  1  0  0  0
 81154  1  0  0  0
 81155  1  0  0  0
 82 83  1  0  0  0
 82156  1  0  0  0
 82157  1  0  0  0
 83158  1  0  0  0
 83159  1  0  0  0
 84160  1  0  0  0
 84161  1  0  0  0
 85162  1  0  0  0
M  ISO  4   1 100  68 101  83 101  85 100
M  END
> <chiral flag>
0

> <version>
0

> <s_m_source_file>
/data/baiqing/PycharmProjects/Reinvent-master-3.2/result/LINK_invent/BTK/process_docking_weight1_custom_product_contain_oxygen_bond_distance_aromatic_linkinvent_7_9_3/rearranged_h_0142.sdf

> <i_m_source_file_index>
63

> <r_mmod_Potential_Energy-OPLS-2005>
84.4886627197266

> <r_mmod_Stretch_Energy-OPLS-2005>
71.6211166381836

> <r_mmod_Bend_Energy-OPLS-2005>
157.237457275391

> <r_mmod_Torsional_Energy-OPLS-2005>
283.454315185547

> <r_mmod_Improper_Torsional_Energy-OPLS-2005>
7.74540567398071

> <r_mmod_Van_der_Waal_Energy-OPLS-2005>
146.959167480469

> <r_mmod_Electrostatic_Energy-OPLS-2005>
-408.502838134766

> <r_mmod_Solvation_Energy-OPLS-2005>
-206.281402587891

> <b_mmod_Minimization_Converged-OPLS-2005>
0

> <r_mmod_RMS_Derivative-OPLS-2005>
4.10185527801514

$$$$
63
                    3D
 Structure written by MMmdl.
159167  0  0  1  0            999 V2000
  -30.6803  -14.5444   20.5283 C   0  0  0  0  0  0
  -30.4221  -12.3399   19.4377 C   0  0  0  0  0  0
  -29.4992  -12.5020   18.2127 C   0  0  0  0  0  0
  -28.0206  -12.3543   18.6230 C   0  0  0  0  0  0
  -27.6536  -13.2146   19.8618 C   0  0  2  0  0  0
  -28.6966  -13.0486   20.9896 C   0  0  0  0  0  0
  -25.2559  -13.8178   20.5661 C   0  0  0  0  0  0
  -24.1827  -13.0447   20.9177 C   0  0  0  0  0  0
  -24.6395  -11.6917   20.8727 C   0  0  0  0  0  0
  -23.9061  -10.4302   21.0391 C   0  0  0  0  0  0
  -24.3620   -9.4218   21.9164 C   0  0  0  0  0  0
  -23.6303   -8.2249   22.0745 C   0  0  0  0  0  0
  -22.4282   -8.0281   21.3545 C   0  0  0  0  0  0
  -21.9908   -9.0246   20.4642 C   0  0  0  0  0  0
  -22.7235  -10.2131   20.3041 C   0  0  0  0  0  0
  -21.6855   -6.0732   22.5277 C   0  0  0  0  0  0
  -21.4020   -6.5634   23.8212 C   0  0  0  0  0  0
  -21.3659   -5.6786   24.9172 C   0  0  0  0  0  0
  -21.6044   -4.3049   24.7219 C   0  0  0  0  0  0
  -21.8822   -3.8142   23.4341 C   0  0  0  0  0  0
  -21.9201   -4.6959   22.3402 C   0  0  0  0  0  0
  -22.7848  -13.5236   21.1840 C   0  0  0  0  0  0
  -22.1665   -4.2143   21.0976 F   0  0  0  0  0  0
  -21.5630   -3.4536   25.7728 F   0  0  0  0  0  0
  -30.0189  -13.3557   20.4254 N   0  0  0  0  0  0
  -26.2984  -12.9357   20.3301 N   0  0  0  0  0  0
  -25.9320  -11.6512   20.5747 N   0  0  0  0  0  0
  -22.0497  -12.8222   22.0399 N   0  0  0  0  0  0
  -25.4266  -15.1902   20.4069 N   0  0  0  0  0  0
  -31.8434  -14.6730   20.1373 O   0  0  0  0  0  0
  -21.6654   -6.8873   21.4241 O   0  0  0  0  0  0
  -22.3518  -14.5536   20.6687 O   0  0  0  0  0  0
  -24.6208  -31.8632   23.2059 C   0  0  0  0  0  0
  -25.9072  -32.4793   23.8372 C   0  0  1  0  0  0
  -27.2301  -27.3819   20.0769 C   0  0  0  0  0  0
  -25.5902  -33.8593   24.2293 N   0  0  0  0  0  0
  -23.4099  -30.4878   21.5490 C   0  0  2  0  0  0
  -24.8518  -28.9523   20.1070 C   0  0  0  0  0  0
  -22.7443  -29.4638   22.4976 C   0  0  0  0  0  0
  -18.0274  -28.1379   22.8489 C   0  0  0  0  0  0
  -24.1484  -36.7315   23.2636 C   0  0  0  0  0  0
  -25.9452  -30.8120   21.3650 C   0  0  0  0  0  0
  -26.0180  -29.4467   20.7012 C   0  0  0  0  0  0
  -27.2048  -28.6688   20.6828 C   0  0  0  0  0  0
  -26.0247  -26.9029   19.5181 C   0  0  0  0  0  0
  -24.8526  -27.6812   19.5133 C   0  0  0  0  0  0
  -23.6171  -29.8246   20.1618 C   0  0  0  0  0  0
  -25.4105  -36.3098   24.0332 C   0  0  1  0  0  0
  -20.5873  -28.3673   23.1310 C   0  0  2  0  0  0
  -20.6771  -26.9405   22.5419 C   0  0  0  0  0  0
  -19.5746  -26.6385   21.5219 C   0  0  0  0  0  0
  -18.1924  -26.7923   22.1630 C   0  0  0  0  0  0
  -19.1524  -28.8847   23.2895 C   0  0  0  0  0  0
  -18.9449  -30.1451   23.8904 C   0  0  0  0  0  0
  -17.6450  -30.6585   24.0566 C   0  0  0  0  0  0
  -25.9041  -34.9460   23.5115 C   0  0  0  0  0  0
  -16.5344  -29.9086   23.6323 C   0  0  0  0  0  0
  -16.7262  -28.6506   23.0343 C   0  0  0  0  0  0
  -26.4478  -31.6594   25.0727 C   0  0  0  0  0  0
  -25.3729  -31.3726   26.1470 C   0  0  0  0  0  0
  -27.0308  -30.3022   24.6143 C   0  0  0  0  0  0
  -27.6043  -32.4325   25.7490 C   0  0  0  0  0  0
  -27.5585  -37.1803   24.8454 C   0  0  0  0  0  0
  -21.4167  -29.3035   22.3719 N   0  0  0  0  0  0
  -26.4285  -37.3794   23.9416 N   0  0  0  0  0  0
  -24.6776  -31.0692   22.0978 N   0  0  0  0  0  0
  -23.4201  -28.8173   23.3029 O   0  0  0  0  0  0
  -28.3815  -26.6057   20.1926 O   0  0  0  0  0  0
  -26.5617  -34.8927   22.4684 O   0  0  0  0  0  0
  -23.5388  -32.1407   23.7424 O   0  0  0  0  0  0
  -31.9607  -18.7342   21.5510 C   0  0  0  0  0  0
  -31.0757  -19.7547   21.1520 C   0  0  0  0  0  0
  -31.5885  -17.3796   21.4532 C   0  0  0  0  0  0
  -29.4232  -18.0583   20.5728 C   0  0  0  0  0  0
  -29.7904  -19.4403   20.6531 C   0  0  0  0  0  0
  -30.3191  -17.0118   20.9504 C   0  0  0  0  0  0
  -28.8501  -20.5448   20.2084 C   0  0  0  0  0  0
  -30.1422  -26.4014   18.7520 C   0  0  0  0  0  0
  -28.0825  -25.2863   17.9747 C   0  0  0  0  0  0
  -29.4090  -24.3160   19.9777 C   0  0  0  0  0  0
  -28.5893  -22.9813   19.8988 C   0  0  0  0  0  0
  -28.9023  -25.6257   19.2404 C   0  0  0  0  0  0
  -29.9249  -15.6223   20.8738 N   0  0  0  0  0  0
  -27.7356  -20.3142   19.7321 O   0  0  0  0  0  0
  -29.3393  -21.8320   20.3623 O   0  0  0  0  0  0
  -31.4677  -12.4365   19.1389 H   0  0  0  0  0  0
  -30.3238  -11.3397   19.8617 H   0  0  0  0  0  0
  -29.7521  -11.7647   17.4497 H   0  0  0  0  0  0
  -29.6596  -13.4813   17.7584 H   0  0  0  0  0  0
  -27.8436  -11.2998   18.8382 H   0  0  0  0  0  0
  -27.3698  -12.6055   17.7843 H   0  0  0  0  0  0
  -27.6789  -14.2536   19.5325 H   0  0  0  0  0  0
  -28.6868  -12.0278   21.3734 H   0  0  0  0  0  0
  -28.4575  -13.6904   21.8395 H   0  0  0  0  0  0
  -25.2766   -9.5699   22.4735 H   0  0  0  0  0  0
  -24.0016   -7.4641   22.7460 H   0  0  0  0  0  0
  -21.0837   -8.8761   19.8949 H   0  0  0  0  0  0
  -22.3684  -10.9664   19.6150 H   0  0  0  0  0  0
  -21.2013   -7.6140   23.9711 H   0  0  0  0  0  0
  -21.1478   -6.0516   25.9075 H   0  0  0  0  0  0
  -22.0605   -2.7602   23.2845 H   0  0  0  0  0  0
  -22.4128  -11.9905   22.4811 H   0  0  0  0  0  0
  -21.1105  -13.1226   22.2594 H   0  0  0  0  0  0
  -24.6571  -15.8431   20.5083 H   0  0  0  0  0  0
  -26.2707  -15.6287   20.0631 H   0  0  0  0  0  0
  -26.7139  -32.5467   23.1123 H   0  0  0  0  0  0
  -25.0033  -33.9744   25.0424 H   0  0  0  0  0  0
  -22.7007  -31.3069   21.4118 H   0  0  0  0  0  0
  -23.3748  -35.9646   23.3277 H   0  0  0  0  0  0
  -24.3584  -36.8959   22.2057 H   0  0  0  0  0  0
  -23.7233  -37.6510   23.6669 H   0  0  0  0  0  0
  -26.0683  -31.5791   20.5998 H   0  0  0  0  0  0
  -26.8293  -30.8574   21.9892 H   0  0  0  0  0  0
  -28.1005  -29.0424   21.1584 H   0  0  0  0  0  0
  -25.9331  -25.9041   19.1326 H   0  0  0  0  0  0
  -23.9468  -27.2788   19.0812 H   0  0  0  0  0  0
  -23.7287  -30.6018   19.4049 H   0  0  0  0  0  0
  -22.7382  -29.2504   19.8641 H   0  0  0  0  0  0
  -25.1279  -36.1958   25.0828 H   0  0  0  0  0  0
  -20.9952  -28.3233   24.1437 H   0  0  0  0  0  0
  -20.5681  -26.2278   23.3611 H   0  0  0  0  0  0
  -21.6639  -26.7449   22.1205 H   0  0  0  0  0  0
  -19.6907  -25.6298   21.1243 H   0  0  0  0  0  0
  -19.6681  -27.3202   20.6756 H   0  0  0  0  0  0
  -17.4196  -26.6667   21.4030 H   0  0  0  0  0  0
  -18.0318  -26.0064   22.9026 H   0  0  0  0  0  0
  -19.7927  -30.7264   24.2275 H   0  0  0  0  0  0
  -17.5006  -31.6261   24.5172 H   0  0  0  0  0  0
  -15.5344  -30.2992   23.7647 H   0  0  0  0  0  0
  -15.8664  -28.0834   22.7049 H   0  0  0  0  0  0
  -24.5872  -30.7106   25.7809 H   0  0  0  0  0  0
  -24.8951  -32.2890   26.4939 H   0  0  0  0  0  0
  -25.8060  -30.8869   27.0219 H   0  0  0  0  0  0
  -26.2860  -29.6790   24.1169 H   0  0  0  0  0  0
  -27.4027  -29.7265   25.4630 H   0  0  0  0  0  0
  -27.8725  -30.4330   23.9335 H   0  0  0  0  0  0
  -27.2647  -33.3613   26.2089 H   0  0  0  0  0  0
  -28.3836  -32.6905   25.0305 H   0  0  0  0  0  0
  -28.0725  -31.8436   26.5390 H   0  0  0  0  0  0
  -28.2577  -38.0127   24.7543 H   0  0  0  0  0  0
  -28.1110  -36.2662   24.6216 H   0  0  0  0  0  0
  -27.2315  -37.1376   25.8859 H   0  0  0  0  0  0
  -20.9337  -29.8768   21.6944 H   0  0  0  0  0  0
  -26.0171  -38.2867   24.1435 H   0  0  0  0  0  0
  -32.9371  -18.9946   21.9352 H   0  0  0  0  0  0
  -31.4008  -20.7834   21.2339 H   0  0  0  0  0  0
  -32.2937  -16.6275   21.7791 H   0  0  0  0  0  0
  -28.4408  -17.8037   20.2006 H   0  0  0  0  0  0
  -29.8598  -27.3376   18.2690 H   0  0  0  0  0  0
  -30.7227  -25.8280   18.0282 H   0  0  0  0  0  0
  -30.8106  -26.6484   19.5778 H   0  0  0  0  0  0
  -28.6969  -24.7420   17.2559 H   0  0  0  0  0  0
  -27.7262  -26.1818   17.4654 H   0  0  0  0  0  0
  -27.2325  -24.6382   18.1780 H   0  0  0  0  0  0
  -30.3896  -24.0667   19.5704 H   0  0  0  0  0  0
  -29.6008  -24.5509   21.0250 H   0  0  0  0  0  0
  -28.3086  -22.7875   18.8638 H   0  0  0  0  0  0
  -27.6632  -23.0718   20.4676 H   0  0  0  0  0  0
  -28.9453  -15.4253   21.0085 H   0  0  0  0  0  0
  1 25  1  0  0  0
  1 30  2  0  0  0
  1 83  1  0  0  0
  2  3  1  0  0  0
  2 25  1  0  0  0
  2 86  1  0  0  0
  2 87  1  0  0  0
  3  4  1  0  0  0
  3 88  1  0  0  0
  3 89  1  0  0  0
  4  5  1  0  0  0
  4 90  1  0  0  0
  4 91  1  0  0  0
  5  6  1  0  0  0
  5 26  1  0  0  0
  5 92  1  0  0  0
  6 25  1  0  0  0
  6 93  1  0  0  0
  6 94  1  0  0  0
  7  8  2  0  0  0
  7 26  1  0  0  0
  7 29  1  0  0  0
  8  9  1  0  0  0
  8 22  1  0  0  0
  9 10  1  0  0  0
  9 27  2  0  0  0
 10 11  2  0  0  0
 10 15  1  0  0  0
 11 12  1  0  0  0
 11 95  1  0  0  0
 12 13  2  0  0  0
 12 96  1  0  0  0
 13 14  1  0  0  0
 13 31  1  0  0  0
 14 15  2  0  0  0
 14 97  1  0  0  0
 15 98  1  0  0  0
 16 17  2  0  0  0
 16 21  1  0  0  0
 16 31  1  0  0  0
 17 18  1  0  0  0
 17 99  1  0  0  0
 18 19  2  0  0  0
 18100  1  0  0  0
 19 20  1  0  0  0
 19 24  1  0  0  0
 20 21  2  0  0  0
 20101  1  0  0  0
 21 23  1  0  0  0
 22 28  1  0  0  0
 22 32  2  0  0  0
 26 27  1  0  0  0
 28102  1  0  0  0
 28103  1  0  0  0
 29104  1  0  0  0
 29105  1  0  0  0
 33 34  1  0  0  0
 33 66  1  0  0  0
 33 70  2  0  0  0
 34 36  1  0  0  0
 34 59  1  0  0  0
 34106  1  0  0  0
 35 44  2  0  0  0
 35 45  1  0  0  0
 35 68  1  0  0  0
 36 56  1  0  0  0
 36107  1  0  0  0
 37 39  1  0  0  0
 37 47  1  0  0  0
 37 66  1  0  0  0
 37108  1  0  0  0
 38 43  2  0  0  0
 38 46  1  0  0  0
 38 47  1  0  0  0
 39 64  1  0  0  0
 39 67  2  0  0  0
 40 52  1  0  0  0
 40 53  2  0  0  0
 40 58  1  0  0  0
 41109  1  0  0  0
 41110  1  0  0  0
 41111  1  0  0  0
 41 48  1  0  0  0
 42 43  1  0  0  0
 42 66  1  0  0  0
 42112  1  0  0  0
 42113  1  0  0  0
 43 44  1  0  0  0
 44114  1  0  0  0
 45 46  2  0  0  0
 45115  1  0  0  0
 46116  1  0  0  0
 47117  1  0  0  0
 47118  1  0  0  0
 48 56  1  0  0  0
 48 65  1  0  0  0
 48119  1  0  0  0
 49 50  1  0  0  0
 49 53  1  0  0  0
 49 64  1  0  0  0
 49120  1  0  0  0
 50 51  1  0  0  0
 50121  1  0  0  0
 50122  1  0  0  0
 51 52  1  0  0  0
 51123  1  0  0  0
 51124  1  0  0  0
 52125  1  0  0  0
 52126  1  0  0  0
 53 54  1  0  0  0
 54 55  2  0  0  0
 54127  1  0  0  0
 55 57  1  0  0  0
 55128  1  0  0  0
 56 69  2  0  0  0
 57 58  2  0  0  0
 57129  1  0  0  0
 58130  1  0  0  0
 59 60  1  0  0  0
 59 61  1  0  0  0
 59 62  1  0  0  0
 60131  1  0  0  0
 60132  1  0  0  0
 60133  1  0  0  0
 61134  1  0  0  0
 61135  1  0  0  0
 61136  1  0  0  0
 62137  1  0  0  0
 62138  1  0  0  0
 62139  1  0  0  0
 63 65  1  0  0  0
 63140  1  0  0  0
 63141  1  0  0  0
 63142  1  0  0  0
 64143  1  0  0  0
 65144  1  0  0  0
 68 82  1  0  0  0
 71 72  2  0  0  0
 71 73  1  0  0  0
 71145  1  0  0  0
 72 75  1  0  0  0
 72146  1  0  0  0
 73 76  2  0  0  0
 73147  1  0  0  0
 74 75  2  0  0  0
 74 76  1  0  0  0
 74148  1  0  0  0
 75 77  1  0  0  0
 76 83  1  0  0  0
 77 84  2  0  0  0
 77 85  1  0  0  0
 78149  1  0  0  0
 78150  1  0  0  0
 78151  1  0  0  0
 78 82  1  0  0  0
 79 82  1  0  0  0
 79152  1  0  0  0
 79153  1  0  0  0
 79154  1  0  0  0
 80 81  1  0  0  0
 80 82  1  0  0  0
 80155  1  0  0  0
 80156  1  0  0  0
 81 85  1  0  0  0
 81157  1  0  0  0
 81158  1  0  0  0
 83159  1  0  0  0
M  ISO  4   1 100  68 101  82 101  83 100
M  END
> <chiral flag>
0

> <version>
0

> <s_m_source_file>
/data/baiqing/PycharmProjects/Reinvent-master-3.2/result/LINK_invent/BTK/process_docking_weight1_custom_product_contain_oxygen_bond_distance_aromatic_linkinvent_7_9_3/rearranged_h_0142.sdf

> <i_m_source_file_index>
64

> <r_mmod_Potential_Energy-OPLS-2005>
25.1536121368408

> <r_mmod_Stretch_Energy-OPLS-2005>
58.9535217285156

> <r_mmod_Bend_Energy-OPLS-2005>
146.54670715332

> <r_mmod_Torsional_Energy-OPLS-2005>
234.075942993164

> <r_mmod_Improper_Torsional_Energy-OPLS-2005>
5.63146734237671

> <r_mmod_Van_der_Waal_Energy-OPLS-2005>
160.028869628906

> <r_mmod_Electrostatic_Energy-OPLS-2005>
-401.520660400391

> <r_mmod_Solvation_Energy-OPLS-2005>
-206.07568359375

> <b_mmod_Minimization_Converged-OPLS-2005>
0

> <r_mmod_RMS_Derivative-OPLS-2005>
1.21823823451996

$$$$
64
                    3D
 Structure written by MMmdl.
166175  0  0  1  0            999 V2000
  -30.5809  -14.7645   20.4512 C   0  0  0  0  0  0
  -30.4465  -12.4690   19.4521 C   0  0  0  0  0  0
  -29.5086  -12.4975   18.2242 C   0  0  0  0  0  0
  -28.0355  -12.3193   18.6463 C   0  0  0  0  0  0
  -27.6409  -13.2222   19.8440 C   0  0  2  0  0  0
  -28.6925  -13.1554   20.9719 C   0  0  0  0  0  0
  -25.2536  -13.8168   20.5717 C   0  0  0  0  0  0
  -24.1820  -13.0429   20.9236 C   0  0  0  0  0  0
  -24.6393  -11.6904   20.8762 C   0  0  0  0  0  0
  -23.9067  -10.4289   21.0418 C   0  0  0  0  0  0
  -24.3615   -9.4200   21.9195 C   0  0  0  0  0  0
  -23.6294   -8.2235   22.0754 C   0  0  0  0  0  0
  -22.4277   -8.0278   21.3545 C   0  0  0  0  0  0
  -21.9915   -9.0249   20.4647 C   0  0  0  0  0  0
  -22.7241  -10.2130   20.3060 C   0  0  0  0  0  0
  -21.6854   -6.0738   22.5281 C   0  0  0  0  0  0
  -21.4010   -6.5640   23.8213 C   0  0  0  0  0  0
  -21.3651   -5.6793   24.9178 C   0  0  0  0  0  0
  -21.6041   -4.3056   24.7227 C   0  0  0  0  0  0
  -21.8824   -3.8151   23.4347 C   0  0  0  0  0  0
  -21.9196   -4.6969   22.3405 C   0  0  0  0  0  0
  -22.7839  -13.5219   21.1880 C   0  0  0  0  0  0
  -22.1670   -4.2153   21.0981 F   0  0  0  0  0  0
  -21.5618   -3.4541   25.7734 F   0  0  0  0  0  0
  -29.9860  -13.5244   20.3801 N   0  0  0  0  0  0
  -26.2941  -12.9354   20.3265 N   0  0  0  0  0  0
  -25.9315  -11.6510   20.5749 N   0  0  0  0  0  0
  -22.0472  -12.8205   22.0420 N   0  0  0  0  0  0
  -25.4215  -15.1898   20.4133 N   0  0  0  0  0  0
  -31.7878  -14.8873   20.2194 O   0  0  0  0  0  0
  -21.6638   -6.8875   21.4240 O   0  0  0  0  0  0
  -22.3532  -14.5530   20.6727 O   0  0  0  0  0  0
  -24.6323  -31.8562   23.1955 C   0  0  0  0  0  0
  -25.9149  -32.4760   23.8298 C   0  0  1  0  0  0
  -27.2175  -27.2543   20.1217 C   0  0  0  0  0  0
  -25.5935  -33.8547   24.2231 N   0  0  0  0  0  0
  -23.4276  -30.4787   21.5411 C   0  0  2  0  0  0
  -24.8728  -28.9281   20.1116 C   0  0  0  0  0  0
  -22.7500  -29.4617   22.4904 C   0  0  0  0  0  0
  -18.0286  -28.1427   22.8503 C   0  0  0  0  0  0
  -24.1466  -36.7249   23.2640 C   0  0  0  0  0  0
  -25.9751  -30.7684   21.3745 C   0  0  0  0  0  0
  -26.0481  -29.3909   20.7149 C   0  0  0  0  0  0
  -27.2248  -28.5698   20.7055 C   0  0  0  0  0  0
  -26.0122  -26.8664   19.4910 C   0  0  0  0  0  0
  -24.8607  -27.6743   19.4879 C   0  0  0  0  0  0
  -23.6438  -29.8148   20.1576 C   0  0  0  0  0  0
  -25.4102  -36.3051   24.0318 C   0  0  1  0  0  0
  -20.5898  -28.3719   23.1272 C   0  0  2  0  0  0
  -20.6778  -26.9433   22.5430 C   0  0  0  0  0  0
  -19.5748  -26.6417   21.5238 C   0  0  0  0  0  0
  -18.1919  -26.7961   22.1648 C   0  0  0  0  0  0
  -19.1549  -28.8885   23.2878 C   0  0  0  0  0  0
  -18.9487  -30.1492   23.8893 C   0  0  0  0  0  0
  -17.6490  -30.6629   24.0581 C   0  0  0  0  0  0
  -25.9071  -34.9438   23.5081 C   0  0  0  0  0  0
  -16.5369  -29.9135   23.6365 C   0  0  0  0  0  0
  -16.7282  -28.6551   23.0385 C   0  0  0  0  0  0
  -26.4494  -31.6586   25.0694 C   0  0  0  0  0  0
  -25.3705  -31.3781   26.1409 C   0  0  0  0  0  0
  -27.0330  -30.2990   24.6195 C   0  0  0  0  0  0
  -27.6024  -32.4336   25.7492 C   0  0  0  0  0  0
  -27.5552  -37.1778   24.8470 C   0  0  0  0  0  0
  -21.4208  -29.3046   22.3644 N   0  0  0  0  0  0
  -26.4257  -37.3777   23.9427 N   0  0  0  0  0  0
  -24.6973  -31.0524   22.0928 N   0  0  0  0  0  0
  -23.4184  -28.8181   23.3041 O   0  0  0  0  0  0
  -28.3158  -26.3555   20.1602 O   0  0  0  0  0  0
  -26.5663  -34.8920   22.4663 O   0  0  0  0  0  0
  -23.5482  -32.1387   23.7267 O   0  0  0  0  0  0
  -29.8853  -18.3942   20.1466 C   0  0  0  0  0  0
  -29.6912  -19.5312   21.0614 C   0  0  0  0  0  0
  -29.4421  -18.8654   22.2464 C   0  0  0  0  0  0
  -29.8312  -17.1871   20.8620 C   0  0  0  0  0  0
  -30.1612  -23.9587   21.3650 C   0  0  0  0  0  0
  -28.8261  -22.1646   20.1981 C   0  0  0  0  0  0
  -31.4143  -23.0369   21.3831 C   0  0  0  0  0  0
  -29.8234  -21.1508   20.9766 C   0  0  2  0  0  0
  -29.2376  -23.7516   20.1520 C   0  0  2  0  0  0
  -29.1348  -19.3458   23.6278 C   0  0  0  0  0  0
  -30.0161  -24.0324   18.8451 C   0  0  0  0  0  0
  -32.2881  -20.7412   21.3103 C   0  0  0  0  0  0
  -28.0520  -24.8664   20.1737 C   0  0  0  0  0  0
  -29.7225  -15.8563   20.4330 N   0  0  0  0  0  0
  -31.2198  -21.6547   20.8352 N   0  3  2  0  0  0
  -29.5153  -17.4966   22.1397 O   0  0  0  0  0  0
  -31.4787  -12.6278   19.1366 H   0  0  0  0  0  0
  -30.4234  -11.4929   19.9378 H   0  0  0  0  0  0
  -29.7898  -11.7149   17.5180 H   0  0  0  0  0  0
  -29.6257  -13.4435   17.6925 H   0  0  0  0  0  0
  -27.8983  -11.2718   18.9181 H   0  0  0  0  0  0
  -27.3725  -12.5020   17.7993 H   0  0  0  0  0  0
  -27.6297  -14.2404   19.4573 H   0  0  0  0  0  0
  -28.7378  -12.1542   21.4031 H   0  0  0  0  0  0
  -28.4292  -13.8291   21.7893 H   0  0  0  0  0  0
  -25.2751   -9.5680   22.4774 H   0  0  0  0  0  0
  -24.0006   -7.4623   22.7466 H   0  0  0  0  0  0
  -21.0844   -8.8770   19.8944 H   0  0  0  0  0  0
  -22.3700  -10.9674   19.6170 H   0  0  0  0  0  0
  -21.2004   -7.6149   23.9718 H   0  0  0  0  0  0
  -21.1462   -6.0521   25.9075 H   0  0  0  0  0  0
  -22.0608   -2.7614   23.2845 H   0  0  0  0  0  0
  -22.4082  -11.9865   22.4811 H   0  0  0  0  0  0
  -21.1083  -13.1222   22.2605 H   0  0  0  0  0  0
  -24.6517  -15.8387   20.5379 H   0  0  0  0  0  0
  -26.2527  -15.6339   20.0467 H   0  0  0  0  0  0
  -26.7209  -32.5395   23.1040 H   0  0  0  0  0  0
  -24.9999  -33.9681   25.0316 H   0  0  0  0  0  0
  -22.7257  -31.3020   21.3974 H   0  0  0  0  0  0
  -23.3746  -35.9567   23.3327 H   0  0  0  0  0  0
  -24.3542  -36.8862   22.2050 H   0  0  0  0  0  0
  -23.7188  -37.6444   23.6659 H   0  0  0  0  0  0
  -26.1167  -31.5315   20.6063 H   0  0  0  0  0  0
  -26.8503  -30.8166   22.0096 H   0  0  0  0  0  0
  -28.1243  -28.9278   21.1883 H   0  0  0  0  0  0
  -25.9122  -25.9180   18.9879 H   0  0  0  0  0  0
  -23.9593  -27.3162   19.0097 H   0  0  0  0  0  0
  -23.7646  -30.5895   19.3997 H   0  0  0  0  0  0
  -22.7605  -29.2487   19.8557 H   0  0  0  0  0  0
  -25.1289  -36.1883   25.0808 H   0  0  0  0  0  0
  -20.9995  -28.3310   24.1397 H   0  0  0  0  0  0
  -20.5707  -26.2324   23.3639 H   0  0  0  0  0  0
  -21.6633  -26.7490   22.1201 H   0  0  0  0  0  0
  -19.6904  -25.6338   21.1255 H   0  0  0  0  0  0
  -19.6676  -27.3240   20.6771 H   0  0  0  0  0  0
  -17.4195  -26.6724   21.4045 H   0  0  0  0  0  0
  -18.0306  -26.0116   22.9059 H   0  0  0  0  0  0
  -19.7971  -30.7308   24.2241 H   0  0  0  0  0  0
  -17.5069  -31.6307   24.5202 H   0  0  0  0  0  0
  -15.5386  -30.3058   23.7705 H   0  0  0  0  0  0
  -15.8666  -28.0883   22.7120 H   0  0  0  0  0  0
  -24.5901  -30.7078   25.7769 H   0  0  0  0  0  0
  -24.8857  -32.2972   26.4714 H   0  0  0  0  0  0
  -25.8017  -30.9071   27.0247 H   0  0  0  0  0  0
  -26.2906  -29.6758   24.1185 H   0  0  0  0  0  0
  -27.3956  -29.7238   25.4724 H   0  0  0  0  0  0
  -27.8818  -30.4240   23.9462 H   0  0  0  0  0  0
  -27.2605  -33.3658   26.2002 H   0  0  0  0  0  0
  -28.3888  -32.6866   25.0368 H   0  0  0  0  0  0
  -28.0618  -31.8493   26.5481 H   0  0  0  0  0  0
  -28.2594  -38.0059   24.7543 H   0  0  0  0  0  0
  -28.1029  -36.2599   24.6280 H   0  0  0  0  0  0
  -27.2283  -37.1414   25.8878 H   0  0  0  0  0  0
  -20.9409  -29.8707   21.6783 H   0  0  0  0  0  0
  -26.0132  -38.2834   24.1494 H   0  0  0  0  0  0
  -30.0695  -18.4596   19.0832 H   0  0  0  0  0  0
  -30.4815  -25.0007   21.4217 H   0  0  0  0  0  0
  -29.5828  -23.7900   22.2750 H   0  0  0  0  0  0
  -27.8466  -22.0754   20.6663 H   0  0  0  0  0  0
  -28.6811  -21.8050   19.1791 H   0  0  0  0  0  0
  -31.7640  -22.9768   22.4153 H   0  0  0  0  0  0
  -32.2238  -23.5086   20.8239 H   0  0  0  0  0  0
  -29.6061  -21.4012   22.0150 H   0  0  0  0  0  0
  -29.9685  -19.9128   24.0404 H   0  0  0  0  0  0
  -28.9382  -18.5130   24.3035 H   0  0  0  0  0  0
  -28.2520  -19.9852   23.6289 H   0  0  0  0  0  0
  -30.8663  -23.3694   18.6972 H   0  0  0  0  0  0
  -30.3976  -25.0544   18.8290 H   0  0  0  0  0  0
  -29.3737  -23.9194   17.9708 H   0  0  0  0  0  0
  -33.2675  -21.2077   21.2036 H   0  0  0  0  0  0
  -32.3171  -19.8176   20.7333 H   0  0  0  0  0  0
  -32.1584  -20.4857   22.3629 H   0  0  0  0  0  0
  -27.4191  -24.6691   21.0400 H   0  0  0  0  0  0
  -27.4446  -24.6161   19.3071 H   0  0  0  0  0  0
  -28.7664  -15.5431   20.3928 H   0  0  0  0  0  0
  -31.3665  -21.7251   19.8398 H   0  0  0  0  0  0
  1 25  1  0  0  0
  1 30  2  0  0  0
  1 84  1  0  0  0
  2  3  1  0  0  0
  2 25  1  0  0  0
  2 87  1  0  0  0
  2 88  1  0  0  0
  3  4  1  0  0  0
  3 89  1  0  0  0
  3 90  1  0  0  0
  4  5  1  0  0  0
  4 91  1  0  0  0
  4 92  1  0  0  0
  5  6  1  0  0  0
  5 26  1  0  0  0
  5 93  1  0  0  0
  6 25  1  0  0  0
  6 94  1  0  0  0
  6 95  1  0  0  0
  7  8  2  0  0  0
  7 26  1  0  0  0
  7 29  1  0  0  0
  8  9  1  0  0  0
  8 22  1  0  0  0
  9 10  1  0  0  0
  9 27  2  0  0  0
 10 11  2  0  0  0
 10 15  1  0  0  0
 11 12  1  0  0  0
 11 96  1  0  0  0
 12 13  2  0  0  0
 12 97  1  0  0  0
 13 14  1  0  0  0
 13 31  1  0  0  0
 14 15  2  0  0  0
 14 98  1  0  0  0
 15 99  1  0  0  0
 16 17  2  0  0  0
 16 21  1  0  0  0
 16 31  1  0  0  0
 17 18  1  0  0  0
 17100  1  0  0  0
 18 19  2  0  0  0
 18101  1  0  0  0
 19 20  1  0  0  0
 19 24  1  0  0  0
 20 21  2  0  0  0
 20102  1  0  0  0
 21 23  1  0  0  0
 22 28  1  0  0  0
 22 32  2  0  0  0
 26 27  1  0  0  0
 28103  1  0  0  0
 28104  1  0  0  0
 29105  1  0  0  0
 29106  1  0  0  0
 33 34  1  0  0  0
 33 66  1  0  0  0
 33 70  2  0  0  0
 34 36  1  0  0  0
 34 59  1  0  0  0
 34107  1  0  0  0
 35 44  2  0  0  0
 35 45  1  0  0  0
 35 68  1  0  0  0
 36 56  1  0  0  0
 36108  1  0  0  0
 37 39  1  0  0  0
 37 47  1  0  0  0
 37 66  1  0  0  0
 37109  1  0  0  0
 38 43  2  0  0  0
 38 46  1  0  0  0
 38 47  1  0  0  0
 39 64  1  0  0  0
 39 67  2  0  0  0
 40 52  1  0  0  0
 40 53  2  0  0  0
 40 58  1  0  0  0
 41110  1  0  0  0
 41111  1  0  0  0
 41112  1  0  0  0
 41 48  1  0  0  0
 42 43  1  0  0  0
 42 66  1  0  0  0
 42113  1  0  0  0
 42114  1  0  0  0
 43 44  1  0  0  0
 44115  1  0  0  0
 45 46  2  0  0  0
 45116  1  0  0  0
 46117  1  0  0  0
 47118  1  0  0  0
 47119  1  0  0  0
 48 56  1  0  0  0
 48 65  1  0  0  0
 48120  1  0  0  0
 49 50  1  0  0  0
 49 53  1  0  0  0
 49 64  1  0  0  0
 49121  1  0  0  0
 50 51  1  0  0  0
 50122  1  0  0  0
 50123  1  0  0  0
 51 52  1  0  0  0
 51124  1  0  0  0
 51125  1  0  0  0
 52126  1  0  0  0
 52127  1  0  0  0
 53 54  1  0  0  0
 54 55  2  0  0  0
 54128  1  0  0  0
 55 57  1  0  0  0
 55129  1  0  0  0
 56 69  2  0  0  0
 57 58  2  0  0  0
 57130  1  0  0  0
 58131  1  0  0  0
 59 60  1  0  0  0
 59 61  1  0  0  0
 59 62  1  0  0  0
 60132  1  0  0  0
 60133  1  0  0  0
 60134  1  0  0  0
 61135  1  0  0  0
 61136  1  0  0  0
 61137  1  0  0  0
 62138  1  0  0  0
 62139  1  0  0  0
 62140  1  0  0  0
 63 65  1  0  0  0
 63141  1  0  0  0
 63142  1  0  0  0
 63143  1  0  0  0
 64144  1  0  0  0
 65145  1  0  0  0
 68 83  1  0  0  0
 71 72  1  0  0  0
 71 74  2  0  0  0
 71146  1  0  0  0
 72 73  2  0  0  0
 72 78  1  0  0  0
 73 80  1  0  0  0
 73 86  1  0  0  0
 74 84  1  0  0  0
 74 86  1  0  0  0
 75 77  1  0  0  0
 75 79  1  0  0  0
 75147  1  0  0  0
 75148  1  0  0  0
 76 78  1  0  0  0
 76 79  1  0  0  0
 76149  1  0  0  0
 76150  1  0  0  0
 77 85  1  0  0  0
 77151  1  0  0  0
 77152  1  0  0  0
 78 85  1  0  0  0
 78153  1  0  0  0
 79 81  1  0  0  0
 79 83  1  0  0  0
 80154  1  0  0  0
 80155  1  0  0  0
 80156  1  0  0  0
 81157  1  0  0  0
 81158  1  0  0  0
 81159  1  0  0  0
 82160  1  0  0  0
 82161  1  0  0  0
 82162  1  0  0  0
 82 85  1  0  0  0
 83163  1  0  0  0
 83164  1  0  0  0
 84165  1  0  0  0
 85166  1  0  0  0
M  CHG  1  85   1
M  ISO  4   1 100  68 101  83 101  84 100
M  END
> <chiral flag>
0

> <version>
0

> <s_m_source_file>
/data/baiqing/PycharmProjects/Reinvent-master-3.2/result/LINK_invent/BTK/process_docking_weight1_custom_product_contain_oxygen_bond_distance_aromatic_linkinvent_7_9_3/rearranged_h_0142.sdf

> <i_m_source_file_index>
65

> <r_mmod_Potential_Energy-OPLS-2005>
148.076461791992

> <r_mmod_Stretch_Energy-OPLS-2005>
135.777191162109

> <r_mmod_Bend_Energy-OPLS-2005>
211.85627746582

> <r_mmod_Torsional_Energy-OPLS-2005>
306.16064453125

> <r_mmod_Improper_Torsional_Energy-OPLS-2005>
13.2491884231567

> <r_mmod_Van_der_Waal_Energy-OPLS-2005>
128.484527587891

> <r_mmod_Electrostatic_Energy-OPLS-2005>
-308.093078613281

> <r_mmod_Solvation_Energy-OPLS-2005>
-433.070190429688

> <b_mmod_Minimization_Converged-OPLS-2005>
0

> <r_mmod_RMS_Derivative-OPLS-2005>
2.06891369819641

$$$$
65
                    3D
 Structure written by MMmdl.
160169  0  0  1  0            999 V2000
  -30.5791  -14.8170   20.4072 C   0  0  0  0  0  0
  -30.4399  -12.4797   19.5062 C   0  0  0  0  0  0
  -29.5252  -12.4447   18.2603 C   0  0  0  0  0  0
  -28.0414  -12.3187   18.6584 C   0  0  0  0  0  0
  -27.6395  -13.2378   19.8440 C   0  0  2  0  0  0
  -28.6803  -13.2085   20.9838 C   0  0  0  0  0  0
  -25.2501  -13.8224   20.5685 C   0  0  0  0  0  0
  -24.1801  -13.0458   20.9204 C   0  0  0  0  0  0
  -24.6399  -11.6934   20.8748 C   0  0  0  0  0  0
  -23.9079  -10.4303   21.0399 C   0  0  0  0  0  0
  -24.3627   -9.4214   21.9175 C   0  0  0  0  0  0
  -23.6301   -8.2248   22.0744 C   0  0  0  0  0  0
  -22.4281   -8.0285   21.3537 C   0  0  0  0  0  0
  -21.9921   -9.0257   20.4635 C   0  0  0  0  0  0
  -22.7251  -10.2137   20.3045 C   0  0  0  0  0  0
  -21.6859   -6.0739   22.5274 C   0  0  0  0  0  0
  -21.4016   -6.5639   23.8207 C   0  0  0  0  0  0
  -21.3661   -5.6790   24.9168 C   0  0  0  0  0  0
  -21.6043   -4.3053   24.7217 C   0  0  0  0  0  0
  -21.8822   -3.8146   23.4339 C   0  0  0  0  0  0
  -21.9190   -4.6964   22.3394 C   0  0  0  0  0  0
  -22.7819  -13.5225   21.1868 C   0  0  0  0  0  0
  -22.1660   -4.2149   21.0971 F   0  0  0  0  0  0
  -21.5629   -3.4536   25.7732 F   0  0  0  0  0  0
  -29.9752  -13.5728   20.3985 N   0  0  0  0  0  0
  -26.2927  -12.9437   20.3253 N   0  0  0  0  0  0
  -25.9330  -11.6577   20.5757 N   0  0  0  0  0  0
  -22.0478  -12.8197   22.0421 N   0  0  0  0  0  0
  -25.4198  -15.1948   20.4097 N   0  0  0  0  0  0
  -31.7765  -14.8950   20.1133 O   0  0  0  0  0  0
  -21.6644   -6.8884   21.4237 O   0  0  0  0  0  0
  -22.3491  -14.5526   20.6718 O   0  0  0  0  0  0
  -24.6340  -31.8519   23.1943 C   0  0  0  0  0  0
  -25.9152  -32.4729   23.8306 C   0  0  1  0  0  0
  -27.2247  -27.2316   20.1245 C   0  0  0  0  0  0
  -25.5934  -33.8535   24.2228 N   0  0  0  0  0  0
  -23.4323  -30.4724   21.5380 C   0  0  2  0  0  0
  -24.8803  -28.9140   20.1056 C   0  0  0  0  0  0
  -22.7514  -29.4587   22.4895 C   0  0  0  0  0  0
  -18.0293  -28.1390   22.8483 C   0  0  0  0  0  0
  -24.1487  -36.7271   23.2640 C   0  0  0  0  0  0
  -25.9800  -30.7542   21.3784 C   0  0  0  0  0  0
  -26.0525  -29.3748   20.7172 C   0  0  0  0  0  0
  -27.2235  -28.5453   20.7162 C   0  0  0  0  0  0
  -26.0213  -26.8395   19.4961 C   0  0  0  0  0  0
  -24.8718  -27.6562   19.4830 C   0  0  0  0  0  0
  -23.6513  -29.8034   20.1550 C   0  0  0  0  0  0
  -25.4116  -36.3057   24.0322 C   0  0  1  0  0  0
  -20.5898  -28.3706   23.1263 C   0  0  2  0  0  0
  -20.6781  -26.9418   22.5409 C   0  0  0  0  0  0
  -19.5757  -26.6385   21.5216 C   0  0  0  0  0  0
  -18.1937  -26.7932   22.1624 C   0  0  0  0  0  0
  -19.1546  -28.8864   23.2869 C   0  0  0  0  0  0
  -18.9467  -30.1462   23.8892 C   0  0  0  0  0  0
  -17.6466  -30.6590   24.0561 C   0  0  0  0  0  0
  -25.9064  -34.9427   23.5084 C   0  0  0  0  0  0
  -16.5356  -29.9086   23.6333 C   0  0  0  0  0  0
  -16.7278  -28.6503   23.0354 C   0  0  0  0  0  0
  -26.4506  -31.6566   25.0711 C   0  0  0  0  0  0
  -25.3709  -31.3722   26.1414 C   0  0  0  0  0  0
  -27.0357  -30.2973   24.6226 C   0  0  0  0  0  0
  -27.6045  -32.4311   25.7496 C   0  0  0  0  0  0
  -27.5579  -37.1789   24.8462 C   0  0  0  0  0  0
  -21.4218  -29.3048   22.3646 N   0  0  0  0  0  0
  -26.4286  -37.3763   23.9414 N   0  0  0  0  0  0
  -24.7012  -31.0454   22.0928 N   0  0  0  0  0  0
  -23.4201  -28.8139   23.3017 O   0  0  0  0  0  0
  -28.3062  -26.3122   20.2426 O   0  0  0  0  0  0
  -26.5650  -34.8914   22.4662 O   0  0  0  0  0  0
  -23.5483  -32.1361   23.7221 O   0  0  0  0  0  0
  -29.9321  -18.5456   17.7290 C   0  0  0  0  0  0
  -29.6604  -19.7763   18.3405 C   0  0  0  0  0  0
  -29.5088  -18.6274   20.4693 C   0  0  0  0  0  0
  -29.9716  -17.3360   18.4474 C   0  0  0  0  0  0
  -29.4098  -19.8963   19.7224 C   0  0  0  0  0  0
  -29.8102  -17.3106   19.8650 C   0  0  0  0  0  0
  -28.6229  -23.7688   20.0883 C   0  0  0  0  0  0
  -28.3941  -25.0500   19.5621 C   0  0  0  0  0  0
  -28.7469  -23.3093   21.5347 C   0  0  0  0  0  0
  -28.8455  -22.4459   19.2843 C   0  0  0  0  0  0
  -29.0100  -21.7489   21.5551 C   0  0  0  0  0  0
  -30.0830  -16.0802   17.6032 C   0  0  0  0  0  0
  -28.3875  -25.2466   18.0542 C   0  0  0  0  0  0
  -29.0793  -21.2570   20.1766 N   0  0  0  0  0  0
  -29.7977  -15.9729   20.5712 N   0  0  0  0  0  0
  -31.4795  -12.6096   19.1998 H   0  0  0  0  0  0
  -30.4059  -11.5249   20.0328 H   0  0  0  0  0  0
  -29.8034  -11.6036   17.6245 H   0  0  0  0  0  0
  -29.6839  -13.3283   17.6490 H   0  0  0  0  0  0
  -27.8733  -11.2766   18.9313 H   0  0  0  0  0  0
  -27.4014  -12.5100   17.7958 H   0  0  0  0  0  0
  -27.6240  -14.2519   19.4447 H   0  0  0  0  0  0
  -28.7273  -12.2211   21.4452 H   0  0  0  0  0  0
  -28.4048  -13.9059   21.7762 H   0  0  0  0  0  0
  -25.2771   -9.5692   22.4756 H   0  0  0  0  0  0
  -24.0009   -7.4639   22.7462 H   0  0  0  0  0  0
  -21.0854   -8.8773   19.8938 H   0  0  0  0  0  0
  -22.3705  -10.9673   19.6154 H   0  0  0  0  0  0
  -21.2016   -7.6149   23.9715 H   0  0  0  0  0  0
  -21.1479   -6.0515   25.9071 H   0  0  0  0  0  0
  -22.0600   -2.7606   23.2834 H   0  0  0  0  0  0
  -22.4114  -11.9866   22.4808 H   0  0  0  0  0  0
  -21.1086  -13.1191   22.2625 H   0  0  0  0  0  0
  -24.6565  -15.8521   20.5293 H   0  0  0  0  0  0
  -26.2647  -15.6317   20.0646 H   0  0  0  0  0  0
  -26.7212  -32.5366   23.1039 H   0  0  0  0  0  0
  -25.0037  -33.9665   25.0345 H   0  0  0  0  0  0
  -22.7301  -31.2954   21.3892 H   0  0  0  0  0  0
  -23.3759  -35.9591   23.3281 H   0  0  0  0  0  0
  -24.3573  -36.8922   22.2057 H   0  0  0  0  0  0
  -23.7228  -37.6458   23.6685 H   0  0  0  0  0  0
  -26.1244  -31.5147   20.6101 H   0  0  0  0  0  0
  -26.8554  -30.8017   22.0148 H   0  0  0  0  0  0
  -28.1171  -28.8885   21.2184 H   0  0  0  0  0  0
  -25.9377  -25.8635   19.0425 H   0  0  0  0  0  0
  -23.9713  -27.2937   19.0067 H   0  0  0  0  0  0
  -23.7742  -30.5783   19.3973 H   0  0  0  0  0  0
  -22.7694  -29.2361   19.8516 H   0  0  0  0  0  0
  -25.1301  -36.1890   25.0813 H   0  0  0  0  0  0
  -20.9989  -28.3287   24.1385 H   0  0  0  0  0  0
  -20.5671  -26.2322   23.3620 H   0  0  0  0  0  0
  -21.6647  -26.7436   22.1207 H   0  0  0  0  0  0
  -19.6918  -25.6293   21.1254 H   0  0  0  0  0  0
  -19.6697  -27.3185   20.6736 H   0  0  0  0  0  0
  -17.4208  -26.6673   21.4028 H   0  0  0  0  0  0
  -18.0341  -26.0075   22.9023 H   0  0  0  0  0  0
  -19.7943  -30.7278   24.2260 H   0  0  0  0  0  0
  -17.5020  -31.6270   24.5161 H   0  0  0  0  0  0
  -15.5356  -30.2984   23.7664 H   0  0  0  0  0  0
  -15.8679  -28.0817   22.7077 H   0  0  0  0  0  0
  -24.5892  -30.7069   25.7729 H   0  0  0  0  0  0
  -24.8892  -32.2891   26.4817 H   0  0  0  0  0  0
  -25.8005  -30.8905   27.0205 H   0  0  0  0  0  0
  -26.2948  -29.6710   24.1239 H   0  0  0  0  0  0
  -27.4009  -29.7249   25.4765 H   0  0  0  0  0  0
  -27.8844  -30.4232   23.9496 H   0  0  0  0  0  0
  -27.2640  -33.3615   26.2055 H   0  0  0  0  0  0
  -28.3872  -32.6863   25.0337 H   0  0  0  0  0  0
  -28.0695  -31.8445   26.5432 H   0  0  0  0  0  0
  -28.2578  -38.0105   24.7530 H   0  0  0  0  0  0
  -28.1096  -36.2636   24.6260 H   0  0  0  0  0  0
  -27.2303  -37.1397   25.8867 H   0  0  0  0  0  0
  -20.9409  -29.8754   21.6832 H   0  0  0  0  0  0
  -26.0158  -38.2832   24.1425 H   0  0  0  0  0  0
  -30.0683  -18.5377   16.6565 H   0  0  0  0  0  0
  -29.6264  -20.6337   17.6861 H   0  0  0  0  0  0
  -29.3260  -18.6594   21.5335 H   0  0  0  0  0  0
  -27.8327  -23.5576   22.0754 H   0  0  0  0  0  0
  -29.5652  -23.8463   22.0151 H   0  0  0  0  0  0
  -29.7075  -22.5966   18.6329 H   0  0  0  0  0  0
  -27.9788  -22.2677   18.6462 H   0  0  0  0  0  0
  -28.2115  -21.2328   22.0902 H   0  0  0  0  0  0
  -29.9433  -21.5253   22.0745 H   0  0  0  0  0  0
  -30.0075  -16.2978   16.5371 H   0  0  0  0  0  0
  -29.2534  -15.4191   17.8449 H   0  0  0  0  0  0
  -31.0329  -15.5705   17.7546 H   0  0  0  0  0  0
  -29.2861  -24.8148   17.6125 H   0  0  0  0  0  0
  -28.3660  -26.3015   17.7805 H   0  0  0  0  0  0
  -27.5211  -24.7568   17.6086 H   0  0  0  0  0  0
  -28.9469  -15.7974   21.0842 H   0  0  0  0  0  0
  1 25  1  0  0  0
  1 30  2  0  0  0
  1 85  1  0  0  0
  2  3  1  0  0  0
  2 25  1  0  0  0
  2 86  1  0  0  0
  2 87  1  0  0  0
  3  4  1  0  0  0
  3 88  1  0  0  0
  3 89  1  0  0  0
  4  5  1  0  0  0
  4 90  1  0  0  0
  4 91  1  0  0  0
  5  6  1  0  0  0
  5 26  1  0  0  0
  5 92  1  0  0  0
  6 25  1  0  0  0
  6 93  1  0  0  0
  6 94  1  0  0  0
  7  8  2  0  0  0
  7 26  1  0  0  0
  7 29  1  0  0  0
  8  9  1  0  0  0
  8 22  1  0  0  0
  9 10  1  0  0  0
  9 27  2  0  0  0
 10 11  2  0  0  0
 10 15  1  0  0  0
 11 12  1  0  0  0
 11 95  1  0  0  0
 12 13  2  0  0  0
 12 96  1  0  0  0
 13 14  1  0  0  0
 13 31  1  0  0  0
 14 15  2  0  0  0
 14 97  1  0  0  0
 15 98  1  0  0  0
 16 17  2  0  0  0
 16 21  1  0  0  0
 16 31  1  0  0  0
 17 18  1  0  0  0
 17 99  1  0  0  0
 18 19  2  0  0  0
 18100  1  0  0  0
 19 20  1  0  0  0
 19 24  1  0  0  0
 20 21  2  0  0  0
 20101  1  0  0  0
 21 23  1  0  0  0
 22 28  1  0  0  0
 22 32  2  0  0  0
 26 27  1  0  0  0
 28102  1  0  0  0
 28103  1  0  0  0
 29104  1  0  0  0
 29105  1  0  0  0
 33 34  1  0  0  0
 33 66  1  0  0  0
 33 70  2  0  0  0
 34 36  1  0  0  0
 34 59  1  0  0  0
 34106  1  0  0  0
 35 44  2  0  0  0
 35 45  1  0  0  0
 35 68  1  0  0  0
 36 56  1  0  0  0
 36107  1  0  0  0
 37 39  1  0  0  0
 37 47  1  0  0  0
 37 66  1  0  0  0
 37108  1  0  0  0
 38 43  2  0  0  0
 38 46  1  0  0  0
 38 47  1  0  0  0
 39 64  1  0  0  0
 39 67  2  0  0  0
 40 52  1  0  0  0
 40 53  2  0  0  0
 40 58  1  0  0  0
 41109  1  0  0  0
 41110  1  0  0  0
 41111  1  0  0  0
 41 48  1  0  0  0
 42 43  1  0  0  0
 42 66  1  0  0  0
 42112  1  0  0  0
 42113  1  0  0  0
 43 44  1  0  0  0
 44114  1  0  0  0
 45 46  2  0  0  0
 45115  1  0  0  0
 46116  1  0  0  0
 47117  1  0  0  0
 47118  1  0  0  0
 48 56  1  0  0  0
 48 65  1  0  0  0
 48119  1  0  0  0
 49 50  1  0  0  0
 49 53  1  0  0  0
 49 64  1  0  0  0
 49120  1  0  0  0
 50 51  1  0  0  0
 50121  1  0  0  0
 50122  1  0  0  0
 51 52  1  0  0  0
 51123  1  0  0  0
 51124  1  0  0  0
 52125  1  0  0  0
 52126  1  0  0  0
 53 54  1  0  0  0
 54 55  2  0  0  0
 54127  1  0  0  0
 55 57  1  0  0  0
 55128  1  0  0  0
 56 69  2  0  0  0
 57 58  2  0  0  0
 57129  1  0  0  0
 58130  1  0  0  0
 59 60  1  0  0  0
 59 61  1  0  0  0
 59 62  1  0  0  0
 60131  1  0  0  0
 60132  1  0  0  0
 60133  1  0  0  0
 61134  1  0  0  0
 61135  1  0  0  0
 61136  1  0  0  0
 62137  1  0  0  0
 62138  1  0  0  0
 62139  1  0  0  0
 63 65  1  0  0  0
 63140  1  0  0  0
 63141  1  0  0  0
 63142  1  0  0  0
 64143  1  0  0  0
 65144  1  0  0  0
 68 78  1  0  0  0
 71 72  2  0  0  0
 71 74  1  0  0  0
 71145  1  0  0  0
 72 75  1  0  0  0
 72146  1  0  0  0
 73 75  2  0  0  0
 73 76  1  0  0  0
 73147  1  0  0  0
 74 76  2  0  0  0
 74 82  1  0  0  0
 75 84  1  0  0  0
 76 85  1  0  0  0
 77 78  2  0  0  0
 77 79  1  0  0  0
 77 80  1  0  0  0
 78 83  1  0  0  0
 79 81  1  0  0  0
 79148  1  0  0  0
 79149  1  0  0  0
 80 84  1  0  0  0
 80150  1  0  0  0
 80151  1  0  0  0
 81 84  1  0  0  0
 81152  1  0  0  0
 81153  1  0  0  0
 82154  1  0  0  0
 82155  1  0  0  0
 82156  1  0  0  0
 83157  1  0  0  0
 83158  1  0  0  0
 83159  1  0  0  0
 85160  1  0  0  0
M  ISO  4   1 100  68 101  78 101  85 100
M  END
> <chiral flag>
0

> <version>
0

> <s_m_source_file>
/data/baiqing/PycharmProjects/Reinvent-master-3.2/result/LINK_invent/BTK/process_docking_weight1_custom_product_contain_oxygen_bond_distance_aromatic_linkinvent_7_9_3/rearranged_h_0142.sdf

> <i_m_source_file_index>
66

> <r_mmod_Potential_Energy-OPLS-2005>
323.723022460938

> <r_mmod_Stretch_Energy-OPLS-2005>
147.322616577148

> <r_mmod_Bend_Energy-OPLS-2005>
223.923278808594

> <r_mmod_Torsional_Energy-OPLS-2005>
269.609893798828

> <r_mmod_Improper_Torsional_Energy-OPLS-2005>
5.89680480957031

> <r_mmod_Van_der_Waal_Energy-OPLS-2005>
141.260543823242

> <r_mmod_Electrostatic_Energy-OPLS-2005>
-357.622772216797

> <r_mmod_Solvation_Energy-OPLS-2005>
-224.120941162109

> <b_mmod_Minimization_Converged-OPLS-2005>
0

> <r_mmod_RMS_Derivative-OPLS-2005>
0.935478389263153

$$$$
66
                    3D
 Structure written by MMmdl.
173182  0  0  1  0            999 V2000
  -30.6173  -14.6455   20.5057 C   0  0  0  0  0  0
  -30.4454  -12.3983   19.4482 C   0  0  0  0  0  0
  -29.5099  -12.5092   18.2226 C   0  0  0  0  0  0
  -28.0328  -12.3442   18.6351 C   0  0  0  0  0  0
  -27.6559  -13.2134   19.8640 C   0  0  2  0  0  0
  -28.7029  -13.0628   20.9918 C   0  0  0  0  0  0
  -25.2574  -13.8159   20.5668 C   0  0  0  0  0  0
  -24.1845  -13.0434   20.9189 C   0  0  0  0  0  0
  -24.6409  -11.6901   20.8743 C   0  0  0  0  0  0
  -23.9070  -10.4289   21.0407 C   0  0  0  0  0  0
  -24.3619   -9.4205   21.9185 C   0  0  0  0  0  0
  -23.6292   -8.2242   22.0755 C   0  0  0  0  0  0
  -22.4274   -8.0282   21.3542 C   0  0  0  0  0  0
  -21.9914   -9.0257   20.4643 C   0  0  0  0  0  0
  -22.7244  -10.2133   20.3056 C   0  0  0  0  0  0
  -21.6852   -6.0738   22.5275 C   0  0  0  0  0  0
  -21.4015   -6.5640   23.8209 C   0  0  0  0  0  0
  -21.3660   -5.6791   24.9169 C   0  0  0  0  0  0
  -21.6039   -4.3053   24.7217 C   0  0  0  0  0  0
  -21.8823   -3.8148   23.4339 C   0  0  0  0  0  0
  -21.9193   -4.6966   22.3396 C   0  0  0  0  0  0
  -22.7863  -13.5229   21.1841 C   0  0  0  0  0  0
  -22.1661   -4.2153   21.0973 F   0  0  0  0  0  0
  -21.5628   -3.4536   25.7732 F   0  0  0  0  0  0
  -30.0179  -13.4143   20.4294 N   0  0  0  0  0  0
  -26.3006  -12.9335   20.3316 N   0  0  0  0  0  0
  -25.9337  -11.6494   20.5762 N   0  0  0  0  0  0
  -22.0502  -12.8228   22.0397 N   0  0  0  0  0  0
  -25.4275  -15.1878   20.4032 N   0  0  0  0  0  0
  -31.7803  -14.8198   20.1281 O   0  0  0  0  0  0
  -21.6635   -6.8882   21.4238 O   0  0  0  0  0  0
  -22.3550  -14.5535   20.6681 O   0  0  0  0  0  0
  -24.6278  -31.8605   23.2047 C   0  0  0  0  0  0
  -25.9129  -32.4783   23.8364 C   0  0  1  0  0  0
  -27.2191  -27.3104   20.1056 C   0  0  0  0  0  0
  -25.5946  -33.8580   24.2292 N   0  0  0  0  0  0
  -23.4210  -30.4875   21.5478 C   0  0  2  0  0  0
  -24.8672  -28.9503   20.1070 C   0  0  0  0  0  0
  -22.7488  -29.4630   22.4933 C   0  0  0  0  0  0
  -18.0290  -28.1384   22.8479 C   0  0  0  0  0  0
  -24.1491  -36.7285   23.2640 C   0  0  0  0  0  0
  -25.9652  -30.7862   21.3808 C   0  0  0  0  0  0
  -26.0380  -29.4151   20.7191 C   0  0  0  0  0  0
  -27.2156  -28.6053   20.7156 C   0  0  0  0  0  0
  -26.0259  -26.9213   19.4463 C   0  0  0  0  0  0
  -24.8633  -27.7085   19.4617 C   0  0  0  0  0  0
  -23.6364  -29.8310   20.1605 C   0  0  0  0  0  0
  -25.4113  -36.3080   24.0334 C   0  0  1  0  0  0
  -20.5891  -28.3687   23.1272 C   0  0  2  0  0  0
  -20.6780  -26.9409   22.5402 C   0  0  0  0  0  0
  -19.5756  -26.6382   21.5204 C   0  0  0  0  0  0
  -18.1934  -26.7925   22.1617 C   0  0  0  0  0  0
  -19.1546  -28.8850   23.2867 C   0  0  0  0  0  0
  -18.9473  -30.1451   23.8884 C   0  0  0  0  0  0
  -17.6473  -30.6586   24.0561 C   0  0  0  0  0  0
  -25.9054  -34.9450   23.5106 C   0  0  0  0  0  0
  -16.5362  -29.9086   23.6332 C   0  0  0  0  0  0
  -16.7280  -28.6505   23.0349 C   0  0  0  0  0  0
  -26.4502  -31.6594   25.0735 C   0  0  0  0  0  0
  -25.3733  -31.3731   26.1460 C   0  0  0  0  0  0
  -27.0349  -30.3018   24.6188 C   0  0  0  0  0  0
  -27.6055  -32.4330   25.7509 C   0  0  0  0  0  0
  -27.5578  -37.1797   24.8472 C   0  0  0  0  0  0
  -21.4202  -29.3044   22.3671 N   0  0  0  0  0  0
  -26.4289  -37.3776   23.9414 N   0  0  0  0  0  0
  -24.6901  -31.0610   22.1008 N   0  0  0  0  0  0
  -23.4209  -28.8152   23.3001 O   0  0  0  0  0  0
  -28.3168  -26.4261   20.1759 O   0  0  0  0  0  0
  -26.5617  -34.8920   22.4666 O   0  0  0  0  0  0
  -23.5441  -32.1410   23.7370 O   0  0  0  0  0  0
  -28.6148  -19.2952   21.0001 C   0  0  0  0  0  0
  -30.9817  -19.3486   20.6696 C   0  0  0  0  0  0
  -28.6529  -17.8717   20.9540 C   0  0  0  0  0  0
  -31.0248  -17.9184   20.6136 C   0  0  0  0  0  0
  -29.7847  -20.0994   20.8977 C   0  0  0  0  0  0
  -29.8540  -17.1348   20.7853 C   0  0  0  0  0  0
  -28.9954  -23.8376   20.3215 C   0  0  0  0  0  0
  -28.6498  -22.6378   20.8857 C   0  0  0  0  0  0
  -30.8942  -22.3671   20.2646 C   0  0  0  0  0  0
  -30.4545  -23.8234   19.9378 C   0  0  2  0  0  0
  -29.8517  -21.6738   21.2174 C   0  0  2  0  0  0
  -27.2210  -22.2243   21.2128 C   0  0  0  0  0  0
  -31.3125  -24.9161   20.5990 C   0  0  0  0  0  0
  -29.6887  -20.6569   23.6572 C   0  0  0  0  0  0
  -29.6110  -23.0931   23.4760 C   0  0  0  0  0  0
  -31.7371  -21.8803   23.0461 C   0  0  0  0  0  0
  -28.0546  -25.0027   19.8373 C   0  0  0  0  0  0
  -30.2115  -21.8344   22.7897 C   0  0  0  0  0  0
  -29.7803  -15.6735   20.8507 N   0  0  0  0  0  0
  -31.4846  -12.5326   19.1431 H   0  0  0  0  0  0
  -30.3890  -11.4016   19.8878 H   0  0  0  0  0  0
  -29.7749  -11.7587   17.4765 H   0  0  0  0  0  0
  -29.6477  -13.4790   17.7415 H   0  0  0  0  0  0
  -27.8707  -11.2906   18.8653 H   0  0  0  0  0  0
  -27.3777  -12.5746   17.7943 H   0  0  0  0  0  0
  -27.6745  -14.2489   19.5234 H   0  0  0  0  0  0
  -28.7184  -12.0379   21.3654 H   0  0  0  0  0  0
  -28.4470  -13.6851   21.8507 H   0  0  0  0  0  0
  -25.2771   -9.5673   22.4754 H   0  0  0  0  0  0
  -23.9995   -7.4635   22.7484 H   0  0  0  0  0  0
  -21.0844   -8.8780   19.8952 H   0  0  0  0  0  0
  -22.3714  -10.9670   19.6158 H   0  0  0  0  0  0
  -21.2013   -7.6150   23.9713 H   0  0  0  0  0  0
  -21.1475   -6.0520   25.9070 H   0  0  0  0  0  0
  -22.0604   -2.7613   23.2835 H   0  0  0  0  0  0
  -22.4114  -11.9884   22.4783 H   0  0  0  0  0  0
  -21.1120  -13.1253   22.2599 H   0  0  0  0  0  0
  -24.6510  -15.8341   20.4910 H   0  0  0  0  0  0
  -26.2564  -15.6174   20.0142 H   0  0  0  0  0  0
  -26.7190  -32.5456   23.1110 H   0  0  0  0  0  0
  -25.0114  -33.9724   25.0450 H   0  0  0  0  0  0
  -22.7154  -31.3094   21.4088 H   0  0  0  0  0  0
  -23.3759  -35.9612   23.3307 H   0  0  0  0  0  0
  -24.3583  -36.8898   22.2054 H   0  0  0  0  0  0
  -23.7238  -37.6482   23.6659 H   0  0  0  0  0  0
  -26.1025  -31.5509   20.6149 H   0  0  0  0  0  0
  -26.8443  -30.8310   22.0118 H   0  0  0  0  0  0
  -28.1086  -28.9534   21.2156 H   0  0  0  0  0  0
  -25.9451  -25.9877   18.9107 H   0  0  0  0  0  0
  -23.9709  -27.3521   18.9653 H   0  0  0  0  0  0
  -23.7582  -30.6136   19.4107 H   0  0  0  0  0  0
  -22.7558  -29.2642   19.8532 H   0  0  0  0  0  0
  -25.1287  -36.1929   25.0826 H   0  0  0  0  0  0
  -20.9978  -28.3263   24.1396 H   0  0  0  0  0  0
  -20.5686  -26.2296   23.3605 H   0  0  0  0  0  0
  -21.6649  -26.7442   22.1188 H   0  0  0  0  0  0
  -19.6919  -25.6294   21.1236 H   0  0  0  0  0  0
  -19.6693  -27.3194   20.6731 H   0  0  0  0  0  0
  -17.4201  -26.6674   21.4022 H   0  0  0  0  0  0
  -18.0332  -26.0066   22.9014 H   0  0  0  0  0  0
  -19.7954  -30.7260   24.2259 H   0  0  0  0  0  0
  -17.5038  -31.6270   24.5162 H   0  0  0  0  0  0
  -15.5367  -30.2989   23.7666 H   0  0  0  0  0  0
  -15.8679  -28.0831   22.7064 H   0  0  0  0  0  0
  -24.5912  -30.7076   25.7794 H   0  0  0  0  0  0
  -24.8923  -32.2898   26.4879 H   0  0  0  0  0  0
  -25.8052  -30.8916   27.0245 H   0  0  0  0  0  0
  -26.2924  -29.6767   24.1210 H   0  0  0  0  0  0
  -27.4056  -29.7268   25.4686 H   0  0  0  0  0  0
  -27.8793  -30.4315   23.9413 H   0  0  0  0  0  0
  -27.2659  -33.3638   26.2062 H   0  0  0  0  0  0
  -28.3869  -32.6875   25.0339 H   0  0  0  0  0  0
  -28.0715  -31.8472   26.5443 H   0  0  0  0  0  0
  -28.2588  -38.0101   24.7511 H   0  0  0  0  0  0
  -28.1074  -36.2625   24.6297 H   0  0  0  0  0  0
  -27.2294  -37.1440   25.8876 H   0  0  0  0  0  0
  -20.9385  -29.8785   21.6895 H   0  0  0  0  0  0
  -26.0171  -38.2847   24.1422 H   0  0  0  0  0  0
  -27.6567  -19.7379   21.2029 H   0  0  0  0  0  0
  -31.9230  -19.8737   20.5933 H   0  0  0  0  0  0
  -27.7220  -17.3390   21.0906 H   0  0  0  0  0  0
  -31.9815  -17.4329   20.4802 H   0  0  0  0  0  0
  -31.9412  -22.2815   20.5474 H   0  0  0  0  0  0
  -30.8445  -21.8373   19.3118 H   0  0  0  0  0  0
  -30.5106  -23.9670   18.8573 H   0  0  0  0  0  0
  -26.5465  -23.0688   21.3304 H   0  0  0  0  0  0
  -27.1773  -21.6770   22.1524 H   0  0  0  0  0  0
  -26.8229  -21.5954   20.4158 H   0  0  0  0  0  0
  -31.3374  -24.8413   21.6823 H   0  0  0  0  0  0
  -30.9518  -25.9128   20.3442 H   0  0  0  0  0  0
  -32.3446  -24.8523   20.2540 H   0  0  0  0  0  0
  -28.6153  -20.5108   23.5390 H   0  0  0  0  0  0
  -29.8605  -20.8337   24.7196 H   0  0  0  0  0  0
  -30.1833  -19.7125   23.4298 H   0  0  0  0  0  0
  -28.5238  -23.0500   23.5374 H   0  0  0  0  0  0
  -29.8679  -24.0190   22.9718 H   0  0  0  0  0  0
  -29.9653  -23.1937   24.5031 H   0  0  0  0  0  0
  -32.2503  -21.0316   22.5952 H   0  0  0  0  0  0
  -31.9646  -21.8521   24.1122 H   0  0  0  0  0  0
  -32.1915  -22.7940   22.6644 H   0  0  0  0  0  0
  -27.0711  -24.7466   20.2159 H   0  0  0  0  0  0
  -27.9991  -24.9249   18.7504 H   0  0  0  0  0  0
  -28.8714  -15.3261   21.1137 H   0  0  0  0  0  0
  1 25  1  0  0  0
  1 30  2  0  0  0
  1 89  1  0  0  0
  2  3  1  0  0  0
  2 25  1  0  0  0
  2 90  1  0  0  0
  2 91  1  0  0  0
  3  4  1  0  0  0
  3 92  1  0  0  0
  3 93  1  0  0  0
  4  5  1  0  0  0
  4 94  1  0  0  0
  4 95  1  0  0  0
  5  6  1  0  0  0
  5 26  1  0  0  0
  5 96  1  0  0  0
  6 25  1  0  0  0
  6 97  1  0  0  0
  6 98  1  0  0  0
  7  8  2  0  0  0
  7 26  1  0  0  0
  7 29  1  0  0  0
  8  9  1  0  0  0
  8 22  1  0  0  0
  9 10  1  0  0  0
  9 27  2  0  0  0
 10 11  2  0  0  0
 10 15  1  0  0  0
 11 12  1  0  0  0
 11 99  1  0  0  0
 12 13  2  0  0  0
 12100  1  0  0  0
 13 14  1  0  0  0
 13 31  1  0  0  0
 14 15  2  0  0  0
 14101  1  0  0  0
 15102  1  0  0  0
 16 17  2  0  0  0
 16 21  1  0  0  0
 16 31  1  0  0  0
 17 18  1  0  0  0
 17103  1  0  0  0
 18 19  2  0  0  0
 18104  1  0  0  0
 19 20  1  0  0  0
 19 24  1  0  0  0
 20 21  2  0  0  0
 20105  1  0  0  0
 21 23  1  0  0  0
 22 28  1  0  0  0
 22 32  2  0  0  0
 26 27  1  0  0  0
 28106  1  0  0  0
 28107  1  0  0  0
 29108  1  0  0  0
 29109  1  0  0  0
 33 34  1  0  0  0
 33 66  1  0  0  0
 33 70  2  0  0  0
 34 36  1  0  0  0
 34 59  1  0  0  0
 34110  1  0  0  0
 35 44  2  0  0  0
 35 45  1  0  0  0
 35 68  1  0  0  0
 36 56  1  0  0  0
 36111  1  0  0  0
 37 39  1  0  0  0
 37 47  1  0  0  0
 37 66  1  0  0  0
 37112  1  0  0  0
 38 43  2  0  0  0
 38 46  1  0  0  0
 38 47  1  0  0  0
 39 64  1  0  0  0
 39 67  2  0  0  0
 40 52  1  0  0  0
 40 53  2  0  0  0
 40 58  1  0  0  0
 41113  1  0  0  0
 41114  1  0  0  0
 41115  1  0  0  0
 41 48  1  0  0  0
 42 43  1  0  0  0
 42 66  1  0  0  0
 42116  1  0  0  0
 42117  1  0  0  0
 43 44  1  0  0  0
 44118  1  0  0  0
 45 46  2  0  0  0
 45119  1  0  0  0
 46120  1  0  0  0
 47121  1  0  0  0
 47122  1  0  0  0
 48 56  1  0  0  0
 48 65  1  0  0  0
 48123  1  0  0  0
 49 50  1  0  0  0
 49 53  1  0  0  0
 49 64  1  0  0  0
 49124  1  0  0  0
 50 51  1  0  0  0
 50125  1  0  0  0
 50126  1  0  0  0
 51 52  1  0  0  0
 51127  1  0  0  0
 51128  1  0  0  0
 52129  1  0  0  0
 52130  1  0  0  0
 53 54  1  0  0  0
 54 55  2  0  0  0
 54131  1  0  0  0
 55 57  1  0  0  0
 55132  1  0  0  0
 56 69  2  0  0  0
 57 58  2  0  0  0
 57133  1  0  0  0
 58134  1  0  0  0
 59 60  1  0  0  0
 59 61  1  0  0  0
 59 62  1  0  0  0
 60135  1  0  0  0
 60136  1  0  0  0
 60137  1  0  0  0
 61138  1  0  0  0
 61139  1  0  0  0
 61140  1  0  0  0
 62141  1  0  0  0
 62142  1  0  0  0
 62143  1  0  0  0
 63 65  1  0  0  0
 63144  1  0  0  0
 63145  1  0  0  0
 63146  1  0  0  0
 64147  1  0  0  0
 65148  1  0  0  0
 68 87  1  0  0  0
 71 73  2  0  0  0
 71 75  1  0  0  0
 71149  1  0  0  0
 72 74  1  0  0  0
 72 75  2  0  0  0
 72150  1  0  0  0
 73 76  1  0  0  0
 73151  1  0  0  0
 74 76  2  0  0  0
 74152  1  0  0  0
 75 81  1  0  0  0
 76 89  1  0  0  0
 77 78  2  0  0  0
 77 80  1  0  0  0
 77 87  1  0  0  0
 78 81  1  0  0  0
 78 82  1  0  0  0
 79 80  1  0  0  0
 79 81  1  0  0  0
 79153  1  0  0  0
 79154  1  0  0  0
 80 83  1  0  0  0
 80155  1  0  0  0
 81 88  1  0  0  0
 82156  1  0  0  0
 82157  1  0  0  0
 82158  1  0  0  0
 83159  1  0  0  0
 83160  1  0  0  0
 83161  1  0  0  0
 84162  1  0  0  0
 84163  1  0  0  0
 84164  1  0  0  0
 84 88  1  0  0  0
 85 88  1  0  0  0
 85165  1  0  0  0
 85166  1  0  0  0
 85167  1  0  0  0
 86 88  1  0  0  0
 86168  1  0  0  0
 86169  1  0  0  0
 86170  1  0  0  0
 87171  1  0  0  0
 87172  1  0  0  0
 89173  1  0  0  0
M  ISO  4   1 100  68 101  87 101  89 100
M  END
> <chiral flag>
0

> <version>
0

> <s_m_source_file>
/data/baiqing/PycharmProjects/Reinvent-master-3.2/result/LINK_invent/BTK/process_docking_weight1_custom_product_contain_oxygen_bond_distance_aromatic_linkinvent_7_9_3/rearranged_h_0142.sdf

> <i_m_source_file_index>
67

> <r_mmod_Potential_Energy-OPLS-2005>
268.331726074219

> <r_mmod_Stretch_Energy-OPLS-2005>
103.532974243164

> <r_mmod_Bend_Energy-OPLS-2005>
224.291961669922

> <r_mmod_Torsional_Energy-OPLS-2005>
254.090438842773

> <r_mmod_Improper_Torsional_Energy-OPLS-2005>
6.07212972640991

> <r_mmod_Van_der_Waal_Energy-OPLS-2005>
173.391906738281

> <r_mmod_Electrostatic_Energy-OPLS-2005>
-360.223724365234

> <r_mmod_Solvation_Energy-OPLS-2005>
-187.072143554688

> <b_mmod_Minimization_Converged-OPLS-2005>
0

> <r_mmod_RMS_Derivative-OPLS-2005>
1.16263437271118

$$$$
67
                    3D
 Structure written by MMmdl.
162171  0  0  1  0            999 V2000
  -30.7113  -14.5746   20.5516 C   0  0  0  0  0  0
  -30.4124  -12.3679   19.4526 C   0  0  0  0  0  0
  -29.4944  -12.5069   18.2215 C   0  0  0  0  0  0
  -28.0199  -12.3475   18.6349 C   0  0  0  0  0  0
  -27.6475  -13.2215   19.8612 C   0  0  2  0  0  0
  -28.6903  -13.0952   20.9953 C   0  0  0  0  0  0
  -25.2506  -13.8177   20.5677 C   0  0  0  0  0  0
  -24.1791  -13.0438   20.9202 C   0  0  0  0  0  0
  -24.6379  -11.6914   20.8752 C   0  0  0  0  0  0
  -23.9057  -10.4291   21.0405 C   0  0  0  0  0  0
  -24.3615   -9.4208   21.9181 C   0  0  0  0  0  0
  -23.6288   -8.2247   22.0755 C   0  0  0  0  0  0
  -22.4272   -8.0280   21.3545 C   0  0  0  0  0  0
  -21.9902   -9.0252   20.4647 C   0  0  0  0  0  0
  -22.7232  -10.2130   20.3052 C   0  0  0  0  0  0
  -21.6855   -6.0726   22.5275 C   0  0  0  0  0  0
  -21.4018   -6.5633   23.8207 C   0  0  0  0  0  0
  -21.3658   -5.6788   24.9171 C   0  0  0  0  0  0
  -21.6045   -4.3051   24.7221 C   0  0  0  0  0  0
  -21.8820   -3.8141   23.4345 C   0  0  0  0  0  0
  -21.9195   -4.6954   22.3399 C   0  0  0  0  0  0
  -22.7815  -13.5228   21.1864 C   0  0  0  0  0  0
  -22.1663   -4.2141   21.0976 F   0  0  0  0  0  0
  -21.5630   -3.4532   25.7735 F   0  0  0  0  0  0
  -30.0127  -13.4013   20.4315 N   0  0  0  0  0  0
  -26.2948  -12.9381   20.3316 N   0  0  0  0  0  0
  -25.9307  -11.6529   20.5773 N   0  0  0  0  0  0
  -22.0468  -12.8212   22.0424 N   0  0  0  0  0  0
  -25.4176  -15.1900   20.4060 N   0  0  0  0  0  0
  -31.8560  -14.6717   20.0983 O   0  0  0  0  0  0
  -21.6643   -6.8870   21.4240 O   0  0  0  0  0  0
  -22.3495  -14.5532   20.6711 O   0  0  0  0  0  0
  -24.6213  -31.8647   23.2078 C   0  0  0  0  0  0
  -25.9081  -32.4808   23.8392 C   0  0  1  0  0  0
  -27.2171  -27.3594   20.1211 C   0  0  0  0  0  0
  -25.5911  -33.8606   24.2313 N   0  0  0  0  0  0
  -23.4132  -30.4893   21.5499 C   0  0  2  0  0  0
  -24.8607  -28.9499   20.1163 C   0  0  0  0  0  0
  -22.7446  -29.4650   22.4967 C   0  0  0  0  0  0
  -18.0291  -28.1364   22.8499 C   0  0  0  0  0  0
  -24.1488  -36.7305   23.2638 C   0  0  0  0  0  0
  -25.9508  -30.8045   21.3780 C   0  0  0  0  0  0
  -26.0249  -29.4320   20.7305 C   0  0  0  0  0  0
  -27.2079  -28.6414   20.7389 C   0  0  0  0  0  0
  -26.0476  -26.9342   19.4621 C   0  0  0  0  0  0
  -24.8689  -27.7004   19.4784 C   0  0  0  0  0  0
  -23.6272  -29.8266   20.1646 C   0  0  0  0  0  0
  -25.4110  -36.3102   24.0336 C   0  0  1  0  0  0
  -20.5881  -28.3696   23.1292 C   0  0  2  0  0  0
  -20.6808  -26.9424   22.5403 C   0  0  0  0  0  0
  -19.5763  -26.6342   21.5247 C   0  0  0  0  0  0
  -18.1947  -26.7888   22.1677 C   0  0  0  0  0  0
  -19.1534  -28.8849   23.2874 C   0  0  0  0  0  0
  -18.9453  -30.1464   23.8866 C   0  0  0  0  0  0
  -17.6455  -30.6596   24.0526 C   0  0  0  0  0  0
  -25.9046  -34.9468   23.5125 C   0  0  0  0  0  0
  -16.5348  -29.9079   23.6313 C   0  0  0  0  0  0
  -16.7276  -28.6480   23.0364 C   0  0  0  0  0  0
  -26.4485  -31.6604   25.0743 C   0  0  0  0  0  0
  -25.3727  -31.3729   26.1476 C   0  0  0  0  0  0
  -27.0318  -30.3032   24.6166 C   0  0  0  0  0  0
  -27.6054  -32.4334   25.7507 C   0  0  0  0  0  0
  -27.5580  -37.1807   24.8467 C   0  0  0  0  0  0
  -21.4169  -29.3065   22.3705 N   0  0  0  0  0  0
  -26.4295  -37.3786   23.9409 N   0  0  0  0  0  0
  -24.6800  -31.0689   22.1022 N   0  0  0  0  0  0
  -23.4179  -28.8177   23.3027 O   0  0  0  0  0  0
  -28.3247  -26.5184   20.0884 O   0  0  0  0  0  0
  -26.5612  -34.8924   22.4689 O   0  0  0  0  0  0
  -23.5389  -32.1436   23.7425 O   0  0  0  0  0  0
  -31.0131  -19.1977   22.1977 C   0  0  0  0  0  0
  -30.4196  -20.4198   21.7828 C   0  0  0  0  0  0
  -28.8226  -19.1790   20.4155 C   0  0  0  0  0  0
  -30.4978  -17.9801   21.7090 C   0  0  0  0  0  0
  -29.4373  -17.9644   20.8324 C   0  0  0  0  0  0
  -29.3117  -20.4389   20.8911 C   0  0  0  0  0  0
  -30.9500  -16.5636   22.0075 C   0  0  0  0  0  0
  -29.1213  -16.5136   20.4695 C   0  0  0  0  0  0
  -26.7429  -23.8897   20.4513 C   0  0  0  0  0  0
  -27.8499  -23.6698   22.6664 C   0  0  0  0  0  0
  -29.1501  -23.0467   20.6236 C   0  0  0  0  0  0
  -28.5174  -25.6129   21.2180 C   0  0  0  0  0  0
  -28.0802  -24.0703   21.1920 C   0  0  0  0  0  0
  -30.1230  -15.6484   21.1687 N   0  0  0  0  0  0
  -28.6651  -21.6411   20.4844 N   0  0  0  0  0  0
  -31.4583  -12.4506   19.1519 H   0  0  0  0  0  0
  -30.3117  -11.3753   19.8948 H   0  0  0  0  0  0
  -29.7544  -11.7625   17.4678 H   0  0  0  0  0  0
  -29.6451  -13.4810   17.7532 H   0  0  0  0  0  0
  -27.8546  -11.2946   18.8666 H   0  0  0  0  0  0
  -27.3660  -12.5803   17.7942 H   0  0  0  0  0  0
  -27.6601  -14.2522   19.5108 H   0  0  0  0  0  0
  -28.6855  -12.0862   21.4102 H   0  0  0  0  0  0
  -28.4381  -13.7611   21.8216 H   0  0  0  0  0  0
  -25.2761   -9.5685   22.4749 H   0  0  0  0  0  0
  -23.9998   -7.4638   22.7468 H   0  0  0  0  0  0
  -21.0833   -8.8768   19.8950 H   0  0  0  0  0  0
  -22.3690  -10.9666   19.6157 H   0  0  0  0  0  0
  -21.2014   -7.6141   23.9706 H   0  0  0  0  0  0
  -21.1480   -6.0519   25.9072 H   0  0  0  0  0  0
  -22.0601   -2.7600   23.2849 H   0  0  0  0  0  0
  -22.4107  -11.9882   22.4801 H   0  0  0  0  0  0
  -21.1090  -13.1229   22.2657 H   0  0  0  0  0  0
  -24.6460  -15.8399   20.5109 H   0  0  0  0  0  0
  -26.2589  -15.6285   20.0583 H   0  0  0  0  0  0
  -26.7154  -32.5504   23.1151 H   0  0  0  0  0  0
  -25.0058  -33.9766   25.0456 H   0  0  0  0  0  0
  -22.7052  -31.3090   21.4096 H   0  0  0  0  0  0
  -23.3753  -35.9638   23.3318 H   0  0  0  0  0  0
  -24.3581  -36.8901   22.2049 H   0  0  0  0  0  0
  -23.7245  -37.6512   23.6648 H   0  0  0  0  0  0
  -26.0759  -31.5654   20.6057 H   0  0  0  0  0  0
  -26.8342  -30.8584   22.0029 H   0  0  0  0  0  0
  -28.1038  -29.0048   21.2229 H   0  0  0  0  0  0
  -26.0343  -25.9965   18.9303 H   0  0  0  0  0  0
  -23.9805  -27.3304   18.9839 H   0  0  0  0  0  0
  -23.7427  -30.6027   19.4078 H   0  0  0  0  0  0
  -22.7492  -29.2522   19.8646 H   0  0  0  0  0  0
  -25.1287  -36.1966   25.0829 H   0  0  0  0  0  0
  -20.9958  -28.3263   24.1419 H   0  0  0  0  0  0
  -20.5790  -26.2304   23.3605 H   0  0  0  0  0  0
  -21.6670  -26.7514   22.1155 H   0  0  0  0  0  0
  -19.6931  -25.6229   21.1333 H   0  0  0  0  0  0
  -19.6679  -27.3111   20.6739 H   0  0  0  0  0  0
  -17.4196  -26.6588   21.4109 H   0  0  0  0  0  0
  -18.0384  -26.0065   22.9121 H   0  0  0  0  0  0
  -19.7926  -30.7291   24.2214 H   0  0  0  0  0  0
  -17.5015  -31.6300   24.5082 H   0  0  0  0  0  0
  -15.5343  -30.2981   23.7630 H   0  0  0  0  0  0
  -15.8679  -28.0777   22.7108 H   0  0  0  0  0  0
  -24.5902  -30.7080   25.7802 H   0  0  0  0  0  0
  -24.8919  -32.2889   26.4917 H   0  0  0  0  0  0
  -25.8055  -30.8892   27.0244 H   0  0  0  0  0  0
  -26.2879  -29.6800   24.1186 H   0  0  0  0  0  0
  -27.4020  -29.7266   25.4656 H   0  0  0  0  0  0
  -27.8754  -30.4326   23.9382 H   0  0  0  0  0  0
  -27.2667  -33.3626   26.2103 H   0  0  0  0  0  0
  -28.3849  -32.6906   25.0325 H   0  0  0  0  0  0
  -28.0746  -31.8453   26.5404 H   0  0  0  0  0  0
  -28.2604  -38.0095   24.7498 H   0  0  0  0  0  0
  -28.1064  -36.2624   24.6312 H   0  0  0  0  0  0
  -27.2298  -37.1483   25.8870 H   0  0  0  0  0  0
  -20.9342  -29.8789   21.6921 H   0  0  0  0  0  0
  -26.0187  -38.2866   24.1401 H   0  0  0  0  0  0
  -31.8491  -19.2020   22.8827 H   0  0  0  0  0  0
  -30.8248  -21.3376   22.1814 H   0  0  0  0  0  0
  -27.9830  -19.1390   19.7366 H   0  0  0  0  0  0
  -30.7901  -16.3370   23.0616 H   0  0  0  0  0  0
  -32.0205  -16.4790   21.8124 H   0  0  0  0  0  0
  -29.1579  -16.3800   19.3865 H   0  0  0  0  0  0
  -28.1169  -16.2629   20.8110 H   0  0  0  0  0  0
  -26.3306  -22.8889   20.5835 H   0  0  0  0  0  0
  -26.8672  -24.0458   19.3804 H   0  0  0  0  0  0
  -25.9890  -24.5804   20.8270 H   0  0  0  0  0  0
  -27.5382  -22.6293   22.7635 H   0  0  0  0  0  0
  -27.0783  -24.2805   23.1370 H   0  0  0  0  0  0
  -28.7624  -23.7875   23.2520 H   0  0  0  0  0  0
  -30.0577  -23.0911   21.2245 H   0  0  0  0  0  0
  -29.4482  -23.3834   19.6290 H   0  0  0  0  0  0
  -29.5811  -25.6481   21.4563 H   0  0  0  0  0  0
  -28.0448  -26.0946   22.0762 H   0  0  0  0  0  0
  -27.8341  -21.5372   19.9108 H   0  0  0  0  0  0
  1 25  1  0  0  0
  1 30  2  0  0  0
  1 84  1  0  0  0
  2  3  1  0  0  0
  2 25  1  0  0  0
  2 86  1  0  0  0
  2 87  1  0  0  0
  3  4  1  0  0  0
  3 88  1  0  0  0
  3 89  1  0  0  0
  4  5  1  0  0  0
  4 90  1  0  0  0
  4 91  1  0  0  0
  5  6  1  0  0  0
  5 26  1  0  0  0
  5 92  1  0  0  0
  6 25  1  0  0  0
  6 93  1  0  0  0
  6 94  1  0  0  0
  7  8  2  0  0  0
  7 26  1  0  0  0
  7 29  1  0  0  0
  8  9  1  0  0  0
  8 22  1  0  0  0
  9 10  1  0  0  0
  9 27  2  0  0  0
 10 11  2  0  0  0
 10 15  1  0  0  0
 11 12  1  0  0  0
 11 95  1  0  0  0
 12 13  2  0  0  0
 12 96  1  0  0  0
 13 14  1  0  0  0
 13 31  1  0  0  0
 14 15  2  0  0  0
 14 97  1  0  0  0
 15 98  1  0  0  0
 16 17  2  0  0  0
 16 21  1  0  0  0
 16 31  1  0  0  0
 17 18  1  0  0  0
 17 99  1  0  0  0
 18 19  2  0  0  0
 18100  1  0  0  0
 19 20  1  0  0  0
 19 24  1  0  0  0
 20 21  2  0  0  0
 20101  1  0  0  0
 21 23  1  0  0  0
 22 28  1  0  0  0
 22 32  2  0  0  0
 26 27  1  0  0  0
 28102  1  0  0  0
 28103  1  0  0  0
 29104  1  0  0  0
 29105  1  0  0  0
 33 34  1  0  0  0
 33 66  1  0  0  0
 33 70  2  0  0  0
 34 36  1  0  0  0
 34 59  1  0  0  0
 34106  1  0  0  0
 35 44  2  0  0  0
 35 45  1  0  0  0
 35 68  1  0  0  0
 36 56  1  0  0  0
 36107  1  0  0  0
 37 39  1  0  0  0
 37 47  1  0  0  0
 37 66  1  0  0  0
 37108  1  0  0  0
 38 43  2  0  0  0
 38 46  1  0  0  0
 38 47  1  0  0  0
 39 64  1  0  0  0
 39 67  2  0  0  0
 40 52  1  0  0  0
 40 53  2  0  0  0
 40 58  1  0  0  0
 41109  1  0  0  0
 41110  1  0  0  0
 41111  1  0  0  0
 41 48  1  0  0  0
 42 43  1  0  0  0
 42 66  1  0  0  0
 42112  1  0  0  0
 42113  1  0  0  0
 43 44  1  0  0  0
 44114  1  0  0  0
 45 46  2  0  0  0
 45115  1  0  0  0
 46116  1  0  0  0
 47117  1  0  0  0
 47118  1  0  0  0
 48 56  1  0  0  0
 48 65  1  0  0  0
 48119  1  0  0  0
 49 50  1  0  0  0
 49 53  1  0  0  0
 49 64  1  0  0  0
 49120  1  0  0  0
 50 51  1  0  0  0
 50121  1  0  0  0
 50122  1  0  0  0
 51 52  1  0  0  0
 51123  1  0  0  0
 51124  1  0  0  0
 52125  1  0  0  0
 52126  1  0  0  0
 53 54  1  0  0  0
 54 55  2  0  0  0
 54127  1  0  0  0
 55 57  1  0  0  0
 55128  1  0  0  0
 56 69  2  0  0  0
 57 58  2  0  0  0
 57129  1  0  0  0
 58130  1  0  0  0
 59 60  1  0  0  0
 59 61  1  0  0  0
 59 62  1  0  0  0
 60131  1  0  0  0
 60132  1  0  0  0
 60133  1  0  0  0
 61134  1  0  0  0
 61135  1  0  0  0
 61136  1  0  0  0
 62137  1  0  0  0
 62138  1  0  0  0
 62139  1  0  0  0
 63 65  1  0  0  0
 63140  1  0  0  0
 63141  1  0  0  0
 63142  1  0  0  0
 64143  1  0  0  0
 65144  1  0  0  0
 68 82  1  0  0  0
 71 72  2  0  0  0
 71 74  1  0  0  0
 71145  1  0  0  0
 72 76  1  0  0  0
 72146  1  0  0  0
 73 75  1  0  0  0
 73 76  2  0  0  0
 73147  1  0  0  0
 74 75  2  0  0  0
 74 77  1  0  0  0
 75 78  1  0  0  0
 76 85  1  0  0  0
 77 84  1  0  0  0
 77148  1  0  0  0
 77149  1  0  0  0
 78 84  1  0  0  0
 78150  1  0  0  0
 78151  1  0  0  0
 79152  1  0  0  0
 79153  1  0  0  0
 79154  1  0  0  0
 79 83  1  0  0  0
 80 83  1  0  0  0
 80155  1  0  0  0
 80156  1  0  0  0
 80157  1  0  0  0
 81 83  1  0  0  0
 81 85  1  0  0  0
 81158  1  0  0  0
 81159  1  0  0  0
 82 83  1  0  0  0
 82160  1  0  0  0
 82161  1  0  0  0
 85162  1  0  0  0
M  ISO  4   1 100  68 101  82 101  84 100
M  END
> <chiral flag>
0

> <version>
0

> <s_m_source_file>
/data/baiqing/PycharmProjects/Reinvent-master-3.2/result/LINK_invent/BTK/process_docking_weight1_custom_product_contain_oxygen_bond_distance_aromatic_linkinvent_7_9_3/rearranged_h_0142.sdf

> <i_m_source_file_index>
68

> <r_mmod_Potential_Energy-OPLS-2005>
166.131286621094

> <r_mmod_Stretch_Energy-OPLS-2005>
67.7209014892578

> <r_mmod_Bend_Energy-OPLS-2005>
192.364669799805

> <r_mmod_Torsional_Energy-OPLS-2005>
294.446533203125

> <r_mmod_Improper_Torsional_Energy-OPLS-2005>
5.86359786987305

> <r_mmod_Van_der_Waal_Energy-OPLS-2005>
141.312149047852

> <r_mmod_Electrostatic_Energy-OPLS-2005>
-364.229522705078

> <r_mmod_Solvation_Energy-OPLS-2005>
-204.235153198242

> <b_mmod_Minimization_Converged-OPLS-2005>
0

> <r_mmod_RMS_Derivative-OPLS-2005>
1.19442987442017

$$$$
68
                    3D
 Structure written by MMmdl.
154163  0  0  1  0            999 V2000
  -30.5277  -14.7926   20.3729 C   0  0  0  0  0  0
  -30.4437  -12.4627   19.4870 C   0  0  0  0  0  0
  -29.5247  -12.4827   18.2460 C   0  0  0  0  0  0
  -28.0486  -12.2942   18.6563 C   0  0  0  0  0  0
  -27.6358  -13.2173   19.8338 C   0  0  2  0  0  0
  -28.6753  -13.1707   20.9725 C   0  0  0  0  0  0
  -25.2534  -13.8170   20.5689 C   0  0  0  0  0  0
  -24.1804  -13.0425   20.9184 C   0  0  0  0  0  0
  -24.6368  -11.6900   20.8712 C   0  0  0  0  0  0
  -23.9055  -10.4281   21.0387 C   0  0  0  0  0  0
  -24.3626   -9.4199   21.9159 C   0  0  0  0  0  0
  -23.6294   -8.2232   22.0733 C   0  0  0  0  0  0
  -22.4262   -8.0282   21.3545 C   0  0  0  0  0  0
  -21.9904   -9.0238   20.4648 C   0  0  0  0  0  0
  -22.7226  -10.2119   20.3048 C   0  0  0  0  0  0
  -21.6861   -6.0747   22.5280 C   0  0  0  0  0  0
  -21.4014   -6.5648   23.8223 C   0  0  0  0  0  0
  -21.3660   -5.6795   24.9184 C   0  0  0  0  0  0
  -21.6032   -4.3049   24.7236 C   0  0  0  0  0  0
  -21.8834   -3.8160   23.4352 C   0  0  0  0  0  0
  -21.9195   -4.6970   22.3413 C   0  0  0  0  0  0
  -22.7835  -13.5217   21.1866 C   0  0  0  0  0  0
  -22.1656   -4.2145   21.0985 F   0  0  0  0  0  0
  -21.5621   -3.4544   25.7754 F   0  0  0  0  0  0
  -29.9729  -13.5336   20.3911 N   0  0  0  0  0  0
  -26.2892  -12.9316   20.3186 N   0  0  0  0  0  0
  -25.9281  -11.6483   20.5703 N   0  0  0  0  0  0
  -22.0514  -12.8157   22.0431 N   0  0  0  0  0  0
  -25.4313  -15.1897   20.4232 N   0  0  0  0  0  0
  -31.7251  -14.9182   20.0959 O   0  0  0  0  0  0
  -21.6629   -6.8871   21.4240 O   0  0  0  0  0  0
  -22.3524  -14.5528   20.6735 O   0  0  0  0  0  0
  -24.6288  -31.8570   23.1981 C   0  0  0  0  0  0
  -25.9129  -32.4757   23.8354 C   0  0  1  0  0  0
  -27.2151  -27.2682   20.1270 C   0  0  0  0  0  0
  -25.5938  -33.8564   24.2295 N   0  0  0  0  0  0
  -23.4281  -30.4827   21.5366 C   0  0  2  0  0  0
  -24.8748  -28.9293   20.0995 C   0  0  0  0  0  0
  -22.7498  -29.4629   22.4849 C   0  0  0  0  0  0
  -18.0331  -28.1409   22.8410 C   0  0  0  0  0  0
  -24.1525  -36.7289   23.2652 C   0  0  0  0  0  0
  -25.9718  -30.7677   21.3839 C   0  0  0  0  0  0
  -26.0383  -29.3918   20.7241 C   0  0  0  0  0  0
  -27.2064  -28.5684   20.7354 C   0  0  0  0  0  0
  -26.0275  -26.8627   19.4859 C   0  0  0  0  0  0
  -24.8717  -27.6723   19.4726 C   0  0  0  0  0  0
  -23.6500  -29.8221   20.1481 C   0  0  0  0  0  0
  -25.4139  -36.3085   24.0359 C   0  0  1  0  0  0
  -20.5918  -28.3770   23.1293 C   0  0  2  0  0  0
  -20.6859  -26.9428   22.5611 C   0  0  0  0  0  0
  -19.5931  -26.6308   21.5323 C   0  0  0  0  0  0
  -18.2017  -26.7943   22.1563 C   0  0  0  0  0  0
  -19.1542  -28.8895   23.2867 C   0  0  0  0  0  0
  -18.9408  -30.1509   23.8874 C   0  0  0  0  0  0
  -17.6402  -30.6592   24.0492 C   0  0  0  0  0  0
  -25.9070  -34.9443   23.5136 C   0  0  0  0  0  0
  -16.5327  -29.9050   23.6267 C   0  0  0  0  0  0
  -16.7300  -28.6479   23.0256 C   0  0  0  0  0  0
  -26.4524  -31.6551   25.0724 C   0  0  0  0  0  0
  -25.3802  -31.3641   26.1483 C   0  0  0  0  0  0
  -27.0393  -30.2990   24.6189 C   0  0  0  0  0  0
  -27.6093  -32.4283   25.7446 C   0  0  0  0  0  0
  -27.5594  -37.1791   24.8464 C   0  0  0  0  0  0
  -21.4208  -29.3059   22.3588 N   0  0  0  0  0  0
  -26.4306  -37.3769   23.9421 N   0  0  0  0  0  0
  -24.6946  -31.0572   22.0949 N   0  0  0  0  0  0
  -23.4201  -28.8189   23.2961 O   0  0  0  0  0  0
  -28.3280  -26.4052   20.1983 O   0  0  0  0  0  0
  -26.5617  -34.8914   22.4686 O   0  0  0  0  0  0
  -23.5435  -32.1406   23.7261 O   0  0  0  0  0  0
  -28.8489  -18.3037   20.4723 C   0  0  0  0  0  0
  -30.2916  -19.5734   19.2095 C   0  0  0  0  0  0
  -29.1636  -19.6641   19.9826 C   0  0  0  0  0  0
  -29.7287  -17.2431   20.1528 C   0  0  0  0  0  0
  -28.9045  -21.7122   21.5927 C   0  0  0  0  0  0
  -28.6903  -23.2641   21.5203 C   0  0  0  0  0  0
  -28.4485  -22.3113   19.3359 C   0  0  0  0  0  0
  -28.4106  -21.0358   20.2983 C   0  0  1  0  0  0
  -28.0646  -23.6271   20.1585 C   0  0  2  0  0  0
  -28.4155  -25.0748   19.5140 C   0  0  0  0  0  0
  -29.6526  -15.8757   20.4974 N   0  0  0  0  0  0
  -30.9690  -17.9426   19.1291 S   0  0  0  0  0  0
  -31.4853  -12.6048   19.1920 H   0  0  0  0  0  0
  -30.4047  -11.4960   19.9938 H   0  0  0  0  0  0
  -29.8287  -11.6998   17.5508 H   0  0  0  0  0  0
  -29.6405  -13.4326   17.7189 H   0  0  0  0  0  0
  -27.9295  -11.2543   18.9616 H   0  0  0  0  0  0
  -27.3907  -12.4311   17.7963 H   0  0  0  0  0  0
  -27.6181  -14.2301   19.4281 H   0  0  0  0  0  0
  -28.7149  -12.1726   21.4172 H   0  0  0  0  0  0
  -28.4002  -13.8541   21.7769 H   0  0  0  0  0  0
  -25.2801   -9.5666   22.4710 H   0  0  0  0  0  0
  -24.0032   -7.4633   22.7452 H   0  0  0  0  0  0
  -21.0834   -8.8754   19.8965 H   0  0  0  0  0  0
  -22.3682  -10.9645   19.6155 H   0  0  0  0  0  0
  -21.1979   -7.6149   23.9718 H   0  0  0  0  0  0
  -21.1470   -6.0526   25.9084 H   0  0  0  0  0  0
  -22.0601   -2.7611   23.2859 H   0  0  0  0  0  0
  -22.4179  -11.9835   22.4816 H   0  0  0  0  0  0
  -21.1144  -13.1191   22.2693 H   0  0  0  0  0  0
  -24.6802  -15.8551   20.5794 H   0  0  0  0  0  0
  -26.2940  -15.6298   20.1298 H   0  0  0  0  0  0
  -26.7184  -32.5436   23.1096 H   0  0  0  0  0  0
  -25.0096  -33.9696   25.0448 H   0  0  0  0  0  0
  -22.7252  -31.3056   21.3947 H   0  0  0  0  0  0
  -23.3784  -35.9617   23.3286 H   0  0  0  0  0  0
  -24.3653  -36.8913   22.2067 H   0  0  0  0  0  0
  -23.7270  -37.6498   23.6662 H   0  0  0  0  0  0
  -26.1292  -31.5318   20.6193 H   0  0  0  0  0  0
  -26.8444  -30.8061   22.0244 H   0  0  0  0  0  0
  -28.0923  -28.9100   21.2499 H   0  0  0  0  0  0
  -25.9553  -25.8946   19.0167 H   0  0  0  0  0  0
  -23.9786  -27.3095   18.9813 H   0  0  0  0  0  0
  -23.7816  -30.6064   19.3989 H   0  0  0  0  0  0
  -22.7663  -29.2648   19.8356 H   0  0  0  0  0  0
  -25.1314  -36.1939   25.0846 H   0  0  0  0  0  0
  -21.0056  -28.3525   24.1411 H   0  0  0  0  0  0
  -20.5581  -26.2399   23.3892 H   0  0  0  0  0  0
  -21.6826  -26.7397   22.1638 H   0  0  0  0  0  0
  -19.7148  -25.6211   21.1480 H   0  0  0  0  0  0
  -19.6974  -27.3044   20.6823 H   0  0  0  0  0  0
  -17.4399  -26.6775   21.3848 H   0  0  0  0  0  0
  -18.0227  -26.0085   22.8907 H   0  0  0  0  0  0
  -19.7819  -30.7418   24.2234 H   0  0  0  0  0  0
  -17.4909  -31.6284   24.5029 H   0  0  0  0  0  0
  -15.5302  -30.2917   23.7574 H   0  0  0  0  0  0
  -15.8767  -28.0767   22.6907 H   0  0  0  0  0  0
  -24.5959  -30.7021   25.7803 H   0  0  0  0  0  0
  -24.9043  -32.2786   26.5014 H   0  0  0  0  0  0
  -25.8185  -30.8736   27.0188 H   0  0  0  0  0  0
  -26.2966  -29.6657   24.1336 H   0  0  0  0  0  0
  -27.4246  -29.7312   25.4657 H   0  0  0  0  0  0
  -27.8773  -30.4302   23.9352 H   0  0  0  0  0  0
  -27.2736  -33.3562   26.2086 H   0  0  0  0  0  0
  -28.3834  -32.6873   25.0208 H   0  0  0  0  0  0
  -28.0877  -31.8404   26.5283 H   0  0  0  0  0  0
  -28.2608  -38.0085   24.7522 H   0  0  0  0  0  0
  -28.1102  -36.2619   24.6284 H   0  0  0  0  0  0
  -27.2338  -37.1453   25.8874 H   0  0  0  0  0  0
  -20.9428  -29.8745   21.6729 H   0  0  0  0  0  0
  -26.0192  -38.2865   24.1341 H   0  0  0  0  0  0
  -27.9661  -18.1523   21.0743 H   0  0  0  0  0  0
  -30.7936  -20.3791   18.6831 H   0  0  0  0  0  0
  -28.4349  -21.2646   22.4684 H   0  0  0  0  0  0
  -29.9731  -21.5199   21.6928 H   0  0  0  0  0  0
  -29.6429  -23.7799   21.6379 H   0  0  0  0  0  0
  -28.0452  -23.6057   22.3343 H   0  0  0  0  0  0
  -27.7929  -22.1939   18.4707 H   0  0  0  0  0  0
  -29.4587  -22.4411   18.9469 H   0  0  0  0  0  0
  -27.3508  -20.8074   20.4275 H   0  0  0  0  0  0
  -26.9814  -23.6241   20.3000 H   0  0  0  0  0  0
  -27.8820  -25.1420   18.5662 H   0  0  0  0  0  0
  -29.4555  -25.0023   19.1956 H   0  0  0  0  0  0
  -28.7369  -15.5876   20.8054 H   0  0  0  0  0  0
  1 25  1  0  0  0
  1 30  2  0  0  0
  1 81  1  0  0  0
  2  3  1  0  0  0
  2 25  1  0  0  0
  2 83  1  0  0  0
  2 84  1  0  0  0
  3  4  1  0  0  0
  3 85  1  0  0  0
  3 86  1  0  0  0
  4  5  1  0  0  0
  4 87  1  0  0  0
  4 88  1  0  0  0
  5  6  1  0  0  0
  5 26  1  0  0  0
  5 89  1  0  0  0
  6 25  1  0  0  0
  6 90  1  0  0  0
  6 91  1  0  0  0
  7  8  2  0  0  0
  7 26  1  0  0  0
  7 29  1  0  0  0
  8  9  1  0  0  0
  8 22  1  0  0  0
  9 10  1  0  0  0
  9 27  2  0  0  0
 10 11  2  0  0  0
 10 15  1  0  0  0
 11 12  1  0  0  0
 11 92  1  0  0  0
 12 13  2  0  0  0
 12 93  1  0  0  0
 13 14  1  0  0  0
 13 31  1  0  0  0
 14 15  2  0  0  0
 14 94  1  0  0  0
 15 95  1  0  0  0
 16 17  2  0  0  0
 16 21  1  0  0  0
 16 31  1  0  0  0
 17 18  1  0  0  0
 17 96  1  0  0  0
 18 19  2  0  0  0
 18 97  1  0  0  0
 19 20  1  0  0  0
 19 24  1  0  0  0
 20 21  2  0  0  0
 20 98  1  0  0  0
 21 23  1  0  0  0
 22 28  1  0  0  0
 22 32  2  0  0  0
 26 27  1  0  0  0
 28 99  1  0  0  0
 28100  1  0  0  0
 29101  1  0  0  0
 29102  1  0  0  0
 33 34  1  0  0  0
 33 66  1  0  0  0
 33 70  2  0  0  0
 34 36  1  0  0  0
 34 59  1  0  0  0
 34103  1  0  0  0
 35 44  2  0  0  0
 35 45  1  0  0  0
 35 68  1  0  0  0
 36 56  1  0  0  0
 36104  1  0  0  0
 37 39  1  0  0  0
 37 47  1  0  0  0
 37 66  1  0  0  0
 37105  1  0  0  0
 38 43  2  0  0  0
 38 46  1  0  0  0
 38 47  1  0  0  0
 39 64  1  0  0  0
 39 67  2  0  0  0
 40 52  1  0  0  0
 40 53  2  0  0  0
 40 58  1  0  0  0
 41106  1  0  0  0
 41107  1  0  0  0
 41108  1  0  0  0
 41 48  1  0  0  0
 42 43  1  0  0  0
 42 66  1  0  0  0
 42109  1  0  0  0
 42110  1  0  0  0
 43 44  1  0  0  0
 44111  1  0  0  0
 45 46  2  0  0  0
 45112  1  0  0  0
 46113  1  0  0  0
 47114  1  0  0  0
 47115  1  0  0  0
 48 56  1  0  0  0
 48 65  1  0  0  0
 48116  1  0  0  0
 49 50  1  0  0  0
 49 53  1  0  0  0
 49 64  1  0  0  0
 49117  1  0  0  0
 50 51  1  0  0  0
 50118  1  0  0  0
 50119  1  0  0  0
 51 52  1  0  0  0
 51120  1  0  0  0
 51121  1  0  0  0
 52122  1  0  0  0
 52123  1  0  0  0
 53 54  1  0  0  0
 54 55  2  0  0  0
 54124  1  0  0  0
 55 57  1  0  0  0
 55125  1  0  0  0
 56 69  2  0  0  0
 57 58  2  0  0  0
 57126  1  0  0  0
 58127  1  0  0  0
 59 60  1  0  0  0
 59 61  1  0  0  0
 59 62  1  0  0  0
 60128  1  0  0  0
 60129  1  0  0  0
 60130  1  0  0  0
 61131  1  0  0  0
 61132  1  0  0  0
 61133  1  0  0  0
 62134  1  0  0  0
 62135  1  0  0  0
 62136  1  0  0  0
 63 65  1  0  0  0
 63137  1  0  0  0
 63138  1  0  0  0
 63139  1  0  0  0
 64140  1  0  0  0
 65141  1  0  0  0
 68 80  1  0  0  0
 71 73  1  0  0  0
 71 74  2  0  0  0
 71142  1  0  0  0
 72 73  2  0  0  0
 72 82  1  0  0  0
 72143  1  0  0  0
 73 78  1  0  0  0
 74 81  1  0  0  0
 74 82  1  0  0  0
 75 76  1  0  0  0
 75 78  1  0  0  0
 75144  1  0  0  0
 75145  1  0  0  0
 76 79  1  0  0  0
 76146  1  0  0  0
 76147  1  0  0  0
 77 78  1  0  0  0
 77 79  1  0  0  0
 77148  1  0  0  0
 77149  1  0  0  0
 78150  1  0  0  0
 79 80  1  0  0  0
 79151  1  0  0  0
 80152  1  0  0  0
 80153  1  0  0  0
 81154  1  0  0  0
M  ISO  4   1 100  68 101  80 101  81 100
M  END
> <chiral flag>
0

> <version>
0

> <s_m_source_file>
/data/baiqing/PycharmProjects/Reinvent-master-3.2/result/LINK_invent/BTK/process_docking_weight1_custom_product_contain_oxygen_bond_distance_aromatic_linkinvent_7_9_3/rearranged_h_0142.sdf

> <i_m_source_file_index>
69

> <r_mmod_Potential_Energy-OPLS-2005>
215.90788269043

> <r_mmod_Stretch_Energy-OPLS-2005>
114.181488037109

> <r_mmod_Bend_Energy-OPLS-2005>
210.330169677734

> <r_mmod_Torsional_Energy-OPLS-2005>
254.822509765625

> <r_mmod_Improper_Torsional_Energy-OPLS-2005>
4.26881885528564

> <r_mmod_Van_der_Waal_Energy-OPLS-2005>
112.684852600098

> <r_mmod_Electrostatic_Energy-OPLS-2005>
-369.982635498047

> <r_mmod_Solvation_Energy-OPLS-2005>
-211.648803710938

> <b_mmod_Minimization_Converged-OPLS-2005>
0

> <r_mmod_RMS_Derivative-OPLS-2005>
6.15773630142212

$$$$
69
                    3D
 Structure written by MMmdl.
160169  0  0  1  0            999 V2000
  -30.5532  -14.8757   20.4413 C   0  0  0  0  0  0
  -30.4493  -12.5422   19.4795 C   0  0  0  0  0  0
  -29.5150  -12.5238   18.2460 C   0  0  0  0  0  0
  -28.0474  -12.3167   18.6662 C   0  0  0  0  0  0
  -27.6324  -13.2338   19.8457 C   0  0  2  0  0  0
  -28.6846  -13.2139   20.9783 C   0  0  0  0  0  0
  -25.2225  -13.7876   20.5481 C   0  0  0  0  0  0
  -24.1665  -13.0180   20.9247 C   0  0  0  0  0  0
  -24.6404  -11.6739   20.8851 C   0  0  0  0  0  0
  -23.9091  -10.4155   21.0458 C   0  0  0  0  0  0
  -24.3624   -9.4082   21.9233 C   0  0  0  0  0  0
  -23.6264   -8.2151   22.0786 C   0  0  0  0  0  0
  -22.4251   -8.0236   21.3546 C   0  0  0  0  0  0
  -21.9903   -9.0214   20.4644 C   0  0  0  0  0  0
  -22.7273  -10.2057   20.3069 C   0  0  0  0  0  0
  -21.6821   -6.0715   22.5277 C   0  0  0  0  0  0
  -21.3997   -6.5629   23.8211 C   0  0  0  0  0  0
  -21.3652   -5.6781   24.9180 C   0  0  0  0  0  0
  -21.6043   -4.3042   24.7227 C   0  0  0  0  0  0
  -21.8825   -3.8135   23.4350 C   0  0  0  0  0  0
  -21.9187   -4.6948   22.3405 C   0  0  0  0  0  0
  -22.7703  -13.5009   21.1899 C   0  0  0  0  0  0
  -22.1654   -4.2142   21.0973 F   0  0  0  0  0  0
  -21.5637   -3.4526   25.7744 F   0  0  0  0  0  0
  -29.9760  -13.6136   20.3924 N   0  0  0  0  0  0
  -26.2859  -12.9288   20.3250 N   0  0  0  0  0  0
  -25.9349  -11.6434   20.5868 N   0  0  0  0  0  0
  -22.0352  -12.8046   22.0478 N   0  0  0  0  0  0
  -25.3244  -15.1453   20.3350 N   0  0  0  0  0  0
  -31.7472  -14.9985   20.1488 O   0  0  0  0  0  0
  -21.6600   -6.8854   21.4241 O   0  0  0  0  0  0
  -22.3417  -14.5346   20.6772 O   0  0  0  0  0  0
  -24.6344  -31.8501   23.1930 C   0  0  0  0  0  0
  -25.9166  -32.4717   23.8281 C   0  0  1  0  0  0
  -27.2422  -27.2370   20.1578 C   0  0  0  0  0  0
  -25.5957  -33.8514   24.2207 N   0  0  0  0  0  0
  -23.4341  -30.4659   21.5364 C   0  0  2  0  0  0
  -24.8898  -28.8996   20.1179 C   0  0  0  0  0  0
  -22.7522  -29.4548   22.4899 C   0  0  0  0  0  0
  -18.0279  -28.1364   22.8436 C   0  0  0  0  0  0
  -24.1503  -36.7294   23.2634 C   0  0  0  0  0  0
  -25.9783  -30.7593   21.3734 C   0  0  0  0  0  0
  -26.0592  -29.3732   20.7282 C   0  0  0  0  0  0
  -27.2406  -28.5574   20.7296 C   0  0  0  0  0  0
  -26.0492  -26.8285   19.5248 C   0  0  0  0  0  0
  -24.8896  -27.6345   19.5023 C   0  0  0  0  0  0
  -23.6612  -29.7931   20.1548 C   0  0  0  0  0  0
  -25.4120  -36.3031   24.0311 C   0  0  1  0  0  0
  -20.5873  -28.3684   23.1234 C   0  0  2  0  0  0
  -20.6773  -26.9395   22.5387 C   0  0  0  0  0  0
  -19.5772  -26.6351   21.5166 C   0  0  0  0  0  0
  -18.1934  -26.7893   22.1567 C   0  0  0  0  0  0
  -19.1528  -28.8838   23.2823 C   0  0  0  0  0  0
  -18.9469  -30.1433   23.8851 C   0  0  0  0  0  0
  -17.6476  -30.6575   24.0529 C   0  0  0  0  0  0
  -25.9059  -34.9411   23.5046 C   0  0  0  0  0  0
  -16.5363  -29.9075   23.6309 C   0  0  0  0  0  0
  -16.7262  -28.6490   23.0319 C   0  0  0  0  0  0
  -26.4532  -31.6552   25.0687 C   0  0  0  0  0  0
  -25.3735  -31.3714   26.1402 C   0  0  0  0  0  0
  -27.0401  -30.2964   24.6176 C   0  0  0  0  0  0
  -27.6053  -32.4311   25.7497 C   0  0  0  0  0  0
  -27.5572  -37.1800   24.8449 C   0  0  0  0  0  0
  -21.4216  -29.3035   22.3652 N   0  0  0  0  0  0
  -26.4280  -37.3748   23.9402 N   0  0  0  0  0  0
  -24.7007  -31.0430   22.0915 N   0  0  0  0  0  0
  -23.4202  -28.8073   23.3012 O   0  0  0  0  0  0
  -28.3431  -26.3422   20.1523 O   0  0  0  0  0  0
  -26.5640  -34.8913   22.4617 O   0  0  0  0  0  0
  -23.5492  -32.1307   23.7235 O   0  0  0  0  0  0
  -28.2379  -19.5886   20.5774 C   0  0  0  0  0  0
  -30.7574  -18.4369   20.5805 C   0  0  0  0  0  0
  -29.2850  -20.5444   20.6599 C   0  0  0  0  0  0
  -28.4176  -18.1682   20.5228 C   0  0  0  0  0  0
  -30.5720  -19.8855   20.6407 C   0  0  0  0  0  0
  -29.6790  -17.4914   20.5547 C   0  0  0  0  0  0
  -27.5213  -22.5078   20.7854 C   0  0  0  0  0  0
  -28.9602  -22.1049   21.0058 C   0  0  2  0  0  0
  -28.5152  -23.5046   20.2484 C   0  0  2  0  0  0
  -27.1651  -17.3529   20.4500 C   0  0  0  0  0  0
  -32.3219  -20.7806   22.2192 C   0  0  0  0  0  0
  -31.8227  -20.7349   20.7705 C   0  0  0  0  0  0
  -28.2372  -24.9997   20.8464 C   0  0  0  0  0  0
  -29.6910  -15.9708   20.6289 N   0  0  0  0  0  0
  -31.4806  -12.7063   19.1608 H   0  0  0  0  0  0
  -30.4409  -11.5775   19.9885 H   0  0  0  0  0  0
  -29.8192  -11.7379   17.5537 H   0  0  0  0  0  0
  -29.6070  -13.4650   17.7027 H   0  0  0  0  0  0
  -27.9308  -11.2719   18.9555 H   0  0  0  0  0  0
  -27.3837  -12.4683   17.8150 H   0  0  0  0  0  0
  -27.6028  -14.2457   19.4450 H   0  0  0  0  0  0
  -28.7548  -12.2190   21.4214 H   0  0  0  0  0  0
  -28.3950  -13.8864   21.7872 H   0  0  0  0  0  0
  -25.2757   -9.5554   22.4817 H   0  0  0  0  0  0
  -23.9964   -7.4526   22.7491 H   0  0  0  0  0  0
  -21.0848   -8.8737   19.8919 H   0  0  0  0  0  0
  -22.3759  -10.9621   19.6181 H   0  0  0  0  0  0
  -21.1979   -7.6135   23.9711 H   0  0  0  0  0  0
  -21.1465   -6.0513   25.9080 H   0  0  0  0  0  0
  -22.0614   -2.7598   23.2848 H   0  0  0  0  0  0
  -22.3977  -11.9720   22.4898 H   0  0  0  0  0  0
  -21.0970  -13.1090   22.2702 H   0  0  0  0  0  0
  -24.4864  -15.7163   20.3524 H   0  0  0  0  0  0
  -26.0686  -15.5516   19.7866 H   0  0  0  0  0  0
  -26.7238  -32.5386   23.1034 H   0  0  0  0  0  0
  -25.0113  -33.9602   25.0356 H   0  0  0  0  0  0
  -22.7316  -31.2882   21.3839 H   0  0  0  0  0  0
  -23.3741  -35.9654   23.3268 H   0  0  0  0  0  0
  -24.3575  -36.8950   22.2052 H   0  0  0  0  0  0
  -23.7307  -37.6490   23.6701 H   0  0  0  0  0  0
  -26.1017  -31.5149   20.5958 H   0  0  0  0  0  0
  -26.8579  -30.8221   22.0016 H   0  0  0  0  0  0
  -28.1408  -28.9185   21.2087 H   0  0  0  0  0  0
  -26.0117  -25.8564   19.0566 H   0  0  0  0  0  0
  -23.9971  -27.2633   19.0167 H   0  0  0  0  0  0
  -23.7993  -30.5685   19.3994 H   0  0  0  0  0  0
  -22.7820  -29.2295   19.8394 H   0  0  0  0  0  0
  -25.1297  -36.1851   25.0805 H   0  0  0  0  0  0
  -20.9921  -28.3302   24.1370 H   0  0  0  0  0  0
  -20.5642  -26.2310   23.3598 H   0  0  0  0  0  0
  -21.6659  -26.7413   22.1205 H   0  0  0  0  0  0
  -19.6940  -25.6244   21.1219 H   0  0  0  0  0  0
  -19.6732  -27.3149   20.6681 H   0  0  0  0  0  0
  -17.4199  -26.6597   21.3982 H   0  0  0  0  0  0
  -18.0370  -26.0042   22.8979 H   0  0  0  0  0  0
  -19.7979  -30.7203   24.2246 H   0  0  0  0  0  0
  -17.5067  -31.6253   24.5153 H   0  0  0  0  0  0
  -15.5369  -30.2977   23.7672 H   0  0  0  0  0  0
  -15.8650  -28.0817   22.7045 H   0  0  0  0  0  0
  -24.5944  -30.7000   25.7756 H   0  0  0  0  0  0
  -24.8900  -32.2897   26.4748 H   0  0  0  0  0  0
  -25.8059  -30.8965   27.0229 H   0  0  0  0  0  0
  -26.2975  -29.6684   24.1221 H   0  0  0  0  0  0
  -27.4099  -29.7254   25.4708 H   0  0  0  0  0  0
  -27.8858  -30.4220   23.9401 H   0  0  0  0  0  0
  -27.2598  -33.3637   26.1992 H   0  0  0  0  0  0
  -28.3937  -32.6818   25.0377 H   0  0  0  0  0  0
  -28.0636  -31.8469   26.5492 H   0  0  0  0  0  0
  -28.2539  -38.0140   24.7484 H   0  0  0  0  0  0
  -28.1103  -36.2647   24.6267 H   0  0  0  0  0  0
  -27.2272  -37.1439   25.8846 H   0  0  0  0  0  0
  -20.9417  -29.8857   21.6919 H   0  0  0  0  0  0
  -26.0132  -38.2801   24.1436 H   0  0  0  0  0  0
  -27.2214  -19.9486   20.6239 H   0  0  0  0  0  0
  -31.7668  -18.0491   20.6028 H   0  0  0  0  0  0
  -26.9611  -22.7281   21.6956 H   0  0  0  0  0  0
  -26.9239  -22.0329   20.0073 H   0  0  0  0  0  0
  -29.3684  -22.2772   22.0029 H   0  0  0  0  0  0
  -28.6715  -23.5080   19.1710 H   0  0  0  0  0  0
  -26.2675  -17.9679   20.3671 H   0  0  0  0  0  0
  -27.0789  -16.7468   21.3519 H   0  0  0  0  0  0
  -27.2174  -16.7184   19.5656 H   0  0  0  0  0  0
  -33.2740  -21.3056   22.2921 H   0  0  0  0  0  0
  -32.4680  -19.7747   22.6150 H   0  0  0  0  0  0
  -31.6113  -21.2915   22.8676 H   0  0  0  0  0  0
  -31.6321  -21.7468   20.4067 H   0  0  0  0  0  0
  -32.5960  -20.3214   20.1206 H   0  0  0  0  0  0
  -28.8986  -25.0950   21.7087 H   0  0  0  0  0  0
  -27.2435  -24.9771   21.2981 H   0  0  0  0  0  0
  -28.7663  -15.6081   20.7988 H   0  0  0  0  0  0
  1 25  1  0  0  0
  1 30  2  0  0  0
  1 84  1  0  0  0
  2  3  1  0  0  0
  2 25  1  0  0  0
  2 85  1  0  0  0
  2 86  1  0  0  0
  3  4  1  0  0  0
  3 87  1  0  0  0
  3 88  1  0  0  0
  4  5  1  0  0  0
  4 89  1  0  0  0
  4 90  1  0  0  0
  5  6  1  0  0  0
  5 26  1  0  0  0
  5 91  1  0  0  0
  6 25  1  0  0  0
  6 92  1  0  0  0
  6 93  1  0  0  0
  7  8  2  0  0  0
  7 26  1  0  0  0
  7 29  1  0  0  0
  8  9  1  0  0  0
  8 22  1  0  0  0
  9 10  1  0  0  0
  9 27  2  0  0  0
 10 11  2  0  0  0
 10 15  1  0  0  0
 11 12  1  0  0  0
 11 94  1  0  0  0
 12 13  2  0  0  0
 12 95  1  0  0  0
 13 14  1  0  0  0
 13 31  1  0  0  0
 14 15  2  0  0  0
 14 96  1  0  0  0
 15 97  1  0  0  0
 16 17  2  0  0  0
 16 21  1  0  0  0
 16 31  1  0  0  0
 17 18  1  0  0  0
 17 98  1  0  0  0
 18 19  2  0  0  0
 18 99  1  0  0  0
 19 20  1  0  0  0
 19 24  1  0  0  0
 20 21  2  0  0  0
 20100  1  0  0  0
 21 23  1  0  0  0
 22 28  1  0  0  0
 22 32  2  0  0  0
 26 27  1  0  0  0
 28101  1  0  0  0
 28102  1  0  0  0
 29103  1  0  0  0
 29104  1  0  0  0
 33 34  1  0  0  0
 33 66  1  0  0  0
 33 70  2  0  0  0
 34 36  1  0  0  0
 34 59  1  0  0  0
 34105  1  0  0  0
 35 44  2  0  0  0
 35 45  1  0  0  0
 35 68  1  0  0  0
 36 56  1  0  0  0
 36106  1  0  0  0
 37 39  1  0  0  0
 37 47  1  0  0  0
 37 66  1  0  0  0
 37107  1  0  0  0
 38 43  2  0  0  0
 38 46  1  0  0  0
 38 47  1  0  0  0
 39 64  1  0  0  0
 39 67  2  0  0  0
 40 52  1  0  0  0
 40 53  2  0  0  0
 40 58  1  0  0  0
 41108  1  0  0  0
 41109  1  0  0  0
 41110  1  0  0  0
 41 48  1  0  0  0
 42 43  1  0  0  0
 42 66  1  0  0  0
 42111  1  0  0  0
 42112  1  0  0  0
 43 44  1  0  0  0
 44113  1  0  0  0
 45 46  2  0  0  0
 45114  1  0  0  0
 46115  1  0  0  0
 47116  1  0  0  0
 47117  1  0  0  0
 48 56  1  0  0  0
 48 65  1  0  0  0
 48118  1  0  0  0
 49 50  1  0  0  0
 49 53  1  0  0  0
 49 64  1  0  0  0
 49119  1  0  0  0
 50 51  1  0  0  0
 50120  1  0  0  0
 50121  1  0  0  0
 51 52  1  0  0  0
 51122  1  0  0  0
 51123  1  0  0  0
 52124  1  0  0  0
 52125  1  0  0  0
 53 54  1  0  0  0
 54 55  2  0  0  0
 54126  1  0  0  0
 55 57  1  0  0  0
 55127  1  0  0  0
 56 69  2  0  0  0
 57 58  2  0  0  0
 57128  1  0  0  0
 58129  1  0  0  0
 59 60  1  0  0  0
 59 61  1  0  0  0
 59 62  1  0  0  0
 60130  1  0  0  0
 60131  1  0  0  0
 60132  1  0  0  0
 61133  1  0  0  0
 61134  1  0  0  0
 61135  1  0  0  0
 62136  1  0  0  0
 62137  1  0  0  0
 62138  1  0  0  0
 63 65  1  0  0  0
 63139  1  0  0  0
 63140  1  0  0  0
 63141  1  0  0  0
 64142  1  0  0  0
 65143  1  0  0  0
 68 83  1  0  0  0
 71 73  2  0  0  0
 71 74  1  0  0  0
 71144  1  0  0  0
 72 75  2  0  0  0
 72 76  1  0  0  0
 72145  1  0  0  0
 73 75  1  0  0  0
 73 78  1  0  0  0
 74 76  2  0  0  0
 74 80  1  0  0  0
 75 82  1  0  0  0
 76 84  1  0  0  0
 77 78  1  0  0  0
 77 79  1  0  0  0
 77146  1  0  0  0
 77147  1  0  0  0
 78 79  1  0  0  0
 78148  1  0  0  0
 79 83  1  0  0  0
 79149  1  0  0  0
 80150  1  0  0  0
 80151  1  0  0  0
 80152  1  0  0  0
 81 82  1  0  0  0
 81153  1  0  0  0
 81154  1  0  0  0
 81155  1  0  0  0
 82156  1  0  0  0
 82157  1  0  0  0
 83158  1  0  0  0
 83159  1  0  0  0
 84160  1  0  0  0
M  ISO  4   1 100  68 101  83 101  84 100
M  END
> <chiral flag>
0

> <version>
0

> <s_m_source_file>
/data/baiqing/PycharmProjects/Reinvent-master-3.2/result/LINK_invent/BTK/process_docking_weight1_custom_product_contain_oxygen_bond_distance_aromatic_linkinvent_7_9_3/rearranged_h_0142.sdf

> <i_m_source_file_index>
70

> <r_mmod_Potential_Energy-OPLS-2005>
401.151824951172

> <r_mmod_Stretch_Energy-OPLS-2005>
177.357070922852

> <r_mmod_Bend_Energy-OPLS-2005>
259.006378173828

> <r_mmod_Torsional_Energy-OPLS-2005>
277.262023925781

> <r_mmod_Improper_Torsional_Energy-OPLS-2005>
8.08037185668945

> <r_mmod_Van_der_Waal_Energy-OPLS-2005>
144.553131103516

> <r_mmod_Electrostatic_Energy-OPLS-2005>
-398.165863037109

> <r_mmod_Solvation_Energy-OPLS-2005>
-196.873260498047

> <b_mmod_Minimization_Converged-OPLS-2005>
0

> <r_mmod_RMS_Derivative-OPLS-2005>
3.57256317138672

$$$$
70
                    3D
 Structure written by MMmdl.
160169  0  0  1  0            999 V2000
  -30.6356  -14.6300   20.5086 C   0  0  0  0  0  0
  -30.4375  -12.3883   19.4564 C   0  0  0  0  0  0
  -29.5105  -12.5168   18.2272 C   0  0  0  0  0  0
  -28.0333  -12.3535   18.6364 C   0  0  0  0  0  0
  -27.6570  -13.2197   19.8684 C   0  0  2  0  0  0
  -28.6999  -13.0704   21.0000 C   0  0  0  0  0  0
  -25.2573  -13.8177   20.5674 C   0  0  0  0  0  0
  -24.1840  -13.0444   20.9175 C   0  0  0  0  0  0
  -24.6406  -11.6914   20.8722 C   0  0  0  0  0  0
  -23.9079  -10.4296   21.0397 C   0  0  0  0  0  0
  -24.3625   -9.4213   21.9180 C   0  0  0  0  0  0
  -23.6298   -8.2246   22.0759 C   0  0  0  0  0  0
  -22.4283   -8.0281   21.3546 C   0  0  0  0  0  0
  -21.9921   -9.0251   20.4644 C   0  0  0  0  0  0
  -22.7250  -10.2130   20.3044 C   0  0  0  0  0  0
  -21.6856   -6.0733   22.5273 C   0  0  0  0  0  0
  -21.4007   -6.5639   23.8204 C   0  0  0  0  0  0
  -21.3652   -5.6793   24.9165 C   0  0  0  0  0  0
  -21.6049   -4.3052   24.7216 C   0  0  0  0  0  0
  -21.8822   -3.8142   23.4341 C   0  0  0  0  0  0
  -21.9192   -4.6962   22.3400 C   0  0  0  0  0  0
  -22.7860  -13.5230   21.1836 C   0  0  0  0  0  0
  -22.1666   -4.2144   21.0984 F   0  0  0  0  0  0
  -21.5634   -3.4536   25.7726 F   0  0  0  0  0  0
  -30.0212  -13.4061   20.4420 N   0  0  0  0  0  0
  -26.3008  -12.9369   20.3328 N   0  0  0  0  0  0
  -25.9343  -11.6519   20.5762 N   0  0  0  0  0  0
  -22.0492  -12.8209   22.0377 N   0  0  0  0  0  0
  -25.4285  -15.1892   20.4085 N   0  0  0  0  0  0
  -31.7856  -14.7921   20.0906 O   0  0  0  0  0  0
  -21.6650   -6.8878   21.4236 O   0  0  0  0  0  0
  -22.3541  -14.5535   20.6678 O   0  0  0  0  0  0
  -24.6253  -31.8612   23.2045 C   0  0  0  0  0  0
  -25.9108  -32.4792   23.8360 C   0  0  1  0  0  0
  -27.2238  -27.3381   20.1195 C   0  0  0  0  0  0
  -25.5934  -33.8589   24.2291 N   0  0  0  0  0  0
  -23.4169  -30.4850   21.5472 C   0  0  2  0  0  0
  -24.8637  -28.9409   20.1121 C   0  0  0  0  0  0
  -22.7467  -29.4629   22.4958 C   0  0  0  0  0  0
  -18.0281  -28.1418   22.8511 C   0  0  0  0  0  0
  -24.1459  -36.7253   23.2640 C   0  0  0  0  0  0
  -25.9545  -30.8001   21.3687 C   0  0  0  0  0  0
  -26.0308  -29.4270   20.7152 C   0  0  0  0  0  0
  -27.2164  -28.6370   20.7089 C   0  0  0  0  0  0
  -26.0391  -26.9005   19.4886 C   0  0  0  0  0  0
  -24.8682  -27.6821   19.4899 C   0  0  0  0  0  0
  -23.6306  -29.8191   20.1618 C   0  0  0  0  0  0
  -25.4092  -36.3077   24.0338 C   0  0  1  0  0  0
  -20.5884  -28.3693   23.1315 C   0  0  2  0  0  0
  -20.6772  -26.9427   22.5419 C   0  0  0  0  0  0
  -19.5740  -26.6410   21.5231 C   0  0  0  0  0  0
  -18.1916  -26.7974   22.1630 C   0  0  0  0  0  0
  -19.1537  -28.8875   23.2907 C   0  0  0  0  0  0
  -18.9461  -30.1481   23.8912 C   0  0  0  0  0  0
  -17.6468  -30.6627   24.0573 C   0  0  0  0  0  0
  -25.9044  -34.9460   23.5107 C   0  0  0  0  0  0
  -16.5354  -29.9126   23.6350 C   0  0  0  0  0  0
  -16.7270  -28.6541   23.0380 C   0  0  0  0  0  0
  -26.4501  -31.6618   25.0730 C   0  0  0  0  0  0
  -25.3734  -31.3752   26.1451 C   0  0  0  0  0  0
  -27.0364  -30.3066   24.6153 C   0  0  0  0  0  0
  -27.6045  -32.4361   25.7524 C   0  0  0  0  0  0
  -27.5561  -37.1775   24.8466 C   0  0  0  0  0  0
  -21.4185  -29.3044   22.3708 N   0  0  0  0  0  0
  -26.4252  -37.3796   23.9443 N   0  0  0  0  0  0
  -24.6847  -31.0643   22.0982 N   0  0  0  0  0  0
  -23.4202  -28.8165   23.3028 O   0  0  0  0  0  0
  -28.3439  -26.5014   20.1274 O   0  0  0  0  0  0
  -26.5596  -34.8933   22.4662 O   0  0  0  0  0  0
  -23.5421  -32.1394   23.7395 O   0  0  0  0  0  0
  -30.6931  -19.1674   19.5770 C   0  0  0  0  0  0
  -30.7525  -17.7613   19.7956 C   0  0  0  0  0  0
  -28.9749  -19.3822   21.2414 C   0  0  0  0  0  0
  -29.8017  -20.0192   20.2835 C   0  0  0  0  0  0
  -29.0246  -17.9692   21.4659 C   0  0  0  0  0  0
  -29.9128  -17.1164   20.7413 C   0  0  0  0  0  0
  -29.1616  -21.9545   18.6288 C   0  0  0  0  0  0
  -28.8474  -23.4770   18.6836 C   0  0  0  0  0  0
  -29.1195  -22.6095   20.9232 C   0  0  0  0  0  0
  -29.7919  -21.5634   19.9762 C   0  0  1  0  0  0
  -29.1081  -23.9675   20.1244 C   0  0  2  0  0  0
  -28.0968  -17.3706   22.5095 C   0  0  0  0  0  0
  -28.1487  -25.1279   20.6309 C   0  0  0  0  0  0
  -29.8612  -15.6676   20.9533 N   0  0  0  0  0  0
  -31.4803  -12.5060   19.1550 H   0  0  0  0  0  0
  -30.3662  -11.3899   19.8899 H   0  0  0  0  0  0
  -29.7757  -11.7733   17.4750 H   0  0  0  0  0  0
  -29.6544  -13.4910   17.7581 H   0  0  0  0  0  0
  -27.8676  -11.2994   18.8614 H   0  0  0  0  0  0
  -27.3795  -12.5908   17.7960 H   0  0  0  0  0  0
  -27.6789  -14.2569   19.5339 H   0  0  0  0  0  0
  -28.7056  -12.0500   21.3866 H   0  0  0  0  0  0
  -28.4406  -13.7056   21.8478 H   0  0  0  0  0  0
  -25.2773   -9.5680   22.4748 H   0  0  0  0  0  0
  -24.0003   -7.4639   22.7482 H   0  0  0  0  0  0
  -21.0856   -8.8755   19.8950 H   0  0  0  0  0  0
  -22.3713  -10.9651   19.6135 H   0  0  0  0  0  0
  -21.1995   -7.6144   23.9694 H   0  0  0  0  0  0
  -21.1476   -6.0528   25.9065 H   0  0  0  0  0  0
  -22.0607   -2.7602   23.2836 H   0  0  0  0  0  0
  -22.4098  -11.9853   22.4736 H   0  0  0  0  0  0
  -21.1109  -13.1239   22.2589 H   0  0  0  0  0  0
  -24.6595  -15.8427   20.5123 H   0  0  0  0  0  0
  -26.2761  -15.6251   20.0683 H   0  0  0  0  0  0
  -26.7181  -32.5469   23.1119 H   0  0  0  0  0  0
  -25.0136  -33.9719   25.0474 H   0  0  0  0  0  0
  -22.7102  -31.3061   21.4068 H   0  0  0  0  0  0
  -23.3757  -35.9545   23.3293 H   0  0  0  0  0  0
  -24.3548  -36.8872   22.2052 H   0  0  0  0  0  0
  -23.7159  -37.6430   23.6662 H   0  0  0  0  0  0
  -26.0750  -31.5632   20.5980 H   0  0  0  0  0  0
  -26.8396  -30.8546   21.9911 H   0  0  0  0  0  0
  -28.1140  -29.0071   21.1844 H   0  0  0  0  0  0
  -26.0090  -25.9408   18.9923 H   0  0  0  0  0  0
  -23.9748  -27.3086   19.0081 H   0  0  0  0  0  0
  -23.7452  -30.5949   19.4037 H   0  0  0  0  0  0
  -22.7512  -29.2461   19.8628 H   0  0  0  0  0  0
  -25.1270  -36.1909   25.0831 H   0  0  0  0  0  0
  -20.9975  -28.3257   24.1435 H   0  0  0  0  0  0
  -20.5704  -26.2298   23.3607 H   0  0  0  0  0  0
  -21.6637  -26.7492   22.1182 H   0  0  0  0  0  0
  -19.6881  -25.6317   21.1265 H   0  0  0  0  0  0
  -19.6692  -27.3221   20.6765 H   0  0  0  0  0  0
  -17.4198  -26.6770   21.4013 H   0  0  0  0  0  0
  -18.0276  -26.0116   22.9021 H   0  0  0  0  0  0
  -19.7936  -30.7305   24.2281 H   0  0  0  0  0  0
  -17.5025  -31.6307   24.5173 H   0  0  0  0  0  0
  -15.5355  -30.3039   23.7678 H   0  0  0  0  0  0
  -15.8667  -28.0866   22.7104 H   0  0  0  0  0  0
  -24.5897  -30.7122   25.7774 H   0  0  0  0  0  0
  -24.8938  -32.2925   26.4879 H   0  0  0  0  0  0
  -25.8042  -30.8924   27.0229 H   0  0  0  0  0  0
  -26.2945  -29.6812   24.1172 H   0  0  0  0  0  0
  -27.4104  -29.7318   25.4632 H   0  0  0  0  0  0
  -27.8794  -30.4403   23.9367 H   0  0  0  0  0  0
  -27.2653  -33.3685   26.2057 H   0  0  0  0  0  0
  -28.3903  -32.6881   25.0393 H   0  0  0  0  0  0
  -28.0667  -31.8515   26.5486 H   0  0  0  0  0  0
  -28.2555  -38.0096   24.7573 H   0  0  0  0  0  0
  -28.1076  -36.2630   24.6226 H   0  0  0  0  0  0
  -27.2292  -37.1344   25.8868 H   0  0  0  0  0  0
  -20.9355  -29.8772   21.6929 H   0  0  0  0  0  0
  -26.0120  -38.2850   24.1517 H   0  0  0  0  0  0
  -31.3494  -19.6011   18.8352 H   0  0  0  0  0  0
  -31.4448  -17.1816   19.2017 H   0  0  0  0  0  0
  -28.2824  -19.9841   21.8137 H   0  0  0  0  0  0
  -29.8044  -21.6954   17.7864 H   0  0  0  0  0  0
  -28.2262  -21.4089   18.4945 H   0  0  0  0  0  0
  -27.8092  -23.6482   18.3949 H   0  0  0  0  0  0
  -29.4638  -24.0308   17.9740 H   0  0  0  0  0  0
  -29.6486  -22.6973   21.8730 H   0  0  0  0  0  0
  -28.0930  -22.3113   21.1436 H   0  0  0  0  0  0
  -30.8460  -21.8459   19.9265 H   0  0  0  0  0  0
  -30.1282  -24.3543   20.1623 H   0  0  0  0  0  0
  -27.5114  -18.1382   23.0165 H   0  0  0  0  0  0
  -28.6698  -16.8361   23.2687 H   0  0  0  0  0  0
  -27.3996  -16.6715   22.0474 H   0  0  0  0  0  0
  -28.2743  -25.2025   21.7115 H   0  0  0  0  0  0
  -27.1224  -24.7852   20.5029 H   0  0  0  0  0  0
  -29.0185  -15.3479   21.4030 H   0  0  0  0  0  0
  1 25  1  0  0  0
  1 30  2  0  0  0
  1 84  1  0  0  0
  2  3  1  0  0  0
  2 25  1  0  0  0
  2 85  1  0  0  0
  2 86  1  0  0  0
  3  4  1  0  0  0
  3 87  1  0  0  0
  3 88  1  0  0  0
  4  5  1  0  0  0
  4 89  1  0  0  0
  4 90  1  0  0  0
  5  6  1  0  0  0
  5 26  1  0  0  0
  5 91  1  0  0  0
  6 25  1  0  0  0
  6 92  1  0  0  0
  6 93  1  0  0  0
  7  8  2  0  0  0
  7 26  1  0  0  0
  7 29  1  0  0  0
  8  9  1  0  0  0
  8 22  1  0  0  0
  9 10  1  0  0  0
  9 27  2  0  0  0
 10 11  2  0  0  0
 10 15  1  0  0  0
 11 12  1  0  0  0
 11 94  1  0  0  0
 12 13  2  0  0  0
 12 95  1  0  0  0
 13 14  1  0  0  0
 13 31  1  0  0  0
 14 15  2  0  0  0
 14 96  1  0  0  0
 15 97  1  0  0  0
 16 17  2  0  0  0
 16 21  1  0  0  0
 16 31  1  0  0  0
 17 18  1  0  0  0
 17 98  1  0  0  0
 18 19  2  0  0  0
 18 99  1  0  0  0
 19 20  1  0  0  0
 19 24  1  0  0  0
 20 21  2  0  0  0
 20100  1  0  0  0
 21 23  1  0  0  0
 22 28  1  0  0  0
 22 32  2  0  0  0
 26 27  1  0  0  0
 28101  1  0  0  0
 28102  1  0  0  0
 29103  1  0  0  0
 29104  1  0  0  0
 33 34  1  0  0  0
 33 66  1  0  0  0
 33 70  2  0  0  0
 34 36  1  0  0  0
 34 59  1  0  0  0
 34105  1  0  0  0
 35 44  2  0  0  0
 35 45  1  0  0  0
 35 68  1  0  0  0
 36 56  1  0  0  0
 36106  1  0  0  0
 37 39  1  0  0  0
 37 47  1  0  0  0
 37 66  1  0  0  0
 37107  1  0  0  0
 38 43  2  0  0  0
 38 46  1  0  0  0
 38 47  1  0  0  0
 39 64  1  0  0  0
 39 67  2  0  0  0
 40 52  1  0  0  0
 40 53  2  0  0  0
 40 58  1  0  0  0
 41108  1  0  0  0
 41109  1  0  0  0
 41110  1  0  0  0
 41 48  1  0  0  0
 42 43  1  0  0  0
 42 66  1  0  0  0
 42111  1  0  0  0
 42112  1  0  0  0
 43 44  1  0  0  0
 44113  1  0  0  0
 45 46  2  0  0  0
 45114  1  0  0  0
 46115  1  0  0  0
 47116  1  0  0  0
 47117  1  0  0  0
 48 56  1  0  0  0
 48 65  1  0  0  0
 48118  1  0  0  0
 49 50  1  0  0  0
 49 53  1  0  0  0
 49 64  1  0  0  0
 49119  1  0  0  0
 50 51  1  0  0  0
 50120  1  0  0  0
 50121  1  0  0  0
 51 52  1  0  0  0
 51122  1  0  0  0
 51123  1  0  0  0
 52124  1  0  0  0
 52125  1  0  0  0
 53 54  1  0  0  0
 54 55  2  0  0  0
 54126  1  0  0  0
 55 57  1  0  0  0
 55127  1  0  0  0
 56 69  2  0  0  0
 57 58  2  0  0  0
 57128  1  0  0  0
 58129  1  0  0  0
 59 60  1  0  0  0
 59 61  1  0  0  0
 59 62  1  0  0  0
 60130  1  0  0  0
 60131  1  0  0  0
 60132  1  0  0  0
 61133  1  0  0  0
 61134  1  0  0  0
 61135  1  0  0  0
 62136  1  0  0  0
 62137  1  0  0  0
 62138  1  0  0  0
 63 65  1  0  0  0
 63139  1  0  0  0
 63140  1  0  0  0
 63141  1  0  0  0
 64142  1  0  0  0
 65143  1  0  0  0
 68 83  1  0  0  0
 71 72  2  0  0  0
 71 74  1  0  0  0
 71144  1  0  0  0
 72 76  1  0  0  0
 72145  1  0  0  0
 73 74  2  0  0  0
 73 75  1  0  0  0
 73146  1  0  0  0
 74 80  1  0  0  0
 75 76  2  0  0  0
 75 82  1  0  0  0
 76 84  1  0  0  0
 77 78  1  0  0  0
 77 80  1  0  0  0
 77147  1  0  0  0
 77148  1  0  0  0
 78 81  1  0  0  0
 78149  1  0  0  0
 78150  1  0  0  0
 79 80  1  0  0  0
 79 81  1  0  0  0
 79151  1  0  0  0
 79152  1  0  0  0
 80153  1  0  0  0
 81 83  1  0  0  0
 81154  1  0  0  0
 82155  1  0  0  0
 82156  1  0  0  0
 82157  1  0  0  0
 83158  1  0  0  0
 83159  1  0  0  0
 84160  1  0  0  0
M  ISO  4   1 100  68 101  83 101  84 100
M  END
> <chiral flag>
0

> <version>
0

> <s_m_source_file>
/data/baiqing/PycharmProjects/Reinvent-master-3.2/result/LINK_invent/BTK/process_docking_weight1_custom_product_contain_oxygen_bond_distance_aromatic_linkinvent_7_9_3/rearranged_h_0142.sdf

> <i_m_source_file_index>
71

> <r_mmod_Potential_Energy-OPLS-2005>
103.746185302734

> <r_mmod_Stretch_Energy-OPLS-2005>
71.1031341552734

> <r_mmod_Bend_Energy-OPLS-2005>
161.41178894043

> <r_mmod_Torsional_Energy-OPLS-2005>
275.666687011719

> <r_mmod_Improper_Torsional_Energy-OPLS-2005>
3.2823441028595

> <r_mmod_Van_der_Waal_Energy-OPLS-2005>
136.560394287109

> <r_mmod_Electrostatic_Energy-OPLS-2005>
-389.390777587891

> <r_mmod_Solvation_Energy-OPLS-2005>
-196.733612060547

> <b_mmod_Minimization_Converged-OPLS-2005>
0

> <r_mmod_RMS_Derivative-OPLS-2005>
1.73485171794891

$$$$
71
                    3D
 Structure written by MMmdl.
155164  0  0  1  0            999 V2000
  -30.5949  -14.7880   20.4453 C   0  0  0  0  0  0
  -30.4466  -12.4905   19.4654 C   0  0  0  0  0  0
  -29.5206  -12.5058   18.2321 C   0  0  0  0  0  0
  -28.0458  -12.3267   18.6467 C   0  0  0  0  0  0
  -27.6421  -13.2303   19.8433 C   0  0  2  0  0  0
  -28.6895  -13.1885   20.9760 C   0  0  0  0  0  0
  -25.2542  -13.8174   20.5722 C   0  0  0  0  0  0
  -24.1817  -13.0419   20.9210 C   0  0  0  0  0  0
  -24.6395  -11.6912   20.8723 C   0  0  0  0  0  0
  -23.9078  -10.4279   21.0389 C   0  0  0  0  0  0
  -24.3628   -9.4203   21.9171 C   0  0  0  0  0  0
  -23.6305   -8.2242   22.0747 C   0  0  0  0  0  0
  -22.4280   -8.0273   21.3550 C   0  0  0  0  0  0
  -21.9906   -9.0231   20.4641 C   0  0  0  0  0  0
  -22.7237  -10.2110   20.3053 C   0  0  0  0  0  0
  -21.6867   -6.0722   22.5291 C   0  0  0  0  0  0
  -21.4005   -6.5626   23.8218 C   0  0  0  0  0  0
  -21.3664   -5.6781   24.9177 C   0  0  0  0  0  0
  -21.6055   -4.3052   24.7230 C   0  0  0  0  0  0
  -21.8829   -3.8143   23.4352 C   0  0  0  0  0  0
  -21.9197   -4.6952   22.3409 C   0  0  0  0  0  0
  -22.7848  -13.5217   21.1848 C   0  0  0  0  0  0
  -22.1669   -4.2142   21.0993 F   0  0  0  0  0  0
  -21.5631   -3.4536   25.7741 F   0  0  0  0  0  0
  -29.9805  -13.5559   20.3834 N   0  0  0  0  0  0
  -26.2962  -12.9369   20.3248 N   0  0  0  0  0  0
  -25.9327  -11.6517   20.5700 N   0  0  0  0  0  0
  -22.0487  -12.8230   22.0406 N   0  0  0  0  0  0
  -25.4156  -15.1901   20.4213 N   0  0  0  0  0  0
  -31.7997  -14.8694   20.1897 O   0  0  0  0  0  0
  -21.6659   -6.8859   21.4251 O   0  0  0  0  0  0
  -22.3563  -14.5514   20.6675 O   0  0  0  0  0  0
  -24.6291  -31.8529   23.1934 C   0  0  0  0  0  0
  -25.9137  -32.4725   23.8269 C   0  0  1  0  0  0
  -27.2376  -27.2637   20.1291 C   0  0  0  0  0  0
  -25.5938  -33.8528   24.2193 N   0  0  0  0  0  0
  -23.4262  -30.4735   21.5322 C   0  0  2  0  0  0
  -24.8788  -28.9143   20.1054 C   0  0  0  0  0  0
  -22.7470  -29.4601   22.4851 C   0  0  0  0  0  0
  -18.0298  -28.1406   22.8471 C   0  0  0  0  0  0
  -24.1510  -36.7284   23.2637 C   0  0  0  0  0  0
  -25.9697  -30.7665   21.3726 C   0  0  0  0  0  0
  -26.0437  -29.3877   20.7198 C   0  0  0  0  0  0
  -27.2170  -28.5700   20.7252 C   0  0  0  0  0  0
  -26.0454  -26.8490   19.4958 C   0  0  0  0  0  0
  -24.8830  -27.6526   19.4874 C   0  0  0  0  0  0
  -23.6474  -29.8006   20.1507 C   0  0  0  0  0  0
  -25.4134  -36.3032   24.0297 C   0  0  1  0  0  0
  -20.5897  -28.3702   23.1262 C   0  0  2  0  0  0
  -20.6799  -26.9411   22.5421 C   0  0  0  0  0  0
  -19.5772  -26.6382   21.5234 C   0  0  0  0  0  0
  -18.1944  -26.7943   22.1631 C   0  0  0  0  0  0
  -19.1551  -28.8868   23.2878 C   0  0  0  0  0  0
  -18.9469  -30.1471   23.8882 C   0  0  0  0  0  0
  -17.6472  -30.6604   24.0561 C   0  0  0  0  0  0
  -25.9073  -34.9411   23.5053 C   0  0  0  0  0  0
  -16.5360  -29.9101   23.6345 C   0  0  0  0  0  0
  -16.7287  -28.6543   23.0321 C   0  0  0  0  0  0
  -26.4514  -31.6549   25.0654 C   0  0  0  0  0  0
  -25.3742  -31.3662   26.1365 C   0  0  0  0  0  0
  -27.0359  -30.2957   24.6158 C   0  0  0  0  0  0
  -27.6080  -32.4263   25.7428 C   0  0  0  0  0  0
  -27.5576  -37.1790   24.8450 C   0  0  0  0  0  0
  -21.4168  -29.3052   22.3617 N   0  0  0  0  0  0
  -26.4293  -37.3739   23.9399 N   0  0  0  0  0  0
  -24.6932  -31.0511   22.0887 N   0  0  0  0  0  0
  -23.4174  -28.8139   23.2948 O   0  0  0  0  0  0
  -28.3691  -26.4174   20.2150 O   0  0  0  0  0  0
  -26.5649  -34.8885   22.4613 O   0  0  0  0  0  0
  -23.5445  -32.1320   23.7261 O   0  0  0  0  0  0
  -29.2474  -18.4951   20.2658 C   0  0  0  0  0  0
  -30.8771  -20.1654   20.9641 C   0  0  0  0  0  0
  -31.3646  -17.7657   21.2031 C   0  0  0  0  0  0
  -29.6126  -19.9058   20.4046 C   0  0  0  0  0  0
  -30.1242  -17.3849   20.6392 C   0  0  0  0  0  0
  -31.7337  -19.1191   21.3583 C   0  0  0  0  0  0
  -27.4588  -21.4403   20.7245 C   0  0  0  0  0  0
  -27.1236  -22.9103   20.4176 C   0  0  0  0  0  0
  -28.7516  -21.1735   19.9496 C   0  0  1  0  0  0
  -28.4724  -23.6417   20.4105 C   0  0  2  0  0  0
  -28.4887  -25.0530   19.5953 C   0  0  0  0  0  0
  -29.7903  -15.9285   20.5240 N   0  0  0  0  0  0
  -29.3676  -22.5244   19.9976 O   0  0  0  0  0  0
  -32.9390  -19.4226   21.8968 F   0  0  0  0  0  0
  -31.4790  -12.6462   19.1478 H   0  0  0  0  0  0
  -30.4224  -11.5203   19.9620 H   0  0  0  0  0  0
  -29.8191  -11.7171   17.5389 H   0  0  0  0  0  0
  -29.6359  -13.4465   17.6886 H   0  0  0  0  0  0
  -27.9109  -11.2788   18.9127 H   0  0  0  0  0  0
  -27.3953  -12.5139   17.7919 H   0  0  0  0  0  0
  -27.6220  -14.2484   19.4580 H   0  0  0  0  0  0
  -28.7423  -12.1998   21.4380 H   0  0  0  0  0  0
  -28.4192  -13.8837   21.7730 H   0  0  0  0  0  0
  -25.2754   -9.5689   22.4754 H   0  0  0  0  0  0
  -24.0029   -7.4627   22.7461 H   0  0  0  0  0  0
  -21.0836   -8.8735   19.8948 H   0  0  0  0  0  0
  -22.3666  -10.9650   19.6184 H   0  0  0  0  0  0
  -21.1989   -7.6131   23.9715 H   0  0  0  0  0  0
  -21.1493   -6.0511   25.9081 H   0  0  0  0  0  0
  -22.0608   -2.7606   23.2856 H   0  0  0  0  0  0
  -22.4115  -11.9937   22.4875 H   0  0  0  0  0  0
  -21.1073  -13.1227   22.2534 H   0  0  0  0  0  0
  -24.6444  -15.8324   20.5699 H   0  0  0  0  0  0
  -26.2552  -15.6510   20.0991 H   0  0  0  0  0  0
  -26.7175  -32.5372   23.0984 H   0  0  0  0  0  0
  -25.0026  -33.9670   25.0291 H   0  0  0  0  0  0
  -22.7210  -31.2936   21.3798 H   0  0  0  0  0  0
  -23.3749  -35.9645   23.3285 H   0  0  0  0  0  0
  -24.3596  -36.8938   22.2058 H   0  0  0  0  0  0
  -23.7305  -37.6485   23.6693 H   0  0  0  0  0  0
  -26.1103  -31.5268   20.6032 H   0  0  0  0  0  0
  -26.8477  -30.8137   22.0066 H   0  0  0  0  0  0
  -28.1049  -28.9291   21.2240 H   0  0  0  0  0  0
  -25.9789  -25.8799   19.0287 H   0  0  0  0  0  0
  -23.9869  -27.2817   19.0089 H   0  0  0  0  0  0
  -23.7716  -30.5727   19.3904 H   0  0  0  0  0  0
  -22.7679  -29.2298   19.8470 H   0  0  0  0  0  0
  -25.1335  -36.1827   25.0787 H   0  0  0  0  0  0
  -21.0006  -28.3301   24.1376 H   0  0  0  0  0  0
  -20.5703  -26.2290   23.3614 H   0  0  0  0  0  0
  -21.6660  -26.7452   22.1203 H   0  0  0  0  0  0
  -19.6921  -25.6304   21.1254 H   0  0  0  0  0  0
  -19.6735  -27.3190   20.6757 H   0  0  0  0  0  0
  -17.4213  -26.6671   21.4038 H   0  0  0  0  0  0
  -18.0355  -26.0110   22.9040 H   0  0  0  0  0  0
  -19.7939  -30.7308   24.2219 H   0  0  0  0  0  0
  -17.5026  -31.6267   24.5167 H   0  0  0  0  0  0
  -15.5360  -30.2986   23.7709 H   0  0  0  0  0  0
  -15.8685  -28.0888   22.6988 H   0  0  0  0  0  0
  -24.5993  -30.6930   25.7664 H   0  0  0  0  0  0
  -24.8855  -32.2807   26.4731 H   0  0  0  0  0  0
  -25.8093  -30.8879   27.0150 H   0  0  0  0  0  0
  -26.2923  -29.6648   24.1277 H   0  0  0  0  0  0
  -27.4102  -29.7275   25.4681 H   0  0  0  0  0  0
  -27.8767  -30.4179   23.9332 H   0  0  0  0  0  0
  -27.2740  -33.3589   26.1967 H   0  0  0  0  0  0
  -28.3943  -32.6758   25.0295 H   0  0  0  0  0  0
  -28.0676  -31.8374   26.5369 H   0  0  0  0  0  0
  -28.2566  -38.0108   24.7515 H   0  0  0  0  0  0
  -28.1097  -36.2641   24.6264 H   0  0  0  0  0  0
  -27.2284  -37.1414   25.8844 H   0  0  0  0  0  0
  -20.9310  -29.8743   21.6822 H   0  0  0  0  0  0
  -26.0140  -38.2789   24.1422 H   0  0  0  0  0  0
  -28.2793  -18.2676   19.8402 H   0  0  0  0  0  0
  -31.2072  -21.1871   21.0906 H   0  0  0  0  0  0
  -32.0633  -17.0186   21.5448 H   0  0  0  0  0  0
  -26.6573  -20.7548   20.4427 H   0  0  0  0  0  0
  -27.6366  -21.3224   21.7944 H   0  0  0  0  0  0
  -26.4160  -23.3417   21.1252 H   0  0  0  0  0  0
  -26.6729  -22.9747   19.4270 H   0  0  0  0  0  0
  -28.4983  -21.0065   18.9009 H   0  0  0  0  0  0
  -28.7632  -23.8573   21.4418 H   0  0  0  0  0  0
  -27.8737  -24.9698   18.7020 H   0  0  0  0  0  0
  -29.4973  -25.1012   19.1820 H   0  0  0  0  0  0
  -28.8056  -15.7201   20.4735 H   0  0  0  0  0  0
  1 25  1  0  0  0
  1 30  2  0  0  0
  1 82  1  0  0  0
  2  3  1  0  0  0
  2 25  1  0  0  0
  2 85  1  0  0  0
  2 86  1  0  0  0
  3  4  1  0  0  0
  3 87  1  0  0  0
  3 88  1  0  0  0
  4  5  1  0  0  0
  4 89  1  0  0  0
  4 90  1  0  0  0
  5  6  1  0  0  0
  5 26  1  0  0  0
  5 91  1  0  0  0
  6 25  1  0  0  0
  6 92  1  0  0  0
  6 93  1  0  0  0
  7  8  2  0  0  0
  7 26  1  0  0  0
  7 29  1  0  0  0
  8  9  1  0  0  0
  8 22  1  0  0  0
  9 10  1  0  0  0
  9 27  2  0  0  0
 10 11  2  0  0  0
 10 15  1  0  0  0
 11 12  1  0  0  0
 11 94  1  0  0  0
 12 13  2  0  0  0
 12 95  1  0  0  0
 13 14  1  0  0  0
 13 31  1  0  0  0
 14 15  2  0  0  0
 14 96  1  0  0  0
 15 97  1  0  0  0
 16 17  2  0  0  0
 16 21  1  0  0  0
 16 31  1  0  0  0
 17 18  1  0  0  0
 17 98  1  0  0  0
 18 19  2  0  0  0
 18 99  1  0  0  0
 19 20  1  0  0  0
 19 24  1  0  0  0
 20 21  2  0  0  0
 20100  1  0  0  0
 21 23  1  0  0  0
 22 28  1  0  0  0
 22 32  2  0  0  0
 26 27  1  0  0  0
 28101  1  0  0  0
 28102  1  0  0  0
 29103  1  0  0  0
 29104  1  0  0  0
 33 34  1  0  0  0
 33 66  1  0  0  0
 33 70  2  0  0  0
 34 36  1  0  0  0
 34 59  1  0  0  0
 34105  1  0  0  0
 35 44  2  0  0  0
 35 45  1  0  0  0
 35 68  1  0  0  0
 36 56  1  0  0  0
 36106  1  0  0  0
 37 39  1  0  0  0
 37 47  1  0  0  0
 37 66  1  0  0  0
 37107  1  0  0  0
 38 43  2  0  0  0
 38 46  1  0  0  0
 38 47  1  0  0  0
 39 64  1  0  0  0
 39 67  2  0  0  0
 40 52  1  0  0  0
 40 53  2  0  0  0
 40 58  1  0  0  0
 41108  1  0  0  0
 41109  1  0  0  0
 41110  1  0  0  0
 41 48  1  0  0  0
 42 43  1  0  0  0
 42 66  1  0  0  0
 42111  1  0  0  0
 42112  1  0  0  0
 43 44  1  0  0  0
 44113  1  0  0  0
 45 46  2  0  0  0
 45114  1  0  0  0
 46115  1  0  0  0
 47116  1  0  0  0
 47117  1  0  0  0
 48 56  1  0  0  0
 48 65  1  0  0  0
 48118  1  0  0  0
 49 50  1  0  0  0
 49 53  1  0  0  0
 49 64  1  0  0  0
 49119  1  0  0  0
 50 51  1  0  0  0
 50120  1  0  0  0
 50121  1  0  0  0
 51 52  1  0  0  0
 51122  1  0  0  0
 51123  1  0  0  0
 52124  1  0  0  0
 52125  1  0  0  0
 53 54  1  0  0  0
 54 55  2  0  0  0
 54126  1  0  0  0
 55 57  1  0  0  0
 55127  1  0  0  0
 56 69  2  0  0  0
 57 58  2  0  0  0
 57128  1  0  0  0
 58129  1  0  0  0
 59 60  1  0  0  0
 59 61  1  0  0  0
 59 62  1  0  0  0
 60130  1  0  0  0
 60131  1  0  0  0
 60132  1  0  0  0
 61133  1  0  0  0
 61134  1  0  0  0
 61135  1  0  0  0
 62136  1  0  0  0
 62137  1  0  0  0
 62138  1  0  0  0
 63 65  1  0  0  0
 63139  1  0  0  0
 63140  1  0  0  0
 63141  1  0  0  0
 64142  1  0  0  0
 65143  1  0  0  0
 68 81  1  0  0  0
 71 74  2  0  0  0
 71 75  1  0  0  0
 71144  1  0  0  0
 72 74  1  0  0  0
 72 76  2  0  0  0
 72145  1  0  0  0
 73 75  2  0  0  0
 73 76  1  0  0  0
 73146  1  0  0  0
 74 79  1  0  0  0
 75 82  1  0  0  0
 76 84  1  0  0  0
 77 78  1  0  0  0
 77 79  1  0  0  0
 77147  1  0  0  0
 77148  1  0  0  0
 78 80  1  0  0  0
 78149  1  0  0  0
 78150  1  0  0  0
 79 83  1  0  0  0
 79151  1  0  0  0
 80 81  1  0  0  0
 80 83  1  0  0  0
 80152  1  0  0  0
 81153  1  0  0  0
 81154  1  0  0  0
 82155  1  0  0  0
M  ISO  4   1 100  68 101  81 101  82 100
M  END
> <chiral flag>
0

> <version>
0

> <s_m_source_file>
/data/baiqing/PycharmProjects/Reinvent-master-3.2/result/LINK_invent/BTK/process_docking_weight1_custom_product_contain_oxygen_bond_distance_aromatic_linkinvent_7_9_3/rearranged_h_0142.sdf

> <i_m_source_file_index>
72

> <r_mmod_Potential_Energy-OPLS-2005>
245.479202270508

> <r_mmod_Stretch_Energy-OPLS-2005>
131.02033996582

> <r_mmod_Bend_Energy-OPLS-2005>
200.123474121094

> <r_mmod_Torsional_Energy-OPLS-2005>
256.135498046875

> <r_mmod_Improper_Torsional_Energy-OPLS-2005>
6.3767728805542

> <r_mmod_Van_der_Waal_Energy-OPLS-2005>
130.835357666016

> <r_mmod_Electrostatic_Energy-OPLS-2005>
-362.816619873047

> <r_mmod_Solvation_Energy-OPLS-2005>
-211.111618041992

> <b_mmod_Minimization_Converged-OPLS-2005>
0

> <r_mmod_RMS_Derivative-OPLS-2005>
4.07562780380249

$$$$
72
                    3D
 Structure written by MMmdl.
170178  0  0  1  0            999 V2000
  -30.7043  -14.4907   20.5475 C   0  0  0  0  0  0
  -30.4214  -12.3120   19.4237 C   0  0  0  0  0  0
  -29.4921  -12.4555   18.2005 C   0  0  0  0  0  0
  -28.0101  -12.3511   18.6159 C   0  0  0  0  0  0
  -27.6519  -13.2037   19.8648 C   0  0  2  0  0  0
  -28.6990  -13.0253   20.9843 C   0  0  0  0  0  0
  -25.2569  -13.8170   20.5689 C   0  0  0  0  0  0
  -24.1813  -13.0450   20.9179 C   0  0  0  0  0  0
  -24.6368  -11.6921   20.8734 C   0  0  0  0  0  0
  -23.9043  -10.4310   21.0411 C   0  0  0  0  0  0
  -24.3596   -9.4235   21.9185 C   0  0  0  0  0  0
  -23.6299   -8.2253   22.0735 C   0  0  0  0  0  0
  -22.4281   -8.0289   21.3531 C   0  0  0  0  0  0
  -21.9910   -9.0267   20.4639 C   0  0  0  0  0  0
  -22.7226  -10.2154   20.3057 C   0  0  0  0  0  0
  -21.6864   -6.0763   22.5295 C   0  0  0  0  0  0
  -21.4018   -6.5665   23.8234 C   0  0  0  0  0  0
  -21.3630   -5.6798   24.9188 C   0  0  0  0  0  0
  -21.6032   -4.3057   24.7215 C   0  0  0  0  0  0
  -21.8817   -3.8169   23.4331 C   0  0  0  0  0  0
  -21.9187   -4.6994   22.3400 C   0  0  0  0  0  0
  -22.7841  -13.5244   21.1864 C   0  0  0  0  0  0
  -22.1657   -4.2207   21.0969 F   0  0  0  0  0  0
  -21.5621   -3.4512   25.7700 F   0  0  0  0  0  0
  -30.0196  -13.3242   20.4101 N   0  0  0  0  0  0
  -26.2972  -12.9314   20.3347 N   0  0  0  0  0  0
  -25.9283  -11.6483   20.5751 N   0  0  0  0  0  0
  -22.0470  -12.8249   22.0438 N   0  0  0  0  0  0
  -25.4334  -15.1895   20.4137 N   0  0  0  0  0  0
  -31.8588  -14.6398   20.1371 O   0  0  0  0  0  0
  -21.6647   -6.8893   21.4248 O   0  0  0  0  0  0
  -22.3537  -14.5549   20.6709 O   0  0  0  0  0  0
  -24.6105  -31.8720   23.2115 C   0  0  0  0  0  0
  -25.9037  -32.4848   23.8367 C   0  0  1  0  0  0
  -27.2325  -27.4689   20.0803 C   0  0  0  0  0  0
  -25.5939  -33.8645   24.2321 N   0  0  0  0  0  0
  -23.3984  -30.4916   21.5524 C   0  0  2  0  0  0
  -24.8462  -28.9611   20.1142 C   0  0  0  0  0  0
  -22.7420  -29.4627   22.4998 C   0  0  0  0  0  0
  -18.0297  -28.1345   22.8488 C   0  0  0  0  0  0
  -24.1498  -36.7305   23.2627 C   0  0  0  0  0  0
  -25.9223  -30.8440   21.3627 C   0  0  0  0  0  0
  -26.0027  -29.4798   20.7104 C   0  0  0  0  0  0
  -27.2026  -28.7365   20.6978 C   0  0  0  0  0  0
  -26.0665  -26.9564   19.4808 C   0  0  0  0  0  0
  -24.8682  -27.6962   19.5010 C   0  0  0  0  0  0
  -23.6077  -29.8242   20.1665 C   0  0  0  0  0  0
  -25.4131  -36.3124   24.0325 C   0  0  1  0  0  0
  -20.5876  -28.3641   23.1348 C   0  0  2  0  0  0
  -20.6790  -26.9379   22.5439 C   0  0  0  0  0  0
  -19.5755  -26.6306   21.5265 C   0  0  0  0  0  0
  -18.1943  -26.7863   22.1662 C   0  0  0  0  0  0
  -19.1538  -28.8811   23.2913 C   0  0  0  0  0  0
  -18.9449  -30.1413   23.8924 C   0  0  0  0  0  0
  -17.6435  -30.6529   24.0556 C   0  0  0  0  0  0
  -25.9051  -34.9489   23.5108 C   0  0  0  0  0  0
  -16.5342  -29.9029   23.6291 C   0  0  0  0  0  0
  -16.7282  -28.6464   23.0323 C   0  0  0  0  0  0
  -26.4479  -31.6632   25.0685 C   0  0  0  0  0  0
  -25.3746  -31.3734   26.1433 C   0  0  0  0  0  0
  -27.0274  -30.3069   24.6030 C   0  0  0  0  0  0
  -27.6064  -32.4325   25.7458 C   0  0  0  0  0  0
  -27.5599  -37.1814   24.8463 C   0  0  0  0  0  0
  -21.4143  -29.3024   22.3776 N   0  0  0  0  0  0
  -26.4315  -37.3809   23.9401 N   0  0  0  0  0  0
  -24.6620  -31.0813   22.1027 N   0  0  0  0  0  0
  -23.4218  -28.8164   23.3026 O   0  0  0  0  0  0
  -28.3780  -26.7182   20.0526 O   0  0  0  0  0  0
  -26.5572  -34.8944   22.4644 O   0  0  0  0  0  0
  -23.5306  -32.1452   23.7533 O   0  0  0  0  0  0
  -28.4380  -18.6930   18.5798 C   0  0  0  0  0  0
  -29.0869  -16.3624   18.8488 C   0  0  0  0  0  0
  -29.3158  -17.9053   20.7180 C   0  0  0  0  0  0
  -28.5606  -17.3964   18.0517 C   0  0  0  0  0  0
  -28.8177  -18.9623   19.9105 C   0  0  0  0  0  0
  -29.4689  -16.5947   20.1918 C   0  0  0  0  0  0
  -28.2574  -23.4762   19.9371 C   0  0  0  0  0  0
  -26.7129  -16.5578   16.5468 C   0  0  0  0  0  0
  -25.8300  -23.0882   20.3651 C   0  0  0  0  0  0
  -27.4213  -22.6501   22.2496 C   0  0  0  0  0  0
  -28.1403  -17.1108   16.6228 C   0  0  0  0  0  0
  -28.7470  -20.4006   20.4284 C   0  0  0  0  0  0
  -29.1571  -24.4717   20.6854 C   0  0  0  0  0  0
  -27.3636  -21.0904   20.2527 C   0  0  0  0  0  0
  -28.4552  -25.7764   21.1202 C   0  0  0  0  0  0
  -27.2498  -22.5804   20.7118 C   0  0  0  0  0  0
  -30.0114  -15.5508   21.0114 N   0  0  0  0  0  0
  -28.3459  -23.3881   18.7085 O   0  0  0  0  0  0
  -31.4642  -12.4113   19.1199 H   0  0  0  0  0  0
  -30.3340  -11.3163   19.8621 H   0  0  0  0  0  0
  -29.7209  -11.6805   17.4672 H   0  0  0  0  0  0
  -29.6811  -13.4017   17.6946 H   0  0  0  0  0  0
  -27.8033  -11.3003   18.8177 H   0  0  0  0  0  0
  -27.3678  -12.6252   17.7783 H   0  0  0  0  0  0
  -27.6699  -14.2435   19.5546 H   0  0  0  0  0  0
  -28.6820  -12.0040   21.3656 H   0  0  0  0  0  0
  -28.4649  -13.6669   21.8351 H   0  0  0  0  0  0
  -25.2720   -9.5750   22.4794 H   0  0  0  0  0  0
  -24.0020   -7.4634   22.7438 H   0  0  0  0  0  0
  -21.0853   -8.8794   19.8936 H   0  0  0  0  0  0
  -22.3675  -10.9709   19.6178 H   0  0  0  0  0  0
  -21.2043   -7.6175   23.9749 H   0  0  0  0  0  0
  -21.1431   -6.0529   25.9090 H   0  0  0  0  0  0
  -22.0619   -2.7644   23.2809 H   0  0  0  0  0  0
  -22.3999  -11.9874   22.4842 H   0  0  0  0  0  0
  -21.1064  -13.1264   22.2585 H   0  0  0  0  0  0
  -24.6790  -15.8513   20.5593 H   0  0  0  0  0  0
  -26.3026  -15.6336   20.1410 H   0  0  0  0  0  0
  -26.7132  -32.5576   23.1155 H   0  0  0  0  0  0
  -25.0177  -33.9800   25.0523 H   0  0  0  0  0  0
  -22.6846  -31.3068   21.4167 H   0  0  0  0  0  0
  -23.3769  -35.9630   23.3299 H   0  0  0  0  0  0
  -24.3575  -36.8885   22.2037 H   0  0  0  0  0  0
  -23.7238  -37.6518   23.6611 H   0  0  0  0  0  0
  -26.0240  -31.6136   20.5968 H   0  0  0  0  0  0
  -26.8133  -30.8986   21.9747 H   0  0  0  0  0  0
  -28.0986  -29.1278   21.1579 H   0  0  0  0  0  0
  -26.0872  -25.9883   19.0009 H   0  0  0  0  0  0
  -23.9791  -27.2883   19.0406 H   0  0  0  0  0  0
  -23.7163  -30.5985   19.4076 H   0  0  0  0  0  0
  -22.7324  -29.2446   19.8671 H   0  0  0  0  0  0
  -25.1310  -36.1988   25.0818 H   0  0  0  0  0  0
  -20.9962  -28.3216   24.1473 H   0  0  0  0  0  0
  -20.5673  -26.2239   23.3607 H   0  0  0  0  0  0
  -21.6672  -26.7421   22.1230 H   0  0  0  0  0  0
  -19.6915  -25.6163   21.1411 H   0  0  0  0  0  0
  -19.6665  -27.3045   20.6746 H   0  0  0  0  0  0
  -17.4236  -26.6582   21.4050 H   0  0  0  0  0  0
  -18.0296  -26.0017   22.9086 H   0  0  0  0  0  0
  -19.7911  -30.7238   24.2329 H   0  0  0  0  0  0
  -17.4957  -31.6227   24.5124 H   0  0  0  0  0  0
  -15.5333  -30.2948   23.7548 H   0  0  0  0  0  0
  -15.8703  -28.0779   22.7006 H   0  0  0  0  0  0
  -24.5946  -30.7063   25.7756 H   0  0  0  0  0  0
  -24.8916  -32.2887   26.4864 H   0  0  0  0  0  0
  -25.8109  -30.8917   27.0187 H   0  0  0  0  0  0
  -26.2786  -29.6872   24.1094 H   0  0  0  0  0  0
  -27.4047  -29.7292   25.4476 H   0  0  0  0  0  0
  -27.8632  -30.4374   23.9150 H   0  0  0  0  0  0
  -27.2715  -33.3616   26.2090 H   0  0  0  0  0  0
  -28.3880  -32.6896   25.0294 H   0  0  0  0  0  0
  -28.0743  -31.8397   26.5333 H   0  0  0  0  0  0
  -28.2629  -38.0104   24.7520 H   0  0  0  0  0  0
  -28.1074  -36.2625   24.6295 H   0  0  0  0  0  0
  -27.2277  -37.1497   25.8855 H   0  0  0  0  0  0
  -20.9272  -29.8827   21.7078 H   0  0  0  0  0  0
  -26.0198  -38.2869   24.1448 H   0  0  0  0  0  0
  -28.0662  -19.4870   17.9461 H   0  0  0  0  0  0
  -29.1922  -15.3868   18.4052 H   0  0  0  0  0  0
  -29.6119  -18.1118   21.7372 H   0  0  0  0  0  0
  -26.4348  -16.3343   15.5171 H   0  0  0  0  0  0
  -25.9884  -17.2710   16.9420 H   0  0  0  0  0  0
  -26.6197  -15.6343   17.1169 H   0  0  0  0  0  0
  -25.6811  -24.1233   20.6716 H   0  0  0  0  0  0
  -25.0565  -22.4925   20.8532 H   0  0  0  0  0  0
  -25.6366  -23.0430   19.2919 H   0  0  0  0  0  0
  -27.2155  -23.6445   22.6474 H   0  0  0  0  0  0
  -28.4233  -22.3636   22.5691 H   0  0  0  0  0  0
  -26.7294  -21.9724   22.7494 H   0  0  0  0  0  0
  -28.8359  -16.4002   16.1767 H   0  0  0  0  0  0
  -28.2163  -18.0249   16.0315 H   0  0  0  0  0  0
  -29.5146  -20.9609   19.8938 H   0  0  0  0  0  0
  -29.0425  -20.4124   21.4780 H   0  0  0  0  0  0
  -30.0161  -24.7097   20.0571 H   0  0  0  0  0  0
  -29.5680  -23.9713   21.5597 H   0  0  0  0  0  0
  -26.6201  -20.5008   20.7911 H   0  0  0  0  0  0
  -27.0639  -21.0366   19.2054 H   0  0  0  0  0  0
  -29.0271  -26.2412   21.9240 H   0  0  0  0  0  0
  -27.4698  -25.5632   21.5359 H   0  0  0  0  0  0
  -30.3767  -15.8849   21.8924 H   0  0  0  0  0  0
  1 25  1  0  0  0
  1 30  2  0  0  0
  1 87  1  0  0  0
  2  3  1  0  0  0
  2 25  1  0  0  0
  2 89  1  0  0  0
  2 90  1  0  0  0
  3  4  1  0  0  0
  3 91  1  0  0  0
  3 92  1  0  0  0
  4  5  1  0  0  0
  4 93  1  0  0  0
  4 94  1  0  0  0
  5  6  1  0  0  0
  5 26  1  0  0  0
  5 95  1  0  0  0
  6 25  1  0  0  0
  6 96  1  0  0  0
  6 97  1  0  0  0
  7  8  2  0  0  0
  7 26  1  0  0  0
  7 29  1  0  0  0
  8  9  1  0  0  0
  8 22  1  0  0  0
  9 10  1  0  0  0
  9 27  2  0  0  0
 10 11  2  0  0  0
 10 15  1  0  0  0
 11 12  1  0  0  0
 11 98  1  0  0  0
 12 13  2  0  0  0
 12 99  1  0  0  0
 13 14  1  0  0  0
 13 31  1  0  0  0
 14 15  2  0  0  0
 14100  1  0  0  0
 15101  1  0  0  0
 16 17  2  0  0  0
 16 21  1  0  0  0
 16 31  1  0  0  0
 17 18  1  0  0  0
 17102  1  0  0  0
 18 19  2  0  0  0
 18103  1  0  0  0
 19 20  1  0  0  0
 19 24  1  0  0  0
 20 21  2  0  0  0
 20104  1  0  0  0
 21 23  1  0  0  0
 22 28  1  0  0  0
 22 32  2  0  0  0
 26 27  1  0  0  0
 28105  1  0  0  0
 28106  1  0  0  0
 29107  1  0  0  0
 29108  1  0  0  0
 33 34  1  0  0  0
 33 66  1  0  0  0
 33 70  2  0  0  0
 34 36  1  0  0  0
 34 59  1  0  0  0
 34109  1  0  0  0
 35 44  2  0  0  0
 35 45  1  0  0  0
 35 68  1  0  0  0
 36 56  1  0  0  0
 36110  1  0  0  0
 37 39  1  0  0  0
 37 47  1  0  0  0
 37 66  1  0  0  0
 37111  1  0  0  0
 38 43  2  0  0  0
 38 46  1  0  0  0
 38 47  1  0  0  0
 39 64  1  0  0  0
 39 67  2  0  0  0
 40 52  1  0  0  0
 40 53  2  0  0  0
 40 58  1  0  0  0
 41112  1  0  0  0
 41113  1  0  0  0
 41114  1  0  0  0
 41 48  1  0  0  0
 42 43  1  0  0  0
 42 66  1  0  0  0
 42115  1  0  0  0
 42116  1  0  0  0
 43 44  1  0  0  0
 44117  1  0  0  0
 45 46  2  0  0  0
 45118  1  0  0  0
 46119  1  0  0  0
 47120  1  0  0  0
 47121  1  0  0  0
 48 56  1  0  0  0
 48 65  1  0  0  0
 48122  1  0  0  0
 49 50  1  0  0  0
 49 53  1  0  0  0
 49 64  1  0  0  0
 49123  1  0  0  0
 50 51  1  0  0  0
 50124  1  0  0  0
 50125  1  0  0  0
 51 52  1  0  0  0
 51126  1  0  0  0
 51127  1  0  0  0
 52128  1  0  0  0
 52129  1  0  0  0
 53 54  1  0  0  0
 54 55  2  0  0  0
 54130  1  0  0  0
 55 57  1  0  0  0
 55131  1  0  0  0
 56 69  2  0  0  0
 57 58  2  0  0  0
 57132  1  0  0  0
 58133  1  0  0  0
 59 60  1  0  0  0
 59 61  1  0  0  0
 59 62  1  0  0  0
 60134  1  0  0  0
 60135  1  0  0  0
 60136  1  0  0  0
 61137  1  0  0  0
 61138  1  0  0  0
 61139  1  0  0  0
 62140  1  0  0  0
 62141  1  0  0  0
 62142  1  0  0  0
 63 65  1  0  0  0
 63143  1  0  0  0
 63144  1  0  0  0
 63145  1  0  0  0
 64146  1  0  0  0
 65147  1  0  0  0
 68 85  1  0  0  0
 71 74  2  0  0  0
 71 75  1  0  0  0
 71148  1  0  0  0
 72 74  1  0  0  0
 72 76  2  0  0  0
 72149  1  0  0  0
 73 75  2  0  0  0
 73 76  1  0  0  0
 73150  1  0  0  0
 74 81  1  0  0  0
 75 82  1  0  0  0
 76 87  1  0  0  0
 77 83  1  0  0  0
 77 86  1  0  0  0
 77 88  2  0  0  0
 78 81  1  0  0  0
 78151  1  0  0  0
 78152  1  0  0  0
 78153  1  0  0  0
 79154  1  0  0  0
 79155  1  0  0  0
 79156  1  0  0  0
 79 86  1  0  0  0
 80 86  1  0  0  0
 80157  1  0  0  0
 80158  1  0  0  0
 80159  1  0  0  0
 81160  1  0  0  0
 81161  1  0  0  0
 82 84  1  0  0  0
 82162  1  0  0  0
 82163  1  0  0  0
 83 85  1  0  0  0
 83164  1  0  0  0
 83165  1  0  0  0
 84 86  1  0  0  0
 84166  1  0  0  0
 84167  1  0  0  0
 85168  1  0  0  0
 85169  1  0  0  0
 87170  1  0  0  0
M  ISO  4   1 100  68 101  85 101  87 100
M  END
> <chiral flag>
0

> <version>
0

> <s_m_source_file>
/data/baiqing/PycharmProjects/Reinvent-master-3.2/result/LINK_invent/BTK/process_docking_weight1_custom_product_contain_oxygen_bond_distance_aromatic_linkinvent_7_9_3/rearranged_h_0142.sdf

> <i_m_source_file_index>
73

> <r_mmod_Potential_Energy-OPLS-2005>
3.80148363113403

> <r_mmod_Stretch_Energy-OPLS-2005>
38.0601501464844

> <r_mmod_Bend_Energy-OPLS-2005>
100.347190856934

> <r_mmod_Torsional_Energy-OPLS-2005>
300.197998046875

> <r_mmod_Improper_Torsional_Energy-OPLS-2005>
6.18747758865356

> <r_mmod_Van_der_Waal_Energy-OPLS-2005>
139.394866943359

> <r_mmod_Electrostatic_Energy-OPLS-2005>
-391.864654541016

> <r_mmod_Solvation_Energy-OPLS-2005>
-203.408309936523

> <b_mmod_Minimization_Converged-OPLS-2005>
0

> <r_mmod_RMS_Derivative-OPLS-2005>
3.85023355484009

$$$$
73
                    3D
 Structure written by MMmdl.
160169  0  0  1  0            999 V2000
  -30.6784  -14.5182   20.5366 C   0  0  0  0  0  0
  -30.4132  -12.3207   19.4503 C   0  0  0  0  0  0
  -29.4961  -12.4906   18.2225 C   0  0  0  0  0  0
  -28.0163  -12.3514   18.6267 C   0  0  0  0  0  0
  -27.6511  -13.2101   19.8672 C   0  0  2  0  0  0
  -28.6864  -13.0327   20.9990 C   0  0  0  0  0  0
  -25.2536  -13.8166   20.5669 C   0  0  0  0  0  0
  -24.1804  -13.0448   20.9177 C   0  0  0  0  0  0
  -24.6357  -11.6903   20.8739 C   0  0  0  0  0  0
  -23.9030  -10.4291   21.0400 C   0  0  0  0  0  0
  -24.3590   -9.4214   21.9177 C   0  0  0  0  0  0
  -23.6277   -8.2250   22.0749 C   0  0  0  0  0  0
  -22.4264   -8.0275   21.3541 C   0  0  0  0  0  0
  -21.9893   -9.0241   20.4643 C   0  0  0  0  0  0
  -22.7206  -10.2128   20.3049 C   0  0  0  0  0  0
  -21.6851   -6.0727   22.5276 C   0  0  0  0  0  0
  -21.4010   -6.5630   23.8210 C   0  0  0  0  0  0
  -21.3656   -5.6787   24.9174 C   0  0  0  0  0  0
  -21.6051   -4.3047   24.7231 C   0  0  0  0  0  0
  -21.8821   -3.8139   23.4347 C   0  0  0  0  0  0
  -21.9195   -4.6954   22.3400 C   0  0  0  0  0  0
  -22.7830  -13.5241   21.1855 C   0  0  0  0  0  0
  -22.1665   -4.2130   21.0980 F   0  0  0  0  0  0
  -21.5631   -3.4534   25.7750 F   0  0  0  0  0  0
  -30.0124  -13.3331   20.4439 N   0  0  0  0  0  0
  -26.2952  -12.9343   20.3318 N   0  0  0  0  0  0
  -25.9275  -11.6500   20.5739 N   0  0  0  0  0  0
  -22.0481  -12.8233   22.0410 N   0  0  0  0  0  0
  -25.4292  -15.1894   20.4090 N   0  0  0  0  0  0
  -31.8378  -14.6187   20.1316 O   0  0  0  0  0  0
  -21.6641   -6.8868   21.4231 O   0  0  0  0  0  0
  -22.3525  -14.5555   20.6705 O   0  0  0  0  0  0
  -24.6149  -31.8684   23.2133 C   0  0  0  0  0  0
  -25.9052  -32.4824   23.8407 C   0  0  1  0  0  0
  -27.2234  -27.4092   20.0926 C   0  0  0  0  0  0
  -25.5905  -33.8617   24.2327 N   0  0  0  0  0  0
  -23.4009  -30.4939   21.5542 C   0  0  2  0  0  0
  -24.8449  -28.9611   20.1113 C   0  0  0  0  0  0
  -22.7401  -29.4648   22.5007 C   0  0  0  0  0  0
  -18.0269  -28.1352   22.8480 C   0  0  0  0  0  0
  -24.1470  -36.7297   23.2635 C   0  0  0  0  0  0
  -25.9329  -30.8235   21.3728 C   0  0  0  0  0  0
  -26.0071  -29.4577   20.7138 C   0  0  0  0  0  0
  -27.1956  -28.6863   20.7068 C   0  0  0  0  0  0
  -26.0384  -26.9409   19.4763 C   0  0  0  0  0  0
  -24.8566  -27.7026   19.4894 C   0  0  0  0  0  0
  -23.6080  -29.8292   20.1664 C   0  0  0  0  0  0
  -25.4091  -36.3099   24.0315 C   0  0  1  0  0  0
  -20.5846  -28.3635   23.1305 C   0  0  2  0  0  0
  -20.6738  -26.9374   22.5401 C   0  0  0  0  0  0
  -19.5730  -26.6364   21.5180 C   0  0  0  0  0  0
  -18.1907  -26.7914   22.1591 C   0  0  0  0  0  0
  -19.1511  -28.8813   23.2889 C   0  0  0  0  0  0
  -18.9443  -30.1425   23.8894 C   0  0  0  0  0  0
  -17.6450  -30.6578   24.0550 C   0  0  0  0  0  0
  -25.9008  -34.9467   23.5105 C   0  0  0  0  0  0
  -16.5336  -29.9067   23.6346 C   0  0  0  0  0  0
  -16.7249  -28.6474   23.0361 C   0  0  0  0  0  0
  -26.4485  -31.6651   25.0770 C   0  0  0  0  0  0
  -25.3761  -31.3744   26.1537 C   0  0  0  0  0  0
  -27.0375  -30.3101   24.6210 C   0  0  0  0  0  0
  -27.6045  -32.4419   25.7530 C   0  0  0  0  0  0
  -27.5570  -37.1801   24.8460 C   0  0  0  0  0  0
  -21.4125  -29.3018   22.3737 N   0  0  0  0  0  0
  -26.4284  -37.3783   23.9395 N   0  0  0  0  0  0
  -24.6676  -31.0770   22.1041 N   0  0  0  0  0  0
  -23.4183  -28.8177   23.3027 O   0  0  0  0  0  0
  -28.3883  -26.6575   20.1408 O   0  0  0  0  0  0
  -26.5582  -34.8926   22.4676 O   0  0  0  0  0  0
  -23.5347  -32.1434   23.7532 O   0  0  0  0  0  0
  -29.2013  -17.9896   20.9624 C   0  0  0  0  0  0
  -30.7075  -19.7928   20.3149 C   0  0  0  0  0  0
  -31.5043  -17.4929   20.3693 C   0  0  0  0  0  0
  -29.4239  -19.3874   20.7369 C   0  0  0  0  0  0
  -30.2267  -17.0136   20.7573 C   0  0  0  0  0  0
  -31.7366  -18.8575   20.1385 C   0  0  0  0  0  0
  -28.3829  -20.4459   20.9833 C   0  0  0  0  0  0
  -26.9530  -21.9298   19.4007 C   0  0  0  0  0  0
  -27.0570  -23.3568   18.8650 C   0  0  0  0  0  0
  -28.6487  -23.0807   20.6896 C   0  0  0  0  0  0
  -28.3223  -21.6929   20.0518 C   0  0  1  0  0  0
  -27.7707  -24.1584   19.9694 C   0  0  1  0  0  0
  -28.4978  -25.4255   19.3960 C   0  0  0  0  0  0
  -27.5378  -20.3323   21.9194 N   0  0  0  0  0  0
  -29.9469  -15.5978   20.9359 N   0  0  0  0  0  0
  -32.9639  -19.2729   19.7463 F   0  0  0  0  0  0
  -31.4593  -12.4112   19.1527 H   0  0  0  0  0  0
  -30.3123  -11.3209   19.8754 H   0  0  0  0  0  0
  -29.7453  -11.7505   17.4619 H   0  0  0  0  0  0
  -29.6627  -13.4672   17.7651 H   0  0  0  0  0  0
  -27.8311  -11.2978   18.8397 H   0  0  0  0  0  0
  -27.3686  -12.6082   17.7874 H   0  0  0  0  0  0
  -27.6847  -14.2500   19.5443 H   0  0  0  0  0  0
  -28.6683  -12.0094   21.3747 H   0  0  0  0  0  0
  -28.4445  -13.6638   21.8559 H   0  0  0  0  0  0
  -25.2730   -9.5706   22.4751 H   0  0  0  0  0  0
  -23.9988   -7.4649   22.7468 H   0  0  0  0  0  0
  -21.0825   -8.8751   19.8946 H   0  0  0  0  0  0
  -22.3647  -10.9668   19.6161 H   0  0  0  0  0  0
  -21.2000   -7.6141   23.9703 H   0  0  0  0  0  0
  -21.1476   -6.0523   25.9080 H   0  0  0  0  0  0
  -22.0605   -2.7594   23.2862 H   0  0  0  0  0  0
  -22.4093  -11.9881   22.4786 H   0  0  0  0  0  0
  -21.1100  -13.1250   22.2626 H   0  0  0  0  0  0
  -24.6611  -15.8448   20.5125 H   0  0  0  0  0  0
  -26.2771  -15.6231   20.0684 H   0  0  0  0  0  0
  -26.7140  -32.5535   23.1180 H   0  0  0  0  0  0
  -25.0140  -33.9776   25.0532 H   0  0  0  0  0  0
  -22.6902  -31.3120   21.4194 H   0  0  0  0  0  0
  -23.3736  -35.9634   23.3319 H   0  0  0  0  0  0
  -24.3562  -36.8901   22.2051 H   0  0  0  0  0  0
  -23.7242  -37.6495   23.6674 H   0  0  0  0  0  0
  -26.0543  -31.5951   20.6113 H   0  0  0  0  0  0
  -26.8149  -30.8681   21.9997 H   0  0  0  0  0  0
  -28.0901  -29.0633   21.1842 H   0  0  0  0  0  0
  -25.9960  -25.9828   18.9860 H   0  0  0  0  0  0
  -23.9615  -27.3133   19.0214 H   0  0  0  0  0  0
  -23.7117  -30.6066   19.4081 H   0  0  0  0  0  0
  -22.7324  -29.2455   19.8751 H   0  0  0  0  0  0
  -25.1289  -36.1947   25.0808 H   0  0  0  0  0  0
  -20.9920  -28.3203   24.1429 H   0  0  0  0  0  0
  -20.5587  -26.2239   23.3581 H   0  0  0  0  0  0
  -21.6616  -26.7398   22.1223 H   0  0  0  0  0  0
  -19.6880  -25.6269   21.1231 H   0  0  0  0  0  0
  -19.6688  -27.3155   20.6697 H   0  0  0  0  0  0
  -17.4167  -26.6646   21.4009 H   0  0  0  0  0  0
  -18.0309  -26.0049   22.8971 H   0  0  0  0  0  0
  -19.7922  -30.7216   24.2283 H   0  0  0  0  0  0
  -17.5016  -31.6271   24.5130 H   0  0  0  0  0  0
  -15.5342  -30.2957   23.7697 H   0  0  0  0  0  0
  -15.8634  -28.0802   22.7098 H   0  0  0  0  0  0
  -24.5898  -30.7136   25.7878 H   0  0  0  0  0  0
  -24.8998  -32.2893   26.5076 H   0  0  0  0  0  0
  -25.8116  -30.8857   27.0263 H   0  0  0  0  0  0
  -26.2953  -29.6805   24.1298 H   0  0  0  0  0  0
  -27.4161  -29.7419   25.4722 H   0  0  0  0  0  0
  -27.8773  -30.4408   23.9377 H   0  0  0  0  0  0
  -27.2632  -33.3705   26.2126 H   0  0  0  0  0  0
  -28.3835  -32.7027   25.0352 H   0  0  0  0  0  0
  -28.0757  -31.8568   26.5444 H   0  0  0  0  0  0
  -28.2591  -38.0105   24.7535 H   0  0  0  0  0  0
  -28.1075  -36.2642   24.6267 H   0  0  0  0  0  0
  -27.2296  -37.1404   25.8868 H   0  0  0  0  0  0
  -20.9288  -29.8784   21.7001 H   0  0  0  0  0  0
  -26.0171  -38.2842   24.1462 H   0  0  0  0  0  0
  -28.2216  -17.6695   21.2873 H   0  0  0  0  0  0
  -30.9298  -20.8353   20.1441 H   0  0  0  0  0  0
  -32.3547  -16.8468   20.2338 H   0  0  0  0  0  0
  -26.7231  -21.2040   18.6191 H   0  0  0  0  0  0
  -26.1532  -21.8871   20.1412 H   0  0  0  0  0  0
  -26.0816  -23.7678   18.6019 H   0  0  0  0  0  0
  -27.6629  -23.3500   17.9566 H   0  0  0  0  0  0
  -29.7131  -23.2977   20.6023 H   0  0  0  0  0  0
  -28.4173  -23.0846   21.7565 H   0  0  0  0  0  0
  -29.0185  -21.5451   19.2253 H   0  0  0  0  0  0
  -27.0073  -24.4881   20.6755 H   0  0  0  0  0  0
  -28.1731  -25.6231   18.3734 H   0  0  0  0  0  0
  -29.5617  -25.2108   19.2978 H   0  0  0  0  0  0
  -27.6723  -19.4832   22.4563 H   0  0  0  0  0  0
  -29.0153  -15.3707   21.2492 H   0  0  0  0  0  0
  1 25  1  0  0  0
  1 30  2  0  0  0
  1 85  1  0  0  0
  2  3  1  0  0  0
  2 25  1  0  0  0
  2 87  1  0  0  0
  2 88  1  0  0  0
  3  4  1  0  0  0
  3 89  1  0  0  0
  3 90  1  0  0  0
  4  5  1  0  0  0
  4 91  1  0  0  0
  4 92  1  0  0  0
  5  6  1  0  0  0
  5 26  1  0  0  0
  5 93  1  0  0  0
  6 25  1  0  0  0
  6 94  1  0  0  0
  6 95  1  0  0  0
  7  8  2  0  0  0
  7 26  1  0  0  0
  7 29  1  0  0  0
  8  9  1  0  0  0
  8 22  1  0  0  0
  9 10  1  0  0  0
  9 27  2  0  0  0
 10 11  2  0  0  0
 10 15  1  0  0  0
 11 12  1  0  0  0
 11 96  1  0  0  0
 12 13  2  0  0  0
 12 97  1  0  0  0
 13 14  1  0  0  0
 13 31  1  0  0  0
 14 15  2  0  0  0
 14 98  1  0  0  0
 15 99  1  0  0  0
 16 17  2  0  0  0
 16 21  1  0  0  0
 16 31  1  0  0  0
 17 18  1  0  0  0
 17100  1  0  0  0
 18 19  2  0  0  0
 18101  1  0  0  0
 19 20  1  0  0  0
 19 24  1  0  0  0
 20 21  2  0  0  0
 20102  1  0  0  0
 21 23  1  0  0  0
 22 28  1  0  0  0
 22 32  2  0  0  0
 26 27  1  0  0  0
 28103  1  0  0  0
 28104  1  0  0  0
 29105  1  0  0  0
 29106  1  0  0  0
 33 34  1  0  0  0
 33 66  1  0  0  0
 33 70  2  0  0  0
 34 36  1  0  0  0
 34 59  1  0  0  0
 34107  1  0  0  0
 35 44  2  0  0  0
 35 45  1  0  0  0
 35 68  1  0  0  0
 36 56  1  0  0  0
 36108  1  0  0  0
 37 39  1  0  0  0
 37 47  1  0  0  0
 37 66  1  0  0  0
 37109  1  0  0  0
 38 43  2  0  0  0
 38 46  1  0  0  0
 38 47  1  0  0  0
 39 64  1  0  0  0
 39 67  2  0  0  0
 40 52  1  0  0  0
 40 53  2  0  0  0
 40 58  1  0  0  0
 41110  1  0  0  0
 41111  1  0  0  0
 41112  1  0  0  0
 41 48  1  0  0  0
 42 43  1  0  0  0
 42 66  1  0  0  0
 42113  1  0  0  0
 42114  1  0  0  0
 43 44  1  0  0  0
 44115  1  0  0  0
 45 46  2  0  0  0
 45116  1  0  0  0
 46117  1  0  0  0
 47118  1  0  0  0
 47119  1  0  0  0
 48 56  1  0  0  0
 48 65  1  0  0  0
 48120  1  0  0  0
 49 50  1  0  0  0
 49 53  1  0  0  0
 49 64  1  0  0  0
 49121  1  0  0  0
 50 51  1  0  0  0
 50122  1  0  0  0
 50123  1  0  0  0
 51 52  1  0  0  0
 51124  1  0  0  0
 51125  1  0  0  0
 52126  1  0  0  0
 52127  1  0  0  0
 53 54  1  0  0  0
 54 55  2  0  0  0
 54128  1  0  0  0
 55 57  1  0  0  0
 55129  1  0  0  0
 56 69  2  0  0  0
 57 58  2  0  0  0
 57130  1  0  0  0
 58131  1  0  0  0
 59 60  1  0  0  0
 59 61  1  0  0  0
 59 62  1  0  0  0
 60132  1  0  0  0
 60133  1  0  0  0
 60134  1  0  0  0
 61135  1  0  0  0
 61136  1  0  0  0
 61137  1  0  0  0
 62138  1  0  0  0
 62139  1  0  0  0
 62140  1  0  0  0
 63 65  1  0  0  0
 63141  1  0  0  0
 63142  1  0  0  0
 63143  1  0  0  0
 64144  1  0  0  0
 65145  1  0  0  0
 68 83  1  0  0  0
 71 74  2  0  0  0
 71 75  1  0  0  0
 71146  1  0  0  0
 72 74  1  0  0  0
 72 76  2  0  0  0
 72147  1  0  0  0
 73 75  2  0  0  0
 73 76  1  0  0  0
 73148  1  0  0  0
 74 77  1  0  0  0
 75 85  1  0  0  0
 76 86  1  0  0  0
 77 84  2  0  0  0
 77 81  1  0  0  0
 78 79  1  0  0  0
 78 81  1  0  0  0
 78149  1  0  0  0
 78150  1  0  0  0
 79 82  1  0  0  0
 79151  1  0  0  0
 79152  1  0  0  0
 80 81  1  0  0  0
 80 82  1  0  0  0
 80153  1  0  0  0
 80154  1  0  0  0
 81155  1  0  0  0
 82 83  1  0  0  0
 82156  1  0  0  0
 83157  1  0  0  0
 83158  1  0  0  0
 84159  1  0  0  0
 85160  1  0  0  0
M  ISO  4   1 100  68 101  83 101  85 100
M  END
> <chiral flag>
0

> <version>
0

> <s_m_source_file>
/data/baiqing/PycharmProjects/Reinvent-master-3.2/result/LINK_invent/BTK/process_docking_weight1_custom_product_contain_oxygen_bond_distance_aromatic_linkinvent_7_9_3/rearranged_h_0142.sdf

> <i_m_source_file_index>
74

> <r_mmod_Potential_Energy-OPLS-2005>
46.689037322998

> <r_mmod_Stretch_Energy-OPLS-2005>
52.2054862976074

> <r_mmod_Bend_Energy-OPLS-2005>
142.191970825195

> <r_mmod_Torsional_Energy-OPLS-2005>
251.038589477539

> <r_mmod_Improper_Torsional_Energy-OPLS-2005>
4.17804384231567

> <r_mmod_Van_der_Waal_Energy-OPLS-2005>
161.047073364258

> <r_mmod_Electrostatic_Energy-OPLS-2005>
-372.546936035156

> <r_mmod_Solvation_Energy-OPLS-2005>
-212.241638183594

> <b_mmod_Minimization_Converged-OPLS-2005>
0

> <r_mmod_RMS_Derivative-OPLS-2005>
3.00170493125916

$$$$
74
                    3D
 Structure written by MMmdl.
168177  0  0  1  0            999 V2000
  -30.5623  -14.8160   20.4686 C   0  0  0  0  0  0
  -30.4297  -12.5225   19.4368 C   0  0  0  0  0  0
  -29.4917  -12.5091   18.2092 C   0  0  0  0  0  0
  -28.0237  -12.3238   18.6399 C   0  0  0  0  0  0
  -27.6266  -13.2327   19.8342 C   0  0  2  0  0  0
  -28.6828  -13.1977   20.9552 C   0  0  0  0  0  0
  -25.2501  -13.8236   20.5745 C   0  0  0  0  0  0
  -24.1783  -13.0472   20.9247 C   0  0  0  0  0  0
  -24.6383  -11.6947   20.8814 C   0  0  0  0  0  0
  -23.9062  -10.4315   21.0439 C   0  0  0  0  0  0
  -24.3583   -9.4248   21.9247 C   0  0  0  0  0  0
  -23.6255   -8.2278   22.0818 C   0  0  0  0  0  0
  -22.4256   -8.0298   21.3573 C   0  0  0  0  0  0
  -21.9888   -9.0301   20.4701 C   0  0  0  0  0  0
  -22.7219  -10.2175   20.3117 C   0  0  0  0  0  0
  -21.6830   -6.0734   22.5304 C   0  0  0  0  0  0
  -21.3995   -6.5643   23.8238 C   0  0  0  0  0  0
  -21.3640   -5.6796   24.9195 C   0  0  0  0  0  0
  -21.6059   -4.3075   24.7228 C   0  0  0  0  0  0
  -21.8816   -3.8167   23.4344 C   0  0  0  0  0  0
  -21.9188   -4.6975   22.3411 C   0  0  0  0  0  0
  -22.7801  -13.5324   21.1793 C   0  0  0  0  0  0
  -22.1661   -4.2147   21.0979 F   0  0  0  0  0  0
  -21.5613   -3.4570   25.7748 F   0  0  0  0  0  0
  -29.9527  -13.5867   20.3459 N   0  0  0  0  0  0
  -26.2866  -12.9432   20.3281 N   0  0  0  0  0  0
  -25.9302  -11.6584   20.5779 N   0  0  0  0  0  0
  -22.0297  -12.8459   22.0330 N   0  0  0  0  0  0
  -25.4177  -15.1933   20.4097 N   0  0  0  0  0  0
  -31.7775  -14.8993   20.2677 O   0  0  0  0  0  0
  -21.6628   -6.8865   21.4248 O   0  0  0  0  0  0
  -22.3583  -14.5587   20.6509 O   0  0  0  0  0  0
  -24.6398  -31.8528   23.2004 C   0  0  0  0  0  0
  -25.9175  -32.4758   23.8415 C   0  0  1  0  0  0
  -27.2117  -27.2206   20.1588 C   0  0  0  0  0  0
  -25.5931  -33.8545   24.2277 N   0  0  0  0  0  0
  -23.4428  -30.4758   21.5404 C   0  0  2  0  0  0
  -24.8888  -28.9069   20.1212 C   0  0  0  0  0  0
  -22.7557  -29.4717   22.4952 C   0  0  0  0  0  0
  -18.0393  -28.1375   22.8469 C   0  0  0  0  0  0
  -24.1462  -36.7301   23.2654 C   0  0  0  0  0  0
  -25.9920  -30.7515   21.3854 C   0  0  0  0  0  0
  -26.0633  -29.3665   20.7345 C   0  0  0  0  0  0
  -27.2351  -28.5397   20.7376 C   0  0  0  0  0  0
  -26.0263  -26.8404   19.5008 C   0  0  0  0  0  0
  -24.8779  -27.6563   19.4889 C   0  0  0  0  0  0
  -23.6626  -29.7973   20.1632 C   0  0  0  0  0  0
  -25.4094  -36.3075   24.0319 C   0  0  1  0  0  0
  -20.5968  -28.3843   23.1260 C   0  0  2  0  0  0
  -20.7001  -26.9508   22.5541 C   0  0  0  0  0  0
  -19.6038  -26.6370   21.5320 C   0  0  0  0  0  0
  -18.2215  -26.7912   22.1740 C   0  0  0  0  0  0
  -19.1598  -28.8931   23.2810 C   0  0  0  0  0  0
  -18.9439  -30.1566   23.8720 C   0  0  0  0  0  0
  -17.6374  -30.6574   24.0330 C   0  0  0  0  0  0
  -25.9054  -34.9428   23.5106 C   0  0  0  0  0  0
  -16.5338  -29.8949   23.6139 C   0  0  0  0  0  0
  -16.7328  -28.6338   23.0301 C   0  0  0  0  0  0
  -26.4540  -31.6578   25.0781 C   0  0  0  0  0  0
  -25.3802  -31.3665   26.1526 C   0  0  0  0  0  0
  -27.0372  -30.2982   24.6267 C   0  0  0  0  0  0
  -27.6079  -32.4354   25.7560 C   0  0  0  0  0  0
  -27.5571  -37.1819   24.8475 C   0  0  0  0  0  0
  -21.4256  -29.3203   22.3612 N   0  0  0  0  0  0
  -26.4295  -37.3757   23.9406 N   0  0  0  0  0  0
  -24.7117  -31.0467   22.0972 N   0  0  0  0  0  0
  -23.4219  -28.8282   23.3077 O   0  0  0  0  0  0
  -28.2783  -26.2866   20.2038 O   0  0  0  0  0  0
  -26.5619  -34.8941   22.4680 O   0  0  0  0  0  0
  -23.5516  -32.1389   23.7236 O   0  0  0  0  0  0
  -28.4546  -18.0216   23.8632 C   0  0  0  0  0  0
  -30.2360  -16.7575   22.7535 C   0  0  0  0  0  0
  -28.2435  -18.5879   22.6077 C   0  0  0  0  0  0
  -29.0622  -18.4374   21.4193 C   0  0  0  0  0  0
  -29.7914  -17.1375   21.4479 C   0  0  0  0  0  0
  -29.5824  -17.1841   23.9407 C   0  0  0  0  0  0
  -28.8352  -23.6501   19.9802 C   0  0  0  0  0  0
  -27.0408  -19.0904   21.8958 C   0  0  0  0  0  0
  -27.9600  -19.2882   20.6051 C   0  0  2  0  0  0
  -27.6909  -20.9597   17.6378 C   0  0  0  0  0  0
  -26.1175  -22.4548   18.8731 C   0  0  0  0  0  0
  -25.7061  -20.0444   18.9338 C   0  0  0  0  0  0
  -28.8879  -22.1022   20.4906 C   0  0  0  0  0  0
  -27.9782  -24.8514   20.6307 C   0  0  0  0  0  0
  -27.7958  -20.9183   20.1987 C   0  0  1  0  0  0
  -26.8609  -21.0925   18.9280 C   0  0  0  0  0  0
  -29.7620  -15.9707   20.5201 N   0  0  0  0  0  0
  -29.5853  -23.9427   19.0417 O   0  0  0  0  0  0
  -29.9276  -16.6464   25.1327 F   0  0  0  0  0  0
  -31.4646  -12.6792   19.1242 H   0  0  0  0  0  0
  -30.4143  -11.5526   19.9384 H   0  0  0  0  0  0
  -29.7698  -11.7030   17.5318 H   0  0  0  0  0  0
  -29.5992  -13.4375   17.6458 H   0  0  0  0  0  0
  -27.8848  -11.2764   18.9080 H   0  0  0  0  0  0
  -27.3535  -12.5022   17.7971 H   0  0  0  0  0  0
  -27.6099  -14.2436   19.4321 H   0  0  0  0  0  0
  -28.7582  -12.2027   21.4002 H   0  0  0  0  0  0
  -28.4210  -13.8816   21.7625 H   0  0  0  0  0  0
  -25.2691   -9.5734   22.4864 H   0  0  0  0  0  0
  -23.9934   -7.4685   22.7595 H   0  0  0  0  0  0
  -21.0798   -8.8867   19.9006 H   0  0  0  0  0  0
  -22.3698  -10.9729   19.6267 H   0  0  0  0  0  0
  -21.1978   -7.6165   23.9731 H   0  0  0  0  0  0
  -21.1449   -6.0534   25.9082 H   0  0  0  0  0  0
  -22.0582   -2.7619   23.2881 H   0  0  0  0  0  0
  -22.3707  -12.0146   22.4901 H   0  0  0  0  0  0
  -21.0940  -13.1669   22.2314 H   0  0  0  0  0  0
  -24.6470  -15.8398   20.5405 H   0  0  0  0  0  0
  -26.2633  -15.6446   20.0962 H   0  0  0  0  0  0
  -26.7245  -32.5397   23.1184 H   0  0  0  0  0  0
  -25.0093  -33.9662   25.0427 H   0  0  0  0  0  0
  -22.7523  -31.3058   21.3875 H   0  0  0  0  0  0
  -23.3719  -35.9649   23.3319 H   0  0  0  0  0  0
  -24.3593  -36.8913   22.2090 H   0  0  0  0  0  0
  -23.7224  -37.6496   23.6674 H   0  0  0  0  0  0
  -26.1401  -31.5115   20.6181 H   0  0  0  0  0  0
  -26.8645  -30.8055   22.0239 H   0  0  0  0  0  0
  -28.1423  -28.8854   21.2137 H   0  0  0  0  0  0
  -25.9792  -25.8830   18.9987 H   0  0  0  0  0  0
  -23.9883  -27.3074   18.9886 H   0  0  0  0  0  0
  -23.7893  -30.5604   19.3987 H   0  0  0  0  0  0
  -22.7877  -29.2249   19.8547 H   0  0  0  0  0  0
  -25.1269  -36.1974   25.0808 H   0  0  0  0  0  0
  -21.0070  -28.3494   24.1397 H   0  0  0  0  0  0
  -20.5905  -26.2533   23.3836 H   0  0  0  0  0  0
  -21.6911  -26.7540   22.1463 H   0  0  0  0  0  0
  -19.7218  -25.6202   21.1486 H   0  0  0  0  0  0
  -19.7047  -27.3127   20.6799 H   0  0  0  0  0  0
  -17.4475  -26.6643   21.4187 H   0  0  0  0  0  0
  -18.0605  -26.0132   22.9233 H   0  0  0  0  0  0
  -19.7822  -30.7469   24.2077 H   0  0  0  0  0  0
  -17.4816  -31.6277   24.4800 H   0  0  0  0  0  0
  -15.5291  -30.2717   23.7544 H   0  0  0  0  0  0
  -15.8755  -28.0552   22.7139 H   0  0  0  0  0  0
  -24.6049  -30.6921   25.7892 H   0  0  0  0  0  0
  -24.8950  -32.2762   26.5037 H   0  0  0  0  0  0
  -25.8220  -30.8867   27.0278 H   0  0  0  0  0  0
  -26.2902  -29.6772   24.1322 H   0  0  0  0  0  0
  -27.4020  -29.7235   25.4802 H   0  0  0  0  0  0
  -27.8830  -30.4205   23.9514 H   0  0  0  0  0  0
  -27.2632  -33.3669   26.2089 H   0  0  0  0  0  0
  -28.3905  -32.6898   25.0389 H   0  0  0  0  0  0
  -28.0737  -31.8551   26.5541 H   0  0  0  0  0  0
  -28.2584  -38.0118   24.7494 H   0  0  0  0  0  0
  -28.1053  -36.2642   24.6304 H   0  0  0  0  0  0
  -27.2305  -37.1490   25.8885 H   0  0  0  0  0  0
  -20.9535  -29.8695   21.6598 H   0  0  0  0  0  0
  -26.0179  -38.2840   24.1396 H   0  0  0  0  0  0
  -27.7881  -18.1826   24.6956 H   0  0  0  0  0  0
  -30.9097  -15.9257   22.8855 H   0  0  0  0  0  0
  -26.6121  -19.9477   22.4138 H   0  0  0  0  0  0
  -26.3012  -18.2979   21.7624 H   0  0  0  0  0  0
  -27.7201  -18.6203   19.7801 H   0  0  0  0  0  0
  -27.0610  -21.0582   16.7538 H   0  0  0  0  0  0
  -28.1976  -19.9970   17.5736 H   0  0  0  0  0  0
  -28.4535  -21.7391   17.5760 H   0  0  0  0  0  0
  -25.2936  -22.4313   18.1594 H   0  0  0  0  0  0
  -26.7446  -23.2722   18.5235 H   0  0  0  0  0  0
  -25.6873  -22.7373   19.8347 H   0  0  0  0  0  0
  -24.9359  -20.2616   18.1917 H   0  0  0  0  0  0
  -25.2061  -19.9966   19.9065 H   0  0  0  0  0  0
  -26.0369  -19.0397   18.6828 H   0  0  0  0  0  0
  -29.0276  -22.1681   21.5689 H   0  0  0  0  0  0
  -29.8416  -21.7259   20.1147 H   0  0  0  0  0  0
  -28.1273  -24.7880   21.7101 H   0  0  0  0  0  0
  -26.9235  -24.6216   20.4970 H   0  0  0  0  0  0
  -27.0984  -21.2941   20.9452 H   0  0  0  0  0  0
  -28.8382  -15.8015   20.1530 H   0  0  0  0  0  0
  1 25  1  0  0  0
  1 30  2  0  0  0
  1 87  1  0  0  0
  2  3  1  0  0  0
  2 25  1  0  0  0
  2 90  1  0  0  0
  2 91  1  0  0  0
  3  4  1  0  0  0
  3 92  1  0  0  0
  3 93  1  0  0  0
  4  5  1  0  0  0
  4 94  1  0  0  0
  4 95  1  0  0  0
  5  6  1  0  0  0
  5 26  1  0  0  0
  5 96  1  0  0  0
  6 25  1  0  0  0
  6 97  1  0  0  0
  6 98  1  0  0  0
  7  8  2  0  0  0
  7 26  1  0  0  0
  7 29  1  0  0  0
  8  9  1  0  0  0
  8 22  1  0  0  0
  9 10  1  0  0  0
  9 27  2  0  0  0
 10 11  2  0  0  0
 10 15  1  0  0  0
 11 12  1  0  0  0
 11 99  1  0  0  0
 12 13  2  0  0  0
 12100  1  0  0  0
 13 14  1  0  0  0
 13 31  1  0  0  0
 14 15  2  0  0  0
 14101  1  0  0  0
 15102  1  0  0  0
 16 17  2  0  0  0
 16 21  1  0  0  0
 16 31  1  0  0  0
 17 18  1  0  0  0
 17103  1  0  0  0
 18 19  2  0  0  0
 18104  1  0  0  0
 19 20  1  0  0  0
 19 24  1  0  0  0
 20 21  2  0  0  0
 20105  1  0  0  0
 21 23  1  0  0  0
 22 28  1  0  0  0
 22 32  2  0  0  0
 26 27  1  0  0  0
 28106  1  0  0  0
 28107  1  0  0  0
 29108  1  0  0  0
 29109  1  0  0  0
 33 34  1  0  0  0
 33 66  1  0  0  0
 33 70  2  0  0  0
 34 36  1  0  0  0
 34 59  1  0  0  0
 34110  1  0  0  0
 35 44  2  0  0  0
 35 45  1  0  0  0
 35 68  1  0  0  0
 36 56  1  0  0  0
 36111  1  0  0  0
 37 39  1  0  0  0
 37 47  1  0  0  0
 37 66  1  0  0  0
 37112  1  0  0  0
 38 43  2  0  0  0
 38 46  1  0  0  0
 38 47  1  0  0  0
 39 64  1  0  0  0
 39 67  2  0  0  0
 40 52  1  0  0  0
 40 53  2  0  0  0
 40 58  1  0  0  0
 41113  1  0  0  0
 41114  1  0  0  0
 41115  1  0  0  0
 41 48  1  0  0  0
 42 43  1  0  0  0
 42 66  1  0  0  0
 42116  1  0  0  0
 42117  1  0  0  0
 43 44  1  0  0  0
 44118  1  0  0  0
 45 46  2  0  0  0
 45119  1  0  0  0
 46120  1  0  0  0
 47121  1  0  0  0
 47122  1  0  0  0
 48 56  1  0  0  0
 48 65  1  0  0  0
 48123  1  0  0  0
 49 50  1  0  0  0
 49 53  1  0  0  0
 49 64  1  0  0  0
 49124  1  0  0  0
 50 51  1  0  0  0
 50125  1  0  0  0
 50126  1  0  0  0
 51 52  1  0  0  0
 51127  1  0  0  0
 51128  1  0  0  0
 52129  1  0  0  0
 52130  1  0  0  0
 53 54  1  0  0  0
 54 55  2  0  0  0
 54131  1  0  0  0
 55 57  1  0  0  0
 55132  1  0  0  0
 56 69  2  0  0  0
 57 58  2  0  0  0
 57133  1  0  0  0
 58134  1  0  0  0
 59 60  1  0  0  0
 59 61  1  0  0  0
 59 62  1  0  0  0
 60135  1  0  0  0
 60136  1  0  0  0
 60137  1  0  0  0
 61138  1  0  0  0
 61139  1  0  0  0
 61140  1  0  0  0
 62141  1  0  0  0
 62142  1  0  0  0
 62143  1  0  0  0
 63 65  1  0  0  0
 63144  1  0  0  0
 63145  1  0  0  0
 63146  1  0  0  0
 64147  1  0  0  0
 65148  1  0  0  0
 68 84  1  0  0  0
 71 73  2  0  0  0
 71 76  1  0  0  0
 71149  1  0  0  0
 72 75  1  0  0  0
 72 76  2  0  0  0
 72150  1  0  0  0
 73 74  1  0  0  0
 73 78  1  0  0  0
 74 75  2  0  0  0
 74 79  1  0  0  0
 75 87  1  0  0  0
 76 89  1  0  0  0
 77 83  1  0  0  0
 77 84  1  0  0  0
 77 88  2  0  0  0
 78151  1  0  0  0
 78152  1  0  0  0
 78 79  1  0  0  0
 79 85  1  0  0  0
 79153  1  0  0  0
 80154  1  0  0  0
 80155  1  0  0  0
 80156  1  0  0  0
 80 86  1  0  0  0
 81 86  1  0  0  0
 81157  1  0  0  0
 81158  1  0  0  0
 81159  1  0  0  0
 82 86  1  0  0  0
 82160  1  0  0  0
 82161  1  0  0  0
 82162  1  0  0  0
 83163  1  0  0  0
 83164  1  0  0  0
 83 85  1  0  0  0
 84165  1  0  0  0
 84166  1  0  0  0
 85 86  1  0  0  0
 85167  1  0  0  0
 87168  1  0  0  0
M  ISO  4   1 100  68 101  84 101  87 100
M  END
> <chiral flag>
0

> <version>
0

> <s_m_source_file>
/data/baiqing/PycharmProjects/Reinvent-master-3.2/result/LINK_invent/BTK/process_docking_weight1_custom_product_contain_oxygen_bond_distance_aromatic_linkinvent_7_9_3/rearranged_h_0142.sdf

> <i_m_source_file_index>
75

> <r_mmod_Potential_Energy-OPLS-2005>
1002.87658691406

> <r_mmod_Stretch_Energy-OPLS-2005>
202.72248840332

> <r_mmod_Bend_Energy-OPLS-2005>
663.828735351562

> <r_mmod_Torsional_Energy-OPLS-2005>
400.041961669922

> <r_mmod_Improper_Torsional_Energy-OPLS-2005>
42.4448165893555

> <r_mmod_Van_der_Waal_Energy-OPLS-2005>
149.548446655273

> <r_mmod_Electrostatic_Energy-OPLS-2005>
-360.377349853516

> <r_mmod_Solvation_Energy-OPLS-2005>
-220.299102783203

> <b_mmod_Minimization_Converged-OPLS-2005>
0

> <r_mmod_RMS_Derivative-OPLS-2005>
8.19919109344482

$$$$
75
                    3D
 Structure written by MMmdl.
157166  0  0  1  0            999 V2000
  -30.7140  -14.5380   20.6238 C   0  0  0  0  0  0
  -30.4422  -12.3728   19.4316 C   0  0  0  0  0  0
  -29.5010  -12.5374   18.2164 C   0  0  0  0  0  0
  -28.0247  -12.3830   18.6181 C   0  0  0  0  0  0
  -27.6734  -13.2012   19.8895 C   0  0  2  0  0  0
  -28.7258  -12.8999   20.9826 C   0  0  0  0  0  0
  -25.2589  -13.8167   20.5732 C   0  0  0  0  0  0
  -24.1872  -13.0453   20.9184 C   0  0  0  0  0  0
  -24.6409  -11.6876   20.8721 C   0  0  0  0  0  0
  -23.9041  -10.4285   21.0408 C   0  0  0  0  0  0
  -24.3591   -9.4192   21.9193 C   0  0  0  0  0  0
  -23.6265   -8.2247   22.0778 C   0  0  0  0  0  0
  -22.4253   -8.0305   21.3567 C   0  0  0  0  0  0
  -21.9884   -9.0275   20.4674 C   0  0  0  0  0  0
  -22.7204  -10.2127   20.3060 C   0  0  0  0  0  0
  -21.6846   -6.0732   22.5274 C   0  0  0  0  0  0
  -21.4026   -6.5629   23.8212 C   0  0  0  0  0  0
  -21.3667   -5.6783   24.9174 C   0  0  0  0  0  0
  -21.6023   -4.3047   24.7218 C   0  0  0  0  0  0
  -21.8823   -3.8150   23.4352 C   0  0  0  0  0  0
  -21.9208   -4.6963   22.3394 C   0  0  0  0  0  0
  -22.7875  -13.5235   21.1856 C   0  0  0  0  0  0
  -22.1657   -4.2141   21.0964 F   0  0  0  0  0  0
  -21.5619   -3.4538   25.7733 F   0  0  0  0  0  0
  -30.0376  -13.3464   20.4726 N   0  0  0  0  0  0
  -26.3076  -12.9331   20.3468 N   0  0  0  0  0  0
  -25.9332  -11.6468   20.5747 N   0  0  0  0  0  0
  -22.0510  -12.8248   22.0392 N   0  0  0  0  0  0
  -25.4309  -15.1910   20.4147 N   0  0  0  0  0  0
  -31.8072  -14.6833   20.0627 O   0  0  0  0  0  0
  -21.6641   -6.8890   21.4238 O   0  0  0  0  0  0
  -22.3519  -14.5548   20.6708 O   0  0  0  0  0  0
  -24.6166  -31.8688   23.2104 C   0  0  0  0  0  0
  -25.9054  -32.4841   23.8429 C   0  0  1  0  0  0
  -27.2277  -27.4234   20.0920 C   0  0  0  0  0  0
  -25.5892  -33.8640   24.2340 N   0  0  0  0  0  0
  -23.4066  -30.4899   21.5497 C   0  0  2  0  0  0
  -24.8516  -28.9632   20.1147 C   0  0  0  0  0  0
  -22.7440  -29.4642   22.4995 C   0  0  0  0  0  0
  -18.0280  -28.1383   22.8481 C   0  0  0  0  0  0
  -24.1493  -36.7311   23.2623 C   0  0  0  0  0  0
  -25.9379  -30.8308   21.3683 C   0  0  0  0  0  0
  -26.0130  -29.4671   20.7125 C   0  0  0  0  0  0
  -27.2074  -28.7060   20.6904 C   0  0  0  0  0  0
  -26.0411  -26.9478   19.4806 C   0  0  0  0  0  0
  -24.8579  -27.7052   19.4984 C   0  0  0  0  0  0
  -23.6158  -29.8278   20.1637 C   0  0  0  0  0  0
  -25.4103  -36.3112   24.0329 C   0  0  1  0  0  0
  -20.5864  -28.3657   23.1321 C   0  0  2  0  0  0
  -20.6771  -26.9403   22.5400 C   0  0  0  0  0  0
  -19.5748  -26.6393   21.5200 C   0  0  0  0  0  0
  -18.1921  -26.7929   22.1616 C   0  0  0  0  0  0
  -19.1526  -28.8850   23.2889 C   0  0  0  0  0  0
  -18.9453  -30.1454   23.8907 C   0  0  0  0  0  0
  -17.6463  -30.6591   24.0558 C   0  0  0  0  0  0
  -25.9038  -34.9485   23.5128 C   0  0  0  0  0  0
  -16.5359  -29.9087   23.6326 C   0  0  0  0  0  0
  -16.7274  -28.6503   23.0347 C   0  0  0  0  0  0
  -26.4483  -31.6603   25.0749 C   0  0  0  0  0  0
  -25.3746  -31.3734   26.1499 C   0  0  0  0  0  0
  -27.0290  -30.3023   24.6134 C   0  0  0  0  0  0
  -27.6077  -32.4309   25.7490 C   0  0  0  0  0  0
  -27.5594  -37.1789   24.8449 C   0  0  0  0  0  0
  -21.4157  -29.3041   22.3747 N   0  0  0  0  0  0
  -26.4278  -37.3798   23.9437 N   0  0  0  0  0  0
  -24.6718  -31.0775   22.1011 N   0  0  0  0  0  0
  -23.4212  -28.8147   23.3007 O   0  0  0  0  0  0
  -28.3796  -26.6519   20.1207 O   0  0  0  0  0  0
  -26.5601  -34.8922   22.4690 O   0  0  0  0  0  0
  -23.5327  -32.1470   23.7449 O   0  0  0  0  0  0
  -28.6246  -19.3068   23.0861 C   0  0  0  0  0  0
  -28.8334  -20.5763   22.5179 C   0  0  0  0  0  0
  -30.1843  -19.5540   20.7881 C   0  0  0  0  0  0
  -29.2022  -18.1593   22.5141 C   0  0  0  0  0  0
  -29.9784  -18.2548   21.3501 C   0  0  0  0  0  0
  -29.6257  -20.7350   21.3571 C   0  0  0  0  0  0
  -29.3990  -24.3979   20.4816 C   0  0  0  0  0  0
  -28.9760  -16.8495   23.2166 C   0  0  0  0  0  0
  -30.6202  -16.9905   20.7526 C   0  0  0  0  0  0
  -29.3182  -15.5713   22.4353 C   0  0  0  0  0  0
  -29.2437  -23.1323   21.3471 C   0  0  0  0  0  0
  -28.1295  -25.2437   20.2995 C   0  0  0  0  0  0
  -30.1181  -15.6461   21.1855 N   0  0  0  0  0  0
  -30.4683  -24.6949   19.9408 O   0  0  0  0  0  0
  -29.8745  -21.9737   20.7637 O   0  0  0  0  0  0
  -31.4782  -12.4953   19.1137 H   0  0  0  0  0  0
  -30.4052  -11.3548   19.8103 H   0  0  0  0  0  0
  -29.7545  -11.8027   17.4484 H   0  0  0  0  0  0
  -29.6573  -13.5124   17.7571 H   0  0  0  0  0  0
  -27.8519  -11.3213   18.8017 H   0  0  0  0  0  0
  -27.3718  -12.6538   17.7917 H   0  0  0  0  0  0
  -27.7340  -14.2597   19.6343 H   0  0  0  0  0  0
  -28.7478  -11.8188   21.1208 H   0  0  0  0  0  0
  -28.4636  -13.2319   21.9772 H   0  0  0  0  0  0
  -25.2745   -9.5645   22.4749 H   0  0  0  0  0  0
  -23.9994   -7.4614   22.7462 H   0  0  0  0  0  0
  -21.0860   -8.8758   19.8962 H   0  0  0  0  0  0
  -22.3697  -10.9650   19.6162 H   0  0  0  0  0  0
  -21.2007   -7.6133   23.9701 H   0  0  0  0  0  0
  -21.1487   -6.0525   25.9059 H   0  0  0  0  0  0
  -22.0604   -2.7618   23.2870 H   0  0  0  0  0  0
  -22.4133  -11.9894   22.4766 H   0  0  0  0  0  0
  -21.1114  -13.1287   22.2593 H   0  0  0  0  0  0
  -24.6716  -15.8545   20.5289 H   0  0  0  0  0  0
  -26.2964  -15.6255   20.1232 H   0  0  0  0  0  0
  -26.7122  -32.5577   23.1184 H   0  0  0  0  0  0
  -25.0048  -33.9819   25.0485 H   0  0  0  0  0  0
  -22.6989  -31.3101   21.4109 H   0  0  0  0  0  0
  -23.3775  -35.9615   23.3230 H   0  0  0  0  0  0
  -24.3595  -36.8995   22.2051 H   0  0  0  0  0  0
  -23.7235  -37.6472   23.6706 H   0  0  0  0  0  0
  -26.0568  -31.6007   20.6057 H   0  0  0  0  0  0
  -26.8205  -30.8792   21.9927 H   0  0  0  0  0  0
  -28.1042  -29.0839   21.1585 H   0  0  0  0  0  0
  -25.9983  -25.9911   18.9838 H   0  0  0  0  0  0
  -23.9625  -27.3234   19.0286 H   0  0  0  0  0  0
  -23.7297  -30.6017   19.4040 H   0  0  0  0  0  0
  -22.7402  -29.2477   19.8663 H   0  0  0  0  0  0
  -25.1259  -36.1937   25.0809 H   0  0  0  0  0  0
  -20.9901  -28.3212   24.1471 H   0  0  0  0  0  0
  -20.5693  -26.2278   23.3570 H   0  0  0  0  0  0
  -21.6656  -26.7490   22.1242 H   0  0  0  0  0  0
  -19.6925  -25.6314   21.1236 H   0  0  0  0  0  0
  -19.6624  -27.3196   20.6717 H   0  0  0  0  0  0
  -17.4169  -26.6651   21.4028 H   0  0  0  0  0  0
  -18.0321  -26.0082   22.9030 H   0  0  0  0  0  0
  -19.7924  -30.7260   24.2296 H   0  0  0  0  0  0
  -17.5014  -31.6262   24.5155 H   0  0  0  0  0  0
  -15.5352  -30.2987   23.7652 H   0  0  0  0  0  0
  -15.8671  -28.0816   22.7071 H   0  0  0  0  0  0
  -24.5793  -30.7245   25.7810 H   0  0  0  0  0  0
  -24.9097  -32.2920   26.5089 H   0  0  0  0  0  0
  -25.8074  -30.8739   27.0177 H   0  0  0  0  0  0
  -26.2835  -29.6779   24.1195 H   0  0  0  0  0  0
  -27.4035  -29.7255   25.4602 H   0  0  0  0  0  0
  -27.8692  -30.4288   23.9298 H   0  0  0  0  0  0
  -27.2726  -33.3594   26.2110 H   0  0  0  0  0  0
  -28.3851  -32.6890   25.0296 H   0  0  0  0  0  0
  -28.0782  -31.8418   26.5355 H   0  0  0  0  0  0
  -28.2548  -38.0151   24.7611 H   0  0  0  0  0  0
  -28.1156  -36.2700   24.6118 H   0  0  0  0  0  0
  -27.2355  -37.1260   25.8854 H   0  0  0  0  0  0
  -20.9334  -29.8746   21.6939 H   0  0  0  0  0  0
  -26.0146  -38.2850   24.1484 H   0  0  0  0  0  0
  -28.0135  -19.2148   23.9791 H   0  0  0  0  0  0
  -28.3607  -21.4086   23.0119 H   0  0  0  0  0  0
  -30.7951  -19.6650   19.9048 H   0  0  0  0  0  0
  -27.9129  -16.8268   23.4544 H   0  0  0  0  0  0
  -29.4971  -16.8806   24.1780 H   0  0  0  0  0  0
  -31.6888  -17.0769   20.9547 H   0  0  0  0  0  0
  -30.5224  -17.0390   19.6678 H   0  0  0  0  0  0
  -28.3328  -15.1950   22.1602 H   0  0  0  0  0  0
  -29.7932  -14.8927   23.1493 H   0  0  0  0  0  0
  -28.1749  -22.9590   21.4834 H   0  0  0  0  0  0
  -29.6700  -23.3259   22.3326 H   0  0  0  0  0  0
  -27.4850  -25.1028   21.1655 H   0  0  0  0  0  0
  -27.6113  -24.8340   19.4356 H   0  0  0  0  0  0
  1 25  1  0  0  0
  1 30  2  0  0  0
  1 83  1  0  0  0
  2  3  1  0  0  0
  2 25  1  0  0  0
  2 86  1  0  0  0
  2 87  1  0  0  0
  3  4  1  0  0  0
  3 88  1  0  0  0
  3 89  1  0  0  0
  4  5  1  0  0  0
  4 90  1  0  0  0
  4 91  1  0  0  0
  5  6  1  0  0  0
  5 26  1  0  0  0
  5 92  1  0  0  0
  6 25  1  0  0  0
  6 93  1  0  0  0
  6 94  1  0  0  0
  7  8  2  0  0  0
  7 26  1  0  0  0
  7 29  1  0  0  0
  8  9  1  0  0  0
  8 22  1  0  0  0
  9 10  1  0  0  0
  9 27  2  0  0  0
 10 11  2  0  0  0
 10 15  1  0  0  0
 11 12  1  0  0  0
 11 95  1  0  0  0
 12 13  2  0  0  0
 12 96  1  0  0  0
 13 14  1  0  0  0
 13 31  1  0  0  0
 14 15  2  0  0  0
 14 97  1  0  0  0
 15 98  1  0  0  0
 16 17  2  0  0  0
 16 21  1  0  0  0
 16 31  1  0  0  0
 17 18  1  0  0  0
 17 99  1  0  0  0
 18 19  2  0  0  0
 18100  1  0  0  0
 19 20  1  0  0  0
 19 24  1  0  0  0
 20 21  2  0  0  0
 20101  1  0  0  0
 21 23  1  0  0  0
 22 28  1  0  0  0
 22 32  2  0  0  0
 26 27  1  0  0  0
 28102  1  0  0  0
 28103  1  0  0  0
 29104  1  0  0  0
 29105  1  0  0  0
 33 34  1  0  0  0
 33 66  1  0  0  0
 33 70  2  0  0  0
 34 36  1  0  0  0
 34 59  1  0  0  0
 34106  1  0  0  0
 35 44  2  0  0  0
 35 45  1  0  0  0
 35 68  1  0  0  0
 36 56  1  0  0  0
 36107  1  0  0  0
 37 39  1  0  0  0
 37 47  1  0  0  0
 37 66  1  0  0  0
 37108  1  0  0  0
 38 43  2  0  0  0
 38 46  1  0  0  0
 38 47  1  0  0  0
 39 64  1  0  0  0
 39 67  2  0  0  0
 40 52  1  0  0  0
 40 53  2  0  0  0
 40 58  1  0  0  0
 41109  1  0  0  0
 41110  1  0  0  0
 41111  1  0  0  0
 41 48  1  0  0  0
 42 43  1  0  0  0
 42 66  1  0  0  0
 42112  1  0  0  0
 42113  1  0  0  0
 43 44  1  0  0  0
 44114  1  0  0  0
 45 46  2  0  0  0
 45115  1  0  0  0
 46116  1  0  0  0
 47117  1  0  0  0
 47118  1  0  0  0
 48 56  1  0  0  0
 48 65  1  0  0  0
 48119  1  0  0  0
 49 50  1  0  0  0
 49 53  1  0  0  0
 49 64  1  0  0  0
 49120  1  0  0  0
 50 51  1  0  0  0
 50121  1  0  0  0
 50122  1  0  0  0
 51 52  1  0  0  0
 51123  1  0  0  0
 51124  1  0  0  0
 52125  1  0  0  0
 52126  1  0  0  0
 53 54  1  0  0  0
 54 55  2  0  0  0
 54127  1  0  0  0
 55 57  1  0  0  0
 55128  1  0  0  0
 56 69  2  0  0  0
 57 58  2  0  0  0
 57129  1  0  0  0
 58130  1  0  0  0
 59 60  1  0  0  0
 59 61  1  0  0  0
 59 62  1  0  0  0
 60131  1  0  0  0
 60132  1  0  0  0
 60133  1  0  0  0
 61134  1  0  0  0
 61135  1  0  0  0
 61136  1  0  0  0
 62137  1  0  0  0
 62138  1  0  0  0
 62139  1  0  0  0
 63 65  1  0  0  0
 63140  1  0  0  0
 63141  1  0  0  0
 63142  1  0  0  0
 64143  1  0  0  0
 65144  1  0  0  0
 68 82  1  0  0  0
 71 72  2  0  0  0
 71 74  1  0  0  0
 71145  1  0  0  0
 72 76  1  0  0  0
 72146  1  0  0  0
 73 75  1  0  0  0
 73 76  2  0  0  0
 73147  1  0  0  0
 74 75  2  0  0  0
 74 78  1  0  0  0
 75 79  1  0  0  0
 76 85  1  0  0  0
 77 81  1  0  0  0
 77 82  1  0  0  0
 77 84  2  0  0  0
 78 80  1  0  0  0
 78148  1  0  0  0
 78149  1  0  0  0
 79 83  1  0  0  0
 79150  1  0  0  0
 79151  1  0  0  0
 80 83  1  0  0  0
 80152  1  0  0  0
 80153  1  0  0  0
 81 85  1  0  0  0
 81154  1  0  0  0
 81155  1  0  0  0
 82156  1  0  0  0
 82157  1  0  0  0
M  ISO  4   1 100  68 101  82 101  83 100
M  END
> <chiral flag>
0

> <version>
0

> <s_m_source_file>
/data/baiqing/PycharmProjects/Reinvent-master-3.2/result/LINK_invent/BTK/process_docking_weight1_custom_product_contain_oxygen_bond_distance_aromatic_linkinvent_7_9_3/rearranged_h_0142.sdf

> <i_m_source_file_index>
76

> <r_mmod_Potential_Energy-OPLS-2005>
164.20085144043

> <r_mmod_Stretch_Energy-OPLS-2005>
54.9691543579102

> <r_mmod_Bend_Energy-OPLS-2005>
146.235198974609

> <r_mmod_Torsional_Energy-OPLS-2005>
279.41064453125

> <r_mmod_Improper_Torsional_Energy-OPLS-2005>
5.91630029678345

> <r_mmod_Van_der_Waal_Energy-OPLS-2005>
176.848541259766

> <r_mmod_Electrostatic_Energy-OPLS-2005>
-281.44873046875

> <r_mmod_Solvation_Energy-OPLS-2005>
-236.005859375

> <b_mmod_Minimization_Converged-OPLS-2005>
0

> <r_mmod_RMS_Derivative-OPLS-2005>
11.2800369262695

$$$$
76
                    3D
 Structure written by MMmdl.
165174  0  0  1  0            999 V2000
  -30.6028  -14.7998   20.4725 C   0  0  0  0  0  0
  -30.4388  -12.5000   19.4776 C   0  0  0  0  0  0
  -29.5145  -12.5093   18.2403 C   0  0  0  0  0  0
  -28.0433  -12.3197   18.6577 C   0  0  0  0  0  0
  -27.6367  -13.2352   19.8426 C   0  0  2  0  0  0
  -28.6822  -13.2063   20.9780 C   0  0  0  0  0  0
  -25.2486  -13.8200   20.5689 C   0  0  0  0  0  0
  -24.1791  -13.0437   20.9218 C   0  0  0  0  0  0
  -24.6391  -11.6916   20.8759 C   0  0  0  0  0  0
  -23.9072  -10.4290   21.0414 C   0  0  0  0  0  0
  -24.3620   -9.4205   21.9194 C   0  0  0  0  0  0
  -23.6294   -8.2240   22.0760 C   0  0  0  0  0  0
  -22.4280   -8.0279   21.3544 C   0  0  0  0  0  0
  -21.9921   -9.0250   20.4640 C   0  0  0  0  0  0
  -22.7249  -10.2129   20.3052 C   0  0  0  0  0  0
  -21.6850   -6.0736   22.5278 C   0  0  0  0  0  0
  -21.4013   -6.5639   23.8214 C   0  0  0  0  0  0
  -21.3660   -5.6793   24.9178 C   0  0  0  0  0  0
  -21.6044   -4.3054   24.7229 C   0  0  0  0  0  0
  -21.8817   -3.8146   23.4349 C   0  0  0  0  0  0
  -21.9191   -4.6963   22.3405 C   0  0  0  0  0  0
  -22.7808  -13.5213   21.1875 C   0  0  0  0  0  0
  -22.1659   -4.2144   21.0982 F   0  0  0  0  0  0
  -21.5629   -3.4541   25.7744 F   0  0  0  0  0  0
  -29.9733  -13.5751   20.3846 N   0  0  0  0  0  0
  -26.2913  -12.9412   20.3251 N   0  0  0  0  0  0
  -25.9321  -11.6551   20.5748 N   0  0  0  0  0  0
  -22.0448  -12.8195   22.0419 N   0  0  0  0  0  0
  -25.4161  -15.1929   20.4086 N   0  0  0  0  0  0
  -31.8071  -14.8718   20.2068 O   0  0  0  0  0  0
  -21.6640   -6.8878   21.4241 O   0  0  0  0  0  0
  -22.3491  -14.5522   20.6725 O   0  0  0  0  0  0
  -24.6326  -31.8535   23.1954 C   0  0  0  0  0  0
  -25.9146  -32.4749   23.8307 C   0  0  1  0  0  0
  -27.2230  -27.2409   20.1461 C   0  0  0  0  0  0
  -25.5939  -33.8548   24.2239 N   0  0  0  0  0  0
  -23.4309  -30.4720   21.5404 C   0  0  2  0  0  0
  -24.8812  -28.9090   20.1159 C   0  0  0  0  0  0
  -22.7507  -29.4586   22.4931 C   0  0  0  0  0  0
  -18.0281  -28.1391   22.8487 C   0  0  0  0  0  0
  -24.1488  -36.7286   23.2641 C   0  0  0  0  0  0
  -25.9757  -30.7618   21.3751 C   0  0  0  0  0  0
  -26.0526  -29.3771   20.7275 C   0  0  0  0  0  0
  -27.2299  -28.5568   20.7283 C   0  0  0  0  0  0
  -26.0333  -26.8410   19.5072 C   0  0  0  0  0  0
  -24.8775  -27.6499   19.4932 C   0  0  0  0  0  0
  -23.6511  -29.7985   20.1593 C   0  0  0  0  0  0
  -25.4114  -36.3069   24.0320 C   0  0  1  0  0  0
  -20.5888  -28.3708   23.1275 C   0  0  2  0  0  0
  -20.6779  -26.9432   22.5401 C   0  0  0  0  0  0
  -19.5748  -26.6394   21.5207 C   0  0  0  0  0  0
  -18.1922  -26.7938   22.1614 C   0  0  0  0  0  0
  -19.1538  -28.8863   23.2871 C   0  0  0  0  0  0
  -18.9463  -30.1459   23.8891 C   0  0  0  0  0  0
  -17.6468  -30.6602   24.0558 C   0  0  0  0  0  0
  -25.9057  -34.9440   23.5083 C   0  0  0  0  0  0
  -16.5355  -29.9096   23.6337 C   0  0  0  0  0  0
  -16.7270  -28.6509   23.0359 C   0  0  0  0  0  0
  -26.4511  -31.6579   25.0697 C   0  0  0  0  0  0
  -25.3723  -31.3715   26.1406 C   0  0  0  0  0  0
  -27.0378  -30.3010   24.6167 C   0  0  0  0  0  0
  -27.6051  -32.4334   25.7490 C   0  0  0  0  0  0
  -27.5581  -37.1793   24.8456 C   0  0  0  0  0  0
  -21.4209  -29.3059   22.3683 N   0  0  0  0  0  0
  -26.4287  -37.3773   23.9408 N   0  0  0  0  0  0
  -24.6990  -31.0476   22.0944 N   0  0  0  0  0  0
  -23.4193  -28.8126   23.3043 O   0  0  0  0  0  0
  -28.3093  -26.3285   20.1019 O   0  0  0  0  0  0
  -26.5636  -34.8923   22.4657 O   0  0  0  0  0  0
  -23.5472  -32.1363   23.7247 O   0  0  0  0  0  0
  -31.5976  -18.8748   22.2393 C   0  0  0  0  0  0
  -31.2755  -17.5903   21.7683 C   0  0  0  0  0  0
  -29.4740  -18.5975   20.4877 C   0  0  0  0  0  0
  -30.8763  -20.0317   21.8668 C   0  0  0  0  0  0
  -29.8141  -19.9660   20.9130 C   0  0  0  0  0  0
  -30.1864  -17.3795   20.9010 C   0  0  0  0  0  0
  -27.2715  -22.8167   20.4118 C   0  0  0  0  0  0
  -27.6671  -21.2928   20.4588 C   0  0  0  0  0  0
  -29.6178  -22.6208   20.3538 C   0  0  0  0  0  0
  -28.4960  -23.5822   20.9341 C   0  0  1  0  0  0
  -31.2665  -21.3020   22.6096 C   0  0  0  0  0  0
  -27.6691  -25.5723   22.3642 C   0  0  0  0  0  0
  -30.0018  -25.5417   21.4950 C   0  0  0  0  0  0
  -28.5403  -25.2372   21.1238 C   0  0  0  0  0  0
  -29.1306  -21.1910   20.4660 N   0  0  0  0  0  0
  -29.8249  -15.9584   20.5824 N   0  0  0  0  0  0
  -31.4758  -12.6436   19.1698 H   0  0  0  0  0  0
  -30.4076  -11.5337   19.9841 H   0  0  0  0  0  0
  -29.8106  -11.7249   17.5423 H   0  0  0  0  0  0
  -29.6253  -13.4539   17.7053 H   0  0  0  0  0  0
  -27.9174  -11.2750   18.9430 H   0  0  0  0  0  0
  -27.3832  -12.4851   17.8051 H   0  0  0  0  0  0
  -27.6173  -14.2476   19.4390 H   0  0  0  0  0  0
  -28.7354  -12.2191   21.4391 H   0  0  0  0  0  0
  -28.4080  -13.9031   21.7718 H   0  0  0  0  0  0
  -25.2756   -9.5683   22.4777 H   0  0  0  0  0  0
  -23.9995   -7.4635   22.7485 H   0  0  0  0  0  0
  -21.0854   -8.8766   19.8942 H   0  0  0  0  0  0
  -22.3710  -10.9668   19.6157 H   0  0  0  0  0  0
  -21.2006   -7.6147   23.9713 H   0  0  0  0  0  0
  -21.1485   -6.0527   25.9079 H   0  0  0  0  0  0
  -22.0597   -2.7606   23.2854 H   0  0  0  0  0  0
  -22.4060  -11.9849   22.4799 H   0  0  0  0  0  0
  -21.1057  -13.1207   22.2612 H   0  0  0  0  0  0
  -24.6441  -15.8429   20.5103 H   0  0  0  0  0  0
  -26.2557  -15.6319   20.0558 H   0  0  0  0  0  0
  -26.7197  -32.5421   23.1037 H   0  0  0  0  0  0
  -25.0075  -33.9664   25.0381 H   0  0  0  0  0  0
  -22.7299  -31.2955   21.3899 H   0  0  0  0  0  0
  -23.3757  -35.9613   23.3283 H   0  0  0  0  0  0
  -24.3575  -36.8942   22.2059 H   0  0  0  0  0  0
  -23.7228  -37.6470   23.6695 H   0  0  0  0  0  0
  -26.1037  -31.5187   20.5992 H   0  0  0  0  0  0
  -26.8557  -30.8233   22.0033 H   0  0  0  0  0  0
  -28.1336  -28.9136   21.2022 H   0  0  0  0  0  0
  -25.9963  -25.8722   19.0292 H   0  0  0  0  0  0
  -23.9828  -27.2887   19.0044 H   0  0  0  0  0  0
  -23.7748  -30.5717   19.3996 H   0  0  0  0  0  0
  -22.7701  -29.2284   19.8587 H   0  0  0  0  0  0
  -25.1294  -36.1914   25.0811 H   0  0  0  0  0  0
  -20.9950  -28.3289   24.1406 H   0  0  0  0  0  0
  -20.5693  -26.2315   23.3602 H   0  0  0  0  0  0
  -21.6643  -26.7476   22.1175 H   0  0  0  0  0  0
  -19.6912  -25.6297   21.1250 H   0  0  0  0  0  0
  -19.6685  -27.3198   20.6733 H   0  0  0  0  0  0
  -17.4193  -26.6695   21.4014 H   0  0  0  0  0  0
  -18.0301  -26.0076   22.9007 H   0  0  0  0  0  0
  -19.7945  -30.7263   24.2268 H   0  0  0  0  0  0
  -17.5033  -31.6286   24.5157 H   0  0  0  0  0  0
  -15.5355  -30.2998   23.7681 H   0  0  0  0  0  0
  -15.8661  -28.0833   22.7084 H   0  0  0  0  0  0
  -24.5927  -30.7039   25.7725 H   0  0  0  0  0  0
  -24.8874  -32.2870   26.4808 H   0  0  0  0  0  0
  -25.8030  -30.8917   27.0203 H   0  0  0  0  0  0
  -26.2965  -29.6739   24.1201 H   0  0  0  0  0  0
  -27.4090  -29.7290   25.4681 H   0  0  0  0  0  0
  -27.8827  -30.4298   23.9391 H   0  0  0  0  0  0
  -27.2648  -33.3657   26.2012 H   0  0  0  0  0  0
  -28.3897  -32.6855   25.0343 H   0  0  0  0  0  0
  -28.0671  -31.8486   26.5451 H   0  0  0  0  0  0
  -28.2556  -38.0133   24.7552 H   0  0  0  0  0  0
  -28.1112  -36.2661   24.6223 H   0  0  0  0  0  0
  -27.2299  -37.1365   25.8856 H   0  0  0  0  0  0
  -20.9402  -29.8808   21.6907 H   0  0  0  0  0  0
  -26.0165  -38.2843   24.1441 H   0  0  0  0  0  0
  -32.4124  -18.9642   22.9449 H   0  0  0  0  0  0
  -31.8549  -16.7547   22.1358 H   0  0  0  0  0  0
  -28.6434  -18.4797   19.8068 H   0  0  0  0  0  0
  -26.3725  -23.0174   20.9963 H   0  0  0  0  0  0
  -27.0701  -23.1204   19.3844 H   0  0  0  0  0  0
  -27.2468  -20.7525   19.6100 H   0  0  0  0  0  0
  -27.2794  -20.8275   21.3667 H   0  0  0  0  0  0
  -30.5855  -22.8152   20.8038 H   0  0  0  0  0  0
  -29.7546  -22.8444   19.2952 H   0  0  0  0  0  0
  -28.5320  -23.2700   21.9789 H   0  0  0  0  0  0
  -31.6829  -21.0648   23.5887 H   0  0  0  0  0  0
  -30.4075  -21.9433   22.8044 H   0  0  0  0  0  0
  -32.0294  -21.8542   22.0600 H   0  0  0  0  0  0
  -27.9154  -24.9506   23.2254 H   0  0  0  0  0  0
  -26.6090  -25.4235   22.1577 H   0  0  0  0  0  0
  -27.8044  -26.6029   22.6949 H   0  0  0  0  0  0
  -30.3451  -24.9232   22.3255 H   0  0  0  0  0  0
  -30.1445  -26.5825   21.7839 H   0  0  0  0  0  0
  -30.6617  -25.3450   20.6494 H   0  0  0  0  0  0
  -28.8349  -15.7849   20.5034 H   0  0  0  0  0  0
  1 25  1  0  0  0
  1 30  2  0  0  0
  1 86  1  0  0  0
  2  3  1  0  0  0
  2 25  1  0  0  0
  2 87  1  0  0  0
  2 88  1  0  0  0
  3  4  1  0  0  0
  3 89  1  0  0  0
  3 90  1  0  0  0
  4  5  1  0  0  0
  4 91  1  0  0  0
  4 92  1  0  0  0
  5  6  1  0  0  0
  5 26  1  0  0  0
  5 93  1  0  0  0
  6 25  1  0  0  0
  6 94  1  0  0  0
  6 95  1  0  0  0
  7  8  2  0  0  0
  7 26  1  0  0  0
  7 29  1  0  0  0
  8  9  1  0  0  0
  8 22  1  0  0  0
  9 10  1  0  0  0
  9 27  2  0  0  0
 10 11  2  0  0  0
 10 15  1  0  0  0
 11 12  1  0  0  0
 11 96  1  0  0  0
 12 13  2  0  0  0
 12 97  1  0  0  0
 13 14  1  0  0  0
 13 31  1  0  0  0
 14 15  2  0  0  0
 14 98  1  0  0  0
 15 99  1  0  0  0
 16 17  2  0  0  0
 16 21  1  0  0  0
 16 31  1  0  0  0
 17 18  1  0  0  0
 17100  1  0  0  0
 18 19  2  0  0  0
 18101  1  0  0  0
 19 20  1  0  0  0
 19 24  1  0  0  0
 20 21  2  0  0  0
 20102  1  0  0  0
 21 23  1  0  0  0
 22 28  1  0  0  0
 22 32  2  0  0  0
 26 27  1  0  0  0
 28103  1  0  0  0
 28104  1  0  0  0
 29105  1  0  0  0
 29106  1  0  0  0
 33 34  1  0  0  0
 33 66  1  0  0  0
 33 70  2  0  0  0
 34 36  1  0  0  0
 34 59  1  0  0  0
 34107  1  0  0  0
 35 44  2  0  0  0
 35 45  1  0  0  0
 35 68  1  0  0  0
 36 56  1  0  0  0
 36108  1  0  0  0
 37 39  1  0  0  0
 37 47  1  0  0  0
 37 66  1  0  0  0
 37109  1  0  0  0
 38 43  2  0  0  0
 38 46  1  0  0  0
 38 47  1  0  0  0
 39 64  1  0  0  0
 39 67  2  0  0  0
 40 52  1  0  0  0
 40 53  2  0  0  0
 40 58  1  0  0  0
 41110  1  0  0  0
 41111  1  0  0  0
 41112  1  0  0  0
 41 48  1  0  0  0
 42 43  1  0  0  0
 42 66  1  0  0  0
 42113  1  0  0  0
 42114  1  0  0  0
 43 44  1  0  0  0
 44115  1  0  0  0
 45 46  2  0  0  0
 45116  1  0  0  0
 46117  1  0  0  0
 47118  1  0  0  0
 47119  1  0  0  0
 48 56  1  0  0  0
 48 65  1  0  0  0
 48120  1  0  0  0
 49 50  1  0  0  0
 49 53  1  0  0  0
 49 64  1  0  0  0
 49121  1  0  0  0
 50 51  1  0  0  0
 50122  1  0  0  0
 50123  1  0  0  0
 51 52  1  0  0  0
 51124  1  0  0  0
 51125  1  0  0  0
 52126  1  0  0  0
 52127  1  0  0  0
 53 54  1  0  0  0
 54 55  2  0  0  0
 54128  1  0  0  0
 55 57  1  0  0  0
 55129  1  0  0  0
 56 69  2  0  0  0
 57 58  2  0  0  0
 57130  1  0  0  0
 58131  1  0  0  0
 59 60  1  0  0  0
 59 61  1  0  0  0
 59 62  1  0  0  0
 60132  1  0  0  0
 60133  1  0  0  0
 60134  1  0  0  0
 61135  1  0  0  0
 61136  1  0  0  0
 61137  1  0  0  0
 62138  1  0  0  0
 62139  1  0  0  0
 62140  1  0  0  0
 63 65  1  0  0  0
 63141  1  0  0  0
 63142  1  0  0  0
 63143  1  0  0  0
 64144  1  0  0  0
 65145  1  0  0  0
 68 84  1  0  0  0
 71 72  2  0  0  0
 71 74  1  0  0  0
 71146  1  0  0  0
 72 76  1  0  0  0
 72147  1  0  0  0
 73 75  1  0  0  0
 73 76  2  0  0  0
 73148  1  0  0  0
 74 75  2  0  0  0
 74 81  1  0  0  0
 75 85  1  0  0  0
 76 86  1  0  0  0
 77 78  1  0  0  0
 77149  1  0  0  0
 77150  1  0  0  0
 77 80  1  0  0  0
 78 85  1  0  0  0
 78151  1  0  0  0
 78152  1  0  0  0
 79 80  1  0  0  0
 79 85  1  0  0  0
 79153  1  0  0  0
 79154  1  0  0  0
 80 84  1  0  0  0
 80155  1  0  0  0
 81156  1  0  0  0
 81157  1  0  0  0
 81158  1  0  0  0
 82159  1  0  0  0
 82160  1  0  0  0
 82161  1  0  0  0
 82 84  1  0  0  0
 83 84  1  0  0  0
 83162  1  0  0  0
 83163  1  0  0  0
 83164  1  0  0  0
 86165  1  0  0  0
M  ISO  4   1 100  68 101  84 101  86 100
M  END
> <chiral flag>
0

> <version>
0

> <s_m_source_file>
/data/baiqing/PycharmProjects/Reinvent-master-3.2/result/LINK_invent/BTK/process_docking_weight1_custom_product_contain_oxygen_bond_distance_aromatic_linkinvent_7_9_3/rearranged_h_0142.sdf

> <i_m_source_file_index>
77

> <r_mmod_Potential_Energy-OPLS-2005>
423.912384033203

> <r_mmod_Stretch_Energy-OPLS-2005>
153.062835693359

> <r_mmod_Bend_Energy-OPLS-2005>
294.976989746094

> <r_mmod_Torsional_Energy-OPLS-2005>
319.88623046875

> <r_mmod_Improper_Torsional_Energy-OPLS-2005>
7.99669933319092

> <r_mmod_Van_der_Waal_Energy-OPLS-2005>
140.793563842773

> <r_mmod_Electrostatic_Energy-OPLS-2005>
-377.328552246094

> <r_mmod_Solvation_Energy-OPLS-2005>
-220.576278686523

> <b_mmod_Minimization_Converged-OPLS-2005>
0

> <r_mmod_RMS_Derivative-OPLS-2005>
1.63733220100403

$$$$
77
                    3D
 Structure written by MMmdl.
162171  0  0  1  0            999 V2000
  -30.6056  -14.6369   20.4853 C   0  0  0  0  0  0
  -30.4403  -12.3879   19.4414 C   0  0  0  0  0  0
  -29.5041  -12.5093   18.2183 C   0  0  0  0  0  0
  -28.0272  -12.3509   18.6318 C   0  0  0  0  0  0
  -27.6563  -13.2139   19.8685 C   0  0  2  0  0  0
  -28.7026  -13.0467   20.9922 C   0  0  0  0  0  0
  -25.2565  -13.8169   20.5716 C   0  0  0  0  0  0
  -24.1820  -13.0444   20.9191 C   0  0  0  0  0  0
  -24.6387  -11.6905   20.8730 C   0  0  0  0  0  0
  -23.9035  -10.4292   21.0395 C   0  0  0  0  0  0
  -24.3597   -9.4210   21.9173 C   0  0  0  0  0  0
  -23.6288   -8.2241   22.0743 C   0  0  0  0  0  0
  -22.4258   -8.0282   21.3541 C   0  0  0  0  0  0
  -21.9888   -9.0243   20.4637 C   0  0  0  0  0  0
  -22.7213  -10.2129   20.3046 C   0  0  0  0  0  0
  -21.6846   -6.0730   22.5275 C   0  0  0  0  0  0
  -21.4021   -6.5629   23.8216 C   0  0  0  0  0  0
  -21.3658   -5.6780   24.9169 C   0  0  0  0  0  0
  -21.6041   -4.3040   24.7218 C   0  0  0  0  0  0
  -21.8821   -3.8136   23.4346 C   0  0  0  0  0  0
  -21.9196   -4.6959   22.3401 C   0  0  0  0  0  0
  -22.7833  -13.5226   21.1863 C   0  0  0  0  0  0
  -22.1654   -4.2151   21.0983 F   0  0  0  0  0  0
  -21.5645   -3.4522   25.7733 F   0  0  0  0  0  0
  -30.0166  -13.4001   20.4301 N   0  0  0  0  0  0
  -26.2996  -12.9350   20.3343 N   0  0  0  0  0  0
  -25.9317  -11.6496   20.5757 N   0  0  0  0  0  0
  -22.0479  -12.8217   22.0434 N   0  0  0  0  0  0
  -25.4304  -15.1898   20.4208 N   0  0  0  0  0  0
  -31.7572  -14.8193   20.0809 O   0  0  0  0  0  0
  -21.6613   -6.8884   21.4249 O   0  0  0  0  0  0
  -22.3500  -14.5538   20.6736 O   0  0  0  0  0  0
  -24.6299  -31.8600   23.1994 C   0  0  0  0  0  0
  -25.9146  -32.4763   23.8326 C   0  0  1  0  0  0
  -27.2268  -27.3132   20.1035 C   0  0  0  0  0  0
  -25.5959  -33.8559   24.2255 N   0  0  0  0  0  0
  -23.4210  -30.4854   21.5416 C   0  0  2  0  0  0
  -24.8672  -28.9372   20.1091 C   0  0  0  0  0  0
  -22.7483  -29.4665   22.4906 C   0  0  0  0  0  0
  -18.0305  -28.1432   22.8487 C   0  0  0  0  0  0
  -24.1477  -36.7304   23.2631 C   0  0  0  0  0  0
  -25.9641  -30.7841   21.3738 C   0  0  0  0  0  0
  -26.0354  -29.4101   20.7194 C   0  0  0  0  0  0
  -27.2159  -28.6083   20.7103 C   0  0  0  0  0  0
  -26.0382  -26.9065   19.4502 C   0  0  0  0  0  0
  -24.8702  -27.6915   19.4666 C   0  0  0  0  0  0
  -23.6356  -29.8171   20.1587 C   0  0  0  0  0  0
  -25.4100  -36.3072   24.0317 C   0  0  1  0  0  0
  -20.5900  -28.3748   23.1258 C   0  0  2  0  0  0
  -20.6803  -26.9465   22.5409 C   0  0  0  0  0  0
  -19.5771  -26.6426   21.5217 C   0  0  0  0  0  0
  -18.1951  -26.7976   22.1632 C   0  0  0  0  0  0
  -19.1552  -28.8902   23.2877 C   0  0  0  0  0  0
  -18.9486  -30.1512   23.8887 C   0  0  0  0  0  0
  -17.6481  -30.6618   24.0586 C   0  0  0  0  0  0
  -25.9052  -34.9451   23.5082 C   0  0  0  0  0  0
  -16.5371  -29.9133   23.6330 C   0  0  0  0  0  0
  -16.7294  -28.6564   23.0323 C   0  0  0  0  0  0
  -26.4518  -31.6573   25.0713 C   0  0  0  0  0  0
  -25.3744  -31.3724   26.1436 C   0  0  0  0  0  0
  -27.0346  -30.2977   24.6200 C   0  0  0  0  0  0
  -27.6071  -32.4309   25.7521 C   0  0  0  0  0  0
  -27.5558  -37.1804   24.8460 C   0  0  0  0  0  0
  -21.4201  -29.3095   22.3643 N   0  0  0  0  0  0
  -26.4267  -37.3790   23.9413 N   0  0  0  0  0  0
  -24.6902  -31.0605   22.0951 N   0  0  0  0  0  0
  -23.4198  -28.8195   23.2992 O   0  0  0  0  0  0
  -28.3498  -26.4678   20.1695 O   0  0  0  0  0  0
  -26.5616  -34.8928   22.4652 O   0  0  0  0  0  0
  -23.5470  -32.1424   23.7319 O   0  0  0  0  0  0
  -29.2495  -17.9316   21.7383 C   0  0  0  0  0  0
  -30.3766  -17.7713   19.5450 C   0  0  0  0  0  0
  -29.2712  -19.3257   21.5165 C   0  0  0  0  0  0
  -30.3621  -19.2043   19.3473 C   0  0  0  0  0  0
  -29.8084  -19.9858   20.3818 C   0  0  0  0  0  0
  -29.8477  -17.1157   20.7213 C   0  0  0  0  0  0
  -28.9349  -20.6715   22.0705 C   0  0  0  0  0  0
  -30.9365  -19.8440   18.1006 C   0  0  0  0  0  0
  -28.6112  -24.0140   22.0938 C   0  0  0  0  0  0
  -30.5731  -24.3271   20.5476 C   0  0  0  0  0  0
  -28.9222  -22.4306   20.0760 C   0  0  0  0  0  0
  -28.2328  -25.0248   19.8239 C   0  0  0  0  0  0
  -29.0862  -23.9388   20.6293 C   0  0  0  0  0  0
  -29.5724  -21.3235   20.8545 N   0  0  0  0  0  0
  -29.7919  -15.6634   20.8910 N   0  0  0  0  0  0
  -31.4801  -12.5225   19.1331 H   0  0  0  0  0  0
  -30.3837  -11.3870   19.8714 H   0  0  0  0  0  0
  -29.7578  -11.7612   17.4663 H   0  0  0  0  0  0
  -29.6508  -13.4809   17.7435 H   0  0  0  0  0  0
  -27.8612  -11.2946   18.8519 H   0  0  0  0  0  0
  -27.3720  -12.5842   17.7917 H   0  0  0  0  0  0
  -27.6821  -14.2540   19.5416 H   0  0  0  0  0  0
  -28.7138  -12.0148   21.3449 H   0  0  0  0  0  0
  -28.4479  -13.6530   21.8629 H   0  0  0  0  0  0
  -25.2736   -9.5679   22.4751 H   0  0  0  0  0  0
  -23.9983   -7.4619   22.7453 H   0  0  0  0  0  0
  -21.0816   -8.8755   19.8948 H   0  0  0  0  0  0
  -22.3652  -10.9665   19.6158 H   0  0  0  0  0  0
  -21.2018   -7.6136   23.9714 H   0  0  0  0  0  0
  -21.1471   -6.0514   25.9073 H   0  0  0  0  0  0
  -22.0602   -2.7598   23.2844 H   0  0  0  0  0  0
  -22.4041  -11.9873   22.4845 H   0  0  0  0  0  0
  -21.1121  -13.1308   22.2646 H   0  0  0  0  0  0
  -24.6748  -15.8513   20.5618 H   0  0  0  0  0  0
  -26.2873  -15.6321   20.1150 H   0  0  0  0  0  0
  -26.7204  -32.5426   23.1060 H   0  0  0  0  0  0
  -25.0091  -33.9681   25.0387 H   0  0  0  0  0  0
  -22.7177  -31.3065   21.3922 H   0  0  0  0  0  0
  -23.3725  -35.9650   23.3309 H   0  0  0  0  0  0
  -24.3550  -36.8929   22.2040 H   0  0  0  0  0  0
  -23.7236  -37.6514   23.6656 H   0  0  0  0  0  0
  -26.0933  -31.5422   20.5993 H   0  0  0  0  0  0
  -26.8491  -30.8377   21.9974 H   0  0  0  0  0  0
  -28.1119  -28.9674   21.1973 H   0  0  0  0  0  0
  -25.9772  -25.9745   18.9106 H   0  0  0  0  0  0
  -23.9793  -27.3312   18.9707 H   0  0  0  0  0  0
  -23.7589  -30.5906   19.4001 H   0  0  0  0  0  0
  -22.7565  -29.2501   19.8478 H   0  0  0  0  0  0
  -25.1271  -36.1918   25.0802 H   0  0  0  0  0  0
  -21.0004  -28.3366   24.1371 H   0  0  0  0  0  0
  -20.5722  -26.2374   23.3628 H   0  0  0  0  0  0
  -21.6671  -26.7513   22.1178 H   0  0  0  0  0  0
  -19.6935  -25.6335   21.1262 H   0  0  0  0  0  0
  -19.6696  -27.3230   20.6735 H   0  0  0  0  0  0
  -17.4217  -26.6720   21.4044 H   0  0  0  0  0  0
  -18.0358  -26.0120   22.9028 H   0  0  0  0  0  0
  -19.7962  -30.7350   24.2225 H   0  0  0  0  0  0
  -17.5038  -31.6275   24.5251 H   0  0  0  0  0  0
  -15.5379  -30.3041   23.7664 H   0  0  0  0  0  0
  -15.8692  -28.0909   22.6986 H   0  0  0  0  0  0
  -24.5910  -30.7070   25.7771 H   0  0  0  0  0  0
  -24.8937  -32.2897   26.4860 H   0  0  0  0  0  0
  -25.8077  -30.8905   27.0208 H   0  0  0  0  0  0
  -26.2899  -29.6724   24.1250 H   0  0  0  0  0  0
  -27.4022  -29.7254   25.4730 H   0  0  0  0  0  0
  -27.8803  -30.4215   23.9424 H   0  0  0  0  0  0
  -27.2647  -33.3588   26.2121 H   0  0  0  0  0  0
  -28.3908  -32.6900   25.0383 H   0  0  0  0  0  0
  -28.0714  -31.8408   26.5438 H   0  0  0  0  0  0
  -28.2594  -38.0087   24.7496 H   0  0  0  0  0  0
  -28.1038  -36.2621   24.6300 H   0  0  0  0  0  0
  -27.2277  -37.1467   25.8864 H   0  0  0  0  0  0
  -20.9405  -29.8794   21.6808 H   0  0  0  0  0  0
  -26.0149  -38.2862   24.1435 H   0  0  0  0  0  0
  -28.8172  -17.5157   22.6365 H   0  0  0  0  0  0
  -30.7968  -17.1573   18.7606 H   0  0  0  0  0  0
  -29.4569  -20.8869   23.0045 H   0  0  0  0  0  0
  -27.8603  -20.8430   22.1486 H   0  0  0  0  0  0
  -31.2646  -20.8607   18.3159 H   0  0  0  0  0  0
  -31.7953  -19.2843   17.7313 H   0  0  0  0  0  0
  -30.1811  -19.8862   17.3142 H   0  0  0  0  0  0
  -29.1711  -23.3469   22.7477 H   0  0  0  0  0  0
  -27.5566  -23.7520   22.1774 H   0  0  0  0  0  0
  -28.7309  -25.0226   22.4904 H   0  0  0  0  0  0
  -31.1912  -23.6557   21.1448 H   0  0  0  0  0  0
  -30.7415  -25.3395   20.9155 H   0  0  0  0  0  0
  -30.9362  -24.2853   19.5198 H   0  0  0  0  0  0
  -29.2951  -22.3845   19.0520 H   0  0  0  0  0  0
  -27.8606  -22.1953   20.0016 H   0  0  0  0  0  0
  -27.2063  -24.6843   19.9384 H   0  0  0  0  0  0
  -28.4589  -24.9349   18.7615 H   0  0  0  0  0  0
  -28.9499  -15.3285   21.3346 H   0  0  0  0  0  0
  1 25  1  0  0  0
  1 30  2  0  0  0
  1 85  1  0  0  0
  2  3  1  0  0  0
  2 25  1  0  0  0
  2 86  1  0  0  0
  2 87  1  0  0  0
  3  4  1  0  0  0
  3 88  1  0  0  0
  3 89  1  0  0  0
  4  5  1  0  0  0
  4 90  1  0  0  0
  4 91  1  0  0  0
  5  6  1  0  0  0
  5 26  1  0  0  0
  5 92  1  0  0  0
  6 25  1  0  0  0
  6 93  1  0  0  0
  6 94  1  0  0  0
  7  8  2  0  0  0
  7 26  1  0  0  0
  7 29  1  0  0  0
  8  9  1  0  0  0
  8 22  1  0  0  0
  9 10  1  0  0  0
  9 27  2  0  0  0
 10 11  2  0  0  0
 10 15  1  0  0  0
 11 12  1  0  0  0
 11 95  1  0  0  0
 12 13  2  0  0  0
 12 96  1  0  0  0
 13 14  1  0  0  0
 13 31  1  0  0  0
 14 15  2  0  0  0
 14 97  1  0  0  0
 15 98  1  0  0  0
 16 17  2  0  0  0
 16 21  1  0  0  0
 16 31  1  0  0  0
 17 18  1  0  0  0
 17 99  1  0  0  0
 18 19  2  0  0  0
 18100  1  0  0  0
 19 20  1  0  0  0
 19 24  1  0  0  0
 20 21  2  0  0  0
 20101  1  0  0  0
 21 23  1  0  0  0
 22 28  1  0  0  0
 22 32  2  0  0  0
 26 27  1  0  0  0
 28102  1  0  0  0
 28103  1  0  0  0
 29104  1  0  0  0
 29105  1  0  0  0
 33 34  1  0  0  0
 33 66  1  0  0  0
 33 70  2  0  0  0
 34 36  1  0  0  0
 34 59  1  0  0  0
 34106  1  0  0  0
 35 44  2  0  0  0
 35 45  1  0  0  0
 35 68  1  0  0  0
 36 56  1  0  0  0
 36107  1  0  0  0
 37 39  1  0  0  0
 37 47  1  0  0  0
 37 66  1  0  0  0
 37108  1  0  0  0
 38 43  2  0  0  0
 38 46  1  0  0  0
 38 47  1  0  0  0
 39 64  1  0  0  0
 39 67  2  0  0  0
 40 52  1  0  0  0
 40 53  2  0  0  0
 40 58  1  0  0  0
 41109  1  0  0  0
 41110  1  0  0  0
 41111  1  0  0  0
 41 48  1  0  0  0
 42 43  1  0  0  0
 42 66  1  0  0  0
 42112  1  0  0  0
 42113  1  0  0  0
 43 44  1  0  0  0
 44114  1  0  0  0
 45 46  2  0  0  0
 45115  1  0  0  0
 46116  1  0  0  0
 47117  1  0  0  0
 47118  1  0  0  0
 48 56  1  0  0  0
 48 65  1  0  0  0
 48119  1  0  0  0
 49 50  1  0  0  0
 49 53  1  0  0  0
 49 64  1  0  0  0
 49120  1  0  0  0
 50 51  1  0  0  0
 50121  1  0  0  0
 50122  1  0  0  0
 51 52  1  0  0  0
 51123  1  0  0  0
 51124  1  0  0  0
 52125  1  0  0  0
 52126  1  0  0  0
 53 54  1  0  0  0
 54 55  2  0  0  0
 54127  1  0  0  0
 55 57  1  0  0  0
 55128  1  0  0  0
 56 69  2  0  0  0
 57 58  2  0  0  0
 57129  1  0  0  0
 58130  1  0  0  0
 59 60  1  0  0  0
 59 61  1  0  0  0
 59 62  1  0  0  0
 60131  1  0  0  0
 60132  1  0  0  0
 60133  1  0  0  0
 61134  1  0  0  0
 61135  1  0  0  0
 61136  1  0  0  0
 62137  1  0  0  0
 62138  1  0  0  0
 62139  1  0  0  0
 63 65  1  0  0  0
 63140  1  0  0  0
 63141  1  0  0  0
 63142  1  0  0  0
 64143  1  0  0  0
 65144  1  0  0  0
 68 82  1  0  0  0
 71 73  2  0  0  0
 71 76  1  0  0  0
 71145  1  0  0  0
 72 74  1  0  0  0
 72 76  2  0  0  0
 72146  1  0  0  0
 73 75  1  0  0  0
 73 77  1  0  0  0
 74 75  2  0  0  0
 74 78  1  0  0  0
 75 84  1  0  0  0
 76 85  1  0  0  0
 77 84  1  0  0  0
 77147  1  0  0  0
 77148  1  0  0  0
 78149  1  0  0  0
 78150  1  0  0  0
 78151  1  0  0  0
 79152  1  0  0  0
 79153  1  0  0  0
 79154  1  0  0  0
 79 83  1  0  0  0
 80 83  1  0  0  0
 80155  1  0  0  0
 80156  1  0  0  0
 80157  1  0  0  0
 81 83  1  0  0  0
 81 84  1  0  0  0
 81158  1  0  0  0
 81159  1  0  0  0
 82 83  1  0  0  0
 82160  1  0  0  0
 82161  1  0  0  0
 85162  1  0  0  0
M  ISO  4   1 100  68 101  82 101  85 100
M  END
> <chiral flag>
0

> <version>
0

> <s_m_source_file>
/data/baiqing/PycharmProjects/Reinvent-master-3.2/result/LINK_invent/BTK/process_docking_weight1_custom_product_contain_oxygen_bond_distance_aromatic_linkinvent_7_9_3/rearranged_h_0142.sdf

> <i_m_source_file_index>
78

> <r_mmod_Potential_Energy-OPLS-2005>
433.824127197266

> <r_mmod_Stretch_Energy-OPLS-2005>
107.180313110352

> <r_mmod_Bend_Energy-OPLS-2005>
508.054473876953

> <r_mmod_Torsional_Energy-OPLS-2005>
234.131057739258

> <r_mmod_Improper_Torsional_Energy-OPLS-2005>
8.63266563415527

> <r_mmod_Van_der_Waal_Energy-OPLS-2005>
136.791870117188

> <r_mmod_Electrostatic_Energy-OPLS-2005>
-396.290802001953

> <r_mmod_Solvation_Energy-OPLS-2005>
-214.572357177734

> <b_mmod_Minimization_Converged-OPLS-2005>
0

> <r_mmod_RMS_Derivative-OPLS-2005>
2.9884238243103

$$$$
78
                    3D
 Structure written by MMmdl.
160169  0  0  1  0            999 V2000
  -30.6236  -14.5976   20.5155 C   0  0  0  0  0  0
  -30.4323  -12.3641   19.4413 C   0  0  0  0  0  0
  -29.5074  -12.5144   18.2132 C   0  0  0  0  0  0
  -28.0265  -12.3610   18.6193 C   0  0  0  0  0  0
  -27.6554  -13.2124   19.8636 C   0  0  2  0  0  0
  -28.6969  -13.0315   20.9906 C   0  0  0  0  0  0
  -25.2562  -13.8164   20.5659 C   0  0  0  0  0  0
  -24.1828  -13.0431   20.9166 C   0  0  0  0  0  0
  -24.6388  -11.6897   20.8714 C   0  0  0  0  0  0
  -23.9053  -10.4280   21.0403 C   0  0  0  0  0  0
  -24.3609   -9.4199   21.9182 C   0  0  0  0  0  0
  -23.6277   -8.2238   22.0766 C   0  0  0  0  0  0
  -22.4255   -8.0282   21.3558 C   0  0  0  0  0  0
  -21.9881   -9.0252   20.4665 C   0  0  0  0  0  0
  -22.7219  -10.2125   20.3054 C   0  0  0  0  0  0
  -21.6850   -6.0710   22.5268 C   0  0  0  0  0  0
  -21.4021   -6.5622   23.8197 C   0  0  0  0  0  0
  -21.3661   -5.6781   24.9169 C   0  0  0  0  0  0
  -21.6044   -4.3044   24.7226 C   0  0  0  0  0  0
  -21.8827   -3.8123   23.4346 C   0  0  0  0  0  0
  -21.9197   -4.6934   22.3394 C   0  0  0  0  0  0
  -22.7854  -13.5231   21.1849 C   0  0  0  0  0  0
  -22.1671   -4.2119   21.0972 F   0  0  0  0  0  0
  -21.5620   -3.4535   25.7742 F   0  0  0  0  0  0
  -30.0186  -13.3713   20.4381 N   0  0  0  0  0  0
  -26.2986  -12.9333   20.3284 N   0  0  0  0  0  0
  -25.9308  -11.6487   20.5715 N   0  0  0  0  0  0
  -22.0479  -12.8256   22.0415 N   0  0  0  0  0  0
  -25.4280  -15.1888   20.4093 N   0  0  0  0  0  0
  -31.7707  -14.7773   20.0945 O   0  0  0  0  0  0
  -21.6641   -6.8861   21.4234 O   0  0  0  0  0  0
  -22.3541  -14.5535   20.6690 O   0  0  0  0  0  0
  -24.6248  -31.8603   23.2080 C   0  0  0  0  0  0
  -25.9107  -32.4776   23.8377 C   0  0  1  0  0  0
  -27.2086  -27.3275   20.0989 C   0  0  0  0  0  0
  -25.5936  -33.8572   24.2304 N   0  0  0  0  0  0
  -23.4166  -30.4893   21.5508 C   0  0  2  0  0  0
  -24.8582  -28.9551   20.1086 C   0  0  0  0  0  0
  -22.7462  -29.4620   22.4935 C   0  0  0  0  0  0
  -18.0294  -28.1373   22.8494 C   0  0  0  0  0  0
  -24.1490  -36.7293   23.2632 C   0  0  0  0  0  0
  -25.9593  -30.7913   21.3827 C   0  0  0  0  0  0
  -26.0299  -29.4232   20.7176 C   0  0  0  0  0  0
  -27.2082  -28.6193   20.7096 C   0  0  0  0  0  0
  -26.0144  -26.9226   19.4555 C   0  0  0  0  0  0
  -24.8512  -27.7088   19.4711 C   0  0  0  0  0  0
  -23.6293  -29.8366   20.1623 C   0  0  0  0  0  0
  -25.4103  -36.3073   24.0332 C   0  0  1  0  0  0
  -20.5892  -28.3673   23.1289 C   0  0  2  0  0  0
  -20.6785  -26.9394   22.5410 C   0  0  0  0  0  0
  -19.5755  -26.6370   21.5218 C   0  0  0  0  0  0
  -18.1939  -26.7919   22.1633 C   0  0  0  0  0  0
  -19.1546  -28.8841   23.2888 C   0  0  0  0  0  0
  -18.9465  -30.1451   23.8893 C   0  0  0  0  0  0
  -17.6463  -30.6574   24.0569 C   0  0  0  0  0  0
  -25.9047  -34.9441   23.5110 C   0  0  0  0  0  0
  -16.5358  -29.9068   23.6327 C   0  0  0  0  0  0
  -16.7284  -28.6489   23.0345 C   0  0  0  0  0  0
  -26.4497  -31.6572   25.0736 C   0  0  0  0  0  0
  -25.3750  -31.3764   26.1495 C   0  0  0  0  0  0
  -27.0289  -30.2963   24.6205 C   0  0  0  0  0  0
  -27.6065  -32.4293   25.7503 C   0  0  0  0  0  0
  -27.5577  -37.1795   24.8450 C   0  0  0  0  0  0
  -21.4179  -29.3026   22.3677 N   0  0  0  0  0  0
  -26.4281  -37.3765   23.9411 N   0  0  0  0  0  0
  -24.6855  -31.0627   22.1038 N   0  0  0  0  0  0
  -23.4191  -28.8129   23.2987 O   0  0  0  0  0  0
  -28.3109  -26.4590   20.1486 O   0  0  0  0  0  0
  -26.5603  -34.8906   22.4675 O   0  0  0  0  0  0
  -23.5419  -32.1403   23.7423 O   0  0  0  0  0  0
  -28.6277  -19.2289   20.9939 C   0  0  0  0  0  0
  -30.6320  -19.1479   19.6703 C   0  0  0  0  0  0
  -28.7605  -17.8339   21.2570 C   0  0  0  0  0  0
  -30.7670  -17.7530   19.9315 C   0  0  0  0  0  0
  -29.5586  -19.9270   20.1829 C   0  0  0  0  0  0
  -29.8203  -17.0516   20.7201 C   0  0  0  0  0  0
  -30.6881  -22.2455   19.6555 C   0  0  0  0  0  0
  -30.2405  -23.7171   19.5292 C   0  0  0  0  0  0
  -28.4472  -22.4220   20.5288 C   0  0  0  0  0  0
  -29.3903  -21.4336   19.7552 C   0  0  2  0  0  0
  -29.0375  -23.8996   20.4771 C   0  0  1  0  0  0
  -29.5152  -24.2919   21.8882 C   0  0  0  0  0  0
  -28.0218  -25.0160   19.9815 C   0  0  0  0  0  0
  -29.8327  -15.6137   20.9743 N   0  0  0  0  0  0
  -31.4779  -12.4725   19.1473 H   0  0  0  0  0  0
  -30.3434  -11.3604   19.8596 H   0  0  0  0  0  0
  -29.7627  -11.7724   17.4545 H   0  0  0  0  0  0
  -29.6655  -13.4899   17.7497 H   0  0  0  0  0  0
  -27.8471  -11.3064   18.8271 H   0  0  0  0  0  0
  -27.3803  -12.6190   17.7796 H   0  0  0  0  0  0
  -27.6835  -14.2541   19.5454 H   0  0  0  0  0  0
  -28.6950  -12.0005   21.3460 H   0  0  0  0  0  0
  -28.4448  -13.6391   21.8602 H   0  0  0  0  0  0
  -25.2758   -9.5661   22.4756 H   0  0  0  0  0  0
  -23.9977   -7.4627   22.7490 H   0  0  0  0  0  0
  -21.0797   -8.8776   19.8982 H   0  0  0  0  0  0
  -22.3684  -10.9660   19.6158 H   0  0  0  0  0  0
  -21.2027   -7.6132   23.9690 H   0  0  0  0  0  0
  -21.1477   -6.0519   25.9069 H   0  0  0  0  0  0
  -22.0609   -2.7582   23.2868 H   0  0  0  0  0  0
  -22.4059  -11.9908   22.4817 H   0  0  0  0  0  0
  -21.1118  -13.1344   22.2624 H   0  0  0  0  0  0
  -24.6593  -15.8435   20.5059 H   0  0  0  0  0  0
  -26.2767  -15.6256   20.0698 H   0  0  0  0  0  0
  -26.7165  -32.5440   23.1111 H   0  0  0  0  0  0
  -25.0094  -33.9716   25.0462 H   0  0  0  0  0  0
  -22.7102  -31.3111   21.4158 H   0  0  0  0  0  0
  -23.3744  -35.9633   23.3282 H   0  0  0  0  0  0
  -24.3595  -36.8918   22.2045 H   0  0  0  0  0  0
  -23.7253  -37.6499   23.6661 H   0  0  0  0  0  0
  -26.0963  -31.5607   20.6223 H   0  0  0  0  0  0
  -26.8375  -30.8291   22.0154 H   0  0  0  0  0  0
  -28.1032  -28.9661   21.2070 H   0  0  0  0  0  0
  -25.9408  -25.9803   18.9347 H   0  0  0  0  0  0
  -23.9547  -27.3492   18.9849 H   0  0  0  0  0  0
  -23.7520  -30.6195   19.4129 H   0  0  0  0  0  0
  -22.7471  -29.2729   19.8531 H   0  0  0  0  0  0
  -25.1279  -36.1923   25.0825 H   0  0  0  0  0  0
  -21.0000  -28.3252   24.1404 H   0  0  0  0  0  0
  -20.5690  -26.2272   23.3604 H   0  0  0  0  0  0
  -21.6655  -26.7420   22.1198 H   0  0  0  0  0  0
  -19.6907  -25.6285   21.1229 H   0  0  0  0  0  0
  -19.6682  -27.3196   20.6760 H   0  0  0  0  0  0
  -17.4202  -26.6673   21.4041 H   0  0  0  0  0  0
  -18.0331  -26.0053   22.9018 H   0  0  0  0  0  0
  -19.7943  -30.7280   24.2238 H   0  0  0  0  0  0
  -17.5013  -31.6251   24.5172 H   0  0  0  0  0  0
  -15.5357  -30.2963   23.7642 H   0  0  0  0  0  0
  -15.8692  -28.0804   22.7047 H   0  0  0  0  0  0
  -24.5887  -30.7132   25.7877 H   0  0  0  0  0  0
  -24.9007  -32.2964   26.4920 H   0  0  0  0  0  0
  -25.8094  -30.8951   27.0268 H   0  0  0  0  0  0
  -26.2840  -29.6755   24.1211 H   0  0  0  0  0  0
  -27.3917  -29.7182   25.4718 H   0  0  0  0  0  0
  -27.8763  -30.4192   23.9456 H   0  0  0  0  0  0
  -27.2676  -33.3590   26.2093 H   0  0  0  0  0  0
  -28.3884  -32.6852   25.0338 H   0  0  0  0  0  0
  -28.0723  -31.8407   26.5423 H   0  0  0  0  0  0
  -28.2579  -38.0106   24.7514 H   0  0  0  0  0  0
  -28.1092  -36.2643   24.6245 H   0  0  0  0  0  0
  -27.2313  -37.1409   25.8857 H   0  0  0  0  0  0
  -20.9337  -29.8768   21.6920 H   0  0  0  0  0  0
  -26.0160  -38.2832   24.1443 H   0  0  0  0  0  0
  -27.7740  -19.7541   21.4003 H   0  0  0  0  0  0
  -31.3654  -19.6125   19.0269 H   0  0  0  0  0  0
  -28.0077  -17.3548   21.8685 H   0  0  0  0  0  0
  -31.6001  -17.2292   19.4862 H   0  0  0  0  0  0
  -31.2783  -22.1163   20.5633 H   0  0  0  0  0  0
  -31.3040  -21.9347   18.8103 H   0  0  0  0  0  0
  -29.9254  -23.8911   18.4992 H   0  0  0  0  0  0
  -31.0494  -24.4200   19.7335 H   0  0  0  0  0  0
  -28.3394  -22.1000   21.5651 H   0  0  0  0  0  0
  -27.4430  -22.3787   20.1035 H   0  0  0  0  0  0
  -28.9867  -21.3798   18.7427 H   0  0  0  0  0  0
  -30.1996  -23.5525   22.3054 H   0  0  0  0  0  0
  -28.6697  -24.3811   22.5714 H   0  0  0  0  0  0
  -30.0316  -25.2522   21.8845 H   0  0  0  0  0  0
  -27.0931  -24.8035   20.5141 H   0  0  0  0  0  0
  -27.8163  -24.8362   18.9255 H   0  0  0  0  0  0
  -28.9944  -15.2672   21.4147 H   0  0  0  0  0  0
  1 25  1  0  0  0
  1 30  2  0  0  0
  1 84  1  0  0  0
  2  3  1  0  0  0
  2 25  1  0  0  0
  2 85  1  0  0  0
  2 86  1  0  0  0
  3  4  1  0  0  0
  3 87  1  0  0  0
  3 88  1  0  0  0
  4  5  1  0  0  0
  4 89  1  0  0  0
  4 90  1  0  0  0
  5  6  1  0  0  0
  5 26  1  0  0  0
  5 91  1  0  0  0
  6 25  1  0  0  0
  6 92  1  0  0  0
  6 93  1  0  0  0
  7  8  2  0  0  0
  7 26  1  0  0  0
  7 29  1  0  0  0
  8  9  1  0  0  0
  8 22  1  0  0  0
  9 10  1  0  0  0
  9 27  2  0  0  0
 10 11  2  0  0  0
 10 15  1  0  0  0
 11 12  1  0  0  0
 11 94  1  0  0  0
 12 13  2  0  0  0
 12 95  1  0  0  0
 13 14  1  0  0  0
 13 31  1  0  0  0
 14 15  2  0  0  0
 14 96  1  0  0  0
 15 97  1  0  0  0
 16 17  2  0  0  0
 16 21  1  0  0  0
 16 31  1  0  0  0
 17 18  1  0  0  0
 17 98  1  0  0  0
 18 19  2  0  0  0
 18 99  1  0  0  0
 19 20  1  0  0  0
 19 24  1  0  0  0
 20 21  2  0  0  0
 20100  1  0  0  0
 21 23  1  0  0  0
 22 28  1  0  0  0
 22 32  2  0  0  0
 26 27  1  0  0  0
 28101  1  0  0  0
 28102  1  0  0  0
 29103  1  0  0  0
 29104  1  0  0  0
 33 34  1  0  0  0
 33 66  1  0  0  0
 33 70  2  0  0  0
 34 36  1  0  0  0
 34 59  1  0  0  0
 34105  1  0  0  0
 35 44  2  0  0  0
 35 45  1  0  0  0
 35 68  1  0  0  0
 36 56  1  0  0  0
 36106  1  0  0  0
 37 39  1  0  0  0
 37 47  1  0  0  0
 37 66  1  0  0  0
 37107  1  0  0  0
 38 43  2  0  0  0
 38 46  1  0  0  0
 38 47  1  0  0  0
 39 64  1  0  0  0
 39 67  2  0  0  0
 40 52  1  0  0  0
 40 53  2  0  0  0
 40 58  1  0  0  0
 41108  1  0  0  0
 41109  1  0  0  0
 41110  1  0  0  0
 41 48  1  0  0  0
 42 43  1  0  0  0
 42 66  1  0  0  0
 42111  1  0  0  0
 42112  1  0  0  0
 43 44  1  0  0  0
 44113  1  0  0  0
 45 46  2  0  0  0
 45114  1  0  0  0
 46115  1  0  0  0
 47116  1  0  0  0
 47117  1  0  0  0
 48 56  1  0  0  0
 48 65  1  0  0  0
 48118  1  0  0  0
 49 50  1  0  0  0
 49 53  1  0  0  0
 49 64  1  0  0  0
 49119  1  0  0  0
 50 51  1  0  0  0
 50120  1  0  0  0
 50121  1  0  0  0
 51 52  1  0  0  0
 51122  1  0  0  0
 51123  1  0  0  0
 52124  1  0  0  0
 52125  1  0  0  0
 53 54  1  0  0  0
 54 55  2  0  0  0
 54126  1  0  0  0
 55 57  1  0  0  0
 55127  1  0  0  0
 56 69  2  0  0  0
 57 58  2  0  0  0
 57128  1  0  0  0
 58129  1  0  0  0
 59 60  1  0  0  0
 59 61  1  0  0  0
 59 62  1  0  0  0
 60130  1  0  0  0
 60131  1  0  0  0
 60132  1  0  0  0
 61133  1  0  0  0
 61134  1  0  0  0
 61135  1  0  0  0
 62136  1  0  0  0
 62137  1  0  0  0
 62138  1  0  0  0
 63 65  1  0  0  0
 63139  1  0  0  0
 63140  1  0  0  0
 63141  1  0  0  0
 64142  1  0  0  0
 65143  1  0  0  0
 68 83  1  0  0  0
 71 73  2  0  0  0
 71 75  1  0  0  0
 71144  1  0  0  0
 72 74  1  0  0  0
 72 75  2  0  0  0
 72145  1  0  0  0
 73 76  1  0  0  0
 73146  1  0  0  0
 74 76  2  0  0  0
 74147  1  0  0  0
 75 80  1  0  0  0
 76 84  1  0  0  0
 77 78  1  0  0  0
 77 80  1  0  0  0
 77148  1  0  0  0
 77149  1  0  0  0
 78 81  1  0  0  0
 78150  1  0  0  0
 78151  1  0  0  0
 79 80  1  0  0  0
 79 81  1  0  0  0
 79152  1  0  0  0
 79153  1  0  0  0
 80154  1  0  0  0
 81 82  1  0  0  0
 81 83  1  0  0  0
 82155  1  0  0  0
 82156  1  0  0  0
 82157  1  0  0  0
 83158  1  0  0  0
 83159  1  0  0  0
 84160  1  0  0  0
M  ISO  4   1 100  68 101  83 101  84 100
M  END
> <chiral flag>
0

> <version>
0

> <s_m_source_file>
/data/baiqing/PycharmProjects/Reinvent-master-3.2/result/LINK_invent/BTK/process_docking_weight1_custom_product_contain_oxygen_bond_distance_aromatic_linkinvent_7_9_3/rearranged_h_0142.sdf

> <i_m_source_file_index>
79

> <r_mmod_Potential_Energy-OPLS-2005>
129.340118408203

> <r_mmod_Stretch_Energy-OPLS-2005>
72.8011245727539

> <r_mmod_Bend_Energy-OPLS-2005>
161.180236816406

> <r_mmod_Torsional_Energy-OPLS-2005>
271.59619140625

> <r_mmod_Improper_Torsional_Energy-OPLS-2005>
3.94846796989441

> <r_mmod_Van_der_Waal_Energy-OPLS-2005>
148.800109863281

> <r_mmod_Electrostatic_Energy-OPLS-2005>
-374.707885742188

> <r_mmod_Solvation_Energy-OPLS-2005>
-196.572463989258

> <b_mmod_Minimization_Converged-OPLS-2005>
0

> <r_mmod_RMS_Derivative-OPLS-2005>
2.33399987220764

$$$$
79
                    3D
 Structure written by MMmdl.
160168  0  0  1  0            999 V2000
  -30.6834  -14.6643   20.5021 C   0  0  0  0  0  0
  -30.4374  -12.4207   19.4655 C   0  0  0  0  0  0
  -29.5038  -12.5205   18.2450 C   0  0  0  0  0  0
  -28.0341  -12.3359   18.6648 C   0  0  0  0  0  0
  -27.6492  -13.2324   19.8663 C   0  0  2  0  0  0
  -28.6981  -13.1243   20.9972 C   0  0  0  0  0  0
  -25.2462  -13.8225   20.5658 C   0  0  0  0  0  0
  -24.1763  -13.0472   20.9194 C   0  0  0  0  0  0
  -24.6374  -11.6953   20.8802 C   0  0  0  0  0  0
  -23.9044  -10.4313   21.0444 C   0  0  0  0  0  0
  -24.3590   -9.4203   21.9198 C   0  0  0  0  0  0
  -23.6273   -8.2233   22.0756 C   0  0  0  0  0  0
  -22.4241   -8.0297   21.3565 C   0  0  0  0  0  0
  -21.9886   -9.0273   20.4665 C   0  0  0  0  0  0
  -22.7219  -10.2154   20.3093 C   0  0  0  0  0  0
  -21.6840   -6.0764   22.5296 C   0  0  0  0  0  0
  -21.3988   -6.5662   23.8230 C   0  0  0  0  0  0
  -21.3648   -5.6809   24.9185 C   0  0  0  0  0  0
  -21.6026   -4.3064   24.7232 C   0  0  0  0  0  0
  -21.8791   -3.8179   23.4340 C   0  0  0  0  0  0
  -21.9172   -4.6998   22.3408 C   0  0  0  0  0  0
  -22.7752  -13.5242   21.1847 C   0  0  0  0  0  0
  -22.1649   -4.2202   21.0983 F   0  0  0  0  0  0
  -21.5619   -3.4527   25.7715 F   0  0  0  0  0  0
  -30.0160  -13.4612   20.4317 N   0  0  0  0  0  0
  -26.2940  -12.9443   20.3341 N   0  0  0  0  0  0
  -25.9320  -11.6588   20.5849 N   0  0  0  0  0  0
  -22.0372  -12.8297   22.0412 N   0  0  0  0  0  0
  -25.4065  -15.1958   20.3956 N   0  0  0  0  0  0
  -31.8013  -14.7859   19.9956 O   0  0  0  0  0  0
  -21.6606   -6.8898   21.4256 O   0  0  0  0  0  0
  -22.3444  -14.5550   20.6652 O   0  0  0  0  0  0
  -24.6284  -31.8587   23.1978 C   0  0  0  0  0  0
  -25.9113  -32.4774   23.8296 C   0  0  1  0  0  0
  -27.2178  -27.2740   20.1077 C   0  0  0  0  0  0
  -25.5939  -33.8571   24.2252 N   0  0  0  0  0  0
  -23.4202  -30.4795   21.5501 C   0  0  2  0  0  0
  -24.8649  -28.9288   20.1189 C   0  0  0  0  0  0
  -22.7482  -29.4599   22.4998 C   0  0  0  0  0  0
  -18.0285  -28.1354   22.8524 C   0  0  0  0  0  0
  -24.1492  -36.7236   23.2626 C   0  0  0  0  0  0
  -25.9663  -30.7733   21.3752 C   0  0  0  0  0  0
  -26.0407  -29.3971   20.7187 C   0  0  0  0  0  0
  -27.2160  -28.5785   20.7111 C   0  0  0  0  0  0
  -26.0142  -26.8800   19.4735 C   0  0  0  0  0  0
  -24.8549  -27.6731   19.4969 C   0  0  0  0  0  0
  -23.6325  -29.8114   20.1694 C   0  0  0  0  0  0
  -25.4129  -36.3069   24.0331 C   0  0  1  0  0  0
  -20.5888  -28.3673   23.1326 C   0  0  2  0  0  0
  -20.6801  -26.9412   22.5438 C   0  0  0  0  0  0
  -19.5763  -26.6392   21.5233 C   0  0  0  0  0  0
  -18.1933  -26.7917   22.1631 C   0  0  0  0  0  0
  -19.1542  -28.8839   23.2910 C   0  0  0  0  0  0
  -18.9439  -30.1459   23.8911 C   0  0  0  0  0  0
  -17.6432  -30.6587   24.0554 C   0  0  0  0  0  0
  -25.9085  -34.9460   23.5091 C   0  0  0  0  0  0
  -16.5321  -29.9062   23.6342 C   0  0  0  0  0  0
  -16.7272  -28.6457   23.0400 C   0  0  0  0  0  0
  -26.4493  -31.6565   25.0654 C   0  0  0  0  0  0
  -25.3709  -31.3667   26.1351 C   0  0  0  0  0  0
  -27.0285  -30.2973   24.6080 C   0  0  0  0  0  0
  -27.6105  -32.4262   25.7391 C   0  0  0  0  0  0
  -27.5586  -37.1765   24.8480 C   0  0  0  0  0  0
  -21.4189  -29.2996   22.3702 N   0  0  0  0  0  0
  -26.4287  -37.3787   23.9440 N   0  0  0  0  0  0
  -24.6920  -31.0523   22.0981 N   0  0  0  0  0  0
  -23.4208  -28.8195   23.3128 O   0  0  0  0  0  0
  -28.3178  -26.3818   20.1628 O   0  0  0  0  0  0
  -26.5628  -34.8925   22.4636 O   0  0  0  0  0  0
  -23.5445  -32.1425   23.7274 O   0  0  0  0  0  0
  -30.1015  -18.3997   22.2734 C   0  0  0  0  0  0
  -30.4553  -17.3420   23.0220 C   0  0  0  0  0  0
  -29.7238  -16.9707   20.3790 C   0  0  0  0  0  0
  -29.6360  -18.2557   20.9044 C   0  0  0  0  0  0
  -29.0108  -23.7898   20.3238 C   0  0  0  0  0  0
  -30.4355  -15.9089   22.5235 C   0  0  0  0  0  0
  -28.7749  -19.2732   18.6854 C   0  0  0  0  0  0
  -27.4646  -19.4684   20.7781 C   0  0  0  0  0  0
  -28.5319  -22.2800   20.1384 C   0  0  0  0  0  0
  -28.0823  -24.9551   19.7655 C   0  0  0  0  0  0
  -29.4771  -21.0035   20.4513 C   0  0  0  0  0  0
  -28.8985  -19.5004   20.2126 C   0  0  0  0  0  0
  -30.0869  -15.7613   21.0983 N   0  0  0  0  0  0
  -30.0723  -24.0449   20.9014 O   0  0  0  0  0  0
  -31.4686  -12.5471   19.1311 H   0  0  0  0  0  0
  -30.3985  -11.4300   19.9209 H   0  0  0  0  0  0
  -29.7776  -11.7847   17.4885 H   0  0  0  0  0  0
  -29.6305  -13.5037   17.7902 H   0  0  0  0  0  0
  -27.8991  -11.2878   18.9371 H   0  0  0  0  0  0
  -27.3687  -12.5210   17.8206 H   0  0  0  0  0  0
  -27.6586  -14.2574   19.4990 H   0  0  0  0  0  0
  -28.7070  -12.1076   21.3958 H   0  0  0  0  0  0
  -28.4386  -13.7742   21.8330 H   0  0  0  0  0  0
  -25.2735   -9.5661   22.4770 H   0  0  0  0  0  0
  -23.9967   -7.4615   22.7478 H   0  0  0  0  0  0
  -21.0787   -8.8801   19.9014 H   0  0  0  0  0  0
  -22.3656  -10.9685   19.6214 H   0  0  0  0  0  0
  -21.1977   -7.6169   23.9740 H   0  0  0  0  0  0
  -21.1493   -6.0545   25.9087 H   0  0  0  0  0  0
  -22.0582   -2.7651   23.2824 H   0  0  0  0  0  0
  -22.3943  -12.0004   22.4924 H   0  0  0  0  0  0
  -21.1000  -13.1396   22.2557 H   0  0  0  0  0  0
  -24.6317  -15.8429   20.5057 H   0  0  0  0  0  0
  -26.2466  -15.6474   20.0556 H   0  0  0  0  0  0
  -26.7168  -32.5447   23.1034 H   0  0  0  0  0  0
  -25.0108  -33.9709   25.0400 H   0  0  0  0  0  0
  -22.7120  -31.2989   21.4074 H   0  0  0  0  0  0
  -23.3798  -35.9521   23.3292 H   0  0  0  0  0  0
  -24.3588  -36.8835   22.2040 H   0  0  0  0  0  0
  -23.7197  -37.6418   23.6633 H   0  0  0  0  0  0
  -26.0909  -31.5331   20.6033 H   0  0  0  0  0  0
  -26.8482  -30.8279   22.0021 H   0  0  0  0  0  0
  -28.1145  -28.9243   21.2043 H   0  0  0  0  0  0
  -25.9231  -25.9357   18.9558 H   0  0  0  0  0  0
  -23.9499  -27.3002   19.0391 H   0  0  0  0  0  0
  -23.7433  -30.5791   19.4024 H   0  0  0  0  0  0
  -22.7520  -29.2334   19.8785 H   0  0  0  0  0  0
  -25.1331  -36.1892   25.0827 H   0  0  0  0  0  0
  -20.9961  -28.3208   24.1446 H   0  0  0  0  0  0
  -20.5757  -26.2238   23.3594 H   0  0  0  0  0  0
  -21.6661  -26.7489   22.1177 H   0  0  0  0  0  0
  -19.6919  -25.6311   21.1231 H   0  0  0  0  0  0
  -19.6698  -27.3228   20.6779 H   0  0  0  0  0  0
  -17.4231  -26.6714   21.4006 H   0  0  0  0  0  0
  -18.0309  -26.0031   22.8996 H   0  0  0  0  0  0
  -19.7906  -30.7310   24.2254 H   0  0  0  0  0  0
  -17.4965  -31.6284   24.5130 H   0  0  0  0  0  0
  -15.5317  -30.2956   23.7670 H   0  0  0  0  0  0
  -15.8661  -28.0765   22.7138 H   0  0  0  0  0  0
  -24.6006  -30.6888   25.7638 H   0  0  0  0  0  0
  -24.8741  -32.2797   26.4650 H   0  0  0  0  0  0
  -25.8038  -30.8941   27.0178 H   0  0  0  0  0  0
  -26.2784  -29.6756   24.1163 H   0  0  0  0  0  0
  -27.4025  -29.7221   25.4568 H   0  0  0  0  0  0
  -27.8687  -30.4241   23.9239 H   0  0  0  0  0  0
  -27.2791  -33.3627   26.1879 H   0  0  0  0  0  0
  -28.3917  -32.6677   25.0172 H   0  0  0  0  0  0
  -28.0732  -31.8393   26.5332 H   0  0  0  0  0  0
  -28.2630  -38.0040   24.7582 H   0  0  0  0  0  0
  -28.1065  -36.2602   24.6279 H   0  0  0  0  0  0
  -27.2307  -37.1372   25.8873 H   0  0  0  0  0  0
  -20.9367  -29.8552   21.6774 H   0  0  0  0  0  0
  -26.0171  -38.2849   24.1478 H   0  0  0  0  0  0
  -30.1720  -19.3793   22.7189 H   0  0  0  0  0  0
  -30.7987  -17.4917   24.0369 H   0  0  0  0  0  0
  -29.3528  -16.7421   19.3924 H   0  0  0  0  0  0
  -29.7338  -15.3356   23.1293 H   0  0  0  0  0  0
  -31.4314  -15.5011   22.7145 H   0  0  0  0  0  0
  -28.2616  -18.3409   18.4492 H   0  0  0  0  0  0
  -29.7499  -19.2479   18.1970 H   0  0  0  0  0  0
  -28.1898  -20.0595   18.2044 H   0  0  0  0  0  0
  -27.0439  -18.4641   20.7075 H   0  0  0  0  0  0
  -26.7939  -20.1294   20.2240 H   0  0  0  0  0  0
  -27.4327  -19.7612   21.8310 H   0  0  0  0  0  0
  -28.1499  -22.1958   19.1211 H   0  0  0  0  0  0
  -27.6544  -22.1998   20.7794 H   0  0  0  0  0  0
  -27.0833  -24.6465   20.0620 H   0  0  0  0  0  0
  -28.1204  -24.9056   18.6762 H   0  0  0  0  0  0
  -29.7943  -21.1134   21.4878 H   0  0  0  0  0  0
  -30.3916  -21.1062   19.8664 H   0  0  0  0  0  0
  1 25  1  0  0  0
  1 30  2  0  0  0
  1 83  1  0  0  0
  2  3  1  0  0  0
  2 25  1  0  0  0
  2 85  1  0  0  0
  2 86  1  0  0  0
  3  4  1  0  0  0
  3 87  1  0  0  0
  3 88  1  0  0  0
  4  5  1  0  0  0
  4 89  1  0  0  0
  4 90  1  0  0  0
  5  6  1  0  0  0
  5 26  1  0  0  0
  5 91  1  0  0  0
  6 25  1  0  0  0
  6 92  1  0  0  0
  6 93  1  0  0  0
  7  8  2  0  0  0
  7 26  1  0  0  0
  7 29  1  0  0  0
  8  9  1  0  0  0
  8 22  1  0  0  0
  9 10  1  0  0  0
  9 27  2  0  0  0
 10 11  2  0  0  0
 10 15  1  0  0  0
 11 12  1  0  0  0
 11 94  1  0  0  0
 12 13  2  0  0  0
 12 95  1  0  0  0
 13 14  1  0  0  0
 13 31  1  0  0  0
 14 15  2  0  0  0
 14 96  1  0  0  0
 15 97  1  0  0  0
 16 17  2  0  0  0
 16 21  1  0  0  0
 16 31  1  0  0  0
 17 18  1  0  0  0
 17 98  1  0  0  0
 18 19  2  0  0  0
 18 99  1  0  0  0
 19 20  1  0  0  0
 19 24  1  0  0  0
 20 21  2  0  0  0
 20100  1  0  0  0
 21 23  1  0  0  0
 22 28  1  0  0  0
 22 32  2  0  0  0
 26 27  1  0  0  0
 28101  1  0  0  0
 28102  1  0  0  0
 29103  1  0  0  0
 29104  1  0  0  0
 33 34  1  0  0  0
 33 66  1  0  0  0
 33 70  2  0  0  0
 34 36  1  0  0  0
 34 59  1  0  0  0
 34105  1  0  0  0
 35 44  2  0  0  0
 35 45  1  0  0  0
 35 68  1  0  0  0
 36 56  1  0  0  0
 36106  1  0  0  0
 37 39  1  0  0  0
 37 47  1  0  0  0
 37 66  1  0  0  0
 37107  1  0  0  0
 38 43  2  0  0  0
 38 46  1  0  0  0
 38 47  1  0  0  0
 39 64  1  0  0  0
 39 67  2  0  0  0
 40 52  1  0  0  0
 40 53  2  0  0  0
 40 58  1  0  0  0
 41108  1  0  0  0
 41109  1  0  0  0
 41110  1  0  0  0
 41 48  1  0  0  0
 42 43  1  0  0  0
 42 66  1  0  0  0
 42111  1  0  0  0
 42112  1  0  0  0
 43 44  1  0  0  0
 44113  1  0  0  0
 45 46  2  0  0  0
 45114  1  0  0  0
 46115  1  0  0  0
 47116  1  0  0  0
 47117  1  0  0  0
 48 56  1  0  0  0
 48 65  1  0  0  0
 48118  1  0  0  0
 49 50  1  0  0  0
 49 53  1  0  0  0
 49 64  1  0  0  0
 49119  1  0  0  0
 50 51  1  0  0  0
 50120  1  0  0  0
 50121  1  0  0  0
 51 52  1  0  0  0
 51122  1  0  0  0
 51123  1  0  0  0
 52124  1  0  0  0
 52125  1  0  0  0
 53 54  1  0  0  0
 54 55  2  0  0  0
 54126  1  0  0  0
 55 57  1  0  0  0
 55127  1  0  0  0
 56 69  2  0  0  0
 57 58  2  0  0  0
 57128  1  0  0  0
 58129  1  0  0  0
 59 60  1  0  0  0
 59 61  1  0  0  0
 59 62  1  0  0  0
 60130  1  0  0  0
 60131  1  0  0  0
 60132  1  0  0  0
 61133  1  0  0  0
 61134  1  0  0  0
 61135  1  0  0  0
 62136  1  0  0  0
 62137  1  0  0  0
 62138  1  0  0  0
 63 65  1  0  0  0
 63139  1  0  0  0
 63140  1  0  0  0
 63141  1  0  0  0
 64142  1  0  0  0
 65143  1  0  0  0
 68 80  1  0  0  0
 71 72  2  0  0  0
 71 74  1  0  0  0
 71144  1  0  0  0
 72 76  1  0  0  0
 72145  1  0  0  0
 73 74  2  0  0  0
 73 83  1  0  0  0
 73146  1  0  0  0
 74 82  1  0  0  0
 75 79  1  0  0  0
 75 80  1  0  0  0
 75 84  2  0  0  0
 76 83  1  0  0  0
 76147  1  0  0  0
 76148  1  0  0  0
 77149  1  0  0  0
 77150  1  0  0  0
 77151  1  0  0  0
 77 82  1  0  0  0
 78 82  1  0  0  0
 78152  1  0  0  0
 78153  1  0  0  0
 78154  1  0  0  0
 79 81  1  0  0  0
 79155  1  0  0  0
 79156  1  0  0  0
 80157  1  0  0  0
 80158  1  0  0  0
 81 82  1  0  0  0
 81159  1  0  0  0
 81160  1  0  0  0
M  ISO  4   1 100  68 101  80 101  83 100
M  END
> <chiral flag>
0

> <version>
0

> <s_m_source_file>
/data/baiqing/PycharmProjects/Reinvent-master-3.2/result/LINK_invent/BTK/process_docking_weight1_custom_product_contain_oxygen_bond_distance_aromatic_linkinvent_7_9_3/rearranged_h_0142.sdf

> <i_m_source_file_index>
80

> <r_mmod_Potential_Energy-OPLS-2005>
300.025451660156

> <r_mmod_Stretch_Energy-OPLS-2005>
119.979331970215

> <r_mmod_Bend_Energy-OPLS-2005>
172.918472290039

> <r_mmod_Torsional_Energy-OPLS-2005>
303.109832763672

> <r_mmod_Improper_Torsional_Energy-OPLS-2005>
4.44523906707764

> <r_mmod_Van_der_Waal_Energy-OPLS-2005>
144.728759765625

> <r_mmod_Electrostatic_Energy-OPLS-2005>
-299.223480224609

> <r_mmod_Solvation_Energy-OPLS-2005>
-210.453659057617

> <b_mmod_Minimization_Converged-OPLS-2005>
0

> <r_mmod_RMS_Derivative-OPLS-2005>
5.91650390625

$$$$
80
                    3D
 Structure written by MMmdl.
165174  0  0  1  0            999 V2000
  -30.6772  -14.5301   20.5437 C   0  0  0  0  0  0
  -30.4278  -12.3342   19.4306 C   0  0  0  0  0  0
  -29.4966  -12.5062   18.2109 C   0  0  0  0  0  0
  -28.0180  -12.3627   18.6247 C   0  0  0  0  0  0
  -27.6592  -13.2113   19.8751 C   0  0  2  0  0  0
  -28.7056  -13.0104   20.9950 C   0  0  0  0  0  0
  -25.2568  -13.8162   20.5707 C   0  0  0  0  0  0
  -24.1820  -13.0429   20.9173 C   0  0  0  0  0  0
  -24.6387  -11.6900   20.8728 C   0  0  0  0  0  0
  -23.9058  -10.4289   21.0393 C   0  0  0  0  0  0
  -24.3617   -9.4209   21.9175 C   0  0  0  0  0  0
  -23.6290   -8.2243   22.0754 C   0  0  0  0  0  0
  -22.4272   -8.0283   21.3543 C   0  0  0  0  0  0
  -21.9905   -9.0250   20.4641 C   0  0  0  0  0  0
  -22.7232  -10.2126   20.3043 C   0  0  0  0  0  0
  -21.6853   -6.0740   22.5281 C   0  0  0  0  0  0
  -21.4017   -6.5643   23.8215 C   0  0  0  0  0  0
  -21.3658   -5.6795   24.9174 C   0  0  0  0  0  0
  -21.6044   -4.3057   24.7221 C   0  0  0  0  0  0
  -21.8819   -3.8150   23.4341 C   0  0  0  0  0  0
  -21.9193   -4.6969   22.3400 C   0  0  0  0  0  0
  -22.7846  -13.5227   21.1853 C   0  0  0  0  0  0
  -22.1662   -4.2159   21.0976 F   0  0  0  0  0  0
  -21.5625   -3.4537   25.7731 F   0  0  0  0  0  0
  -30.0305  -13.3329   20.4384 N   0  0  0  0  0  0
  -26.3015  -12.9346   20.3398 N   0  0  0  0  0  0
  -25.9320  -11.6500   20.5775 N   0  0  0  0  0  0
  -22.0492  -12.8211   22.0411 N   0  0  0  0  0  0
  -25.4260  -15.1881   20.4157 N   0  0  0  0  0  0
  -31.8201  -14.6889   20.1068 O   0  0  0  0  0  0
  -21.6636   -6.8880   21.4242 O   0  0  0  0  0  0
  -22.3529  -14.5542   20.6722 O   0  0  0  0  0  0
  -24.6193  -31.8646   23.2067 C   0  0  0  0  0  0
  -25.9062  -32.4811   23.8381 C   0  0  1  0  0  0
  -27.2340  -27.3884   20.1083 C   0  0  0  0  0  0
  -25.5896  -33.8609   24.2317 N   0  0  0  0  0  0
  -23.4090  -30.4891   21.5473 C   0  0  2  0  0  0
  -24.8568  -28.9509   20.1136 C   0  0  0  0  0  0
  -22.7449  -29.4641   22.4959 C   0  0  0  0  0  0
  -18.0286  -28.1362   22.8488 C   0  0  0  0  0  0
  -24.1485  -36.7298   23.2644 C   0  0  0  0  0  0
  -25.9439  -30.8184   21.3659 C   0  0  0  0  0  0
  -26.0208  -29.4508   20.7100 C   0  0  0  0  0  0
  -27.2128  -28.6803   20.6970 C   0  0  0  0  0  0
  -26.0468  -26.9193   19.4976 C   0  0  0  0  0  0
  -24.8682  -27.6882   19.5003 C   0  0  0  0  0  0
  -23.6199  -29.8216   20.1629 C   0  0  0  0  0  0
  -25.4101  -36.3097   24.0345 C   0  0  1  0  0  0
  -20.5881  -28.3653   23.1298 C   0  0  2  0  0  0
  -20.6768  -26.9381   22.5400 C   0  0  0  0  0  0
  -19.5742  -26.6366   21.5202 C   0  0  0  0  0  0
  -18.1925  -26.7912   22.1620 C   0  0  0  0  0  0
  -19.1537  -28.8824   23.2895 C   0  0  0  0  0  0
  -18.9467  -30.1429   23.8907 C   0  0  0  0  0  0
  -17.6466  -30.6566   24.0556 C   0  0  0  0  0  0
  -25.9026  -34.9469   23.5129 C   0  0  0  0  0  0
  -16.5354  -29.9060   23.6330 C   0  0  0  0  0  0
  -16.7277  -28.6478   23.0353 C   0  0  0  0  0  0
  -26.4463  -31.6605   25.0730 C   0  0  0  0  0  0
  -25.3716  -31.3718   26.1474 C   0  0  0  0  0  0
  -27.0303  -30.3050   24.6114 C   0  0  0  0  0  0
  -27.6036  -32.4324   25.7499 C   0  0  0  0  0  0
  -27.5576  -37.1809   24.8470 C   0  0  0  0  0  0
  -21.4170  -29.3033   22.3719 N   0  0  0  0  0  0
  -26.4288  -37.3776   23.9412 N   0  0  0  0  0  0
  -24.6757  -31.0721   22.0984 N   0  0  0  0  0  0
  -23.4220  -28.8189   23.3002 O   0  0  0  0  0  0
  -28.3859  -26.6094   20.1457 O   0  0  0  0  0  0
  -26.5588  -34.8931   22.4687 O   0  0  0  0  0  0
  -23.5369  -32.1405   23.7435 O   0  0  0  0  0  0
  -31.4823  -19.0029   20.5584 C   0  0  0  0  0  0
  -31.2318  -17.6176   20.4307 C   0  0  0  0  0  0
  -29.4767  -19.2516   21.8821 C   0  0  0  0  0  0
  -30.6290  -19.8370   21.3132 C   0  0  0  0  0  0
  -29.2160  -17.8457   21.7899 C   0  0  0  0  0  0
  -30.1324  -16.9923   21.0780 C   0  0  0  0  0  0
  -28.0075  -17.2945   22.5040 C   0  0  0  0  0  0
  -31.1104  -21.1796   21.7303 C   0  0  0  0  0  0
  -30.1036  -24.7635   21.8705 C   0  0  0  0  0  0
  -31.1026  -23.6396   22.1534 C   0  0  0  0  0  0
  -29.3797  -22.8072   20.6915 C   0  0  0  0  0  0
  -29.4998  -24.3620   20.5297 C   0  0  1  0  0  0
  -27.0310  -18.2740   23.1479 C   0  0  0  0  0  0
  -28.2143  -25.1638   20.1551 C   0  0  0  0  0  0
  -30.5480  -22.4132   21.5273 N   0  0  0  0  0  0
  -29.9273  -15.5535   21.0267 N   0  0  0  0  0  0
  -32.2500  -21.1448   22.4206 N   0  3  0  0  0  0
  -27.7493  -16.0904   22.5965 O   0  0  0  0  0  0
  -31.4714  -12.4366   19.1279 H   0  0  0  0  0  0
  -30.3369  -11.3275   19.8415 H   0  0  0  0  0  0
  -29.7413  -11.7703   17.4435 H   0  0  0  0  0  0
  -29.6579  -13.4852   17.7568 H   0  0  0  0  0  0
  -27.8353  -11.3075   18.8301 H   0  0  0  0  0  0
  -27.3657  -12.6249   17.7914 H   0  0  0  0  0  0
  -27.6939  -14.2566   19.5680 H   0  0  0  0  0  0
  -28.6939  -11.9752   21.3395 H   0  0  0  0  0  0
  -28.4651  -13.6088   21.8738 H   0  0  0  0  0  0
  -25.2764   -9.5694   22.4743 H   0  0  0  0  0  0
  -24.0005   -7.4643   22.7477 H   0  0  0  0  0  0
  -21.0835   -8.8760   19.8951 H   0  0  0  0  0  0
  -22.3691  -10.9658   19.6145 H   0  0  0  0  0  0
  -21.2014   -7.6153   23.9722 H   0  0  0  0  0  0
  -21.1477   -6.0522   25.9078 H   0  0  0  0  0  0
  -22.0600   -2.7613   23.2834 H   0  0  0  0  0  0
  -22.4093  -11.9860   22.4788 H   0  0  0  0  0  0
  -21.1108  -13.1236   22.2619 H   0  0  0  0  0  0
  -24.6735  -15.8465   20.5816 H   0  0  0  0  0  0
  -26.3115  -15.6348   20.2186 H   0  0  0  0  0  0
  -26.7147  -32.5504   23.1153 H   0  0  0  0  0  0
  -25.0091  -33.9768   25.0494 H   0  0  0  0  0  0
  -22.6986  -31.3066   21.4047 H   0  0  0  0  0  0
  -23.3751  -35.9630   23.3309 H   0  0  0  0  0  0
  -24.3586  -36.8898   22.2058 H   0  0  0  0  0  0
  -23.7242  -37.6510   23.6647 H   0  0  0  0  0  0
  -26.0615  -31.5861   20.5994 H   0  0  0  0  0  0
  -26.8301  -30.8685   21.9870 H   0  0  0  0  0  0
  -28.1101  -29.0611   21.1644 H   0  0  0  0  0  0
  -26.0094  -25.9548   19.0141 H   0  0  0  0  0  0
  -23.9754  -27.2971   19.0318 H   0  0  0  0  0  0
  -23.7292  -30.5960   19.4024 H   0  0  0  0  0  0
  -22.7445  -29.2411   19.8671 H   0  0  0  0  0  0
  -25.1280  -36.1961   25.0839 H   0  0  0  0  0  0
  -20.9976  -28.3202   24.1415 H   0  0  0  0  0  0
  -20.5642  -26.2262   23.3586 H   0  0  0  0  0  0
  -21.6636  -26.7389   22.1202 H   0  0  0  0  0  0
  -19.6893  -25.6283   21.1214 H   0  0  0  0  0  0
  -19.6680  -27.3195   20.6745 H   0  0  0  0  0  0
  -17.4189  -26.6684   21.4019 H   0  0  0  0  0  0
  -18.0311  -26.0037   22.8998 H   0  0  0  0  0  0
  -19.7948  -30.7240   24.2276 H   0  0  0  0  0  0
  -17.5024  -31.6256   24.5140 H   0  0  0  0  0  0
  -15.5357  -30.2960   23.7640 H   0  0  0  0  0  0
  -15.8685  -28.0792   22.7061 H   0  0  0  0  0  0
  -24.5901  -30.7042   25.7816 H   0  0  0  0  0  0
  -24.8890  -32.2877   26.4898 H   0  0  0  0  0  0
  -25.8056  -30.8917   27.0254 H   0  0  0  0  0  0
  -26.2866  -29.6821   24.1128 H   0  0  0  0  0  0
  -27.4050  -29.7263   25.4569 H   0  0  0  0  0  0
  -27.8703  -30.4382   23.9290 H   0  0  0  0  0  0
  -27.2659  -33.3630   26.2068 H   0  0  0  0  0  0
  -28.3849  -32.6865   25.0324 H   0  0  0  0  0  0
  -28.0693  -31.8451   26.5423 H   0  0  0  0  0  0
  -28.2587  -38.0110   24.7498 H   0  0  0  0  0  0
  -28.1077  -36.2638   24.6305 H   0  0  0  0  0  0
  -27.2302  -37.1464   25.8878 H   0  0  0  0  0  0
  -20.9324  -29.8785   21.6973 H   0  0  0  0  0  0
  -26.0179  -38.2861   24.1396 H   0  0  0  0  0  0
  -32.3826  -19.4148   20.1218 H   0  0  0  0  0  0
  -31.9426  -17.0467   19.8536 H   0  0  0  0  0  0
  -28.8485  -19.8929   22.4824 H   0  0  0  0  0  0
  -30.5905  -25.7382   21.8213 H   0  0  0  0  0  0
  -29.3440  -24.8069   22.6517 H   0  0  0  0  0  0
  -31.2545  -23.5235   23.2285 H   0  0  0  0  0  0
  -32.0680  -23.8725   21.7001 H   0  0  0  0  0  0
  -29.3891  -22.3054   19.7227 H   0  0  0  0  0  0
  -28.4561  -22.5362   21.2043 H   0  0  0  0  0  0
  -30.2381  -24.5548   19.7500 H   0  0  0  0  0  0
  -27.5027  -18.7933   23.9819 H   0  0  0  0  0  0
  -26.1635  -17.7382   23.5323 H   0  0  0  0  0  0
  -26.6820  -19.0046   22.4191 H   0  0  0  0  0  0
  -27.4229  -24.9005   20.8588 H   0  0  0  0  0  0
  -27.8894  -24.8308   19.1688 H   0  0  0  0  0  0
  -29.0411  -15.2537   21.4132 H   0  0  0  0  0  0
  -32.6639  -20.2459   22.6181 H   0  0  0  0  0  0
  -32.7074  -21.9707   22.7641 H   0  0  0  0  0  0
  1 25  1  0  0  0
  1 30  2  0  0  0
  1 86  1  0  0  0
  2  3  1  0  0  0
  2 25  1  0  0  0
  2 89  1  0  0  0
  2 90  1  0  0  0
  3  4  1  0  0  0
  3 91  1  0  0  0
  3 92  1  0  0  0
  4  5  1  0  0  0
  4 93  1  0  0  0
  4 94  1  0  0  0
  5  6  1  0  0  0
  5 26  1  0  0  0
  5 95  1  0  0  0
  6 25  1  0  0  0
  6 96  1  0  0  0
  6 97  1  0  0  0
  7  8  2  0  0  0
  7 26  1  0  0  0
  7 29  1  0  0  0
  8  9  1  0  0  0
  8 22  1  0  0  0
  9 10  1  0  0  0
  9 27  2  0  0  0
 10 11  2  0  0  0
 10 15  1  0  0  0
 11 12  1  0  0  0
 11 98  1  0  0  0
 12 13  2  0  0  0
 12 99  1  0  0  0
 13 14  1  0  0  0
 13 31  1  0  0  0
 14 15  2  0  0  0
 14100  1  0  0  0
 15101  1  0  0  0
 16 17  2  0  0  0
 16 21  1  0  0  0
 16 31  1  0  0  0
 17 18  1  0  0  0
 17102  1  0  0  0
 18 19  2  0  0  0
 18103  1  0  0  0
 19 20  1  0  0  0
 19 24  1  0  0  0
 20 21  2  0  0  0
 20104  1  0  0  0
 21 23  1  0  0  0
 22 28  1  0  0  0
 22 32  2  0  0  0
 26 27  1  0  0  0
 28105  1  0  0  0
 28106  1  0  0  0
 29107  1  0  0  0
 29108  1  0  0  0
 33 34  1  0  0  0
 33 66  1  0  0  0
 33 70  2  0  0  0
 34 36  1  0  0  0
 34 59  1  0  0  0
 34109  1  0  0  0
 35 44  2  0  0  0
 35 45  1  0  0  0
 35 68  1  0  0  0
 36 56  1  0  0  0
 36110  1  0  0  0
 37 39  1  0  0  0
 37 47  1  0  0  0
 37 66  1  0  0  0
 37111  1  0  0  0
 38 43  2  0  0  0
 38 46  1  0  0  0
 38 47  1  0  0  0
 39 64  1  0  0  0
 39 67  2  0  0  0
 40 52  1  0  0  0
 40 53  2  0  0  0
 40 58  1  0  0  0
 41112  1  0  0  0
 41113  1  0  0  0
 41114  1  0  0  0
 41 48  1  0  0  0
 42 43  1  0  0  0
 42 66  1  0  0  0
 42115  1  0  0  0
 42116  1  0  0  0
 43 44  1  0  0  0
 44117  1  0  0  0
 45 46  2  0  0  0
 45118  1  0  0  0
 46119  1  0  0  0
 47120  1  0  0  0
 47121  1  0  0  0
 48 56  1  0  0  0
 48 65  1  0  0  0
 48122  1  0  0  0
 49 50  1  0  0  0
 49 53  1  0  0  0
 49 64  1  0  0  0
 49123  1  0  0  0
 50 51  1  0  0  0
 50124  1  0  0  0
 50125  1  0  0  0
 51 52  1  0  0  0
 51126  1  0  0  0
 51127  1  0  0  0
 52128  1  0  0  0
 52129  1  0  0  0
 53 54  1  0  0  0
 54 55  2  0  0  0
 54130  1  0  0  0
 55 57  1  0  0  0
 55131  1  0  0  0
 56 69  2  0  0  0
 57 58  2  0  0  0
 57132  1  0  0  0
 58133  1  0  0  0
 59 60  1  0  0  0
 59 61  1  0  0  0
 59 62  1  0  0  0
 60134  1  0  0  0
 60135  1  0  0  0
 60136  1  0  0  0
 61137  1  0  0  0
 61138  1  0  0  0
 61139  1  0  0  0
 62140  1  0  0  0
 62141  1  0  0  0
 62142  1  0  0  0
 63 65  1  0  0  0
 63143  1  0  0  0
 63144  1  0  0  0
 63145  1  0  0  0
 64146  1  0  0  0
 65147  1  0  0  0
 68 84  1  0  0  0
 71 72  2  0  0  0
 71 74  1  0  0  0
 71148  1  0  0  0
 72 76  1  0  0  0
 72149  1  0  0  0
 73 74  2  0  0  0
 73 75  1  0  0  0
 73150  1  0  0  0
 74 78  1  0  0  0
 75 76  2  0  0  0
 75 77  1  0  0  0
 76 86  1  0  0  0
 77 83  1  0  0  0
 77 88  2  0  0  0
 78 85  1  0  0  0
 78 87  2  0  0  0
 79 80  1  0  0  0
 79 82  1  0  0  0
 79151  1  0  0  0
 79152  1  0  0  0
 80 85  1  0  0  0
 80153  1  0  0  0
 80154  1  0  0  0
 81 82  1  0  0  0
 81 85  1  0  0  0
 81155  1  0  0  0
 81156  1  0  0  0
 82 84  1  0  0  0
 82157  1  0  0  0
 83158  1  0  0  0
 83159  1  0  0  0
 83160  1  0  0  0
 84161  1  0  0  0
 84162  1  0  0  0
 86163  1  0  0  0
 87164  1  0  0  0
 87165  1  0  0  0
M  CHG  1  87   1
M  ISO  4   1 100  68 101  84 101  86 100
M  END
> <chiral flag>
0

> <version>
0

> <s_m_source_file>
/data/baiqing/PycharmProjects/Reinvent-master-3.2/result/LINK_invent/BTK/process_docking_weight1_custom_product_contain_oxygen_bond_distance_aromatic_linkinvent_7_9_3/rearranged_h_0142.sdf

> <i_m_source_file_index>
81

> <r_mmod_Potential_Energy-OPLS-2005>
-51.6686592102051

> <r_mmod_Stretch_Energy-OPLS-2005>
57.4971618652344

> <r_mmod_Bend_Energy-OPLS-2005>
159.508804321289

> <r_mmod_Torsional_Energy-OPLS-2005>
310.640991210938

> <r_mmod_Improper_Torsional_Energy-OPLS-2005>
5.39069509506226

> <r_mmod_Van_der_Waal_Energy-OPLS-2005>
162.601531982422

> <r_mmod_Electrostatic_Energy-OPLS-2005>
-358.868377685547

> <r_mmod_Solvation_Energy-OPLS-2005>
-409.854614257812

> <b_mmod_Minimization_Converged-OPLS-2005>
0

> <r_mmod_RMS_Derivative-OPLS-2005>
1.41429805755615

$$$$
81
                    3D
 Structure written by MMmdl.
170178  0  0  1  0            999 V2000
  -30.6859  -14.3708   20.7426 C   0  0  0  0  0  0
  -30.4206  -12.3193   19.3634 C   0  0  0  0  0  0
  -29.4684  -12.5392   18.1667 C   0  0  0  0  0  0
  -27.9954  -12.3642   18.5882 C   0  0  0  0  0  0
  -27.6566  -13.1732   19.8647 C   0  0  2  0  0  0
  -28.6831  -12.8582   20.9678 C   0  0  0  0  0  0
  -25.2597  -13.8069   20.5613 C   0  0  0  0  0  0
  -24.1832  -13.0425   20.9121 C   0  0  0  0  0  0
  -24.6320  -11.6855   20.8707 C   0  0  0  0  0  0
  -23.8989  -10.4273   21.0421 C   0  0  0  0  0  0
  -24.3576   -9.4196   21.9190 C   0  0  0  0  0  0
  -23.6266   -8.2229   22.0762 C   0  0  0  0  0  0
  -22.4252   -8.0262   21.3543 C   0  0  0  0  0  0
  -21.9874   -9.0237   20.4648 C   0  0  0  0  0  0
  -22.7177  -10.2114   20.3057 C   0  0  0  0  0  0
  -21.6845   -6.0714   22.5276 C   0  0  0  0  0  0
  -21.4009   -6.5630   23.8198 C   0  0  0  0  0  0
  -21.3662   -5.6793   24.9171 C   0  0  0  0  0  0
  -21.6047   -4.3051   24.7227 C   0  0  0  0  0  0
  -21.8819   -3.8135   23.4352 C   0  0  0  0  0  0
  -21.9188   -4.6951   22.3399 C   0  0  0  0  0  0
  -22.7881  -13.5274   21.1819 C   0  0  0  0  0  0
  -22.1662   -4.2132   21.0983 F   0  0  0  0  0  0
  -21.5636   -3.4539   25.7747 F   0  0  0  0  0  0
  -30.0282  -13.2120   20.4613 N   0  0  0  0  0  0
  -26.2957  -12.9164   20.3235 N   0  0  0  0  0  0
  -25.9204  -11.6351   20.5660 N   0  0  0  0  0  0
  -22.0540  -12.8267   22.0359 N   0  0  0  0  0  0
  -25.4426  -15.1780   20.4068 N   0  0  0  0  0  0
  -31.6497  -14.7830   20.0874 O   0  0  0  0  0  0
  -21.6623   -6.8864   21.4238 O   0  0  0  0  0  0
  -22.3610  -14.5620   20.6693 O   0  0  0  0  0  0
  -24.6160  -31.8647   23.2087 C   0  0  0  0  0  0
  -25.9043  -32.4811   23.8393 C   0  0  1  0  0  0
  -27.2657  -27.4378   20.0783 C   0  0  0  0  0  0
  -25.5930  -33.8606   24.2289 N   0  0  0  0  0  0
  -23.4054  -30.4823   21.5509 C   0  0  2  0  0  0
  -24.8607  -28.9461   20.1125 C   0  0  0  0  0  0
  -22.7412  -29.4672   22.5046 C   0  0  0  0  0  0
  -18.0252  -28.1443   22.8446 C   0  0  0  0  0  0
  -24.1496  -36.7290   23.2636 C   0  0  0  0  0  0
  -25.9340  -30.8336   21.3595 C   0  0  0  0  0  0
  -26.0181  -29.4660   20.7041 C   0  0  0  0  0  0
  -27.2195  -28.7182   20.6809 C   0  0  0  0  0  0
  -26.0804  -26.9279   19.4996 C   0  0  0  0  0  0
  -24.8858  -27.6739   19.5128 C   0  0  0  0  0  0
  -23.6158  -29.8054   20.1667 C   0  0  0  0  0  0
  -25.4107  -36.3064   24.0302 C   0  0  1  0  0  0
  -20.5834  -28.3687   23.1349 C   0  0  2  0  0  0
  -20.6768  -26.9439   22.5428 C   0  0  0  0  0  0
  -19.5765  -26.6410   21.5224 C   0  0  0  0  0  0
  -18.1921  -26.7976   22.1605 C   0  0  0  0  0  0
  -19.1501  -28.8889   23.2879 C   0  0  0  0  0  0
  -18.9437  -30.1495   23.8886 C   0  0  0  0  0  0
  -17.6434  -30.6625   24.0556 C   0  0  0  0  0  0
  -25.9032  -34.9450   23.5057 C   0  0  0  0  0  0
  -16.5321  -29.9101   23.6362 C   0  0  0  0  0  0
  -16.7239  -28.6551   23.0309 C   0  0  0  0  0  0
  -26.4475  -31.6598   25.0708 C   0  0  0  0  0  0
  -25.3756  -31.3654   26.1456 C   0  0  0  0  0  0
  -27.0296  -30.3042   24.6051 C   0  0  0  0  0  0
  -27.6037  -32.4343   25.7450 C   0  0  0  0  0  0
  -27.5551  -37.1782   24.8451 C   0  0  0  0  0  0
  -21.4147  -29.3044   22.3768 N   0  0  0  0  0  0
  -26.4272  -37.3764   23.9384 N   0  0  0  0  0  0
  -24.6702  -31.0704   22.1014 N   0  0  0  0  0  0
  -23.4176  -28.8273   23.3128 O   0  0  0  0  0  0
  -28.4715  -26.7526   20.1043 O   0  0  0  0  0  0
  -26.5574  -34.8899   22.4600 O   0  0  0  0  0  0
  -23.5352  -32.1414   23.7481 O   0  0  0  0  0  0
  -32.4401  -19.0704   21.2619 C   0  0  0  0  0  0
  -32.1202  -17.7947   21.7634 C   0  0  0  0  0  0
  -31.4428  -19.8774   20.6744 C   0  0  0  0  0  0
  -29.7919  -18.1427   21.1115 C   0  0  0  0  0  0
  -30.7900  -17.3327   21.7070 C   0  0  0  0  0  0
  -30.1073  -19.4255   20.5933 C   0  0  0  0  0  0
  -30.3931  -16.1034   22.4726 C   0  0  0  0  0  0
  -26.8590  -21.1944   20.8640 C   0  0  0  0  0  0
  -28.8974  -21.4337   22.2414 C   0  0  0  0  0  0
  -29.6427  -24.5452   21.7448 C   0  0  0  0  0  0
  -27.1299  -24.4453   21.4398 C   0  0  0  0  0  0
  -29.0374  -20.3182   19.9360 C   0  0  0  0  0  0
  -28.6586  -22.8625   20.0685 C   0  0  0  0  0  0
  -28.6137  -25.3917   19.6357 C   0  0  0  0  0  0
  -28.3812  -21.4765   20.7911 C   0  0  0  0  0  0
  -28.4930  -24.2833   20.7446 C   0  0  0  0  0  0
  -30.2270  -14.9146   21.8821 N   0  0  0  0  0  0
  -30.1006  -16.2334   23.6644 O   0  0  0  0  0  0
  -31.4560  -12.4754   19.0576 H   0  0  0  0  0  0
  -30.3612  -11.2849   19.7048 H   0  0  0  0  0  0
  -29.7107  -11.8484   17.3566 H   0  0  0  0  0  0
  -29.6076  -13.5403   17.7547 H   0  0  0  0  0  0
  -27.8244  -11.3024   18.7707 H   0  0  0  0  0  0
  -27.3266  -12.6375   17.7701 H   0  0  0  0  0  0
  -27.7315  -14.2315   19.6167 H   0  0  0  0  0  0
  -28.6573  -11.7906   21.1989 H   0  0  0  0  0  0
  -28.3768  -13.3458   21.8941 H   0  0  0  0  0  0
  -25.2734   -9.5675   22.4737 H   0  0  0  0  0  0
  -23.9975   -7.4631   22.7493 H   0  0  0  0  0  0
  -21.0792   -8.8738   19.8971 H   0  0  0  0  0  0
  -22.3638  -10.9646   19.6150 H   0  0  0  0  0  0
  -21.1996   -7.6136   23.9691 H   0  0  0  0  0  0
  -21.1493   -6.0533   25.9070 H   0  0  0  0  0  0
  -22.0594   -2.7597   23.2854 H   0  0  0  0  0  0
  -22.4190  -11.9920   22.4685 H   0  0  0  0  0  0
  -21.1181  -13.1312   22.2629 H   0  0  0  0  0  0
  -24.6951  -15.8497   20.5417 H   0  0  0  0  0  0
  -26.3064  -15.5999   20.0915 H   0  0  0  0  0  0
  -26.7127  -32.5506   23.1177 H   0  0  0  0  0  0
  -25.0196  -33.9791   25.0520 H   0  0  0  0  0  0
  -22.6939  -31.2974   21.4065 H   0  0  0  0  0  0
  -23.3707  -35.9675   23.3336 H   0  0  0  0  0  0
  -24.3621  -36.8916   22.2061 H   0  0  0  0  0  0
  -23.7315  -37.6508   23.6676 H   0  0  0  0  0  0
  -26.0255  -31.6042   20.5930 H   0  0  0  0  0  0
  -26.8289  -30.9035   21.9703 H   0  0  0  0  0  0
  -28.1132  -29.1189   21.1349 H   0  0  0  0  0  0
  -26.0520  -25.9455   19.0553 H   0  0  0  0  0  0
  -23.9932  -27.2539   19.0676 H   0  0  0  0  0  0
  -23.7163  -30.5767   19.4036 H   0  0  0  0  0  0
  -22.7469  -29.2166   19.8700 H   0  0  0  0  0  0
  -25.1300  -36.1888   25.0798 H   0  0  0  0  0  0
  -20.9856  -28.3251   24.1496 H   0  0  0  0  0  0
  -20.5736  -26.2268   23.3568 H   0  0  0  0  0  0
  -21.6644  -26.7553   22.1208 H   0  0  0  0  0  0
  -19.6942  -25.6308   21.1304 H   0  0  0  0  0  0
  -19.6770  -27.3189   20.6731 H   0  0  0  0  0  0
  -17.4204  -26.6714   21.3994 H   0  0  0  0  0  0
  -18.0283  -26.0140   22.9030 H   0  0  0  0  0  0
  -19.7937  -30.7289   24.2264 H   0  0  0  0  0  0
  -17.5023  -31.6322   24.5151 H   0  0  0  0  0  0
  -15.5333  -30.2974   23.7791 H   0  0  0  0  0  0
  -15.8639  -28.0903   22.6969 H   0  0  0  0  0  0
  -24.5954  -30.6975   25.7786 H   0  0  0  0  0  0
  -24.8889  -32.2774   26.4920 H   0  0  0  0  0  0
  -25.8166  -30.8827   27.0200 H   0  0  0  0  0  0
  -26.2841  -29.6770   24.1144 H   0  0  0  0  0  0
  -27.4129  -29.7283   25.4482 H   0  0  0  0  0  0
  -27.8636  -30.4320   23.9142 H   0  0  0  0  0  0
  -27.2672  -33.3658   26.1994 H   0  0  0  0  0  0
  -28.3852  -32.6917   25.0293 H   0  0  0  0  0  0
  -28.0682  -31.8499   26.5407 H   0  0  0  0  0  0
  -28.2553  -38.0090   24.7476 H   0  0  0  0  0  0
  -28.1087  -36.2618   24.6329 H   0  0  0  0  0  0
  -27.2267  -37.1438   25.8858 H   0  0  0  0  0  0
  -20.9329  -29.8677   21.6895 H   0  0  0  0  0  0
  -26.0127  -38.2818   24.1444 H   0  0  0  0  0  0
  -33.4505  -19.4432   21.3566 H   0  0  0  0  0  0
  -32.8854  -17.1943   22.2382 H   0  0  0  0  0  0
  -31.7035  -20.8605   20.3062 H   0  0  0  0  0  0
  -28.7714  -17.7883   21.1079 H   0  0  0  0  0  0
  -26.6690  -20.2090   21.2949 H   0  0  0  0  0  0
  -26.3823  -21.2177   19.8829 H   0  0  0  0  0  0
  -26.3253  -21.9003   21.4955 H   0  0  0  0  0  0
  -28.7352  -20.4595   22.7058 H   0  0  0  0  0  0
  -28.3698  -22.1495   22.8660 H   0  0  0  0  0  0
  -29.9630  -21.6488   22.2919 H   0  0  0  0  0  0
  -29.6218  -23.9023   22.6184 H   0  0  0  0  0  0
  -29.6251  -25.5683   22.1219 H   0  0  0  0  0  0
  -30.6127  -24.4056   21.2659 H   0  0  0  0  0  0
  -27.0239  -23.8126   22.3158 H   0  0  0  0  0  0
  -26.3206  -24.2174   20.7471 H   0  0  0  0  0  0
  -26.9770  -25.4637   21.8008 H   0  0  0  0  0  0
  -28.2666  -19.6638   19.5230 H   0  0  0  0  0  0
  -29.5067  -20.7380   19.0440 H   0  0  0  0  0  0
  -28.0577  -22.8600   19.1579 H   0  0  0  0  0  0
  -29.6857  -22.8380   19.7005 H   0  0  0  0  0  0
  -27.9901  -25.1832   18.7689 H   0  0  0  0  0  0
  -29.6288  -25.3496   19.2334 H   0  0  0  0  0  0
  -29.6394  -14.2911   22.4081 H   0  0  0  0  0  0
  1 25  1  0  0  0
  1 30  2  0  0  0
  1 87  1  0  0  0
  2  3  1  0  0  0
  2 25  1  0  0  0
  2 89  1  0  0  0
  2 90  1  0  0  0
  3  4  1  0  0  0
  3 91  1  0  0  0
  3 92  1  0  0  0
  4  5  1  0  0  0
  4 93  1  0  0  0
  4 94  1  0  0  0
  5  6  1  0  0  0
  5 26  1  0  0  0
  5 95  1  0  0  0
  6 25  1  0  0  0
  6 96  1  0  0  0
  6 97  1  0  0  0
  7  8  2  0  0  0
  7 26  1  0  0  0
  7 29  1  0  0  0
  8  9  1  0  0  0
  8 22  1  0  0  0
  9 10  1  0  0  0
  9 27  2  0  0  0
 10 11  2  0  0  0
 10 15  1  0  0  0
 11 12  1  0  0  0
 11 98  1  0  0  0
 12 13  2  0  0  0
 12 99  1  0  0  0
 13 14  1  0  0  0
 13 31  1  0  0  0
 14 15  2  0  0  0
 14100  1  0  0  0
 15101  1  0  0  0
 16 17  2  0  0  0
 16 21  1  0  0  0
 16 31  1  0  0  0
 17 18  1  0  0  0
 17102  1  0  0  0
 18 19  2  0  0  0
 18103  1  0  0  0
 19 20  1  0  0  0
 19 24  1  0  0  0
 20 21  2  0  0  0
 20104  1  0  0  0
 21 23  1  0  0  0
 22 28  1  0  0  0
 22 32  2  0  0  0
 26 27  1  0  0  0
 28105  1  0  0  0
 28106  1  0  0  0
 29107  1  0  0  0
 29108  1  0  0  0
 33 34  1  0  0  0
 33 66  1  0  0  0
 33 70  2  0  0  0
 34 36  1  0  0  0
 34 59  1  0  0  0
 34109  1  0  0  0
 35 44  2  0  0  0
 35 45  1  0  0  0
 35 68  1  0  0  0
 36 56  1  0  0  0
 36110  1  0  0  0
 37 39  1  0  0  0
 37 47  1  0  0  0
 37 66  1  0  0  0
 37111  1  0  0  0
 38 43  2  0  0  0
 38 46  1  0  0  0
 38 47  1  0  0  0
 39 64  1  0  0  0
 39 67  2  0  0  0
 40 52  1  0  0  0
 40 53  2  0  0  0
 40 58  1  0  0  0
 41112  1  0  0  0
 41113  1  0  0  0
 41114  1  0  0  0
 41 48  1  0  0  0
 42 43  1  0  0  0
 42 66  1  0  0  0
 42115  1  0  0  0
 42116  1  0  0  0
 43 44  1  0  0  0
 44117  1  0  0  0
 45 46  2  0  0  0
 45118  1  0  0  0
 46119  1  0  0  0
 47120  1  0  0  0
 47121  1  0  0  0
 48 56  1  0  0  0
 48 65  1  0  0  0
 48122  1  0  0  0
 49 50  1  0  0  0
 49 53  1  0  0  0
 49 64  1  0  0  0
 49123  1  0  0  0
 50 51  1  0  0  0
 50124  1  0  0  0
 50125  1  0  0  0
 51 52  1  0  0  0
 51126  1  0  0  0
 51127  1  0  0  0
 52128  1  0  0  0
 52129  1  0  0  0
 53 54  1  0  0  0
 54 55  2  0  0  0
 54130  1  0  0  0
 55 57  1  0  0  0
 55131  1  0  0  0
 56 69  2  0  0  0
 57 58  2  0  0  0
 57132  1  0  0  0
 58133  1  0  0  0
 59 60  1  0  0  0
 59 61  1  0  0  0
 59 62  1  0  0  0
 60134  1  0  0  0
 60135  1  0  0  0
 60136  1  0  0  0
 61137  1  0  0  0
 61138  1  0  0  0
 61139  1  0  0  0
 62140  1  0  0  0
 62141  1  0  0  0
 62142  1  0  0  0
 63 65  1  0  0  0
 63143  1  0  0  0
 63144  1  0  0  0
 63145  1  0  0  0
 64146  1  0  0  0
 65147  1  0  0  0
 68 84  1  0  0  0
 71 72  2  0  0  0
 71 73  1  0  0  0
 71148  1  0  0  0
 72 75  1  0  0  0
 72149  1  0  0  0
 73 76  2  0  0  0
 73150  1  0  0  0
 74 75  2  0  0  0
 74 76  1  0  0  0
 74151  1  0  0  0
 75 77  1  0  0  0
 76 82  1  0  0  0
 77 87  1  0  0  0
 77 88  2  0  0  0
 78152  1  0  0  0
 78153  1  0  0  0
 78154  1  0  0  0
 78 85  1  0  0  0
 79 85  1  0  0  0
 79155  1  0  0  0
 79156  1  0  0  0
 79157  1  0  0  0
 80158  1  0  0  0
 80159  1  0  0  0
 80160  1  0  0  0
 80 86  1  0  0  0
 81 86  1  0  0  0
 81161  1  0  0  0
 81162  1  0  0  0
 81163  1  0  0  0
 82 85  1  0  0  0
 82164  1  0  0  0
 82165  1  0  0  0
 83 85  1  0  0  0
 83 86  1  0  0  0
 83166  1  0  0  0
 83167  1  0  0  0
 84 86  1  0  0  0
 84168  1  0  0  0
 84169  1  0  0  0
 87170  1  0  0  0
M  ISO  4   1 100  68 101  84 101  87 100
M  END
> <chiral flag>
0

> <version>
0

> <s_m_source_file>
/data/baiqing/PycharmProjects/Reinvent-master-3.2/result/LINK_invent/BTK/process_docking_weight1_custom_product_contain_oxygen_bond_distance_aromatic_linkinvent_7_9_3/rearranged_h_0142.sdf

> <i_m_source_file_index>
82

> <r_mmod_Potential_Energy-OPLS-2005>
5.69892692565918

> <r_mmod_Stretch_Energy-OPLS-2005>
49.6941261291504

> <r_mmod_Bend_Energy-OPLS-2005>
160.935913085938

> <r_mmod_Torsional_Energy-OPLS-2005>
252.760299682617

> <r_mmod_Improper_Torsional_Energy-OPLS-2005>
4.94052839279175

> <r_mmod_Van_der_Waal_Energy-OPLS-2005>
162.890518188477

> <r_mmod_Electrostatic_Energy-OPLS-2005>
-449.460906982422

> <r_mmod_Solvation_Energy-OPLS-2005>
-191.387603759766

> <b_mmod_Minimization_Converged-OPLS-2005>
0

> <r_mmod_RMS_Derivative-OPLS-2005>
6.15931606292725

$$$$
82
                    3D
 Structure written by MMmdl.
162171  0  0  1  0            999 V2000
  -30.6749  -14.6122   20.5683 C   0  0  0  0  0  0
  -30.4277  -12.3946   19.4513 C   0  0  0  0  0  0
  -29.5025  -12.5180   18.2217 C   0  0  0  0  0  0
  -28.0278  -12.3498   18.6312 C   0  0  0  0  0  0
  -27.6502  -13.2204   19.8576 C   0  0  2  0  0  0
  -28.6886  -13.0754   20.9879 C   0  0  0  0  0  0
  -25.2541  -13.8189   20.5671 C   0  0  0  0  0  0
  -24.1814  -13.0442   20.9162 C   0  0  0  0  0  0
  -24.6386  -11.6914   20.8712 C   0  0  0  0  0  0
  -23.9067  -10.4293   21.0398 C   0  0  0  0  0  0
  -24.3615   -9.4213   21.9174 C   0  0  0  0  0  0
  -23.6285   -8.2256   22.0758 C   0  0  0  0  0  0
  -22.4270   -8.0291   21.3552 C   0  0  0  0  0  0
  -21.9903   -9.0266   20.4658 C   0  0  0  0  0  0
  -22.7238  -10.2138   20.3055 C   0  0  0  0  0  0
  -21.6858   -6.0740   22.5285 C   0  0  0  0  0  0
  -21.4016   -6.5640   23.8216 C   0  0  0  0  0  0
  -21.3658   -5.6791   24.9179 C   0  0  0  0  0  0
  -21.6040   -4.3054   24.7229 C   0  0  0  0  0  0
  -21.8816   -3.8147   23.4345 C   0  0  0  0  0  0
  -21.9188   -4.6965   22.3406 C   0  0  0  0  0  0
  -22.7835  -13.5239   21.1840 C   0  0  0  0  0  0
  -22.1657   -4.2150   21.0982 F   0  0  0  0  0  0
  -21.5627   -3.4535   25.7738 F   0  0  0  0  0  0
  -30.0105  -13.4152   20.4379 N   0  0  0  0  0  0
  -26.2965  -12.9379   20.3278 N   0  0  0  0  0  0
  -25.9311  -11.6530   20.5719 N   0  0  0  0  0  0
  -22.0484  -12.8243   22.0405 N   0  0  0  0  0  0
  -25.4265  -15.1909   20.4146 N   0  0  0  0  0  0
  -31.7922  -14.7720   20.0662 O   0  0  0  0  0  0
  -21.6634   -6.8888   21.4250 O   0  0  0  0  0  0
  -22.3527  -14.5549   20.6703 O   0  0  0  0  0  0
  -24.6244  -31.8597   23.2018 C   0  0  0  0  0  0
  -25.9094  -32.4777   23.8353 C   0  0  1  0  0  0
  -27.2290  -27.3360   20.1182 C   0  0  0  0  0  0
  -25.5909  -33.8579   24.2282 N   0  0  0  0  0  0
  -23.4185  -30.4813   21.5440 C   0  0  2  0  0  0
  -24.8654  -28.9281   20.1184 C   0  0  0  0  0  0
  -22.7468  -29.4621   22.4944 C   0  0  0  0  0  0
  -18.0284  -28.1393   22.8482 C   0  0  0  0  0  0
  -24.1485  -36.7301   23.2643 C   0  0  0  0  0  0
  -25.9565  -30.7946   21.3692 C   0  0  0  0  0  0
  -26.0326  -29.4205   20.7168 C   0  0  0  0  0  0
  -27.2214  -28.6363   20.7033 C   0  0  0  0  0  0
  -26.0416  -26.8788   19.5126 C   0  0  0  0  0  0
  -24.8691  -27.6608   19.5102 C   0  0  0  0  0  0
  -23.6336  -29.8096   20.1618 C   0  0  0  0  0  0
  -25.4109  -36.3091   24.0334 C   0  0  1  0  0  0
  -20.5882  -28.3691   23.1287 C   0  0  2  0  0  0
  -20.6771  -26.9415   22.5411 C   0  0  0  0  0  0
  -19.5750  -26.6389   21.5211 C   0  0  0  0  0  0
  -18.1930  -26.7935   22.1623 C   0  0  0  0  0  0
  -19.1536  -28.8858   23.2882 C   0  0  0  0  0  0
  -18.9462  -30.1458   23.8903 C   0  0  0  0  0  0
  -17.6462  -30.6592   24.0567 C   0  0  0  0  0  0
  -25.9042  -34.9457   23.5111 C   0  0  0  0  0  0
  -16.5352  -29.9094   23.6328 C   0  0  0  0  0  0
  -16.7272  -28.6514   23.0343 C   0  0  0  0  0  0
  -26.4486  -31.6587   25.0722 C   0  0  0  0  0  0
  -25.3730  -31.3722   26.1462 C   0  0  0  0  0  0
  -27.0327  -30.3013   24.6161 C   0  0  0  0  0  0
  -27.6049  -32.4326   25.7486 C   0  0  0  0  0  0
  -27.5577  -37.1809   24.8466 C   0  0  0  0  0  0
  -21.4182  -29.3045   22.3686 N   0  0  0  0  0  0
  -26.4293  -37.3781   23.9407 N   0  0  0  0  0  0
  -24.6855  -31.0618   22.0960 N   0  0  0  0  0  0
  -23.4194  -28.8164   23.3025 O   0  0  0  0  0  0
  -28.3566  -26.5171   20.0877 O   0  0  0  0  0  0
  -26.5615  -34.8923   22.4681 O   0  0  0  0  0  0
  -23.5412  -32.1386   23.7353 O   0  0  0  0  0  0
  -29.3715  -18.9236   19.2748 C   0  0  0  0  0  0
  -29.7250  -17.5465   19.4544 C   0  0  0  0  0  0
  -29.1191  -19.2140   21.6610 C   0  0  0  0  0  0
  -29.4951  -17.8506   21.8256 C   0  0  0  0  0  0
  -29.0451  -19.7939   20.3632 C   0  0  0  0  0  0
  -29.7772  -16.9948   20.7576 C   0  0  0  0  0  0
  -28.5703  -23.9234   19.9348 C   0  0  0  0  0  0
  -29.6177  -17.1064   23.1259 C   0  0  0  0  0  0
  -30.1212  -15.7012   22.7018 C   0  0  0  0  0  0
  -29.1345  -22.6723   22.1204 C   0  0  0  0  0  0
  -30.6613  -22.5158   20.1482 C   0  0  0  0  0  0
  -28.4545  -21.2397   20.1047 C   0  0  0  0  0  0
  -28.2751  -25.2225   20.7900 C   0  0  0  0  0  0
  -29.1819  -22.5892   20.5783 C   0  0  0  0  0  0
  -30.0511  -15.6456   21.2285 N   0  0  0  0  0  0
  -28.3383  -23.9480   18.7219 O   0  0  0  0  0  0
  -31.4709  -12.5061   19.1484 H   0  0  0  0  0  0
  -30.3535  -11.3970   19.8872 H   0  0  0  0  0  0
  -29.7670  -11.7725   17.4701 H   0  0  0  0  0  0
  -29.6421  -13.4927   17.7505 H   0  0  0  0  0  0
  -27.8660  -11.2959   18.8608 H   0  0  0  0  0  0
  -27.3738  -12.5797   17.7886 H   0  0  0  0  0  0
  -27.6728  -14.2578   19.5245 H   0  0  0  0  0  0
  -28.6955  -12.0562   21.3755 H   0  0  0  0  0  0
  -28.3988  -13.7078   21.8242 H   0  0  0  0  0  0
  -25.2768   -9.5672   22.4741 H   0  0  0  0  0  0
  -23.9988   -7.4648   22.7477 H   0  0  0  0  0  0
  -21.0834   -8.8785   19.8967 H   0  0  0  0  0  0
  -22.3698  -10.9673   19.6159 H   0  0  0  0  0  0
  -21.2009   -7.6148   23.9718 H   0  0  0  0  0  0
  -21.1485   -6.0525   25.9083 H   0  0  0  0  0  0
  -22.0591   -2.7609   23.2849 H   0  0  0  0  0  0
  -22.4114  -11.9905   22.4786 H   0  0  0  0  0  0
  -21.1121  -13.1290   22.2653 H   0  0  0  0  0  0
  -24.6653  -15.8496   20.5368 H   0  0  0  0  0  0
  -26.2942  -15.6345   20.1388 H   0  0  0  0  0  0
  -26.7163  -32.5455   23.1105 H   0  0  0  0  0  0
  -25.0050  -33.9719   25.0422 H   0  0  0  0  0  0
  -22.7123  -31.3015   21.3979 H   0  0  0  0  0  0
  -23.3742  -35.9641   23.3322 H   0  0  0  0  0  0
  -24.3568  -36.8905   22.2053 H   0  0  0  0  0  0
  -23.7246  -37.6512   23.6653 H   0  0  0  0  0  0
  -26.0823  -31.5554   20.5979 H   0  0  0  0  0  0
  -26.8389  -30.8477   21.9954 H   0  0  0  0  0  0
  -28.1242  -29.0127   21.1634 H   0  0  0  0  0  0
  -26.0225  -25.9072   19.0383 H   0  0  0  0  0  0
  -23.9725  -27.2764   19.0427 H   0  0  0  0  0  0
  -23.7561  -30.5828   19.4026 H   0  0  0  0  0  0
  -22.7535  -29.2393   19.8593 H   0  0  0  0  0  0
  -25.1289  -36.1952   25.0827 H   0  0  0  0  0  0
  -20.9966  -28.3266   24.1412 H   0  0  0  0  0  0
  -20.5666  -26.2304   23.3612 H   0  0  0  0  0  0
  -21.6643  -26.7444   22.1214 H   0  0  0  0  0  0
  -19.6912  -25.6301   21.1243 H   0  0  0  0  0  0
  -19.6690  -27.3196   20.6742 H   0  0  0  0  0  0
  -17.4195  -26.6674   21.4030 H   0  0  0  0  0  0
  -18.0336  -26.0081   22.9027 H   0  0  0  0  0  0
  -19.7936  -30.7273   24.2278 H   0  0  0  0  0  0
  -17.5018  -31.6271   24.5176 H   0  0  0  0  0  0
  -15.5355  -30.3002   23.7654 H   0  0  0  0  0  0
  -15.8669  -28.0844   22.7047 H   0  0  0  0  0  0
  -24.5890  -30.7083   25.7799 H   0  0  0  0  0  0
  -24.8937  -32.2889   26.4915 H   0  0  0  0  0  0
  -25.8066  -30.8884   27.0224 H   0  0  0  0  0  0
  -26.2894  -29.6768   24.1190 H   0  0  0  0  0  0
  -27.4037  -29.7268   25.4659 H   0  0  0  0  0  0
  -27.8759  -30.4311   23.9372 H   0  0  0  0  0  0
  -27.2657  -33.3619   26.2077 H   0  0  0  0  0  0
  -28.3847  -32.6900   25.0305 H   0  0  0  0  0  0
  -28.0734  -31.8448   26.5391 H   0  0  0  0  0  0
  -28.2611  -38.0091   24.7493 H   0  0  0  0  0  0
  -28.1057  -36.2623   24.6316 H   0  0  0  0  0  0
  -27.2296  -37.1491   25.8871 H   0  0  0  0  0  0
  -20.9363  -29.8771   21.6896 H   0  0  0  0  0  0
  -26.0179  -38.2863   24.1395 H   0  0  0  0  0  0
  -29.3064  -19.3042   18.2649 H   0  0  0  0  0  0
  -29.9336  -16.9274   18.5934 H   0  0  0  0  0  0
  -28.8464  -19.7898   22.5333 H   0  0  0  0  0  0
  -28.6445  -17.0526   23.6153 H   0  0  0  0  0  0
  -30.3174  -17.6025   23.7998 H   0  0  0  0  0  0
  -29.5495  -14.9145   23.1912 H   0  0  0  0  0  0
  -31.1600  -15.5779   23.0146 H   0  0  0  0  0  0
  -29.6786  -23.5327   22.5087 H   0  0  0  0  0  0
  -29.6122  -21.8102   22.5807 H   0  0  0  0  0  0
  -28.1097  -22.7194   22.4905 H   0  0  0  0  0  0
  -31.1989  -23.4320   20.3978 H   0  0  0  0  0  0
  -30.7529  -22.3644   19.0713 H   0  0  0  0  0  0
  -31.1795  -21.6908   20.6380 H   0  0  0  0  0  0
  -27.4497  -21.2367   20.5301 H   0  0  0  0  0  0
  -28.2836  -21.3134   19.0295 H   0  0  0  0  0  0
  -28.9924  -25.2829   21.6050 H   0  0  0  0  0  0
  -27.2952  -25.1052   21.2536 H   0  0  0  0  0  0
  1 25  1  0  0  0
  1 30  2  0  0  0
  1 85  1  0  0  0
  2  3  1  0  0  0
  2 25  1  0  0  0
  2 87  1  0  0  0
  2 88  1  0  0  0
  3  4  1  0  0  0
  3 89  1  0  0  0
  3 90  1  0  0  0
  4  5  1  0  0  0
  4 91  1  0  0  0
  4 92  1  0  0  0
  5  6  1  0  0  0
  5 26  1  0  0  0
  5 93  1  0  0  0
  6 25  1  0  0  0
  6 94  1  0  0  0
  6 95  1  0  0  0
  7  8  2  0  0  0
  7 26  1  0  0  0
  7 29  1  0  0  0
  8  9  1  0  0  0
  8 22  1  0  0  0
  9 10  1  0  0  0
  9 27  2  0  0  0
 10 11  2  0  0  0
 10 15  1  0  0  0
 11 12  1  0  0  0
 11 96  1  0  0  0
 12 13  2  0  0  0
 12 97  1  0  0  0
 13 14  1  0  0  0
 13 31  1  0  0  0
 14 15  2  0  0  0
 14 98  1  0  0  0
 15 99  1  0  0  0
 16 17  2  0  0  0
 16 21  1  0  0  0
 16 31  1  0  0  0
 17 18  1  0  0  0
 17100  1  0  0  0
 18 19  2  0  0  0
 18101  1  0  0  0
 19 20  1  0  0  0
 19 24  1  0  0  0
 20 21  2  0  0  0
 20102  1  0  0  0
 21 23  1  0  0  0
 22 28  1  0  0  0
 22 32  2  0  0  0
 26 27  1  0  0  0
 28103  1  0  0  0
 28104  1  0  0  0
 29105  1  0  0  0
 29106  1  0  0  0
 33 34  1  0  0  0
 33 66  1  0  0  0
 33 70  2  0  0  0
 34 36  1  0  0  0
 34 59  1  0  0  0
 34107  1  0  0  0
 35 44  2  0  0  0
 35 45  1  0  0  0
 35 68  1  0  0  0
 36 56  1  0  0  0
 36108  1  0  0  0
 37 39  1  0  0  0
 37 47  1  0  0  0
 37 66  1  0  0  0
 37109  1  0  0  0
 38 43  2  0  0  0
 38 46  1  0  0  0
 38 47  1  0  0  0
 39 64  1  0  0  0
 39 67  2  0  0  0
 40 52  1  0  0  0
 40 53  2  0  0  0
 40 58  1  0  0  0
 41110  1  0  0  0
 41111  1  0  0  0
 41112  1  0  0  0
 41 48  1  0  0  0
 42 43  1  0  0  0
 42 66  1  0  0  0
 42113  1  0  0  0
 42114  1  0  0  0
 43 44  1  0  0  0
 44115  1  0  0  0
 45 46  2  0  0  0
 45116  1  0  0  0
 46117  1  0  0  0
 47118  1  0  0  0
 47119  1  0  0  0
 48 56  1  0  0  0
 48 65  1  0  0  0
 48120  1  0  0  0
 49 50  1  0  0  0
 49 53  1  0  0  0
 49 64  1  0  0  0
 49121  1  0  0  0
 50 51  1  0  0  0
 50122  1  0  0  0
 50123  1  0  0  0
 51 52  1  0  0  0
 51124  1  0  0  0
 51125  1  0  0  0
 52126  1  0  0  0
 52127  1  0  0  0
 53 54  1  0  0  0
 54 55  2  0  0  0
 54128  1  0  0  0
 55 57  1  0  0  0
 55129  1  0  0  0
 56 69  2  0  0  0
 57 58  2  0  0  0
 57130  1  0  0  0
 58131  1  0  0  0
 59 60  1  0  0  0
 59 61  1  0  0  0
 59 62  1  0  0  0
 60132  1  0  0  0
 60133  1  0  0  0
 60134  1  0  0  0
 61135  1  0  0  0
 61136  1  0  0  0
 61137  1  0  0  0
 62138  1  0  0  0
 62139  1  0  0  0
 62140  1  0  0  0
 63 65  1  0  0  0
 63141  1  0  0  0
 63142  1  0  0  0
 63143  1  0  0  0
 64144  1  0  0  0
 65145  1  0  0  0
 68 83  1  0  0  0
 71 72  2  0  0  0
 71 75  1  0  0  0
 71146  1  0  0  0
 72 76  1  0  0  0
 72147  1  0  0  0
 73 74  1  0  0  0
 73 75  2  0  0  0
 73148  1  0  0  0
 74 76  2  0  0  0
 74 78  1  0  0  0
 75 82  1  0  0  0
 76 85  1  0  0  0
 77 83  1  0  0  0
 77 84  1  0  0  0
 77 86  2  0  0  0
 78 79  1  0  0  0
 78149  1  0  0  0
 78150  1  0  0  0
 79 85  1  0  0  0
 79151  1  0  0  0
 79152  1  0  0  0
 80153  1  0  0  0
 80154  1  0  0  0
 80155  1  0  0  0
 80 84  1  0  0  0
 81 84  1  0  0  0
 81156  1  0  0  0
 81157  1  0  0  0
 81158  1  0  0  0
 82 84  1  0  0  0
 82159  1  0  0  0
 82160  1  0  0  0
 83161  1  0  0  0
 83162  1  0  0  0
M  ISO  4   1 100  68 101  83 101  85 100
M  END
> <chiral flag>
0

> <version>
0

> <s_m_source_file>
/data/baiqing/PycharmProjects/Reinvent-master-3.2/result/LINK_invent/BTK/process_docking_weight1_custom_product_contain_oxygen_bond_distance_aromatic_linkinvent_7_9_3/rearranged_h_0142.sdf

> <i_m_source_file_index>
83

> <r_mmod_Potential_Energy-OPLS-2005>
315.359100341797

> <r_mmod_Stretch_Energy-OPLS-2005>
85.0373992919922

> <r_mmod_Bend_Energy-OPLS-2005>
189.331695556641

> <r_mmod_Torsional_Energy-OPLS-2005>
328.043914794922

> <r_mmod_Improper_Torsional_Energy-OPLS-2005>
4.44873285293579

> <r_mmod_Van_der_Waal_Energy-OPLS-2005>
132.196090698242

> <r_mmod_Electrostatic_Energy-OPLS-2005>
-259.874114990234

> <r_mmod_Solvation_Energy-OPLS-2005>
-201.528991699219

> <b_mmod_Minimization_Converged-OPLS-2005>
0

> <r_mmod_RMS_Derivative-OPLS-2005>
1.78320896625519

$$$$
83
                    3D
 Structure written by MMmdl.
176185  0  0  1  0            999 V2000
  -30.6367  -14.5842   20.4596 C   0  0  0  0  0  0
  -30.4437  -12.3311   19.4614 C   0  0  0  0  0  0
  -29.5115  -12.3915   18.2311 C   0  0  0  0  0  0
  -28.0233  -12.3181   18.6347 C   0  0  0  0  0  0
  -27.6569  -13.2059   19.8561 C   0  0  2  0  0  0
  -28.6992  -13.0561   20.9860 C   0  0  0  0  0  0
  -25.2610  -13.8167   20.5693 C   0  0  0  0  0  0
  -24.1854  -13.0451   20.9196 C   0  0  0  0  0  0
  -24.6399  -11.6916   20.8757 C   0  0  0  0  0  0
  -23.9057  -10.4303   21.0418 C   0  0  0  0  0  0
  -24.3608   -9.4214   21.9189 C   0  0  0  0  0  0
  -23.6288   -8.2248   22.0759 C   0  0  0  0  0  0
  -22.4270   -8.0287   21.3549 C   0  0  0  0  0  0
  -21.9905   -9.0262   20.4656 C   0  0  0  0  0  0
  -22.7231  -10.2145   20.3068 C   0  0  0  0  0  0
  -21.6854   -6.0735   22.5277 C   0  0  0  0  0  0
  -21.4006   -6.5640   23.8209 C   0  0  0  0  0  0
  -21.3663   -5.6794   24.9173 C   0  0  0  0  0  0
  -21.6044   -4.3057   24.7221 C   0  0  0  0  0  0
  -21.8819   -3.8152   23.4343 C   0  0  0  0  0  0
  -21.9192   -4.6964   22.3398 C   0  0  0  0  0  0
  -22.7879  -13.5264   21.1837 C   0  0  0  0  0  0
  -22.1667   -4.2152   21.0974 F   0  0  0  0  0  0
  -21.5628   -3.4542   25.7733 F   0  0  0  0  0  0
  -30.0179  -13.3687   20.4184 N   0  0  0  0  0  0
  -26.3019  -12.9329   20.3305 N   0  0  0  0  0  0
  -25.9324  -11.6498   20.5789 N   0  0  0  0  0  0
  -22.0505  -12.8269   22.0400 N   0  0  0  0  0  0
  -25.4345  -15.1881   20.4109 N   0  0  0  0  0  0
  -31.8211  -14.7258   20.1392 O   0  0  0  0  0  0
  -21.6643   -6.8876   21.4239 O   0  0  0  0  0  0
  -22.3570  -14.5557   20.6670 O   0  0  0  0  0  0
  -24.6194  -31.8640   23.2065 C   0  0  0  0  0  0
  -25.9078  -32.4792   23.8367 C   0  0  1  0  0  0
  -27.2190  -27.3849   20.1234 C   0  0  0  0  0  0
  -25.5919  -33.8585   24.2308 N   0  0  0  0  0  0
  -23.4081  -30.4900   21.5473 C   0  0  2  0  0  0
  -24.8527  -28.9547   20.1079 C   0  0  0  0  0  0
  -22.7432  -29.4654   22.4955 C   0  0  0  0  0  0
  -18.0283  -28.1379   22.8500 C   0  0  0  0  0  0
  -24.1479  -36.7290   23.2638 C   0  0  0  0  0  0
  -25.9418  -30.8187   21.3651 C   0  0  0  0  0  0
  -26.0167  -29.4525   20.7082 C   0  0  0  0  0  0
  -27.2054  -28.6784   20.7060 C   0  0  0  0  0  0
  -26.0426  -26.9254   19.4890 C   0  0  0  0  0  0
  -24.8648  -27.6941   19.4883 C   0  0  0  0  0  0
  -23.6161  -29.8248   20.1604 C   0  0  0  0  0  0
  -25.4103  -36.3084   24.0339 C   0  0  1  0  0  0
  -20.5873  -28.3669   23.1299 C   0  0  2  0  0  0
  -20.6764  -26.9400   22.5409 C   0  0  0  0  0  0
  -19.5741  -26.6384   21.5210 C   0  0  0  0  0  0
  -18.1920  -26.7924   22.1628 C   0  0  0  0  0  0
  -19.1534  -28.8843   23.2900 C   0  0  0  0  0  0
  -18.9458  -30.1444   23.8917 C   0  0  0  0  0  0
  -17.6457  -30.6582   24.0565 C   0  0  0  0  0  0
  -25.9039  -34.9455   23.5124 C   0  0  0  0  0  0
  -16.5347  -29.9080   23.6327 C   0  0  0  0  0  0
  -16.7270  -28.6495   23.0356 C   0  0  0  0  0  0
  -26.4500  -31.6575   25.0707 C   0  0  0  0  0  0
  -25.3764  -31.3682   26.1456 C   0  0  0  0  0  0
  -27.0343  -30.3013   24.6109 C   0  0  0  0  0  0
  -27.6075  -32.4291   25.7470 C   0  0  0  0  0  0
  -27.5575  -37.1795   24.8471 C   0  0  0  0  0  0
  -21.4154  -29.3032   22.3698 N   0  0  0  0  0  0
  -26.4281  -37.3779   23.9423 N   0  0  0  0  0  0
  -24.6751  -31.0718   22.0975 N   0  0  0  0  0  0
  -23.4193  -28.8205   23.3012 O   0  0  0  0  0  0
  -28.3450  -26.5762   20.1995 O   0  0  0  0  0  0
  -26.5593  -34.8923   22.4679 O   0  0  0  0  0  0
  -23.5380  -32.1402   23.7447 O   0  0  0  0  0  0
  -29.9456  -18.3656   18.0093 C   0  0  0  0  0  0
  -29.5478  -18.1521   20.7419 C   0  0  0  0  0  0
  -29.6903  -19.5479   18.7286 C   0  0  0  0  0  0
  -29.9934  -17.0963   18.6068 C   0  0  0  0  0  0
  -29.8429  -16.9575   20.0130 C   0  0  0  0  0  0
  -29.4546  -19.4497   20.1373 C   0  0  0  0  0  0
  -30.3631  -20.9879   16.5944 C   0  0  0  0  0  0
  -30.7199  -21.8085   17.8023 C   0  0  0  0  0  0
  -29.5902  -20.8029   17.8912 C   0  0  0  0  0  0
  -30.0849  -15.9218   17.6552 C   0  0  0  0  0  0
  -30.5384  -24.6419   20.8318 C   0  0  0  0  0  0
  -29.0685  -25.3141   22.7272 C   0  0  0  0  0  0
  -27.3182  -22.6780   22.0440 C   0  0  0  0  0  0
  -29.5892  -22.4501   23.0284 C   0  0  0  0  0  0
  -28.1133  -25.1507   20.4309 C   0  0  0  0  0  0
  -29.2302  -21.9018   20.6208 C   0  0  0  0  0  0
  -29.1226  -24.4671   21.4277 C   0  0  0  0  0  0
  -28.8231  -22.9077   21.7578 C   0  0  0  0  0  0
  -29.8221  -15.6575   20.6670 N   0  0  0  0  0  0
  -29.0756  -20.5037   20.9782 O   0  0  0  0  0  0
  -31.4835  -12.4540   19.1498 H   0  0  0  0  0  0
  -30.3923  -11.3486   19.9328 H   0  0  0  0  0  0
  -29.7441  -11.5615   17.5620 H   0  0  0  0  0  0
  -29.7094  -13.2792   17.6430 H   0  0  0  0  0  0
  -27.8147  -11.2740   18.8695 H   0  0  0  0  0  0
  -27.3875  -12.5639   17.7832 H   0  0  0  0  0  0
  -27.6802  -14.2382   19.5077 H   0  0  0  0  0  0
  -28.6956  -12.0387   21.3799 H   0  0  0  0  0  0
  -28.4603  -13.7046   21.8299 H   0  0  0  0  0  0
  -25.2749   -9.5695   22.4763 H   0  0  0  0  0  0
  -24.0004   -7.4641   22.7477 H   0  0  0  0  0  0
  -21.0832   -8.8779   19.8967 H   0  0  0  0  0  0
  -22.3681  -10.9685   19.6186 H   0  0  0  0  0  0
  -21.1992   -7.6148   23.9710 H   0  0  0  0  0  0
  -21.1490   -6.0525   25.9072 H   0  0  0  0  0  0
  -22.0593   -2.7617   23.2839 H   0  0  0  0  0  0
  -22.4119  -11.9950   22.4821 H   0  0  0  0  0  0
  -21.1127  -13.1328   22.2577 H   0  0  0  0  0  0
  -24.6683  -15.8423   20.5225 H   0  0  0  0  0  0
  -26.2805  -15.6283   20.0725 H   0  0  0  0  0  0
  -26.7148  -32.5491   23.1124 H   0  0  0  0  0  0
  -25.0093  -33.9728   25.0472 H   0  0  0  0  0  0
  -22.6992  -31.3095   21.4087 H   0  0  0  0  0  0
  -23.3738  -35.9625   23.3292 H   0  0  0  0  0  0
  -24.3585  -36.8910   22.2055 H   0  0  0  0  0  0
  -23.7229  -37.6493   23.6655 H   0  0  0  0  0  0
  -26.0610  -31.5839   20.5969 H   0  0  0  0  0  0
  -26.8277  -30.8675   21.9868 H   0  0  0  0  0  0
  -28.0995  -29.0507   21.1868 H   0  0  0  0  0  0
  -26.0207  -25.9585   19.0081 H   0  0  0  0  0  0
  -23.9734  -27.3064   19.0143 H   0  0  0  0  0  0
  -23.7252  -30.6007   19.4016 H   0  0  0  0  0  0
  -22.7389  -29.2467   19.8636 H   0  0  0  0  0  0
  -25.1275  -36.1934   25.0828 H   0  0  0  0  0  0
  -20.9986  -28.3230   24.1411 H   0  0  0  0  0  0
  -20.5649  -26.2282   23.3606 H   0  0  0  0  0  0
  -21.6636  -26.7424   22.1216 H   0  0  0  0  0  0
  -19.6895  -25.6300   21.1227 H   0  0  0  0  0  0
  -19.6667  -27.3209   20.6751 H   0  0  0  0  0  0
  -17.4190  -26.6681   21.4026 H   0  0  0  0  0  0
  -18.0316  -26.0063   22.9022 H   0  0  0  0  0  0
  -19.7931  -30.7256   24.2292 H   0  0  0  0  0  0
  -17.5010  -31.6270   24.5154 H   0  0  0  0  0  0
  -15.5346  -30.2989   23.7637 H   0  0  0  0  0  0
  -15.8673  -28.0815   22.7064 H   0  0  0  0  0  0
  -24.5944  -30.7027   25.7788 H   0  0  0  0  0  0
  -24.8964  -32.2840   26.4904 H   0  0  0  0  0  0
  -25.8128  -30.8847   27.0206 H   0  0  0  0  0  0
  -26.2900  -29.6752   24.1181 H   0  0  0  0  0  0
  -27.4121  -29.7268   25.4573 H   0  0  0  0  0  0
  -27.8726  -30.4314   23.9267 H   0  0  0  0  0  0
  -27.2699  -33.3580   26.2072 H   0  0  0  0  0  0
  -28.3877  -32.6858   25.0294 H   0  0  0  0  0  0
  -28.0757  -31.8399   26.5364 H   0  0  0  0  0  0
  -28.2594  -38.0089   24.7520 H   0  0  0  0  0  0
  -28.1065  -36.2625   24.6281 H   0  0  0  0  0  0
  -27.2307  -37.1432   25.8877 H   0  0  0  0  0  0
  -20.9310  -29.8756   21.6925 H   0  0  0  0  0  0
  -26.0157  -38.2850   24.1426 H   0  0  0  0  0  0
  -30.0474  -18.4209   16.9359 H   0  0  0  0  0  0
  -29.3604  -18.0776   21.8042 H   0  0  0  0  0  0
  -31.0987  -20.2483   16.2853 H   0  0  0  0  0  0
  -29.8622  -21.5077   15.7797 H   0  0  0  0  0  0
  -30.4645  -22.8656   17.7687 H   0  0  0  0  0  0
  -31.6529  -21.5692   18.3077 H   0  0  0  0  0  0
  -28.5594  -21.1496   17.8519 H   0  0  0  0  0  0
  -30.9877  -15.3360   17.8091 H   0  0  0  0  0  0
  -29.1995  -15.3048   17.7893 H   0  0  0  0  0  0
  -30.0935  -16.2370   16.6113 H   0  0  0  0  0  0
  -30.8000  -25.6962   20.7362 H   0  0  0  0  0  0
  -30.6123  -24.2182   19.8312 H   0  0  0  0  0  0
  -31.3065  -24.1751   21.4472 H   0  0  0  0  0  0
  -29.2125  -26.3761   22.5264 H   0  0  0  0  0  0
  -29.8540  -25.0480   23.4334 H   0  0  0  0  0  0
  -28.1109  -25.2204   23.2386 H   0  0  0  0  0  0
  -27.1311  -21.6573   22.3805 H   0  0  0  0  0  0
  -26.7030  -22.8184   21.1550 H   0  0  0  0  0  0
  -26.9356  -23.3394   22.8207 H   0  0  0  0  0  0
  -29.4312  -21.3912   23.2333 H   0  0  0  0  0  0
  -29.2556  -22.9655   23.9291 H   0  0  0  0  0  0
  -30.6644  -22.5951   22.9369 H   0  0  0  0  0  0
  -28.1208  -24.6328   19.4710 H   0  0  0  0  0  0
  -27.1143  -25.0155   20.8454 H   0  0  0  0  0  0
  -30.2763  -22.0458   20.3584 H   0  0  0  0  0  0
  -28.6124  -22.1495   19.7634 H   0  0  0  0  0  0
  -28.9548  -15.4341   21.1316 H   0  0  0  0  0  0
  1 25  1  0  0  0
  1 30  2  0  0  0
  1 89  1  0  0  0
  2  3  1  0  0  0
  2 25  1  0  0  0
  2 91  1  0  0  0
  2 92  1  0  0  0
  3  4  1  0  0  0
  3 93  1  0  0  0
  3 94  1  0  0  0
  4  5  1  0  0  0
  4 95  1  0  0  0
  4 96  1  0  0  0
  5  6  1  0  0  0
  5 26  1  0  0  0
  5 97  1  0  0  0
  6 25  1  0  0  0
  6 98  1  0  0  0
  6 99  1  0  0  0
  7  8  2  0  0  0
  7 26  1  0  0  0
  7 29  1  0  0  0
  8  9  1  0  0  0
  8 22  1  0  0  0
  9 10  1  0  0  0
  9 27  2  0  0  0
 10 11  2  0  0  0
 10 15  1  0  0  0
 11 12  1  0  0  0
 11100  1  0  0  0
 12 13  2  0  0  0
 12101  1  0  0  0
 13 14  1  0  0  0
 13 31  1  0  0  0
 14 15  2  0  0  0
 14102  1  0  0  0
 15103  1  0  0  0
 16 17  2  0  0  0
 16 21  1  0  0  0
 16 31  1  0  0  0
 17 18  1  0  0  0
 17104  1  0  0  0
 18 19  2  0  0  0
 18105  1  0  0  0
 19 20  1  0  0  0
 19 24  1  0  0  0
 20 21  2  0  0  0
 20106  1  0  0  0
 21 23  1  0  0  0
 22 28  1  0  0  0
 22 32  2  0  0  0
 26 27  1  0  0  0
 28107  1  0  0  0
 28108  1  0  0  0
 29109  1  0  0  0
 29110  1  0  0  0
 33 34  1  0  0  0
 33 66  1  0  0  0
 33 70  2  0  0  0
 34 36  1  0  0  0
 34 59  1  0  0  0
 34111  1  0  0  0
 35 44  2  0  0  0
 35 45  1  0  0  0
 35 68  1  0  0  0
 36 56  1  0  0  0
 36112  1  0  0  0
 37 39  1  0  0  0
 37 47  1  0  0  0
 37 66  1  0  0  0
 37113  1  0  0  0
 38 43  2  0  0  0
 38 46  1  0  0  0
 38 47  1  0  0  0
 39 64  1  0  0  0
 39 67  2  0  0  0
 40 52  1  0  0  0
 40 53  2  0  0  0
 40 58  1  0  0  0
 41114  1  0  0  0
 41115  1  0  0  0
 41116  1  0  0  0
 41 48  1  0  0  0
 42 43  1  0  0  0
 42 66  1  0  0  0
 42117  1  0  0  0
 42118  1  0  0  0
 43 44  1  0  0  0
 44119  1  0  0  0
 45 46  2  0  0  0
 45120  1  0  0  0
 46121  1  0  0  0
 47122  1  0  0  0
 47123  1  0  0  0
 48 56  1  0  0  0
 48 65  1  0  0  0
 48124  1  0  0  0
 49 50  1  0  0  0
 49 53  1  0  0  0
 49 64  1  0  0  0
 49125  1  0  0  0
 50 51  1  0  0  0
 50126  1  0  0  0
 50127  1  0  0  0
 51 52  1  0  0  0
 51128  1  0  0  0
 51129  1  0  0  0
 52130  1  0  0  0
 52131  1  0  0  0
 53 54  1  0  0  0
 54 55  2  0  0  0
 54132  1  0  0  0
 55 57  1  0  0  0
 55133  1  0  0  0
 56 69  2  0  0  0
 57 58  2  0  0  0
 57134  1  0  0  0
 58135  1  0  0  0
 59 60  1  0  0  0
 59 61  1  0  0  0
 59 62  1  0  0  0
 60136  1  0  0  0
 60137  1  0  0  0
 60138  1  0  0  0
 61139  1  0  0  0
 61140  1  0  0  0
 61141  1  0  0  0
 62142  1  0  0  0
 62143  1  0  0  0
 62144  1  0  0  0
 63 65  1  0  0  0
 63145  1  0  0  0
 63146  1  0  0  0
 63147  1  0  0  0
 64148  1  0  0  0
 65149  1  0  0  0
 68 85  1  0  0  0
 71 73  2  0  0  0
 71 74  1  0  0  0
 71150  1  0  0  0
 72 75  1  0  0  0
 72 76  2  0  0  0
 72151  1  0  0  0
 73 76  1  0  0  0
 73 79  1  0  0  0
 74 75  2  0  0  0
 74 80  1  0  0  0
 75 89  1  0  0  0
 76 90  1  0  0  0
 77 78  1  0  0  0
 77 79  1  0  0  0
 77152  1  0  0  0
 77153  1  0  0  0
 78 79  1  0  0  0
 78154  1  0  0  0
 78155  1  0  0  0
 79156  1  0  0  0
 80157  1  0  0  0
 80158  1  0  0  0
 80159  1  0  0  0
 81160  1  0  0  0
 81161  1  0  0  0
 81162  1  0  0  0
 81 87  1  0  0  0
 82 87  1  0  0  0
 82163  1  0  0  0
 82164  1  0  0  0
 82165  1  0  0  0
 83166  1  0  0  0
 83167  1  0  0  0
 83168  1  0  0  0
 83 88  1  0  0  0
 84 88  1  0  0  0
 84169  1  0  0  0
 84170  1  0  0  0
 84171  1  0  0  0
 85 87  1  0  0  0
 85172  1  0  0  0
 85173  1  0  0  0
 86 88  1  0  0  0
 86 90  1  0  0  0
 86174  1  0  0  0
 86175  1  0  0  0
 87 88  1  0  0  0
 89176  1  0  0  0
M  ISO  4   1 100  68 101  85 101  89 100
M  END
> <chiral flag>
0

> <version>
0

> <s_m_source_file>
/data/baiqing/PycharmProjects/Reinvent-master-3.2/result/LINK_invent/BTK/process_docking_weight1_custom_product_contain_oxygen_bond_distance_aromatic_linkinvent_7_9_3/rearranged_h_0142.sdf

> <i_m_source_file_index>
84

> <r_mmod_Potential_Energy-OPLS-2005>
148.263427734375

> <r_mmod_Stretch_Energy-OPLS-2005>
70.0493316650391

> <r_mmod_Bend_Energy-OPLS-2005>
147.58837890625

> <r_mmod_Torsional_Energy-OPLS-2005>
314.534820556641

> <r_mmod_Improper_Torsional_Energy-OPLS-2005>
6.90287971496582

> <r_mmod_Van_der_Waal_Energy-OPLS-2005>
173.845703125

> <r_mmod_Electrostatic_Energy-OPLS-2005>
-403.150360107422

> <r_mmod_Solvation_Energy-OPLS-2005>
-197.493728637695

> <b_mmod_Minimization_Converged-OPLS-2005>
0

> <r_mmod_RMS_Derivative-OPLS-2005>
1.69624972343445

$$$$
84
                    3D
 Structure written by MMmdl.
162171  0  0  1  0            999 V2000
  -30.5868  -14.7126   20.4673 C   0  0  0  0  0  0
  -30.4412  -12.4326   19.4605 C   0  0  0  0  0  0
  -29.5134  -12.5054   18.2268 C   0  0  0  0  0  0
  -28.0393  -12.3286   18.6398 C   0  0  0  0  0  0
  -27.6469  -13.2183   19.8502 C   0  0  2  0  0  0
  -28.6913  -13.1155   20.9833 C   0  0  0  0  0  0
  -25.2559  -13.8174   20.5660 C   0  0  0  0  0  0
  -24.1826  -13.0447   20.9178 C   0  0  0  0  0  0
  -24.6380  -11.6901   20.8724 C   0  0  0  0  0  0
  -23.9045  -10.4277   21.0397 C   0  0  0  0  0  0
  -24.3605   -9.4193   21.9192 C   0  0  0  0  0  0
  -23.6262   -8.2237   22.0744 C   0  0  0  0  0  0
  -22.4254   -8.0272   21.3533 C   0  0  0  0  0  0
  -21.9868   -9.0254   20.4652 C   0  0  0  0  0  0
  -22.7211  -10.2122   20.3042 C   0  0  0  0  0  0
  -21.6850   -6.0714   22.5277 C   0  0  0  0  0  0
  -21.4036   -6.5628   23.8211 C   0  0  0  0  0  0
  -21.3634   -5.6789   24.9176 C   0  0  0  0  0  0
  -21.6021   -4.3049   24.7243 C   0  0  0  0  0  0
  -21.8830   -3.8115   23.4373 C   0  0  0  0  0  0
  -21.9199   -4.6930   22.3420 C   0  0  0  0  0  0
  -22.7866  -13.5249   21.1836 C   0  0  0  0  0  0
  -22.1670   -4.2103   21.1004 F   0  0  0  0  0  0
  -21.5575   -3.4557   25.7758 F   0  0  0  0  0  0
  -29.9985  -13.4723   20.4131 N   0  0  0  0  0  0
  -26.2950  -12.9345   20.3236 N   0  0  0  0  0  0
  -25.9308  -11.6501   20.5730 N   0  0  0  0  0  0
  -22.0481  -12.8270   22.0397 N   0  0  0  0  0  0
  -25.4303  -15.1903   20.4098 N   0  0  0  0  0  0
  -31.7691  -14.8614   20.1408 O   0  0  0  0  0  0
  -21.6622   -6.8861   21.4240 O   0  0  0  0  0  0
  -22.3581  -14.5559   20.6670 O   0  0  0  0  0  0
  -24.6299  -31.8578   23.2024 C   0  0  0  0  0  0
  -25.9132  -32.4772   23.8363 C   0  0  1  0  0  0
  -27.2103  -27.2821   20.1246 C   0  0  0  0  0  0
  -25.5958  -33.8565   24.2303 N   0  0  0  0  0  0
  -23.4274  -30.4825   21.5456 C   0  0  2  0  0  0
  -24.8709  -28.9340   20.1141 C   0  0  0  0  0  0
  -22.7508  -29.4616   22.4912 C   0  0  0  0  0  0
  -18.0317  -28.1372   22.8482 C   0  0  0  0  0  0
  -24.1476  -36.7254   23.2637 C   0  0  0  0  0  0
  -25.9725  -30.7767   21.3809 C   0  0  0  0  0  0
  -26.0454  -29.4018   20.7194 C   0  0  0  0  0  0
  -27.2234  -28.5892   20.7133 C   0  0  0  0  0  0
  -26.0178  -26.8790   19.4959 C   0  0  0  0  0  0
  -24.8605  -27.6755   19.4940 C   0  0  0  0  0  0
  -23.6443  -29.8243   20.1611 C   0  0  0  0  0  0
  -25.4107  -36.3074   24.0343 C   0  0  1  0  0  0
  -20.5923  -28.3689   23.1258 C   0  0  2  0  0  0
  -20.6790  -26.9398   22.5415 C   0  0  0  0  0  0
  -19.5777  -26.6369   21.5206 C   0  0  0  0  0  0
  -18.1955  -26.7926   22.1600 C   0  0  0  0  0  0
  -19.1568  -28.8847   23.2871 C   0  0  0  0  0  0
  -18.9488  -30.1442   23.8909 C   0  0  0  0  0  0
  -17.6478  -30.6571   24.0570 C   0  0  0  0  0  0
  -25.9069  -34.9450   23.5131 C   0  0  0  0  0  0
  -16.5370  -29.9073   23.6322 C   0  0  0  0  0  0
  -16.7302  -28.6481   23.0356 C   0  0  0  0  0  0
  -26.4485  -31.6573   25.0731 C   0  0  0  0  0  0
  -25.3707  -31.3752   26.1457 C   0  0  0  0  0  0
  -27.0296  -30.2991   24.6202 C   0  0  0  0  0  0
  -27.6099  -32.4261   25.7463 C   0  0  0  0  0  0
  -27.5598  -37.1747   24.8441 C   0  0  0  0  0  0
  -21.4224  -29.3026   22.3639 N   0  0  0  0  0  0
  -26.4264  -37.3788   23.9441 N   0  0  0  0  0  0
  -24.6963  -31.0557   22.0997 N   0  0  0  0  0  0
  -23.4200  -28.8171   23.3029 O   0  0  0  0  0  0
  -28.2826  -26.3673   20.1354 O   0  0  0  0  0  0
  -26.5645  -34.8921   22.4705 O   0  0  0  0  0  0
  -23.5454  -32.1400   23.7327 O   0  0  0  0  0  0
  -30.6720  -19.4114   20.2425 C   0  0  0  0  0  0
  -30.9419  -17.9825   20.3010 C   0  0  0  0  0  0
  -29.3580  -19.7917   20.4367 C   0  0  0  0  0  0
  -29.8535  -17.1675   20.5609 C   0  0  0  0  0  0
  -27.0585  -22.7170   21.1440 C   0  0  0  0  0  0
  -27.3325  -21.2182   20.9149 C   0  0  0  0  0  0
  -28.0300  -23.5367   20.2507 C   0  0  1  0  0  0
  -29.2821  -22.4918   20.3274 C   0  0  0  0  0  0
  -27.4194  -23.5660   18.8292 C   0  0  0  0  0  0
  -30.1429  -22.7743   21.5794 C   0  0  0  0  0  0
  -30.1944  -22.6078   19.0830 C   0  0  0  0  0  0
  -28.0736  -25.0679   20.8567 C   0  0  0  0  0  0
  -28.7043  -21.0980   20.4385 N   0  0  0  0  0  0
  -29.7373  -15.7779   20.7035 N   0  0  0  0  0  0
  -28.4548  -18.2699   20.7123 S   0  0  0  0  0  0
  -31.4822  -12.5664   19.1622 H   0  0  0  0  0  0
  -30.3830  -11.4478   19.9283 H   0  0  0  0  0  0
  -29.7888  -11.7418   17.4966 H   0  0  0  0  0  0
  -29.6379  -13.4686   17.7300 H   0  0  0  0  0  0
  -27.8944  -11.2766   18.8912 H   0  0  0  0  0  0
  -27.3849  -12.5297   17.7919 H   0  0  0  0  0  0
  -27.6460  -14.2449   19.4834 H   0  0  0  0  0  0
  -28.7197  -12.1062   21.3929 H   0  0  0  0  0  0
  -28.4322  -13.7702   21.8164 H   0  0  0  0  0  0
  -25.2763   -9.5654   22.4773 H   0  0  0  0  0  0
  -23.9940   -7.4638   22.7484 H   0  0  0  0  0  0
  -21.0768   -8.8804   19.9007 H   0  0  0  0  0  0
  -22.3677  -10.9667   19.6145 H   0  0  0  0  0  0
  -21.2075   -7.6147   23.9728 H   0  0  0  0  0  0
  -21.1413   -6.0511   25.9076 H   0  0  0  0  0  0
  -22.0619   -2.7572   23.2923 H   0  0  0  0  0  0
  -22.4069  -11.9956   22.4827 H   0  0  0  0  0  0
  -21.1105  -13.1339   22.2564 H   0  0  0  0  0  0
  -24.6672  -15.8472   20.5286 H   0  0  0  0  0  0
  -26.2671  -15.6218   20.0381 H   0  0  0  0  0  0
  -26.7210  -32.5418   23.1116 H   0  0  0  0  0  0
  -25.0054  -33.9686   25.0418 H   0  0  0  0  0  0
  -22.7249  -31.3070   21.4066 H   0  0  0  0  0  0
  -23.3782  -35.9536   23.3225 H   0  0  0  0  0  0
  -24.3585  -36.8938   22.2067 H   0  0  0  0  0  0
  -23.7157  -37.6404   23.6690 H   0  0  0  0  0  0
  -26.1133  -31.5413   20.6158 H   0  0  0  0  0  0
  -26.8499  -30.8196   22.0163 H   0  0  0  0  0  0
  -28.1232  -28.9424   21.1985 H   0  0  0  0  0  0
  -25.9680  -25.9215   19.0082 H   0  0  0  0  0  0
  -23.9611  -27.3057   19.0197 H   0  0  0  0  0  0
  -23.7748  -30.6089   19.4150 H   0  0  0  0  0  0
  -22.7580  -29.2701   19.8458 H   0  0  0  0  0  0
  -25.1254  -36.1934   25.0830 H   0  0  0  0  0  0
  -21.0016  -28.3275   24.1368 H   0  0  0  0  0  0
  -20.5640  -26.2305   23.3619 H   0  0  0  0  0  0
  -21.6663  -26.7370   22.1245 H   0  0  0  0  0  0
  -19.6927  -25.6284   21.1217 H   0  0  0  0  0  0
  -19.6733  -27.3189   20.6752 H   0  0  0  0  0  0
  -17.4228  -26.6722   21.3986 H   0  0  0  0  0  0
  -18.0319  -26.0045   22.8965 H   0  0  0  0  0  0
  -19.7958  -30.7263   24.2276 H   0  0  0  0  0  0
  -17.5025  -31.6237   24.5204 H   0  0  0  0  0  0
  -15.5370  -30.2977   23.7617 H   0  0  0  0  0  0
  -15.8706  -28.0789   22.7071 H   0  0  0  0  0  0
  -24.5931  -30.7023   25.7808 H   0  0  0  0  0  0
  -24.8828  -32.2917   26.4787 H   0  0  0  0  0  0
  -25.8018  -30.9018   27.0290 H   0  0  0  0  0  0
  -26.2851  -29.6759   24.1229 H   0  0  0  0  0  0
  -27.3974  -29.7241   25.4711 H   0  0  0  0  0  0
  -27.8741  -30.4262   23.9432 H   0  0  0  0  0  0
  -27.2792  -33.3576   26.2070 H   0  0  0  0  0  0
  -28.3880  -32.6773   25.0238 H   0  0  0  0  0  0
  -28.0790  -31.8339   26.5331 H   0  0  0  0  0  0
  -28.2550  -38.0110   24.7603 H   0  0  0  0  0  0
  -28.1144  -36.2653   24.6081 H   0  0  0  0  0  0
  -27.2337  -37.1188   25.8841 H   0  0  0  0  0  0
  -20.9422  -29.8721   21.6818 H   0  0  0  0  0  0
  -26.0142  -38.2827   24.1564 H   0  0  0  0  0  0
  -31.4833  -20.1019   20.0607 H   0  0  0  0  0  0
  -31.9454  -17.6139   20.1514 H   0  0  0  0  0  0
  -27.2476  -22.9419   22.1958 H   0  0  0  0  0  0
  -26.0079  -22.9602   20.9751 H   0  0  0  0  0  0
  -26.6587  -20.8203   20.1533 H   0  0  0  0  0  0
  -27.1667  -20.6515   21.8330 H   0  0  0  0  0  0
  -27.4377  -22.5827   18.3561 H   0  0  0  0  0  0
  -27.9573  -24.2543   18.1756 H   0  0  0  0  0  0
  -26.3714  -23.8649   18.8478 H   0  0  0  0  0  0
  -30.6324  -23.7468   21.5124 H   0  0  0  0  0  0
  -30.9387  -22.0387   21.6995 H   0  0  0  0  0  0
  -29.5539  -22.7671   22.4958 H   0  0  0  0  0  0
  -30.4028  -23.6494   18.8411 H   0  0  0  0  0  0
  -29.7417  -22.1584   18.1979 H   0  0  0  0  0  0
  -31.1636  -22.1279   19.2214 H   0  0  0  0  0  0
  -28.7686  -25.0883   21.6943 H   0  0  0  0  0  0
  -27.1115  -25.1927   21.3585 H   0  0  0  0  0  0
  -28.8053  -15.4661   20.9375 H   0  0  0  0  0  0
  1 25  1  0  0  0
  1 30  2  0  0  0
  1 84  1  0  0  0
  2  3  1  0  0  0
  2 25  1  0  0  0
  2 86  1  0  0  0
  2 87  1  0  0  0
  3  4  1  0  0  0
  3 88  1  0  0  0
  3 89  1  0  0  0
  4  5  1  0  0  0
  4 90  1  0  0  0
  4 91  1  0  0  0
  5  6  1  0  0  0
  5 26  1  0  0  0
  5 92  1  0  0  0
  6 25  1  0  0  0
  6 93  1  0  0  0
  6 94  1  0  0  0
  7  8  2  0  0  0
  7 26  1  0  0  0
  7 29  1  0  0  0
  8  9  1  0  0  0
  8 22  1  0  0  0
  9 10  1  0  0  0
  9 27  2  0  0  0
 10 11  2  0  0  0
 10 15  1  0  0  0
 11 12  1  0  0  0
 11 95  1  0  0  0
 12 13  2  0  0  0
 12 96  1  0  0  0
 13 14  1  0  0  0
 13 31  1  0  0  0
 14 15  2  0  0  0
 14 97  1  0  0  0
 15 98  1  0  0  0
 16 17  2  0  0  0
 16 21  1  0  0  0
 16 31  1  0  0  0
 17 18  1  0  0  0
 17 99  1  0  0  0
 18 19  2  0  0  0
 18100  1  0  0  0
 19 20  1  0  0  0
 19 24  1  0  0  0
 20 21  2  0  0  0
 20101  1  0  0  0
 21 23  1  0  0  0
 22 28  1  0  0  0
 22 32  2  0  0  0
 26 27  1  0  0  0
 28102  1  0  0  0
 28103  1  0  0  0
 29104  1  0  0  0
 29105  1  0  0  0
 33 34  1  0  0  0
 33 66  1  0  0  0
 33 70  2  0  0  0
 34 36  1  0  0  0
 34 59  1  0  0  0
 34106  1  0  0  0
 35 44  2  0  0  0
 35 45  1  0  0  0
 35 68  1  0  0  0
 36 56  1  0  0  0
 36107  1  0  0  0
 37 39  1  0  0  0
 37 47  1  0  0  0
 37 66  1  0  0  0
 37108  1  0  0  0
 38 43  2  0  0  0
 38 46  1  0  0  0
 38 47  1  0  0  0
 39 64  1  0  0  0
 39 67  2  0  0  0
 40 52  1  0  0  0
 40 53  2  0  0  0
 40 58  1  0  0  0
 41109  1  0  0  0
 41110  1  0  0  0
 41111  1  0  0  0
 41 48  1  0  0  0
 42 43  1  0  0  0
 42 66  1  0  0  0
 42112  1  0  0  0
 42113  1  0  0  0
 43 44  1  0  0  0
 44114  1  0  0  0
 45 46  2  0  0  0
 45115  1  0  0  0
 46116  1  0  0  0
 47117  1  0  0  0
 47118  1  0  0  0
 48 56  1  0  0  0
 48 65  1  0  0  0
 48119  1  0  0  0
 49 50  1  0  0  0
 49 53  1  0  0  0
 49 64  1  0  0  0
 49120  1  0  0  0
 50 51  1  0  0  0
 50121  1  0  0  0
 50122  1  0  0  0
 51 52  1  0  0  0
 51123  1  0  0  0
 51124  1  0  0  0
 52125  1  0  0  0
 52126  1  0  0  0
 53 54  1  0  0  0
 54 55  2  0  0  0
 54127  1  0  0  0
 55 57  1  0  0  0
 55128  1  0  0  0
 56 69  2  0  0  0
 57 58  2  0  0  0
 57129  1  0  0  0
 58130  1  0  0  0
 59 60  1  0  0  0
 59 61  1  0  0  0
 59 62  1  0  0  0
 60131  1  0  0  0
 60132  1  0  0  0
 60133  1  0  0  0
 61134  1  0  0  0
 61135  1  0  0  0
 61136  1  0  0  0
 62137  1  0  0  0
 62138  1  0  0  0
 62139  1  0  0  0
 63 65  1  0  0  0
 63140  1  0  0  0
 63141  1  0  0  0
 63142  1  0  0  0
 64143  1  0  0  0
 65144  1  0  0  0
 68 82  1  0  0  0
 71 72  1  0  0  0
 71 73  2  0  0  0
 71145  1  0  0  0
 72 74  2  0  0  0
 72146  1  0  0  0
 73 83  1  0  0  0
 73 85  1  0  0  0
 74 84  1  0  0  0
 74 85  1  0  0  0
 75 76  1  0  0  0
 75 77  1  0  0  0
 75147  1  0  0  0
 75148  1  0  0  0
 76 83  1  0  0  0
 76149  1  0  0  0
 76150  1  0  0  0
 77 78  1  0  0  0
 77 79  1  0  0  0
 77 82  1  0  0  0
 78 80  1  0  0  0
 78 81  1  0  0  0
 78 83  1  0  0  0
 79151  1  0  0  0
 79152  1  0  0  0
 79153  1  0  0  0
 80154  1  0  0  0
 80155  1  0  0  0
 80156  1  0  0  0
 81157  1  0  0  0
 81158  1  0  0  0
 81159  1  0  0  0
 82160  1  0  0  0
 82161  1  0  0  0
 84162  1  0  0  0
M  ISO  4   1 100  68 101  82 101  84 100
M  END
> <chiral flag>
0

> <version>
0

> <s_m_source_file>
/data/baiqing/PycharmProjects/Reinvent-master-3.2/result/LINK_invent/BTK/process_docking_weight1_custom_product_contain_oxygen_bond_distance_aromatic_linkinvent_7_9_3/rearranged_h_0142.sdf

> <i_m_source_file_index>
85

> <r_mmod_Potential_Energy-OPLS-2005>
263.961578369141

> <r_mmod_Stretch_Energy-OPLS-2005>
114.738677978516

> <r_mmod_Bend_Energy-OPLS-2005>
226.071685791016

> <r_mmod_Torsional_Energy-OPLS-2005>
331.166870117188

> <r_mmod_Improper_Torsional_Energy-OPLS-2005>
5.35007238388062

> <r_mmod_Van_der_Waal_Energy-OPLS-2005>
121.075584411621

> <r_mmod_Electrostatic_Energy-OPLS-2005>
-403.862884521484

> <r_mmod_Solvation_Energy-OPLS-2005>
-205.881530761719

> <b_mmod_Minimization_Converged-OPLS-2005>
0

> <r_mmod_RMS_Derivative-OPLS-2005>
3.82981991767883

$$$$
85
                    3D
 Structure written by MMmdl.
169177  0  0  1  0            999 V2000
  -30.6177  -14.6137   20.5158 C   0  0  0  0  0  0
  -30.4448  -12.3810   19.4449 C   0  0  0  0  0  0
  -29.5154  -12.5118   18.2188 C   0  0  0  0  0  0
  -28.0354  -12.3545   18.6270 C   0  0  0  0  0  0
  -27.6574  -13.2125   19.8652 C   0  0  2  0  0  0
  -28.6988  -13.0390   20.9935 C   0  0  0  0  0  0
  -25.2581  -13.8171   20.5657 C   0  0  0  0  0  0
  -24.1838  -13.0430   20.9172 C   0  0  0  0  0  0
  -24.6400  -11.6899   20.8710 C   0  0  0  0  0  0
  -23.9058  -10.4286   21.0392 C   0  0  0  0  0  0
  -24.3610   -9.4210   21.9175 C   0  0  0  0  0  0
  -23.6285   -8.2249   22.0754 C   0  0  0  0  0  0
  -22.4269   -8.0279   21.3548 C   0  0  0  0  0  0
  -21.9901   -9.0251   20.4652 C   0  0  0  0  0  0
  -22.7228  -10.2130   20.3055 C   0  0  0  0  0  0
  -21.6851   -6.0729   22.5278 C   0  0  0  0  0  0
  -21.4009   -6.5633   23.8212 C   0  0  0  0  0  0
  -21.3661   -5.6790   24.9176 C   0  0  0  0  0  0
  -21.6048   -4.3054   24.7225 C   0  0  0  0  0  0
  -21.8820   -3.8141   23.4347 C   0  0  0  0  0  0
  -21.9192   -4.6959   22.3401 C   0  0  0  0  0  0
  -22.7869  -13.5237   21.1838 C   0  0  0  0  0  0
  -22.1662   -4.2142   21.0982 F   0  0  0  0  0  0
  -21.5629   -3.4536   25.7740 F   0  0  0  0  0  0
  -30.0177  -13.3859   20.4374 N   0  0  0  0  0  0
  -26.2999  -12.9332   20.3288 N   0  0  0  0  0  0
  -25.9325  -11.6484   20.5707 N   0  0  0  0  0  0
  -22.0490  -12.8242   22.0398 N   0  0  0  0  0  0
  -25.4274  -15.1895   20.4101 N   0  0  0  0  0  0
  -31.7689  -14.7984   20.1072 O   0  0  0  0  0  0
  -21.6644   -6.8870   21.4237 O   0  0  0  0  0  0
  -22.3557  -14.5537   20.6685 O   0  0  0  0  0  0
  -24.6221  -31.8615   23.2042 C   0  0  0  0  0  0
  -25.9089  -32.4782   23.8358 C   0  0  1  0  0  0
  -27.2282  -27.3483   20.1312 C   0  0  0  0  0  0
  -25.5919  -33.8584   24.2270 N   0  0  0  0  0  0
  -23.4135  -30.4837   21.5441 C   0  0  2  0  0  0
  -24.8618  -28.9353   20.1157 C   0  0  0  0  0  0
  -22.7449  -29.4634   22.4946 C   0  0  0  0  0  0
  -18.0281  -28.1391   22.8489 C   0  0  0  0  0  0
  -24.1484  -36.7299   23.2639 C   0  0  0  0  0  0
  -25.9489  -30.8040   21.3663 C   0  0  0  0  0  0
  -26.0262  -29.4291   20.7183 C   0  0  0  0  0  0
  -27.2137  -28.6468   20.7162 C   0  0  0  0  0  0
  -26.0469  -26.8929   19.5101 C   0  0  0  0  0  0
  -24.8716  -27.6707   19.5014 C   0  0  0  0  0  0
  -23.6281  -29.8128   20.1600 C   0  0  0  0  0  0
  -25.4108  -36.3083   24.0326 C   0  0  1  0  0  0
  -20.5877  -28.3683   23.1296 C   0  0  2  0  0  0
  -20.6770  -26.9407   22.5423 C   0  0  0  0  0  0
  -19.5745  -26.6391   21.5217 C   0  0  0  0  0  0
  -18.1921  -26.7936   22.1624 C   0  0  0  0  0  0
  -19.1532  -28.8851   23.2889 C   0  0  0  0  0  0
  -18.9463  -30.1455   23.8905 C   0  0  0  0  0  0
  -17.6465  -30.6591   24.0569 C   0  0  0  0  0  0
  -25.9045  -34.9456   23.5094 C   0  0  0  0  0  0
  -16.5353  -29.9095   23.6334 C   0  0  0  0  0  0
  -16.7272  -28.6516   23.0347 C   0  0  0  0  0  0
  -26.4498  -31.6588   25.0712 C   0  0  0  0  0  0
  -25.3751  -31.3738   26.1450 C   0  0  0  0  0  0
  -27.0333  -30.3020   24.6142 C   0  0  0  0  0  0
  -27.6056  -32.4311   25.7502 C   0  0  0  0  0  0
  -27.5564  -37.1807   24.8465 C   0  0  0  0  0  0
  -21.4165  -29.3046   22.3699 N   0  0  0  0  0  0
  -26.4274  -37.3780   23.9411 N   0  0  0  0  0  0
  -24.6801  -31.0662   22.0967 N   0  0  0  0  0  0
  -23.4195  -28.8180   23.3014 O   0  0  0  0  0  0
  -28.3681  -26.5462   20.1266 O   0  0  0  0  0  0
  -26.5607  -34.8927   22.4658 O   0  0  0  0  0  0
  -23.5390  -32.1389   23.7396 O   0  0  0  0  0  0
  -30.1061  -19.1681   20.2858 C   0  0  0  0  0  0
  -30.5609  -18.0027   21.0257 C   0  0  0  0  0  0
  -29.0100  -18.7685   19.5671 C   0  0  0  0  0  0
  -29.7935  -16.9522   20.5530 C   0  0  0  0  0  0
  -30.4739  -21.8051   20.2413 C   0  0  0  0  0  0
  -30.8377  -20.4831   20.1309 C   0  0  0  0  0  0
  -28.0985  -19.4499   18.6035 C   0  0  0  0  0  0
  -32.2686  -20.2282   19.6601 C   0  0  0  0  0  0
  -31.1514  -17.3761   23.4152 C   0  0  0  0  0  0
  -30.3205  -24.6053   19.2758 C   0  0  0  0  0  0
  -28.1156  -23.7158   18.5465 C   0  0  0  0  0  0
  -31.6510  -17.9308   22.0750 C   0  0  0  0  0  0
  -29.2019  -22.6343   20.5849 C   0  0  0  0  0  0
  -28.2641  -25.1624   20.6228 C   0  0  0  0  0  0
  -28.9832  -24.0177   19.7805 C   0  0  0  0  0  0
  -29.8159  -15.6306   20.9460 N   0  0  0  0  0  0
  -28.8031  -17.4203   19.7354 O   0  0  0  0  0  0
  -31.4851  -12.5150   19.1417 H   0  0  0  0  0  0
  -30.3829  -11.3782   19.8698 H   0  0  0  0  0  0
  -29.7808  -11.7665   17.4680 H   0  0  0  0  0  0
  -29.6665  -13.4835   17.7451 H   0  0  0  0  0  0
  -27.8679  -11.2999   18.8454 H   0  0  0  0  0  0
  -27.3876  -12.5953   17.7848 H   0  0  0  0  0  0
  -27.6837  -14.2527   19.5408 H   0  0  0  0  0  0
  -28.7040  -12.0076   21.3531 H   0  0  0  0  0  0
  -28.4417  -13.6522   21.8585 H   0  0  0  0  0  0
  -25.2755   -9.5694   22.4742 H   0  0  0  0  0  0
  -23.9995   -7.4649   22.7480 H   0  0  0  0  0  0
  -21.0827   -8.8763   19.8968 H   0  0  0  0  0  0
  -22.3678  -10.9657   19.6162 H   0  0  0  0  0  0
  -21.2003   -7.6140   23.9709 H   0  0  0  0  0  0
  -21.1484   -6.0522   25.9076 H   0  0  0  0  0  0
  -22.0599   -2.7597   23.2853 H   0  0  0  0  0  0
  -22.4086  -11.9919   22.4820 H   0  0  0  0  0  0
  -21.1104  -13.1287   22.2566 H   0  0  0  0  0  0
  -24.6547  -15.8368   20.5206 H   0  0  0  0  0  0
  -26.2733  -15.6359   20.0776 H   0  0  0  0  0  0
  -26.7159  -32.5474   23.1114 H   0  0  0  0  0  0
  -25.0107  -33.9745   25.0440 H   0  0  0  0  0  0
  -22.7045  -31.3020   21.4007 H   0  0  0  0  0  0
  -23.3735  -35.9639   23.3311 H   0  0  0  0  0  0
  -24.3582  -36.8915   22.2052 H   0  0  0  0  0  0
  -23.7251  -37.6511   23.6656 H   0  0  0  0  0  0
  -26.0652  -31.5629   20.5907 H   0  0  0  0  0  0
  -26.8358  -30.8643   21.9869 H   0  0  0  0  0  0
  -28.1103  -29.0212   21.1896 H   0  0  0  0  0  0
  -26.0354  -25.9255   19.0286 H   0  0  0  0  0  0
  -23.9814  -27.2885   19.0203 H   0  0  0  0  0  0
  -23.7442  -30.5856   19.3987 H   0  0  0  0  0  0
  -22.7495  -29.2391   19.8578 H   0  0  0  0  0  0
  -25.1289  -36.1931   25.0815 H   0  0  0  0  0  0
  -20.9971  -28.3263   24.1415 H   0  0  0  0  0  0
  -20.5668  -26.2291   23.3625 H   0  0  0  0  0  0
  -21.6639  -26.7450   22.1211 H   0  0  0  0  0  0
  -19.6904  -25.6308   21.1240 H   0  0  0  0  0  0
  -19.6680  -27.3204   20.6750 H   0  0  0  0  0  0
  -17.4193  -26.6675   21.4027 H   0  0  0  0  0  0
  -18.0323  -26.0077   22.9022 H   0  0  0  0  0  0
  -19.7941  -30.7262   24.2270 H   0  0  0  0  0  0
  -17.5031  -31.6277   24.5168 H   0  0  0  0  0  0
  -15.5356  -30.3005   23.7669 H   0  0  0  0  0  0
  -15.8667  -28.0855   22.7047 H   0  0  0  0  0  0
  -24.5918  -30.7082   25.7804 H   0  0  0  0  0  0
  -24.8954  -32.2911   26.4870 H   0  0  0  0  0  0
  -25.8094  -30.8937   27.0226 H   0  0  0  0  0  0
  -26.2897  -29.6784   24.1160 H   0  0  0  0  0  0
  -27.4041  -29.7265   25.4637 H   0  0  0  0  0  0
  -27.8761  -30.4323   23.9348 H   0  0  0  0  0  0
  -27.2657  -33.3598   26.2104 H   0  0  0  0  0  0
  -28.3877  -32.6886   25.0345 H   0  0  0  0  0  0
  -28.0704  -31.8414   26.5415 H   0  0  0  0  0  0
  -28.2588  -38.0097   24.7493 H   0  0  0  0  0  0
  -28.1044  -36.2628   24.6294 H   0  0  0  0  0  0
  -27.2291  -37.1473   25.8872 H   0  0  0  0  0  0
  -20.9322  -29.8786   21.6939 H   0  0  0  0  0  0
  -26.0150  -38.2848   24.1423 H   0  0  0  0  0  0
  -31.3033  -22.4717   20.0785 H   0  0  0  0  0  0
  -27.0815  -19.0684   18.6934 H   0  0  0  0  0  0
  -28.4320  -19.2904   17.5785 H   0  0  0  0  0  0
  -28.0699  -20.5249   18.7765 H   0  0  0  0  0  0
  -32.8521  -19.6807   20.3945 H   0  0  0  0  0  0
  -32.8241  -21.1431   19.4504 H   0  0  0  0  0  0
  -32.2589  -19.6419   18.7408 H   0  0  0  0  0  0
  -31.9438  -17.3917   24.1635 H   0  0  0  0  0  0
  -30.8068  -16.3464   23.3260 H   0  0  0  0  0  0
  -30.3228  -17.9721   23.7988 H   0  0  0  0  0  0
  -30.8137  -23.9517   18.5547 H   0  0  0  0  0  0
  -31.0081  -24.7903   20.1016 H   0  0  0  0  0  0
  -30.1715  -25.5510   18.7538 H   0  0  0  0  0  0
  -28.5775  -22.9575   17.9136 H   0  0  0  0  0  0
  -27.9643  -24.6078   17.9371 H   0  0  0  0  0  0
  -27.1282  -23.3511   18.8338 H   0  0  0  0  0  0
  -32.0484  -18.9276   22.2623 H   0  0  0  0  0  0
  -32.4718  -17.3224   21.6941 H   0  0  0  0  0  0
  -29.3200  -22.8872   21.6391 H   0  0  0  0  0  0
  -28.3189  -21.9961   20.5535 H   0  0  0  0  0  0
  -27.2268  -24.8805   20.8088 H   0  0  0  0  0  0
  -28.7200  -25.1807   21.6137 H   0  0  0  0  0  0
  -28.9181  -15.2827   21.2410 H   0  0  0  0  0  0
  1 25  1  0  0  0
  1 30  2  0  0  0
  1 86  1  0  0  0
  2  3  1  0  0  0
  2 25  1  0  0  0
  2 88  1  0  0  0
  2 89  1  0  0  0
  3  4  1  0  0  0
  3 90  1  0  0  0
  3 91  1  0  0  0
  4  5  1  0  0  0
  4 92  1  0  0  0
  4 93  1  0  0  0
  5  6  1  0  0  0
  5 26  1  0  0  0
  5 94  1  0  0  0
  6 25  1  0  0  0
  6 95  1  0  0  0
  6 96  1  0  0  0
  7  8  2  0  0  0
  7 26  1  0  0  0
  7 29  1  0  0  0
  8  9  1  0  0  0
  8 22  1  0  0  0
  9 10  1  0  0  0
  9 27  2  0  0  0
 10 11  2  0  0  0
 10 15  1  0  0  0
 11 12  1  0  0  0
 11 97  1  0  0  0
 12 13  2  0  0  0
 12 98  1  0  0  0
 13 14  1  0  0  0
 13 31  1  0  0  0
 14 15  2  0  0  0
 14 99  1  0  0  0
 15100  1  0  0  0
 16 17  2  0  0  0
 16 21  1  0  0  0
 16 31  1  0  0  0
 17 18  1  0  0  0
 17101  1  0  0  0
 18 19  2  0  0  0
 18102  1  0  0  0
 19 20  1  0  0  0
 19 24  1  0  0  0
 20 21  2  0  0  0
 20103  1  0  0  0
 21 23  1  0  0  0
 22 28  1  0  0  0
 22 32  2  0  0  0
 26 27  1  0  0  0
 28104  1  0  0  0
 28105  1  0  0  0
 29106  1  0  0  0
 29107  1  0  0  0
 33 34  1  0  0  0
 33 66  1  0  0  0
 33 70  2  0  0  0
 34 36  1  0  0  0
 34 59  1  0  0  0
 34108  1  0  0  0
 35 44  2  0  0  0
 35 45  1  0  0  0
 35 68  1  0  0  0
 36 56  1  0  0  0
 36109  1  0  0  0
 37 39  1  0  0  0
 37 47  1  0  0  0
 37 66  1  0  0  0
 37110  1  0  0  0
 38 43  2  0  0  0
 38 46  1  0  0  0
 38 47  1  0  0  0
 39 64  1  0  0  0
 39 67  2  0  0  0
 40 52  1  0  0  0
 40 53  2  0  0  0
 40 58  1  0  0  0
 41111  1  0  0  0
 41112  1  0  0  0
 41113  1  0  0  0
 41 48  1  0  0  0
 42 43  1  0  0  0
 42 66  1  0  0  0
 42114  1  0  0  0
 42115  1  0  0  0
 43 44  1  0  0  0
 44116  1  0  0  0
 45 46  2  0  0  0
 45117  1  0  0  0
 46118  1  0  0  0
 47119  1  0  0  0
 47120  1  0  0  0
 48 56  1  0  0  0
 48 65  1  0  0  0
 48121  1  0  0  0
 49 50  1  0  0  0
 49 53  1  0  0  0
 49 64  1  0  0  0
 49122  1  0  0  0
 50 51  1  0  0  0
 50123  1  0  0  0
 50124  1  0  0  0
 51 52  1  0  0  0
 51125  1  0  0  0
 51126  1  0  0  0
 52127  1  0  0  0
 52128  1  0  0  0
 53 54  1  0  0  0
 54 55  2  0  0  0
 54129  1  0  0  0
 55 57  1  0  0  0
 55130  1  0  0  0
 56 69  2  0  0  0
 57 58  2  0  0  0
 57131  1  0  0  0
 58132  1  0  0  0
 59 60  1  0  0  0
 59 61  1  0  0  0
 59 62  1  0  0  0
 60133  1  0  0  0
 60134  1  0  0  0
 60135  1  0  0  0
 61136  1  0  0  0
 61137  1  0  0  0
 61138  1  0  0  0
 62139  1  0  0  0
 62140  1  0  0  0
 62141  1  0  0  0
 63 65  1  0  0  0
 63142  1  0  0  0
 63143  1  0  0  0
 63144  1  0  0  0
 64145  1  0  0  0
 65146  1  0  0  0
 68 84  1  0  0  0
 71 72  1  0  0  0
 71 73  2  0  0  0
 71 76  1  0  0  0
 72 74  2  0  0  0
 72 82  1  0  0  0
 73 77  1  0  0  0
 73 87  1  0  0  0
 74 86  1  0  0  0
 74 87  1  0  0  0
 75 76  2  0  0  0
 75 83  1  0  0  0
 75147  1  0  0  0
 76 78  1  0  0  0
 77148  1  0  0  0
 77149  1  0  0  0
 77150  1  0  0  0
 78151  1  0  0  0
 78152  1  0  0  0
 78153  1  0  0  0
 79 82  1  0  0  0
 79154  1  0  0  0
 79155  1  0  0  0
 79156  1  0  0  0
 80157  1  0  0  0
 80158  1  0  0  0
 80159  1  0  0  0
 80 85  1  0  0  0
 81 85  1  0  0  0
 81160  1  0  0  0
 81161  1  0  0  0
 81162  1  0  0  0
 82163  1  0  0  0
 82164  1  0  0  0
 83 85  1  0  0  0
 83165  1  0  0  0
 83166  1  0  0  0
 84 85  1  0  0  0
 84167  1  0  0  0
 84168  1  0  0  0
 86169  1  0  0  0
M  ISO  4   1 100  68 101  84 101  86 100
M  END
> <chiral flag>
0

> <version>
0

> <s_m_source_file>
/data/baiqing/PycharmProjects/Reinvent-master-3.2/result/LINK_invent/BTK/process_docking_weight1_custom_product_contain_oxygen_bond_distance_aromatic_linkinvent_7_9_3/rearranged_h_0142.sdf

> <i_m_source_file_index>
86

> <r_mmod_Potential_Energy-OPLS-2005>
97.8763275146484

> <r_mmod_Stretch_Energy-OPLS-2005>
70.2319793701172

> <r_mmod_Bend_Energy-OPLS-2005>
174.453353881836

> <r_mmod_Torsional_Energy-OPLS-2005>
286.150207519531

> <r_mmod_Improper_Torsional_Energy-OPLS-2005>
8.33545112609863

> <r_mmod_Van_der_Waal_Energy-OPLS-2005>
120.161972045898

> <r_mmod_Electrostatic_Energy-OPLS-2005>
-411.3837890625

> <r_mmod_Solvation_Energy-OPLS-2005>
-186.726760864258

> <b_mmod_Minimization_Converged-OPLS-2005>
0

> <r_mmod_RMS_Derivative-OPLS-2005>
2.19324946403503

$$$$
86
                    3D
 Structure written by MMmdl.
177185  0  0  1  0            999 V2000
  -30.6645  -14.5179   20.5574 C   0  0  0  0  0  0
  -30.4313  -12.3211   19.4525 C   0  0  0  0  0  0
  -29.5063  -12.4668   18.2292 C   0  0  0  0  0  0
  -28.0362  -12.2952   18.6596 C   0  0  0  0  0  0
  -27.6527  -13.1903   19.8681 C   0  0  2  0  0  0
  -28.6889  -13.0327   21.0039 C   0  0  0  0  0  0
  -25.2573  -13.8126   20.5816 C   0  0  0  0  0  0
  -24.1811  -13.0396   20.9324 C   0  0  0  0  0  0
  -24.6376  -11.6880   20.8865 C   0  0  0  0  0  0
  -23.9047  -10.4272   21.0490 C   0  0  0  0  0  0
  -24.3626   -9.4166   21.9227 C   0  0  0  0  0  0
  -23.6288   -8.2192   22.0760 C   0  0  0  0  0  0
  -22.4263   -8.0274   21.3557 C   0  0  0  0  0  0
  -21.9911   -9.0247   20.4669 C   0  0  0  0  0  0
  -22.7251  -10.2128   20.3098 C   0  0  0  0  0  0
  -21.6784   -6.0764   22.5283 C   0  0  0  0  0  0
  -21.3934   -6.5643   23.8221 C   0  0  0  0  0  0
  -21.3632   -5.6812   24.9186 C   0  0  0  0  0  0
  -21.6037   -4.3064   24.7243 C   0  0  0  0  0  0
  -21.8803   -3.8170   23.4357 C   0  0  0  0  0  0
  -21.9173   -4.6986   22.3421 C   0  0  0  0  0  0
  -22.7844  -13.5234   21.1942 C   0  0  0  0  0  0
  -22.1654   -4.2180   21.1001 F   0  0  0  0  0  0
  -21.5658   -3.4547   25.7760 F   0  0  0  0  0  0
  -30.0187  -13.3273   20.4464 N   0  0  0  0  0  0
  -26.2948  -12.9238   20.3344 N   0  0  0  0  0  0
  -25.9276  -11.6426   20.5869 N   0  0  0  0  0  0
  -22.0460  -12.8199   22.0480 N   0  0  0  0  0  0
  -25.4153  -15.1861   20.4358 N   0  0  0  0  0  0
  -31.8177  -14.6926   20.1544 O   0  0  0  0  0  0
  -21.6579   -6.8897   21.4253 O   0  0  0  0  0  0
  -22.3535  -14.5558   20.6826 O   0  0  0  0  0  0
  -24.6217  -31.8584   23.2056 C   0  0  0  0  0  0
  -25.9080  -32.4769   23.8325 C   0  0  1  0  0  0
  -27.1940  -27.3585   20.1164 C   0  0  0  0  0  0
  -25.5918  -33.8567   24.2279 N   0  0  0  0  0  0
  -23.4072  -30.4832   21.5532 C   0  0  2  0  0  0
  -24.8429  -28.9496   20.1136 C   0  0  0  0  0  0
  -22.7430  -29.4582   22.4991 C   0  0  0  0  0  0
  -18.0311  -28.1261   22.8443 C   0  0  0  0  0  0
  -24.1530  -36.7317   23.2622 C   0  0  0  0  0  0
  -25.9441  -30.8082   21.3658 C   0  0  0  0  0  0
  -26.0142  -29.4405   20.7065 C   0  0  0  0  0  0
  -27.1972  -28.6542   20.6980 C   0  0  0  0  0  0
  -26.0057  -26.9088   19.4958 C   0  0  0  0  0  0
  -24.8361  -27.6876   19.5050 C   0  0  0  0  0  0
  -23.6112  -29.8239   20.1668 C   0  0  0  0  0  0
  -25.4141  -36.3070   24.0315 C   0  0  1  0  0  0
  -20.5899  -28.3611   23.1268 C   0  0  2  0  0  0
  -20.6899  -26.9460   22.5115 C   0  0  0  0  0  0
  -19.5824  -26.6506   21.4959 C   0  0  0  0  0  0
  -18.2018  -26.7894   22.1423 C   0  0  0  0  0  0
  -19.1542  -28.8743   23.2867 C   0  0  0  0  0  0
  -18.9426  -30.1385   23.8786 C   0  0  0  0  0  0
  -17.6418  -30.6484   24.0479 C   0  0  0  0  0  0
  -25.9055  -34.9440   23.5101 C   0  0  0  0  0  0
  -16.5331  -29.8913   23.6292 C   0  0  0  0  0  0
  -16.7280  -28.6361   23.0273 C   0  0  0  0  0  0
  -26.4578  -31.6488   25.0580 C   0  0  0  0  0  0
  -25.3951  -31.3573   26.1427 C   0  0  0  0  0  0
  -27.0289  -30.2911   24.5845 C   0  0  0  0  0  0
  -27.6240  -32.4130   25.7259 C   0  0  0  0  0  0
  -27.5601  -37.1822   24.8467 C   0  0  0  0  0  0
  -21.4135  -29.3126   22.3844 N   0  0  0  0  0  0
  -26.4313  -37.3763   23.9414 N   0  0  0  0  0  0
  -24.6772  -31.0652   22.0992 N   0  0  0  0  0  0
  -23.4214  -28.7994   23.2915 O   0  0  0  0  0  0
  -28.3044  -26.5277   20.1929 O   0  0  0  0  0  0
  -26.5642  -34.8912   22.4669 O   0  0  0  0  0  0
  -23.5409  -32.1325   23.7466 O   0  0  0  0  0  0
  -28.1419  -18.4671   18.0693 C   0  0  0  0  0  0
  -29.0679  -19.2529   20.5623 C   0  0  0  0  0  0
  -28.9856  -17.5984   18.7852 C   0  0  0  0  0  0
  -27.8068  -19.7663   18.5172 C   0  0  0  0  0  0
  -29.3830  -17.9381   20.1045 C   0  0  0  0  0  0
  -28.3577  -20.1964   19.7637 C   0  0  0  0  0  0
  -29.0186  -24.2715   21.0448 C   0  0  0  0  0  0
  -29.4686  -16.3578   18.0449 C   0  0  0  0  0  0
  -25.4592  -19.9257   17.5988 C   0  0  0  0  0  0
  -27.3895  -20.6583   16.1573 C   0  0  0  0  0  0
  -26.6544  -22.0725   18.0097 C   0  0  0  0  0  0
  -29.6797  -22.5555   22.8336 C   0  0  0  0  0  0
  -27.5415  -23.8020   23.0523 C   0  0  0  0  0  0
  -30.1978  -16.9866   21.0164 C   0  0  0  0  0  0
  -28.0190  -25.0923   20.1952 C   0  0  0  0  0  0
  -27.7487  -21.9701   21.3390 C   0  0  0  0  0  0
  -26.8536  -20.5972   17.6053 C   0  0  0  0  0  0
  -28.5035  -23.1543   22.0254 C   0  0  0  0  0  0
  -29.8813  -15.5443   20.9595 N   0  0  0  0  0  0
  -30.2283  -24.5025   20.9384 O   0  0  0  0  0  0
  -28.3499  -21.5380   20.1150 O   0  0  0  0  0  0
  -31.4741  -12.4303   19.1587 H   0  0  0  0  0  0
  -30.3395  -11.3166   19.8691 H   0  0  0  0  0  0
  -29.7675  -11.7267   17.4702 H   0  0  0  0  0  0
  -29.6553  -13.4348   17.7587 H   0  0  0  0  0  0
  -27.9056  -11.2528   18.9545 H   0  0  0  0  0  0
  -27.3650  -12.4586   17.8185 H   0  0  0  0  0  0
  -27.6696  -14.2209   19.5229 H   0  0  0  0  0  0
  -28.6770  -12.0210   21.4084 H   0  0  0  0  0  0
  -28.4329  -13.6770   21.8465 H   0  0  0  0  0  0
  -25.2776   -9.5585   22.4797 H   0  0  0  0  0  0
  -23.9956   -7.4544   22.7457 H   0  0  0  0  0  0
  -21.0817   -8.8778   19.9001 H   0  0  0  0  0  0
  -22.3693  -10.9662   19.6200 H   0  0  0  0  0  0
  -21.1833   -7.6136   23.9702 H   0  0  0  0  0  0
  -21.1476   -6.0562   25.9094 H   0  0  0  0  0  0
  -22.0608   -2.7632   23.2856 H   0  0  0  0  0  0
  -22.4143  -11.9915   22.4914 H   0  0  0  0  0  0
  -21.1044  -13.1154   22.2642 H   0  0  0  0  0  0
  -24.6423  -15.8163   20.6250 H   0  0  0  0  0  0
  -26.2508  -15.6594   20.1124 H   0  0  0  0  0  0
  -26.7092  -32.5493   23.1029 H   0  0  0  0  0  0
  -24.9961  -33.9703   25.0358 H   0  0  0  0  0  0
  -22.6980  -31.3001   21.4160 H   0  0  0  0  0  0
  -23.3770  -35.9671   23.3270 H   0  0  0  0  0  0
  -24.3610  -36.8942   22.2031 H   0  0  0  0  0  0
  -23.7323  -37.6527   23.6658 H   0  0  0  0  0  0
  -26.0608  -31.5801   20.6027 H   0  0  0  0  0  0
  -26.8342  -30.8614   21.9807 H   0  0  0  0  0  0
  -28.0983  -29.0142   21.1774 H   0  0  0  0  0  0
  -25.9486  -25.9404   19.0208 H   0  0  0  0  0  0
  -23.9291  -27.2997   19.0604 H   0  0  0  0  0  0
  -23.7321  -30.6029   19.4141 H   0  0  0  0  0  0
  -22.7264  -29.2590   19.8646 H   0  0  0  0  0  0
  -25.1339  -36.1871   25.0804 H   0  0  0  0  0  0
  -20.9977  -28.3037   24.1399 H   0  0  0  0  0  0
  -20.6090  -26.2113   23.3119 H   0  0  0  0  0  0
  -21.6750  -26.7765   22.0688 H   0  0  0  0  0  0
  -19.7065  -25.6493   21.0802 H   0  0  0  0  0  0
  -19.6733  -27.3413   20.6546 H   0  0  0  0  0  0
  -17.4335  -26.6791   21.3746 H   0  0  0  0  0  0
  -18.0396  -25.9886   22.8656 H   0  0  0  0  0  0
  -19.7887  -30.7307   24.1973 H   0  0  0  0  0  0
  -17.4921  -31.6181   24.4992 H   0  0  0  0  0  0
  -15.5315  -30.2797   23.7587 H   0  0  0  0  0  0
  -15.8720  -28.0694   22.6883 H   0  0  0  0  0  0
  -24.5780  -30.7392   25.7702 H   0  0  0  0  0  0
  -24.9663  -32.2757   26.5436 H   0  0  0  0  0  0
  -25.8302  -30.8129   26.9812 H   0  0  0  0  0  0
  -26.2832  -29.6827   24.0710 H   0  0  0  0  0  0
  -27.3862  -29.6955   25.4247 H   0  0  0  0  0  0
  -27.8745  -30.4177   23.9078 H   0  0  0  0  0  0
  -27.2924  -33.3392   26.1972 H   0  0  0  0  0  0
  -28.3953  -32.6727   24.9986 H   0  0  0  0  0  0
  -28.1015  -31.8120   26.5006 H   0  0  0  0  0  0
  -28.2601  -38.0141   24.7524 H   0  0  0  0  0  0
  -28.1121  -36.2666   24.6298 H   0  0  0  0  0  0
  -27.2301  -37.1468   25.8863 H   0  0  0  0  0  0
  -20.9239  -29.9183   21.7429 H   0  0  0  0  0  0
  -26.0185  -38.2815   24.1466 H   0  0  0  0  0  0
  -27.7776  -18.1202   17.1157 H   0  0  0  0  0  0
  -29.4316  -19.5701   21.5279 H   0  0  0  0  0  0
  -30.5229  -16.1399   18.2169 H   0  0  0  0  0  0
  -29.3728  -16.4990   16.9706 H   0  0  0  0  0  0
  -28.8749  -15.4862   18.2922 H   0  0  0  0  0  0
  -25.4712  -18.9303   17.1576 H   0  0  0  0  0  0
  -24.7338  -20.5120   17.0342 H   0  0  0  0  0  0
  -25.0632  -19.8198   18.6103 H   0  0  0  0  0  0
  -27.5201  -19.6797   15.7047 H   0  0  0  0  0  0
  -28.3601  -21.1600   16.1209 H   0  0  0  0  0  0
  -26.7112  -21.2174   15.5089 H   0  0  0  0  0  0
  -26.2481  -22.1705   19.0125 H   0  0  0  0  0  0
  -25.9441  -22.5711   17.3500 H   0  0  0  0  0  0
  -27.5930  -22.6265   17.9435 H   0  0  0  0  0  0
  -30.2931  -23.3310   23.2966 H   0  0  0  0  0  0
  -30.3275  -21.9452   22.2021 H   0  0  0  0  0  0
  -29.3120  -21.9193   23.6418 H   0  0  0  0  0  0
  -26.7303  -24.3571   22.5837 H   0  0  0  0  0  0
  -28.0714  -24.4877   23.7147 H   0  0  0  0  0  0
  -27.0728  -23.0440   23.6817 H   0  0  0  0  0  0
  -29.9916  -17.2785   22.0464 H   0  0  0  0  0  0
  -31.2647  -17.1573   20.8637 H   0  0  0  0  0  0
  -27.0170  -24.8732   20.5621 H   0  0  0  0  0  0
  -28.0651  -24.7111   19.1740 H   0  0  0  0  0  0
  -26.7193  -22.2743   21.1396 H   0  0  0  0  0  0
  -27.6573  -21.1412   22.0422 H   0  0  0  0  0  0
  -28.9475  -15.2924   21.2393 H   0  0  0  0  0  0
  1 25  1  0  0  0
  1 30  2  0  0  0
  1 89  1  0  0  0
  2  3  1  0  0  0
  2 25  1  0  0  0
  2 92  1  0  0  0
  2 93  1  0  0  0
  3  4  1  0  0  0
  3 94  1  0  0  0
  3 95  1  0  0  0
  4  5  1  0  0  0
  4 96  1  0  0  0
  4 97  1  0  0  0
  5  6  1  0  0  0
  5 26  1  0  0  0
  5 98  1  0  0  0
  6 25  1  0  0  0
  6 99  1  0  0  0
  6100  1  0  0  0
  7  8  2  0  0  0
  7 26  1  0  0  0
  7 29  1  0  0  0
  8  9  1  0  0  0
  8 22  1  0  0  0
  9 10  1  0  0  0
  9 27  2  0  0  0
 10 11  2  0  0  0
 10 15  1  0  0  0
 11 12  1  0  0  0
 11101  1  0  0  0
 12 13  2  0  0  0
 12102  1  0  0  0
 13 14  1  0  0  0
 13 31  1  0  0  0
 14 15  2  0  0  0
 14103  1  0  0  0
 15104  1  0  0  0
 16 17  2  0  0  0
 16 21  1  0  0  0
 16 31  1  0  0  0
 17 18  1  0  0  0
 17105  1  0  0  0
 18 19  2  0  0  0
 18106  1  0  0  0
 19 20  1  0  0  0
 19 24  1  0  0  0
 20 21  2  0  0  0
 20107  1  0  0  0
 21 23  1  0  0  0
 22 28  1  0  0  0
 22 32  2  0  0  0
 26 27  1  0  0  0
 28108  1  0  0  0
 28109  1  0  0  0
 29110  1  0  0  0
 29111  1  0  0  0
 33 34  1  0  0  0
 33 66  1  0  0  0
 33 70  2  0  0  0
 34 36  1  0  0  0
 34 59  1  0  0  0
 34112  1  0  0  0
 35 44  2  0  0  0
 35 45  1  0  0  0
 35 68  1  0  0  0
 36 56  1  0  0  0
 36113  1  0  0  0
 37 39  1  0  0  0
 37 47  1  0  0  0
 37 66  1  0  0  0
 37114  1  0  0  0
 38 43  2  0  0  0
 38 46  1  0  0  0
 38 47  1  0  0  0
 39 64  1  0  0  0
 39 67  2  0  0  0
 40 52  1  0  0  0
 40 53  2  0  0  0
 40 58  1  0  0  0
 41115  1  0  0  0
 41116  1  0  0  0
 41117  1  0  0  0
 41 48  1  0  0  0
 42 43  1  0  0  0
 42 66  1  0  0  0
 42118  1  0  0  0
 42119  1  0  0  0
 43 44  1  0  0  0
 44120  1  0  0  0
 45 46  2  0  0  0
 45121  1  0  0  0
 46122  1  0  0  0
 47123  1  0  0  0
 47124  1  0  0  0
 48 56  1  0  0  0
 48 65  1  0  0  0
 48125  1  0  0  0
 49 50  1  0  0  0
 49 53  1  0  0  0
 49 64  1  0  0  0
 49126  1  0  0  0
 50 51  1  0  0  0
 50127  1  0  0  0
 50128  1  0  0  0
 51 52  1  0  0  0
 51129  1  0  0  0
 51130  1  0  0  0
 52131  1  0  0  0
 52132  1  0  0  0
 53 54  1  0  0  0
 54 55  2  0  0  0
 54133  1  0  0  0
 55 57  1  0  0  0
 55134  1  0  0  0
 56 69  2  0  0  0
 57 58  2  0  0  0
 57135  1  0  0  0
 58136  1  0  0  0
 59 60  1  0  0  0
 59 61  1  0  0  0
 59 62  1  0  0  0
 60137  1  0  0  0
 60138  1  0  0  0
 60139  1  0  0  0
 61140  1  0  0  0
 61141  1  0  0  0
 61142  1  0  0  0
 62143  1  0  0  0
 62144  1  0  0  0
 62145  1  0  0  0
 63 65  1  0  0  0
 63146  1  0  0  0
 63147  1  0  0  0
 63148  1  0  0  0
 64149  1  0  0  0
 65150  1  0  0  0
 68 85  1  0  0  0
 71 73  2  0  0  0
 71 74  1  0  0  0
 71151  1  0  0  0
 72 75  2  0  0  0
 72 76  1  0  0  0
 72152  1  0  0  0
 73 75  1  0  0  0
 73 78  1  0  0  0
 74 76  2  0  0  0
 74 87  1  0  0  0
 75 84  1  0  0  0
 76 91  1  0  0  0
 77 85  1  0  0  0
 77 88  1  0  0  0
 77 90  2  0  0  0
 78153  1  0  0  0
 78154  1  0  0  0
 78155  1  0  0  0
 79156  1  0  0  0
 79157  1  0  0  0
 79158  1  0  0  0
 79 87  1  0  0  0
 80 87  1  0  0  0
 80159  1  0  0  0
 80160  1  0  0  0
 80161  1  0  0  0
 81 87  1  0  0  0
 81162  1  0  0  0
 81163  1  0  0  0
 81164  1  0  0  0
 82165  1  0  0  0
 82166  1  0  0  0
 82167  1  0  0  0
 82 88  1  0  0  0
 83 88  1  0  0  0
 83168  1  0  0  0
 83169  1  0  0  0
 83170  1  0  0  0
 84 89  1  0  0  0
 84171  1  0  0  0
 84172  1  0  0  0
 85173  1  0  0  0
 85174  1  0  0  0
 86 88  1  0  0  0
 86 91  1  0  0  0
 86175  1  0  0  0
 86176  1  0  0  0
 89177  1  0  0  0
M  ISO  4   1 100  68 101  85 101  89 100
M  END
> <chiral flag>
0

> <version>
0

> <s_m_source_file>
/data/baiqing/PycharmProjects/Reinvent-master-3.2/result/LINK_invent/BTK/process_docking_weight1_custom_product_contain_oxygen_bond_distance_aromatic_linkinvent_7_9_3/rearranged_h_0142.sdf

> <i_m_source_file_index>
87

> <r_mmod_Potential_Energy-OPLS-2005>
29.7811145782471

> <r_mmod_Stretch_Energy-OPLS-2005>
56.7523651123047

> <r_mmod_Bend_Energy-OPLS-2005>
135.522476196289

> <r_mmod_Torsional_Energy-OPLS-2005>
255.903533935547

> <r_mmod_Improper_Torsional_Energy-OPLS-2005>
5.21163034439087

> <r_mmod_Van_der_Waal_Energy-OPLS-2005>
164.29899597168

> <r_mmod_Electrostatic_Energy-OPLS-2005>
-403.704071044922

> <r_mmod_Solvation_Energy-OPLS-2005>
-216.088592529297

> <b_mmod_Minimization_Converged-OPLS-2005>
0

> <r_mmod_RMS_Derivative-OPLS-2005>
6.44673824310303

$$$$
87
                    3D
 Structure written by MMmdl.
162170  0  0  1  0            999 V2000
  -30.5692  -14.7584   20.4681 C   0  0  0  0  0  0
  -30.4484  -12.4647   19.4628 C   0  0  0  0  0  0
  -29.5146  -12.5113   18.2313 C   0  0  0  0  0  0
  -28.0409  -12.3251   18.6472 C   0  0  0  0  0  0
  -27.6444  -13.2205   19.8504 C   0  0  2  0  0  0
  -28.6914  -13.1354   20.9829 C   0  0  0  0  0  0
  -25.2534  -13.8169   20.5681 C   0  0  0  0  0  0
  -24.1814  -13.0431   20.9205 C   0  0  0  0  0  0
  -24.6389  -11.6903   20.8743 C   0  0  0  0  0  0
  -23.9061  -10.4287   21.0409 C   0  0  0  0  0  0
  -24.3616   -9.4203   21.9186 C   0  0  0  0  0  0
  -23.6288   -8.2241   22.0756 C   0  0  0  0  0  0
  -22.4270   -8.0282   21.3546 C   0  0  0  0  0  0
  -21.9903   -9.0256   20.4649 C   0  0  0  0  0  0
  -22.7235  -10.2133   20.3057 C   0  0  0  0  0  0
  -21.6852   -6.0734   22.5279 C   0  0  0  0  0  0
  -21.4013   -6.5636   23.8214 C   0  0  0  0  0  0
  -21.3659   -5.6790   24.9175 C   0  0  0  0  0  0
  -21.6045   -4.3053   24.7225 C   0  0  0  0  0  0
  -21.8820   -3.8144   23.4346 C   0  0  0  0  0  0
  -21.9191   -4.6960   22.3403 C   0  0  0  0  0  0
  -22.7837  -13.5226   21.1860 C   0  0  0  0  0  0
  -22.1662   -4.2146   21.0979 F   0  0  0  0  0  0
  -21.5627   -3.4537   25.7738 F   0  0  0  0  0  0
  -29.9909  -13.5090   20.4056 N   0  0  0  0  0  0
  -26.2946  -12.9349   20.3264 N   0  0  0  0  0  0
  -25.9314  -11.6505   20.5741 N   0  0  0  0  0  0
  -22.0472  -12.8227   22.0417 N   0  0  0  0  0  0
  -25.4221  -15.1896   20.4088 N   0  0  0  0  0  0
  -31.7604  -14.9068   20.1720 O   0  0  0  0  0  0
  -21.6636   -6.8879   21.4243 O   0  0  0  0  0  0
  -22.3530  -14.5536   20.6705 O   0  0  0  0  0  0
  -24.6319  -31.8544   23.1967 C   0  0  0  0  0  0
  -25.9142  -32.4749   23.8320 C   0  0  1  0  0  0
  -27.2249  -27.2561   20.1354 C   0  0  0  0  0  0
  -25.5934  -33.8551   24.2245 N   0  0  0  0  0  0
  -23.4292  -30.4751   21.5406 C   0  0  2  0  0  0
  -24.8767  -28.9157   20.1150 C   0  0  0  0  0  0
  -22.7503  -29.4601   22.4917 C   0  0  0  0  0  0
  -18.0291  -28.1392   22.8484 C   0  0  0  0  0  0
  -24.1491  -36.7280   23.2639 C   0  0  0  0  0  0
  -25.9747  -30.7666   21.3754 C   0  0  0  0  0  0
  -26.0486  -29.3870   20.7199 C   0  0  0  0  0  0
  -27.2265  -28.5719   20.7121 C   0  0  0  0  0  0
  -26.0274  -26.8477   19.5089 C   0  0  0  0  0  0
  -24.8715  -27.6547   19.4978 C   0  0  0  0  0  0
  -23.6476  -29.8039   20.1589 C   0  0  0  0  0  0
  -25.4118  -36.3067   24.0324 C   0  0  1  0  0  0
  -20.5894  -28.3707   23.1268 C   0  0  2  0  0  0
  -20.6780  -26.9424   22.5408 C   0  0  0  0  0  0
  -19.5755  -26.6389   21.5211 C   0  0  0  0  0  0
  -18.1936  -26.7937   22.1623 C   0  0  0  0  0  0
  -19.1544  -28.8867   23.2872 C   0  0  0  0  0  0
  -18.9464  -30.1465   23.8896 C   0  0  0  0  0  0
  -17.6463  -30.6593   24.0563 C   0  0  0  0  0  0
  -25.9061  -34.9437   23.5091 C   0  0  0  0  0  0
  -16.5355  -29.9090   23.6329 C   0  0  0  0  0  0
  -16.7277  -28.6505   23.0356 C   0  0  0  0  0  0
  -26.4508  -31.6577   25.0713 C   0  0  0  0  0  0
  -25.3724  -31.3728   26.1427 C   0  0  0  0  0  0
  -27.0356  -30.2991   24.6207 C   0  0  0  0  0  0
  -27.6066  -32.4316   25.7486 C   0  0  0  0  0  0
  -27.5583  -37.1793   24.8461 C   0  0  0  0  0  0
  -21.4210  -29.3048   22.3655 N   0  0  0  0  0  0
  -26.4291  -37.3767   23.9409 N   0  0  0  0  0  0
  -24.6978  -31.0504   22.0941 N   0  0  0  0  0  0
  -23.4195  -28.8150   23.3030 O   0  0  0  0  0  0
  -28.3393  -26.3855   20.1597 O   0  0  0  0  0  0
  -26.5636  -34.8916   22.4662 O   0  0  0  0  0  0
  -23.5469  -32.1366   23.7260 O   0  0  0  0  0  0
  -29.7482  -18.2767   19.9458 C   0  0  0  0  0  0
  -29.3566  -19.0662   21.9495 C   0  0  0  0  0  0
  -29.4741  -19.5336   20.6591 C   0  0  0  0  0  0
  -29.8141  -17.2018   20.8384 C   0  0  0  0  0  0
  -30.0751  -25.3112   22.5858 C   0  0  0  0  0  0
  -30.7442  -22.0920   21.8657 C   0  0  0  0  0  0
  -30.0302  -23.8325   18.9605 C   0  0  0  0  0  0
  -29.2625  -21.0425   20.1142 C   0  0  0  0  0  0
  -30.5096  -24.8578   21.1735 C   0  0  0  0  0  0
  -28.1656  -24.8908   20.3286 C   0  0  0  0  0  0
  -29.4643  -22.3879   21.0320 C   0  0  2  0  0  0
  -29.4955  -23.9464   20.4005 C   0  0  1  0  0  0
  -29.6909  -15.8239   20.6026 N   0  0  0  0  0  0
  -29.5429  -17.7042   22.0730 O   0  0  0  0  0  0
  -31.4843  -12.6190   19.1557 H   0  0  0  0  0  0
  -30.4178  -11.4825   19.9372 H   0  0  0  0  0  0
  -29.8001  -11.7430   17.5113 H   0  0  0  0  0  0
  -29.6313  -13.4676   17.7188 H   0  0  0  0  0  0
  -27.9031  -11.2754   18.9097 H   0  0  0  0  0  0
  -27.3818  -12.5151   17.7992 H   0  0  0  0  0  0
  -27.6402  -14.2425   19.4722 H   0  0  0  0  0  0
  -28.7324  -12.1266   21.3965 H   0  0  0  0  0  0
  -28.4228  -13.7911   21.8131 H   0  0  0  0  0  0
  -25.2763   -9.5676   22.4760 H   0  0  0  0  0  0
  -23.9995   -7.4631   22.7474 H   0  0  0  0  0  0
  -21.0833   -8.8778   19.8956 H   0  0  0  0  0  0
  -22.3697  -10.9674   19.6166 H   0  0  0  0  0  0
  -21.2009   -7.6146   23.9717 H   0  0  0  0  0  0
  -21.1480   -6.0519   25.9079 H   0  0  0  0  0  0
  -22.0598   -2.7605   23.2848 H   0  0  0  0  0  0
  -22.4078  -11.9887   22.4813 H   0  0  0  0  0  0
  -21.1093  -13.1268   22.2616 H   0  0  0  0  0  0
  -24.6493  -15.8375   20.5188 H   0  0  0  0  0  0
  -26.2556  -15.6328   20.0449 H   0  0  0  0  0  0
  -26.7209  -32.5403   23.1062 H   0  0  0  0  0  0
  -25.0067  -33.9681   25.0382 H   0  0  0  0  0  0
  -22.7261  -31.2974   21.3919 H   0  0  0  0  0  0
  -23.3759  -35.9606   23.3293 H   0  0  0  0  0  0
  -24.3578  -36.8910   22.2054 H   0  0  0  0  0  0
  -23.7239  -37.6476   23.6671 H   0  0  0  0  0  0
  -26.1121  -31.5260   20.6045 H   0  0  0  0  0  0
  -26.8523  -30.8177   22.0083 H   0  0  0  0  0  0
  -28.1283  -28.9312   21.1876 H   0  0  0  0  0  0
  -25.9648  -25.8868   19.0218 H   0  0  0  0  0  0
  -23.9743  -27.2897   19.0167 H   0  0  0  0  0  0
  -23.7722  -30.5770   19.3998 H   0  0  0  0  0  0
  -22.7659  -29.2364   19.8558 H   0  0  0  0  0  0
  -25.1299  -36.1913   25.0815 H   0  0  0  0  0  0
  -20.9983  -28.3293   24.1391 H   0  0  0  0  0  0
  -20.5681  -26.2320   23.3615 H   0  0  0  0  0  0
  -21.6651  -26.7449   22.1205 H   0  0  0  0  0  0
  -19.6919  -25.6298   21.1247 H   0  0  0  0  0  0
  -19.6693  -27.3195   20.6738 H   0  0  0  0  0  0
  -17.4204  -26.6680   21.4028 H   0  0  0  0  0  0
  -18.0338  -26.0079   22.9020 H   0  0  0  0  0  0
  -19.7938  -30.7279   24.2272 H   0  0  0  0  0  0
  -17.5015  -31.6272   24.5166 H   0  0  0  0  0  0
  -15.5355  -30.2990   23.7656 H   0  0  0  0  0  0
  -15.8675  -28.0818   22.7083 H   0  0  0  0  0  0
  -24.5905  -30.7075   25.7747 H   0  0  0  0  0  0
  -24.8909  -32.2896   26.4839 H   0  0  0  0  0  0
  -25.8028  -30.8910   27.0214 H   0  0  0  0  0  0
  -26.2940  -29.6734   24.1228 H   0  0  0  0  0  0
  -27.4028  -29.7261   25.4732 H   0  0  0  0  0  0
  -27.8821  -30.4257   23.9453 H   0  0  0  0  0  0
  -27.2683  -33.3624   26.2049 H   0  0  0  0  0  0
  -28.3883  -32.6859   25.0315 H   0  0  0  0  0  0
  -28.0727  -31.8449   26.5411 H   0  0  0  0  0  0
  -28.2592  -38.0100   24.7523 H   0  0  0  0  0  0
  -28.1088  -36.2632   24.6268 H   0  0  0  0  0  0
  -27.2301  -37.1416   25.8863 H   0  0  0  0  0  0
  -20.9407  -29.8751   21.6834 H   0  0  0  0  0  0
  -26.0171  -38.2839   24.1418 H   0  0  0  0  0  0
  -29.8326  -18.1714   18.8727 H   0  0  0  0  0  0
  -29.1232  -19.5555   22.8858 H   0  0  0  0  0  0
  -30.9168  -25.7488   23.1227 H   0  0  0  0  0  0
  -29.6828  -24.4958   23.1918 H   0  0  0  0  0  0
  -29.2991  -26.0755   22.5441 H   0  0  0  0  0  0
  -30.7229  -21.1347   22.3718 H   0  0  0  0  0  0
  -30.9153  -22.7925   22.6773 H   0  0  0  0  0  0
  -31.6309  -22.0873   21.2311 H   0  0  0  0  0  0
  -30.1594  -24.8134   18.5010 H   0  0  0  0  0  0
  -29.3442  -23.2725   18.3248 H   0  0  0  0  0  0
  -30.9974  -23.3296   18.9324 H   0  0  0  0  0  0
  -28.2651  -21.0842   19.6757 H   0  0  0  0  0  0
  -29.9423  -21.1174   19.2659 H   0  0  0  0  0  0
  -31.4988  -24.4049   21.2169 H   0  0  0  0  0  0
  -30.6952  -25.7651   20.5972 H   0  0  0  0  0  0
  -27.5952  -24.7450   21.2467 H   0  0  0  0  0  0
  -27.5303  -24.5034   19.5334 H   0  0  0  0  0  0
  -28.6466  -22.3823   21.7538 H   0  0  0  0  0  0
  -28.7537  -15.4880   20.7549 H   0  0  0  0  0  0
  1 25  1  0  0  0
  1 30  2  0  0  0
  1 83  1  0  0  0
  2  3  1  0  0  0
  2 25  1  0  0  0
  2 85  1  0  0  0
  2 86  1  0  0  0
  3  4  1  0  0  0
  3 87  1  0  0  0
  3 88  1  0  0  0
  4  5  1  0  0  0
  4 89  1  0  0  0
  4 90  1  0  0  0
  5  6  1  0  0  0
  5 26  1  0  0  0
  5 91  1  0  0  0
  6 25  1  0  0  0
  6 92  1  0  0  0
  6 93  1  0  0  0
  7  8  2  0  0  0
  7 26  1  0  0  0
  7 29  1  0  0  0
  8  9  1  0  0  0
  8 22  1  0  0  0
  9 10  1  0  0  0
  9 27  2  0  0  0
 10 11  2  0  0  0
 10 15  1  0  0  0
 11 12  1  0  0  0
 11 94  1  0  0  0
 12 13  2  0  0  0
 12 95  1  0  0  0
 13 14  1  0  0  0
 13 31  1  0  0  0
 14 15  2  0  0  0
 14 96  1  0  0  0
 15 97  1  0  0  0
 16 17  2  0  0  0
 16 21  1  0  0  0
 16 31  1  0  0  0
 17 18  1  0  0  0
 17 98  1  0  0  0
 18 19  2  0  0  0
 18 99  1  0  0  0
 19 20  1  0  0  0
 19 24  1  0  0  0
 20 21  2  0  0  0
 20100  1  0  0  0
 21 23  1  0  0  0
 22 28  1  0  0  0
 22 32  2  0  0  0
 26 27  1  0  0  0
 28101  1  0  0  0
 28102  1  0  0  0
 29103  1  0  0  0
 29104  1  0  0  0
 33 34  1  0  0  0
 33 66  1  0  0  0
 33 70  2  0  0  0
 34 36  1  0  0  0
 34 59  1  0  0  0
 34105  1  0  0  0
 35 44  2  0  0  0
 35 45  1  0  0  0
 35 68  1  0  0  0
 36 56  1  0  0  0
 36106  1  0  0  0
 37 39  1  0  0  0
 37 47  1  0  0  0
 37 66  1  0  0  0
 37107  1  0  0  0
 38 43  2  0  0  0
 38 46  1  0  0  0
 38 47  1  0  0  0
 39 64  1  0  0  0
 39 67  2  0  0  0
 40 52  1  0  0  0
 40 53  2  0  0  0
 40 58  1  0  0  0
 41108  1  0  0  0
 41109  1  0  0  0
 41110  1  0  0  0
 41 48  1  0  0  0
 42 43  1  0  0  0
 42 66  1  0  0  0
 42111  1  0  0  0
 42112  1  0  0  0
 43 44  1  0  0  0
 44113  1  0  0  0
 45 46  2  0  0  0
 45114  1  0  0  0
 46115  1  0  0  0
 47116  1  0  0  0
 47117  1  0  0  0
 48 56  1  0  0  0
 48 65  1  0  0  0
 48118  1  0  0  0
 49 50  1  0  0  0
 49 53  1  0  0  0
 49 64  1  0  0  0
 49119  1  0  0  0
 50 51  1  0  0  0
 50120  1  0  0  0
 50121  1  0  0  0
 51 52  1  0  0  0
 51122  1  0  0  0
 51123  1  0  0  0
 52124  1  0  0  0
 52125  1  0  0  0
 53 54  1  0  0  0
 54 55  2  0  0  0
 54126  1  0  0  0
 55 57  1  0  0  0
 55127  1  0  0  0
 56 69  2  0  0  0
 57 58  2  0  0  0
 57128  1  0  0  0
 58129  1  0  0  0
 59 60  1  0  0  0
 59 61  1  0  0  0
 59 62  1  0  0  0
 60130  1  0  0  0
 60131  1  0  0  0
 60132  1  0  0  0
 61133  1  0  0  0
 61134  1  0  0  0
 61135  1  0  0  0
 62136  1  0  0  0
 62137  1  0  0  0
 62138  1  0  0  0
 63 65  1  0  0  0
 63139  1  0  0  0
 63140  1  0  0  0
 63141  1  0  0  0
 64142  1  0  0  0
 65143  1  0  0  0
 68 80  1  0  0  0
 71 73  1  0  0  0
 71 74  2  0  0  0
 71144  1  0  0  0
 72 73  2  0  0  0
 72 84  1  0  0  0
 72145  1  0  0  0
 73 78  1  0  0  0
 74 83  1  0  0  0
 74 84  1  0  0  0
 75 79  1  0  0  0
 75146  1  0  0  0
 75147  1  0  0  0
 75148  1  0  0  0
 76149  1  0  0  0
 76150  1  0  0  0
 76151  1  0  0  0
 76 81  1  0  0  0
 77152  1  0  0  0
 77153  1  0  0  0
 77154  1  0  0  0
 77 82  1  0  0  0
 78 81  1  0  0  0
 78155  1  0  0  0
 78156  1  0  0  0
 79 82  1  0  0  0
 79157  1  0  0  0
 79158  1  0  0  0
 80 82  1  0  0  0
 80159  1  0  0  0
 80160  1  0  0  0
 81 82  1  0  0  0
 81161  1  0  0  0
 83162  1  0  0  0
M  ISO  4   1 100  68 101  80 101  83 100
M  END
> <chiral flag>
0

> <version>
0

> <s_m_source_file>
/data/baiqing/PycharmProjects/Reinvent-master-3.2/result/LINK_invent/BTK/process_docking_weight1_custom_product_contain_oxygen_bond_distance_aromatic_linkinvent_7_9_3/rearranged_h_0142.sdf

> <i_m_source_file_index>
88

> <r_mmod_Potential_Energy-OPLS-2005>
292.019836425781

> <r_mmod_Stretch_Energy-OPLS-2005>
148.94157409668

> <r_mmod_Bend_Energy-OPLS-2005>
202.967193603516

> <r_mmod_Torsional_Energy-OPLS-2005>
284.613067626953

> <r_mmod_Improper_Torsional_Energy-OPLS-2005>
10.9145565032959

> <r_mmod_Van_der_Waal_Energy-OPLS-2005>
133.813079833984

> <r_mmod_Electrostatic_Energy-OPLS-2005>
-379.774749755859

> <r_mmod_Solvation_Energy-OPLS-2005>
-197.224182128906

> <b_mmod_Minimization_Converged-OPLS-2005>
0

> <r_mmod_RMS_Derivative-OPLS-2005>
0.553011119365692

$$$$
88
                    3D
 Structure written by MMmdl.
171181  0  0  1  0            999 V2000
  -30.7542  -14.3501   20.6331 C   0  0  0  0  0  0
  -30.4192  -12.2525   19.4007 C   0  0  0  0  0  0
  -29.4884  -12.5121   18.1995 C   0  0  0  0  0  0
  -28.0094  -12.3817   18.6128 C   0  0  0  0  0  0
  -27.6706  -13.1994   19.8868 C   0  0  2  0  0  0
  -28.7085  -12.9200   20.9981 C   0  0  0  0  0  0
  -25.2586  -13.8113   20.5665 C   0  0  0  0  0  0
  -24.1834  -13.0416   20.9157 C   0  0  0  0  0  0
  -24.6392  -11.6884   20.8735 C   0  0  0  0  0  0
  -23.9053  -10.4283   21.0392 C   0  0  0  0  0  0
  -24.3603   -9.4199   21.9170 C   0  0  0  0  0  0
  -23.6288   -8.2234   22.0742 C   0  0  0  0  0  0
  -22.4264   -8.0272   21.3541 C   0  0  0  0  0  0
  -21.9896   -9.0236   20.4633 C   0  0  0  0  0  0
  -22.7221  -10.2119   20.3043 C   0  0  0  0  0  0
  -21.6843   -6.0730   22.5286 C   0  0  0  0  0  0
  -21.4011   -6.5636   23.8220 C   0  0  0  0  0  0
  -21.3662   -5.6786   24.9180 C   0  0  0  0  0  0
  -21.6045   -4.3051   24.7225 C   0  0  0  0  0  0
  -21.8821   -3.8147   23.4346 C   0  0  0  0  0  0
  -21.9192   -4.6963   22.3403 C   0  0  0  0  0  0
  -22.7856  -13.5210   21.1850 C   0  0  0  0  0  0
  -22.1658   -4.2149   21.0976 F   0  0  0  0  0  0
  -21.5632   -3.4535   25.7736 F   0  0  0  0  0  0
  -30.0592  -13.1969   20.4655 N   0  0  0  0  0  0
  -26.3066  -12.9313   20.3418 N   0  0  0  0  0  0
  -25.9324  -11.6476   20.5778 N   0  0  0  0  0  0
  -22.0506  -12.8203   22.0414 N   0  0  0  0  0  0
  -25.4263  -15.1820   20.4048 N   0  0  0  0  0  0
  -31.8159  -14.6044   20.0548 O   0  0  0  0  0  0
  -21.6632   -6.8867   21.4242 O   0  0  0  0  0  0
  -22.3531  -14.5523   20.6709 O   0  0  0  0  0  0
  -24.6097  -31.8719   23.2151 C   0  0  0  0  0  0
  -25.9016  -32.4844   23.8423 C   0  0  1  0  0  0
  -27.2344  -27.4923   20.0780 C   0  0  0  0  0  0
  -25.5875  -33.8644   24.2356 N   0  0  0  0  0  0
  -23.3915  -30.4990   21.5553 C   0  0  2  0  0  0
  -24.8358  -28.9714   20.1140 C   0  0  0  0  0  0
  -22.7366  -29.4712   22.5062 C   0  0  0  0  0  0
  -18.0271  -28.1390   22.8511 C   0  0  0  0  0  0
  -24.1479  -36.7344   23.2632 C   0  0  0  0  0  0
  -25.9170  -30.8552   21.3592 C   0  0  0  0  0  0
  -25.9938  -29.4947   20.7052 C   0  0  0  0  0  0
  -27.1955  -28.7606   20.6855 C   0  0  0  0  0  0
  -26.0640  -26.9728   19.4778 C   0  0  0  0  0  0
  -24.8639  -27.7074   19.4981 C   0  0  0  0  0  0
  -23.5923  -29.8288   20.1689 C   0  0  0  0  0  0
  -25.4106  -36.3150   24.0345 C   0  0  1  0  0  0
  -20.5838  -28.3655   23.1386 C   0  0  2  0  0  0
  -20.6806  -26.9425   22.5406 C   0  0  0  0  0  0
  -19.5765  -26.6347   21.5246 C   0  0  0  0  0  0
  -18.1915  -26.7949   22.1604 C   0  0  0  0  0  0
  -19.1509  -28.8828   23.2966 C   0  0  0  0  0  0
  -18.9436  -30.1441   23.8965 C   0  0  0  0  0  0
  -17.6439  -30.6586   24.0601 C   0  0  0  0  0  0
  -25.9026  -34.9500   23.5153 C   0  0  0  0  0  0
  -16.5339  -29.9097   23.6360 C   0  0  0  0  0  0
  -16.7267  -28.6547   23.0320 C   0  0  0  0  0  0
  -26.4452  -31.6604   25.0735 C   0  0  0  0  0  0
  -25.3739  -31.3696   26.1502 C   0  0  0  0  0  0
  -27.0282  -30.3054   24.6086 C   0  0  0  0  0  0
  -27.6041  -32.4320   25.7485 C   0  0  0  0  0  0
  -27.5591  -37.1830   24.8467 C   0  0  0  0  0  0
  -21.4097  -29.3067   22.3854 N   0  0  0  0  0  0
  -26.4306  -37.3826   23.9411 N   0  0  0  0  0  0
  -24.6574  -31.0879   22.1015 N   0  0  0  0  0  0
  -23.4181  -28.8233   23.3046 O   0  0  0  0  0  0
  -28.4214  -26.8019   20.1068 O   0  0  0  0  0  0
  -26.5595  -34.8944   22.4720 O   0  0  0  0  0  0
  -23.5318  -32.1435   23.7608 O   0  0  0  0  0  0
  -30.1386  -18.6121   19.8830 C   0  0  0  0  0  0
  -30.6393  -17.3980   20.3773 C   0  0  0  0  0  0
  -26.8780  -22.7723   22.3449 C   0  0  0  0  0  0
  -28.4165  -16.8433   21.1965 C   0  0  0  0  0  0
  -25.4616  -24.2847   21.5359 C   0  0  0  0  0  0
  -26.7653  -24.1149   21.9101 C   0  0  0  0  0  0
  -28.7755  -18.9519   20.0303 C   0  0  0  0  0  0
  -27.8915  -18.0589   20.7105 C   0  0  0  0  0  0
  -29.7653  -16.4958   21.0140 C   0  0  0  0  0  0
  -25.6879  -22.1728   22.0368 C   0  0  0  0  0  0
  -27.7820  -25.1675   21.8118 C   0  0  0  0  0  0
  -26.2162  -19.8496   22.7970 C   0  0  0  0  0  0
  -25.2143  -20.3381   20.4380 C   0  0  0  0  0  0
  -26.1602  -18.3815   22.4006 C   0  0  0  0  0  0
  -25.5661  -18.8766   20.0741 C   0  0  0  0  0  0
  -25.2743  -20.7363   21.9455 C   0  0  0  0  0  0
  -28.3604  -20.3053   19.4865 C   0  0  0  0  0  0
  -28.3323  -25.4091   20.3956 C   0  0  0  0  0  0
  -26.5270  -18.2880   20.9957 N   0  0  0  0  0  0
  -30.1786  -15.2231   21.4618 N   0  0  0  0  0  0
  -28.2007  -25.7851   22.7960 O   0  0  0  0  0  0
  -24.7947  -23.0984   21.5855 O   0  0  0  0  0  0
  -31.4642  -12.3413   19.0970 H   0  0  0  0  0  0
  -30.3041  -11.2291   19.7603 H   0  0  0  0  0  0
  -29.7113  -11.8129   17.3924 H   0  0  0  0  0  0
  -29.6731  -13.5110   17.8005 H   0  0  0  0  0  0
  -27.8041  -11.3243   18.7879 H   0  0  0  0  0  0
  -27.3609  -12.6832   17.7897 H   0  0  0  0  0  0
  -27.7324  -14.2547   19.6216 H   0  0  0  0  0  0
  -28.6565  -11.8742   21.3029 H   0  0  0  0  0  0
  -28.4641  -13.4860   21.8968 H   0  0  0  0  0  0
  -25.2741   -9.5681   22.4745 H   0  0  0  0  0  0
  -24.0004   -7.4612   22.7452 H   0  0  0  0  0  0
  -21.0833   -8.8741   19.8922 H   0  0  0  0  0  0
  -22.3671  -10.9657   19.6154 H   0  0  0  0  0  0
  -21.2001   -7.6145   23.9724 H   0  0  0  0  0  0
  -21.1485   -6.0515   25.9080 H   0  0  0  0  0  0
  -22.0601   -2.7610   23.2846 H   0  0  0  0  0  0
  -22.4115  -11.9846   22.4785 H   0  0  0  0  0  0
  -21.1129  -13.1232   22.2634 H   0  0  0  0  0  0
  -24.6736  -15.8414   20.5612 H   0  0  0  0  0  0
  -26.2908  -15.6443   20.1542 H   0  0  0  0  0  0
  -26.7096  -32.5564   23.1202 H   0  0  0  0  0  0
  -25.0035  -33.9784   25.0513 H   0  0  0  0  0  0
  -22.6813  -31.3175   21.4177 H   0  0  0  0  0  0
  -23.3753  -35.9660   23.3324 H   0  0  0  0  0  0
  -24.3563  -36.8937   22.2030 H   0  0  0  0  0  0
  -23.7213  -37.6555   23.6635 H   0  0  0  0  0  0
  -26.0269  -31.6244   20.5939 H   0  0  0  0  0  0
  -26.8069  -30.9064   21.9733 H   0  0  0  0  0  0
  -28.0887  -29.1535   21.1512 H   0  0  0  0  0  0
  -26.0692  -26.0114   18.9840 H   0  0  0  0  0  0
  -23.9739  -27.3053   19.0317 H   0  0  0  0  0  0
  -23.6893  -30.5995   19.4038 H   0  0  0  0  0  0
  -22.7176  -29.2414   19.8799 H   0  0  0  0  0  0
  -25.1284  -36.2033   25.0840 H   0  0  0  0  0  0
  -20.9885  -28.3164   24.1521 H   0  0  0  0  0  0
  -20.5898  -26.2251   23.3565 H   0  0  0  0  0  0
  -21.6657  -26.7591   22.1109 H   0  0  0  0  0  0
  -19.6936  -25.6247   21.1298 H   0  0  0  0  0  0
  -19.6714  -27.3144   20.6765 H   0  0  0  0  0  0
  -17.4248  -26.6798   21.3924 H   0  0  0  0  0  0
  -18.0163  -26.0046   22.8916 H   0  0  0  0  0  0
  -19.7912  -30.7242   24.2351 H   0  0  0  0  0  0
  -17.4973  -31.6273   24.5170 H   0  0  0  0  0  0
  -15.5340  -30.3005   23.7668 H   0  0  0  0  0  0
  -15.8655  -28.0974   22.6911 H   0  0  0  0  0  0
  -24.5892  -30.7055   25.7862 H   0  0  0  0  0  0
  -24.8939  -32.2841   26.4996 H   0  0  0  0  0  0
  -25.8093  -30.8833   27.0239 H   0  0  0  0  0  0
  -26.2806  -29.6831   24.1137 H   0  0  0  0  0  0
  -27.4080  -29.7261   25.4520 H   0  0  0  0  0  0
  -27.8641  -30.4424   23.9216 H   0  0  0  0  0  0
  -27.2666  -33.3612   26.2098 H   0  0  0  0  0  0
  -28.3810  -32.6896   25.0274 H   0  0  0  0  0  0
  -28.0761  -31.8427   26.5361 H   0  0  0  0  0  0
  -28.2633  -38.0108   24.7534 H   0  0  0  0  0  0
  -28.1058  -36.2647   24.6284 H   0  0  0  0  0  0
  -27.2299  -37.1477   25.8864 H   0  0  0  0  0  0
  -20.9207  -29.8826   21.7149 H   0  0  0  0  0  0
  -26.0217  -38.2919   24.1406 H   0  0  0  0  0  0
  -30.8220  -19.2872   19.3860 H   0  0  0  0  0  0
  -31.6867  -17.1635   20.2449 H   0  0  0  0  0  0
  -27.7762  -22.2882   22.7012 H   0  0  0  0  0  0
  -27.7610  -16.1505   21.7047 H   0  0  0  0  0  0
  -24.8867  -25.1218   21.1655 H   0  0  0  0  0  0
  -27.2549  -20.1549   22.6719 H   0  0  0  0  0  0
  -25.9954  -19.9732   23.8577 H   0  0  0  0  0  0
  -24.2282  -20.5829   20.0399 H   0  0  0  0  0  0
  -25.8697  -20.9958   19.8733 H   0  0  0  0  0  0
  -25.1582  -17.9772   22.5546 H   0  0  0  0  0  0
  -26.8298  -17.7991   23.0339 H   0  0  0  0  0  0
  -25.9119  -18.7931   19.0433 H   0  0  0  0  0  0
  -24.6582  -18.2739   20.1230 H   0  0  0  0  0  0
  -24.2697  -20.6228   22.3557 H   0  0  0  0  0  0
  -29.1935  -20.8168   19.0036 H   0  0  0  0  0  0
  -28.0220  -20.9470   20.2982 H   0  0  0  0  0  0
  -27.5832  -20.2071   18.7314 H   0  0  0  0  0  0
  -27.7360  -24.8898   19.6477 H   0  0  0  0  0  0
  -29.3314  -24.9771   20.3417 H   0  0  0  0  0  0
  -29.5029  -14.7689   22.0572 H   0  0  0  0  0  0
  1 25  1  0  0  0
  1 30  2  0  0  0
  1 90  1  0  0  0
  2  3  1  0  0  0
  2 25  1  0  0  0
  2 93  1  0  0  0
  2 94  1  0  0  0
  3  4  1  0  0  0
  3 95  1  0  0  0
  3 96  1  0  0  0
  4  5  1  0  0  0
  4 97  1  0  0  0
  4 98  1  0  0  0
  5  6  1  0  0  0
  5 26  1  0  0  0
  5 99  1  0  0  0
  6 25  1  0  0  0
  6100  1  0  0  0
  6101  1  0  0  0
  7  8  2  0  0  0
  7 26  1  0  0  0
  7 29  1  0  0  0
  8  9  1  0  0  0
  8 22  1  0  0  0
  9 10  1  0  0  0
  9 27  2  0  0  0
 10 11  2  0  0  0
 10 15  1  0  0  0
 11 12  1  0  0  0
 11102  1  0  0  0
 12 13  2  0  0  0
 12103  1  0  0  0
 13 14  1  0  0  0
 13 31  1  0  0  0
 14 15  2  0  0  0
 14104  1  0  0  0
 15105  1  0  0  0
 16 17  2  0  0  0
 16 21  1  0  0  0
 16 31  1  0  0  0
 17 18  1  0  0  0
 17106  1  0  0  0
 18 19  2  0  0  0
 18107  1  0  0  0
 19 20  1  0  0  0
 19 24  1  0  0  0
 20 21  2  0  0  0
 20108  1  0  0  0
 21 23  1  0  0  0
 22 28  1  0  0  0
 22 32  2  0  0  0
 26 27  1  0  0  0
 28109  1  0  0  0
 28110  1  0  0  0
 29111  1  0  0  0
 29112  1  0  0  0
 33 34  1  0  0  0
 33 66  1  0  0  0
 33 70  2  0  0  0
 34 36  1  0  0  0
 34 59  1  0  0  0
 34113  1  0  0  0
 35 44  2  0  0  0
 35 45  1  0  0  0
 35 68  1  0  0  0
 36 56  1  0  0  0
 36114  1  0  0  0
 37 39  1  0  0  0
 37 47  1  0  0  0
 37 66  1  0  0  0
 37115  1  0  0  0
 38 43  2  0  0  0
 38 46  1  0  0  0
 38 47  1  0  0  0
 39 64  1  0  0  0
 39 67  2  0  0  0
 40 52  1  0  0  0
 40 53  2  0  0  0
 40 58  1  0  0  0
 41116  1  0  0  0
 41117  1  0  0  0
 41118  1  0  0  0
 41 48  1  0  0  0
 42 43  1  0  0  0
 42 66  1  0  0  0
 42119  1  0  0  0
 42120  1  0  0  0
 43 44  1  0  0  0
 44121  1  0  0  0
 45 46  2  0  0  0
 45122  1  0  0  0
 46123  1  0  0  0
 47124  1  0  0  0
 47125  1  0  0  0
 48 56  1  0  0  0
 48 65  1  0  0  0
 48126  1  0  0  0
 49 50  1  0  0  0
 49 53  1  0  0  0
 49 64  1  0  0  0
 49127  1  0  0  0
 50 51  1  0  0  0
 50128  1  0  0  0
 50129  1  0  0  0
 51 52  1  0  0  0
 51130  1  0  0  0
 51131  1  0  0  0
 52132  1  0  0  0
 52133  1  0  0  0
 53 54  1  0  0  0
 54 55  2  0  0  0
 54134  1  0  0  0
 55 57  1  0  0  0
 55135  1  0  0  0
 56 69  2  0  0  0
 57 58  2  0  0  0
 57136  1  0  0  0
 58137  1  0  0  0
 59 60  1  0  0  0
 59 61  1  0  0  0
 59 62  1  0  0  0
 60138  1  0  0  0
 60139  1  0  0  0
 60140  1  0  0  0
 61141  1  0  0  0
 61142  1  0  0  0
 61143  1  0  0  0
 62144  1  0  0  0
 62145  1  0  0  0
 62146  1  0  0  0
 63 65  1  0  0  0
 63147  1  0  0  0
 63148  1  0  0  0
 63149  1  0  0  0
 64150  1  0  0  0
 65151  1  0  0  0
 68 88  1  0  0  0
 71 72  2  0  0  0
 71 77  1  0  0  0
 71152  1  0  0  0
 72 79  1  0  0  0
 72153  1  0  0  0
 73 76  1  0  0  0
 73 80  2  0  0  0
 73154  1  0  0  0
 74 78  1  0  0  0
 74 79  2  0  0  0
 74155  1  0  0  0
 75 76  2  0  0  0
 75 92  1  0  0  0
 75156  1  0  0  0
 76 81  1  0  0  0
 77 78  2  0  0  0
 77 87  1  0  0  0
 78 89  1  0  0  0
 79 90  1  0  0  0
 80 92  1  0  0  0
 80 86  1  0  0  0
 81 88  1  0  0  0
 81 91  2  0  0  0
 82 84  1  0  0  0
 82 86  1  0  0  0
 82157  1  0  0  0
 82158  1  0  0  0
 83 85  1  0  0  0
 83 86  1  0  0  0
 83159  1  0  0  0
 83160  1  0  0  0
 84 89  1  0  0  0
 84161  1  0  0  0
 84162  1  0  0  0
 85 89  1  0  0  0
 85163  1  0  0  0
 85164  1  0  0  0
 86165  1  0  0  0
 87166  1  0  0  0
 87167  1  0  0  0
 87168  1  0  0  0
 88169  1  0  0  0
 88170  1  0  0  0
 90171  1  0  0  0
M  ISO  4   1 100  68 101  88 101  90 100
M  END
> <chiral flag>
0

> <version>
0

> <s_m_source_file>
/data/baiqing/PycharmProjects/Reinvent-master-3.2/result/LINK_invent/BTK/process_docking_weight1_custom_product_contain_oxygen_bond_distance_aromatic_linkinvent_7_9_3/rearranged_h_0142.sdf

> <i_m_source_file_index>
89

> <r_mmod_Potential_Energy-OPLS-2005>
103.729629516602

> <r_mmod_Stretch_Energy-OPLS-2005>
34.8125610351562

> <r_mmod_Bend_Energy-OPLS-2005>
127.091934204102

> <r_mmod_Torsional_Energy-OPLS-2005>
352.9111328125

> <r_mmod_Improper_Torsional_Energy-OPLS-2005>
8.59389877319336

> <r_mmod_Van_der_Waal_Energy-OPLS-2005>
152.38200378418

> <r_mmod_Electrostatic_Energy-OPLS-2005>
-362.77197265625

> <r_mmod_Solvation_Energy-OPLS-2005>
-217.657867431641

> <b_mmod_Minimization_Converged-OPLS-2005>
0

> <r_mmod_RMS_Derivative-OPLS-2005>
2.58665490150452

$$$$
89
                    3D
 Structure written by MMmdl.
167175  0  0  1  0            999 V2000
  -30.7181  -14.4857   20.5936 C   0  0  0  0  0  0
  -30.4262  -12.3223   19.4282 C   0  0  0  0  0  0
  -29.4969  -12.5068   18.2109 C   0  0  0  0  0  0
  -28.0197  -12.3613   18.6241 C   0  0  0  0  0  0
  -27.6614  -13.2080   19.8741 C   0  0  2  0  0  0
  -28.7044  -13.0041   20.9980 C   0  0  0  0  0  0
  -25.2524  -13.8072   20.5586 C   0  0  0  0  0  0
  -24.1821  -13.0374   20.9194 C   0  0  0  0  0  0
  -24.6407  -11.6860   20.8763 C   0  0  0  0  0  0
  -23.9070  -10.4261   21.0425 C   0  0  0  0  0  0
  -24.3618   -9.4180   21.9203 C   0  0  0  0  0  0
  -23.6289   -8.2219   22.0765 C   0  0  0  0  0  0
  -22.4274   -8.0269   21.3544 C   0  0  0  0  0  0
  -21.9915   -9.0244   20.4646 C   0  0  0  0  0  0
  -22.7247  -10.2118   20.3063 C   0  0  0  0  0  0
  -21.6846   -6.0731   22.5281 C   0  0  0  0  0  0
  -21.4007   -6.5639   23.8212 C   0  0  0  0  0  0
  -21.3660   -5.6794   24.9176 C   0  0  0  0  0  0
  -21.6047   -4.3055   24.7227 C   0  0  0  0  0  0
  -21.8821   -3.8146   23.4347 C   0  0  0  0  0  0
  -21.9193   -4.6962   22.3405 C   0  0  0  0  0  0
  -22.7849  -13.5192   21.1855 C   0  0  0  0  0  0
  -22.1661   -4.2150   21.0983 F   0  0  0  0  0  0
  -21.5632   -3.4543   25.7741 F   0  0  0  0  0  0
  -30.0385  -13.3116   20.4491 N   0  0  0  0  0  0
  -26.3019  -12.9295   20.3347 N   0  0  0  0  0  0
  -25.9341  -11.6456   20.5798 N   0  0  0  0  0  0
  -22.0479  -12.8195   22.0408 N   0  0  0  0  0  0
  -25.4066  -15.1736   20.3758 N   0  0  0  0  0  0
  -31.8285  -14.6661   20.0862 O   0  0  0  0  0  0
  -21.6634   -6.8871   21.4242 O   0  0  0  0  0  0
  -22.3546  -14.5511   20.6715 O   0  0  0  0  0  0
  -24.6156  -31.8676   23.2094 C   0  0  0  0  0  0
  -25.9046  -32.4823   23.8391 C   0  0  1  0  0  0
  -27.2386  -27.4300   20.0982 C   0  0  0  0  0  0
  -25.5903  -33.8621   24.2321 N   0  0  0  0  0  0
  -23.4037  -30.4918   21.5497 C   0  0  2  0  0  0
  -24.8500  -28.9570   20.1154 C   0  0  0  0  0  0
  -22.7419  -29.4656   22.4979 C   0  0  0  0  0  0
  -18.0266  -28.1380   22.8478 C   0  0  0  0  0  0
  -24.1487  -36.7314   23.2640 C   0  0  0  0  0  0
  -25.9335  -30.8328   21.3624 C   0  0  0  0  0  0
  -26.0109  -29.4673   20.7083 C   0  0  0  0  0  0
  -27.2071  -28.7136   20.6924 C   0  0  0  0  0  0
  -26.0544  -26.9350   19.5021 C   0  0  0  0  0  0
  -24.8671  -27.6897   19.5097 C   0  0  0  0  0  0
  -23.6128  -29.8244   20.1649 C   0  0  0  0  0  0
  -25.4110  -36.3119   24.0342 C   0  0  1  0  0  0
  -20.5861  -28.3667   23.1318 C   0  0  2  0  0  0
  -20.6761  -26.9406   22.5415 C   0  0  0  0  0  0
  -19.5739  -26.6392   21.5212 C   0  0  0  0  0  0
  -18.1913  -26.7924   22.1618 C   0  0  0  0  0  0
  -19.1517  -28.8834   23.2894 C   0  0  0  0  0  0
  -18.9453  -30.1436   23.8916 C   0  0  0  0  0  0
  -17.6462  -30.6587   24.0566 C   0  0  0  0  0  0
  -25.9043  -34.9478   23.5128 C   0  0  0  0  0  0
  -16.5348  -29.9090   23.6333 C   0  0  0  0  0  0
  -16.7257  -28.6507   23.0348 C   0  0  0  0  0  0
  -26.4465  -31.6600   25.0725 C   0  0  0  0  0  0
  -25.3726  -31.3709   26.1470 C   0  0  0  0  0  0
  -27.0294  -30.3050   24.6084 C   0  0  0  0  0  0
  -27.6033  -32.4326   25.7492 C   0  0  0  0  0  0
  -27.5581  -37.1812   24.8464 C   0  0  0  0  0  0
  -21.4145  -29.3034   22.3730 N   0  0  0  0  0  0
  -26.4292  -37.3802   23.9410 N   0  0  0  0  0  0
  -24.6694  -31.0785   22.0989 N   0  0  0  0  0  0
  -23.4183  -28.8195   23.3027 O   0  0  0  0  0  0
  -28.4155  -26.7040   20.1084 O   0  0  0  0  0  0
  -26.5605  -34.8925   22.4694 O   0  0  0  0  0  0
  -23.5351  -32.1421   23.7492 O   0  0  0  0  0  0
  -31.8574  -18.8030   21.4441 C   0  0  0  0  0  0
  -31.6280  -17.4155   21.2999 C   0  0  0  0  0  0
  -29.4746  -19.1717   21.6415 C   0  0  0  0  0  0
  -30.7793  -19.6943   21.6290 C   0  0  0  0  0  0
  -29.2248  -17.7880   21.4745 C   0  0  0  0  0  0
  -30.3130  -16.8808   21.3150 C   0  0  0  0  0  0
  -29.6135  -23.1136   20.8700 C   0  0  0  0  0  0
  -26.7601  -18.2787   20.8769 C   0  0  0  0  0  0
  -32.1600  -23.0847   20.7147 C   0  0  0  0  0  0
  -30.7814  -21.5018   19.3461 C   0  0  0  0  0  0
  -31.0023  -21.1883   21.9097 C   0  0  0  0  0  0
  -27.7788  -17.2985   21.4893 C   0  0  0  0  0  0
  -29.6721  -24.5975   20.4313 C   0  0  0  0  0  0
  -28.2956  -25.2748   20.2224 C   0  0  0  0  0  0
  -30.8800  -22.2122   20.7146 C   0  0  0  0  0  0
  -30.0488  -15.4666   21.2393 N   0  0  0  0  0  0
  -28.5615  -22.6363   21.3047 O   0  0  0  0  0  0
  -31.4702  -12.4206   19.1243 H   0  0  0  0  0  0
  -30.3313  -11.3132   19.8317 H   0  0  0  0  0  0
  -29.7396  -11.7747   17.4400 H   0  0  0  0  0  0
  -29.6605  -13.4885   17.7635 H   0  0  0  0  0  0
  -27.8389  -11.3054   18.8296 H   0  0  0  0  0  0
  -27.3666  -12.6232   17.7909 H   0  0  0  0  0  0
  -27.7003  -14.2538   19.5685 H   0  0  0  0  0  0
  -28.6852  -11.9707   21.3477 H   0  0  0  0  0  0
  -28.4552  -13.6078   21.8712 H   0  0  0  0  0  0
  -25.2763   -9.5663   22.4776 H   0  0  0  0  0  0
  -24.0002   -7.4613   22.7487 H   0  0  0  0  0  0
  -21.0849   -8.8765   19.8943 H   0  0  0  0  0  0
  -22.3720  -10.9660   19.6172 H   0  0  0  0  0  0
  -21.1990   -7.6146   23.9717 H   0  0  0  0  0  0
  -21.1483   -6.0523   25.9081 H   0  0  0  0  0  0
  -22.0599   -2.7610   23.2849 H   0  0  0  0  0  0
  -22.4081  -11.9844   22.4779 H   0  0  0  0  0  0
  -21.1094  -13.1221   22.2604 H   0  0  0  0  0  0
  -24.6208  -15.8086   20.4583 H   0  0  0  0  0  0
  -26.2259  -15.6048   19.9707 H   0  0  0  0  0  0
  -26.7117  -32.5538   23.1159 H   0  0  0  0  0  0
  -25.0050  -33.9769   25.0467 H   0  0  0  0  0  0
  -22.6927  -31.3090   21.4103 H   0  0  0  0  0  0
  -23.3751  -35.9646   23.3313 H   0  0  0  0  0  0
  -24.3578  -36.8917   22.2053 H   0  0  0  0  0  0
  -23.7228  -37.6518   23.6643 H   0  0  0  0  0  0
  -26.0447  -31.5995   20.5946 H   0  0  0  0  0  0
  -26.8213  -30.8860   21.9805 H   0  0  0  0  0  0
  -28.1038  -29.1064   21.1512 H   0  0  0  0  0  0
  -26.0284  -25.9708   19.0176 H   0  0  0  0  0  0
  -23.9750  -27.2889   19.0479 H   0  0  0  0  0  0
  -23.7194  -30.5987   19.4043 H   0  0  0  0  0  0
  -22.7375  -29.2435   19.8686 H   0  0  0  0  0  0
  -25.1281  -36.1989   25.0834 H   0  0  0  0  0  0
  -20.9935  -28.3231   24.1447 H   0  0  0  0  0  0
  -20.5674  -26.2275   23.3600 H   0  0  0  0  0  0
  -21.6631  -26.7449   22.1206 H   0  0  0  0  0  0
  -19.6912  -25.6313   21.1215 H   0  0  0  0  0  0
  -19.6689  -27.3223   20.6761 H   0  0  0  0  0  0
  -17.4196  -26.6681   21.4013 H   0  0  0  0  0  0
  -18.0299  -26.0057   22.9005 H   0  0  0  0  0  0
  -19.7937  -30.7230   24.2296 H   0  0  0  0  0  0
  -17.5026  -31.6268   24.5165 H   0  0  0  0  0  0
  -15.5351  -30.3004   23.7649 H   0  0  0  0  0  0
  -15.8654  -28.0841   22.7051 H   0  0  0  0  0  0
  -24.5922  -30.7027   25.7809 H   0  0  0  0  0  0
  -24.8893  -32.2863   26.4894 H   0  0  0  0  0  0
  -25.8081  -30.8907   27.0243 H   0  0  0  0  0  0
  -26.2831  -29.6833   24.1120 H   0  0  0  0  0  0
  -27.4059  -29.7261   25.4525 H   0  0  0  0  0  0
  -27.8667  -30.4383   23.9228 H   0  0  0  0  0  0
  -27.2647  -33.3628   26.2065 H   0  0  0  0  0  0
  -28.3845  -32.6882   25.0322 H   0  0  0  0  0  0
  -28.0691  -31.8456   26.5415 H   0  0  0  0  0  0
  -28.2600  -38.0109   24.7513 H   0  0  0  0  0  0
  -28.1073  -36.2637   24.6286 H   0  0  0  0  0  0
  -27.2296  -37.1459   25.8866 H   0  0  0  0  0  0
  -20.9306  -29.8781   21.6976 H   0  0  0  0  0  0
  -26.0191  -38.2885   24.1412 H   0  0  0  0  0  0
  -32.8728  -19.1752   21.4461 H   0  0  0  0  0  0
  -32.4881  -16.7690   21.2046 H   0  0  0  0  0  0
  -28.6612  -19.8634   21.8021 H   0  0  0  0  0  0
  -25.7680  -17.8320   20.8314 H   0  0  0  0  0  0
  -27.0405  -18.5593   19.8611 H   0  0  0  0  0  0
  -26.6542  -19.1889   21.4656 H   0  0  0  0  0  0
  -32.2021  -23.7697   19.8679 H   0  0  0  0  0  0
  -33.0558  -22.4658   20.6494 H   0  0  0  0  0  0
  -32.2454  -23.6785   21.6265 H   0  0  0  0  0  0
  -30.7426  -22.2156   18.5225 H   0  0  0  0  0  0
  -29.8850  -20.8839   19.2760 H   0  0  0  0  0  0
  -31.6419  -20.8551   19.1732 H   0  0  0  0  0  0
  -31.9921  -21.2668   22.3612 H   0  0  0  0  0  0
  -30.3401  -21.4700   22.7299 H   0  0  0  0  0  0
  -27.4986  -17.0661   22.5170 H   0  0  0  0  0  0
  -27.7130  -16.3673   20.9332 H   0  0  0  0  0  0
  -30.2456  -24.6757   19.5091 H   0  0  0  0  0  0
  -30.2241  -25.1397   21.1988 H   0  0  0  0  0  0
  -27.6268  -25.0459   21.0543 H   0  0  0  0  0  0
  -27.8519  -24.8583   19.3184 H   0  0  0  0  0  0
  -29.1430  -15.1787   21.5732 H   0  0  0  0  0  0
  1 25  1  0  0  0
  1 30  2  0  0  0
  1 86  1  0  0  0
  2  3  1  0  0  0
  2 25  1  0  0  0
  2 88  1  0  0  0
  2 89  1  0  0  0
  3  4  1  0  0  0
  3 90  1  0  0  0
  3 91  1  0  0  0
  4  5  1  0  0  0
  4 92  1  0  0  0
  4 93  1  0  0  0
  5  6  1  0  0  0
  5 26  1  0  0  0
  5 94  1  0  0  0
  6 25  1  0  0  0
  6 95  1  0  0  0
  6 96  1  0  0  0
  7  8  2  0  0  0
  7 26  1  0  0  0
  7 29  1  0  0  0
  8  9  1  0  0  0
  8 22  1  0  0  0
  9 10  1  0  0  0
  9 27  2  0  0  0
 10 11  2  0  0  0
 10 15  1  0  0  0
 11 12  1  0  0  0
 11 97  1  0  0  0
 12 13  2  0  0  0
 12 98  1  0  0  0
 13 14  1  0  0  0
 13 31  1  0  0  0
 14 15  2  0  0  0
 14 99  1  0  0  0
 15100  1  0  0  0
 16 17  2  0  0  0
 16 21  1  0  0  0
 16 31  1  0  0  0
 17 18  1  0  0  0
 17101  1  0  0  0
 18 19  2  0  0  0
 18102  1  0  0  0
 19 20  1  0  0  0
 19 24  1  0  0  0
 20 21  2  0  0  0
 20103  1  0  0  0
 21 23  1  0  0  0
 22 28  1  0  0  0
 22 32  2  0  0  0
 26 27  1  0  0  0
 28104  1  0  0  0
 28105  1  0  0  0
 29106  1  0  0  0
 29107  1  0  0  0
 33 34  1  0  0  0
 33 66  1  0  0  0
 33 70  2  0  0  0
 34 36  1  0  0  0
 34 59  1  0  0  0
 34108  1  0  0  0
 35 44  2  0  0  0
 35 45  1  0  0  0
 35 68  1  0  0  0
 36 56  1  0  0  0
 36109  1  0  0  0
 37 39  1  0  0  0
 37 47  1  0  0  0
 37 66  1  0  0  0
 37110  1  0  0  0
 38 43  2  0  0  0
 38 46  1  0  0  0
 38 47  1  0  0  0
 39 64  1  0  0  0
 39 67  2  0  0  0
 40 52  1  0  0  0
 40 53  2  0  0  0
 40 58  1  0  0  0
 41111  1  0  0  0
 41112  1  0  0  0
 41113  1  0  0  0
 41 48  1  0  0  0
 42 43  1  0  0  0
 42 66  1  0  0  0
 42114  1  0  0  0
 42115  1  0  0  0
 43 44  1  0  0  0
 44116  1  0  0  0
 45 46  2  0  0  0
 45117  1  0  0  0
 46118  1  0  0  0
 47119  1  0  0  0
 47120  1  0  0  0
 48 56  1  0  0  0
 48 65  1  0  0  0
 48121  1  0  0  0
 49 50  1  0  0  0
 49 53  1  0  0  0
 49 64  1  0  0  0
 49122  1  0  0  0
 50 51  1  0  0  0
 50123  1  0  0  0
 50124  1  0  0  0
 51 52  1  0  0  0
 51125  1  0  0  0
 51126  1  0  0  0
 52127  1  0  0  0
 52128  1  0  0  0
 53 54  1  0  0  0
 54 55  2  0  0  0
 54129  1  0  0  0
 55 57  1  0  0  0
 55130  1  0  0  0
 56 69  2  0  0  0
 57 58  2  0  0  0
 57131  1  0  0  0
 58132  1  0  0  0
 59 60  1  0  0  0
 59 61  1  0  0  0
 59 62  1  0  0  0
 60133  1  0  0  0
 60134  1  0  0  0
 60135  1  0  0  0
 61136  1  0  0  0
 61137  1  0  0  0
 61138  1  0  0  0
 62139  1  0  0  0
 62140  1  0  0  0
 62141  1  0  0  0
 63 65  1  0  0  0
 63142  1  0  0  0
 63143  1  0  0  0
 63144  1  0  0  0
 64145  1  0  0  0
 65146  1  0  0  0
 68 84  1  0  0  0
 71 72  2  0  0  0
 71 74  1  0  0  0
 71147  1  0  0  0
 72 76  1  0  0  0
 72148  1  0  0  0
 73 74  2  0  0  0
 73 75  1  0  0  0
 73149  1  0  0  0
 74 81  1  0  0  0
 75 76  2  0  0  0
 75 82  1  0  0  0
 76 86  1  0  0  0
 77 83  1  0  0  0
 77 85  1  0  0  0
 77 87  2  0  0  0
 78 82  1  0  0  0
 78150  1  0  0  0
 78151  1  0  0  0
 78152  1  0  0  0
 79153  1  0  0  0
 79154  1  0  0  0
 79155  1  0  0  0
 79 85  1  0  0  0
 80 85  1  0  0  0
 80156  1  0  0  0
 80157  1  0  0  0
 80158  1  0  0  0
 81 85  1  0  0  0
 81159  1  0  0  0
 81160  1  0  0  0
 82161  1  0  0  0
 82162  1  0  0  0
 83 84  1  0  0  0
 83163  1  0  0  0
 83164  1  0  0  0
 84165  1  0  0  0
 84166  1  0  0  0
 86167  1  0  0  0
M  ISO  4   1 100  68 101  84 101  86 100
M  END
> <chiral flag>
0

> <version>
0

> <s_m_source_file>
/data/baiqing/PycharmProjects/Reinvent-master-3.2/result/LINK_invent/BTK/process_docking_weight1_custom_product_contain_oxygen_bond_distance_aromatic_linkinvent_7_9_3/rearranged_h_0142.sdf

> <i_m_source_file_index>
90

> <r_mmod_Potential_Energy-OPLS-2005>
-36.1891555786133

> <r_mmod_Stretch_Energy-OPLS-2005>
46.0824851989746

> <r_mmod_Bend_Energy-OPLS-2005>
106.871894836426

> <r_mmod_Torsional_Energy-OPLS-2005>
228.971160888672

> <r_mmod_Improper_Torsional_Energy-OPLS-2005>
3.67553186416626

> <r_mmod_Van_der_Waal_Energy-OPLS-2005>
166.596969604492

> <r_mmod_Electrostatic_Energy-OPLS-2005>
-400.811309814453

> <r_mmod_Solvation_Energy-OPLS-2005>
-200.915115356445

> <b_mmod_Minimization_Converged-OPLS-2005>
0

> <r_mmod_RMS_Derivative-OPLS-2005>
1.12479054927826

$$$$
90
                    3D
 Structure written by MMmdl.
156164  0  0  1  0            999 V2000
  -30.6644  -14.5652   20.5453 C   0  0  0  0  0  0
  -30.4275  -12.3617   19.4312 C   0  0  0  0  0  0
  -29.4950  -12.5022   18.2098 C   0  0  0  0  0  0
  -28.0187  -12.3473   18.6273 C   0  0  0  0  0  0
  -27.6522  -13.2121   19.8631 C   0  0  2  0  0  0
  -28.6966  -13.0448   20.9876 C   0  0  0  0  0  0
  -25.2556  -13.8169   20.5683 C   0  0  0  0  0  0
  -24.1818  -13.0442   20.9187 C   0  0  0  0  0  0
  -24.6379  -11.6910   20.8744 C   0  0  0  0  0  0
  -23.9048  -10.4295   21.0413 C   0  0  0  0  0  0
  -24.3605   -9.4212   21.9190 C   0  0  0  0  0  0
  -23.6286   -8.2245   22.0755 C   0  0  0  0  0  0
  -22.4270   -8.0279   21.3543 C   0  0  0  0  0  0
  -21.9902   -9.0251   20.4646 C   0  0  0  0  0  0
  -22.7224  -10.2135   20.3060 C   0  0  0  0  0  0
  -21.6850   -6.0734   22.5279 C   0  0  0  0  0  0
  -21.4012   -6.5639   23.8212 C   0  0  0  0  0  0
  -21.3659   -5.6792   24.9174 C   0  0  0  0  0  0
  -21.6044   -4.3055   24.7225 C   0  0  0  0  0  0
  -21.8818   -3.8146   23.4347 C   0  0  0  0  0  0
  -21.9192   -4.6962   22.3403 C   0  0  0  0  0  0
  -22.7843  -13.5240   21.1856 C   0  0  0  0  0  0
  -22.1661   -4.2148   21.0982 F   0  0  0  0  0  0
  -21.5630   -3.4541   25.7738 F   0  0  0  0  0  0
  -30.0129  -13.3725   20.4196 N   0  0  0  0  0  0
  -26.2977  -12.9341   20.3326 N   0  0  0  0  0  0
  -25.9306  -11.6499   20.5764 N   0  0  0  0  0  0
  -22.0481  -12.8231   22.0412 N   0  0  0  0  0  0
  -25.4281  -15.1888   20.4095 N   0  0  0  0  0  0
  -31.8247  -14.7197   20.1553 O   0  0  0  0  0  0
  -21.6636   -6.8876   21.4240 O   0  0  0  0  0  0
  -22.3535  -14.5551   20.6708 O   0  0  0  0  0  0
  -24.6199  -31.8631   23.2045 C   0  0  0  0  0  0
  -25.9072  -32.4795   23.8359 C   0  0  1  0  0  0
  -27.2303  -27.3769   20.1158 C   0  0  0  0  0  0
  -25.5905  -33.8592   24.2291 N   0  0  0  0  0  0
  -23.4108  -30.4848   21.5463 C   0  0  2  0  0  0
  -24.8584  -28.9392   20.1174 C   0  0  0  0  0  0
  -22.7439  -29.4635   22.4965 C   0  0  0  0  0  0
  -18.0277  -28.1383   22.8488 C   0  0  0  0  0  0
  -24.1488  -36.7301   23.2641 C   0  0  0  0  0  0
  -25.9445  -30.8130   21.3641 C   0  0  0  0  0  0
  -26.0222  -29.4415   20.7135 C   0  0  0  0  0  0
  -27.2150  -28.6710   20.7019 C   0  0  0  0  0  0
  -26.0489  -26.8998   19.5142 C   0  0  0  0  0  0
  -24.8693  -27.6704   19.5115 C   0  0  0  0  0  0
  -23.6230  -29.8129   20.1630 C   0  0  0  0  0  0
  -25.4110  -36.3091   24.0334 C   0  0  1  0  0  0
  -20.5872  -28.3671   23.1305 C   0  0  2  0  0  0
  -20.6769  -26.9402   22.5415 C   0  0  0  0  0  0
  -19.5747  -26.6384   21.5214 C   0  0  0  0  0  0
  -18.1923  -26.7925   22.1622 C   0  0  0  0  0  0
  -19.1528  -28.8844   23.2892 C   0  0  0  0  0  0
  -18.9457  -30.1448   23.8904 C   0  0  0  0  0  0
  -17.6460  -30.6586   24.0564 C   0  0  0  0  0  0
  -25.9042  -34.9461   23.5111 C   0  0  0  0  0  0
  -16.5350  -29.9087   23.6332 C   0  0  0  0  0  0
  -16.7266  -28.6506   23.0350 C   0  0  0  0  0  0
  -26.4484  -31.6589   25.0708 C   0  0  0  0  0  0
  -25.3736  -31.3706   26.1447 C   0  0  0  0  0  0
  -27.0323  -30.3027   24.6105 C   0  0  0  0  0  0
  -27.6047  -32.4319   25.7476 C   0  0  0  0  0  0
  -27.5577  -37.1803   24.8465 C   0  0  0  0  0  0
  -21.4159  -29.3033   22.3707 N   0  0  0  0  0  0
  -26.4292  -37.3782   23.9410 N   0  0  0  0  0  0
  -24.6772  -31.0691   22.0966 N   0  0  0  0  0  0
  -23.4191  -28.8178   23.3028 O   0  0  0  0  0  0
  -28.3719  -26.5901   20.0888 O   0  0  0  0  0  0
  -26.5608  -34.8923   22.4676 O   0  0  0  0  0  0
  -23.5377  -32.1397   23.7415 O   0  0  0  0  0  0
  -30.0775  -20.1858   19.1368 C   0  0  0  0  0  0
  -29.1547  -19.2408   21.0530 C   0  0  0  0  0  0
  -29.2031  -20.3937   20.1707 C   0  0  0  0  0  0
  -30.0170  -18.2068   20.6929 C   0  0  0  0  0  0
  -28.4395  -24.0345   20.0098 C   0  0  0  0  0  0
  -28.9701  -19.7296   23.5186 C   0  0  0  0  0  0
  -28.2692  -19.1948   22.2644 C   0  0  0  0  0  0
  -30.4194  -16.9370   21.4575 C   0  0  0  0  0  0
  -28.3285  -25.3461   20.8538 C   0  0  0  0  0  0
  -29.0705  -22.7640   20.6720 C   0  0  0  0  0  0
  -29.9260  -15.6114   20.9992 N   0  0  0  0  0  0
  -28.0376  -23.9999   18.8409 O   0  0  0  0  0  0
  -28.4323  -21.5249   20.2618 O   0  0  0  0  0  0
  -30.8572  -18.6250   19.2214 S   0  0  0  0  0  0
  -31.4690  -12.4794   19.1265 H   0  0  0  0  0  0
  -30.3523  -11.3619   19.8616 H   0  0  0  0  0  0
  -29.7487  -11.7575   17.4541 H   0  0  0  0  0  0
  -29.6431  -13.4768   17.7420 H   0  0  0  0  0  0
  -27.8491  -11.2936   18.8523 H   0  0  0  0  0  0
  -27.3615  -12.5876   17.7907 H   0  0  0  0  0  0
  -27.6792  -14.2511   19.5342 H   0  0  0  0  0  0
  -28.6979  -12.0196   21.3606 H   0  0  0  0  0  0
  -28.4509  -13.6707   21.8466 H   0  0  0  0  0  0
  -25.2750   -9.5691   22.4767 H   0  0  0  0  0  0
  -23.9995   -7.4636   22.7476 H   0  0  0  0  0  0
  -21.0833   -8.8768   19.8952 H   0  0  0  0  0  0
  -22.3681  -10.9674   19.6171 H   0  0  0  0  0  0
  -21.2001   -7.6146   23.9713 H   0  0  0  0  0  0
  -21.1483   -6.0525   25.9076 H   0  0  0  0  0  0
  -22.0597   -2.7608   23.2848 H   0  0  0  0  0  0
  -22.4091  -11.9883   22.4789 H   0  0  0  0  0  0
  -21.1107  -13.1270   22.2632 H   0  0  0  0  0  0
  -24.6608  -15.8436   20.5152 H   0  0  0  0  0  0
  -26.2770  -15.6269   20.0750 H   0  0  0  0  0  0
  -26.7141  -32.5493   23.1115 H   0  0  0  0  0  0
  -25.0061  -33.9746   25.0440 H   0  0  0  0  0  0
  -22.7018  -31.3027   21.4022 H   0  0  0  0  0  0
  -23.3747  -35.9637   23.3308 H   0  0  0  0  0  0
  -24.3578  -36.8913   22.2054 H   0  0  0  0  0  0
  -23.7248  -37.6507   23.6659 H   0  0  0  0  0  0
  -26.0614  -31.5758   20.5929 H   0  0  0  0  0  0
  -26.8306  -30.8683   21.9848 H   0  0  0  0  0  0
  -28.1159  -29.0569   21.1577 H   0  0  0  0  0  0
  -26.0401  -25.9267   19.0434 H   0  0  0  0  0  0
  -23.9754  -27.2781   19.0462 H   0  0  0  0  0  0
  -23.7361  -30.5856   19.4018 H   0  0  0  0  0  0
  -22.7455  -29.2357   19.8655 H   0  0  0  0  0  0
  -25.1291  -36.1943   25.0826 H   0  0  0  0  0  0
  -20.9960  -28.3244   24.1428 H   0  0  0  0  0  0
  -20.5678  -26.2278   23.3607 H   0  0  0  0  0  0
  -21.6639  -26.7444   22.1202 H   0  0  0  0  0  0
  -19.6911  -25.6297   21.1238 H   0  0  0  0  0  0
  -19.6691  -27.3201   20.6750 H   0  0  0  0  0  0
  -17.4194  -26.6676   21.4023 H   0  0  0  0  0  0
  -18.0319  -26.0064   22.9014 H   0  0  0  0  0  0
  -19.7936  -30.7262   24.2274 H   0  0  0  0  0  0
  -17.5016  -31.6269   24.5161 H   0  0  0  0  0  0
  -15.5350  -30.2995   23.7656 H   0  0  0  0  0  0
  -15.8663  -28.0830   22.7063 H   0  0  0  0  0  0
  -24.5912  -30.7052   25.7782 H   0  0  0  0  0  0
  -24.8927  -32.2865   26.4893 H   0  0  0  0  0  0
  -25.8079  -30.8875   27.0209 H   0  0  0  0  0  0
  -26.2873  -29.6779   24.1164 H   0  0  0  0  0  0
  -27.4093  -29.7274   25.4572 H   0  0  0  0  0  0
  -27.8705  -30.4343   23.9259 H   0  0  0  0  0  0
  -27.2656  -33.3614   26.2062 H   0  0  0  0  0  0
  -28.3856  -32.6886   25.0306 H   0  0  0  0  0  0
  -28.0716  -31.8437   26.5388 H   0  0  0  0  0  0
  -28.2597  -38.0099   24.7510 H   0  0  0  0  0  0
  -28.1072  -36.2631   24.6294 H   0  0  0  0  0  0
  -27.2292  -37.1455   25.8867 H   0  0  0  0  0  0
  -20.9329  -29.8749   21.6917 H   0  0  0  0  0  0
  -26.0173  -38.2855   24.1413 H   0  0  0  0  0  0
  -30.3029  -20.8502   18.3111 H   0  0  0  0  0  0
  -28.3083  -19.6768   24.3833 H   0  0  0  0  0  0
  -29.2661  -20.7711   23.3901 H   0  0  0  0  0  0
  -29.8665  -19.1541   23.7506 H   0  0  0  0  0  0
  -27.9248  -18.1757   22.4451 H   0  0  0  0  0  0
  -27.3651  -19.7780   22.0853 H   0  0  0  0  0  0
  -30.1064  -17.0346   22.4968 H   0  0  0  0  0  0
  -31.5089  -16.9079   21.5133 H   0  0  0  0  0  0
  -29.1548  -25.3626   21.5645 H   0  0  0  0  0  0
  -27.4152  -25.2978   21.4484 H   0  0  0  0  0  0
  -28.9987  -22.8548   21.7557 H   0  0  0  0  0  0
  -30.1322  -22.7398   20.4250 H   0  0  0  0  0  0
  -28.9639  -15.4003   21.2157 H   0  0  0  0  0  0
  1 25  1  0  0  0
  1 30  2  0  0  0
  1 81  1  0  0  0
  2  3  1  0  0  0
  2 25  1  0  0  0
  2 85  1  0  0  0
  2 86  1  0  0  0
  3  4  1  0  0  0
  3 87  1  0  0  0
  3 88  1  0  0  0
  4  5  1  0  0  0
  4 89  1  0  0  0
  4 90  1  0  0  0
  5  6  1  0  0  0
  5 26  1  0  0  0
  5 91  1  0  0  0
  6 25  1  0  0  0
  6 92  1  0  0  0
  6 93  1  0  0  0
  7  8  2  0  0  0
  7 26  1  0  0  0
  7 29  1  0  0  0
  8  9  1  0  0  0
  8 22  1  0  0  0
  9 10  1  0  0  0
  9 27  2  0  0  0
 10 11  2  0  0  0
 10 15  1  0  0  0
 11 12  1  0  0  0
 11 94  1  0  0  0
 12 13  2  0  0  0
 12 95  1  0  0  0
 13 14  1  0  0  0
 13 31  1  0  0  0
 14 15  2  0  0  0
 14 96  1  0  0  0
 15 97  1  0  0  0
 16 17  2  0  0  0
 16 21  1  0  0  0
 16 31  1  0  0  0
 17 18  1  0  0  0
 17 98  1  0  0  0
 18 19  2  0  0  0
 18 99  1  0  0  0
 19 20  1  0  0  0
 19 24  1  0  0  0
 20 21  2  0  0  0
 20100  1  0  0  0
 21 23  1  0  0  0
 22 28  1  0  0  0
 22 32  2  0  0  0
 26 27  1  0  0  0
 28101  1  0  0  0
 28102  1  0  0  0
 29103  1  0  0  0
 29104  1  0  0  0
 33 34  1  0  0  0
 33 66  1  0  0  0
 33 70  2  0  0  0
 34 36  1  0  0  0
 34 59  1  0  0  0
 34105  1  0  0  0
 35 44  2  0  0  0
 35 45  1  0  0  0
 35 68  1  0  0  0
 36 56  1  0  0  0
 36106  1  0  0  0
 37 39  1  0  0  0
 37 47  1  0  0  0
 37 66  1  0  0  0
 37107  1  0  0  0
 38 43  2  0  0  0
 38 46  1  0  0  0
 38 47  1  0  0  0
 39 64  1  0  0  0
 39 67  2  0  0  0
 40 52  1  0  0  0
 40 53  2  0  0  0
 40 58  1  0  0  0
 41108  1  0  0  0
 41109  1  0  0  0
 41110  1  0  0  0
 41 48  1  0  0  0
 42 43  1  0  0  0
 42 66  1  0  0  0
 42111  1  0  0  0
 42112  1  0  0  0
 43 44  1  0  0  0
 44113  1  0  0  0
 45 46  2  0  0  0
 45114  1  0  0  0
 46115  1  0  0  0
 47116  1  0  0  0
 47117  1  0  0  0
 48 56  1  0  0  0
 48 65  1  0  0  0
 48118  1  0  0  0
 49 50  1  0  0  0
 49 53  1  0  0  0
 49 64  1  0  0  0
 49119  1  0  0  0
 50 51  1  0  0  0
 50120  1  0  0  0
 50121  1  0  0  0
 51 52  1  0  0  0
 51122  1  0  0  0
 51123  1  0  0  0
 52124  1  0  0  0
 52125  1  0  0  0
 53 54  1  0  0  0
 54 55  2  0  0  0
 54126  1  0  0  0
 55 57  1  0  0  0
 55127  1  0  0  0
 56 69  2  0  0  0
 57 58  2  0  0  0
 57128  1  0  0  0
 58129  1  0  0  0
 59 60  1  0  0  0
 59 61  1  0  0  0
 59 62  1  0  0  0
 60130  1  0  0  0
 60131  1  0  0  0
 60132  1  0  0  0
 61133  1  0  0  0
 61134  1  0  0  0
 61135  1  0  0  0
 62136  1  0  0  0
 62137  1  0  0  0
 62138  1  0  0  0
 63 65  1  0  0  0
 63139  1  0  0  0
 63140  1  0  0  0
 63141  1  0  0  0
 64142  1  0  0  0
 65143  1  0  0  0
 68 79  1  0  0  0
 71 73  2  0  0  0
 71 84  1  0  0  0
 71144  1  0  0  0
 72 73  1  0  0  0
 72 74  2  0  0  0
 72 77  1  0  0  0
 73 83  1  0  0  0
 74 78  1  0  0  0
 74 84  1  0  0  0
 75 79  1  0  0  0
 75 80  1  0  0  0
 75 82  2  0  0  0
 76 77  1  0  0  0
 76145  1  0  0  0
 76146  1  0  0  0
 76147  1  0  0  0
 77148  1  0  0  0
 77149  1  0  0  0
 78 81  1  0  0  0
 78150  1  0  0  0
 78151  1  0  0  0
 79152  1  0  0  0
 79153  1  0  0  0
 80 83  1  0  0  0
 80154  1  0  0  0
 80155  1  0  0  0
 81156  1  0  0  0
M  ISO  4   1 100  68 101  79 101  81 100
M  END
> <chiral flag>
0

> <version>
0

> <s_m_source_file>
/data/baiqing/PycharmProjects/Reinvent-master-3.2/result/LINK_invent/BTK/process_docking_weight1_custom_product_contain_oxygen_bond_distance_aromatic_linkinvent_7_9_3/rearranged_h_0142.sdf

> <i_m_source_file_index>
91

> <r_mmod_Potential_Energy-OPLS-2005>
-68.7537460327148

> <r_mmod_Stretch_Energy-OPLS-2005>
52.7694358825684

> <r_mmod_Bend_Energy-OPLS-2005>
113.554763793945

> <r_mmod_Torsional_Energy-OPLS-2005>
246.070571899414

> <r_mmod_Improper_Torsional_Energy-OPLS-2005>
4.02671003341675

> <r_mmod_Van_der_Waal_Energy-OPLS-2005>
110.08602142334

> <r_mmod_Electrostatic_Energy-OPLS-2005>
-383.610961914062

> <r_mmod_Solvation_Energy-OPLS-2005>
-238.385848999023

> <b_mmod_Minimization_Converged-OPLS-2005>
0

> <r_mmod_RMS_Derivative-OPLS-2005>
0.615441560745239

$$$$
91
                    3D
 Structure written by MMmdl.
163173  0  0  1  0            999 V2000
  -30.6647  -14.4989   20.5484 C   0  0  0  0  0  0
  -30.4265  -12.3246   19.4053 C   0  0  0  0  0  0
  -29.4835  -12.4934   18.1957 C   0  0  0  0  0  0
  -28.0090  -12.3362   18.6228 C   0  0  0  0  0  0
  -27.6489  -13.2003   19.8591 C   0  0  2  0  0  0
  -28.6926  -13.0123   20.9797 C   0  0  0  0  0  0
  -25.2563  -13.8151   20.5700 C   0  0  0  0  0  0
  -24.1801  -13.0424   20.9224 C   0  0  0  0  0  0
  -24.6374  -11.6891   20.8813 C   0  0  0  0  0  0
  -23.9077  -10.4268   21.0469 C   0  0  0  0  0  0
  -24.3628   -9.4164   21.9223 C   0  0  0  0  0  0
  -23.6290   -8.2210   22.0777 C   0  0  0  0  0  0
  -22.4266   -8.0275   21.3574 C   0  0  0  0  0  0
  -21.9921   -9.0258   20.4672 C   0  0  0  0  0  0
  -22.7272  -10.2121   20.3095 C   0  0  0  0  0  0
  -21.6850   -6.0711   22.5290 C   0  0  0  0  0  0
  -21.3987   -6.5629   23.8211 C   0  0  0  0  0  0
  -21.3661   -5.6805   24.9190 C   0  0  0  0  0  0
  -21.6055   -4.3069   24.7255 C   0  0  0  0  0  0
  -21.8816   -3.8135   23.4387 C   0  0  0  0  0  0
  -21.9173   -4.6933   22.3423 C   0  0  0  0  0  0
  -22.7812  -13.5207   21.1893 C   0  0  0  0  0  0
  -22.1651   -4.2109   21.1009 F   0  0  0  0  0  0
  -21.5658   -3.4564   25.7776 F   0  0  0  0  0  0
  -30.0142  -13.3150   20.4063 N   0  0  0  0  0  0
  -26.2959  -12.9290   20.3326 N   0  0  0  0  0  0
  -25.9277  -11.6470   20.5804 N   0  0  0  0  0  0
  -22.0455  -12.8185   22.0473 N   0  0  0  0  0  0
  -25.4351  -15.1856   20.4093 N   0  0  0  0  0  0
  -31.8469  -14.6662   20.2405 O   0  0  0  0  0  0
  -21.6645   -6.8856   21.4255 O   0  0  0  0  0  0
  -22.3495  -14.5509   20.6743 O   0  0  0  0  0  0
  -24.6157  -31.8670   23.2090 C   0  0  0  0  0  0
  -25.9056  -32.4821   23.8365 C   0  0  1  0  0  0
  -27.2341  -27.4238   20.0784 C   0  0  0  0  0  0
  -25.5905  -33.8617   24.2271 N   0  0  0  0  0  0
  -23.4004  -30.4943   21.5504 C   0  0  2  0  0  0
  -24.8456  -28.9525   20.1142 C   0  0  0  0  0  0
  -22.7407  -29.4679   22.4989 C   0  0  0  0  0  0
  -18.0304  -28.1356   22.8462 C   0  0  0  0  0  0
  -24.1496  -36.7304   23.2642 C   0  0  0  0  0  0
  -25.9326  -30.8209   21.3704 C   0  0  0  0  0  0
  -26.0056  -29.4565   20.7139 C   0  0  0  0  0  0
  -27.1949  -28.6901   20.7089 C   0  0  0  0  0  0
  -26.0524  -26.9301   19.4832 C   0  0  0  0  0  0
  -24.8627  -27.6829   19.5090 C   0  0  0  0  0  0
  -23.6048  -29.8197   20.1657 C   0  0  0  0  0  0
  -25.4131  -36.3099   24.0317 C   0  0  1  0  0  0
  -20.5884  -28.3637   23.1295 C   0  0  2  0  0  0
  -20.6784  -26.9395   22.5357 C   0  0  0  0  0  0
  -19.5807  -26.6430   21.5097 C   0  0  0  0  0  0
  -18.1982  -26.7919   22.1531 C   0  0  0  0  0  0
  -19.1558  -28.8809   23.2890 C   0  0  0  0  0  0
  -18.9519  -30.1410   23.8924 C   0  0  0  0  0  0
  -17.6538  -30.6558   24.0583 C   0  0  0  0  0  0
  -25.9063  -34.9470   23.5088 C   0  0  0  0  0  0
  -16.5409  -29.9054   23.6402 C   0  0  0  0  0  0
  -16.7306  -28.6478   23.0401 C   0  0  0  0  0  0
  -26.4467  -31.6642   25.0720 C   0  0  0  0  0  0
  -25.3729  -31.3761   26.1461 C   0  0  0  0  0  0
  -27.0294  -30.3082   24.6137 C   0  0  0  0  0  0
  -27.6024  -32.4387   25.7488 C   0  0  0  0  0  0
  -27.5578  -37.1807   24.8458 C   0  0  0  0  0  0
  -21.4139  -29.3063   22.3735 N   0  0  0  0  0  0
  -26.4307  -37.3795   23.9388 N   0  0  0  0  0  0
  -24.6671  -31.0768   22.0992 N   0  0  0  0  0  0
  -23.4200  -28.8205   23.3017 O   0  0  0  0  0  0
  -28.4028  -26.6827   20.0890 O   0  0  0  0  0  0
  -26.5630  -34.8931   22.4648 O   0  0  0  0  0  0
  -23.5357  -32.1409   23.7520 O   0  0  0  0  0  0
  -28.6572  -23.5080   20.0564 C   0  0  0  0  0  0
  -29.9254  -18.6649   22.6607 C   0  0  0  0  0  0
  -28.6059  -23.6047   17.8550 C   0  0  0  0  0  0
  -28.6537  -24.4229   18.9527 C   0  0  0  0  0  0
  -29.7568  -17.9154   21.4532 C   0  0  0  0  0  0
  -28.5979  -22.2261   19.5545 C   0  0  0  0  0  0
  -30.3332  -17.9092   23.7268 C   0  0  0  0  0  0
  -30.0319  -16.5676   21.6181 C   0  0  0  0  0  0
  -27.4275  -19.9234   19.6496 C   0  0  0  0  0  0
  -27.9056  -18.4859   19.9299 C   0  0  0  0  0  0
  -29.7683  -19.9263   19.9501 C   0  0  0  0  0  0
  -28.5468  -20.8356   20.1645 C   0  0  1  0  0  0
  -30.5711  -18.3541   25.1331 C   0  0  0  0  0  0
  -28.7559  -25.9521   18.9013 C   0  0  0  0  0  0
  -29.3273  -18.5565   20.2592 N   0  0  0  0  0  0
  -29.8476  -15.5521   20.7374 N   0  0  0  0  0  0
  -28.5889  -22.2864   18.1953 O   0  0  0  0  0  0
  -30.5517  -16.2470   23.2617 S   0  0  0  0  0  0
  -31.4646  -12.4517   19.0996 H   0  0  0  0  0  0
  -30.3580  -11.3160   19.8141 H   0  0  0  0  0  0
  -29.7219  -11.7640   17.4221 H   0  0  0  0  0  0
  -29.6307  -13.4761   17.7446 H   0  0  0  0  0  0
  -27.8453  -11.2800   18.8496 H   0  0  0  0  0  0
  -27.3436  -12.5790   17.7958 H   0  0  0  0  0  0
  -27.6804  -14.2390   19.5300 H   0  0  0  0  0  0
  -28.6715  -11.9887   21.3544 H   0  0  0  0  0  0
  -28.4634  -13.6456   21.8395 H   0  0  0  0  0  0
  -25.2759   -9.5600   22.4824 H   0  0  0  0  0  0
  -23.9972   -7.4580   22.7484 H   0  0  0  0  0  0
  -21.0853   -8.8801   19.8974 H   0  0  0  0  0  0
  -22.3760  -10.9673   19.6217 H   0  0  0  0  0  0
  -21.1968   -7.6140   23.9699 H   0  0  0  0  0  0
  -21.1504   -6.0554   25.9092 H   0  0  0  0  0  0
  -22.0588   -2.7598   23.2923 H   0  0  0  0  0  0
  -22.4040  -11.9780   22.4765 H   0  0  0  0  0  0
  -21.1092  -13.1230   22.2772 H   0  0  0  0  0  0
  -24.6785  -15.8496   20.5241 H   0  0  0  0  0  0
  -26.2904  -15.6156   20.0849 H   0  0  0  0  0  0
  -26.7140  -32.5496   23.1131 H   0  0  0  0  0  0
  -25.0028  -33.9783   25.0390 H   0  0  0  0  0  0
  -22.6909  -31.3134   21.4128 H   0  0  0  0  0  0
  -23.3752  -35.9640   23.3329 H   0  0  0  0  0  0
  -24.3591  -36.8905   22.2054 H   0  0  0  0  0  0
  -23.7265  -37.6517   23.6656 H   0  0  0  0  0  0
  -26.0649  -31.5919   20.6076 H   0  0  0  0  0  0
  -26.8124  -30.8606   21.9989 H   0  0  0  0  0  0
  -28.0866  -29.0710   21.1860 H   0  0  0  0  0  0
  -26.0361  -25.9570   19.0150 H   0  0  0  0  0  0
  -23.9627  -27.2815   19.0664 H   0  0  0  0  0  0
  -23.7059  -30.5874   19.3985 H   0  0  0  0  0  0
  -22.7237  -29.2395   19.8827 H   0  0  0  0  0  0
  -25.1330  -36.1938   25.0819 H   0  0  0  0  0  0
  -21.0024  -28.3175   24.1392 H   0  0  0  0  0  0
  -20.5653  -26.2233   23.3511 H   0  0  0  0  0  0
  -21.6681  -26.7480   22.1173 H   0  0  0  0  0  0
  -19.6809  -27.3252   20.6655 H   0  0  0  0  0  0
  -19.6990  -25.6358   21.1071 H   0  0  0  0  0  0
  -17.4196  -26.6582   21.4007 H   0  0  0  0  0  0
  -18.0497  -26.0037   22.8927 H   0  0  0  0  0  0
  -19.8018  -30.7201   24.2313 H   0  0  0  0  0  0
  -17.5158  -31.6230   24.5193 H   0  0  0  0  0  0
  -15.5435  -30.2968   23.7800 H   0  0  0  0  0  0
  -15.8701  -28.0781   22.7156 H   0  0  0  0  0  0
  -24.5839  -30.7201   25.7762 H   0  0  0  0  0  0
  -24.9009  -32.2944   26.4980 H   0  0  0  0  0  0
  -25.8070  -30.8830   27.0170 H   0  0  0  0  0  0
  -26.2835  -29.6856   24.1184 H   0  0  0  0  0  0
  -27.4024  -29.7335   25.4626 H   0  0  0  0  0  0
  -27.8696  -30.4381   23.9307 H   0  0  0  0  0  0
  -27.2593  -33.3637   26.2144 H   0  0  0  0  0  0
  -28.3789  -32.7064   25.0306 H   0  0  0  0  0  0
  -28.0748  -31.8488   26.5350 H   0  0  0  0  0  0
  -28.2615  -38.0086   24.7498 H   0  0  0  0  0  0
  -28.1059  -36.2621   24.6305 H   0  0  0  0  0  0
  -27.2289  -37.1478   25.8860 H   0  0  0  0  0  0
  -20.9283  -29.8800   21.6979 H   0  0  0  0  0  0
  -26.0181  -38.2870   24.1377 H   0  0  0  0  0  0
  -28.7057  -23.7685   21.1034 H   0  0  0  0  0  0
  -29.7215  -19.7242   22.7194 H   0  0  0  0  0  0
  -28.5929  -23.7989   16.7905 H   0  0  0  0  0  0
  -26.4610  -20.1452   20.1013 H   0  0  0  0  0  0
  -27.3151  -20.0357   18.5697 H   0  0  0  0  0  0
  -27.7618  -17.8525   19.0544 H   0  0  0  0  0  0
  -27.3298  -18.0442   20.7457 H   0  0  0  0  0  0
  -30.6272  -20.2424   20.5440 H   0  0  0  0  0  0
  -30.0720  -19.9597   18.9028 H   0  0  0  0  0  0
  -28.3941  -20.9534   21.2376 H   0  0  0  0  0  0
  -30.7573  -19.4269   25.1849 H   0  0  0  0  0  0
  -31.4299  -17.8424   25.5680 H   0  0  0  0  0  0
  -29.7044  -18.1335   25.7591 H   0  0  0  0  0  0
  -29.8015  -26.1894   18.7011 H   0  0  0  0  0  0
  -28.2131  -26.3242   18.0337 H   0  0  0  0  0  0
  -28.8844  -15.3839   20.5009 H   0  0  0  0  0  0
  1 25  1  0  0  0
  1 30  2  0  0  0
  1 86  1  0  0  0
  2  3  1  0  0  0
  2 25  1  0  0  0
  2 89  1  0  0  0
  2 90  1  0  0  0
  3  4  1  0  0  0
  3 91  1  0  0  0
  3 92  1  0  0  0
  4  5  1  0  0  0
  4 93  1  0  0  0
  4 94  1  0  0  0
  5  6  1  0  0  0
  5 26  1  0  0  0
  5 95  1  0  0  0
  6 25  1  0  0  0
  6 96  1  0  0  0
  6 97  1  0  0  0
  7  8  2  0  0  0
  7 26  1  0  0  0
  7 29  1  0  0  0
  8  9  1  0  0  0
  8 22  1  0  0  0
  9 10  1  0  0  0
  9 27  2  0  0  0
 10 11  2  0  0  0
 10 15  1  0  0  0
 11 12  1  0  0  0
 11 98  1  0  0  0
 12 13  2  0  0  0
 12 99  1  0  0  0
 13 14  1  0  0  0
 13 31  1  0  0  0
 14 15  2  0  0  0
 14100  1  0  0  0
 15101  1  0  0  0
 16 17  2  0  0  0
 16 21  1  0  0  0
 16 31  1  0  0  0
 17 18  1  0  0  0
 17102  1  0  0  0
 18 19  2  0  0  0
 18103  1  0  0  0
 19 20  1  0  0  0
 19 24  1  0  0  0
 20 21  2  0  0  0
 20104  1  0  0  0
 21 23  1  0  0  0
 22 28  1  0  0  0
 22 32  2  0  0  0
 26 27  1  0  0  0
 28105  1  0  0  0
 28106  1  0  0  0
 29107  1  0  0  0
 29108  1  0  0  0
 33 34  1  0  0  0
 33 66  1  0  0  0
 33 70  2  0  0  0
 34 36  1  0  0  0
 34 59  1  0  0  0
 34109  1  0  0  0
 35 44  2  0  0  0
 35 45  1  0  0  0
 35 68  1  0  0  0
 36 56  1  0  0  0
 36110  1  0  0  0
 37 39  1  0  0  0
 37 47  1  0  0  0
 37 66  1  0  0  0
 37111  1  0  0  0
 38 43  2  0  0  0
 38 46  1  0  0  0
 38 47  1  0  0  0
 39 64  1  0  0  0
 39 67  2  0  0  0
 40 52  1  0  0  0
 40 53  2  0  0  0
 40 58  1  0  0  0
 41112  1  0  0  0
 41113  1  0  0  0
 41114  1  0  0  0
 41 48  1  0  0  0
 42 43  1  0  0  0
 42 66  1  0  0  0
 42115  1  0  0  0
 42116  1  0  0  0
 43 44  1  0  0  0
 44117  1  0  0  0
 45 46  2  0  0  0
 45118  1  0  0  0
 46119  1  0  0  0
 47120  1  0  0  0
 47121  1  0  0  0
 48 56  1  0  0  0
 48 65  1  0  0  0
 48122  1  0  0  0
 49 50  1  0  0  0
 49 53  1  0  0  0
 49 64  1  0  0  0
 49123  1  0  0  0
 50 51  1  0  0  0
 50124  1  0  0  0
 50125  1  0  0  0
 51 52  1  0  0  0
 51126  1  0  0  0
 51127  1  0  0  0
 52128  1  0  0  0
 52129  1  0  0  0
 53 54  1  0  0  0
 54 55  2  0  0  0
 54130  1  0  0  0
 55 57  1  0  0  0
 55131  1  0  0  0
 56 69  2  0  0  0
 57 58  2  0  0  0
 57132  1  0  0  0
 58133  1  0  0  0
 59 60  1  0  0  0
 59 61  1  0  0  0
 59 62  1  0  0  0
 60134  1  0  0  0
 60135  1  0  0  0
 60136  1  0  0  0
 61137  1  0  0  0
 61138  1  0  0  0
 61139  1  0  0  0
 62140  1  0  0  0
 62141  1  0  0  0
 62142  1  0  0  0
 63 65  1  0  0  0
 63143  1  0  0  0
 63144  1  0  0  0
 63145  1  0  0  0
 64146  1  0  0  0
 65147  1  0  0  0
 68 84  1  0  0  0
 71 74  1  0  0  0
 71 76  2  0  0  0
 71148  1  0  0  0
 72 75  1  0  0  0
 72 77  2  0  0  0
 72149  1  0  0  0
 73 74  2  0  0  0
 73 87  1  0  0  0
 73150  1  0  0  0
 74 84  1  0  0  0
 75 78  2  0  0  0
 75 85  1  0  0  0
 76 87  1  0  0  0
 76 82  1  0  0  0
 77 83  1  0  0  0
 77 88  1  0  0  0
 78 86  1  0  0  0
 78 88  1  0  0  0
 79 80  1  0  0  0
 79 82  1  0  0  0
 79151  1  0  0  0
 79152  1  0  0  0
 80 85  1  0  0  0
 80153  1  0  0  0
 80154  1  0  0  0
 81 82  1  0  0  0
 81 85  1  0  0  0
 81155  1  0  0  0
 81156  1  0  0  0
 82157  1  0  0  0
 83158  1  0  0  0
 83159  1  0  0  0
 83160  1  0  0  0
 84161  1  0  0  0
 84162  1  0  0  0
 86163  1  0  0  0
M  ISO  4   1 100  68 101  84 101  86 100
M  END
> <chiral flag>
0

> <version>
0

> <s_m_source_file>
/data/baiqing/PycharmProjects/Reinvent-master-3.2/result/LINK_invent/BTK/process_docking_weight1_custom_product_contain_oxygen_bond_distance_aromatic_linkinvent_7_9_3/rearranged_h_0142.sdf

> <i_m_source_file_index>
92

> <r_mmod_Potential_Energy-OPLS-2005>
34.5088958740234

> <r_mmod_Stretch_Energy-OPLS-2005>
36.347354888916

> <r_mmod_Bend_Energy-OPLS-2005>
129.053771972656

> <r_mmod_Torsional_Energy-OPLS-2005>
342.392730712891

> <r_mmod_Improper_Torsional_Energy-OPLS-2005>
14.2708768844604

> <r_mmod_Van_der_Waal_Energy-OPLS-2005>
113.815734863281

> <r_mmod_Electrostatic_Energy-OPLS-2005>
-393.933654785156

> <r_mmod_Solvation_Energy-OPLS-2005>
-227.708847045898

> <b_mmod_Minimization_Converged-OPLS-2005>
0

> <r_mmod_RMS_Derivative-OPLS-2005>
4.1984338760376

$$$$
92
                    3D
 Structure written by MMmdl.
164173  0  0  1  0            999 V2000
  -30.6632  -14.5179   20.5724 C   0  0  0  0  0  0
  -30.4380  -12.3357   19.4235 C   0  0  0  0  0  0
  -29.5001  -12.5160   18.2092 C   0  0  0  0  0  0
  -28.0208  -12.3687   18.6200 C   0  0  0  0  0  0
  -27.6641  -13.2046   19.8772 C   0  0  2  0  0  0
  -28.7072  -12.9754   20.9950 C   0  0  0  0  0  0
  -25.2601  -13.8156   20.5685 C   0  0  0  0  0  0
  -24.1849  -13.0436   20.9185 C   0  0  0  0  0  0
  -24.6402  -11.6902   20.8738 C   0  0  0  0  0  0
  -23.9066  -10.4292   21.0411 C   0  0  0  0  0  0
  -24.3620   -9.4205   21.9189 C   0  0  0  0  0  0
  -23.6295   -8.2242   22.0758 C   0  0  0  0  0  0
  -22.4279   -8.0285   21.3545 C   0  0  0  0  0  0
  -21.9916   -9.0260   20.4646 C   0  0  0  0  0  0
  -22.7244  -10.2137   20.3058 C   0  0  0  0  0  0
  -21.6846   -6.0742   22.5283 C   0  0  0  0  0  0
  -21.4010   -6.5643   23.8220 C   0  0  0  0  0  0
  -21.3657   -5.6793   24.9179 C   0  0  0  0  0  0
  -21.6046   -4.3058   24.7229 C   0  0  0  0  0  0
  -21.8816   -3.8150   23.4349 C   0  0  0  0  0  0
  -21.9192   -4.6969   22.3404 C   0  0  0  0  0  0
  -22.7868  -13.5236   21.1842 C   0  0  0  0  0  0
  -22.1656   -4.2159   21.0980 F   0  0  0  0  0  0
  -21.5633   -3.4547   25.7743 F   0  0  0  0  0  0
  -30.0373  -13.3106   20.4512 N   0  0  0  0  0  0
  -26.3037  -12.9320   20.3367 N   0  0  0  0  0  0
  -25.9328  -11.6484   20.5764 N   0  0  0  0  0  0
  -22.0501  -12.8230   22.0393 N   0  0  0  0  0  0
  -25.4345  -15.1878   20.4113 N   0  0  0  0  0  0
  -31.7789  -14.7368   20.0897 O   0  0  0  0  0  0
  -21.6631   -6.8890   21.4245 O   0  0  0  0  0  0
  -22.3558  -14.5547   20.6694 O   0  0  0  0  0  0
  -24.6200  -31.8656   23.2080 C   0  0  0  0  0  0
  -25.9078  -32.4810   23.8383 C   0  0  1  0  0  0
  -27.2365  -27.4010   20.0851 C   0  0  0  0  0  0
  -25.5924  -33.8611   24.2310 N   0  0  0  0  0  0
  -23.4096  -30.4910   21.5488 C   0  0  2  0  0  0
  -24.8546  -28.9540   20.1132 C   0  0  0  0  0  0
  -22.7425  -29.4671   22.4965 C   0  0  0  0  0  0
  -18.0275  -28.1389   22.8504 C   0  0  0  0  0  0
  -24.1478  -36.7297   23.2635 C   0  0  0  0  0  0
  -25.9434  -30.8198   21.3666 C   0  0  0  0  0  0
  -26.0198  -29.4533   20.7086 C   0  0  0  0  0  0
  -27.2122  -28.6840   20.6927 C   0  0  0  0  0  0
  -26.0388  -26.9207   19.5020 C   0  0  0  0  0  0
  -24.8601  -27.6877   19.5084 C   0  0  0  0  0  0
  -23.6191  -29.8254   20.1634 C   0  0  0  0  0  0
  -25.4107  -36.3101   24.0331 C   0  0  1  0  0  0
  -20.5872  -28.3691   23.1308 C   0  0  2  0  0  0
  -20.6763  -26.9416   22.5434 C   0  0  0  0  0  0
  -19.5745  -26.6395   21.5225 C   0  0  0  0  0  0
  -18.1916  -26.7941   22.1621 C   0  0  0  0  0  0
  -19.1528  -28.8850   23.2905 C   0  0  0  0  0  0
  -18.9456  -30.1455   23.8916 C   0  0  0  0  0  0
  -17.6459  -30.6593   24.0584 C   0  0  0  0  0  0
  -25.9054  -34.9472   23.5119 C   0  0  0  0  0  0
  -16.5351  -29.9104   23.6334 C   0  0  0  0  0  0
  -16.7268  -28.6521   23.0360 C   0  0  0  0  0  0
  -26.4486  -31.6605   25.0729 C   0  0  0  0  0  0
  -25.3740  -31.3723   26.1466 C   0  0  0  0  0  0
  -27.0327  -30.3045   24.6144 C   0  0  0  0  0  0
  -27.6053  -32.4334   25.7488 C   0  0  0  0  0  0
  -27.5595  -37.1778   24.8443 C   0  0  0  0  0  0
  -21.4148  -29.3054   22.3696 N   0  0  0  0  0  0
  -26.4275  -37.3808   23.9437 N   0  0  0  0  0  0
  -24.6763  -31.0732   22.0995 N   0  0  0  0  0  0
  -23.4174  -28.8209   23.3024 O   0  0  0  0  0  0
  -28.3837  -26.6147   20.1133 O   0  0  0  0  0  0
  -26.5616  -34.8933   22.4681 O   0  0  0  0  0  0
  -23.5385  -32.1420   23.7458 O   0  0  0  0  0  0
  -28.9025  -18.9967   21.9103 C   0  0  0  0  0  0
  -28.9579  -17.5862   21.8755 C   0  0  0  0  0  0
  -30.8880  -17.6992   20.4239 C   0  0  0  0  0  0
  -29.8358  -19.7967   21.2112 C   0  0  0  0  0  0
  -30.8489  -19.1255   20.4579 C   0  0  0  0  0  0
  -29.9549  -16.9067   21.1433 C   0  0  0  0  0  0
  -28.8987  -24.3083   19.4438 C   0  0  0  0  0  0
  -28.5067  -25.5857   19.1961 C   0  0  0  0  0  0
  -29.7514  -21.2707   21.4367 C   0  0  0  0  0  0
  -28.9386  -23.2355   18.3773 C   0  0  0  0  0  0
  -29.3023  -23.6817   20.7705 C   0  0  0  0  0  0
  -29.0752  -21.8922   19.1093 C   0  0  0  0  0  0
  -33.3256  -19.6946   20.3976 C   0  0  0  0  0  0
  -31.9593  -19.8753   19.7255 C   0  0  0  0  0  0
  -29.4324  -22.2143   20.5039 N   0  0  0  0  0  0
  -29.9210  -15.4677   21.1846 N   0  0  0  0  0  0
  -29.9710  -21.6894   22.6806 N   0  3  0  0  0  0
  -31.4787  -12.4595   19.1178 H   0  0  0  0  0  0
  -30.3632  -11.3215   19.8192 H   0  0  0  0  0  0
  -29.7444  -11.7906   17.4318 H   0  0  0  0  0  0
  -29.6589  -13.5010   17.7675 H   0  0  0  0  0  0
  -27.8338  -11.3121   18.8142 H   0  0  0  0  0  0
  -27.3703  -12.6444   17.7892 H   0  0  0  0  0  0
  -27.7087  -14.2537   19.5839 H   0  0  0  0  0  0
  -28.6955  -11.9305   21.3097 H   0  0  0  0  0  0
  -28.4561  -13.5453   21.8908 H   0  0  0  0  0  0
  -25.2769   -9.5674   22.4763 H   0  0  0  0  0  0
  -24.0004   -7.4630   22.7478 H   0  0  0  0  0  0
  -21.0850   -8.8777   19.8953 H   0  0  0  0  0  0
  -22.3708  -10.9677   19.6167 H   0  0  0  0  0  0
  -21.1996   -7.6150   23.9725 H   0  0  0  0  0  0
  -21.1479   -6.0525   25.9084 H   0  0  0  0  0  0
  -22.0600   -2.7616   23.2846 H   0  0  0  0  0  0
  -22.4101  -11.9880   22.4770 H   0  0  0  0  0  0
  -21.1118  -13.1254   22.2597 H   0  0  0  0  0  0
  -24.6702  -15.8457   20.5199 H   0  0  0  0  0  0
  -26.2859  -15.6240   20.0805 H   0  0  0  0  0  0
  -26.7149  -32.5509   23.1143 H   0  0  0  0  0  0
  -25.0068  -33.9766   25.0451 H   0  0  0  0  0  0
  -22.7018  -31.3104   21.4079 H   0  0  0  0  0  0
  -23.3774  -35.9592   23.3237 H   0  0  0  0  0  0
  -24.3578  -36.8992   22.2066 H   0  0  0  0  0  0
  -23.7179  -37.6457   23.6693 H   0  0  0  0  0  0
  -26.0632  -31.5872   20.6009 H   0  0  0  0  0  0
  -26.8283  -30.8701   21.9892 H   0  0  0  0  0  0
  -28.1110  -29.0639   21.1581 H   0  0  0  0  0  0
  -25.9911  -25.9401   19.0506 H   0  0  0  0  0  0
  -23.9614  -27.2920   19.0561 H   0  0  0  0  0  0
  -23.7303  -30.6008   19.4044 H   0  0  0  0  0  0
  -22.7413  -29.2492   19.8654 H   0  0  0  0  0  0
  -25.1274  -36.1956   25.0820 H   0  0  0  0  0  0
  -20.9982  -28.3274   24.1423 H   0  0  0  0  0  0
  -20.5668  -26.2300   23.3631 H   0  0  0  0  0  0
  -21.6633  -26.7440   22.1237 H   0  0  0  0  0  0
  -19.6908  -25.6309   21.1241 H   0  0  0  0  0  0
  -19.6694  -27.3217   20.6764 H   0  0  0  0  0  0
  -17.4205  -26.6736   21.3998 H   0  0  0  0  0  0
  -18.0278  -26.0059   22.8983 H   0  0  0  0  0  0
  -19.7931  -30.7271   24.2289 H   0  0  0  0  0  0
  -17.5015  -31.6262   24.5200 H   0  0  0  0  0  0
  -15.5355  -30.3021   23.7630 H   0  0  0  0  0  0
  -15.8670  -28.0846   22.7066 H   0  0  0  0  0  0
  -24.5954  -30.7012   25.7821 H   0  0  0  0  0  0
  -24.8874  -32.2873   26.4854 H   0  0  0  0  0  0
  -25.8100  -30.8963   27.0258 H   0  0  0  0  0  0
  -26.2884  -29.6795   24.1197 H   0  0  0  0  0  0
  -27.4080  -29.7308   25.4629 H   0  0  0  0  0  0
  -27.8722  -30.4357   23.9314 H   0  0  0  0  0  0
  -27.2673  -33.3636   26.2068 H   0  0  0  0  0  0
  -28.3854  -32.6898   25.0306 H   0  0  0  0  0  0
  -28.0723  -31.8457   26.5402 H   0  0  0  0  0  0
  -28.2544  -38.0145   24.7621 H   0  0  0  0  0  0
  -28.1160  -36.2690   24.6093 H   0  0  0  0  0  0
  -27.2331  -37.1235   25.8844 H   0  0  0  0  0  0
  -20.9305  -29.8789   21.6927 H   0  0  0  0  0  0
  -26.0156  -38.2858   24.1547 H   0  0  0  0  0  0
  -28.1332  -19.4696   22.5057 H   0  0  0  0  0  0
  -28.2218  -17.0284   22.4373 H   0  0  0  0  0  0
  -31.6701  -17.2209   19.8525 H   0  0  0  0  0  0
  -28.2329  -25.9098   18.2008 H   0  0  0  0  0  0
  -29.7945  -23.4008   17.7222 H   0  0  0  0  0  0
  -28.0370  -23.2641   17.7647 H   0  0  0  0  0  0
  -28.5443  -23.8887   21.5279 H   0  0  0  0  0  0
  -30.2526  -24.1039   21.1006 H   0  0  0  0  0  0
  -29.8118  -21.2567   18.6183 H   0  0  0  0  0  0
  -28.1259  -21.3539   19.0962 H   0  0  0  0  0  0
  -34.0952  -20.2524   19.8625 H   0  0  0  0  0  0
  -33.6318  -18.6483   20.4138 H   0  0  0  0  0  0
  -33.3089  -20.0560   21.4262 H   0  0  0  0  0  0
  -31.7553  -20.9412   19.6478 H   0  0  0  0  0  0
  -32.0055  -19.5097   18.6984 H   0  0  0  0  0  0
  -29.1030  -15.0835   21.6304 H   0  0  0  0  0  0
  -30.2122  -21.0078   23.3845 H   0  0  0  0  0  0
  -29.9279  -22.6581   22.9438 H   0  0  0  0  0  0
  1 25  1  0  0  0
  1 30  2  0  0  0
  1 86  1  0  0  0
  2  3  1  0  0  0
  2 25  1  0  0  0
  2 88  1  0  0  0
  2 89  1  0  0  0
  3  4  1  0  0  0
  3 90  1  0  0  0
  3 91  1  0  0  0
  4  5  1  0  0  0
  4 92  1  0  0  0
  4 93  1  0  0  0
  5  6  1  0  0  0
  5 26  1  0  0  0
  5 94  1  0  0  0
  6 25  1  0  0  0
  6 95  1  0  0  0
  6 96  1  0  0  0
  7  8  2  0  0  0
  7 26  1  0  0  0
  7 29  1  0  0  0
  8  9  1  0  0  0
  8 22  1  0  0  0
  9 10  1  0  0  0
  9 27  2  0  0  0
 10 11  2  0  0  0
 10 15  1  0  0  0
 11 12  1  0  0  0
 11 97  1  0  0  0
 12 13  2  0  0  0
 12 98  1  0  0  0
 13 14  1  0  0  0
 13 31  1  0  0  0
 14 15  2  0  0  0
 14 99  1  0  0  0
 15100  1  0  0  0
 16 17  2  0  0  0
 16 21  1  0  0  0
 16 31  1  0  0  0
 17 18  1  0  0  0
 17101  1  0  0  0
 18 19  2  0  0  0
 18102  1  0  0  0
 19 20  1  0  0  0
 19 24  1  0  0  0
 20 21  2  0  0  0
 20103  1  0  0  0
 21 23  1  0  0  0
 22 28  1  0  0  0
 22 32  2  0  0  0
 26 27  1  0  0  0
 28104  1  0  0  0
 28105  1  0  0  0
 29106  1  0  0  0
 29107  1  0  0  0
 33 34  1  0  0  0
 33 66  1  0  0  0
 33 70  2  0  0  0
 34 36  1  0  0  0
 34 59  1  0  0  0
 34108  1  0  0  0
 35 44  2  0  0  0
 35 45  1  0  0  0
 35 68  1  0  0  0
 36 56  1  0  0  0
 36109  1  0  0  0
 37 39  1  0  0  0
 37 47  1  0  0  0
 37 66  1  0  0  0
 37110  1  0  0  0
 38 43  2  0  0  0
 38 46  1  0  0  0
 38 47  1  0  0  0
 39 64  1  0  0  0
 39 67  2  0  0  0
 40 52  1  0  0  0
 40 53  2  0  0  0
 40 58  1  0  0  0
 41111  1  0  0  0
 41112  1  0  0  0
 41113  1  0  0  0
 41 48  1  0  0  0
 42 43  1  0  0  0
 42 66  1  0  0  0
 42114  1  0  0  0
 42115  1  0  0  0
 43 44  1  0  0  0
 44116  1  0  0  0
 45 46  2  0  0  0
 45117  1  0  0  0
 46118  1  0  0  0
 47119  1  0  0  0
 47120  1  0  0  0
 48 56  1  0  0  0
 48 65  1  0  0  0
 48121  1  0  0  0
 49 50  1  0  0  0
 49 53  1  0  0  0
 49 64  1  0  0  0
 49122  1  0  0  0
 50 51  1  0  0  0
 50123  1  0  0  0
 50124  1  0  0  0
 51 52  1  0  0  0
 51125  1  0  0  0
 51126  1  0  0  0
 52127  1  0  0  0
 52128  1  0  0  0
 53 54  1  0  0  0
 54 55  2  0  0  0
 54129  1  0  0  0
 55 57  1  0  0  0
 55130  1  0  0  0
 56 69  2  0  0  0
 57 58  2  0  0  0
 57131  1  0  0  0
 58132  1  0  0  0
 59 60  1  0  0  0
 59 61  1  0  0  0
 59 62  1  0  0  0
 60133  1  0  0  0
 60134  1  0  0  0
 60135  1  0  0  0
 61136  1  0  0  0
 61137  1  0  0  0
 61138  1  0  0  0
 62139  1  0  0  0
 62140  1  0  0  0
 62141  1  0  0  0
 63 65  1  0  0  0
 63142  1  0  0  0
 63143  1  0  0  0
 63144  1  0  0  0
 64145  1  0  0  0
 65146  1  0  0  0
 68 78  1  0  0  0
 71 72  2  0  0  0
 71 74  1  0  0  0
 71147  1  0  0  0
 72 76  1  0  0  0
 72148  1  0  0  0
 73 75  1  0  0  0
 73 76  2  0  0  0
 73149  1  0  0  0
 74 75  2  0  0  0
 74 79  1  0  0  0
 75 84  1  0  0  0
 76 86  1  0  0  0
 77 78  2  0  0  0
 77 80  1  0  0  0
 77 81  1  0  0  0
 78150  1  0  0  0
 79 85  1  0  0  0
 79 87  2  0  0  0
 80 82  1  0  0  0
 80151  1  0  0  0
 80152  1  0  0  0
 81 85  1  0  0  0
 81153  1  0  0  0
 81154  1  0  0  0
 82 85  1  0  0  0
 82155  1  0  0  0
 82156  1  0  0  0
 83 84  1  0  0  0
 83157  1  0  0  0
 83158  1  0  0  0
 83159  1  0  0  0
 84160  1  0  0  0
 84161  1  0  0  0
 86162  1  0  0  0
 87163  1  0  0  0
 87164  1  0  0  0
M  CHG  1  87   1
M  ISO  4   1 100  68 101  78 101  86 100
M  END
> <chiral flag>
0

> <version>
0

> <s_m_source_file>
/data/baiqing/PycharmProjects/Reinvent-master-3.2/result/LINK_invent/BTK/process_docking_weight1_custom_product_contain_oxygen_bond_distance_aromatic_linkinvent_7_9_3/rearranged_h_0142.sdf

> <i_m_source_file_index>
93

> <r_mmod_Potential_Energy-OPLS-2005>
-134.948425292969

> <r_mmod_Stretch_Energy-OPLS-2005>
48.3119316101074

> <r_mmod_Bend_Energy-OPLS-2005>
139.742584228516

> <r_mmod_Torsional_Energy-OPLS-2005>
244.561279296875

> <r_mmod_Improper_Torsional_Energy-OPLS-2005>
3.6891975402832

> <r_mmod_Van_der_Waal_Energy-OPLS-2005>
152.182235717773

> <r_mmod_Electrostatic_Energy-OPLS-2005>
-361.281097412109

> <r_mmod_Solvation_Energy-OPLS-2005>
-381.009246826172

> <b_mmod_Minimization_Converged-OPLS-2005>
0

> <r_mmod_RMS_Derivative-OPLS-2005>
1.09308779239655

$$$$
93
                    3D
 Structure written by MMmdl.
177185  0  0  1  0            999 V2000
  -30.7893  -14.3362   20.7041 C   0  0  0  0  0  0
  -30.4193  -12.2844   19.3955 C   0  0  0  0  0  0
  -29.4827  -12.5319   18.1996 C   0  0  0  0  0  0
  -28.0091  -12.3840   18.6162 C   0  0  0  0  0  0
  -27.6699  -13.2026   19.8864 C   0  0  2  0  0  0
  -28.7064  -12.9518   21.0048 C   0  0  0  0  0  0
  -25.2615  -13.8164   20.5698 C   0  0  0  0  0  0
  -24.1857  -13.0470   20.9155 C   0  0  0  0  0  0
  -24.6391  -11.6915   20.8744 C   0  0  0  0  0  0
  -23.9050  -10.4313   21.0405 C   0  0  0  0  0  0
  -24.3604   -9.4229   21.9184 C   0  0  0  0  0  0
  -23.6289   -8.2263   22.0757 C   0  0  0  0  0  0
  -22.4272   -8.0289   21.3547 C   0  0  0  0  0  0
  -21.9901   -9.0262   20.4650 C   0  0  0  0  0  0
  -22.7221  -10.2145   20.3055 C   0  0  0  0  0  0
  -21.6862   -6.0735   22.5271 C   0  0  0  0  0  0
  -21.4015   -6.5636   23.8204 C   0  0  0  0  0  0
  -21.3659   -5.6789   24.9168 C   0  0  0  0  0  0
  -21.6045   -4.3051   24.7220 C   0  0  0  0  0  0
  -21.8823   -3.8143   23.4340 C   0  0  0  0  0  0
  -21.9196   -4.6962   22.3397 C   0  0  0  0  0  0
  -22.7877  -13.5266   21.1826 C   0  0  0  0  0  0
  -22.1666   -4.2142   21.0982 F   0  0  0  0  0  0
  -21.5630   -3.4540   25.7738 F   0  0  0  0  0  0
  -30.0597  -13.2150   20.4739 N   0  0  0  0  0  0
  -26.3066  -12.9336   20.3424 N   0  0  0  0  0  0
  -25.9322  -11.6498   20.5783 N   0  0  0  0  0  0
  -22.0501  -12.8280   22.0366 N   0  0  0  0  0  0
  -25.4402  -15.1889   20.4116 N   0  0  0  0  0  0
  -31.7600  -14.6692   20.0140 O   0  0  0  0  0  0
  -21.6649   -6.8878   21.4233 O   0  0  0  0  0  0
  -22.3573  -14.5582   20.6666 O   0  0  0  0  0  0
  -24.6102  -31.8756   23.2161 C   0  0  0  0  0  0
  -25.9051  -32.4836   23.8414 C   0  0  1  0  0  0
  -27.2159  -27.4765   20.0513 C   0  0  0  0  0  0
  -25.5950  -33.8626   24.2333 N   0  0  0  0  0  0
  -23.3889  -30.5037   21.5616 C   0  0  2  0  0  0
  -24.8229  -28.9691   20.1268 C   0  0  0  0  0  0
  -22.7347  -29.4721   22.5086 C   0  0  0  0  0  0
  -18.0283  -28.1367   22.8557 C   0  0  0  0  0  0
  -24.1468  -36.7290   23.2638 C   0  0  0  0  0  0
  -25.9156  -30.8406   21.3705 C   0  0  0  0  0  0
  -25.9836  -29.4788   20.7206 C   0  0  0  0  0  0
  -27.1770  -28.7314   20.6938 C   0  0  0  0  0  0
  -26.0307  -26.9690   19.4701 C   0  0  0  0  0  0
  -24.8368  -27.7069   19.5149 C   0  0  0  0  0  0
  -23.5890  -29.8396   20.1763 C   0  0  0  0  0  0
  -25.4102  -36.3097   24.0329 C   0  0  1  0  0  0
  -20.5870  -28.3635   23.1391 C   0  0  2  0  0  0
  -20.6776  -26.9392   22.5450 C   0  0  0  0  0  0
  -19.5735  -26.6409   21.5249 C   0  0  0  0  0  0
  -18.1919  -26.7932   22.1666 C   0  0  0  0  0  0
  -19.1532  -28.8827   23.2969 C   0  0  0  0  0  0
  -18.9455  -30.1455   23.8943 C   0  0  0  0  0  0
  -17.6461  -30.6604   24.0590 C   0  0  0  0  0  0
  -25.9053  -34.9471   23.5118 C   0  0  0  0  0  0
  -16.5350  -29.9105   23.6347 C   0  0  0  0  0  0
  -16.7277  -28.6505   23.0394 C   0  0  0  0  0  0
  -26.4490  -31.6584   25.0718 C   0  0  0  0  0  0
  -25.3773  -31.3705   26.1473 C   0  0  0  0  0  0
  -27.0309  -30.3006   24.6103 C   0  0  0  0  0  0
  -27.6056  -32.4295   25.7506 C   0  0  0  0  0  0
  -27.5556  -37.1818   24.8486 C   0  0  0  0  0  0
  -21.4090  -29.3029   22.3805 N   0  0  0  0  0  0
  -26.4271  -37.3804   23.9426 N   0  0  0  0  0  0
  -24.6557  -31.0887   22.1063 N   0  0  0  0  0  0
  -23.4148  -28.8270   23.3111 O   0  0  0  0  0  0
  -28.4325  -26.8440   19.9710 O   0  0  0  0  0  0
  -26.5590  -34.8925   22.4662 O   0  0  0  0  0  0
  -23.5318  -32.1538   23.7586 O   0  0  0  0  0  0
  -31.7869  -18.8907   22.7308 C   0  0  0  0  0  0
  -31.8202  -16.4983   23.1747 C   0  0  0  0  0  0
  -30.3921  -17.4107   21.4072 C   0  0  0  0  0  0
  -32.2705  -17.7965   23.4724 C   0  0  0  0  0  0
  -30.8235  -18.7258   21.7042 C   0  0  0  0  0  0
  -30.8999  -16.3054   22.1268 C   0  0  0  0  0  0
  -33.2731  -18.0220   24.5854 C   0  0  0  0  0  0
  -28.2099  -20.7568   22.3360 C   0  0  0  0  0  0
  -29.2330  -19.6211   19.8781 C   0  0  0  0  0  0
  -31.5113  -20.5443   20.1583 C   0  0  0  0  0  0
  -30.1797  -25.4640   21.5873 C   0  0  0  0  0  0
  -27.7934  -24.7417   22.0222 C   0  0  0  0  0  0
  -30.0110  -22.4878   21.7767 C   0  0  0  0  0  0
  -29.3025  -23.2501   20.6357 C   0  0  0  0  0  0
  -28.5244  -25.4443   19.7109 C   0  0  0  0  0  0
  -29.6959  -20.9858   21.9764 C   0  0  2  0  0  0
  -30.3047  -19.9669   20.9397 C   0  0  0  0  0  0
  -28.9557  -24.7185   21.0020 C   0  0  0  0  0  0
  -30.4612  -15.0017   21.8182 N   0  0  0  0  0  0
  -31.4597  -12.3949   19.0839 H   0  0  0  0  0  0
  -30.3308  -11.2570   19.7540 H   0  0  0  0  0  0
  -29.7153  -11.8415   17.3879 H   0  0  0  0  0  0
  -29.6516  -13.5364   17.8061 H   0  0  0  0  0  0
  -27.8125  -11.3244   18.7912 H   0  0  0  0  0  0
  -27.3560  -12.6821   17.7964 H   0  0  0  0  0  0
  -27.7302  -14.2563   19.6124 H   0  0  0  0  0  0
  -28.6552  -11.9192   21.3513 H   0  0  0  0  0  0
  -28.4480  -13.5609   21.8718 H   0  0  0  0  0  0
  -25.2741   -9.5718   22.4761 H   0  0  0  0  0  0
  -23.9999   -7.4663   22.7478 H   0  0  0  0  0  0
  -21.0834   -8.8780   19.8962 H   0  0  0  0  0  0
  -22.3670  -10.9690   19.6167 H   0  0  0  0  0  0
  -21.2006   -7.6144   23.9700 H   0  0  0  0  0  0
  -21.1477   -6.0524   25.9070 H   0  0  0  0  0  0
  -22.0601   -2.7605   23.2848 H   0  0  0  0  0  0
  -22.4080  -11.9917   22.4761 H   0  0  0  0  0  0
  -21.1117  -13.1335   22.2567 H   0  0  0  0  0  0
  -24.6884  -15.8578   20.5356 H   0  0  0  0  0  0
  -26.3109  -15.6196   20.1298 H   0  0  0  0  0  0
  -26.7115  -32.5557   23.1174 H   0  0  0  0  0  0
  -25.0142  -33.9788   25.0504 H   0  0  0  0  0  0
  -22.6762  -31.3208   21.4302 H   0  0  0  0  0  0
  -23.3721  -35.9640   23.3348 H   0  0  0  0  0  0
  -24.3565  -36.8860   22.2047 H   0  0  0  0  0  0
  -23.7219  -37.6503   23.6627 H   0  0  0  0  0  0
  -26.0306  -31.6065   20.6002 H   0  0  0  0  0  0
  -26.8012  -30.8846   21.9931 H   0  0  0  0  0  0
  -28.0739  -29.1224   21.1534 H   0  0  0  0  0  0
  -25.9925  -26.0345   18.9383 H   0  0  0  0  0  0
  -23.9412  -27.3025   19.0641 H   0  0  0  0  0  0
  -23.7068  -30.6175   19.4226 H   0  0  0  0  0  0
  -22.7075  -29.2729   19.8728 H   0  0  0  0  0  0
  -25.1271  -36.1949   25.0816 H   0  0  0  0  0  0
  -20.9968  -28.3158   24.1499 H   0  0  0  0  0  0
  -20.5740  -26.2202   23.3601 H   0  0  0  0  0  0
  -21.6639  -26.7487   22.1185 H   0  0  0  0  0  0
  -19.6883  -25.6334   21.1230 H   0  0  0  0  0  0
  -19.6673  -27.3274   20.6827 H   0  0  0  0  0  0
  -17.4199  -26.6761   21.4045 H   0  0  0  0  0  0
  -18.0273  -26.0029   22.9014 H   0  0  0  0  0  0
  -19.7930  -30.7298   24.2266 H   0  0  0  0  0  0
  -17.5014  -31.6290   24.5192 H   0  0  0  0  0  0
  -15.5347  -30.3029   23.7649 H   0  0  0  0  0  0
  -15.8666  -28.0843   22.7087 H   0  0  0  0  0  0
  -24.5977  -30.6981   25.7874 H   0  0  0  0  0  0
  -24.8923  -32.2861   26.4859 H   0  0  0  0  0  0
  -25.8157  -30.8970   27.0267 H   0  0  0  0  0  0
  -26.2855  -29.6782   24.1122 H   0  0  0  0  0  0
  -27.4015  -29.7206   25.4576 H   0  0  0  0  0  0
  -27.8729  -30.4288   23.9289 H   0  0  0  0  0  0
  -27.2659  -33.3598   26.2082 H   0  0  0  0  0  0
  -28.3902  -32.6851   25.0368 H   0  0  0  0  0  0
  -28.0678  -31.8410   26.5448 H   0  0  0  0  0  0
  -28.2619  -38.0068   24.7501 H   0  0  0  0  0  0
  -28.0987  -36.2607   24.6344 H   0  0  0  0  0  0
  -27.2281  -37.1510   25.8890 H   0  0  0  0  0  0
  -20.9198  -29.8713   21.7027 H   0  0  0  0  0  0
  -26.0129  -38.2860   24.1460 H   0  0  0  0  0  0
  -32.1582  -19.8790   22.9637 H   0  0  0  0  0  0
  -32.1998  -15.6504   23.7301 H   0  0  0  0  0  0
  -29.6776  -17.2291   20.6210 H   0  0  0  0  0  0
  -32.9280  -18.8127   25.2523 H   0  0  0  0  0  0
  -34.2367  -18.3190   24.1722 H   0  0  0  0  0  0
  -33.4236  -17.1213   25.1830 H   0  0  0  0  0  0
  -27.9069  -21.3803   23.1776 H   0  0  0  0  0  0
  -28.0364  -19.7211   22.6274 H   0  0  0  0  0  0
  -27.5381  -20.9885   21.5087 H   0  0  0  0  0  0
  -29.6255  -18.9696   19.0986 H   0  0  0  0  0  0
  -28.8596  -20.5233   19.3927 H   0  0  0  0  0  0
  -28.3682  -19.1165   20.3093 H   0  0  0  0  0  0
  -31.9443  -19.8052   19.4834 H   0  0  0  0  0  0
  -32.3105  -20.8738   20.8187 H   0  0  0  0  0  0
  -31.2343  -21.3981   19.5407 H   0  0  0  0  0  0
  -29.9281  -26.4934   21.8496 H   0  0  0  0  0  0
  -30.9987  -25.5091   20.8716 H   0  0  0  0  0  0
  -30.5563  -25.0100   22.5007 H   0  0  0  0  0  0
  -28.0357  -24.2247   22.9494 H   0  0  0  0  0  0
  -26.9043  -24.2624   21.6112 H   0  0  0  0  0  0
  -27.5256  -25.7622   22.2950 H   0  0  0  0  0  0
  -31.0848  -22.6556   21.6928 H   0  0  0  0  0  0
  -29.7607  -22.9569   22.7221 H   0  0  0  0  0  0
  -28.3946  -22.7340   20.3245 H   0  0  0  0  0  0
  -29.9441  -23.2399   19.7521 H   0  0  0  0  0  0
  -29.2925  -25.3326   18.9456 H   0  0  0  0  0  0
  -27.6488  -24.9634   19.2842 H   0  0  0  0  0  0
  -30.1863  -20.8086   22.9325 H   0  0  0  0  0  0
  -29.7715  -14.5823   22.4239 H   0  0  0  0  0  0
  1 25  1  0  0  0
  1 30  2  0  0  0
  1 89  1  0  0  0
  2  3  1  0  0  0
  2 25  1  0  0  0
  2 90  1  0  0  0
  2 91  1  0  0  0
  3  4  1  0  0  0
  3 92  1  0  0  0
  3 93  1  0  0  0
  4  5  1  0  0  0
  4 94  1  0  0  0
  4 95  1  0  0  0
  5  6  1  0  0  0
  5 26  1  0  0  0
  5 96  1  0  0  0
  6 25  1  0  0  0
  6 97  1  0  0  0
  6 98  1  0  0  0
  7  8  2  0  0  0
  7 26  1  0  0  0
  7 29  1  0  0  0
  8  9  1  0  0  0
  8 22  1  0  0  0
  9 10  1  0  0  0
  9 27  2  0  0  0
 10 11  2  0  0  0
 10 15  1  0  0  0
 11 12  1  0  0  0
 11 99  1  0  0  0
 12 13  2  0  0  0
 12100  1  0  0  0
 13 14  1  0  0  0
 13 31  1  0  0  0
 14 15  2  0  0  0
 14101  1  0  0  0
 15102  1  0  0  0
 16 17  2  0  0  0
 16 21  1  0  0  0
 16 31  1  0  0  0
 17 18  1  0  0  0
 17103  1  0  0  0
 18 19  2  0  0  0
 18104  1  0  0  0
 19 20  1  0  0  0
 19 24  1  0  0  0
 20 21  2  0  0  0
 20105  1  0  0  0
 21 23  1  0  0  0
 22 28  1  0  0  0
 22 32  2  0  0  0
 26 27  1  0  0  0
 28106  1  0  0  0
 28107  1  0  0  0
 29108  1  0  0  0
 29109  1  0  0  0
 33 34  1  0  0  0
 33 66  1  0  0  0
 33 70  2  0  0  0
 34 36  1  0  0  0
 34 59  1  0  0  0
 34110  1  0  0  0
 35 44  2  0  0  0
 35 45  1  0  0  0
 35 68  1  0  0  0
 36 56  1  0  0  0
 36111  1  0  0  0
 37 39  1  0  0  0
 37 47  1  0  0  0
 37 66  1  0  0  0
 37112  1  0  0  0
 38 43  2  0  0  0
 38 46  1  0  0  0
 38 47  1  0  0  0
 39 64  1  0  0  0
 39 67  2  0  0  0
 40 52  1  0  0  0
 40 53  2  0  0  0
 40 58  1  0  0  0
 41113  1  0  0  0
 41114  1  0  0  0
 41115  1  0  0  0
 41 48  1  0  0  0
 42 43  1  0  0  0
 42 66  1  0  0  0
 42116  1  0  0  0
 42117  1  0  0  0
 43 44  1  0  0  0
 44118  1  0  0  0
 45 46  2  0  0  0
 45119  1  0  0  0
 46120  1  0  0  0
 47121  1  0  0  0
 47122  1  0  0  0
 48 56  1  0  0  0
 48 65  1  0  0  0
 48123  1  0  0  0
 49 50  1  0  0  0
 49 53  1  0  0  0
 49 64  1  0  0  0
 49124  1  0  0  0
 50 51  1  0  0  0
 50125  1  0  0  0
 50126  1  0  0  0
 51 52  1  0  0  0
 51127  1  0  0  0
 51128  1  0  0  0
 52129  1  0  0  0
 52130  1  0  0  0
 53 54  1  0  0  0
 54 55  2  0  0  0
 54131  1  0  0  0
 55 57  1  0  0  0
 55132  1  0  0  0
 56 69  2  0  0  0
 57 58  2  0  0  0
 57133  1  0  0  0
 58134  1  0  0  0
 59 60  1  0  0  0
 59 61  1  0  0  0
 59 62  1  0  0  0
 60135  1  0  0  0
 60136  1  0  0  0
 60137  1  0  0  0
 61138  1  0  0  0
 61139  1  0  0  0
 61140  1  0  0  0
 62141  1  0  0  0
 62142  1  0  0  0
 62143  1  0  0  0
 63 65  1  0  0  0
 63144  1  0  0  0
 63145  1  0  0  0
 63146  1  0  0  0
 64147  1  0  0  0
 65148  1  0  0  0
 68 85  1  0  0  0
 71 74  2  0  0  0
 71 75  1  0  0  0
 71149  1  0  0  0
 72 74  1  0  0  0
 72 76  2  0  0  0
 72150  1  0  0  0
 73 75  2  0  0  0
 73 76  1  0  0  0
 73151  1  0  0  0
 74 77  1  0  0  0
 75 87  1  0  0  0
 76 89  1  0  0  0
 77152  1  0  0  0
 77153  1  0  0  0
 77154  1  0  0  0
 78155  1  0  0  0
 78156  1  0  0  0
 78157  1  0  0  0
 78 86  1  0  0  0
 79158  1  0  0  0
 79159  1  0  0  0
 79160  1  0  0  0
 79 87  1  0  0  0
 80 87  1  0  0  0
 80161  1  0  0  0
 80162  1  0  0  0
 80163  1  0  0  0
 81164  1  0  0  0
 81165  1  0  0  0
 81166  1  0  0  0
 81 88  1  0  0  0
 82 88  1  0  0  0
 82167  1  0  0  0
 82168  1  0  0  0
 82169  1  0  0  0
 83 84  1  0  0  0
 83 86  1  0  0  0
 83170  1  0  0  0
 83171  1  0  0  0
 84 88  1  0  0  0
 84172  1  0  0  0
 84173  1  0  0  0
 85 88  1  0  0  0
 85174  1  0  0  0
 85175  1  0  0  0
 86 87  1  0  0  0
 86176  1  0  0  0
 89177  1  0  0  0
M  ISO  4   1 100  68 101  85 101  89 100
M  END
> <chiral flag>
0

> <version>
0

> <s_m_source_file>
/data/baiqing/PycharmProjects/Reinvent-master-3.2/result/LINK_invent/BTK/process_docking_weight1_custom_product_contain_oxygen_bond_distance_aromatic_linkinvent_7_9_3/rearranged_h_0142.sdf

> <i_m_source_file_index>
94

> <r_mmod_Potential_Energy-OPLS-2005>
28.5415458679199

> <r_mmod_Stretch_Energy-OPLS-2005>
37.7611694335938

> <r_mmod_Bend_Energy-OPLS-2005>
126.554512023926

> <r_mmod_Torsional_Energy-OPLS-2005>
269.092895507812

> <r_mmod_Improper_Torsional_Energy-OPLS-2005>
2.89613676071167

> <r_mmod_Van_der_Waal_Energy-OPLS-2005>
181.750915527344

> <r_mmod_Electrostatic_Energy-OPLS-2005>
-414.761749267578

> <r_mmod_Solvation_Energy-OPLS-2005>
-184.500473022461

> <b_mmod_Minimization_Converged-OPLS-2005>
0

> <r_mmod_RMS_Derivative-OPLS-2005>
4.5029444694519

$$$$
94
                    3D
 Structure written by MMmdl.
158167  0  0  1  0            999 V2000
  -30.6268  -14.6473   20.4866 C   0  0  0  0  0  0
  -30.4346  -12.3950   19.4631 C   0  0  0  0  0  0
  -29.5091  -12.5095   18.2306 C   0  0  0  0  0  0
  -28.0322  -12.3470   18.6384 C   0  0  0  0  0  0
  -27.6523  -13.2218   19.8623 C   0  0  2  0  0  0
  -28.6942  -13.0871   20.9970 C   0  0  0  0  0  0
  -25.2553  -13.8191   20.5694 C   0  0  0  0  0  0
  -24.1822  -13.0453   20.9188 C   0  0  0  0  0  0
  -24.6384  -11.6926   20.8718 C   0  0  0  0  0  0
  -23.9058  -10.4306   21.0390 C   0  0  0  0  0  0
  -24.3610   -9.4222   21.9164 C   0  0  0  0  0  0
  -23.6284   -8.2257   22.0738 C   0  0  0  0  0  0
  -22.4259   -8.0289   21.3539 C   0  0  0  0  0  0
  -21.9900   -9.0264   20.4644 C   0  0  0  0  0  0
  -22.7229  -10.2143   20.3045 C   0  0  0  0  0  0
  -21.6857   -6.0740   22.5275 C   0  0  0  0  0  0
  -21.4020   -6.5637   23.8213 C   0  0  0  0  0  0
  -21.3657   -5.6779   24.9168 C   0  0  0  0  0  0
  -21.6042   -4.3045   24.7217 C   0  0  0  0  0  0
  -21.8823   -3.8143   23.4331 C   0  0  0  0  0  0
  -21.9196   -4.6968   22.3399 C   0  0  0  0  0  0
  -22.7846  -13.5242   21.1857 C   0  0  0  0  0  0
  -22.1664   -4.2160   21.0973 F   0  0  0  0  0  0
  -21.5622   -3.4524   25.7723 F   0  0  0  0  0  0
  -30.0119  -13.4225   20.4376 N   0  0  0  0  0  0
  -26.2978  -12.9377   20.3296 N   0  0  0  0  0  0
  -25.9308  -11.6532   20.5720 N   0  0  0  0  0  0
  -22.0479  -12.8238   22.0412 N   0  0  0  0  0  0
  -25.4284  -15.1914   20.4152 N   0  0  0  0  0  0
  -31.7838  -14.7953   20.0828 O   0  0  0  0  0  0
  -21.6632   -6.8880   21.4237 O   0  0  0  0  0  0
  -22.3541  -14.5556   20.6717 O   0  0  0  0  0  0
  -24.6246  -31.8592   23.2032 C   0  0  0  0  0  0
  -25.9088  -32.4784   23.8369 C   0  0  1  0  0  0
  -27.2319  -27.3369   20.1149 C   0  0  0  0  0  0
  -25.5909  -33.8586   24.2301 N   0  0  0  0  0  0
  -23.4213  -30.4810   21.5426 C   0  0  2  0  0  0
  -24.8737  -28.9365   20.1102 C   0  0  0  0  0  0
  -22.7480  -29.4615   22.4920 C   0  0  0  0  0  0
  -18.0292  -28.1391   22.8482 C   0  0  0  0  0  0
  -24.1489  -36.7299   23.2636 C   0  0  0  0  0  0
  -25.9604  -30.7942   21.3744 C   0  0  0  0  0  0
  -26.0394  -29.4208   20.7205 C   0  0  0  0  0  0
  -27.2245  -28.6283   20.7226 C   0  0  0  0  0  0
  -26.0526  -26.8984   19.4840 C   0  0  0  0  0  0
  -24.8802  -27.6784   19.4853 C   0  0  0  0  0  0
  -23.6398  -29.8138   20.1586 C   0  0  0  0  0  0
  -25.4106  -36.3092   24.0338 C   0  0  1  0  0  0
  -20.5891  -28.3700   23.1275 C   0  0  2  0  0  0
  -20.6781  -26.9423   22.5406 C   0  0  0  0  0  0
  -19.5755  -26.6392   21.5210 C   0  0  0  0  0  0
  -18.1936  -26.7935   22.1622 C   0  0  0  0  0  0
  -19.1543  -28.8863   23.2879 C   0  0  0  0  0  0
  -18.9466  -30.1460   23.8905 C   0  0  0  0  0  0
  -17.6464  -30.6595   24.0561 C   0  0  0  0  0  0
  -25.9036  -34.9456   23.5122 C   0  0  0  0  0  0
  -16.5357  -29.9093   23.6321 C   0  0  0  0  0  0
  -16.7278  -28.6507   23.0352 C   0  0  0  0  0  0
  -26.4479  -31.6585   25.0732 C   0  0  0  0  0  0
  -25.3723  -31.3729   26.1475 C   0  0  0  0  0  0
  -27.0318  -30.3012   24.6170 C   0  0  0  0  0  0
  -27.6058  -32.4311   25.7483 C   0  0  0  0  0  0
  -27.5589  -37.1791   24.8454 C   0  0  0  0  0  0
  -21.4193  -29.3050   22.3664 N   0  0  0  0  0  0
  -26.4285  -37.3786   23.9424 N   0  0  0  0  0  0
  -24.6869  -31.0615   22.0973 N   0  0  0  0  0  0
  -23.4198  -28.8148   23.2997 O   0  0  0  0  0  0
  -28.2985  -26.4360   20.1398 O   0  0  0  0  0  0
  -26.5606  -34.8917   22.4688 O   0  0  0  0  0  0
  -23.5402  -32.1386   23.7352 O   0  0  0  0  0  0
  -29.9842  -19.8557   19.5355 C   0  0  0  0  0  0
  -30.1128  -18.7732   18.6325 C   0  0  0  0  0  0
  -29.7546  -18.2230   21.3311 C   0  0  0  0  0  0
  -29.8154  -19.6091   20.9112 C   0  0  0  0  0  0
  -29.9402  -17.1119   20.4414 C   0  0  0  0  0  0
  -30.1023  -17.4269   19.0696 C   0  0  0  0  0  0
  -28.6994  -24.4032   21.6418 C   0  0  0  0  0  0
  -28.4432  -25.7222   21.3251 C   0  0  0  0  0  0
  -29.8699  -20.7203   21.9334 C   0  0  0  0  0  0
  -28.7844  -24.0836   23.1061 C   0  0  0  0  0  0
  -28.9681  -23.0545   20.8772 C   0  0  0  0  0  0
  -29.5771  -22.7994   23.2178 C   0  0  0  0  0  0
  -29.4784  -22.0668   21.9275 N   0  0  0  0  0  0
  -29.8718  -15.7180   20.8927 N   0  0  0  0  0  0
  -30.4560  -20.3022   23.0593 N   0  3  0  0  0  0
  -30.2036  -16.4385   18.1479 F   0  0  0  0  0  0
  -31.4771  -12.5139   19.1623 H   0  0  0  0  0  0
  -30.3657  -11.4022   19.9093 H   0  0  0  0  0  0
  -29.7758  -11.7572   17.4870 H   0  0  0  0  0  0
  -29.6525  -13.4795   17.7518 H   0  0  0  0  0  0
  -27.8682  -11.2943   18.8703 H   0  0  0  0  0  0
  -27.3827  -12.5784   17.7934 H   0  0  0  0  0  0
  -27.6706  -14.2551   19.5154 H   0  0  0  0  0  0
  -28.7018  -12.0690   21.3899 H   0  0  0  0  0  0
  -28.4364  -13.7305   21.8387 H   0  0  0  0  0  0
  -25.2758   -9.5703   22.4740 H   0  0  0  0  0  0
  -24.0001   -7.4646   22.7447 H   0  0  0  0  0  0
  -21.0833   -8.8790   19.8944 H   0  0  0  0  0  0
  -22.3687  -10.9681   19.6154 H   0  0  0  0  0  0
  -21.2021   -7.6143   23.9723 H   0  0  0  0  0  0
  -21.1463   -6.0502   25.9073 H   0  0  0  0  0  0
  -22.0604   -2.7610   23.2827 H   0  0  0  0  0  0
  -22.4068  -11.9901   22.4823 H   0  0  0  0  0  0
  -21.1101  -13.1286   22.2603 H   0  0  0  0  0  0
  -24.6675  -15.8490   20.5419 H   0  0  0  0  0  0
  -26.2790  -15.6314   20.0886 H   0  0  0  0  0  0
  -26.7163  -32.5463   23.1128 H   0  0  0  0  0  0
  -25.0068  -33.9733   25.0457 H   0  0  0  0  0  0
  -22.7152  -31.3008   21.3967 H   0  0  0  0  0  0
  -23.3753  -35.9626   23.3279 H   0  0  0  0  0  0
  -24.3599  -36.8933   22.2058 H   0  0  0  0  0  0
  -23.7234  -37.6495   23.6660 H   0  0  0  0  0  0
  -26.0884  -31.5561   20.6042 H   0  0  0  0  0  0
  -26.8417  -30.8475   22.0021 H   0  0  0  0  0  0
  -28.1194  -28.9867   21.2126 H   0  0  0  0  0  0
  -26.0355  -25.9251   19.0143 H   0  0  0  0  0  0
  -23.9859  -27.2988   19.0111 H   0  0  0  0  0  0
  -23.7603  -30.5890   19.4013 H   0  0  0  0  0  0
  -22.7620  -29.2417   19.8537 H   0  0  0  0  0  0
  -25.1278  -36.1943   25.0827 H   0  0  0  0  0  0
  -20.9990  -28.3284   24.1393 H   0  0  0  0  0  0
  -20.5689  -26.2312   23.3607 H   0  0  0  0  0  0
  -21.6650  -26.7452   22.1197 H   0  0  0  0  0  0
  -19.6913  -25.6302   21.1248 H   0  0  0  0  0  0
  -19.6688  -27.3196   20.6735 H   0  0  0  0  0  0
  -17.4201  -26.6682   21.4029 H   0  0  0  0  0  0
  -18.0336  -26.0083   22.9025 H   0  0  0  0  0  0
  -19.7943  -30.7275   24.2281 H   0  0  0  0  0  0
  -17.5020  -31.6272   24.5170 H   0  0  0  0  0  0
  -15.5358  -30.2999   23.7643 H   0  0  0  0  0  0
  -15.8680  -28.0825   22.7069 H   0  0  0  0  0  0
  -24.5872  -30.7102   25.7815 H   0  0  0  0  0  0
  -24.8940  -32.2897   26.4931 H   0  0  0  0  0  0
  -25.8054  -30.8883   27.0236 H   0  0  0  0  0  0
  -26.2888  -29.6769   24.1193 H   0  0  0  0  0  0
  -27.4026  -29.7262   25.4667 H   0  0  0  0  0  0
  -27.8753  -30.4315   23.9387 H   0  0  0  0  0  0
  -27.2688  -33.3610   26.2076 H   0  0  0  0  0  0
  -28.3845  -32.6870   25.0286 H   0  0  0  0  0  0
  -28.0746  -31.8421   26.5379 H   0  0  0  0  0  0
  -28.2567  -38.0130   24.7563 H   0  0  0  0  0  0
  -28.1127  -36.2667   24.6189 H   0  0  0  0  0  0
  -27.2324  -37.1333   25.8859 H   0  0  0  0  0  0
  -20.9374  -29.8778   21.6877 H   0  0  0  0  0  0
  -26.0166  -38.2849   24.1467 H   0  0  0  0  0  0
  -30.0486  -20.8709   19.1697 H   0  0  0  0  0  0
  -30.2382  -18.9738   17.5791 H   0  0  0  0  0  0
  -29.6033  -17.9971   22.3765 H   0  0  0  0  0  0
  -28.3166  -26.4121   22.1501 H   0  0  0  0  0  0
  -27.7813  -23.9440   23.5104 H   0  0  0  0  0  0
  -29.2611  -24.8882   23.6675 H   0  0  0  0  0  0
  -29.6993  -23.2049   20.0821 H   0  0  0  0  0  0
  -28.0419  -22.6877   20.4315 H   0  0  0  0  0  0
  -29.1944  -22.2256   24.0641 H   0  0  0  0  0  0
  -30.6252  -23.0315   23.4170 H   0  0  0  0  0  0
  -29.0381  -15.4736   21.4033 H   0  0  0  0  0  0
  -30.8553  -19.3771   23.0741 H   0  0  0  0  0  0
  -30.6289  -20.9076   23.8417 H   0  0  0  0  0  0
  1 25  1  0  0  0
  1 30  2  0  0  0
  1 84  1  0  0  0
  2  3  1  0  0  0
  2 25  1  0  0  0
  2 87  1  0  0  0
  2 88  1  0  0  0
  3  4  1  0  0  0
  3 89  1  0  0  0
  3 90  1  0  0  0
  4  5  1  0  0  0
  4 91  1  0  0  0
  4 92  1  0  0  0
  5  6  1  0  0  0
  5 26  1  0  0  0
  5 93  1  0  0  0
  6 25  1  0  0  0
  6 94  1  0  0  0
  6 95  1  0  0  0
  7  8  2  0  0  0
  7 26  1  0  0  0
  7 29  1  0  0  0
  8  9  1  0  0  0
  8 22  1  0  0  0
  9 10  1  0  0  0
  9 27  2  0  0  0
 10 11  2  0  0  0
 10 15  1  0  0  0
 11 12  1  0  0  0
 11 96  1  0  0  0
 12 13  2  0  0  0
 12 97  1  0  0  0
 13 14  1  0  0  0
 13 31  1  0  0  0
 14 15  2  0  0  0
 14 98  1  0  0  0
 15 99  1  0  0  0
 16 17  2  0  0  0
 16 21  1  0  0  0
 16 31  1  0  0  0
 17 18  1  0  0  0
 17100  1  0  0  0
 18 19  2  0  0  0
 18101  1  0  0  0
 19 20  1  0  0  0
 19 24  1  0  0  0
 20 21  2  0  0  0
 20102  1  0  0  0
 21 23  1  0  0  0
 22 28  1  0  0  0
 22 32  2  0  0  0
 26 27  1  0  0  0
 28103  1  0  0  0
 28104  1  0  0  0
 29105  1  0  0  0
 29106  1  0  0  0
 33 34  1  0  0  0
 33 66  1  0  0  0
 33 70  2  0  0  0
 34 36  1  0  0  0
 34 59  1  0  0  0
 34107  1  0  0  0
 35 44  2  0  0  0
 35 45  1  0  0  0
 35 68  1  0  0  0
 36 56  1  0  0  0
 36108  1  0  0  0
 37 39  1  0  0  0
 37 47  1  0  0  0
 37 66  1  0  0  0
 37109  1  0  0  0
 38 43  2  0  0  0
 38 46  1  0  0  0
 38 47  1  0  0  0
 39 64  1  0  0  0
 39 67  2  0  0  0
 40 52  1  0  0  0
 40 53  2  0  0  0
 40 58  1  0  0  0
 41110  1  0  0  0
 41111  1  0  0  0
 41112  1  0  0  0
 41 48  1  0  0  0
 42 43  1  0  0  0
 42 66  1  0  0  0
 42113  1  0  0  0
 42114  1  0  0  0
 43 44  1  0  0  0
 44115  1  0  0  0
 45 46  2  0  0  0
 45116  1  0  0  0
 46117  1  0  0  0
 47118  1  0  0  0
 47119  1  0  0  0
 48 56  1  0  0  0
 48 65  1  0  0  0
 48120  1  0  0  0
 49 50  1  0  0  0
 49 53  1  0  0  0
 49 64  1  0  0  0
 49121  1  0  0  0
 50 51  1  0  0  0
 50122  1  0  0  0
 50123  1  0  0  0
 51 52  1  0  0  0
 51124  1  0  0  0
 51125  1  0  0  0
 52126  1  0  0  0
 52127  1  0  0  0
 53 54  1  0  0  0
 54 55  2  0  0  0
 54128  1  0  0  0
 55 57  1  0  0  0
 55129  1  0  0  0
 56 69  2  0  0  0
 57 58  2  0  0  0
 57130  1  0  0  0
 58131  1  0  0  0
 59 60  1  0  0  0
 59 61  1  0  0  0
 59 62  1  0  0  0
 60132  1  0  0  0
 60133  1  0  0  0
 60134  1  0  0  0
 61135  1  0  0  0
 61136  1  0  0  0
 61137  1  0  0  0
 62138  1  0  0  0
 62139  1  0  0  0
 62140  1  0  0  0
 63 65  1  0  0  0
 63141  1  0  0  0
 63142  1  0  0  0
 63143  1  0  0  0
 64144  1  0  0  0
 65145  1  0  0  0
 68 78  1  0  0  0
 71 72  2  0  0  0
 71 74  1  0  0  0
 71146  1  0  0  0
 72 76  1  0  0  0
 72147  1  0  0  0
 73 74  2  0  0  0
 73 75  1  0  0  0
 73148  1  0  0  0
 74 79  1  0  0  0
 75 76  2  0  0  0
 75 84  1  0  0  0
 76 86  1  0  0  0
 77 78  2  0  0  0
 77 80  1  0  0  0
 77 81  1  0  0  0
 78149  1  0  0  0
 79 83  1  0  0  0
 79 85  2  0  0  0
 80 82  1  0  0  0
 80150  1  0  0  0
 80151  1  0  0  0
 81 83  1  0  0  0
 81152  1  0  0  0
 81153  1  0  0  0
 82 83  1  0  0  0
 82154  1  0  0  0
 82155  1  0  0  0
 84156  1  0  0  0
 85157  1  0  0  0
 85158  1  0  0  0
M  CHG  1  85   1
M  ISO  4   1 100  68 101  78 101  84 100
M  END
> <chiral flag>
0

> <version>
0

> <s_m_source_file>
/data/baiqing/PycharmProjects/Reinvent-master-3.2/result/LINK_invent/BTK/process_docking_weight1_custom_product_contain_oxygen_bond_distance_aromatic_linkinvent_7_9_3/rearranged_h_0142.sdf

> <i_m_source_file_index>
95

> <r_mmod_Potential_Energy-OPLS-2005>
-52.9057464599609

> <r_mmod_Stretch_Energy-OPLS-2005>
84.5549926757812

> <r_mmod_Bend_Energy-OPLS-2005>
211.54508972168

> <r_mmod_Torsional_Energy-OPLS-2005>
270.055145263672

> <r_mmod_Improper_Torsional_Energy-OPLS-2005>
4.72814178466797

> <r_mmod_Van_der_Waal_Energy-OPLS-2005>
153.617172241211

> <r_mmod_Electrostatic_Energy-OPLS-2005>
-408.506256103516

> <r_mmod_Solvation_Energy-OPLS-2005>
-419.45849609375

> <b_mmod_Minimization_Converged-OPLS-2005>
0

> <r_mmod_RMS_Derivative-OPLS-2005>
1.53433036804199

$$$$
95
                    3D
 Structure written by MMmdl.
161170  0  0  1  0            999 V2000
  -30.5818  -14.7740   20.4685 C   0  0  0  0  0  0
  -30.4386  -12.4655   19.4885 C   0  0  0  0  0  0
  -29.5307  -12.5166   18.2412 C   0  0  0  0  0  0
  -28.0484  -12.3323   18.6365 C   0  0  0  0  0  0
  -27.6344  -13.2369   19.8319 C   0  0  2  0  0  0
  -28.6723  -13.1995   20.9768 C   0  0  0  0  0  0
  -25.2478  -13.8225   20.5635 C   0  0  0  0  0  0
  -24.1801  -13.0451   20.9178 C   0  0  0  0  0  0
  -24.6406  -11.6927   20.8760 C   0  0  0  0  0  0
  -23.9124  -10.4306   21.0422 C   0  0  0  0  0  0
  -24.3662   -9.4191   21.9176 C   0  0  0  0  0  0
  -23.6305   -8.2250   22.0754 C   0  0  0  0  0  0
  -22.4294   -8.0310   21.3560 C   0  0  0  0  0  0
  -21.9945   -9.0285   20.4658 C   0  0  0  0  0  0
  -22.7299  -10.2140   20.3061 C   0  0  0  0  0  0
  -21.6858   -6.0770   22.5287 C   0  0  0  0  0  0
  -21.3981   -6.5664   23.8210 C   0  0  0  0  0  0
  -21.3642   -5.6821   24.9178 C   0  0  0  0  0  0
  -21.6041   -4.3086   24.7221 C   0  0  0  0  0  0
  -21.8798   -3.8166   23.4344 C   0  0  0  0  0  0
  -21.9172   -4.6988   22.3408 C   0  0  0  0  0  0
  -22.7812  -13.5177   21.1917 C   0  0  0  0  0  0
  -22.1661   -4.2182   21.0979 F   0  0  0  0  0  0
  -21.5635   -3.4553   25.7727 F   0  0  0  0  0  0
  -29.9742  -13.5405   20.3927 N   0  0  0  0  0  0
  -26.2892  -12.9439   20.3168 N   0  0  0  0  0  0
  -25.9302  -11.6567   20.5660 N   0  0  0  0  0  0
  -22.0547  -12.8125   22.0500 N   0  0  0  0  0  0
  -25.4158  -15.1981   20.4031 N   0  0  0  0  0  0
  -31.7952  -14.8817   20.2684 O   0  0  0  0  0  0
  -21.6633   -6.8927   21.4267 O   0  0  0  0  0  0
  -22.3443  -14.5506   20.6829 O   0  0  0  0  0  0
  -24.6314  -31.8481   23.1882 C   0  0  0  0  0  0
  -25.9123  -32.4705   23.8253 C   0  0  1  0  0  0
  -27.2363  -27.2570   20.1131 C   0  0  0  0  0  0
  -25.5892  -33.8524   24.2172 N   0  0  0  0  0  0
  -23.4306  -30.4632   21.5339 C   0  0  2  0  0  0
  -24.8792  -28.9027   20.0957 C   0  0  0  0  0  0
  -22.7530  -29.4540   22.4890 C   0  0  0  0  0  0
  -18.0300  -28.1402   22.8478 C   0  0  0  0  0  0
  -24.1488  -36.7327   23.2635 C   0  0  0  0  0  0
  -25.9709  -30.7545   21.3638 C   0  0  0  0  0  0
  -26.0418  -29.3702   20.7216 C   0  0  0  0  0  0
  -27.2144  -28.5527   20.7294 C   0  0  0  0  0  0
  -26.0568  -26.8558   19.4495 C   0  0  0  0  0  0
  -24.8932  -27.6551   19.4483 C   0  0  0  0  0  0
  -23.6446  -29.7851   20.1498 C   0  0  0  0  0  0
  -25.4108  -36.3063   24.0310 C   0  0  1  0  0  0
  -20.5910  -28.3724   23.1317 C   0  0  2  0  0  0
  -20.6782  -26.9408   22.5538 C   0  0  0  0  0  0
  -19.5808  -26.6385   21.5291 C   0  0  0  0  0  0
  -18.1991  -26.7908   22.1705 C   0  0  0  0  0  0
  -19.1528  -28.8877   23.2884 C   0  0  0  0  0  0
  -18.9476  -30.1427   23.8945 C   0  0  0  0  0  0
  -17.6464  -30.6567   24.0593 C   0  0  0  0  0  0
  -25.9052  -34.9426   23.5057 C   0  0  0  0  0  0
  -16.5354  -29.9077   23.6308 C   0  0  0  0  0  0
  -16.7279  -28.6500   23.0307 C   0  0  0  0  0  0
  -26.4481  -31.6545   25.0659 C   0  0  0  0  0  0
  -25.3696  -31.3760   26.1394 C   0  0  0  0  0  0
  -27.0293  -30.2952   24.6134 C   0  0  0  0  0  0
  -27.6003  -32.4292   25.7473 C   0  0  0  0  0  0
  -27.5578  -37.1812   24.8454 C   0  0  0  0  0  0
  -21.4248  -29.3009   22.3654 N   0  0  0  0  0  0
  -26.4283  -37.3766   23.9394 N   0  0  0  0  0  0
  -24.6975  -31.0425   22.0873 N   0  0  0  0  0  0
  -23.4234  -28.8079   23.2982 O   0  0  0  0  0  0
  -28.3411  -26.3847   20.2331 O   0  0  0  0  0  0
  -26.5687  -34.8933   22.4670 O   0  0  0  0  0  0
  -23.5441  -32.1299   23.7172 O   0  0  0  0  0  0
  -29.3245  -18.4523   20.1897 C   0  0  0  0  0  0
  -29.7537  -19.9057   22.0883 C   0  0  0  0  0  0
  -30.3674  -17.5245   22.1778 C   0  0  0  0  0  0
  -29.2985  -19.7956   20.7555 C   0  0  0  0  0  0
  -29.8653  -17.2884   20.8796 C   0  0  0  0  0  0
  -30.2783  -18.7937   22.7937 C   0  0  0  0  0  0
  -27.2647  -21.4725   20.3525 C   0  0  0  0  0  0
  -27.0221  -22.9942   20.0466 C   0  0  0  0  0  0
  -29.4155  -22.5347   20.1494 C   0  0  0  0  0  0
  -28.7316  -21.0972   20.0190 C   0  0  1  0  0  0
  -28.3657  -23.5884   19.5880 C   0  0  2  0  0  0
  -29.7912  -19.4797   25.0139 C   0  0  0  0  0  0
  -28.5936  -25.1980   19.3634 C   0  0  0  0  0  0
  -29.7424  -15.8835   20.4106 N   0  0  0  0  0  0
  -30.7131  -18.8926   24.0924 O   0  0  0  0  0  0
  -31.4891  -12.5912   19.2199 H   0  0  0  0  0  0
  -30.3646  -11.4931   19.9784 H   0  0  0  0  0  0
  -29.8293  -11.7581   17.5149 H   0  0  0  0  0  0
  -29.6649  -13.4763   17.7438 H   0  0  0  0  0  0
  -27.9037  -11.2822   18.8889 H   0  0  0  0  0  0
  -27.4016  -12.5348   17.7811 H   0  0  0  0  0  0
  -27.6150  -14.2530   19.4342 H   0  0  0  0  0  0
  -28.7060  -12.2234   21.4574 H   0  0  0  0  0  0
  -28.3925  -13.9187   21.7503 H   0  0  0  0  0  0
  -25.2832   -9.5610   22.4703 H   0  0  0  0  0  0
  -24.0009   -7.4623   22.7443 H   0  0  0  0  0  0
  -21.0876   -8.8798   19.8957 H   0  0  0  0  0  0
  -22.3801  -10.9660   19.6140 H   0  0  0  0  0  0
  -21.1972   -7.6172   23.9721 H   0  0  0  0  0  0
  -21.1505   -6.0562   25.9096 H   0  0  0  0  0  0
  -22.0599   -2.7628   23.2832 H   0  0  0  0  0  0
  -22.4233  -11.9680   22.4637 H   0  0  0  0  0  0
  -21.1210  -13.1108   22.2956 H   0  0  0  0  0  0
  -24.6325  -15.8428   20.4524 H   0  0  0  0  0  0
  -26.2540  -15.6308   20.0321 H   0  0  0  0  0  0
  -26.7195  -32.5352   23.0989 H   0  0  0  0  0  0
  -24.9889  -33.9643   25.0216 H   0  0  0  0  0  0
  -22.7320  -31.2881   21.3807 H   0  0  0  0  0  0
  -23.3710  -35.9699   23.3271 H   0  0  0  0  0  0
  -24.3562  -36.8987   22.2049 H   0  0  0  0  0  0
  -23.7292  -37.6544   23.6692 H   0  0  0  0  0  0
  -26.0871  -31.4872   20.5637 H   0  0  0  0  0  0
  -26.8646  -30.8291   21.9745 H   0  0  0  0  0  0
  -28.1048  -28.8976   21.2363 H   0  0  0  0  0  0
  -26.0145  -25.8949   18.9574 H   0  0  0  0  0  0
  -24.0073  -27.2990   18.9419 H   0  0  0  0  0  0
  -23.7547  -30.5541   19.3845 H   0  0  0  0  0  0
  -22.7641  -29.2054   19.8595 H   0  0  0  0  0  0
  -25.1281  -36.1881   25.0800 H   0  0  0  0  0  0
  -20.9976  -28.3343   24.1450 H   0  0  0  0  0  0
  -21.6672  -26.7329   22.1441 H   0  0  0  0  0  0
  -20.5522  -26.2333   23.3754 H   0  0  0  0  0  0
  -19.6998  -25.6286   21.1391 H   0  0  0  0  0  0
  -19.6726  -27.3178   20.6789 H   0  0  0  0  0  0
  -17.4203  -26.6452   21.4178 H   0  0  0  0  0  0
  -18.0602  -26.0161   22.9253 H   0  0  0  0  0  0
  -19.7979  -30.7202   24.2319 H   0  0  0  0  0  0
  -17.4986  -31.6225   24.5224 H   0  0  0  0  0  0
  -15.5321  -30.2937   23.7539 H   0  0  0  0  0  0
  -15.8672  -28.0815   22.7040 H   0  0  0  0  0  0
  -24.5868  -30.7081   25.7777 H   0  0  0  0  0  0
  -24.8882  -32.2949   26.4745 H   0  0  0  0  0  0
  -25.7998  -30.9013   27.0217 H   0  0  0  0  0  0
  -26.2850  -29.6755   24.1113 H   0  0  0  0  0  0
  -27.3921  -29.7157   25.4633 H   0  0  0  0  0  0
  -27.8753  -30.4222   23.9377 H   0  0  0  0  0  0
  -27.2563  -33.3592   26.2036 H   0  0  0  0  0  0
  -28.3853  -32.6859   25.0341 H   0  0  0  0  0  0
  -28.0641  -31.8423   26.5420 H   0  0  0  0  0  0
  -28.2582  -38.0122   24.7466 H   0  0  0  0  0  0
  -28.1071  -36.2637   24.6266 H   0  0  0  0  0  0
  -27.2310  -37.1468   25.8868 H   0  0  0  0  0  0
  -20.9440  -29.8672   21.6832 H   0  0  0  0  0  0
  -26.0140  -38.2847   24.1347 H   0  0  0  0  0  0
  -28.9077  -18.3181   19.2025 H   0  0  0  0  0  0
  -29.6959  -20.8665   22.5766 H   0  0  0  0  0  0
  -30.7594  -16.6994   22.7555 H   0  0  0  0  0  0
  -26.5671  -20.8336   19.8059 H   0  0  0  0  0  0
  -27.0743  -21.2988   21.4111 H   0  0  0  0  0  0
  -26.6357  -23.5109   20.9238 H   0  0  0  0  0  0
  -26.2686  -23.1068   19.2621 H   0  0  0  0  0  0
  -30.3546  -22.5663   19.5931 H   0  0  0  0  0  0
  -29.6503  -22.7698   21.1867 H   0  0  0  0  0  0
  -28.7642  -20.8577   18.9569 H   0  0  0  0  0  0
  -28.3793  -23.2903   18.5363 H   0  0  0  0  0  0
  -30.2313  -19.5030   26.0102 H   0  0  0  0  0  0
  -28.8744  -18.8967   25.0792 H   0  0  0  0  0  0
  -29.5258  -20.5087   24.7708 H   0  0  0  0  0  0
  -28.2006  -25.4517   18.3803 H   0  0  0  0  0  0
  -29.6690  -25.2770   19.2044 H   0  0  0  0  0  0
  -28.8046  -15.6480   20.1309 H   0  0  0  0  0  0
  1 25  1  0  0  0
  1 30  2  0  0  0
  1 84  1  0  0  0
  2  3  1  0  0  0
  2 25  1  0  0  0
  2 86  1  0  0  0
  2 87  1  0  0  0
  3  4  1  0  0  0
  3 88  1  0  0  0
  3 89  1  0  0  0
  4  5  1  0  0  0
  4 90  1  0  0  0
  4 91  1  0  0  0
  5  6  1  0  0  0
  5 26  1  0  0  0
  5 92  1  0  0  0
  6 25  1  0  0  0
  6 93  1  0  0  0
  6 94  1  0  0  0
  7  8  2  0  0  0
  7 26  1  0  0  0
  7 29  1  0  0  0
  8  9  1  0  0  0
  8 22  1  0  0  0
  9 10  1  0  0  0
  9 27  2  0  0  0
 10 11  2  0  0  0
 10 15  1  0  0  0
 11 12  1  0  0  0
 11 95  1  0  0  0
 12 13  2  0  0  0
 12 96  1  0  0  0
 13 14  1  0  0  0
 13 31  1  0  0  0
 14 15  2  0  0  0
 14 97  1  0  0  0
 15 98  1  0  0  0
 16 17  2  0  0  0
 16 21  1  0  0  0
 16 31  1  0  0  0
 17 18  1  0  0  0
 17 99  1  0  0  0
 18 19  2  0  0  0
 18100  1  0  0  0
 19 20  1  0  0  0
 19 24  1  0  0  0
 20 21  2  0  0  0
 20101  1  0  0  0
 21 23  1  0  0  0
 22 28  1  0  0  0
 22 32  2  0  0  0
 26 27  1  0  0  0
 28102  1  0  0  0
 28103  1  0  0  0
 29104  1  0  0  0
 29105  1  0  0  0
 33 34  1  0  0  0
 33 66  1  0  0  0
 33 70  2  0  0  0
 34 36  1  0  0  0
 34 59  1  0  0  0
 34106  1  0  0  0
 35 44  2  0  0  0
 35 45  1  0  0  0
 35 68  1  0  0  0
 36 56  1  0  0  0
 36107  1  0  0  0
 37 39  1  0  0  0
 37 47  1  0  0  0
 37 66  1  0  0  0
 37108  1  0  0  0
 38 43  2  0  0  0
 38 46  1  0  0  0
 38 47  1  0  0  0
 39 64  1  0  0  0
 39 67  2  0  0  0
 40 52  1  0  0  0
 40 53  2  0  0  0
 40 58  1  0  0  0
 41109  1  0  0  0
 41110  1  0  0  0
 41111  1  0  0  0
 41 48  1  0  0  0
 42 43  1  0  0  0
 42 66  1  0  0  0
 42112  1  0  0  0
 42113  1  0  0  0
 43 44  1  0  0  0
 44114  1  0  0  0
 45 46  2  0  0  0
 45115  1  0  0  0
 46116  1  0  0  0
 47117  1  0  0  0
 47118  1  0  0  0
 48 56  1  0  0  0
 48 65  1  0  0  0
 48119  1  0  0  0
 49 50  1  0  0  0
 49 53  1  0  0  0
 49 64  1  0  0  0
 49120  1  0  0  0
 50 51  1  0  0  0
 50121  1  0  0  0
 50122  1  0  0  0
 51 52  1  0  0  0
 51123  1  0  0  0
 51124  1  0  0  0
 52125  1  0  0  0
 52126  1  0  0  0
 53 54  1  0  0  0
 54 55  2  0  0  0
 54127  1  0  0  0
 55 57  1  0  0  0
 55128  1  0  0  0
 56 69  2  0  0  0
 57 58  2  0  0  0
 57129  1  0  0  0
 58130  1  0  0  0
 59 60  1  0  0  0
 59 61  1  0  0  0
 59 62  1  0  0  0
 60131  1  0  0  0
 60132  1  0  0  0
 60133  1  0  0  0
 61134  1  0  0  0
 61135  1  0  0  0
 61136  1  0  0  0
 62137  1  0  0  0
 62138  1  0  0  0
 62139  1  0  0  0
 63 65  1  0  0  0
 63140  1  0  0  0
 63141  1  0  0  0
 63142  1  0  0  0
 64143  1  0  0  0
 65144  1  0  0  0
 68 83  1  0  0  0
 71 74  2  0  0  0
 71 75  1  0  0  0
 71145  1  0  0  0
 72 74  1  0  0  0
 72 76  2  0  0  0
 72146  1  0  0  0
 73 75  2  0  0  0
 73 76  1  0  0  0
 73147  1  0  0  0
 74 80  1  0  0  0
 75 84  1  0  0  0
 76 85  1  0  0  0
 77 78  1  0  0  0
 77 80  1  0  0  0
 77148  1  0  0  0
 77149  1  0  0  0
 78 81  1  0  0  0
 78150  1  0  0  0
 78151  1  0  0  0
 79 80  1  0  0  0
 79 81  1  0  0  0
 79152  1  0  0  0
 79153  1  0  0  0
 80154  1  0  0  0
 81 83  1  0  0  0
 81155  1  0  0  0
 82 85  1  0  0  0
 82156  1  0  0  0
 82157  1  0  0  0
 82158  1  0  0  0
 83159  1  0  0  0
 83160  1  0  0  0
 84161  1  0  0  0
M  ISO  4   1 100  68 101  83 101  84 100
M  END
> <chiral flag>
0

> <version>
0

> <s_m_source_file>
/data/baiqing/PycharmProjects/Reinvent-master-3.2/result/LINK_invent/BTK/process_docking_weight1_custom_product_contain_oxygen_bond_distance_aromatic_linkinvent_7_9_3/rearranged_h_0142.sdf

> <i_m_source_file_index>
96

> <r_mmod_Potential_Energy-OPLS-2005>
363.904083251953

> <r_mmod_Stretch_Energy-OPLS-2005>
120.607208251953

> <r_mmod_Bend_Energy-OPLS-2005>
257.729278564453

> <r_mmod_Torsional_Energy-OPLS-2005>
312.184051513672

> <r_mmod_Improper_Torsional_Energy-OPLS-2005>
11.3648300170898

> <r_mmod_Van_der_Waal_Energy-OPLS-2005>
126.196846008301

> <r_mmod_Electrostatic_Energy-OPLS-2005>
-352.492309570312

> <r_mmod_Solvation_Energy-OPLS-2005>
-213.326889038086

> <b_mmod_Minimization_Converged-OPLS-2005>
0

> <r_mmod_RMS_Derivative-OPLS-2005>
6.43459224700928

$$$$
96
                    3D
 Structure written by MMmdl.
157165  0  0  1  0            999 V2000
  -30.7088  -14.5274   20.4020 C   0  0  0  0  0  0
  -30.4169  -12.2937   19.4339 C   0  0  0  0  0  0
  -29.4890  -12.4244   18.2074 C   0  0  0  0  0  0
  -28.0110  -12.2821   18.6282 C   0  0  0  0  0  0
  -27.6346  -13.1702   19.8439 C   0  0  2  0  0  0
  -28.6985  -13.0943   20.9638 C   0  0  0  0  0  0
  -25.2565  -13.8030   20.5687 C   0  0  0  0  0  0
  -24.1794  -13.0366   20.9227 C   0  0  0  0  0  0
  -24.6314  -11.6825   20.8810 C   0  0  0  0  0  0
  -23.8986  -10.4245   21.0463 C   0  0  0  0  0  0
  -24.3568   -9.4161   21.9215 C   0  0  0  0  0  0
  -23.6260   -8.2193   22.0765 C   0  0  0  0  0  0
  -22.4238   -8.0245   21.3551 C   0  0  0  0  0  0
  -21.9873   -9.0217   20.4652 C   0  0  0  0  0  0
  -22.7187  -10.2100   20.3080 C   0  0  0  0  0  0
  -21.6835   -6.0711   22.5285 C   0  0  0  0  0  0
  -21.4001   -6.5623   23.8219 C   0  0  0  0  0  0
  -21.3659   -5.6784   24.9185 C   0  0  0  0  0  0
  -21.6047   -4.3050   24.7245 C   0  0  0  0  0  0
  -21.8821   -3.8129   23.4371 C   0  0  0  0  0  0
  -21.9180   -4.6940   22.3419 C   0  0  0  0  0  0
  -22.7830  -13.5221   21.1867 C   0  0  0  0  0  0
  -22.1647   -4.2116   21.0994 F   0  0  0  0  0  0
  -21.5639   -3.4542   25.7762 F   0  0  0  0  0  0
  -30.0265  -13.3460   20.3805 N   0  0  0  0  0  0
  -26.2907  -12.9083   20.3328 N   0  0  0  0  0  0
  -25.9222  -11.6307   20.5846 N   0  0  0  0  0  0
  -22.0445  -12.8231   22.0427 N   0  0  0  0  0  0
  -25.4361  -15.1740   20.4047 N   0  0  0  0  0  0
  -31.9306  -14.6055   20.2593 O   0  0  0  0  0  0
  -21.6609   -6.8844   21.4241 O   0  0  0  0  0  0
  -22.3539  -14.5523   20.6690 O   0  0  0  0  0  0
  -24.6129  -31.8686   23.2091 C   0  0  0  0  0  0
  -25.9025  -32.4825   23.8368 C   0  0  1  0  0  0
  -27.2336  -27.4336   20.0774 C   0  0  0  0  0  0
  -25.5881  -33.8622   24.2314 N   0  0  0  0  0  0
  -23.4007  -30.4923   21.5511 C   0  0  2  0  0  0
  -24.8430  -28.9567   20.1159 C   0  0  0  0  0  0
  -22.7404  -29.4660   22.4992 C   0  0  0  0  0  0
  -18.0279  -28.1379   22.8489 C   0  0  0  0  0  0
  -24.1496  -36.7319   23.2633 C   0  0  0  0  0  0
  -25.9305  -30.8293   21.3653 C   0  0  0  0  0  0
  -26.0032  -29.4639   20.7114 C   0  0  0  0  0  0
  -27.1959  -28.7068   20.6931 C   0  0  0  0  0  0
  -26.0459  -26.9362   19.4894 C   0  0  0  0  0  0
  -24.8578  -27.6909   19.5070 C   0  0  0  0  0  0
  -23.6065  -29.8247   20.1656 C   0  0  0  0  0  0
  -25.4115  -36.3114   24.0339 C   0  0  1  0  0  0
  -20.5866  -28.3666   23.1324 C   0  0  2  0  0  0
  -20.6772  -26.9402   22.5423 C   0  0  0  0  0  0
  -19.5754  -26.6392   21.5210 C   0  0  0  0  0  0
  -18.1928  -26.7931   22.1615 C   0  0  0  0  0  0
  -19.1523  -28.8838   23.2907 C   0  0  0  0  0  0
  -18.9449  -30.1445   23.8921 C   0  0  0  0  0  0
  -17.6452  -30.6589   24.0563 C   0  0  0  0  0  0
  -25.9034  -34.9482   23.5133 C   0  0  0  0  0  0
  -16.5343  -29.9088   23.6326 C   0  0  0  0  0  0
  -16.7265  -28.6505   23.0344 C   0  0  0  0  0  0
  -26.4455  -31.6597   25.0694 C   0  0  0  0  0  0
  -25.3722  -31.3700   26.1437 C   0  0  0  0  0  0
  -27.0273  -30.3038   24.6074 C   0  0  0  0  0  0
  -27.6048  -32.4301   25.7439 C   0  0  0  0  0  0
  -27.5595  -37.1807   24.8467 C   0  0  0  0  0  0
  -21.4135  -29.3033   22.3729 N   0  0  0  0  0  0
  -26.4309  -37.3792   23.9409 N   0  0  0  0  0  0
  -24.6663  -31.0786   22.0992 N   0  0  0  0  0  0
  -23.4186  -28.8192   23.3020 O   0  0  0  0  0  0
  -28.4334  -26.7453   20.0916 O   0  0  0  0  0  0
  -26.5602  -34.8938   22.4697 O   0  0  0  0  0  0
  -23.5331  -32.1430   23.7503 O   0  0  0  0  0  0
  -30.2169  -18.2602   22.8858 C   0  0  0  0  0  0
  -30.1809  -17.0365   22.1856 C   0  0  0  0  0  0
  -30.0913  -19.4877   22.2028 C   0  0  0  0  0  0
  -29.9339  -18.2757   20.1108 C   0  0  0  0  0  0
  -30.0377  -17.0259   20.7803 C   0  0  0  0  0  0
  -29.9328  -19.5095   20.7956 C   0  0  0  0  0  0
  -29.3514  -21.7800   20.4856 C   0  0  0  0  0  0
  -29.9006  -15.7678   19.9839 C   0  0  0  0  0  0
  -27.1187  -23.9951   20.8336 C   0  0  0  0  0  0
  -29.1416  -23.0119   19.6069 C   0  0  0  0  0  0
  -28.5976  -25.5030   19.3911 C   0  0  0  0  0  0
  -28.5477  -24.2583   20.3211 C   0  0  1  0  0  0
  -29.2356  -15.7981   18.9026 N   0  0  0  0  0  0
  -29.7819  -20.6732   20.0151 N   0  0  0  0  0  0
  -31.4629  -12.3741   19.1308 H   0  0  0  0  0  0
  -30.3084  -11.3110   19.8970 H   0  0  0  0  0  0
  -29.7375  -11.6618   17.4684 H   0  0  0  0  0  0
  -29.6473  -13.3824   17.7127 H   0  0  0  0  0  0
  -27.8435  -11.2331   18.8747 H   0  0  0  0  0  0
  -27.3559  -12.4994   17.7842 H   0  0  0  0  0  0
  -27.5868  -14.1764   19.4615 H   0  0  0  0  0  0
  -28.6874  -12.1103   21.4340 H   0  0  0  0  0  0
  -28.4783  -13.8144   21.7535 H   0  0  0  0  0  0
  -25.2722   -9.5621   22.4783 H   0  0  0  0  0  0
  -23.9961   -7.4574   22.7481 H   0  0  0  0  0  0
  -21.0802   -8.8742   19.8958 H   0  0  0  0  0  0
  -22.3663  -10.9646   19.6189 H   0  0  0  0  0  0
  -21.1990   -7.6131   23.9709 H   0  0  0  0  0  0
  -21.1483   -6.0521   25.9083 H   0  0  0  0  0  0
  -22.0601   -2.7591   23.2888 H   0  0  0  0  0  0
  -22.4031  -11.9893   22.4842 H   0  0  0  0  0  0
  -21.1068  -13.1279   22.2634 H   0  0  0  0  0  0
  -24.6782  -15.8402   20.5065 H   0  0  0  0  0  0
  -26.2948  -15.5967   20.0723 H   0  0  0  0  0  0
  -26.7081  -32.5539   23.1114 H   0  0  0  0  0  0
  -24.9997  -33.9769   25.0433 H   0  0  0  0  0  0
  -22.6900  -31.3097   21.4135 H   0  0  0  0  0  0
  -23.3760  -35.9647   23.3299 H   0  0  0  0  0  0
  -24.3583  -36.8923   22.2044 H   0  0  0  0  0  0
  -23.7255  -37.6531   23.6638 H   0  0  0  0  0  0
  -26.0507  -31.5975   20.5993 H   0  0  0  0  0  0
  -26.8158  -30.8765   21.9873 H   0  0  0  0  0  0
  -28.0948  -29.0987   21.1482 H   0  0  0  0  0  0
  -26.0015  -25.9663   19.0186 H   0  0  0  0  0  0
  -23.9610  -27.2938   19.0514 H   0  0  0  0  0  0
  -23.7171  -30.5994   19.4056 H   0  0  0  0  0  0
  -22.7296  -29.2451   19.8690 H   0  0  0  0  0  0
  -25.1297  -36.1974   25.0833 H   0  0  0  0  0  0
  -20.9962  -28.3241   24.1441 H   0  0  0  0  0  0
  -20.5683  -26.2269   23.3610 H   0  0  0  0  0  0
  -21.6644  -26.7450   22.1207 H   0  0  0  0  0  0
  -19.6917  -25.6307   21.1229 H   0  0  0  0  0  0
  -19.6703  -27.3216   20.6752 H   0  0  0  0  0  0
  -17.4203  -26.6688   21.4013 H   0  0  0  0  0  0
  -18.0312  -26.0072   22.9007 H   0  0  0  0  0  0
  -19.7922  -30.7246   24.2318 H   0  0  0  0  0  0
  -17.5004  -31.6269   24.5155 H   0  0  0  0  0  0
  -15.5343  -30.2989   23.7648 H   0  0  0  0  0  0
  -15.8660  -28.0827   22.7051 H   0  0  0  0  0  0
  -24.5897  -30.7054   25.7760 H   0  0  0  0  0  0
  -24.8900  -32.2847   26.4893 H   0  0  0  0  0  0
  -25.8056  -30.8851   27.0190 H   0  0  0  0  0  0
  -26.2802  -29.6808   24.1141 H   0  0  0  0  0  0
  -27.4049  -29.7270   25.4526 H   0  0  0  0  0  0
  -27.8639  -30.4346   23.9207 H   0  0  0  0  0  0
  -27.2681  -33.3577   26.2080 H   0  0  0  0  0  0
  -28.3803  -32.6902   25.0220 H   0  0  0  0  0  0
  -28.0776  -31.8384   26.5287 H   0  0  0  0  0  0
  -28.2622  -38.0098   24.7519 H   0  0  0  0  0  0
  -28.1090  -36.2636   24.6291 H   0  0  0  0  0  0
  -27.2310  -37.1449   25.8868 H   0  0  0  0  0  0
  -20.9300  -29.8739   21.6934 H   0  0  0  0  0  0
  -26.0214  -38.2881   24.1388 H   0  0  0  0  0  0
  -30.3266  -18.2590   23.9611 H   0  0  0  0  0  0
  -30.2450  -16.1102   22.7393 H   0  0  0  0  0  0
  -30.1217  -20.3996   22.7821 H   0  0  0  0  0  0
  -29.8325  -18.2956   19.0337 H   0  0  0  0  0  0
  -29.0913  -21.9197   21.5382 H   0  0  0  0  0  0
  -27.0847  -23.1740   21.5492 H   0  0  0  0  0  0
  -26.4449  -23.7432   20.0139 H   0  0  0  0  0  0
  -26.7160  -24.8704   21.3428 H   0  0  0  0  0  0
  -28.5001  -22.7351   18.7698 H   0  0  0  0  0  0
  -30.1083  -23.2696   19.1740 H   0  0  0  0  0  0
  -27.9456  -25.3930   18.5262 H   0  0  0  0  0  0
  -29.5953  -25.5639   18.9553 H   0  0  0  0  0  0
  -29.1832  -24.4749   21.1810 H   0  0  0  0  0  0
  -28.8143  -16.7071   18.7604 H   0  0  0  0  0  0
  1 25  1  0  0  0
  1 30  2  0  0  0
  1 78  1  0  0  0
  2  3  1  0  0  0
  2 25  1  0  0  0
  2 85  1  0  0  0
  2 86  1  0  0  0
  3  4  1  0  0  0
  3 87  1  0  0  0
  3 88  1  0  0  0
  4  5  1  0  0  0
  4 89  1  0  0  0
  4 90  1  0  0  0
  5  6  1  0  0  0
  5 26  1  0  0  0
  5 91  1  0  0  0
  6 25  1  0  0  0
  6 92  1  0  0  0
  6 93  1  0  0  0
  7  8  2  0  0  0
  7 26  1  0  0  0
  7 29  1  0  0  0
  8  9  1  0  0  0
  8 22  1  0  0  0
  9 10  1  0  0  0
  9 27  2  0  0  0
 10 11  2  0  0  0
 10 15  1  0  0  0
 11 12  1  0  0  0
 11 94  1  0  0  0
 12 13  2  0  0  0
 12 95  1  0  0  0
 13 14  1  0  0  0
 13 31  1  0  0  0
 14 15  2  0  0  0
 14 96  1  0  0  0
 15 97  1  0  0  0
 16 17  2  0  0  0
 16 21  1  0  0  0
 16 31  1  0  0  0
 17 18  1  0  0  0
 17 98  1  0  0  0
 18 19  2  0  0  0
 18 99  1  0  0  0
 19 20  1  0  0  0
 19 24  1  0  0  0
 20 21  2  0  0  0
 20100  1  0  0  0
 21 23  1  0  0  0
 22 28  1  0  0  0
 22 32  2  0  0  0
 26 27  1  0  0  0
 28101  1  0  0  0
 28102  1  0  0  0
 29103  1  0  0  0
 29104  1  0  0  0
 33 34  1  0  0  0
 33 66  1  0  0  0
 33 70  2  0  0  0
 34 36  1  0  0  0
 34 59  1  0  0  0
 34105  1  0  0  0
 35 44  2  0  0  0
 35 45  1  0  0  0
 35 68  1  0  0  0
 36 56  1  0  0  0
 36106  1  0  0  0
 37 39  1  0  0  0
 37 47  1  0  0  0
 37 66  1  0  0  0
 37107  1  0  0  0
 38 43  2  0  0  0
 38 46  1  0  0  0
 38 47  1  0  0  0
 39 64  1  0  0  0
 39 67  2  0  0  0
 40 52  1  0  0  0
 40 53  2  0  0  0
 40 58  1  0  0  0
 41108  1  0  0  0
 41109  1  0  0  0
 41110  1  0  0  0
 41 48  1  0  0  0
 42 43  1  0  0  0
 42 66  1  0  0  0
 42111  1  0  0  0
 42112  1  0  0  0
 43 44  1  0  0  0
 44113  1  0  0  0
 45 46  2  0  0  0
 45114  1  0  0  0
 46115  1  0  0  0
 47116  1  0  0  0
 47117  1  0  0  0
 48 56  1  0  0  0
 48 65  1  0  0  0
 48118  1  0  0  0
 49 50  1  0  0  0
 49 53  1  0  0  0
 49 64  1  0  0  0
 49119  1  0  0  0
 50 51  1  0  0  0
 50120  1  0  0  0
 50121  1  0  0  0
 51 52  1  0  0  0
 51122  1  0  0  0
 51123  1  0  0  0
 52124  1  0  0  0
 52125  1  0  0  0
 53 54  1  0  0  0
 54 55  2  0  0  0
 54126  1  0  0  0
 55 57  1  0  0  0
 55127  1  0  0  0
 56 69  2  0  0  0
 57 58  2  0  0  0
 57128  1  0  0  0
 58129  1  0  0  0
 59 60  1  0  0  0
 59 61  1  0  0  0
 59 62  1  0  0  0
 60130  1  0  0  0
 60131  1  0  0  0
 60132  1  0  0  0
 61133  1  0  0  0
 61134  1  0  0  0
 61135  1  0  0  0
 62136  1  0  0  0
 62137  1  0  0  0
 62138  1  0  0  0
 63 65  1  0  0  0
 63139  1  0  0  0
 63140  1  0  0  0
 63141  1  0  0  0
 64142  1  0  0  0
 65143  1  0  0  0
 68 81  1  0  0  0
 71 72  2  0  0  0
 71 73  1  0  0  0
 71144  1  0  0  0
 72 75  1  0  0  0
 72145  1  0  0  0
 73 76  2  0  0  0
 73146  1  0  0  0
 74 75  2  0  0  0
 74 76  1  0  0  0
 74147  1  0  0  0
 75 78  1  0  0  0
 76 84  1  0  0  0
 77 80  1  0  0  0
 77 84  2  0  0  0
 77148  1  0  0  0
 78 83  2  0  0  0
 79149  1  0  0  0
 79150  1  0  0  0
 79151  1  0  0  0
 79 82  1  0  0  0
 80 82  1  0  0  0
 80152  1  0  0  0
 80153  1  0  0  0
 81 82  1  0  0  0
 81154  1  0  0  0
 81155  1  0  0  0
 82156  1  0  0  0
 83157  1  0  0  0
M  ISO  4   1 100  68 101  78 100  81 101
M  END
> <chiral flag>
0

> <version>
0

> <s_m_source_file>
/data/baiqing/PycharmProjects/Reinvent-master-3.2/result/LINK_invent/BTK/process_docking_weight1_custom_product_contain_oxygen_bond_distance_aromatic_linkinvent_7_9_3/rearranged_h_0142.sdf

> <i_m_source_file_index>
97

> <r_mmod_Potential_Energy-OPLS-2005>
175.141647338867

> <r_mmod_Stretch_Energy-OPLS-2005>
40.8926544189453

> <r_mmod_Bend_Energy-OPLS-2005>
120.394317626953

> <r_mmod_Torsional_Energy-OPLS-2005>
233.014282226562

> <r_mmod_Improper_Torsional_Energy-OPLS-2005>
18.8790435791016

> <r_mmod_Van_der_Waal_Energy-OPLS-2005>
167.123565673828

> <r_mmod_Electrostatic_Energy-OPLS-2005>
-238.767120361328

> <r_mmod_Solvation_Energy-OPLS-2005>
-199.935607910156

> <b_mmod_Minimization_Converged-OPLS-2005>
0

> <r_mmod_RMS_Derivative-OPLS-2005>
1.70795011520386

$$$$
97
                    3D
 Structure written by MMmdl.
159168  0  0  1  0            999 V2000
  -30.5969  -14.6531   20.4991 C   0  0  0  0  0  0
  -30.4423  -12.4004   19.4493 C   0  0  0  0  0  0
  -29.5091  -12.5174   18.2221 C   0  0  0  0  0  0
  -28.0305  -12.3519   18.6292 C   0  0  0  0  0  0
  -27.6539  -13.2130   19.8630 C   0  0  2  0  0  0
  -28.6988  -13.0544   20.9911 C   0  0  0  0  0  0
  -25.2560  -13.8163   20.5646 C   0  0  0  0  0  0
  -24.1830  -13.0438   20.9183 C   0  0  0  0  0  0
  -24.6396  -11.6902   20.8736 C   0  0  0  0  0  0
  -23.9062  -10.4291   21.0406 C   0  0  0  0  0  0
  -24.3613   -9.4206   21.9180 C   0  0  0  0  0  0
  -23.6287   -8.2244   22.0753 C   0  0  0  0  0  0
  -22.4269   -8.0288   21.3546 C   0  0  0  0  0  0
  -21.9901   -9.0261   20.4651 C   0  0  0  0  0  0
  -22.7234  -10.2139   20.3060 C   0  0  0  0  0  0
  -21.6857   -6.0738   22.5278 C   0  0  0  0  0  0
  -21.4016   -6.5639   23.8213 C   0  0  0  0  0  0
  -21.3657   -5.6792   24.9173 C   0  0  0  0  0  0
  -21.6043   -4.3053   24.7224 C   0  0  0  0  0  0
  -21.8819   -3.8147   23.4345 C   0  0  0  0  0  0
  -21.9191   -4.6965   22.3400 C   0  0  0  0  0  0
  -22.7852  -13.5229   21.1841 C   0  0  0  0  0  0
  -22.1657   -4.2148   21.0978 F   0  0  0  0  0  0
  -21.5626   -3.4537   25.7739 F   0  0  0  0  0  0
  -30.0136  -13.4131   20.4341 N   0  0  0  0  0  0
  -26.2990  -12.9336   20.3296 N   0  0  0  0  0  0
  -25.9320  -11.6496   20.5741 N   0  0  0  0  0  0
  -22.0483  -12.8228   22.0402 N   0  0  0  0  0  0
  -25.4258  -15.1878   20.3996 N   0  0  0  0  0  0
  -31.7548  -14.8383   20.1099 O   0  0  0  0  0  0
  -21.6633   -6.8887   21.4244 O   0  0  0  0  0  0
  -22.3547  -14.5550   20.6696 O   0  0  0  0  0  0
  -24.6267  -31.8585   23.2006 C   0  0  0  0  0  0
  -25.9126  -32.4766   23.8342 C   0  0  1  0  0  0
  -27.2348  -27.3204   20.1062 C   0  0  0  0  0  0
  -25.5959  -33.8573   24.2288 N   0  0  0  0  0  0
  -23.4185  -30.4795   21.5430 C   0  0  2  0  0  0
  -24.8648  -28.9267   20.1118 C   0  0  0  0  0  0
  -22.7463  -29.4628   22.4949 C   0  0  0  0  0  0
  -18.0289  -28.1369   22.8500 C   0  0  0  0  0  0
  -24.1491  -36.7260   23.2635 C   0  0  0  0  0  0
  -25.9570  -30.7875   21.3690 C   0  0  0  0  0  0
  -26.0309  -29.4131   20.7126 C   0  0  0  0  0  0
  -27.2138  -28.6196   20.7021 C   0  0  0  0  0  0
  -26.0405  -26.8757   19.4956 C   0  0  0  0  0  0
  -24.8707  -27.6626   19.4987 C   0  0  0  0  0  0
  -23.6313  -29.8052   20.1608 C   0  0  0  0  0  0
  -25.4118  -36.3078   24.0341 C   0  0  1  0  0  0
  -20.5886  -28.3684   23.1284 C   0  0  2  0  0  0
  -20.6780  -26.9408   22.5414 C   0  0  0  0  0  0
  -19.5760  -26.6379   21.5208 C   0  0  0  0  0  0
  -18.1935  -26.7922   22.1613 C   0  0  0  0  0  0
  -19.1541  -28.8843   23.2888 C   0  0  0  0  0  0
  -18.9467  -30.1445   23.8909 C   0  0  0  0  0  0
  -17.6468  -30.6589   24.0557 C   0  0  0  0  0  0
  -25.9057  -34.9448   23.5105 C   0  0  0  0  0  0
  -16.5358  -29.9087   23.6328 C   0  0  0  0  0  0
  -16.7276  -28.6487   23.0382 C   0  0  0  0  0  0
  -26.4513  -31.6579   25.0719 C   0  0  0  0  0  0
  -25.3754  -31.3718   26.1452 C   0  0  0  0  0  0
  -27.0361  -30.3010   24.6157 C   0  0  0  0  0  0
  -27.6065  -32.4310   25.7513 C   0  0  0  0  0  0
  -27.5579  -37.1790   24.8476 C   0  0  0  0  0  0
  -21.4181  -29.3036   22.3677 N   0  0  0  0  0  0
  -26.4294  -37.3779   23.9413 N   0  0  0  0  0  0
  -24.6861  -31.0600   22.0945 N   0  0  0  0  0  0
  -23.4183  -28.8194   23.3055 O   0  0  0  0  0  0
  -28.3928  -26.5304   20.1604 O   0  0  0  0  0  0
  -26.5605  -34.8922   22.4660 O   0  0  0  0  0  0
  -23.5439  -32.1382   23.7344 O   0  0  0  0  0  0
  -30.7906  -19.3650   20.0479 C   0  0  0  0  0  0
  -30.8204  -17.9219   20.1554 C   0  0  0  0  0  0
  -28.5876  -17.8240   21.2003 C   0  0  0  0  0  0
  -28.5929  -19.2298   21.0760 C   0  0  0  0  0  0
  -29.6473  -20.0201   20.5478 C   0  0  0  0  0  0
  -29.7553  -17.1311   20.7331 C   0  0  0  0  0  0
  -27.8449  -20.4975   21.3436 C   0  0  0  0  0  0
  -26.9548  -23.7214   21.0033 C   0  0  0  0  0  0
  -29.2723  -24.2055   21.8397 C   0  0  0  0  0  0
  -28.9697  -22.5041   19.9478 C   0  0  0  0  0  0
  -28.5071  -25.1554   19.6147 C   0  0  0  0  0  0
  -28.4295  -23.8857   20.5905 C   0  0  0  0  0  0
  -29.0343  -21.2923   20.8361 N   0  0  0  0  0  0
  -29.7574  -15.6710   20.8796 N   0  0  0  0  0  0
  -31.4835  -12.5360   19.1496 H   0  0  0  0  0  0
  -30.3826  -11.4015   19.8839 H   0  0  0  0  0  0
  -29.7766  -11.7717   17.4728 H   0  0  0  0  0  0
  -29.6473  -13.4899   17.7471 H   0  0  0  0  0  0
  -27.8634  -11.2963   18.8462 H   0  0  0  0  0  0
  -27.3787  -12.5930   17.7887 H   0  0  0  0  0  0
  -27.6751  -14.2504   19.5296 H   0  0  0  0  0  0
  -28.7150  -12.0251   21.3530 H   0  0  0  0  0  0
  -28.4397  -13.6667   21.8561 H   0  0  0  0  0  0
  -25.2761   -9.5671   22.4745 H   0  0  0  0  0  0
  -23.9990   -7.4628   22.7464 H   0  0  0  0  0  0
  -21.0834   -8.8780   19.8962 H   0  0  0  0  0  0
  -22.3692  -10.9671   19.6166 H   0  0  0  0  0  0
  -21.2015   -7.6147   23.9722 H   0  0  0  0  0  0
  -21.1478   -6.0515   25.9078 H   0  0  0  0  0  0
  -22.0604   -2.7609   23.2838 H   0  0  0  0  0  0
  -22.4092  -11.9882   22.4785 H   0  0  0  0  0  0
  -21.1110  -13.1273   22.2629 H   0  0  0  0  0  0
  -24.6499  -15.8361   20.4819 H   0  0  0  0  0  0
  -26.2597  -15.6198   20.0216 H   0  0  0  0  0  0
  -26.7197  -32.5434   23.1093 H   0  0  0  0  0  0
  -25.0203  -33.9718   25.0500 H   0  0  0  0  0  0
  -22.7129  -31.2998   21.3957 H   0  0  0  0  0  0
  -23.3774  -35.9571   23.3315 H   0  0  0  0  0  0
  -24.3570  -36.8852   22.2042 H   0  0  0  0  0  0
  -23.7223  -37.6464   23.6629 H   0  0  0  0  0  0
  -26.0846  -31.5483   20.5982 H   0  0  0  0  0  0
  -26.8397  -30.8388   21.9948 H   0  0  0  0  0  0
  -28.1118  -28.9914   21.1754 H   0  0  0  0  0  0
  -25.9756  -25.9046   19.0311 H   0  0  0  0  0  0
  -23.9731  -27.2800   19.0332 H   0  0  0  0  0  0
  -23.7451  -30.5748   19.3970 H   0  0  0  0  0  0
  -22.7516  -29.2305   19.8653 H   0  0  0  0  0  0
  -25.1295  -36.1924   25.0836 H   0  0  0  0  0  0
  -20.9980  -28.3254   24.1401 H   0  0  0  0  0  0
  -20.5667  -26.2293   23.3616 H   0  0  0  0  0  0
  -21.6654  -26.7437   22.1212 H   0  0  0  0  0  0
  -19.6927  -25.6287   21.1245 H   0  0  0  0  0  0
  -19.6701  -27.3186   20.6737 H   0  0  0  0  0  0
  -17.4214  -26.6696   21.4004 H   0  0  0  0  0  0
  -18.0321  -26.0037   22.8978 H   0  0  0  0  0  0
  -19.7945  -30.7251   24.2285 H   0  0  0  0  0  0
  -17.5031  -31.6274   24.5148 H   0  0  0  0  0  0
  -15.5366  -30.3002   23.7638 H   0  0  0  0  0  0
  -15.8670  -28.0796   22.7132 H   0  0  0  0  0  0
  -24.5958  -30.7026   25.7802 H   0  0  0  0  0  0
  -24.8919  -32.2887   26.4832 H   0  0  0  0  0  0
  -25.8111  -30.8950   27.0245 H   0  0  0  0  0  0
  -26.2930  -29.6759   24.1196 H   0  0  0  0  0  0
  -27.4094  -29.7272   25.4649 H   0  0  0  0  0  0
  -27.8787  -30.4311   23.9361 H   0  0  0  0  0  0
  -27.2675  -33.3632   26.2047 H   0  0  0  0  0  0
  -28.3929  -32.6825   25.0383 H   0  0  0  0  0  0
  -28.0672  -31.8449   26.5478 H   0  0  0  0  0  0
  -28.2621  -38.0066   24.7515 H   0  0  0  0  0  0
  -28.1061  -36.2602   24.6327 H   0  0  0  0  0  0
  -27.2291  -37.1467   25.8881 H   0  0  0  0  0  0
  -20.9361  -29.8711   21.6844 H   0  0  0  0  0  0
  -26.0182  -38.2861   24.1409 H   0  0  0  0  0  0
  -31.6247  -19.9174   19.6404 H   0  0  0  0  0  0
  -31.7030  -17.4169   19.7910 H   0  0  0  0  0  0
  -27.7483  -17.3087   21.6442 H   0  0  0  0  0  0
  -27.6340  -20.6582   22.4022 H   0  0  0  0  0  0
  -26.9524  -20.6023   20.7241 H   0  0  0  0  0  0
  -26.3352  -23.4350   20.1530 H   0  0  0  0  0  0
  -26.5521  -24.6523   21.4034 H   0  0  0  0  0  0
  -26.8292  -22.9662   21.7772 H   0  0  0  0  0  0
  -29.2178  -23.4030   22.5762 H   0  0  0  0  0  0
  -28.9258  -25.1171   22.3289 H   0  0  0  0  0  0
  -30.3225  -24.3466   21.5833 H   0  0  0  0  0  0
  -29.9774  -22.6756   19.5667 H   0  0  0  0  0  0
  -28.3684  -22.2547   19.0720 H   0  0  0  0  0  0
  -27.8601  -25.0083   18.7517 H   0  0  0  0  0  0
  -29.5051  -25.1349   19.1763 H   0  0  0  0  0  0
  -28.8890  -15.3035   21.2365 H   0  0  0  0  0  0
  1 25  1  0  0  0
  1 30  2  0  0  0
  1 84  1  0  0  0
  2  3  1  0  0  0
  2 25  1  0  0  0
  2 85  1  0  0  0
  2 86  1  0  0  0
  3  4  1  0  0  0
  3 87  1  0  0  0
  3 88  1  0  0  0
  4  5  1  0  0  0
  4 89  1  0  0  0
  4 90  1  0  0  0
  5  6  1  0  0  0
  5 26  1  0  0  0
  5 91  1  0  0  0
  6 25  1  0  0  0
  6 92  1  0  0  0
  6 93  1  0  0  0
  7  8  2  0  0  0
  7 26  1  0  0  0
  7 29  1  0  0  0
  8  9  1  0  0  0
  8 22  1  0  0  0
  9 10  1  0  0  0
  9 27  2  0  0  0
 10 11  2  0  0  0
 10 15  1  0  0  0
 11 12  1  0  0  0
 11 94  1  0  0  0
 12 13  2  0  0  0
 12 95  1  0  0  0
 13 14  1  0  0  0
 13 31  1  0  0  0
 14 15  2  0  0  0
 14 96  1  0  0  0
 15 97  1  0  0  0
 16 17  2  0  0  0
 16 21  1  0  0  0
 16 31  1  0  0  0
 17 18  1  0  0  0
 17 98  1  0  0  0
 18 19  2  0  0  0
 18 99  1  0  0  0
 19 20  1  0  0  0
 19 24  1  0  0  0
 20 21  2  0  0  0
 20100  1  0  0  0
 21 23  1  0  0  0
 22 28  1  0  0  0
 22 32  2  0  0  0
 26 27  1  0  0  0
 28101  1  0  0  0
 28102  1  0  0  0
 29103  1  0  0  0
 29104  1  0  0  0
 33 34  1  0  0  0
 33 66  1  0  0  0
 33 70  2  0  0  0
 34 36  1  0  0  0
 34 59  1  0  0  0
 34105  1  0  0  0
 35 44  2  0  0  0
 35 45  1  0  0  0
 35 68  1  0  0  0
 36 56  1  0  0  0
 36106  1  0  0  0
 37 39  1  0  0  0
 37 47  1  0  0  0
 37 66  1  0  0  0
 37107  1  0  0  0
 38 43  2  0  0  0
 38 46  1  0  0  0
 38 47  1  0  0  0
 39 64  1  0  0  0
 39 67  2  0  0  0
 40 52  1  0  0  0
 40 53  2  0  0  0
 40 58  1  0  0  0
 41108  1  0  0  0
 41109  1  0  0  0
 41110  1  0  0  0
 41 48  1  0  0  0
 42 43  1  0  0  0
 42 66  1  0  0  0
 42111  1  0  0  0
 42112  1  0  0  0
 43 44  1  0  0  0
 44113  1  0  0  0
 45 46  2  0  0  0
 45114  1  0  0  0
 46115  1  0  0  0
 47116  1  0  0  0
 47117  1  0  0  0
 48 56  1  0  0  0
 48 65  1  0  0  0
 48118  1  0  0  0
 49 50  1  0  0  0
 49 53  1  0  0  0
 49 64  1  0  0  0
 49119  1  0  0  0
 50 51  1  0  0  0
 50120  1  0  0  0
 50121  1  0  0  0
 51 52  1  0  0  0
 51122  1  0  0  0
 51123  1  0  0  0
 52124  1  0  0  0
 52125  1  0  0  0
 53 54  1  0  0  0
 54 55  2  0  0  0
 54126  1  0  0  0
 55 57  1  0  0  0
 55127  1  0  0  0
 56 69  2  0  0  0
 57 58  2  0  0  0
 57128  1  0  0  0
 58129  1  0  0  0
 59 60  1  0  0  0
 59 61  1  0  0  0
 59 62  1  0  0  0
 60130  1  0  0  0
 60131  1  0  0  0
 60132  1  0  0  0
 61133  1  0  0  0
 61134  1  0  0  0
 61135  1  0  0  0
 62136  1  0  0  0
 62137  1  0  0  0
 62138  1  0  0  0
 63 65  1  0  0  0
 63139  1  0  0  0
 63140  1  0  0  0
 63141  1  0  0  0
 64142  1  0  0  0
 65143  1  0  0  0
 68 81  1  0  0  0
 71 72  2  0  0  0
 71 75  1  0  0  0
 71144  1  0  0  0
 72 76  1  0  0  0
 72145  1  0  0  0
 73 74  1  0  0  0
 73 76  2  0  0  0
 73146  1  0  0  0
 74 75  2  0  0  0
 74 77  1  0  0  0
 75 83  1  0  0  0
 76 84  1  0  0  0
 77 83  1  0  0  0
 77147  1  0  0  0
 77148  1  0  0  0
 78149  1  0  0  0
 78150  1  0  0  0
 78151  1  0  0  0
 78 82  1  0  0  0
 79 82  1  0  0  0
 79152  1  0  0  0
 79153  1  0  0  0
 79154  1  0  0  0
 80 82  1  0  0  0
 80 83  1  0  0  0
 80155  1  0  0  0
 80156  1  0  0  0
 81 82  1  0  0  0
 81157  1  0  0  0
 81158  1  0  0  0
 84159  1  0  0  0
M  ISO  4   1 100  68 101  81 101  84 100
M  END
> <chiral flag>
0

> <version>
0

> <s_m_source_file>
/data/baiqing/PycharmProjects/Reinvent-master-3.2/result/LINK_invent/BTK/process_docking_weight1_custom_product_contain_oxygen_bond_distance_aromatic_linkinvent_7_9_3/rearranged_h_0142.sdf

> <i_m_source_file_index>
98

> <r_mmod_Potential_Energy-OPLS-2005>
443.531097412109

> <r_mmod_Stretch_Energy-OPLS-2005>
107.948554992676

> <r_mmod_Bend_Energy-OPLS-2005>
534.15380859375

> <r_mmod_Torsional_Energy-OPLS-2005>
217.111831665039

> <r_mmod_Improper_Torsional_Energy-OPLS-2005>
8.5571117401123

> <r_mmod_Van_der_Waal_Energy-OPLS-2005>
132.559936523438

> <r_mmod_Electrostatic_Energy-OPLS-2005>
-390.107971191406

> <r_mmod_Solvation_Energy-OPLS-2005>
-214.554229736328

> <b_mmod_Minimization_Converged-OPLS-2005>
0

> <r_mmod_RMS_Derivative-OPLS-2005>
1.43718683719635

$$$$
