0
                    3D
 Structure written by MMmdl.
170178  0  0  1  0            999 V2000
  -30.6611  -14.4726   20.5777 C   0  0  0  0  0  0
  -30.4184  -12.3079   19.4230 C   0  0  0  0  0  0
  -29.4851  -12.4969   18.2112 C   0  0  0  0  0  0
  -28.0128  -12.3267   18.6265 C   0  0  0  0  0  0
  -27.6475  -13.1904   19.8628 C   0  0  2  0  0  0
  -28.6827  -12.9887   20.9901 C   0  0  0  0  0  0
  -25.2531  -13.8124   20.5658 C   0  0  0  0  0  0
  -24.1789  -13.0419   20.9179 C   0  0  0  0  0  0
  -24.6321  -11.6885   20.8747 C   0  0  0  0  0  0
  -23.8999  -10.4275   21.0427 C   0  0  0  0  0  0
  -24.3565   -9.4205   21.9199 C   0  0  0  0  0  0
  -23.6259   -8.2237   22.0760 C   0  0  0  0  0  0
  -22.4246   -8.0263   21.3544 C   0  0  0  0  0  0
  -21.9876   -9.0231   20.4649 C   0  0  0  0  0  0
  -22.7185  -10.2116   20.3069 C   0  0  0  0  0  0
  -21.6851   -6.0723   22.5273 C   0  0  0  0  0  0
  -21.4026   -6.5637   23.8203 C   0  0  0  0  0  0
  -21.3654   -5.6797   24.9166 C   0  0  0  0  0  0
  -21.6053   -4.3061   24.7228 C   0  0  0  0  0  0
  -21.8811   -3.8141   23.4350 C   0  0  0  0  0  0
  -21.9194   -4.6956   22.3402 C   0  0  0  0  0  0
  -22.7819  -13.5240   21.1861 C   0  0  0  0  0  0
  -22.1659   -4.2148   21.0985 F   0  0  0  0  0  0
  -21.5621   -3.4537   25.7738 F   0  0  0  0  0  0
  -30.0091  -13.2928   20.4302 N   0  0  0  0  0  0
  -26.2919  -12.9256   20.3286 N   0  0  0  0  0  0
  -25.9231  -11.6436   20.5755 N   0  0  0  0  0  0
  -22.0471  -12.8222   22.0414 N   0  0  0  0  0  0
  -25.4252  -15.1847   20.4026 N   0  0  0  0  0  0
  -31.8384  -14.6287   20.2385 O   0  0  0  0  0  0
  -21.6634   -6.8849   21.4230 O   0  0  0  0  0  0
  -22.3516  -14.5559   20.6738 O   0  0  0  0  0  0
  -24.6110  -31.8713   23.2121 C   0  0  0  0  0  0
  -25.9044  -32.4823   23.8384 C   0  0  1  0  0  0
  -27.2194  -27.4496   20.0832 C   0  0  0  0  0  0
  -25.5958  -33.8625   24.2334 N   0  0  0  0  0  0
  -23.3942  -30.5003   21.5519 C   0  0  2  0  0  0
  -24.8364  -28.9705   20.1185 C   0  0  0  0  0  0
  -22.7384  -29.4702   22.4987 C   0  0  0  0  0  0
  -18.0274  -28.1372   22.8455 C   0  0  0  0  0  0
  -24.1522  -36.7315   23.2610 C   0  0  0  0  0  0
  -25.9248  -30.8417   21.3632 C   0  0  0  0  0  0
  -25.9994  -29.4789   20.7096 C   0  0  0  0  0  0
  -27.1948  -28.7268   20.6857 C   0  0  0  0  0  0
  -26.0277  -26.9490   19.5093 C   0  0  0  0  0  0
  -24.8434  -27.7045   19.5179 C   0  0  0  0  0  0
  -23.6019  -29.8389   20.1651 C   0  0  0  0  0  0
  -25.4146  -36.3105   24.0309 C   0  0  1  0  0  0
  -20.5847  -28.3675   23.1281 C   0  0  2  0  0  0
  -20.6806  -26.9414   22.5385 C   0  0  0  0  0  0
  -19.5788  -26.6379   21.5172 C   0  0  0  0  0  0
  -18.1946  -26.7921   22.1570 C   0  0  0  0  0  0
  -19.1512  -28.8841   23.2857 C   0  0  0  0  0  0
  -18.9463  -30.1450   23.8860 C   0  0  0  0  0  0
  -17.6472  -30.6579   24.0542 C   0  0  0  0  0  0
  -25.9059  -34.9473   23.5113 C   0  0  0  0  0  0
  -16.5358  -29.9080   23.6341 C   0  0  0  0  0  0
  -16.7266  -28.6503   23.0344 C   0  0  0  0  0  0
  -26.4498  -31.6572   25.0690 C   0  0  0  0  0  0
  -25.3771  -31.3635   26.1436 C   0  0  0  0  0  0
  -27.0345  -30.3041   24.6014 C   0  0  0  0  0  0
  -27.6094  -32.4270   25.7445 C   0  0  0  0  0  0
  -27.5604  -37.1812   24.8445 C   0  0  0  0  0  0
  -21.4120  -29.3045   22.3707 N   0  0  0  0  0  0
  -26.4324  -37.3805   23.9374 N   0  0  0  0  0  0
  -24.6613  -31.0852   22.1012 N   0  0  0  0  0  0
  -23.4173  -28.8222   23.2999 O   0  0  0  0  0  0
  -28.4067  -26.7434   20.0783 O   0  0  0  0  0  0
  -26.5559  -34.8903   22.4635 O   0  0  0  0  0  0
  -23.5308  -32.1453   23.7554 O   0  0  0  0  0  0
  -28.8684  -19.3176   18.7039 C   0  0  0  0  0  0
  -28.0404  -19.9197   20.9068 C   0  0  0  0  0  0
  -29.4350  -18.1343   19.2227 C   0  0  0  0  0  0
  -29.3688  -17.8748   20.6245 C   0  0  0  0  0  0
  -28.2144  -20.2341   19.5467 C   0  0  0  0  0  0
  -28.6212  -18.7486   21.4658 C   0  0  0  0  0  0
  -30.1391  -17.2338   18.2847 C   0  0  0  0  0  0
  -30.1937  -16.7504   21.2120 C   0  0  0  0  0  0
  -29.6461  -16.7088   17.1441 C   0  0  0  0  0  0
  -28.4310  -22.4237   18.4587 C   0  0  0  0  0  0
  -30.5055  -15.8467   16.2396 C   0  0  0  0  0  0
  -28.2251  -16.9203   16.6493 C   0  0  0  0  0  0
  -27.6830  -19.2702   23.6271 C   0  0  0  0  0  0
  -27.6757  -23.6685   17.9875 C   0  0  0  0  0  0
  -28.3674  -25.0023   18.3457 C   0  0  0  0  0  0
  -28.3463  -25.3330   19.8520 C   0  0  0  0  0  0
  -27.7029  -21.4555   19.0404 N   0  0  0  0  0  0
  -29.8399  -15.5034   20.8617 N   0  0  0  0  0  0
  -31.1692  -17.0163   21.9229 O   0  0  0  0  0  0
  -29.6518  -22.3496   18.2958 O   0  0  0  0  0  0
  -28.4923  -18.4309   22.8063 O   0  0  0  0  0  0
  -31.4619  -12.4201   19.1261 H   0  0  0  0  0  0
  -30.3242  -11.2995   19.8302 H   0  0  0  0  0  0
  -29.7424  -11.7928   17.4196 H   0  0  0  0  0  0
  -29.6218  -13.4947   17.7988 H   0  0  0  0  0  0
  -27.8519  -11.2715   18.8523 H   0  0  0  0  0  0
  -27.3520  -12.5614   17.7914 H   0  0  0  0  0  0
  -27.6838  -14.2300   19.5382 H   0  0  0  0  0  0
  -28.6597  -11.9607   21.3561 H   0  0  0  0  0  0
  -28.4391  -13.6117   21.8538 H   0  0  0  0  0  0
  -25.2716   -9.5707   22.4749 H   0  0  0  0  0  0
  -23.9993   -7.4638   22.7480 H   0  0  0  0  0  0
  -21.0815   -8.8728   19.8938 H   0  0  0  0  0  0
  -22.3647  -10.9643   19.6165 H   0  0  0  0  0  0
  -21.2024   -7.6143   23.9715 H   0  0  0  0  0  0
  -21.1485   -6.0525   25.9078 H   0  0  0  0  0  0
  -22.0595   -2.7605   23.2854 H   0  0  0  0  0  0
  -22.4108  -11.9875   22.4759 H   0  0  0  0  0  0
  -21.1101  -13.1251   22.2668 H   0  0  0  0  0  0
  -24.6437  -15.8244   20.4984 H   0  0  0  0  0  0
  -26.2493  -15.6253   20.0178 H   0  0  0  0  0  0
  -26.7106  -32.5562   23.1123 H   0  0  0  0  0  0
  -25.0248  -33.9815   25.0566 H   0  0  0  0  0  0
  -22.6835  -31.3188   21.4149 H   0  0  0  0  0  0
  -23.3797  -35.9634   23.3270 H   0  0  0  0  0  0
  -24.3562  -36.8941   22.2014 H   0  0  0  0  0  0
  -23.7303  -37.6523   23.6650 H   0  0  0  0  0  0
  -26.0341  -31.6094   20.5977 H   0  0  0  0  0  0
  -26.8155  -30.9005   21.9761 H   0  0  0  0  0  0
  -28.0975  -29.1153   21.1357 H   0  0  0  0  0  0
  -25.9796  -25.9768   19.0436 H   0  0  0  0  0  0
  -23.9479  -27.3068   19.0616 H   0  0  0  0  0  0
  -23.7178  -30.6156   19.4073 H   0  0  0  0  0  0
  -22.7253  -29.2621   19.8657 H   0  0  0  0  0  0
  -25.1333  -36.1936   25.0807 H   0  0  0  0  0  0
  -20.9920  -28.3282   24.1400 H   0  0  0  0  0  0
  -20.5736  -26.2291   23.3561 H   0  0  0  0  0  0
  -21.6693  -26.7498   22.1157 H   0  0  0  0  0  0
  -19.6974  -25.6281   21.1225 H   0  0  0  0  0  0
  -19.6763  -27.3164   20.6670 H   0  0  0  0  0  0
  -17.4237  -26.6634   21.3956 H   0  0  0  0  0  0
  -18.0376  -26.0036   22.8951 H   0  0  0  0  0  0
  -19.7945  -30.7265   24.2204 H   0  0  0  0  0  0
  -17.5039  -31.6239   24.5169 H   0  0  0  0  0  0
  -15.5371  -30.2975   23.7706 H   0  0  0  0  0  0
  -15.8653  -28.0820   22.7084 H   0  0  0  0  0  0
  -24.5962  -30.6961   25.7768 H   0  0  0  0  0  0
  -24.8923  -32.2783   26.4889 H   0  0  0  0  0  0
  -25.8125  -30.8797   27.0193 H   0  0  0  0  0  0
  -26.2860  -29.6775   24.1151 H   0  0  0  0  0  0
  -27.4270  -29.7306   25.4423 H   0  0  0  0  0  0
  -27.8638  -30.4391   23.9049 H   0  0  0  0  0  0
  -27.2732  -33.3572   26.2032 H   0  0  0  0  0  0
  -28.3917  -32.6808   25.0280 H   0  0  0  0  0  0
  -28.0751  -31.8363   26.5337 H   0  0  0  0  0  0
  -28.2613  -38.0119   24.7552 H   0  0  0  0  0  0
  -28.1130  -36.2666   24.6265 H   0  0  0  0  0  0
  -27.2281  -37.1460   25.8830 H   0  0  0  0  0  0
  -20.9289  -29.8708   21.6867 H   0  0  0  0  0  0
  -26.0211  -38.2880   24.1402 H   0  0  0  0  0  0
  -28.9672  -19.5394   17.6497 H   0  0  0  0  0  0
  -27.4926  -20.6256   21.5122 H   0  0  0  0  0  0
  -31.1651  -17.0092   18.5436 H   0  0  0  0  0  0
  -31.4958  -15.6817   16.6669 H   0  0  0  0  0  0
  -30.6298  -16.3226   15.2662 H   0  0  0  0  0  0
  -30.0440  -14.8727   16.0776 H   0  0  0  0  0  0
  -27.5563  -17.2537   17.4442 H   0  0  0  0  0  0
  -27.8147  -15.9904   16.2517 H   0  0  0  0  0  0
  -28.2118  -17.6665   15.8544 H   0  0  0  0  0  0
  -27.6228  -18.8532   24.6315 H   0  0  0  0  0  0
  -26.6622  -19.3510   23.2503 H   0  0  0  0  0  0
  -28.1090  -20.2700   23.7153 H   0  0  0  0  0  0
  -26.6594  -23.6550   18.3840 H   0  0  0  0  0  0
  -27.5715  -23.6044   16.9035 H   0  0  0  0  0  0
  -27.8714  -25.7931   17.7857 H   0  0  0  0  0  0
  -29.3968  -25.0155   17.9851 H   0  0  0  0  0  0
  -29.2066  -24.8741   20.3392 H   0  0  0  0  0  0
  -27.4772  -24.9003   20.3513 H   0  0  0  0  0  0
  -26.7306  -21.6610   19.2302 H   0  0  0  0  0  0
  -28.8701  -15.3543   20.6464 H   0  0  0  0  0  0
  1 25  1  0  0  0
  1 30  2  0  0  0
  1 88  1  0  0  0
  2  3  1  0  0  0
  2 25  1  0  0  0
  2 92  1  0  0  0
  2 93  1  0  0  0
  3  4  1  0  0  0
  3 94  1  0  0  0
  3 95  1  0  0  0
  4  5  1  0  0  0
  4 96  1  0  0  0
  4 97  1  0  0  0
  5  6  1  0  0  0
  5 26  1  0  0  0
  5 98  1  0  0  0
  6 25  1  0  0  0
  6 99  1  0  0  0
  6100  1  0  0  0
  7  8  2  0  0  0
  7 26  1  0  0  0
  7 29  1  0  0  0
  8  9  1  0  0  0
  8 22  1  0  0  0
  9 10  1  0  0  0
  9 27  2  0  0  0
 10 11  2  0  0  0
 10 15  1  0  0  0
 11 12  1  0  0  0
 11101  1  0  0  0
 12 13  2  0  0  0
 12102  1  0  0  0
 13 14  1  0  0  0
 13 31  1  0  0  0
 14 15  2  0  0  0
 14103  1  0  0  0
 15104  1  0  0  0
 16 17  2  0  0  0
 16 21  1  0  0  0
 16 31  1  0  0  0
 17 18  1  0  0  0
 17105  1  0  0  0
 18 19  2  0  0  0
 18106  1  0  0  0
 19 20  1  0  0  0
 19 24  1  0  0  0
 20 21  2  0  0  0
 20107  1  0  0  0
 21 23  1  0  0  0
 22 28  1  0  0  0
 22 32  2  0  0  0
 26 27  1  0  0  0
 28108  1  0  0  0
 28109  1  0  0  0
 29110  1  0  0  0
 29111  1  0  0  0
 33 34  1  0  0  0
 33 66  1  0  0  0
 33 70  2  0  0  0
 34 36  1  0  0  0
 34 59  1  0  0  0
 34112  1  0  0  0
 35 44  2  0  0  0
 35 45  1  0  0  0
 35 68  1  0  0  0
 36 56  1  0  0  0
 36113  1  0  0  0
 37 39  1  0  0  0
 37 47  1  0  0  0
 37 66  1  0  0  0
 37114  1  0  0  0
 38 43  2  0  0  0
 38 46  1  0  0  0
 38 47  1  0  0  0
 39 64  1  0  0  0
 39 67  2  0  0  0
 40 52  1  0  0  0
 40 53  2  0  0  0
 40 58  1  0  0  0
 41115  1  0  0  0
 41116  1  0  0  0
 41117  1  0  0  0
 41 48  1  0  0  0
 42 43  1  0  0  0
 42 66  1  0  0  0
 42118  1  0  0  0
 42119  1  0  0  0
 43 44  1  0  0  0
 44120  1  0  0  0
 45 46  2  0  0  0
 45121  1  0  0  0
 46122  1  0  0  0
 47123  1  0  0  0
 47124  1  0  0  0
 48 56  1  0  0  0
 48 65  1  0  0  0
 48125  1  0  0  0
 49 50  1  0  0  0
 49 53  1  0  0  0
 49 64  1  0  0  0
 49126  1  0  0  0
 50 51  1  0  0  0
 50127  1  0  0  0
 50128  1  0  0  0
 51 52  1  0  0  0
 51129  1  0  0  0
 51130  1  0  0  0
 52131  1  0  0  0
 52132  1  0  0  0
 53 54  1  0  0  0
 54 55  2  0  0  0
 54133  1  0  0  0
 55 57  1  0  0  0
 55134  1  0  0  0
 56 69  2  0  0  0
 57 58  2  0  0  0
 57135  1  0  0  0
 58136  1  0  0  0
 59 60  1  0  0  0
 59 61  1  0  0  0
 59 62  1  0  0  0
 60137  1  0  0  0
 60138  1  0  0  0
 60139  1  0  0  0
 61140  1  0  0  0
 61141  1  0  0  0
 61142  1  0  0  0
 62143  1  0  0  0
 62144  1  0  0  0
 62145  1  0  0  0
 63 65  1  0  0  0
 63146  1  0  0  0
 63147  1  0  0  0
 63148  1  0  0  0
 64149  1  0  0  0
 65150  1  0  0  0
 68 86  1  0  0  0
 71 73  2  0  0  0
 71 75  1  0  0  0
 71151  1  0  0  0
 72 75  2  0  0  0
 72 76  1  0  0  0
 72152  1  0  0  0
 73 74  1  0  0  0
 73 77  1  0  0  0
 74 76  2  0  0  0
 74 78  1  0  0  0
 75 87  1  0  0  0
 76 91  1  0  0  0
 77 79  2  0  0  0
 77153  1  0  0  0
 78 88  1  0  0  0
 78 89  2  0  0  0
 79 81  1  0  0  0
 79 82  1  0  0  0
 80 84  1  0  0  0
 80 87  1  0  0  0
 80 90  2  0  0  0
 81154  1  0  0  0
 81155  1  0  0  0
 81156  1  0  0  0
 82157  1  0  0  0
 82158  1  0  0  0
 82159  1  0  0  0
 83 91  1  0  0  0
 83160  1  0  0  0
 83161  1  0  0  0
 83162  1  0  0  0
 84 85  1  0  0  0
 84163  1  0  0  0
 84164  1  0  0  0
 85 86  1  0  0  0
 85165  1  0  0  0
 85166  1  0  0  0
 86167  1  0  0  0
 86168  1  0  0  0
 87169  1  0  0  0
 88170  1  0  0  0
M  ISO  4   1 100  68 101  86 101  88 100
M  END
> <chiral flag>
0

> <version>
0

> <s_m_source_file>
/data/baiqing/PycharmProjects/Reinvent-master-3.2/result/LINK_invent/BTK/process_docking_weight1_custom_product_contain_oxygen_bond_distance_aromatic_linkinvent_7_9_3/rearranged_h_0110.sdf

> <i_m_source_file_index>
1

> <r_mmod_Potential_Energy-OPLS-2005>
-30.7547798156738

> <r_mmod_Stretch_Energy-OPLS-2005>
37.0709190368652

> <r_mmod_Bend_Energy-OPLS-2005>
101.53800201416

> <r_mmod_Torsional_Energy-OPLS-2005>
309.868286132812

> <r_mmod_Improper_Torsional_Energy-OPLS-2005>
7.68643522262573

> <r_mmod_Van_der_Waal_Energy-OPLS-2005>
165.509796142578

> <r_mmod_Electrostatic_Energy-OPLS-2005>
-425.463806152344

> <r_mmod_Solvation_Energy-OPLS-2005>
-243.875396728516

> <b_mmod_Minimization_Converged-OPLS-2005>
0

> <r_mmod_RMS_Derivative-OPLS-2005>
3.51258587837219

$$$$
1
                    3D
 Structure written by MMmdl.
159167  0  0  1  0            999 V2000
  -30.7318  -14.3775   20.7216 C   0  0  0  0  0  0
  -30.4231  -12.3125   19.3831 C   0  0  0  0  0  0
  -29.4836  -12.5624   18.1872 C   0  0  0  0  0  0
  -28.0057  -12.4072   18.5989 C   0  0  0  0  0  0
  -27.6677  -13.1968   19.8897 C   0  0  2  0  0  0
  -28.7042  -12.8681   20.9849 C   0  0  0  0  0  0
  -25.2581  -13.8144   20.5610 C   0  0  0  0  0  0
  -24.1828  -13.0430   20.9144 C   0  0  0  0  0  0
  -24.6374  -11.6896   20.8733 C   0  0  0  0  0  0
  -23.9034  -10.4287   21.0406 C   0  0  0  0  0  0
  -24.3584   -9.4216   21.9197 C   0  0  0  0  0  0
  -23.6267   -8.2247   22.0766 C   0  0  0  0  0  0
  -22.4257   -8.0278   21.3547 C   0  0  0  0  0  0
  -21.9885   -9.0244   20.4645 C   0  0  0  0  0  0
  -22.7203  -10.2130   20.3055 C   0  0  0  0  0  0
  -21.6845   -6.0727   22.5274 C   0  0  0  0  0  0
  -21.4003   -6.5630   23.8208 C   0  0  0  0  0  0
  -21.3668   -5.6789   24.9178 C   0  0  0  0  0  0
  -21.6047   -4.3046   24.7230 C   0  0  0  0  0  0
  -21.8819   -3.8139   23.4348 C   0  0  0  0  0  0
  -21.9182   -4.6952   22.3400 C   0  0  0  0  0  0
  -22.7861  -13.5248   21.1805 C   0  0  0  0  0  0
  -22.1653   -4.2131   21.0977 F   0  0  0  0  0  0
  -21.5641   -3.4536   25.7752 F   0  0  0  0  0  0
  -30.0398  -13.2260   20.4737 N   0  0  0  0  0  0
  -26.3033  -12.9291   20.3399 N   0  0  0  0  0  0
  -25.9296  -11.6456   20.5766 N   0  0  0  0  0  0
  -22.0492  -12.8258   22.0381 N   0  0  0  0  0  0
  -25.4258  -15.1846   20.3912 N   0  0  0  0  0  0
  -31.7161  -14.7122   20.0511 O   0  0  0  0  0  0
  -21.6627   -6.8864   21.4237 O   0  0  0  0  0  0
  -22.3546  -14.5550   20.6646 O   0  0  0  0  0  0
  -24.6124  -31.8677   23.2117 C   0  0  0  0  0  0
  -25.9022  -32.4826   23.8410 C   0  0  1  0  0  0
  -27.2402  -27.4540   20.0914 C   0  0  0  0  0  0
  -25.5882  -33.8628   24.2326 N   0  0  0  0  0  0
  -23.4004  -30.4890   21.5535 C   0  0  2  0  0  0
  -24.8484  -28.9526   20.1194 C   0  0  0  0  0  0
  -22.7380  -29.4652   22.5021 C   0  0  0  0  0  0
  -18.0240  -28.1393   22.8492 C   0  0  0  0  0  0
  -24.1476  -36.7322   23.2652 C   0  0  0  0  0  0
  -25.9255  -30.8397   21.3596 C   0  0  0  0  0  0
  -26.0075  -29.4743   20.7091 C   0  0  0  0  0  0
  -27.2084  -28.7314   20.6921 C   0  0  0  0  0  0
  -26.0676  -26.9343   19.5059 C   0  0  0  0  0  0
  -24.8717  -27.6802   19.5180 C   0  0  0  0  0  0
  -23.6083  -29.8162   20.1705 C   0  0  0  0  0  0
  -25.4103  -36.3120   24.0341 C   0  0  1  0  0  0
  -20.5833  -28.3674   23.1339 C   0  0  2  0  0  0
  -20.6750  -26.9421   22.5440 C   0  0  0  0  0  0
  -19.5738  -26.6401   21.5224 C   0  0  0  0  0  0
  -18.1890  -26.7947   22.1619 C   0  0  0  0  0  0
  -19.1494  -28.8842   23.2916 C   0  0  0  0  0  0
  -18.9433  -30.1452   23.8923 C   0  0  0  0  0  0
  -17.6447  -30.6604   24.0576 C   0  0  0  0  0  0
  -25.9029  -34.9482   23.5130 C   0  0  0  0  0  0
  -16.5334  -29.9113   23.6345 C   0  0  0  0  0  0
  -16.7232  -28.6523   23.0362 C   0  0  0  0  0  0
  -26.4485  -31.6599   25.0727 C   0  0  0  0  0  0
  -25.3741  -31.3630   26.1435 C   0  0  0  0  0  0
  -27.0403  -30.3079   24.6100 C   0  0  0  0  0  0
  -27.5996  -32.4374   25.7538 C   0  0  0  0  0  0
  -27.5570  -37.1815   24.8472 C   0  0  0  0  0  0
  -21.4101  -29.3044   22.3748 N   0  0  0  0  0  0
  -26.4283  -37.3801   23.9410 N   0  0  0  0  0  0
  -24.6649  -31.0780   22.1013 N   0  0  0  0  0  0
  -23.4151  -28.8197   23.3070 O   0  0  0  0  0  0
  -28.4015  -26.7213   20.0590 O   0  0  0  0  0  0
  -26.5602  -34.8929   22.4698 O   0  0  0  0  0  0
  -23.5322  -32.1417   23.7523 O   0  0  0  0  0  0
  -28.2434  -18.4015   22.2013 C   0  0  0  0  0  0
  -30.3727  -18.9266   21.1804 C   0  0  0  0  0  0
  -28.5787  -17.0270   22.2621 C   0  0  0  0  0  0
  -29.8626  -16.5876   21.7968 C   0  0  0  0  0  0
  -29.1196  -19.3599   21.6609 C   0  0  0  0  0  0
  -30.7421  -17.5677   21.2593 C   0  0  0  0  0  0
  -26.6463  -16.4261   23.7784 C   0  0  0  0  0  0
  -27.5915  -16.1087   22.8759 C   0  0  0  0  0  0
  -30.3278  -15.1656   21.9768 C   0  0  0  0  0  0
  -29.1226  -21.7753   20.9733 C   0  0  0  0  0  0
  -28.6283  -23.1547   21.4407 C   0  0  0  0  0  0
  -28.6289  -24.2802   20.3770 C   0  0  0  0  0  0
  -28.4606  -25.6700   21.0245 C   0  0  0  0  0  0
  -30.3652  -14.6336   23.1324 N   0  0  0  0  0  0
  -28.7238  -20.7300   21.7210 N   0  0  0  0  0  0
  -29.8273  -21.6694   19.9667 O   0  0  0  0  0  0
  -31.9965  -17.2394   20.8688 F   0  0  0  0  0  0
  -31.4641  -12.4373   19.0791 H   0  0  0  0  0  0
  -30.3420  -11.2763   19.7153 H   0  0  0  0  0  0
  -29.7194  -11.8797   17.3694 H   0  0  0  0  0  0
  -29.6481  -13.5706   17.8017 H   0  0  0  0  0  0
  -27.8077  -11.3449   18.7523 H   0  0  0  0  0  0
  -27.3527  -12.7202   17.7835 H   0  0  0  0  0  0
  -27.7424  -14.2598   19.6572 H   0  0  0  0  0  0
  -28.6807  -11.8003   21.2031 H   0  0  0  0  0  0
  -28.4441  -13.3230   21.9321 H   0  0  0  0  0  0
  -25.2712   -9.5712   22.4787 H   0  0  0  0  0  0
  -23.9970   -7.4656   22.7500 H   0  0  0  0  0  0
  -21.0815   -8.8741   19.8965 H   0  0  0  0  0  0
  -22.3633  -10.9657   19.6171 H   0  0  0  0  0  0
  -21.1989   -7.6139   23.9701 H   0  0  0  0  0  0
  -21.1499   -6.0527   25.9087 H   0  0  0  0  0  0
  -22.0596   -2.7597   23.2853 H   0  0  0  0  0  0
  -22.4049  -11.9910   22.4788 H   0  0  0  0  0  0
  -21.1130  -13.1335   22.2577 H   0  0  0  0  0  0
  -24.6636  -15.8412   20.5200 H   0  0  0  0  0  0
  -26.2868  -15.6311   20.1043 H   0  0  0  0  0  0
  -26.7101  -32.5554   23.1181 H   0  0  0  0  0  0
  -24.9986  -33.9799   25.0437 H   0  0  0  0  0  0
  -22.6862  -31.3033   21.4157 H   0  0  0  0  0  0
  -23.3745  -35.9652   23.3326 H   0  0  0  0  0  0
  -24.3532  -36.8944   22.2063 H   0  0  0  0  0  0
  -23.7234  -37.6521   23.6680 H   0  0  0  0  0  0
  -26.0275  -31.6066   20.5898 H   0  0  0  0  0  0
  -26.8152  -30.8997   21.9747 H   0  0  0  0  0  0
  -28.1081  -29.1312   21.1412 H   0  0  0  0  0  0
  -26.0841  -25.9570   19.0437 H   0  0  0  0  0  0
  -23.9770  -27.2708   19.0683 H   0  0  0  0  0  0
  -23.7121  -30.5917   19.4103 H   0  0  0  0  0  0
  -22.7315  -29.2342   19.8825 H   0  0  0  0  0  0
  -25.1286  -36.1985   25.0835 H   0  0  0  0  0  0
  -20.9901  -28.3288   24.1475 H   0  0  0  0  0  0
  -20.5685  -26.2280   23.3628 H   0  0  0  0  0  0
  -21.6621  -26.7510   22.1215 H   0  0  0  0  0  0
  -19.6907  -25.6320   21.1244 H   0  0  0  0  0  0
  -19.6676  -27.3218   20.6768 H   0  0  0  0  0  0
  -17.4187  -26.6701   21.4007 H   0  0  0  0  0  0
  -18.0260  -26.0089   22.9001 H   0  0  0  0  0  0
  -19.7926  -30.7243   24.2304 H   0  0  0  0  0  0
  -17.5031  -31.6279   24.5199 H   0  0  0  0  0  0
  -15.5341  -30.3042   23.7660 H   0  0  0  0  0  0
  -15.8622  -28.0858   22.7090 H   0  0  0  0  0  0
  -24.6038  -30.6836   25.7765 H   0  0  0  0  0  0
  -24.8758  -32.2729   26.4796 H   0  0  0  0  0  0
  -25.8100  -30.8917   27.0248 H   0  0  0  0  0  0
  -26.2984  -29.6739   24.1236 H   0  0  0  0  0  0
  -27.4317  -29.7403   25.4545 H   0  0  0  0  0  0
  -27.8719  -30.4467   23.9189 H   0  0  0  0  0  0
  -27.2564  -33.3694   26.2054 H   0  0  0  0  0  0
  -28.3841  -32.6901   25.0394 H   0  0  0  0  0  0
  -28.0625  -31.8554   26.5515 H   0  0  0  0  0  0
  -28.2586  -38.0122   24.7546 H   0  0  0  0  0  0
  -28.1073  -36.2642   24.6294 H   0  0  0  0  0  0
  -27.2269  -37.1469   25.8873 H   0  0  0  0  0  0
  -20.9258  -29.8743   21.6948 H   0  0  0  0  0  0
  -26.0183  -38.2876   24.1434 H   0  0  0  0  0  0
  -27.2853  -18.7344   22.5725 H   0  0  0  0  0  0
  -31.0908  -19.6341   20.7934 H   0  0  0  0  0  0
  -25.9631  -15.6670   24.1347 H   0  0  0  0  0  0
  -26.5288  -17.4211   24.1810 H   0  0  0  0  0  0
  -27.6042  -15.0872   22.5434 H   0  0  0  0  0  0
  -29.2664  -23.4463   22.2769 H   0  0  0  0  0  0
  -27.6201  -23.0555   21.8462 H   0  0  0  0  0  0
  -27.8165  -24.1024   19.6706 H   0  0  0  0  0  0
  -29.5526  -24.2644   19.7950 H   0  0  0  0  0  0
  -29.3182  -25.8726   21.6705 H   0  0  0  0  0  0
  -27.5853  -25.6688   21.6807 H   0  0  0  0  0  0
  -30.0508  -15.2861   23.8400 H   0  0  0  0  0  0
  -28.0484  -20.9567   22.4390 H   0  0  0  0  0  0
  1 25  1  0  0  0
  1 30  2  0  0  0
  1 79  1  0  0  0
  2  3  1  0  0  0
  2 25  1  0  0  0
  2 88  1  0  0  0
  2 89  1  0  0  0
  3  4  1  0  0  0
  3 90  1  0  0  0
  3 91  1  0  0  0
  4  5  1  0  0  0
  4 92  1  0  0  0
  4 93  1  0  0  0
  5  6  1  0  0  0
  5 26  1  0  0  0
  5 94  1  0  0  0
  6 25  1  0  0  0
  6 95  1  0  0  0
  6 96  1  0  0  0
  7  8  2  0  0  0
  7 26  1  0  0  0
  7 29  1  0  0  0
  8  9  1  0  0  0
  8 22  1  0  0  0
  9 10  1  0  0  0
  9 27  2  0  0  0
 10 11  2  0  0  0
 10 15  1  0  0  0
 11 12  1  0  0  0
 11 97  1  0  0  0
 12 13  2  0  0  0
 12 98  1  0  0  0
 13 14  1  0  0  0
 13 31  1  0  0  0
 14 15  2  0  0  0
 14 99  1  0  0  0
 15100  1  0  0  0
 16 17  2  0  0  0
 16 21  1  0  0  0
 16 31  1  0  0  0
 17 18  1  0  0  0
 17101  1  0  0  0
 18 19  2  0  0  0
 18102  1  0  0  0
 19 20  1  0  0  0
 19 24  1  0  0  0
 20 21  2  0  0  0
 20103  1  0  0  0
 21 23  1  0  0  0
 22 28  1  0  0  0
 22 32  2  0  0  0
 26 27  1  0  0  0
 28104  1  0  0  0
 28105  1  0  0  0
 29106  1  0  0  0
 29107  1  0  0  0
 33 34  1  0  0  0
 33 66  1  0  0  0
 33 70  2  0  0  0
 34 36  1  0  0  0
 34 59  1  0  0  0
 34108  1  0  0  0
 35 44  2  0  0  0
 35 45  1  0  0  0
 35 68  1  0  0  0
 36 56  1  0  0  0
 36109  1  0  0  0
 37 39  1  0  0  0
 37 47  1  0  0  0
 37 66  1  0  0  0
 37110  1  0  0  0
 38 43  2  0  0  0
 38 46  1  0  0  0
 38 47  1  0  0  0
 39 64  1  0  0  0
 39 67  2  0  0  0
 40 52  1  0  0  0
 40 53  2  0  0  0
 40 58  1  0  0  0
 41111  1  0  0  0
 41112  1  0  0  0
 41113  1  0  0  0
 41 48  1  0  0  0
 42 43  1  0  0  0
 42 66  1  0  0  0
 42114  1  0  0  0
 42115  1  0  0  0
 43 44  1  0  0  0
 44116  1  0  0  0
 45 46  2  0  0  0
 45117  1  0  0  0
 46118  1  0  0  0
 47119  1  0  0  0
 47120  1  0  0  0
 48 56  1  0  0  0
 48 65  1  0  0  0
 48121  1  0  0  0
 49 50  1  0  0  0
 49 53  1  0  0  0
 49 64  1  0  0  0
 49122  1  0  0  0
 50 51  1  0  0  0
 50123  1  0  0  0
 50124  1  0  0  0
 51 52  1  0  0  0
 51125  1  0  0  0
 51126  1  0  0  0
 52127  1  0  0  0
 52128  1  0  0  0
 53 54  1  0  0  0
 54 55  2  0  0  0
 54129  1  0  0  0
 55 57  1  0  0  0
 55130  1  0  0  0
 56 69  2  0  0  0
 57 58  2  0  0  0
 57131  1  0  0  0
 58132  1  0  0  0
 59 60  1  0  0  0
 59 61  1  0  0  0
 59 62  1  0  0  0
 60133  1  0  0  0
 60134  1  0  0  0
 60135  1  0  0  0
 61136  1  0  0  0
 61137  1  0  0  0
 61138  1  0  0  0
 62139  1  0  0  0
 62140  1  0  0  0
 62141  1  0  0  0
 63 65  1  0  0  0
 63142  1  0  0  0
 63143  1  0  0  0
 63144  1  0  0  0
 64145  1  0  0  0
 65146  1  0  0  0
 68 83  1  0  0  0
 71 73  2  0  0  0
 71 75  1  0  0  0
 71147  1  0  0  0
 72 75  2  0  0  0
 72 76  1  0  0  0
 72148  1  0  0  0
 73 74  1  0  0  0
 73 78  1  0  0  0
 74 76  2  0  0  0
 74 79  1  0  0  0
 75 85  1  0  0  0
 76 87  1  0  0  0
 77 78  2  0  0  0
 77149  1  0  0  0
 77150  1  0  0  0
 78151  1  0  0  0
 79 84  2  0  0  0
 80 81  1  0  0  0
 80 85  1  0  0  0
 80 86  2  0  0  0
 81 82  1  0  0  0
 81152  1  0  0  0
 81153  1  0  0  0
 82 83  1  0  0  0
 82154  1  0  0  0
 82155  1  0  0  0
 83156  1  0  0  0
 83157  1  0  0  0
 84158  1  0  0  0
 85159  1  0  0  0
M  ISO  4   1 100  68 101  79 100  83 101
M  END
> <chiral flag>
0

> <version>
0

> <s_m_source_file>
/data/baiqing/PycharmProjects/Reinvent-master-3.2/result/LINK_invent/BTK/process_docking_weight1_custom_product_contain_oxygen_bond_distance_aromatic_linkinvent_7_9_3/rearranged_h_0110.sdf

> <i_m_source_file_index>
2

> <r_mmod_Potential_Energy-OPLS-2005>
96.9448318481445

> <r_mmod_Stretch_Energy-OPLS-2005>
42.7572288513184

> <r_mmod_Bend_Energy-OPLS-2005>
105.245262145996

> <r_mmod_Torsional_Energy-OPLS-2005>
264.903594970703

> <r_mmod_Improper_Torsional_Energy-OPLS-2005>
3.81474232673645

> <r_mmod_Van_der_Waal_Energy-OPLS-2005>
157.192016601562

> <r_mmod_Electrostatic_Energy-OPLS-2005>
-264.067108154297

> <r_mmod_Solvation_Energy-OPLS-2005>
-221.836242675781

> <b_mmod_Minimization_Converged-OPLS-2005>
0

> <r_mmod_RMS_Derivative-OPLS-2005>
2.39564299583435

$$$$
2
                    3D
 Structure written by MMmdl.
154162  0  0  1  0            999 V2000
  -30.6309  -14.6239   20.5484 C   0  0  0  0  0  0
  -30.4398  -12.3887   19.4656 C   0  0  0  0  0  0
  -29.5176  -12.5223   18.2312 C   0  0  0  0  0  0
  -28.0350  -12.3700   18.6317 C   0  0  0  0  0  0
  -27.6601  -13.2195   19.8767 C   0  0  2  0  0  0
  -28.6992  -13.0483   21.0072 C   0  0  0  0  0  0
  -25.2595  -13.8197   20.5745 C   0  0  0  0  0  0
  -24.1847  -13.0482   20.9223 C   0  0  0  0  0  0
  -24.6392  -11.6941   20.8757 C   0  0  0  0  0  0
  -23.9048  -10.4319   21.0430 C   0  0  0  0  0  0
  -24.3618   -9.4232   21.9204 C   0  0  0  0  0  0
  -23.6286   -8.2270   22.0773 C   0  0  0  0  0  0
  -22.4264   -8.0318   21.3570 C   0  0  0  0  0  0
  -21.9892   -9.0294   20.4689 C   0  0  0  0  0  0
  -22.7215  -10.2172   20.3091 C   0  0  0  0  0  0
  -21.6876   -6.0775   22.5304 C   0  0  0  0  0  0
  -21.4004   -6.5669   23.8232 C   0  0  0  0  0  0
  -21.3640   -5.6813   24.9186 C   0  0  0  0  0  0
  -21.6039   -4.3079   24.7223 C   0  0  0  0  0  0
  -21.8803   -3.8177   23.4337 C   0  0  0  0  0  0
  -21.9179   -4.6999   22.3402 C   0  0  0  0  0  0
  -22.7871  -13.5308   21.1833 C   0  0  0  0  0  0
  -22.1675   -4.2202   21.0975 F   0  0  0  0  0  0
  -21.5594   -3.4543   25.7723 F   0  0  0  0  0  0
  -30.0207  -13.3987   20.4600 N   0  0  0  0  0  0
  -26.3013  -12.9376   20.3368 N   0  0  0  0  0  0
  -25.9323  -11.6520   20.5758 N   0  0  0  0  0  0
  -22.0447  -12.8385   22.0401 N   0  0  0  0  0  0
  -25.4309  -15.1908   20.4237 N   0  0  0  0  0  0
  -31.7580  -14.8172   20.0815 O   0  0  0  0  0  0
  -21.6645   -6.8915   21.4269 O   0  0  0  0  0  0
  -22.3621  -14.5607   20.6623 O   0  0  0  0  0  0
  -24.6272  -31.8638   23.2047 C   0  0  0  0  0  0
  -25.9121  -32.4806   23.8393 C   0  0  1  0  0  0
  -27.2139  -27.3120   20.1339 C   0  0  0  0  0  0
  -25.5955  -33.8616   24.2330 N   0  0  0  0  0  0
  -23.4194  -30.4832   21.5494 C   0  0  2  0  0  0
  -24.8669  -28.9450   20.1098 C   0  0  0  0  0  0
  -22.7478  -29.4598   22.4974 C   0  0  0  0  0  0
  -18.0284  -28.1339   22.8501 C   0  0  0  0  0  0
  -24.1466  -36.7267   23.2644 C   0  0  0  0  0  0
  -25.9624  -30.7894   21.3808 C   0  0  0  0  0  0
  -26.0336  -29.4187   20.7197 C   0  0  0  0  0  0
  -27.2109  -28.6128   20.7234 C   0  0  0  0  0  0
  -26.0237  -26.8945   19.4901 C   0  0  0  0  0  0
  -24.8626  -27.6909   19.4852 C   0  0  0  0  0  0
  -23.6351  -29.8265   20.1621 C   0  0  0  0  0  0
  -25.4101  -36.3112   24.0355 C   0  0  1  0  0  0
  -20.5881  -28.3630   23.1296 C   0  0  2  0  0  0
  -20.6750  -26.9353   22.5404 C   0  0  0  0  0  0
  -19.5729  -26.6340   21.5197 C   0  0  0  0  0  0
  -18.1910  -26.7890   22.1613 C   0  0  0  0  0  0
  -19.1534  -28.8797   23.2895 C   0  0  0  0  0  0
  -18.9467  -30.1406   23.8899 C   0  0  0  0  0  0
  -17.6466  -30.6558   24.0524 C   0  0  0  0  0  0
  -25.9042  -34.9454   23.5127 C   0  0  0  0  0  0
  -16.5357  -29.9034   23.6325 C   0  0  0  0  0  0
  -16.7261  -28.6430   23.0401 C   0  0  0  0  0  0
  -26.4513  -31.6647   25.0773 C   0  0  0  0  0  0
  -25.3779  -31.3816   26.1532 C   0  0  0  0  0  0
  -27.0394  -30.3093   24.6217 C   0  0  0  0  0  0
  -27.6054  -32.4434   25.7515 C   0  0  0  0  0  0
  -27.5579  -37.1794   24.8476 C   0  0  0  0  0  0
  -21.4176  -29.3021   22.3738 N   0  0  0  0  0  0
  -26.4285  -37.3780   23.9419 N   0  0  0  0  0  0
  -24.6883  -31.0621   22.1025 N   0  0  0  0  0  0
  -23.4213  -28.8154   23.3033 O   0  0  0  0  0  0
  -28.3187  -26.4503   20.2120 O   0  0  0  0  0  0
  -26.5559  -34.8936   22.4666 O   0  0  0  0  0  0
  -23.5425  -32.1450   23.7362 O   0  0  0  0  0  0
  -29.2628  -17.8653   21.9837 C   0  0  0  0  0  0
  -30.4933  -17.8271   19.9178 C   0  0  0  0  0  0
  -29.1774  -19.2906   21.9424 C   0  0  0  0  0  0
  -29.9172  -17.0908   20.9875 C   0  0  0  0  0  0
  -29.7215  -20.0193   20.8393 C   0  0  0  0  0  0
  -30.3993  -19.2501   19.8510 C   0  0  0  0  0  0
  -28.7792  -22.4286   20.7697 C   0  0  0  0  0  0
  -28.5641  -19.9892   23.1521 C   0  0  0  0  0  0
  -29.1622  -23.9626   20.6794 C   0  0  0  0  0  0
  -28.0524  -24.9913   20.1919 C   0  0  0  0  0  0
  -29.7655  -21.4785   20.7262 N   0  0  0  0  0  0
  -29.8848  -15.6294   21.1033 N   0  0  0  0  0  0
  -27.5921  -22.1161   20.8803 O   0  0  0  0  0  0
  -30.9909  -19.8931   18.8143 F   0  0  0  0  0  0
  -31.4861  -12.5038   19.1731 H   0  0  0  0  0  0
  -30.3589  -11.3866   19.8919 H   0  0  0  0  0  0
  -29.7824  -11.7724   17.4844 H   0  0  0  0  0  0
  -29.6771  -13.4939   17.7578 H   0  0  0  0  0  0
  -27.8546  -11.3141   18.8334 H   0  0  0  0  0  0
  -27.3919  -12.6346   17.7910 H   0  0  0  0  0  0
  -27.6886  -14.2620   19.5594 H   0  0  0  0  0  0
  -28.7056  -12.0165   21.3572 H   0  0  0  0  0  0
  -28.4331  -13.6523   21.8765 H   0  0  0  0  0  0
  -25.2758   -9.5712   22.4800 H   0  0  0  0  0  0
  -24.0013   -7.4643   22.7476 H   0  0  0  0  0  0
  -21.0815   -8.8812   19.9000 H   0  0  0  0  0  0
  -22.3656  -10.9736   19.6228 H   0  0  0  0  0  0
  -21.2022   -7.6181   23.9749 H   0  0  0  0  0  0
  -21.1477   -6.0546   25.9092 H   0  0  0  0  0  0
  -22.0579   -2.7641   23.2818 H   0  0  0  0  0  0
  -22.3989  -12.0105   22.4959 H   0  0  0  0  0  0
  -21.1053  -13.1493   22.2493 H   0  0  0  0  0  0
  -24.6616  -15.8377   20.5403 H   0  0  0  0  0  0
  -26.2822  -15.6378   20.1081 H   0  0  0  0  0  0
  -26.7173  -32.5460   23.1137 H   0  0  0  0  0  0
  -25.0279  -33.9782   25.0596 H   0  0  0  0  0  0
  -22.7124  -31.3046   21.4101 H   0  0  0  0  0  0
  -23.3767  -35.9565   23.3326 H   0  0  0  0  0  0
  -24.3551  -36.8863   22.2053 H   0  0  0  0  0  0
  -23.7183  -37.6465   23.6633 H   0  0  0  0  0  0
  -26.0998  -31.5560   20.6185 H   0  0  0  0  0  0
  -26.8362  -30.8310   22.0165 H   0  0  0  0  0  0
  -28.1019  -28.9597   21.2304 H   0  0  0  0  0  0
  -25.9615  -25.9332   19.0032 H   0  0  0  0  0  0
  -23.9699  -27.3263   18.9972 H   0  0  0  0  0  0
  -23.7546  -30.6074   19.4112 H   0  0  0  0  0  0
  -22.7521  -29.2597   19.8579 H   0  0  0  0  0  0
  -25.1267  -36.1953   25.0850 H   0  0  0  0  0  0
  -20.9946  -28.3145   24.1415 H   0  0  0  0  0  0
  -20.5600  -26.2216   23.3599 H   0  0  0  0  0  0
  -21.6631  -26.7343   22.1217 H   0  0  0  0  0  0
  -19.6877  -25.6233   21.1254 H   0  0  0  0  0  0
  -19.6671  -27.3117   20.6700 H   0  0  0  0  0  0
  -17.4179  -26.6664   21.4015 H   0  0  0  0  0  0
  -18.0285  -26.0011   22.8972 H   0  0  0  0  0  0
  -19.7945  -30.7212   24.2291 H   0  0  0  0  0  0
  -17.5017  -31.6262   24.5088 H   0  0  0  0  0  0
  -15.5349  -30.2929   23.7645 H   0  0  0  0  0  0
  -15.8669  -28.0707   22.7175 H   0  0  0  0  0  0
  -24.5824  -30.7320   25.7873 H   0  0  0  0  0  0
  -24.9152  -32.3030   26.5078 H   0  0  0  0  0  0
  -25.8114  -30.8874   27.0246 H   0  0  0  0  0  0
  -26.3003  -29.6824   24.1233 H   0  0  0  0  0  0
  -27.4139  -29.7339   25.4695 H   0  0  0  0  0  0
  -27.8818  -30.4437   23.9441 H   0  0  0  0  0  0
  -27.2619  -33.3703   26.2129 H   0  0  0  0  0  0
  -28.3808  -32.7112   25.0324 H   0  0  0  0  0  0
  -28.0809  -31.8610   26.5427 H   0  0  0  0  0  0
  -28.2613  -38.0064   24.7510 H   0  0  0  0  0  0
  -28.1065  -36.2617   24.6304 H   0  0  0  0  0  0
  -27.2320  -37.1428   25.8884 H   0  0  0  0  0  0
  -20.9342  -29.8803   21.7025 H   0  0  0  0  0  0
  -26.0192  -38.2872   24.1415 H   0  0  0  0  0  0
  -28.8249  -17.3462   22.8249 H   0  0  0  0  0  0
  -31.0033  -17.3116   19.1164 H   0  0  0  0  0  0
  -28.3458  -19.2854   23.9594 H   0  0  0  0  0  0
  -27.6297  -20.4912   22.9023 H   0  0  0  0  0  0
  -29.2566  -20.7233   23.5616 H   0  0  0  0  0  0
  -30.0404  -24.0598   20.0429 H   0  0  0  0  0  0
  -29.4808  -24.2589   21.6798 H   0  0  0  0  0  0
  -27.1610  -24.8063   20.7947 H   0  0  0  0  0  0
  -27.7898  -24.7128   19.1716 H   0  0  0  0  0  0
  -30.6647  -21.8380   20.4363 H   0  0  0  0  0  0
  -29.0983  -15.2730   21.6258 H   0  0  0  0  0  0
  1 25  1  0  0  0
  1 30  2  0  0  0
  1 82  1  0  0  0
  2  3  1  0  0  0
  2 25  1  0  0  0
  2 85  1  0  0  0
  2 86  1  0  0  0
  3  4  1  0  0  0
  3 87  1  0  0  0
  3 88  1  0  0  0
  4  5  1  0  0  0
  4 89  1  0  0  0
  4 90  1  0  0  0
  5  6  1  0  0  0
  5 26  1  0  0  0
  5 91  1  0  0  0
  6 25  1  0  0  0
  6 92  1  0  0  0
  6 93  1  0  0  0
  7  8  2  0  0  0
  7 26  1  0  0  0
  7 29  1  0  0  0
  8  9  1  0  0  0
  8 22  1  0  0  0
  9 10  1  0  0  0
  9 27  2  0  0  0
 10 11  2  0  0  0
 10 15  1  0  0  0
 11 12  1  0  0  0
 11 94  1  0  0  0
 12 13  2  0  0  0
 12 95  1  0  0  0
 13 14  1  0  0  0
 13 31  1  0  0  0
 14 15  2  0  0  0
 14 96  1  0  0  0
 15 97  1  0  0  0
 16 17  2  0  0  0
 16 21  1  0  0  0
 16 31  1  0  0  0
 17 18  1  0  0  0
 17 98  1  0  0  0
 18 19  2  0  0  0
 18 99  1  0  0  0
 19 20  1  0  0  0
 19 24  1  0  0  0
 20 21  2  0  0  0
 20100  1  0  0  0
 21 23  1  0  0  0
 22 28  1  0  0  0
 22 32  2  0  0  0
 26 27  1  0  0  0
 28101  1  0  0  0
 28102  1  0  0  0
 29103  1  0  0  0
 29104  1  0  0  0
 33 34  1  0  0  0
 33 66  1  0  0  0
 33 70  2  0  0  0
 34 36  1  0  0  0
 34 59  1  0  0  0
 34105  1  0  0  0
 35 44  2  0  0  0
 35 45  1  0  0  0
 35 68  1  0  0  0
 36 56  1  0  0  0
 36106  1  0  0  0
 37 39  1  0  0  0
 37 47  1  0  0  0
 37 66  1  0  0  0
 37107  1  0  0  0
 38 43  2  0  0  0
 38 46  1  0  0  0
 38 47  1  0  0  0
 39 64  1  0  0  0
 39 67  2  0  0  0
 40 52  1  0  0  0
 40 53  2  0  0  0
 40 58  1  0  0  0
 41108  1  0  0  0
 41109  1  0  0  0
 41110  1  0  0  0
 41 48  1  0  0  0
 42 43  1  0  0  0
 42 66  1  0  0  0
 42111  1  0  0  0
 42112  1  0  0  0
 43 44  1  0  0  0
 44113  1  0  0  0
 45 46  2  0  0  0
 45114  1  0  0  0
 46115  1  0  0  0
 47116  1  0  0  0
 47117  1  0  0  0
 48 56  1  0  0  0
 48 65  1  0  0  0
 48118  1  0  0  0
 49 50  1  0  0  0
 49 53  1  0  0  0
 49 64  1  0  0  0
 49119  1  0  0  0
 50 51  1  0  0  0
 50120  1  0  0  0
 50121  1  0  0  0
 51 52  1  0  0  0
 51122  1  0  0  0
 51123  1  0  0  0
 52124  1  0  0  0
 52125  1  0  0  0
 53 54  1  0  0  0
 54 55  2  0  0  0
 54126  1  0  0  0
 55 57  1  0  0  0
 55127  1  0  0  0
 56 69  2  0  0  0
 57 58  2  0  0  0
 57128  1  0  0  0
 58129  1  0  0  0
 59 60  1  0  0  0
 59 61  1  0  0  0
 59 62  1  0  0  0
 60130  1  0  0  0
 60131  1  0  0  0
 60132  1  0  0  0
 61133  1  0  0  0
 61134  1  0  0  0
 61135  1  0  0  0
 62136  1  0  0  0
 62137  1  0  0  0
 62138  1  0  0  0
 63 65  1  0  0  0
 63139  1  0  0  0
 63140  1  0  0  0
 63141  1  0  0  0
 64142  1  0  0  0
 65143  1  0  0  0
 68 80  1  0  0  0
 71 73  2  0  0  0
 71 74  1  0  0  0
 71144  1  0  0  0
 72 74  2  0  0  0
 72 76  1  0  0  0
 72145  1  0  0  0
 73 75  1  0  0  0
 73 78  1  0  0  0
 74 82  1  0  0  0
 75 76  2  0  0  0
 75 81  1  0  0  0
 76 84  1  0  0  0
 77 79  1  0  0  0
 77 81  1  0  0  0
 77 83  2  0  0  0
 78146  1  0  0  0
 78147  1  0  0  0
 78148  1  0  0  0
 79 80  1  0  0  0
 79149  1  0  0  0
 79150  1  0  0  0
 80151  1  0  0  0
 80152  1  0  0  0
 81153  1  0  0  0
 82154  1  0  0  0
M  ISO  4   1 100  68 101  80 101  82 100
M  END
> <chiral flag>
0

> <version>
0

> <s_m_source_file>
/data/baiqing/PycharmProjects/Reinvent-master-3.2/result/LINK_invent/BTK/process_docking_weight1_custom_product_contain_oxygen_bond_distance_aromatic_linkinvent_7_9_3/rearranged_h_0110.sdf

> <i_m_source_file_index>
3

> <r_mmod_Potential_Energy-OPLS-2005>
3.92648530006409

> <r_mmod_Stretch_Energy-OPLS-2005>
78.8968353271484

> <r_mmod_Bend_Energy-OPLS-2005>
139.716354370117

> <r_mmod_Torsional_Energy-OPLS-2005>
242.398986816406

> <r_mmod_Improper_Torsional_Energy-OPLS-2005>
3.72927570343018

> <r_mmod_Van_der_Waal_Energy-OPLS-2005>
142.878280639648

> <r_mmod_Electrostatic_Energy-OPLS-2005>
-428.896362304688

> <r_mmod_Solvation_Energy-OPLS-2005>
-223.810852050781

> <b_mmod_Minimization_Converged-OPLS-2005>
0

> <r_mmod_RMS_Derivative-OPLS-2005>
5.51914882659912

$$$$
4
                    3D
 Structure written by MMmdl.
170179  0  0  1  0            999 V2000
  -30.6951  -14.4899   20.4027 C   0  0  0  0  0  0
  -30.4231  -12.2452   19.4560 C   0  0  0  0  0  0
  -29.5121  -12.3574   18.2158 C   0  0  0  0  0  0
  -28.0110  -12.3639   18.5967 C   0  0  0  0  0  0
  -27.6567  -13.1924   19.8657 C   0  0  2  0  0  0
  -28.7129  -13.0348   20.9803 C   0  0  0  0  0  0
  -25.2641  -13.8104   20.5693 C   0  0  0  0  0  0
  -24.1840  -13.0391   20.9181 C   0  0  0  0  0  0
  -24.6387  -11.6854   20.8738 C   0  0  0  0  0  0
  -23.9036  -10.4242   21.0415 C   0  0  0  0  0  0
  -24.3571   -9.4154   21.9206 C   0  0  0  0  0  0
  -23.6258   -8.2185   22.0746 C   0  0  0  0  0  0
  -22.4252   -8.0252   21.3513 C   0  0  0  0  0  0
  -21.9915   -9.0219   20.4601 C   0  0  0  0  0  0
  -22.7232  -10.2111   20.3026 C   0  0  0  0  0  0
  -21.6818   -6.0726   22.5263 C   0  0  0  0  0  0
  -21.3990   -6.5612   23.8209 C   0  0  0  0  0  0
  -21.3663   -5.6757   24.9164 C   0  0  0  0  0  0
  -21.6066   -4.3028   24.7209 C   0  0  0  0  0  0
  -21.8821   -3.8138   23.4306 C   0  0  0  0  0  0
  -21.9190   -4.6962   22.3377 C   0  0  0  0  0  0
  -22.7880  -13.5221   21.1878 C   0  0  0  0  0  0
  -22.1652   -4.2142   21.0957 F   0  0  0  0  0  0
  -21.5672   -3.4514   25.7722 F   0  0  0  0  0  0
  -30.0306  -13.3043   20.3893 N   0  0  0  0  0  0
  -26.3035  -12.9196   20.3408 N   0  0  0  0  0  0
  -25.9312  -11.6384   20.5803 N   0  0  0  0  0  0
  -22.0505  -12.8149   22.0392 N   0  0  0  0  0  0
  -25.4512  -15.1800   20.4061 N   0  0  0  0  0  0
  -31.9041  -14.5906   20.1823 O   0  0  0  0  0  0
  -21.6577   -6.8876   21.4236 O   0  0  0  0  0  0
  -22.3562  -14.5562   20.6826 O   0  0  0  0  0  0
  -24.6071  -31.8685   23.2106 C   0  0  0  0  0  0
  -25.8976  -32.4822   23.8398 C   0  0  1  0  0  0
  -27.2479  -27.4752   20.0797 C   0  0  0  0  0  0
  -25.5859  -33.8611   24.2346 N   0  0  0  0  0  0
  -23.3918  -30.4843   21.5536 C   0  0  2  0  0  0
  -24.8400  -28.9539   20.1183 C   0  0  0  0  0  0
  -22.7356  -29.4645   22.5099 C   0  0  0  0  0  0
  -18.0245  -28.1369   22.8526 C   0  0  0  0  0  0
  -24.1422  -36.7227   23.2657 C   0  0  0  0  0  0
  -25.9099  -30.8511   21.3490 C   0  0  0  0  0  0
  -25.9965  -29.4848   20.7017 C   0  0  0  0  0  0
  -27.2003  -28.7511   20.6775 C   0  0  0  0  0  0
  -26.0683  -26.9423   19.5079 C   0  0  0  0  0  0
  -24.8694  -27.6805   19.5240 C   0  0  0  0  0  0
  -23.5933  -29.8050   20.1708 C   0  0  0  0  0  0
  -25.4050  -36.3075   24.0364 C   0  0  1  0  0  0
  -20.5820  -28.3598   23.1363 C   0  0  2  0  0  0
  -20.6727  -26.9362   22.5396 C   0  0  0  0  0  0
  -19.5696  -26.6396   21.5192 C   0  0  0  0  0  0
  -18.1879  -26.7925   22.1636 C   0  0  0  0  0  0
  -19.1501  -28.8815   23.2924 C   0  0  0  0  0  0
  -18.9457  -30.1441   23.8892 C   0  0  0  0  0  0
  -17.6475  -30.6599   24.0561 C   0  0  0  0  0  0
  -25.9009  -34.9469   23.5154 C   0  0  0  0  0  0
  -16.5345  -29.9101   23.6372 C   0  0  0  0  0  0
  -16.7244  -28.6511   23.0395 C   0  0  0  0  0  0
  -26.4467  -31.6572   25.0679 C   0  0  0  0  0  0
  -25.3788  -31.3476   26.1425 C   0  0  0  0  0  0
  -27.0405  -30.3119   24.5914 C   0  0  0  0  0  0
  -27.5992  -32.4309   25.7513 C   0  0  0  0  0  0
  -27.5518  -37.1752   24.8497 C   0  0  0  0  0  0
  -21.4103  -29.2973   22.3809 N   0  0  0  0  0  0
  -26.4204  -37.3785   23.9486 N   0  0  0  0  0  0
  -24.6554  -31.0787   22.0997 N   0  0  0  0  0  0
  -23.4147  -28.8237   23.3163 O   0  0  0  0  0  0
  -28.4645  -26.8357   20.0631 O   0  0  0  0  0  0
  -26.5565  -34.8939   22.4709 O   0  0  0  0  0  0
  -23.5269  -32.1444   23.7500 O   0  0  0  0  0  0
  -29.0969  -20.2412   19.9828 C   0  0  0  0  0  0
  -29.2802  -20.6471   17.5943 C   0  0  0  0  0  0
  -29.4484  -18.8844   19.7973 C   0  0  0  0  0  0
  -29.7768  -18.4241   18.4849 C   0  0  0  0  0  0
  -29.6281  -19.3042   17.3720 C   0  0  0  0  0  0
  -29.0554  -21.1321   18.8930 C   0  0  0  0  0  0
  -29.3340  -23.5375   18.5307 C   0  0  0  0  0  0
  -29.3718  -17.9848   21.0456 C   0  0  0  0  0  0
  -30.2860  -17.0051   18.2826 C   0  0  0  0  0  0
  -30.3091  -16.7582   21.1474 C   0  0  0  0  0  0
  -29.4084  -15.9706   18.9947 C   0  0  0  0  0  0
  -31.1975  -18.8741   13.7991 C   0  0  0  0  0  0
  -29.7636  -18.8849   15.9067 C   0  0  0  0  0  0
  -28.6143  -24.8805   18.5751 C   0  0  0  0  0  0
  -31.1582  -19.1417   15.3121 C   0  0  0  0  0  0
  -28.5218  -25.4166   20.0134 C   0  0  0  0  0  0
  -29.9162  -15.5979   20.3304 N   0  0  0  0  0  0
  -28.6966  -22.4878   19.0760 N   0  0  0  0  0  0
  -30.4610  -23.4661   18.0322 O   0  0  0  0  0  0
  -31.4749  -12.3112   19.1729 H   0  0  0  0  0  0
  -30.3088  -11.2696   19.9317 H   0  0  0  0  0  0
  -29.7089  -11.5146   17.5509 H   0  0  0  0  0  0
  -29.7831  -13.2272   17.6241 H   0  0  0  0  0  0
  -27.7176  -11.3250   18.7437 H   0  0  0  0  0  0
  -27.4216  -12.7229   17.7517 H   0  0  0  0  0  0
  -27.6502  -14.2283   19.5580 H   0  0  0  0  0  0
  -28.6865  -12.0216   21.3891 H   0  0  0  0  0  0
  -28.5053  -13.7062   21.8136 H   0  0  0  0  0  0
  -25.2719   -9.5600   22.4772 H   0  0  0  0  0  0
  -23.9964   -7.4549   22.7439 H   0  0  0  0  0  0
  -21.0878   -8.8709   19.8853 H   0  0  0  0  0  0
  -22.3724  -10.9630   19.6082 H   0  0  0  0  0  0
  -21.1919   -7.6103   23.9717 H   0  0  0  0  0  0
  -21.1530   -6.0471   25.9079 H   0  0  0  0  0  0
  -22.0616   -2.7606   23.2796 H   0  0  0  0  0  0
  -22.4092  -11.9656   22.4489 H   0  0  0  0  0  0
  -21.1174  -13.1220   22.2758 H   0  0  0  0  0  0
  -24.7106  -15.8676   20.4825 H   0  0  0  0  0  0
  -26.3348  -15.5833   20.1137 H   0  0  0  0  0  0
  -26.7028  -32.5592   23.1162 H   0  0  0  0  0  0
  -25.0008  -33.9770   25.0490 H   0  0  0  0  0  0
  -22.6799  -31.2987   21.4087 H   0  0  0  0  0  0
  -23.3743  -35.9492   23.3267 H   0  0  0  0  0  0
  -24.3521  -36.8902   22.2080 H   0  0  0  0  0  0
  -23.7095  -37.6384   23.6702 H   0  0  0  0  0  0
  -25.9865  -31.6195   20.5784 H   0  0  0  0  0  0
  -26.8065  -30.9219   21.9515 H   0  0  0  0  0  0
  -28.1004  -29.1581   21.1148 H   0  0  0  0  0  0
  -26.0552  -25.9731   19.0327 H   0  0  0  0  0  0
  -23.9762  -27.2645   19.0782 H   0  0  0  0  0  0
  -23.6773  -30.5670   19.3961 H   0  0  0  0  0  0
  -22.7229  -29.2058   19.8956 H   0  0  0  0  0  0
  -25.1191  -36.1920   25.0845 H   0  0  0  0  0  0
  -20.9861  -28.3093   24.1509 H   0  0  0  0  0  0
  -20.5670  -26.2168   23.3527 H   0  0  0  0  0  0
  -21.6589  -26.7459   22.1164 H   0  0  0  0  0  0
  -19.6843  -25.6322   21.1183 H   0  0  0  0  0  0
  -19.6628  -27.3228   20.6734 H   0  0  0  0  0  0
  -17.4130  -26.6692   21.4046 H   0  0  0  0  0  0
  -18.0288  -26.0054   22.9019 H   0  0  0  0  0  0
  -19.7942  -30.7252   24.2239 H   0  0  0  0  0  0
  -17.5049  -31.6292   24.5140 H   0  0  0  0  0  0
  -15.5346  -30.3005   23.7747 H   0  0  0  0  0  0
  -15.8635  -28.0842   22.7144 H   0  0  0  0  0  0
  -24.6059  -30.6734   25.7714 H   0  0  0  0  0  0
  -24.8853  -32.2522   26.4973 H   0  0  0  0  0  0
  -25.8241  -30.8609   27.0117 H   0  0  0  0  0  0
  -26.2930  -29.6771   24.1152 H   0  0  0  0  0  0
  -27.4542  -29.7422   25.4240 H   0  0  0  0  0  0
  -27.8541  -30.4592   23.8806 H   0  0  0  0  0  0
  -27.2582  -33.3620   26.2043 H   0  0  0  0  0  0
  -28.3868  -32.6857   25.0410 H   0  0  0  0  0  0
  -28.0572  -31.8461   26.5500 H   0  0  0  0  0  0
  -28.2459  -38.0124   24.7679 H   0  0  0  0  0  0
  -28.1090  -36.2664   24.6165 H   0  0  0  0  0  0
  -27.2244  -37.1193   25.8897 H   0  0  0  0  0  0
  -20.9264  -29.8683   21.7033 H   0  0  0  0  0  0
  -26.0069  -38.2819   24.1663 H   0  0  0  0  0  0
  -28.8583  -20.6001   20.9760 H   0  0  0  0  0  0
  -29.1688  -21.3153   16.7492 H   0  0  0  0  0  0
  -28.3370  -17.6605   21.1739 H   0  0  0  0  0  0
  -29.5826  -18.6164   21.9106 H   0  0  0  0  0  0
  -31.3217  -16.9582   18.6207 H   0  0  0  0  0  0
  -30.3495  -16.7329   17.2323 H   0  0  0  0  0  0
  -30.2973  -16.4237   22.1854 H   0  0  0  0  0  0
  -31.3398  -17.0546   20.9446 H   0  0  0  0  0  0
  -29.3715  -15.0989   18.3488 H   0  0  0  0  0  0
  -28.3733  -16.3095   19.0376 H   0  0  0  0  0  0
  -32.1904  -19.0699   13.3933 H   0  0  0  0  0  0
  -30.4940  -19.5144   13.2653 H   0  0  0  0  0  0
  -30.9444  -17.8372   13.5724 H   0  0  0  0  0  0
  -29.0379  -19.4687   15.3363 H   0  0  0  0  0  0
  -29.4457  -17.8564   15.7444 H   0  0  0  0  0  0
  -27.6388  -24.7782   18.0987 H   0  0  0  0  0  0
  -29.1776  -25.5801   17.9563 H   0  0  0  0  0  0
  -31.4465  -20.1783   15.4922 H   0  0  0  0  0  0
  -31.9065  -18.5320   15.8173 H   0  0  0  0  0  0
  -29.4332  -25.1492   20.5533 H   0  0  0  0  0  0
  -27.7032  -24.9548   20.5660 H   0  0  0  0  0  0
  -27.8581  -22.6764   19.6090 H   0  0  0  0  0  0
  1 25  1  0  0  0
  1 30  2  0  0  0
  1 87  1  0  0  0
  2  3  1  0  0  0
  2 25  1  0  0  0
  2 90  1  0  0  0
  2 91  1  0  0  0
  3  4  1  0  0  0
  3 92  1  0  0  0
  3 93  1  0  0  0
  4  5  1  0  0  0
  4 94  1  0  0  0
  4 95  1  0  0  0
  5  6  1  0  0  0
  5 26  1  0  0  0
  5 96  1  0  0  0
  6 25  1  0  0  0
  6 97  1  0  0  0
  6 98  1  0  0  0
  7  8  2  0  0  0
  7 26  1  0  0  0
  7 29  1  0  0  0
  8  9  1  0  0  0
  8 22  1  0  0  0
  9 10  1  0  0  0
  9 27  2  0  0  0
 10 11  2  0  0  0
 10 15  1  0  0  0
 11 12  1  0  0  0
 11 99  1  0  0  0
 12 13  2  0  0  0
 12100  1  0  0  0
 13 14  1  0  0  0
 13 31  1  0  0  0
 14 15  2  0  0  0
 14101  1  0  0  0
 15102  1  0  0  0
 16 17  2  0  0  0
 16 21  1  0  0  0
 16 31  1  0  0  0
 17 18  1  0  0  0
 17103  1  0  0  0
 18 19  2  0  0  0
 18104  1  0  0  0
 19 20  1  0  0  0
 19 24  1  0  0  0
 20 21  2  0  0  0
 20105  1  0  0  0
 21 23  1  0  0  0
 22 28  1  0  0  0
 22 32  2  0  0  0
 26 27  1  0  0  0
 28106  1  0  0  0
 28107  1  0  0  0
 29108  1  0  0  0
 29109  1  0  0  0
 33 34  1  0  0  0
 33 66  1  0  0  0
 33 70  2  0  0  0
 34 36  1  0  0  0
 34 59  1  0  0  0
 34110  1  0  0  0
 35 44  2  0  0  0
 35 45  1  0  0  0
 35 68  1  0  0  0
 36 56  1  0  0  0
 36111  1  0  0  0
 37 39  1  0  0  0
 37 47  1  0  0  0
 37 66  1  0  0  0
 37112  1  0  0  0
 38 43  2  0  0  0
 38 46  1  0  0  0
 38 47  1  0  0  0
 39 64  1  0  0  0
 39 67  2  0  0  0
 40 52  1  0  0  0
 40 53  2  0  0  0
 40 58  1  0  0  0
 41113  1  0  0  0
 41114  1  0  0  0
 41115  1  0  0  0
 41 48  1  0  0  0
 42 43  1  0  0  0
 42 66  1  0  0  0
 42116  1  0  0  0
 42117  1  0  0  0
 43 44  1  0  0  0
 44118  1  0  0  0
 45 46  2  0  0  0
 45119  1  0  0  0
 46120  1  0  0  0
 47121  1  0  0  0
 47122  1  0  0  0
 48 56  1  0  0  0
 48 65  1  0  0  0
 48123  1  0  0  0
 49 50  1  0  0  0
 49 53  1  0  0  0
 49 64  1  0  0  0
 49124  1  0  0  0
 50 51  1  0  0  0
 50125  1  0  0  0
 50126  1  0  0  0
 51 52  1  0  0  0
 51127  1  0  0  0
 51128  1  0  0  0
 52129  1  0  0  0
 52130  1  0  0  0
 53 54  1  0  0  0
 54 55  2  0  0  0
 54131  1  0  0  0
 55 57  1  0  0  0
 55132  1  0  0  0
 56 69  2  0  0  0
 57 58  2  0  0  0
 57133  1  0  0  0
 58134  1  0  0  0
 59 60  1  0  0  0
 59 61  1  0  0  0
 59 62  1  0  0  0
 60135  1  0  0  0
 60136  1  0  0  0
 60137  1  0  0  0
 61138  1  0  0  0
 61139  1  0  0  0
 61140  1  0  0  0
 62141  1  0  0  0
 62142  1  0  0  0
 62143  1  0  0  0
 63 65  1  0  0  0
 63144  1  0  0  0
 63145  1  0  0  0
 63146  1  0  0  0
 64147  1  0  0  0
 65148  1  0  0  0
 68 86  1  0  0  0
 71 73  2  0  0  0
 71 76  1  0  0  0
 71149  1  0  0  0
 72 75  1  0  0  0
 72 76  2  0  0  0
 72150  1  0  0  0
 73 74  1  0  0  0
 73 78  1  0  0  0
 74 75  2  0  0  0
 74 79  1  0  0  0
 75 83  1  0  0  0
 76 88  1  0  0  0
 77 84  1  0  0  0
 77 88  1  0  0  0
 77 89  2  0  0  0
 78 80  1  0  0  0
 78151  1  0  0  0
 78152  1  0  0  0
 79 81  1  0  0  0
 79153  1  0  0  0
 79154  1  0  0  0
 80 87  1  0  0  0
 80155  1  0  0  0
 80156  1  0  0  0
 81 87  1  0  0  0
 81157  1  0  0  0
 81158  1  0  0  0
 82 85  1  0  0  0
 82159  1  0  0  0
 82160  1  0  0  0
 82161  1  0  0  0
 83 85  1  0  0  0
 83162  1  0  0  0
 83163  1  0  0  0
 84 86  1  0  0  0
 84164  1  0  0  0
 84165  1  0  0  0
 85166  1  0  0  0
 85167  1  0  0  0
 86168  1  0  0  0
 86169  1  0  0  0
 88170  1  0  0  0
M  ISO  4   1 100  68 101  86 101  87 100
M  END
> <chiral flag>
0

> <version>
0

> <s_m_source_file>
/data/baiqing/PycharmProjects/Reinvent-master-3.2/result/LINK_invent/BTK/process_docking_weight1_custom_product_contain_oxygen_bond_distance_aromatic_linkinvent_7_9_3/rearranged_h_0110.sdf

> <i_m_source_file_index>
4

> <r_mmod_Potential_Energy-OPLS-2005>
189.433517456055

> <r_mmod_Stretch_Energy-OPLS-2005>
38.0527191162109

> <r_mmod_Bend_Energy-OPLS-2005>
120.739112854004

> <r_mmod_Torsional_Energy-OPLS-2005>
386.846588134766

> <r_mmod_Improper_Torsional_Energy-OPLS-2005>
12.3065900802612

> <r_mmod_Van_der_Waal_Energy-OPLS-2005>
172.461059570312

> <r_mmod_Electrostatic_Energy-OPLS-2005>
-345.258728027344

> <r_mmod_Solvation_Energy-OPLS-2005>
-222.327026367188

> <b_mmod_Minimization_Converged-OPLS-2005>
0

> <r_mmod_RMS_Derivative-OPLS-2005>
4.47602558135986

$$$$
5
                    3D
 Structure written by MMmdl.
160168  0  0  1  0            999 V2000
  -29.8918  -14.4432   20.9479 C   0  0  0  0  0  0
  -30.4825  -12.5207   19.3583 C   0  0  0  0  0  0
  -29.5430  -12.5597   18.1021 C   0  0  0  0  0  0
  -28.0237  -12.3052   18.3691 C   0  0  0  0  0  0
  -27.6168  -13.0538   19.6599 C   0  0  2  0  0  0
  -28.6264  -12.4701   20.7637 C   0  0  0  0  0  0
  -24.9555  -14.5689   21.1584 C   0  0  0  0  0  0
  -24.3241  -14.0840   21.2206 C   0  0  0  0  0  0
  -25.2586  -12.2413   20.4285 C   0  0  0  0  0  0
  -24.5249  -10.5553   20.4972 C   0  0  0  0  0  0
  -24.7126   -9.5952   21.6061 C   0  0  0  0  0  0
  -23.8618   -8.4686   21.9827 C   0  0  0  0  0  0
  -22.6549   -8.1635   21.2974 C   0  0  0  0  0  0
  -22.3898   -9.0494   20.2418 C   0  0  0  0  0  0
  -23.3035  -10.0870   19.8525 C   0  0  0  0  0  0
  -21.7870   -6.1803   22.5313 C   0  0  0  0  0  0
  -21.4761   -6.6269   23.8354 C   0  0  0  0  0  0
  -21.3886   -5.7145   24.9095 C   0  0  0  0  0  0
  -21.6042   -4.3400   24.6956 C   0  0  0  0  0  0
  -21.8769   -3.8762   23.3967 C   0  0  0  0  0  0
  -21.9538   -4.7843   22.3210 C   0  0  0  0  0  0
  -22.7612  -14.5301   21.6386 C   0  0  0  0  0  0
  -22.1778   -4.2974   21.0756 F   0  0  0  0  0  0
  -21.5473   -3.4691   25.7328 F   0  0  0  0  0  0
  -29.8188  -13.1657   20.5105 N   0  0  0  0  0  0
  -26.0986  -13.1604   20.2121 N   0  0  0  0  0  0
  -26.2690  -11.9065   20.2536 N   0  0  0  0  0  0
  -21.9409  -13.7710   22.4017 N   0  0  0  0  0  0
  -24.9373  -15.9546   21.6047 N   0  0  0  0  0  0
  -30.9572  -15.0384   20.6328 O   0  0  0  0  0  0
  -21.7979   -7.0604   21.4593 O   0  0  0  0  0  0
  -22.1871  -15.2930   20.8776 O   0  0  0  0  0  0
  -24.7159  -31.7609   23.1339 C   0  0  0  0  0  0
  -25.9627  -32.4231   23.7924 C   0  0  1  0  0  0
  -26.8296  -26.2496   20.1713 C   0  0  0  0  0  0
  -25.6096  -33.8094   24.1761 N   0  0  0  0  0  0
  -23.5278  -30.3890   21.5041 C   0  0  2  0  0  0
  -24.8989  -28.6730   20.0878 C   0  0  0  0  0  0
  -22.7807  -29.4195   22.4614 C   0  0  0  0  0  0
  -18.0347  -28.1423   22.8448 C   0  0  0  0  0  0
  -24.1504  -36.7040   23.2656 C   0  0  0  0  0  0
  -26.1190  -30.3241   21.4548 C   0  0  0  0  0  0
  -26.0967  -28.8594   20.7816 C   0  0  0  0  0  0
  -27.0649  -27.6743   20.7865 C   0  0  0  0  0  0
  -25.6798  -26.4043   19.3815 C   0  0  0  0  0  0
  -24.7609  -27.4888   19.3564 C   0  0  0  0  0  0
  -23.7694  -29.7164   20.1262 C   0  0  0  0  0  0
  -25.4168  -36.2753   24.0246 C   0  0  1  0  0  0
  -20.5988  -28.3793   23.1093 C   0  0  2  0  0  0
  -20.6796  -26.9435   22.5396 C   0  0  0  0  0  0
  -19.5775  -26.6359   21.5208 C   0  0  0  0  0  0
  -18.1961  -26.7951   22.1612 C   0  0  0  0  0  0
  -19.1618  -28.8934   23.2753 C   0  0  0  0  0  0
  -18.9528  -30.1511   23.8808 C   0  0  0  0  0  0
  -17.6520  -30.6604   24.0549 C   0  0  0  0  0  0
  -25.9188  -34.9160   23.4854 C   0  0  0  0  0  0
  -16.5405  -29.9085   23.6355 C   0  0  0  0  0  0
  -16.7328  -28.6506   23.0374 C   0  0  0  0  0  0
  -26.4681  -31.6451   25.0717 C   0  0  0  0  0  0
  -25.3658  -31.3885   26.1277 C   0  0  0  0  0  0
  -27.0670  -30.2748   24.6908 C   0  0  0  0  0  0
  -27.6040  -32.4423   25.7558 C   0  0  0  0  0  0
  -27.5554  -37.1676   24.8458 C   0  0  0  0  0  0
  -21.4439  -29.3014   22.3384 N   0  0  0  0  0  0
  -26.4243  -37.3571   23.9421 N   0  0  0  0  0  0
  -24.8222  -30.8703   22.0795 N   0  0  0  0  0  0
  -23.4164  -28.7780   23.3007 O   0  0  0  0  0  0
  -27.4315  -24.7270   20.1450 O   0  0  0  0  0  0
  -26.5855  -34.8808   22.4493 O   0  0  0  0  0  0
  -23.6146  -32.0922   23.6136 O   0  0  0  0  0  0
  -23.9398  -12.2043   22.1686 C   0  0  0  0  0  0
  -25.9339  -13.1152   22.6393 C   0  0  0  0  0  0
  -23.2229  -12.8349   19.8507 C   0  0  0  0  0  0
  -24.5478  -14.3606   18.9025 C   0  0  0  0  0  0
  -27.1422  -14.6518   21.5457 C   0  0  0  0  0  0
  -26.3351  -15.4659   19.6754 C   0  0  0  0  0  0
  -21.8542  -12.5990   19.2364 C   0  0  0  0  0  0
  -27.1207  -20.9316   19.7113 C   0  0  0  0  0  0
  -23.9173  -15.1141   17.7405 C   0  0  0  0  0  0
  -26.7347  -22.9038   20.1512 C   0  0  0  0  0  0
  -26.5060  -18.9964   20.0521 C   0  0  0  0  0  0
  -21.8641  -12.4429   17.9181 N   0  0  0  0  0  0
  -28.6966  -14.9398   21.6450 N   0  0  0  0  0  0
  -23.8844  -14.3633   16.4806 N   0  3  0  0  0  0
  -20.8263  -12.4988   19.9014 O   0  0  0  0  0  0
  -28.0918  -20.8909   18.9486 O   0  0  0  0  0  0
  -26.6433  -17.1674   19.4097 O   0  0  0  0  0  0
  -31.4240  -13.0205   19.1255 H   0  0  0  0  0  0
  -30.7505  -11.4944   19.6141 H   0  0  0  0  0  0
  -29.9082  -11.8691   17.3423 H   0  0  0  0  0  0
  -29.6337  -13.5476   17.6484 H   0  0  0  0  0  0
  -27.8544  -11.2289   18.4424 H   0  0  0  0  0  0
  -27.4304  -12.6515   17.5215 H   0  0  0  0  0  0
  -27.9747  -14.0043   19.2906 H   0  0  0  0  0  0
  -28.7655  -11.3939   20.6340 H   0  0  0  0  0  0
  -28.3292  -12.5108   21.8108 H   0  0  0  0  0  0
  -25.5514   -9.7966   22.2569 H   0  0  0  0  0  0
  -24.1540   -7.8567   22.8238 H   0  0  0  0  0  0
  -21.5286   -8.8617   19.6165 H   0  0  0  0  0  0
  -23.0882  -10.5055   18.8910 H   0  0  0  0  0  0
  -21.3041   -7.6784   24.0145 H   0  0  0  0  0  0
  -21.1631   -6.0726   25.9043 H   0  0  0  0  0  0
  -22.0229   -2.8217   23.2207 H   0  0  0  0  0  0
  -22.3135  -12.9880   22.9154 H   0  0  0  0  0  0
  -20.9541  -13.9736   22.4431 H   0  0  0  0  0  0
  -24.1253  -16.4279   21.9814 H   0  0  0  0  0  0
  -25.7104  -16.5836   21.4257 H   0  0  0  0  0  0
  -26.7693  -32.4514   23.0587 H   0  0  0  0  0  0
  -25.0132  -33.9076   24.9844 H   0  0  0  0  0  0
  -22.8732  -31.2459   21.3288 H   0  0  0  0  0  0
  -23.3808  -35.9324   23.3207 H   0  0  0  0  0  0
  -24.3568  -36.8843   22.2096 H   0  0  0  0  0  0
  -23.7222  -37.6150   23.6844 H   0  0  0  0  0  0
  -26.4003  -31.0265   20.6693 H   0  0  0  0  0  0
  -26.9545  -30.3500   22.1399 H   0  0  0  0  0  0
  -27.9599  -27.7960   21.3794 H   0  0  0  0  0  0
  -25.3889  -25.5402   18.8001 H   0  0  0  0  0  0
  -23.8684  -27.3614   18.7592 H   0  0  0  0  0  0
  -24.0153  -30.4873   19.3948 H   0  0  0  0  0  0
  -22.8423  -29.2651   19.7680 H   0  0  0  0  0  0
  -25.1394  -36.1447   25.0729 H   0  0  0  0  0  0
  -21.0068  -28.3437   24.1221 H   0  0  0  0  0  0
  -20.5637  -26.2424   23.3677 H   0  0  0  0  0  0
  -21.6656  -26.7349   22.1230 H   0  0  0  0  0  0
  -19.6929  -25.6246   21.1292 H   0  0  0  0  0  0
  -19.6716  -27.3118   20.6696 H   0  0  0  0  0  0
  -17.4229  -26.6700   21.4016 H   0  0  0  0  0  0
  -18.0352  -26.0108   22.9022 H   0  0  0  0  0  0
  -19.8007  -30.7346   24.2129 H   0  0  0  0  0  0
  -17.5078  -31.6276   24.5173 H   0  0  0  0  0  0
  -15.5403  -30.2968   23.7729 H   0  0  0  0  0  0
  -15.8727  -28.0795   22.7142 H   0  0  0  0  0  0
  -24.5899  -30.7155   25.7608 H   0  0  0  0  0  0
  -24.8793  -32.3143   26.4359 H   0  0  0  0  0  0
  -25.7782  -30.9300   27.0274 H   0  0  0  0  0  0
  -26.3408  -29.6203   24.2075 H   0  0  0  0  0  0
  -27.4103  -29.7399   25.5775 H   0  0  0  0  0  0
  -27.9407  -30.3797   24.0472 H   0  0  0  0  0  0
  -27.2501  -33.3832   26.1787 H   0  0  0  0  0  0
  -28.4032  -32.6814   25.0531 H   0  0  0  0  0  0
  -28.0503  -31.8801   26.5770 H   0  0  0  0  0  0
  -28.2471  -38.0062   24.7565 H   0  0  0  0  0  0
  -28.1147  -36.2583   24.6210 H   0  0  0  0  0  0
  -27.2275  -37.1206   25.8855 H   0  0  0  0  0  0
  -20.9758  -29.8687   21.6460 H   0  0  0  0  0  0
  -26.0020  -38.2581   24.1493 H   0  0  0  0  0  0
  -23.4043  -11.5237   22.8205 H   0  0  0  0  0  0
  -26.3966  -12.7462   23.5431 H   0  0  0  0  0  0
  -24.5069  -16.0177   17.5840 H   0  0  0  0  0  0
  -22.9162  -15.4480   18.0154 H   0  0  0  0  0  0
  -26.4192  -22.8112   21.1903 H   0  0  0  0  0  0
  -25.7974  -23.0422   19.6118 H   0  0  0  0  0  0
  -25.4274  -19.1215   20.1377 H   0  0  0  0  0  0
  -26.8312  -18.8676   21.0850 H   0  0  0  0  0  0
  -22.7387  -12.2296   17.4683 H   0  0  0  0  0  0
  -20.9957  -12.2419   17.4402 H   0  0  0  0  0  0
  -28.8843  -15.8596   22.0161 H   0  0  0  0  0  0
  -24.7446  -13.8705   16.3300 H   0  0  0  0  0  0
  -23.7523  -15.0098   15.7230 H   0  0  0  0  0  0
  -23.1067  -13.7302   16.4679 H   0  0  0  0  0  0
  1 25  1  0  0  0
  1 30  2  0  0  0
  1 83  1  0  0  0
  2  3  1  0  0  0
  2 25  1  0  0  0
  2 88  1  0  0  0
  2 89  1  0  0  0
  3  4  1  0  0  0
  3 90  1  0  0  0
  3 91  1  0  0  0
  4  5  1  0  0  0
  4 92  1  0  0  0
  4 93  1  0  0  0
  5  6  1  0  0  0
  5 26  1  0  0  0
  5 94  1  0  0  0
  6 25  1  0  0  0
  6 95  1  0  0  0
  6 96  1  0  0  0
  7  8  2  0  0  0
  7 26  1  0  0  0
  7 29  1  0  0  0
  8  9  1  0  0  0
  8 22  1  0  0  0
  9 10  1  0  0  0
  9 27  2  0  0  0
 10 11  2  0  0  0
 10 15  1  0  0  0
 11 12  1  0  0  0
 11 97  1  0  0  0
 12 13  2  0  0  0
 12 98  1  0  0  0
 13 14  1  0  0  0
 13 31  1  0  0  0
 14 15  2  0  0  0
 14 99  1  0  0  0
 15100  1  0  0  0
 16 17  2  0  0  0
 16 21  1  0  0  0
 16 31  1  0  0  0
 17 18  1  0  0  0
 17101  1  0  0  0
 18 19  2  0  0  0
 18102  1  0  0  0
 19 20  1  0  0  0
 19 24  1  0  0  0
 20 21  2  0  0  0
 20103  1  0  0  0
 21 23  1  0  0  0
 22 28  1  0  0  0
 22 32  2  0  0  0
 26 27  1  0  0  0
 28104  1  0  0  0
 28105  1  0  0  0
 29106  1  0  0  0
 29107  1  0  0  0
 33 34  1  0  0  0
 33 66  1  0  0  0
 33 70  2  0  0  0
 34 36  1  0  0  0
 34 59  1  0  0  0
 34108  1  0  0  0
 35 44  2  0  0  0
 35 45  1  0  0  0
 35 68  1  0  0  0
 36 56  1  0  0  0
 36109  1  0  0  0
 37 39  1  0  0  0
 37 47  1  0  0  0
 37 66  1  0  0  0
 37110  1  0  0  0
 38 43  2  0  0  0
 38 46  1  0  0  0
 38 47  1  0  0  0
 39 64  1  0  0  0
 39 67  2  0  0  0
 40 52  1  0  0  0
 40 53  2  0  0  0
 40 58  1  0  0  0
 41111  1  0  0  0
 41112  1  0  0  0
 41113  1  0  0  0
 41 48  1  0  0  0
 42 43  1  0  0  0
 42 66  1  0  0  0
 42114  1  0  0  0
 42115  1  0  0  0
 43 44  1  0  0  0
 44116  1  0  0  0
 45 46  2  0  0  0
 45117  1  0  0  0
 46118  1  0  0  0
 47119  1  0  0  0
 47120  1  0  0  0
 48 56  1  0  0  0
 48 65  1  0  0  0
 48121  1  0  0  0
 49 50  1  0  0  0
 49 53  1  0  0  0
 49 64  1  0  0  0
 49122  1  0  0  0
 50 51  1  0  0  0
 50123  1  0  0  0
 50124  1  0  0  0
 51 52  1  0  0  0
 51125  1  0  0  0
 51126  1  0  0  0
 52127  1  0  0  0
 52128  1  0  0  0
 53 54  1  0  0  0
 54 55  2  0  0  0
 54129  1  0  0  0
 55 57  1  0  0  0
 55130  1  0  0  0
 56 69  2  0  0  0
 57 58  2  0  0  0
 57131  1  0  0  0
 58132  1  0  0  0
 59 60  1  0  0  0
 59 61  1  0  0  0
 59 62  1  0  0  0
 60133  1  0  0  0
 60134  1  0  0  0
 60135  1  0  0  0
 61136  1  0  0  0
 61137  1  0  0  0
 61138  1  0  0  0
 62139  1  0  0  0
 62140  1  0  0  0
 62141  1  0  0  0
 63 65  1  0  0  0
 63142  1  0  0  0
 63143  1  0  0  0
 63144  1  0  0  0
 64145  1  0  0  0
 65146  1  0  0  0
 68 80  1  0  0  0
 71 72  2  0  0  0
 71 73  1  0  0  0
 71147  1  0  0  0
 72 75  1  0  0  0
 72148  1  0  0  0
 73 74  2  0  0  0
 73 77  1  0  0  0
 74 76  1  0  0  0
 74 79  1  0  0  0
 75 76  2  0  0  0
 75 83  1  0  0  0
 76 87  1  0  0  0
 77 82  1  0  0  0
 77 85  2  0  0  0
 78 80  1  0  0  0
 78 81  1  0  0  0
 78 86  2  0  0  0
 79 84  1  0  0  0
 79149  1  0  0  0
 79150  1  0  0  0
 80151  1  0  0  0
 80152  1  0  0  0
 81 87  1  0  0  0
 81153  1  0  0  0
 81154  1  0  0  0
 82155  1  0  0  0
 82156  1  0  0  0
 83157  1  0  0  0
 84158  1  0  0  0
 84159  1  0  0  0
 84160  1  0  0  0
M  CHG  1  84   1
M  ISO  4   1 100  68 101  80 101  83 100
M  END
> <chiral flag>
0

> <version>
0

> <s_m_source_file>
/data/baiqing/PycharmProjects/Reinvent-master-3.2/result/LINK_invent/BTK/process_docking_weight1_custom_product_contain_oxygen_bond_distance_aromatic_linkinvent_7_9_3/rearranged_h_0110.sdf

> <i_m_source_file_index>
5

> <r_mmod_Potential_Energy-OPLS-2005>
22589.4765625

> <r_mmod_Stretch_Energy-OPLS-2005>
14581.6591796875

> <r_mmod_Bend_Energy-OPLS-2005>
1619.26904296875

> <r_mmod_Torsional_Energy-OPLS-2005>
481.534362792969

> <r_mmod_Improper_Torsional_Energy-OPLS-2005>
59.53564453125

> <r_mmod_Van_der_Waal_Energy-OPLS-2005>
4636.06787109375

> <r_mmod_Electrostatic_Energy-OPLS-2005>
-498.681854248047

> <r_mmod_Solvation_Energy-OPLS-2005>
-590.848876953125

> <b_mmod_Minimization_Converged-OPLS-2005>
0

> <r_mmod_RMS_Derivative-OPLS-2005>
5.2091121673584

$$$$
6
                    3D
 Structure written by MMmdl.
156164  0  0  1  0            999 V2000
  -30.5940  -14.6455   20.5603 C   0  0  0  0  0  0
  -30.4546  -12.4258   19.4370 C   0  0  0  0  0  0
  -29.5068  -12.5664   18.2236 C   0  0  0  0  0  0
  -28.0274  -12.3783   18.6250 C   0  0  0  0  0  0
  -27.6581  -13.1977   19.8866 C   0  0  2  0  0  0
  -28.7075  -12.9333   20.9855 C   0  0  0  0  0  0
  -25.2541  -13.8091   20.5658 C   0  0  0  0  0  0
  -24.1802  -13.0370   20.9141 C   0  0  0  0  0  0
  -24.6379  -11.6830   20.8744 C   0  0  0  0  0  0
  -23.9051  -10.4216   21.0425 C   0  0  0  0  0  0
  -24.3554   -9.4104   21.9222 C   0  0  0  0  0  0
  -23.6196   -8.2158   22.0765 C   0  0  0  0  0  0
  -22.4196   -8.0235   21.3534 C   0  0  0  0  0  0
  -21.9861   -9.0224   20.4638 C   0  0  0  0  0  0
  -22.7226  -10.2071   20.3063 C   0  0  0  0  0  0
  -21.6805   -6.0714   22.5268 C   0  0  0  0  0  0
  -21.3981   -6.5634   23.8196 C   0  0  0  0  0  0
  -21.3653   -5.6794   24.9159 C   0  0  0  0  0  0
  -21.6031   -4.3053   24.7218 C   0  0  0  0  0  0
  -21.8801   -3.8137   23.4348 C   0  0  0  0  0  0
  -21.9157   -4.6942   22.3400 C   0  0  0  0  0  0
  -22.7809  -13.5147   21.1812 C   0  0  0  0  0  0
  -22.1630   -4.2124   21.0977 F   0  0  0  0  0  0
  -21.5659   -3.4543   25.7747 F   0  0  0  0  0  0
  -30.0097  -13.3951   20.4655 N   0  0  0  0  0  0
  -26.2995  -12.9247   20.3420 N   0  0  0  0  0  0
  -25.9292  -11.6424   20.5764 N   0  0  0  0  0  0
  -22.0470  -12.8139   22.0402 N   0  0  0  0  0  0
  -25.4244  -15.1800   20.4012 N   0  0  0  0  0  0
  -31.7238  -14.8437   20.0985 O   0  0  0  0  0  0
  -21.6550   -6.8845   21.4230 O   0  0  0  0  0  0
  -22.3477  -14.5466   20.6678 O   0  0  0  0  0  0
  -24.6207  -31.8610   23.2033 C   0  0  0  0  0  0
  -25.9066  -32.4801   23.8349 C   0  0  1  0  0  0
  -27.2476  -27.3325   20.1217 C   0  0  0  0  0  0
  -25.5881  -33.8597   24.2270 N   0  0  0  0  0  0
  -23.4164  -30.4839   21.5442 C   0  0  2  0  0  0
  -24.8720  -28.9331   20.1190 C   0  0  0  0  0  0
  -22.7416  -29.4636   22.4905 C   0  0  0  0  0  0
  -18.0259  -28.1377   22.8451 C   0  0  0  0  0  0
  -24.1480  -36.7314   23.2636 C   0  0  0  0  0  0
  -25.9558  -30.7968   21.3744 C   0  0  0  0  0  0
  -26.0385  -29.4225   20.7210 C   0  0  0  0  0  0
  -27.2291  -28.6342   20.7125 C   0  0  0  0  0  0
  -26.0551  -26.8953   19.5002 C   0  0  0  0  0  0
  -24.8826  -27.6732   19.5011 C   0  0  0  0  0  0
  -23.6349  -29.8099   20.1635 C   0  0  0  0  0  0
  -25.4118  -36.3109   24.0313 C   0  0  1  0  0  0
  -20.5847  -28.3705   23.1261 C   0  0  2  0  0  0
  -20.6754  -26.9431   22.5408 C   0  0  0  0  0  0
  -19.5795  -26.6393   21.5159 C   0  0  0  0  0  0
  -18.1942  -26.7934   22.1543 C   0  0  0  0  0  0
  -19.1512  -28.8843   23.2865 C   0  0  0  0  0  0
  -18.9451  -30.1415   23.8935 C   0  0  0  0  0  0
  -17.6478  -30.6605   24.0546 C   0  0  0  0  0  0
  -25.9050  -34.9464   23.5109 C   0  0  0  0  0  0
  -16.5352  -29.9112   23.6313 C   0  0  0  0  0  0
  -16.7257  -28.6494   23.0376 C   0  0  0  0  0  0
  -26.4471  -31.6603   25.0713 C   0  0  0  0  0  0
  -25.3662  -31.3717   26.1384 C   0  0  0  0  0  0
  -27.0343  -30.3020   24.6209 C   0  0  0  0  0  0
  -27.6032  -32.4324   25.7491 C   0  0  0  0  0  0
  -27.5599  -37.1810   24.8439 C   0  0  0  0  0  0
  -21.4129  -29.3057   22.3637 N   0  0  0  0  0  0
  -26.4303  -37.3810   23.9399 N   0  0  0  0  0  0
  -24.6823  -31.0617   22.0987 N   0  0  0  0  0  0
  -23.4117  -28.8176   23.3004 O   0  0  0  0  0  0
  -28.3850  -26.5088   20.1365 O   0  0  0  0  0  0
  -26.5667  -34.8931   22.4698 O   0  0  0  0  0  0
  -23.5375  -32.1395   23.7360 O   0  0  0  0  0  0
  -29.7658  -19.2874   19.2368 C   0  0  0  0  0  0
  -30.3160  -19.6807   21.5354 C   0  0  0  0  0  0
  -30.0111  -17.3224   20.7484 C   0  0  0  0  0  0
  -29.7302  -17.8667   19.4523 C   0  0  0  0  0  0
  -30.0207  -20.2327   20.2652 C   0  0  0  0  0  0
  -30.3226  -18.2759   21.7656 C   0  0  0  0  0  0
  -29.3212  -22.5768   20.3841 C   0  0  0  0  0  0
  -29.7488  -15.8595   21.1500 C   0  0  0  0  0  0
  -29.4135  -24.1141   20.0743 C   0  0  0  0  0  0
  -28.8396  -17.6125   17.0145 C   0  0  0  0  0  0
  -29.3331  -16.9268   18.2993 C   0  0  0  0  0  0
  -28.1800  -25.0527   20.3582 C   0  0  0  0  0  0
  -28.8011  -15.7012   21.9784 N   0  0  0  0  0  0
  -30.1209  -21.6341   19.9661 N   0  0  0  0  0  0
  -30.4434  -24.6001   19.5864 O   0  0  0  0  0  0
  -30.5900  -17.8474   23.0245 F   0  0  0  0  0  0
  -31.4854  -12.5890   19.1240 H   0  0  0  0  0  0
  -30.4277  -11.4109   19.8333 H   0  0  0  0  0  0
  -29.7794  -11.8638   17.4340 H   0  0  0  0  0  0
  -29.6285  -13.5666   17.8028 H   0  0  0  0  0  0
  -27.8606  -11.3165   18.8155 H   0  0  0  0  0  0
  -27.3746  -12.6495   17.7965 H   0  0  0  0  0  0
  -27.7038  -14.2505   19.6117 H   0  0  0  0  0  0
  -28.7401  -11.8626   21.1894 H   0  0  0  0  0  0
  -28.4313  -13.3449   21.9517 H   0  0  0  0  0  0
  -25.2661   -9.5535   22.4860 H   0  0  0  0  0  0
  -23.9849   -7.4526   22.7479 H   0  0  0  0  0  0
  -21.0807   -8.8787   19.8927 H   0  0  0  0  0  0
  -22.3726  -10.9642   19.6189 H   0  0  0  0  0  0
  -21.1982   -7.6132   23.9698 H   0  0  0  0  0  0
  -21.1530   -6.0539   25.9072 H   0  0  0  0  0  0
  -22.0600   -2.7608   23.2876 H   0  0  0  0  0  0
  -22.4038  -11.9748   22.4747 H   0  0  0  0  0  0
  -21.1137  -13.1231   22.2683 H   0  0  0  0  0  0
  -24.6717  -15.8481   20.5265 H   0  0  0  0  0  0
  -26.2963  -15.6121   20.1262 H   0  0  0  0  0  0
  -26.7126  -32.5511   23.1092 H   0  0  0  0  0  0
  -24.9922  -33.9729   25.0335 H   0  0  0  0  0  0
  -22.7088  -31.3024   21.3967 H   0  0  0  0  0  0
  -23.3774  -35.9613   23.3243 H   0  0  0  0  0  0
  -24.3570  -36.9014   22.2068 H   0  0  0  0  0  0
  -23.7170  -37.6459   23.6725 H   0  0  0  0  0  0
  -26.0770  -31.5607   20.6054 H   0  0  0  0  0  0
  -26.8360  -30.8537   22.0029 H   0  0  0  0  0  0
  -28.1244  -29.0098   21.1891 H   0  0  0  0  0  0
  -26.0107  -25.9446   18.9931 H   0  0  0  0  0  0
  -23.9916  -27.2899   19.0224 H   0  0  0  0  0  0
  -23.7479  -30.5826   19.4024 H   0  0  0  0  0  0
  -22.7571  -29.2322   19.8698 H   0  0  0  0  0  0
  -25.1292  -36.1993   25.0809 H   0  0  0  0  0  0
  -20.9940  -28.3339   24.1383 H   0  0  0  0  0  0
  -20.5607  -26.2327   23.3606 H   0  0  0  0  0  0
  -21.6660  -26.7466   22.1283 H   0  0  0  0  0  0
  -19.6992  -25.6292   21.1240 H   0  0  0  0  0  0
  -19.6784  -27.3140   20.6649 H   0  0  0  0  0  0
  -17.4230  -26.6635   21.3928 H   0  0  0  0  0  0
  -18.0365  -26.0044   22.8908 H   0  0  0  0  0  0
  -19.7936  -30.7154   24.2390 H   0  0  0  0  0  0
  -17.5062  -31.6304   24.5132 H   0  0  0  0  0  0
  -15.5362  -30.3066   23.7626 H   0  0  0  0  0  0
  -15.8615  -28.0829   22.7172 H   0  0  0  0  0  0
  -24.5952  -30.6946   25.7667 H   0  0  0  0  0  0
  -24.8702  -32.2856   26.4670 H   0  0  0  0  0  0
  -25.7944  -30.9009   27.0232 H   0  0  0  0  0  0
  -26.2958  -29.6734   24.1219 H   0  0  0  0  0  0
  -27.3969  -29.7325   25.4769 H   0  0  0  0  0  0
  -27.8842  -30.4270   23.9492 H   0  0  0  0  0  0
  -27.2697  -33.3638   26.2072 H   0  0  0  0  0  0
  -28.3876  -32.6833   25.0340 H   0  0  0  0  0  0
  -28.0669  -31.8423   26.5408 H   0  0  0  0  0  0
  -28.2587  -38.0142   24.7589 H   0  0  0  0  0  0
  -28.1129  -36.2678   24.6170 H   0  0  0  0  0  0
  -27.2317  -37.1362   25.8836 H   0  0  0  0  0  0
  -20.9266  -29.8767   21.6856 H   0  0  0  0  0  0
  -26.0193  -38.2874   24.1461 H   0  0  0  0  0  0
  -29.5754  -19.6853   18.2535 H   0  0  0  0  0  0
  -30.5580  -20.3310   22.3644 H   0  0  0  0  0  0
  -28.4819  -22.3037   21.0276 H   0  0  0  0  0  0
  -28.5011  -16.8807   16.2795 H   0  0  0  0  0  0
  -29.6308  -18.1959   16.5428 H   0  0  0  0  0  0
  -27.9995  -18.2730   17.2248 H   0  0  0  0  0  0
  -28.5381  -16.2591   18.6348 H   0  0  0  0  0  0
  -30.1777  -16.2822   18.0557 H   0  0  0  0  0  0
  -27.8702  -24.8954   21.3912 H   0  0  0  0  0  0
  -27.3779  -24.6719   19.7307 H   0  0  0  0  0  0
  -28.3810  -16.5856   22.2387 H   0  0  0  0  0  0
  1 25  1  0  0  0
  1 30  2  0  0  0
  1 78  1  0  0  0
  2  3  1  0  0  0
  2 25  1  0  0  0
  2 87  1  0  0  0
  2 88  1  0  0  0
  3  4  1  0  0  0
  3 89  1  0  0  0
  3 90  1  0  0  0
  4  5  1  0  0  0
  4 91  1  0  0  0
  4 92  1  0  0  0
  5  6  1  0  0  0
  5 26  1  0  0  0
  5 93  1  0  0  0
  6 25  1  0  0  0
  6 94  1  0  0  0
  6 95  1  0  0  0
  7  8  2  0  0  0
  7 26  1  0  0  0
  7 29  1  0  0  0
  8  9  1  0  0  0
  8 22  1  0  0  0
  9 10  1  0  0  0
  9 27  2  0  0  0
 10 11  2  0  0  0
 10 15  1  0  0  0
 11 12  1  0  0  0
 11 96  1  0  0  0
 12 13  2  0  0  0
 12 97  1  0  0  0
 13 14  1  0  0  0
 13 31  1  0  0  0
 14 15  2  0  0  0
 14 98  1  0  0  0
 15 99  1  0  0  0
 16 17  2  0  0  0
 16 21  1  0  0  0
 16 31  1  0  0  0
 17 18  1  0  0  0
 17100  1  0  0  0
 18 19  2  0  0  0
 18101  1  0  0  0
 19 20  1  0  0  0
 19 24  1  0  0  0
 20 21  2  0  0  0
 20102  1  0  0  0
 21 23  1  0  0  0
 22 28  1  0  0  0
 22 32  2  0  0  0
 26 27  1  0  0  0
 28103  1  0  0  0
 28104  1  0  0  0
 29105  1  0  0  0
 29106  1  0  0  0
 33 34  1  0  0  0
 33 66  1  0  0  0
 33 70  2  0  0  0
 34 36  1  0  0  0
 34 59  1  0  0  0
 34107  1  0  0  0
 35 44  2  0  0  0
 35 45  1  0  0  0
 35 68  1  0  0  0
 36 56  1  0  0  0
 36108  1  0  0  0
 37 39  1  0  0  0
 37 47  1  0  0  0
 37 66  1  0  0  0
 37109  1  0  0  0
 38 43  2  0  0  0
 38 46  1  0  0  0
 38 47  1  0  0  0
 39 64  1  0  0  0
 39 67  2  0  0  0
 40 52  1  0  0  0
 40 53  2  0  0  0
 40 58  1  0  0  0
 41110  1  0  0  0
 41111  1  0  0  0
 41112  1  0  0  0
 41 48  1  0  0  0
 42 43  1  0  0  0
 42 66  1  0  0  0
 42113  1  0  0  0
 42114  1  0  0  0
 43 44  1  0  0  0
 44115  1  0  0  0
 45 46  2  0  0  0
 45116  1  0  0  0
 46117  1  0  0  0
 47118  1  0  0  0
 47119  1  0  0  0
 48 56  1  0  0  0
 48 65  1  0  0  0
 48120  1  0  0  0
 49 50  1  0  0  0
 49 53  1  0  0  0
 49 64  1  0  0  0
 49121  1  0  0  0
 50 51  1  0  0  0
 50122  1  0  0  0
 50123  1  0  0  0
 51 52  1  0  0  0
 51124  1  0  0  0
 51125  1  0  0  0
 52126  1  0  0  0
 52127  1  0  0  0
 53 54  1  0  0  0
 54 55  2  0  0  0
 54128  1  0  0  0
 55 57  1  0  0  0
 55129  1  0  0  0
 56 69  2  0  0  0
 57 58  2  0  0  0
 57130  1  0  0  0
 58131  1  0  0  0
 59 60  1  0  0  0
 59 61  1  0  0  0
 59 62  1  0  0  0
 60132  1  0  0  0
 60133  1  0  0  0
 60134  1  0  0  0
 61135  1  0  0  0
 61136  1  0  0  0
 61137  1  0  0  0
 62138  1  0  0  0
 62139  1  0  0  0
 62140  1  0  0  0
 63 65  1  0  0  0
 63141  1  0  0  0
 63142  1  0  0  0
 63143  1  0  0  0
 64144  1  0  0  0
 65145  1  0  0  0
 68 82  1  0  0  0
 71 74  2  0  0  0
 71 75  1  0  0  0
 71146  1  0  0  0
 72 75  2  0  0  0
 72 76  1  0  0  0
 72147  1  0  0  0
 73 74  1  0  0  0
 73 76  2  0  0  0
 73 78  1  0  0  0
 74 81  1  0  0  0
 75 84  1  0  0  0
 76 86  1  0  0  0
 77 79  1  0  0  0
 77 84  2  0  0  0
 77148  1  0  0  0
 78 83  2  0  0  0
 79 82  1  0  0  0
 79 85  2  0  0  0
 80 81  1  0  0  0
 80149  1  0  0  0
 80150  1  0  0  0
 80151  1  0  0  0
 81152  1  0  0  0
 81153  1  0  0  0
 82154  1  0  0  0
 82155  1  0  0  0
 83156  1  0  0  0
M  ISO  4   1 100  68 101  78 100  82 101
M  END
> <chiral flag>
0

> <version>
0

> <s_m_source_file>
/data/baiqing/PycharmProjects/Reinvent-master-3.2/result/LINK_invent/BTK/process_docking_weight1_custom_product_contain_oxygen_bond_distance_aromatic_linkinvent_7_9_3/rearranged_h_0110.sdf

> <i_m_source_file_index>
6

> <r_mmod_Potential_Energy-OPLS-2005>
298.323303222656

> <r_mmod_Stretch_Energy-OPLS-2005>
97.5870590209961

> <r_mmod_Bend_Energy-OPLS-2005>
150.631301879883

> <r_mmod_Torsional_Energy-OPLS-2005>
227.513397216797

> <r_mmod_Improper_Torsional_Energy-OPLS-2005>
5.05094957351685

> <r_mmod_Van_der_Waal_Energy-OPLS-2005>
154.760391235352

> <r_mmod_Electrostatic_Energy-OPLS-2005>
-151.363021850586

> <r_mmod_Solvation_Energy-OPLS-2005>
-229.681335449219

> <b_mmod_Minimization_Converged-OPLS-2005>
0

> <r_mmod_RMS_Derivative-OPLS-2005>
4.54089975357056

$$$$
7
                    3D
 Structure written by MMmdl.
165174  0  0  1  0            999 V2000
  -30.5193  -14.9314   20.4334 C   0  0  0  0  0  0
  -30.4541  -12.5757   19.5027 C   0  0  0  0  0  0
  -29.5313  -12.5407   18.2602 C   0  0  0  0  0  0
  -28.0629  -12.3252   18.6751 C   0  0  0  0  0  0
  -27.6399  -13.2438   19.8506 C   0  0  2  0  0  0
  -28.6822  -13.2362   20.9911 C   0  0  0  0  0  0
  -25.2512  -13.8205   20.5746 C   0  0  0  0  0  0
  -24.1803  -13.0436   20.9216 C   0  0  0  0  0  0
  -24.6394  -11.6917   20.8722 C   0  0  0  0  0  0
  -23.9060  -10.4301   21.0398 C   0  0  0  0  0  0
  -24.3612   -9.4220   21.9180 C   0  0  0  0  0  0
  -23.6287   -8.2256   22.0757 C   0  0  0  0  0  0
  -22.4273   -8.0284   21.3548 C   0  0  0  0  0  0
  -21.9903   -9.0255   20.4657 C   0  0  0  0  0  0
  -22.7227  -10.2138   20.3059 C   0  0  0  0  0  0
  -21.6849   -6.0733   22.5278 C   0  0  0  0  0  0
  -21.4018   -6.5637   23.8211 C   0  0  0  0  0  0
  -21.3666   -5.6786   24.9167 C   0  0  0  0  0  0
  -21.6040   -4.3047   24.7221 C   0  0  0  0  0  0
  -21.8820   -3.8141   23.4339 C   0  0  0  0  0  0
  -21.9199   -4.6960   22.3394 C   0  0  0  0  0  0
  -22.7825  -13.5229   21.1868 C   0  0  0  0  0  0
  -22.1664   -4.2146   21.0971 F   0  0  0  0  0  0
  -21.5633   -3.4529   25.7732 F   0  0  0  0  0  0
  -29.9662  -13.6525   20.4101 N   0  0  0  0  0  0
  -26.2943  -12.9424   20.3282 N   0  0  0  0  0  0
  -25.9336  -11.6560   20.5726 N   0  0  0  0  0  0
  -22.0452  -12.8233   22.0419 N   0  0  0  0  0  0
  -25.4171  -15.1935   20.4270 N   0  0  0  0  0  0
  -31.6974  -15.0520   20.0848 O   0  0  0  0  0  0
  -21.6636   -6.8879   21.4245 O   0  0  0  0  0  0
  -22.3510  -14.5526   20.6695 O   0  0  0  0  0  0
  -24.6450  -31.8436   23.1884 C   0  0  0  0  0  0
  -25.9233  -32.4681   23.8269 C   0  0  1  0  0  0
  -27.2132  -27.1265   20.1484 C   0  0  0  0  0  0
  -25.6000  -33.8487   24.2199 N   0  0  0  0  0  0
  -23.4478  -30.4647   21.5306 C   0  0  2  0  0  0
  -24.8997  -28.8959   20.1011 C   0  0  0  0  0  0
  -22.7578  -29.4546   22.4816 C   0  0  0  0  0  0
  -18.0309  -28.1434   22.8482 C   0  0  0  0  0  0
  -24.1478  -36.7248   23.2630 C   0  0  0  0  0  0
  -26.0036  -30.7107   21.3931 C   0  0  0  0  0  0
  -26.0719  -29.3207   20.7372 C   0  0  0  0  0  0
  -27.2262  -28.4485   20.7530 C   0  0  0  0  0  0
  -26.0244  -26.8241   19.4440 C   0  0  0  0  0  0
  -24.8908  -27.6641   19.4340 C   0  0  0  0  0  0
  -23.6756  -29.7979   20.1467 C   0  0  0  0  0  0
  -25.4108  -36.3016   24.0310 C   0  0  1  0  0  0
  -20.5924  -28.3751   23.1232 C   0  0  2  0  0  0
  -20.6785  -26.9453   22.5408 C   0  0  0  0  0  0
  -19.5754  -26.6401   21.5223 C   0  0  0  0  0  0
  -18.1937  -26.7978   22.1629 C   0  0  0  0  0  0
  -19.1572  -28.8904   23.2855 C   0  0  0  0  0  0
  -18.9492  -30.1499   23.8873 C   0  0  0  0  0  0
  -17.6490  -30.6621   24.0556 C   0  0  0  0  0  0
  -25.9064  -34.9392   23.5049 C   0  0  0  0  0  0
  -16.5373  -29.9115   23.6348 C   0  0  0  0  0  0
  -16.7298  -28.6537   23.0372 C   0  0  0  0  0  0
  -26.4549  -31.6571   25.0728 C   0  0  0  0  0  0
  -25.3743  -31.3901   26.1471 C   0  0  0  0  0  0
  -27.0312  -30.2899   24.6355 C   0  0  0  0  0  0
  -27.6130  -32.4287   25.7489 C   0  0  0  0  0  0
  -27.5569  -37.1778   24.8459 C   0  0  0  0  0  0
  -21.4260  -29.3078   22.3597 N   0  0  0  0  0  0
  -26.4268  -37.3742   23.9415 N   0  0  0  0  0  0
  -24.7175  -31.0297   22.0911 N   0  0  0  0  0  0
  -23.4216  -28.8068   23.2956 O   0  0  0  0  0  0
  -28.2449  -26.1173   20.2530 O   0  0  0  0  0  0
  -26.5615  -34.8892   22.4599 O   0  0  0  0  0  0
  -23.5577  -32.1313   23.7124 O   0  0  0  0  0  0
  -29.6566  -19.7210   19.2510 C   0  0  0  0  0  0
  -28.8835  -19.8835   21.4800 C   0  0  0  0  0  0
  -29.1138  -20.6095   20.2497 C   0  0  0  0  0  0
  -29.1501  -18.4427   21.6344 C   0  0  0  0  0  0
  -29.6654  -17.5657   20.6028 C   0  0  0  0  0  0
  -29.9114  -18.2927   19.3962 C   0  0  0  0  0  0
  -27.7254  -17.2734   23.2467 C   0  0  0  0  0  0
  -28.7279  -23.2473   20.4222 C   0  0  0  0  0  0
  -27.9103  -16.2743   24.3772 C   0  0  0  0  0  0
  -29.4324  -16.1217   24.4555 C   0  0  0  0  0  0
  -29.9891  -17.3551   23.7349 C   0  0  0  0  0  0
  -28.2698  -20.6241   22.6654 C   0  0  0  0  0  0
  -29.3689  -17.2892   17.3537 C   0  0  0  0  0  0
  -27.9837  -24.6307   19.8492 C   0  0  0  0  0  0
  -28.6900  -22.0092   19.8722 N   0  0  0  0  0  0
  -28.8984  -17.8219   22.8896 N   0  0  0  0  0  0
  -29.6888  -16.0342   20.7553 N   0  0  0  0  0  0
  -26.6235  -17.5206   22.7519 O   0  0  0  0  0  0
  -30.3726  -17.5860   18.3154 O   0  0  0  0  0  0
  -31.4862  -12.7455   19.1906 H   0  0  0  0  0  0
  -30.4522  -11.6121   20.0137 H   0  0  0  0  0  0
  -29.8486  -11.7549   17.5727 H   0  0  0  0  0  0
  -29.6230  -13.4813   17.7129 H   0  0  0  0  0  0
  -27.9573  -11.2812   18.9730 H   0  0  0  0  0  0
  -27.3988  -12.4706   17.8216 H   0  0  0  0  0  0
  -27.6135  -14.2538   19.4418 H   0  0  0  0  0  0
  -28.7651  -12.2480   21.4441 H   0  0  0  0  0  0
  -28.3788  -13.9127   21.7913 H   0  0  0  0  0  0
  -25.2762   -9.5695   22.4746 H   0  0  0  0  0  0
  -23.9996   -7.4651   22.7484 H   0  0  0  0  0  0
  -21.0826   -8.8770   19.8973 H   0  0  0  0  0  0
  -22.3678  -10.9666   19.6165 H   0  0  0  0  0  0
  -21.2008   -7.6148   23.9702 H   0  0  0  0  0  0
  -21.1487   -6.0519   25.9067 H   0  0  0  0  0  0
  -22.0593   -2.7606   23.2825 H   0  0  0  0  0  0
  -22.4018  -11.9872   22.4804 H   0  0  0  0  0  0
  -21.1095  -13.1316   22.2644 H   0  0  0  0  0  0
  -24.6657  -15.8447   20.6281 H   0  0  0  0  0  0
  -26.2744  -15.6579   20.1584 H   0  0  0  0  0  0
  -26.7296  -32.5275   23.1001 H   0  0  0  0  0  0
  -25.0219  -33.9598   25.0396 H   0  0  0  0  0  0
  -22.7513  -31.2916   21.3800 H   0  0  0  0  0  0
  -23.3759  -35.9556   23.3221 H   0  0  0  0  0  0
  -24.3593  -36.8950   22.2064 H   0  0  0  0  0  0
  -23.7198  -37.6409   23.6703 H   0  0  0  0  0  0
  -26.1639  -31.4606   20.6173 H   0  0  0  0  0  0
  -26.8725  -30.7606   22.0368 H   0  0  0  0  0  0
  -28.1101  -28.7606   21.2915 H   0  0  0  0  0  0
  -25.9276  -25.8973   18.9008 H   0  0  0  0  0  0
  -24.0072  -27.3497   18.8956 H   0  0  0  0  0  0
  -23.8108  -30.5718   19.3903 H   0  0  0  0  0  0
  -22.7911  -29.2388   19.8370 H   0  0  0  0  0  0
  -25.1297  -36.1821   25.0803 H   0  0  0  0  0  0
  -21.0052  -28.3351   24.1338 H   0  0  0  0  0  0
  -20.5693  -26.2362   23.3630 H   0  0  0  0  0  0
  -21.6648  -26.7461   22.1201 H   0  0  0  0  0  0
  -19.6895  -25.6300   21.1285 H   0  0  0  0  0  0
  -19.6699  -27.3168   20.6716 H   0  0  0  0  0  0
  -17.4219  -26.6757   21.4018 H   0  0  0  0  0  0
  -18.0315  -26.0134   22.9038 H   0  0  0  0  0  0
  -19.7957  -30.7341   24.2226 H   0  0  0  0  0  0
  -17.5036  -31.6298   24.5166 H   0  0  0  0  0  0
  -15.5370  -30.3012   23.7686 H   0  0  0  0  0  0
  -15.8704  -28.0840   22.7108 H   0  0  0  0  0  0
  -24.5805  -30.7364   25.7861 H   0  0  0  0  0  0
  -24.9093  -32.3162   26.4855 H   0  0  0  0  0  0
  -25.8018  -30.9092   27.0277 H   0  0  0  0  0  0
  -26.2879  -29.6679   24.1351 H   0  0  0  0  0  0
  -27.3824  -29.7187   25.4964 H   0  0  0  0  0  0
  -27.8881  -30.4032   23.9703 H   0  0  0  0  0  0
  -27.2822  -33.3719   26.1850 H   0  0  0  0  0  0
  -28.4078  -32.6598   25.0382 H   0  0  0  0  0  0
  -28.0604  -31.8494   26.5582 H   0  0  0  0  0  0
  -28.2583  -38.0076   24.7492 H   0  0  0  0  0  0
  -28.1062  -36.2605   24.6281 H   0  0  0  0  0  0
  -27.2299  -37.1440   25.8867 H   0  0  0  0  0  0
  -20.9453  -29.8831   21.6824 H   0  0  0  0  0  0
  -26.0122  -38.2796   24.1447 H   0  0  0  0  0  0
  -29.8549  -20.1453   18.2777 H   0  0  0  0  0  0
  -29.2360  -23.4145   21.3752 H   0  0  0  0  0  0
  -27.4180  -15.3269   24.1524 H   0  0  0  0  0  0
  -27.4959  -16.6786   25.3012 H   0  0  0  0  0  0
  -29.7384  -15.2157   23.9291 H   0  0  0  0  0  0
  -29.7929  -16.0412   25.4809 H   0  0  0  0  0  0
  -30.8911  -17.1252   23.1659 H   0  0  0  0  0  0
  -30.2389  -18.1408   24.4503 H   0  0  0  0  0  0
  -28.2238  -21.7004   22.5339 H   0  0  0  0  0  0
  -28.8488  -20.4491   23.5714 H   0  0  0  0  0  0
  -27.2489  -20.2826   22.8387 H   0  0  0  0  0  0
  -29.8343  -16.8924   16.4503 H   0  0  0  0  0  0
  -28.7949  -18.1722   17.0685 H   0  0  0  0  0  0
  -28.6770  -16.5335   17.7313 H   0  0  0  0  0  0
  -26.9318  -24.4335   20.0520 H   0  0  0  0  0  0
  -28.0820  -24.5998   18.7636 H   0  0  0  0  0  0
  -28.8398  -15.6908   21.1736 H   0  0  0  0  0  0
  1 25  1  0  0  0
  1 30  2  0  0  0
  1 87  1  0  0  0
  2  3  1  0  0  0
  2 25  1  0  0  0
  2 90  1  0  0  0
  2 91  1  0  0  0
  3  4  1  0  0  0
  3 92  1  0  0  0
  3 93  1  0  0  0
  4  5  1  0  0  0
  4 94  1  0  0  0
  4 95  1  0  0  0
  5  6  1  0  0  0
  5 26  1  0  0  0
  5 96  1  0  0  0
  6 25  1  0  0  0
  6 97  1  0  0  0
  6 98  1  0  0  0
  7  8  2  0  0  0
  7 26  1  0  0  0
  7 29  1  0  0  0
  8  9  1  0  0  0
  8 22  1  0  0  0
  9 10  1  0  0  0
  9 27  2  0  0  0
 10 11  2  0  0  0
 10 15  1  0  0  0
 11 12  1  0  0  0
 11 99  1  0  0  0
 12 13  2  0  0  0
 12100  1  0  0  0
 13 14  1  0  0  0
 13 31  1  0  0  0
 14 15  2  0  0  0
 14101  1  0  0  0
 15102  1  0  0  0
 16 17  2  0  0  0
 16 21  1  0  0  0
 16 31  1  0  0  0
 17 18  1  0  0  0
 17103  1  0  0  0
 18 19  2  0  0  0
 18104  1  0  0  0
 19 20  1  0  0  0
 19 24  1  0  0  0
 20 21  2  0  0  0
 20105  1  0  0  0
 21 23  1  0  0  0
 22 28  1  0  0  0
 22 32  2  0  0  0
 26 27  1  0  0  0
 28106  1  0  0  0
 28107  1  0  0  0
 29108  1  0  0  0
 29109  1  0  0  0
 33 34  1  0  0  0
 33 66  1  0  0  0
 33 70  2  0  0  0
 34 36  1  0  0  0
 34 59  1  0  0  0
 34110  1  0  0  0
 35 44  2  0  0  0
 35 45  1  0  0  0
 35 68  1  0  0  0
 36 56  1  0  0  0
 36111  1  0  0  0
 37 39  1  0  0  0
 37 47  1  0  0  0
 37 66  1  0  0  0
 37112  1  0  0  0
 38 43  2  0  0  0
 38 46  1  0  0  0
 38 47  1  0  0  0
 39 64  1  0  0  0
 39 67  2  0  0  0
 40 52  1  0  0  0
 40 53  2  0  0  0
 40 58  1  0  0  0
 41113  1  0  0  0
 41114  1  0  0  0
 41115  1  0  0  0
 41 48  1  0  0  0
 42 43  1  0  0  0
 42 66  1  0  0  0
 42116  1  0  0  0
 42117  1  0  0  0
 43 44  1  0  0  0
 44118  1  0  0  0
 45 46  2  0  0  0
 45119  1  0  0  0
 46120  1  0  0  0
 47121  1  0  0  0
 47122  1  0  0  0
 48 56  1  0  0  0
 48 65  1  0  0  0
 48123  1  0  0  0
 49 50  1  0  0  0
 49 53  1  0  0  0
 49 64  1  0  0  0
 49124  1  0  0  0
 50 51  1  0  0  0
 50125  1  0  0  0
 50126  1  0  0  0
 51 52  1  0  0  0
 51127  1  0  0  0
 51128  1  0  0  0
 52129  1  0  0  0
 52130  1  0  0  0
 53 54  1  0  0  0
 54 55  2  0  0  0
 54131  1  0  0  0
 55 57  1  0  0  0
 55132  1  0  0  0
 56 69  2  0  0  0
 57 58  2  0  0  0
 57133  1  0  0  0
 58134  1  0  0  0
 59 60  1  0  0  0
 59 61  1  0  0  0
 59 62  1  0  0  0
 60135  1  0  0  0
 60136  1  0  0  0
 60137  1  0  0  0
 61138  1  0  0  0
 61139  1  0  0  0
 61140  1  0  0  0
 62141  1  0  0  0
 62142  1  0  0  0
 62143  1  0  0  0
 63 65  1  0  0  0
 63144  1  0  0  0
 63145  1  0  0  0
 63146  1  0  0  0
 64147  1  0  0  0
 65148  1  0  0  0
 68 84  1  0  0  0
 71 73  2  0  0  0
 71 76  1  0  0  0
 71149  1  0  0  0
 72 73  1  0  0  0
 72 74  2  0  0  0
 72 82  1  0  0  0
 73 85  1  0  0  0
 74 75  1  0  0  0
 74 86  1  0  0  0
 75 76  2  0  0  0
 75 87  1  0  0  0
 76 89  1  0  0  0
 77 79  1  0  0  0
 77 86  1  0  0  0
 77 88  2  0  0  0
 78 84  1  0  0  0
 78 85  2  0  0  0
 78150  1  0  0  0
 79 80  1  0  0  0
 79151  1  0  0  0
 79152  1  0  0  0
 80 81  1  0  0  0
 80153  1  0  0  0
 80154  1  0  0  0
 81 86  1  0  0  0
 81155  1  0  0  0
 81156  1  0  0  0
 82157  1  0  0  0
 82158  1  0  0  0
 82159  1  0  0  0
 83 89  1  0  0  0
 83160  1  0  0  0
 83161  1  0  0  0
 83162  1  0  0  0
 84163  1  0  0  0
 84164  1  0  0  0
 87165  1  0  0  0
M  ISO  4   1 100  68 101  84 101  87 100
M  END
> <chiral flag>
0

> <version>
0

> <s_m_source_file>
/data/baiqing/PycharmProjects/Reinvent-master-3.2/result/LINK_invent/BTK/process_docking_weight1_custom_product_contain_oxygen_bond_distance_aromatic_linkinvent_7_9_3/rearranged_h_0110.sdf

> <i_m_source_file_index>
7

> <r_mmod_Potential_Energy-OPLS-2005>
570.049621582031

> <r_mmod_Stretch_Energy-OPLS-2005>
244.194778442383

> <r_mmod_Bend_Energy-OPLS-2005>
299.97900390625

> <r_mmod_Torsional_Energy-OPLS-2005>
359.45068359375

> <r_mmod_Improper_Torsional_Energy-OPLS-2005>
6.06163692474365

> <r_mmod_Van_der_Waal_Energy-OPLS-2005>
118.270935058594

> <r_mmod_Electrostatic_Energy-OPLS-2005>
-416.520050048828

> <r_mmod_Solvation_Energy-OPLS-2005>
-236.847076416016

> <b_mmod_Minimization_Converged-OPLS-2005>
0

> <r_mmod_RMS_Derivative-OPLS-2005>
2.69839787483215

$$$$
8
                    3D
 Structure written by MMmdl.
164173  0  0  1  0            999 V2000
  -30.6203  -14.6348   20.5167 C   0  0  0  0  0  0
  -30.4409  -12.3911   19.4542 C   0  0  0  0  0  0
  -29.5097  -12.5156   18.2276 C   0  0  0  0  0  0
  -28.0319  -12.3519   18.6374 C   0  0  0  0  0  0
  -27.6575  -13.2158   19.8703 C   0  0  2  0  0  0
  -28.7012  -13.0540   20.9993 C   0  0  0  0  0  0
  -25.2571  -13.8168   20.5697 C   0  0  0  0  0  0
  -24.1829  -13.0437   20.9184 C   0  0  0  0  0  0
  -24.6391  -11.6905   20.8724 C   0  0  0  0  0  0
  -23.9055  -10.4289   21.0392 C   0  0  0  0  0  0
  -24.3608   -9.4209   21.9181 C   0  0  0  0  0  0
  -23.6287   -8.2242   22.0749 C   0  0  0  0  0  0
  -22.4269   -8.0277   21.3541 C   0  0  0  0  0  0
  -21.9901   -9.0247   20.4642 C   0  0  0  0  0  0
  -22.7225  -10.2130   20.3046 C   0  0  0  0  0  0
  -21.6855   -6.0729   22.5278 C   0  0  0  0  0  0
  -21.4010   -6.5633   23.8211 C   0  0  0  0  0  0
  -21.3662   -5.6786   24.9172 C   0  0  0  0  0  0
  -21.6042   -4.3050   24.7225 C   0  0  0  0  0  0
  -21.8823   -3.8143   23.4346 C   0  0  0  0  0  0
  -21.9193   -4.6956   22.3399 C   0  0  0  0  0  0
  -22.7847  -13.5234   21.1845 C   0  0  0  0  0  0
  -22.1667   -4.2142   21.0983 F   0  0  0  0  0  0
  -21.5625   -3.4538   25.7739 F   0  0  0  0  0  0
  -30.0195  -13.4037   20.4435 N   0  0  0  0  0  0
  -26.3008  -12.9353   20.3346 N   0  0  0  0  0  0
  -25.9325  -11.6500   20.5756 N   0  0  0  0  0  0
  -22.0483  -12.8216   22.0403 N   0  0  0  0  0  0
  -25.4284  -15.1890   20.4126 N   0  0  0  0  0  0
  -31.7563  -14.8228   20.0701 O   0  0  0  0  0  0
  -21.6636   -6.8873   21.4239 O   0  0  0  0  0  0
  -22.3531  -14.5543   20.6697 O   0  0  0  0  0  0
  -24.6253  -31.8597   23.2012 C   0  0  0  0  0  0
  -25.9097  -32.4782   23.8349 C   0  0  1  0  0  0
  -27.2290  -27.3256   20.1159 C   0  0  0  0  0  0
  -25.5911  -33.8579   24.2279 N   0  0  0  0  0  0
  -23.4195  -30.4834   21.5418 C   0  0  2  0  0  0
  -24.8666  -28.9338   20.1124 C   0  0  0  0  0  0
  -22.7474  -29.4629   22.4916 C   0  0  0  0  0  0
  -18.0295  -28.1394   22.8499 C   0  0  0  0  0  0
  -24.1479  -36.7278   23.2641 C   0  0  0  0  0  0
  -25.9592  -30.7920   21.3708 C   0  0  0  0  0  0
  -26.0337  -29.4184   20.7150 C   0  0  0  0  0  0
  -27.2184  -28.6267   20.7046 C   0  0  0  0  0  0
  -26.0370  -26.8842   19.4982 C   0  0  0  0  0  0
  -24.8690  -27.6714   19.4965 C   0  0  0  0  0  0
  -23.6346  -29.8141   20.1581 C   0  0  0  0  0  0
  -25.4103  -36.3087   24.0345 C   0  0  1  0  0  0
  -20.5896  -28.3688   23.1291 C   0  0  2  0  0  0
  -20.6772  -26.9406   22.5421 C   0  0  0  0  0  0
  -19.5744  -26.6399   21.5216 C   0  0  0  0  0  0
  -18.1924  -26.7944   22.1621 C   0  0  0  0  0  0
  -19.1551  -28.8853   23.2897 C   0  0  0  0  0  0
  -18.9472  -30.1457   23.8908 C   0  0  0  0  0  0
  -17.6471  -30.6591   24.0573 C   0  0  0  0  0  0
  -25.9044  -34.9454   23.5109 C   0  0  0  0  0  0
  -16.5362  -29.9093   23.6340 C   0  0  0  0  0  0
  -16.7286  -28.6514   23.0359 C   0  0  0  0  0  0
  -26.4471  -31.6600   25.0728 C   0  0  0  0  0  0
  -25.3700  -31.3758   26.1460 C   0  0  0  0  0  0
  -27.0310  -30.3029   24.6178 C   0  0  0  0  0  0
  -27.6038  -32.4330   25.7489 C   0  0  0  0  0  0
  -27.5585  -37.1791   24.8456 C   0  0  0  0  0  0
  -21.4187  -29.3044   22.3671 N   0  0  0  0  0  0
  -26.4274  -37.3796   23.9434 N   0  0  0  0  0  0
  -24.6863  -31.0632   22.0940 N   0  0  0  0  0  0
  -23.4203  -28.8169   23.2992 O   0  0  0  0  0  0
  -28.3574  -26.4930   20.1652 O   0  0  0  0  0  0
  -26.5619  -34.8921   22.4679 O   0  0  0  0  0  0
  -23.5423  -32.1379   23.7357 O   0  0  0  0  0  0
  -29.4739  -19.3069   22.0075 C   0  0  0  0  0  0
  -30.0770  -19.2798   19.6848 C   0  0  0  0  0  0
  -29.5503  -17.8842   22.0589 C   0  0  0  0  0  0
  -29.7274  -20.0546   20.8271 C   0  0  0  0  0  0
  -30.1713  -17.8485   19.7221 C   0  0  0  0  0  0
  -29.9123  -17.1130   20.9188 C   0  0  0  0  0  0
  -29.1400  -23.8828   20.5026 C   0  0  0  0  0  0
  -28.9593  -22.5187   20.3114 C   0  0  0  0  0  0
  -30.3460  -24.3074   21.2762 C   0  0  0  0  0  0
  -31.4311  -23.2621   21.5187 C   0  0  0  0  0  0
  -30.8195  -21.8962   21.8473 C   0  0  0  0  0  0
  -29.2496  -17.1931   23.3805 C   0  0  0  0  0  0
  -27.7724  -22.0132   19.5065 C   0  0  0  0  0  0
  -28.1803  -25.0320   19.9729 C   0  0  0  0  0  0
  -29.8029  -21.4975   20.8702 N   0  0  0  0  0  0
  -30.5079  -17.1600   18.5557 N   0  0  0  0  0  0
  -29.8436  -15.6504   21.0011 N   0  0  0  0  0  0
  -30.5296  -25.4481   21.7107 O   0  0  0  0  0  0
  -31.4821  -12.5176   19.1526 H   0  0  0  0  0  0
  -30.3760  -11.3916   19.8868 H   0  0  0  0  0  0
  -29.7734  -11.7708   17.4754 H   0  0  0  0  0  0
  -29.6540  -13.4894   17.7569 H   0  0  0  0  0  0
  -27.8653  -11.2976   18.8622 H   0  0  0  0  0  0
  -27.3783  -12.5910   17.7977 H   0  0  0  0  0  0
  -27.6816  -14.2549   19.5405 H   0  0  0  0  0  0
  -28.7112  -12.0253   21.3624 H   0  0  0  0  0  0
  -28.4419  -13.6680   21.8632 H   0  0  0  0  0  0
  -25.2750   -9.5693   22.4753 H   0  0  0  0  0  0
  -24.0001   -7.4635   22.7469 H   0  0  0  0  0  0
  -21.0832   -8.8763   19.8947 H   0  0  0  0  0  0
  -22.3684  -10.9663   19.6147 H   0  0  0  0  0  0
  -21.2007   -7.6138   23.9706 H   0  0  0  0  0  0
  -21.1476   -6.0518   25.9077 H   0  0  0  0  0  0
  -22.0600   -2.7602   23.2845 H   0  0  0  0  0  0
  -22.4092  -11.9870   22.4786 H   0  0  0  0  0  0
  -21.1098  -13.1241   22.2603 H   0  0  0  0  0  0
  -24.6612  -15.8444   20.5179 H   0  0  0  0  0  0
  -26.2833  -15.6279   20.0949 H   0  0  0  0  0  0
  -26.7157  -32.5450   23.1092 H   0  0  0  0  0  0
  -25.0058  -33.9711   25.0427 H   0  0  0  0  0  0
  -22.7145  -31.3045   21.3960 H   0  0  0  0  0  0
  -23.3765  -35.9582   23.3279 H   0  0  0  0  0  0
  -24.3578  -36.8924   22.2060 H   0  0  0  0  0  0
  -23.7188  -37.6457   23.6667 H   0  0  0  0  0  0
  -26.0932  -31.5540   20.6019 H   0  0  0  0  0  0
  -26.8380  -30.8405   22.0014 H   0  0  0  0  0  0
  -28.1147  -28.9933   21.1848 H   0  0  0  0  0  0
  -25.9872  -25.9152   19.0230 H   0  0  0  0  0  0
  -23.9730  -27.2947   19.0236 H   0  0  0  0  0  0
  -23.7542  -30.5850   19.3954 H   0  0  0  0  0  0
  -22.7551  -29.2415   19.8590 H   0  0  0  0  0  0
  -25.1277  -36.1937   25.0841 H   0  0  0  0  0  0
  -21.0019  -28.3259   24.1399 H   0  0  0  0  0  0
  -20.5650  -26.2295   23.3623 H   0  0  0  0  0  0
  -21.6643  -26.7411   22.1235 H   0  0  0  0  0  0
  -19.6892  -25.6311   21.1240 H   0  0  0  0  0  0
  -19.6687  -27.3209   20.6743 H   0  0  0  0  0  0
  -17.4206  -26.6734   21.4006 H   0  0  0  0  0  0
  -18.0289  -26.0078   22.9000 H   0  0  0  0  0  0
  -19.7943  -30.7279   24.2284 H   0  0  0  0  0  0
  -17.5022  -31.6273   24.5171 H   0  0  0  0  0  0
  -15.5360  -30.2993   23.7655 H   0  0  0  0  0  0
  -15.8692  -28.0831   22.7066 H   0  0  0  0  0  0
  -24.5893  -30.7071   25.7816 H   0  0  0  0  0  0
  -24.8851  -32.2923   26.4836 H   0  0  0  0  0  0
  -25.8037  -30.9000   27.0265 H   0  0  0  0  0  0
  -26.2883  -29.6798   24.1179 H   0  0  0  0  0  0
  -27.3986  -29.7284   25.4693 H   0  0  0  0  0  0
  -27.8766  -30.4331   23.9416 H   0  0  0  0  0  0
  -27.2668  -33.3653   26.2034 H   0  0  0  0  0  0
  -28.3862  -32.6855   25.0318 H   0  0  0  0  0  0
  -28.0671  -31.8460   26.5429 H   0  0  0  0  0  0
  -28.2586  -38.0111   24.7575 H   0  0  0  0  0  0
  -28.1106  -36.2656   24.6189 H   0  0  0  0  0  0
  -27.2329  -37.1342   25.8865 H   0  0  0  0  0  0
  -20.9355  -29.8777   21.6896 H   0  0  0  0  0  0
  -26.0158  -38.2868   24.1469 H   0  0  0  0  0  0
  -29.2201  -19.8423   22.9110 H   0  0  0  0  0  0
  -30.3032  -19.8058   18.7682 H   0  0  0  0  0  0
  -32.0878  -23.5874   22.3257 H   0  0  0  0  0  0
  -32.0391  -23.1898   20.6176 H   0  0  0  0  0  0
  -30.3624  -21.9360   22.8371 H   0  0  0  0  0  0
  -31.6206  -21.1560   21.9039 H   0  0  0  0  0  0
  -29.1388  -17.9107   24.1945 H   0  0  0  0  0  0
  -30.0601  -16.5161   23.6518 H   0  0  0  0  0  0
  -28.3266  -16.6167   23.3142 H   0  0  0  0  0  0
  -26.8408  -22.3278   19.9791 H   0  0  0  0  0  0
  -27.7367  -20.9290   19.4068 H   0  0  0  0  0  0
  -27.7965  -22.4298   18.4985 H   0  0  0  0  0  0
  -27.9512  -25.1205   21.0365 H   0  0  0  0  0  0
  -29.0237  -25.2414   19.3127 H   0  0  0  0  0  0
  -30.9465  -17.6913   17.8117 H   0  0  0  0  0  0
  -30.9821  -16.2733   18.7125 H   0  0  0  0  0  0
  -29.0210  -15.3088   21.4719 H   0  0  0  0  0  0
  1 25  1  0  0  0
  1 30  2  0  0  0
  1 87  1  0  0  0
  2  3  1  0  0  0
  2 25  1  0  0  0
  2 89  1  0  0  0
  2 90  1  0  0  0
  3  4  1  0  0  0
  3 91  1  0  0  0
  3 92  1  0  0  0
  4  5  1  0  0  0
  4 93  1  0  0  0
  4 94  1  0  0  0
  5  6  1  0  0  0
  5 26  1  0  0  0
  5 95  1  0  0  0
  6 25  1  0  0  0
  6 96  1  0  0  0
  6 97  1  0  0  0
  7  8  2  0  0  0
  7 26  1  0  0  0
  7 29  1  0  0  0
  8  9  1  0  0  0
  8 22  1  0  0  0
  9 10  1  0  0  0
  9 27  2  0  0  0
 10 11  2  0  0  0
 10 15  1  0  0  0
 11 12  1  0  0  0
 11 98  1  0  0  0
 12 13  2  0  0  0
 12 99  1  0  0  0
 13 14  1  0  0  0
 13 31  1  0  0  0
 14 15  2  0  0  0
 14100  1  0  0  0
 15101  1  0  0  0
 16 17  2  0  0  0
 16 21  1  0  0  0
 16 31  1  0  0  0
 17 18  1  0  0  0
 17102  1  0  0  0
 18 19  2  0  0  0
 18103  1  0  0  0
 19 20  1  0  0  0
 19 24  1  0  0  0
 20 21  2  0  0  0
 20104  1  0  0  0
 21 23  1  0  0  0
 22 28  1  0  0  0
 22 32  2  0  0  0
 26 27  1  0  0  0
 28105  1  0  0  0
 28106  1  0  0  0
 29107  1  0  0  0
 29108  1  0  0  0
 33 34  1  0  0  0
 33 66  1  0  0  0
 33 70  2  0  0  0
 34 36  1  0  0  0
 34 59  1  0  0  0
 34109  1  0  0  0
 35 44  2  0  0  0
 35 45  1  0  0  0
 35 68  1  0  0  0
 36 56  1  0  0  0
 36110  1  0  0  0
 37 39  1  0  0  0
 37 47  1  0  0  0
 37 66  1  0  0  0
 37111  1  0  0  0
 38 43  2  0  0  0
 38 46  1  0  0  0
 38 47  1  0  0  0
 39 64  1  0  0  0
 39 67  2  0  0  0
 40 52  1  0  0  0
 40 53  2  0  0  0
 40 58  1  0  0  0
 41112  1  0  0  0
 41113  1  0  0  0
 41114  1  0  0  0
 41 48  1  0  0  0
 42 43  1  0  0  0
 42 66  1  0  0  0
 42115  1  0  0  0
 42116  1  0  0  0
 43 44  1  0  0  0
 44117  1  0  0  0
 45 46  2  0  0  0
 45118  1  0  0  0
 46119  1  0  0  0
 47120  1  0  0  0
 47121  1  0  0  0
 48 56  1  0  0  0
 48 65  1  0  0  0
 48122  1  0  0  0
 49 50  1  0  0  0
 49 53  1  0  0  0
 49 64  1  0  0  0
 49123  1  0  0  0
 50 51  1  0  0  0
 50124  1  0  0  0
 50125  1  0  0  0
 51 52  1  0  0  0
 51126  1  0  0  0
 51127  1  0  0  0
 52128  1  0  0  0
 52129  1  0  0  0
 53 54  1  0  0  0
 54 55  2  0  0  0
 54130  1  0  0  0
 55 57  1  0  0  0
 55131  1  0  0  0
 56 69  2  0  0  0
 57 58  2  0  0  0
 57132  1  0  0  0
 58133  1  0  0  0
 59 60  1  0  0  0
 59 61  1  0  0  0
 59 62  1  0  0  0
 60134  1  0  0  0
 60135  1  0  0  0
 60136  1  0  0  0
 61137  1  0  0  0
 61138  1  0  0  0
 61139  1  0  0  0
 62140  1  0  0  0
 62141  1  0  0  0
 62142  1  0  0  0
 63 65  1  0  0  0
 63143  1  0  0  0
 63144  1  0  0  0
 63145  1  0  0  0
 64146  1  0  0  0
 65147  1  0  0  0
 68 84  1  0  0  0
 71 73  2  0  0  0
 71 74  1  0  0  0
 71148  1  0  0  0
 72 74  2  0  0  0
 72 75  1  0  0  0
 72149  1  0  0  0
 73 76  1  0  0  0
 73 82  1  0  0  0
 74 85  1  0  0  0
 75 76  2  0  0  0
 75 86  1  0  0  0
 76 87  1  0  0  0
 77 78  2  0  0  0
 77 79  1  0  0  0
 77 84  1  0  0  0
 78 83  1  0  0  0
 78 85  1  0  0  0
 79 80  1  0  0  0
 79 88  2  0  0  0
 80 81  1  0  0  0
 80150  1  0  0  0
 80151  1  0  0  0
 81 85  1  0  0  0
 81152  1  0  0  0
 81153  1  0  0  0
 82154  1  0  0  0
 82155  1  0  0  0
 82156  1  0  0  0
 83157  1  0  0  0
 83158  1  0  0  0
 83159  1  0  0  0
 84160  1  0  0  0
 84161  1  0  0  0
 86162  1  0  0  0
 86163  1  0  0  0
 87164  1  0  0  0
M  ISO  4   1 100  68 101  84 101  87 100
M  END
> <chiral flag>
0

> <version>
0

> <s_m_source_file>
/data/baiqing/PycharmProjects/Reinvent-master-3.2/result/LINK_invent/BTK/process_docking_weight1_custom_product_contain_oxygen_bond_distance_aromatic_linkinvent_7_9_3/rearranged_h_0110.sdf

> <i_m_source_file_index>
8

> <r_mmod_Potential_Energy-OPLS-2005>
205.476593017578

> <r_mmod_Stretch_Energy-OPLS-2005>
89.0404357910156

> <r_mmod_Bend_Energy-OPLS-2005>
338.641693115234

> <r_mmod_Torsional_Energy-OPLS-2005>
234.566986083984

> <r_mmod_Improper_Torsional_Energy-OPLS-2005>
9.17707824707031

> <r_mmod_Van_der_Waal_Energy-OPLS-2005>
168.168472290039

> <r_mmod_Electrostatic_Energy-OPLS-2005>
-457.729827880859

> <r_mmod_Solvation_Energy-OPLS-2005>
-221.958572387695

> <b_mmod_Minimization_Converged-OPLS-2005>
0

> <r_mmod_RMS_Derivative-OPLS-2005>
1.63034343719482

$$$$
9
                    3D
 Structure written by MMmdl.
157165  0  0  1  0            999 V2000
  -30.6292  -14.6260   20.5114 C   0  0  0  0  0  0
  -30.4402  -12.3867   19.4502 C   0  0  0  0  0  0
  -29.5094  -12.5135   18.2233 C   0  0  0  0  0  0
  -28.0314  -12.3523   18.6328 C   0  0  0  0  0  0
  -27.6566  -13.2163   19.8664 C   0  0  2  0  0  0
  -28.7010  -13.0578   20.9955 C   0  0  0  0  0  0
  -25.2577  -13.8163   20.5686 C   0  0  0  0  0  0
  -24.1841  -13.0436   20.9198 C   0  0  0  0  0  0
  -24.6404  -11.6907   20.8738 C   0  0  0  0  0  0
  -23.9065  -10.4294   21.0406 C   0  0  0  0  0  0
  -24.3617   -9.4208   21.9184 C   0  0  0  0  0  0
  -23.6292   -8.2243   22.0751 C   0  0  0  0  0  0
  -22.4275   -8.0283   21.3543 C   0  0  0  0  0  0
  -21.9910   -9.0259   20.4647 C   0  0  0  0  0  0
  -22.7238  -10.2138   20.3055 C   0  0  0  0  0  0
  -21.6854   -6.0736   22.5281 C   0  0  0  0  0  0
  -21.4016   -6.5641   23.8215 C   0  0  0  0  0  0
  -21.3654   -5.6792   24.9177 C   0  0  0  0  0  0
  -21.6042   -4.3054   24.7225 C   0  0  0  0  0  0
  -21.8821   -3.8148   23.4347 C   0  0  0  0  0  0
  -21.9195   -4.6964   22.3405 C   0  0  0  0  0  0
  -22.7863  -13.5237   21.1857 C   0  0  0  0  0  0
  -22.1663   -4.2150   21.0980 F   0  0  0  0  0  0
  -21.5623   -3.4533   25.7733 F   0  0  0  0  0  0
  -30.0212  -13.3999   20.4391 N   0  0  0  0  0  0
  -26.3008  -12.9348   20.3320 N   0  0  0  0  0  0
  -25.9332  -11.6503   20.5746 N   0  0  0  0  0  0
  -22.0495  -12.8229   22.0405 N   0  0  0  0  0  0
  -25.4282  -15.1877   20.4076 N   0  0  0  0  0  0
  -31.7750  -14.8040   20.0881 O   0  0  0  0  0  0
  -21.6640   -6.8879   21.4243 O   0  0  0  0  0  0
  -22.3551  -14.5541   20.6699 O   0  0  0  0  0  0
  -24.6250  -31.8607   23.2036 C   0  0  0  0  0  0
  -25.9098  -32.4786   23.8366 C   0  0  1  0  0  0
  -27.2281  -27.3329   20.1206 C   0  0  0  0  0  0
  -25.5917  -33.8587   24.2292 N   0  0  0  0  0  0
  -23.4191  -30.4834   21.5460 C   0  0  2  0  0  0
  -24.8677  -28.9388   20.1136 C   0  0  0  0  0  0
  -22.7473  -29.4624   22.4948 C   0  0  0  0  0  0
  -18.0284  -28.1383   22.8489 C   0  0  0  0  0  0
  -24.1489  -36.7297   23.2641 C   0  0  0  0  0  0
  -25.9587  -30.7959   21.3731 C   0  0  0  0  0  0
  -26.0355  -29.4236   20.7173 C   0  0  0  0  0  0
  -27.2214  -28.6325   20.7101 C   0  0  0  0  0  0
  -26.0424  -26.8995   19.4879 C   0  0  0  0  0  0
  -24.8721  -27.6814   19.4898 C   0  0  0  0  0  0
  -23.6344  -29.8168   20.1618 C   0  0  0  0  0  0
  -25.4113  -36.3090   24.0334 C   0  0  1  0  0  0
  -20.5883  -28.3684   23.1292 C   0  0  2  0  0  0
  -20.6772  -26.9408   22.5415 C   0  0  0  0  0  0
  -19.5750  -26.6384   21.5214 C   0  0  0  0  0  0
  -18.1930  -26.7928   22.1623 C   0  0  0  0  0  0
  -19.1535  -28.8850   23.2885 C   0  0  0  0  0  0
  -18.9457  -30.1453   23.8899 C   0  0  0  0  0  0
  -17.6458  -30.6587   24.0559 C   0  0  0  0  0  0
  -25.9048  -34.9456   23.5114 C   0  0  0  0  0  0
  -16.5349  -29.9085   23.6326 C   0  0  0  0  0  0
  -16.7271  -28.6500   23.0352 C   0  0  0  0  0  0
  -26.4489  -31.6590   25.0730 C   0  0  0  0  0  0
  -25.3727  -31.3724   26.1461 C   0  0  0  0  0  0
  -27.0321  -30.3014   24.6171 C   0  0  0  0  0  0
  -27.6062  -32.4314   25.7491 C   0  0  0  0  0  0
  -27.5582  -37.1805   24.8466 C   0  0  0  0  0  0
  -21.4187  -29.3037   22.3689 N   0  0  0  0  0  0
  -26.4294  -37.3782   23.9409 N   0  0  0  0  0  0
  -24.6862  -31.0630   22.0980 N   0  0  0  0  0  0
  -23.4200  -28.8163   23.3022 O   0  0  0  0  0  0
  -28.3392  -26.4830   20.1431 O   0  0  0  0  0  0
  -26.5615  -34.8919   22.4680 O   0  0  0  0  0  0
  -23.5413  -32.1399   23.7366 O   0  0  0  0  0  0
  -28.9207  -19.3902   21.2644 C   0  0  0  0  0  0
  -30.7419  -17.7756   19.8746 C   0  0  0  0  0  0
  -28.9615  -17.9783   21.4983 C   0  0  0  0  0  0
  -29.7765  -20.0314   20.3379 C   0  0  0  0  0  0
  -29.8748  -17.1171   20.7910 C   0  0  0  0  0  0
  -30.6955  -19.1836   19.6571 C   0  0  0  0  0  0
  -28.0215  -17.4704   22.5091 C   0  0  0  0  0  0
  -29.0450  -23.9685   20.1155 C   0  0  0  0  0  0
  -28.8456  -22.4835   20.6296 C   0  0  0  0  0  0
  -28.0876  -25.1084   20.6362 C   0  0  0  0  0  0
  -28.4380  -16.6637   23.4832 N   0  0  0  0  0  0
  -29.8410  -15.6518   20.9624 N   0  0  0  0  0  0
  -29.7636  -21.4427   20.0666 N   0  0  0  0  0  0
  -26.7346  -17.8108   22.4704 N   0  3  0  0  0  0
  -29.9466  -24.2168   19.3059 O   0  0  0  0  0  0
  -31.5509  -19.7365   18.7606 F   0  0  0  0  0  0
  -31.4820  -12.5113   19.1486 H   0  0  0  0  0  0
  -30.3733  -11.3871   19.8824 H   0  0  0  0  0  0
  -29.7731  -11.7686   17.4712 H   0  0  0  0  0  0
  -29.6542  -13.4866   17.7508 H   0  0  0  0  0  0
  -27.8638  -11.2980   18.8569 H   0  0  0  0  0  0
  -27.3785  -12.5911   17.7925 H   0  0  0  0  0  0
  -27.6789  -14.2546   19.5343 H   0  0  0  0  0  0
  -28.7080  -12.0318   21.3664 H   0  0  0  0  0  0
  -28.4432  -13.6787   21.8551 H   0  0  0  0  0  0
  -25.2763   -9.5682   22.4755 H   0  0  0  0  0  0
  -24.0006   -7.4630   22.7465 H   0  0  0  0  0  0
  -21.0841   -8.8784   19.8948 H   0  0  0  0  0  0
  -22.3703  -10.9680   19.6160 H   0  0  0  0  0  0
  -21.2014   -7.6150   23.9722 H   0  0  0  0  0  0
  -21.1469   -6.0518   25.9080 H   0  0  0  0  0  0
  -22.0602   -2.7611   23.2846 H   0  0  0  0  0  0
  -22.4101  -11.9893   22.4800 H   0  0  0  0  0  0
  -21.1107  -13.1255   22.2592 H   0  0  0  0  0  0
  -24.6515  -15.8326   20.4996 H   0  0  0  0  0  0
  -26.2558  -15.6160   20.0147 H   0  0  0  0  0  0
  -26.7170  -32.5464   23.1121 H   0  0  0  0  0  0
  -25.0060  -33.9734   25.0433 H   0  0  0  0  0  0
  -22.7119  -31.3029   21.4027 H   0  0  0  0  0  0
  -23.3751  -35.9633   23.3314 H   0  0  0  0  0  0
  -24.3580  -36.8901   22.2054 H   0  0  0  0  0  0
  -23.7244  -37.6504   23.6651 H   0  0  0  0  0  0
  -26.0868  -31.5594   20.6045 H   0  0  0  0  0  0
  -26.8403  -30.8465   22.0004 H   0  0  0  0  0  0
  -28.1184  -28.9999   21.1885 H   0  0  0  0  0  0
  -26.0098  -25.9420   18.9880 H   0  0  0  0  0  0
  -23.9785  -27.3070   19.0091 H   0  0  0  0  0  0
  -23.7520  -30.5925   19.4043 H   0  0  0  0  0  0
  -22.7558  -29.2436   19.8606 H   0  0  0  0  0  0
  -25.1294  -36.1948   25.0827 H   0  0  0  0  0  0
  -20.9972  -28.3254   24.1414 H   0  0  0  0  0  0
  -20.5676  -26.2291   23.3612 H   0  0  0  0  0  0
  -21.6641  -26.7442   22.1208 H   0  0  0  0  0  0
  -19.6912  -25.6296   21.1243 H   0  0  0  0  0  0
  -19.6692  -27.3195   20.6747 H   0  0  0  0  0  0
  -17.4203  -26.6678   21.4023 H   0  0  0  0  0  0
  -18.0327  -26.0069   22.9018 H   0  0  0  0  0  0
  -19.7932  -30.7267   24.2273 H   0  0  0  0  0  0
  -17.5012  -31.6267   24.5162 H   0  0  0  0  0  0
  -15.5350  -30.2986   23.7652 H   0  0  0  0  0  0
  -15.8670  -28.0820   22.7067 H   0  0  0  0  0  0
  -24.5895  -30.7083   25.7787 H   0  0  0  0  0  0
  -24.8917  -32.2885   26.4898 H   0  0  0  0  0  0
  -25.8053  -30.8891   27.0230 H   0  0  0  0  0  0
  -26.2883  -29.6774   24.1202 H   0  0  0  0  0  0
  -27.4026  -29.7264   25.4668 H   0  0  0  0  0  0
  -27.8752  -30.4300   23.9379 H   0  0  0  0  0  0
  -27.2692  -33.3620   26.2069 H   0  0  0  0  0  0
  -28.3866  -32.6865   25.0310 H   0  0  0  0  0  0
  -28.0737  -31.8432   26.5398 H   0  0  0  0  0  0
  -28.2610  -38.0092   24.7502 H   0  0  0  0  0  0
  -28.1064  -36.2621   24.6306 H   0  0  0  0  0  0
  -27.2298  -37.1473   25.8869 H   0  0  0  0  0  0
  -20.9367  -29.8755   21.6894 H   0  0  0  0  0  0
  -26.0180  -38.2862   24.1397 H   0  0  0  0  0  0
  -28.2212  -19.9935   21.8242 H   0  0  0  0  0  0
  -31.4556  -17.2093   19.2966 H   0  0  0  0  0  0
  -27.8140  -22.1964   20.4221 H   0  0  0  0  0  0
  -28.9502  -22.4942   21.7151 H   0  0  0  0  0  0
  -28.1693  -25.1308   21.7230 H   0  0  0  0  0  0
  -27.0703  -24.7844   20.4244 H   0  0  0  0  0  0
  -29.4291  -16.4990   23.5903 H   0  0  0  0  0  0
  -27.8290  -16.3282   24.2128 H   0  0  0  0  0  0
  -29.0022  -15.2979   21.3976 H   0  0  0  0  0  0
  -30.4381  -21.7851   19.3849 H   0  0  0  0  0  0
  -26.3950  -18.3759   21.7064 H   0  0  0  0  0  0
  -26.0621  -17.4644   23.1356 H   0  0  0  0  0  0
  1 25  1  0  0  0
  1 30  2  0  0  0
  1 82  1  0  0  0
  2  3  1  0  0  0
  2 25  1  0  0  0
  2 87  1  0  0  0
  2 88  1  0  0  0
  3  4  1  0  0  0
  3 89  1  0  0  0
  3 90  1  0  0  0
  4  5  1  0  0  0
  4 91  1  0  0  0
  4 92  1  0  0  0
  5  6  1  0  0  0
  5 26  1  0  0  0
  5 93  1  0  0  0
  6 25  1  0  0  0
  6 94  1  0  0  0
  6 95  1  0  0  0
  7  8  2  0  0  0
  7 26  1  0  0  0
  7 29  1  0  0  0
  8  9  1  0  0  0
  8 22  1  0  0  0
  9 10  1  0  0  0
  9 27  2  0  0  0
 10 11  2  0  0  0
 10 15  1  0  0  0
 11 12  1  0  0  0
 11 96  1  0  0  0
 12 13  2  0  0  0
 12 97  1  0  0  0
 13 14  1  0  0  0
 13 31  1  0  0  0
 14 15  2  0  0  0
 14 98  1  0  0  0
 15 99  1  0  0  0
 16 17  2  0  0  0
 16 21  1  0  0  0
 16 31  1  0  0  0
 17 18  1  0  0  0
 17100  1  0  0  0
 18 19  2  0  0  0
 18101  1  0  0  0
 19 20  1  0  0  0
 19 24  1  0  0  0
 20 21  2  0  0  0
 20102  1  0  0  0
 21 23  1  0  0  0
 22 28  1  0  0  0
 22 32  2  0  0  0
 26 27  1  0  0  0
 28103  1  0  0  0
 28104  1  0  0  0
 29105  1  0  0  0
 29106  1  0  0  0
 33 34  1  0  0  0
 33 66  1  0  0  0
 33 70  2  0  0  0
 34 36  1  0  0  0
 34 59  1  0  0  0
 34107  1  0  0  0
 35 44  2  0  0  0
 35 45  1  0  0  0
 35 68  1  0  0  0
 36 56  1  0  0  0
 36108  1  0  0  0
 37 39  1  0  0  0
 37 47  1  0  0  0
 37 66  1  0  0  0
 37109  1  0  0  0
 38 43  2  0  0  0
 38 46  1  0  0  0
 38 47  1  0  0  0
 39 64  1  0  0  0
 39 67  2  0  0  0
 40 52  1  0  0  0
 40 53  2  0  0  0
 40 58  1  0  0  0
 41110  1  0  0  0
 41111  1  0  0  0
 41112  1  0  0  0
 41 48  1  0  0  0
 42 43  1  0  0  0
 42 66  1  0  0  0
 42113  1  0  0  0
 42114  1  0  0  0
 43 44  1  0  0  0
 44115  1  0  0  0
 45 46  2  0  0  0
 45116  1  0  0  0
 46117  1  0  0  0
 47118  1  0  0  0
 47119  1  0  0  0
 48 56  1  0  0  0
 48 65  1  0  0  0
 48120  1  0  0  0
 49 50  1  0  0  0
 49 53  1  0  0  0
 49 64  1  0  0  0
 49121  1  0  0  0
 50 51  1  0  0  0
 50122  1  0  0  0
 50123  1  0  0  0
 51 52  1  0  0  0
 51124  1  0  0  0
 51125  1  0  0  0
 52126  1  0  0  0
 52127  1  0  0  0
 53 54  1  0  0  0
 54 55  2  0  0  0
 54128  1  0  0  0
 55 57  1  0  0  0
 55129  1  0  0  0
 56 69  2  0  0  0
 57 58  2  0  0  0
 57130  1  0  0  0
 58131  1  0  0  0
 59 60  1  0  0  0
 59 61  1  0  0  0
 59 62  1  0  0  0
 60132  1  0  0  0
 60133  1  0  0  0
 60134  1  0  0  0
 61135  1  0  0  0
 61136  1  0  0  0
 61137  1  0  0  0
 62138  1  0  0  0
 62139  1  0  0  0
 62140  1  0  0  0
 63 65  1  0  0  0
 63141  1  0  0  0
 63142  1  0  0  0
 63143  1  0  0  0
 64144  1  0  0  0
 65145  1  0  0  0
 68 80  1  0  0  0
 71 73  2  0  0  0
 71 74  1  0  0  0
 71146  1  0  0  0
 72 75  2  0  0  0
 72 76  1  0  0  0
 72147  1  0  0  0
 73 75  1  0  0  0
 73 77  1  0  0  0
 74 76  2  0  0  0
 74 83  1  0  0  0
 75 82  1  0  0  0
 76 86  1  0  0  0
 77 81  1  0  0  0
 77 84  2  0  0  0
 78 79  1  0  0  0
 78 80  1  0  0  0
 78 85  2  0  0  0
 79 83  1  0  0  0
 79148  1  0  0  0
 79149  1  0  0  0
 80150  1  0  0  0
 80151  1  0  0  0
 81152  1  0  0  0
 81153  1  0  0  0
 82154  1  0  0  0
 83155  1  0  0  0
 84156  1  0  0  0
 84157  1  0  0  0
M  CHG  1  84   1
M  ISO  4   1 100  68 101  80 101  82 100
M  END
> <chiral flag>
0

> <version>
0

> <s_m_source_file>
/data/baiqing/PycharmProjects/Reinvent-master-3.2/result/LINK_invent/BTK/process_docking_weight1_custom_product_contain_oxygen_bond_distance_aromatic_linkinvent_7_9_3/rearranged_h_0110.sdf

> <i_m_source_file_index>
9

> <r_mmod_Potential_Energy-OPLS-2005>
-104.939010620117

> <r_mmod_Stretch_Energy-OPLS-2005>
80.5391464233398

> <r_mmod_Bend_Energy-OPLS-2005>
144.602386474609

> <r_mmod_Torsional_Energy-OPLS-2005>
220.153198242188

> <r_mmod_Improper_Torsional_Energy-OPLS-2005>
4.04358148574829

> <r_mmod_Van_der_Waal_Energy-OPLS-2005>
142.009292602539

> <r_mmod_Electrostatic_Energy-OPLS-2005>
-237.830551147461

> <r_mmod_Solvation_Energy-OPLS-2005>
-501.592346191406

> <b_mmod_Minimization_Converged-OPLS-2005>
0

> <r_mmod_RMS_Derivative-OPLS-2005>
0.682001531124115

$$$$
10
                    3D
 Structure written by MMmdl.
155163  0  0  1  0            999 V2000
  -30.5373  -14.8907   20.4764 C   0  0  0  0  0  0
  -30.4485  -12.5507   19.5009 C   0  0  0  0  0  0
  -29.5286  -12.5426   18.2573 C   0  0  0  0  0  0
  -28.0559  -12.3367   18.6630 C   0  0  0  0  0  0
  -27.6412  -13.2421   19.8527 C   0  0  2  0  0  0
  -28.6806  -13.2083   20.9925 C   0  0  0  0  0  0
  -25.2510  -13.8209   20.5709 C   0  0  0  0  0  0
  -24.1800  -13.0443   20.9196 C   0  0  0  0  0  0
  -24.6399  -11.6923   20.8725 C   0  0  0  0  0  0
  -23.9074  -10.4298   21.0394 C   0  0  0  0  0  0
  -24.3626   -9.4219   21.9176 C   0  0  0  0  0  0
  -23.6304   -8.2251   22.0753 C   0  0  0  0  0  0
  -22.4287   -8.0282   21.3542 C   0  0  0  0  0  0
  -21.9917   -9.0256   20.4645 C   0  0  0  0  0  0
  -22.7240  -10.2140   20.3050 C   0  0  0  0  0  0
  -21.6857   -6.0734   22.5274 C   0  0  0  0  0  0
  -21.4010   -6.5635   23.8207 C   0  0  0  0  0  0
  -21.3666   -5.6789   24.9170 C   0  0  0  0  0  0
  -21.6051   -4.3051   24.7220 C   0  0  0  0  0  0
  -21.8818   -3.8143   23.4338 C   0  0  0  0  0  0
  -21.9195   -4.6962   22.3396 C   0  0  0  0  0  0
  -22.7826  -13.5222   21.1866 C   0  0  0  0  0  0
  -22.1670   -4.2147   21.0976 F   0  0  0  0  0  0
  -21.5640   -3.4535   25.7734 F   0  0  0  0  0  0
  -29.9720  -13.6195   20.4228 N   0  0  0  0  0  0
  -26.2938  -12.9427   20.3275 N   0  0  0  0  0  0
  -25.9333  -11.6559   20.5722 N   0  0  0  0  0  0
  -22.0472  -12.8208   22.0421 N   0  0  0  0  0  0
  -25.4228  -15.1937   20.4166 N   0  0  0  0  0  0
  -31.6798  -15.0116   20.0297 O   0  0  0  0  0  0
  -21.6649   -6.8878   21.4236 O   0  0  0  0  0  0
  -22.3512  -14.5527   20.6715 O   0  0  0  0  0  0
  -24.6416  -31.8453   23.1903 C   0  0  0  0  0  0
  -25.9197  -32.4699   23.8279 C   0  0  1  0  0  0
  -27.2172  -27.1507   20.1450 C   0  0  0  0  0  0
  -25.5953  -33.8506   24.2197 N   0  0  0  0  0  0
  -23.4441  -30.4655   21.5346 C   0  0  2  0  0  0
  -24.8941  -28.8970   20.1060 C   0  0  0  0  0  0
  -22.7554  -29.4555   22.4860 C   0  0  0  0  0  0
  -18.0302  -28.1395   22.8483 C   0  0  0  0  0  0
  -24.1493  -36.7261   23.2642 C   0  0  0  0  0  0
  -25.9988  -30.7218   21.3895 C   0  0  0  0  0  0
  -26.0682  -29.3347   20.7309 C   0  0  0  0  0  0
  -27.2272  -28.4743   20.7400 C   0  0  0  0  0  0
  -26.0240  -26.8211   19.4628 C   0  0  0  0  0  0
  -24.8845  -27.6535   19.4574 C   0  0  0  0  0  0
  -23.6693  -29.7967   20.1523 C   0  0  0  0  0  0
  -25.4125  -36.3037   24.0314 C   0  0  1  0  0  0
  -20.5913  -28.3719   23.1242 C   0  0  2  0  0  0
  -20.6787  -26.9423   22.5407 C   0  0  0  0  0  0
  -19.5763  -26.6382   21.5214 C   0  0  0  0  0  0
  -18.1943  -26.7935   22.1625 C   0  0  0  0  0  0
  -19.1558  -28.8875   23.2856 C   0  0  0  0  0  0
  -18.9475  -30.1472   23.8880 C   0  0  0  0  0  0
  -17.6471  -30.6593   24.0560 C   0  0  0  0  0  0
  -25.9073  -34.9410   23.5063 C   0  0  0  0  0  0
  -16.5362  -29.9085   23.6337 C   0  0  0  0  0  0
  -16.7285  -28.6504   23.0360 C   0  0  0  0  0  0
  -26.4524  -31.6566   25.0718 C   0  0  0  0  0  0
  -25.3716  -31.3746   26.1416 C   0  0  0  0  0  0
  -27.0394  -30.2965   24.6298 C   0  0  0  0  0  0
  -27.6055  -32.4335   25.7506 C   0  0  0  0  0  0
  -27.5576  -37.1788   24.8465 C   0  0  0  0  0  0
  -21.4247  -29.3047   22.3612 N   0  0  0  0  0  0
  -26.4289  -37.3746   23.9406 N   0  0  0  0  0  0
  -24.7142  -31.0321   22.0932 N   0  0  0  0  0  0
  -23.4207  -28.8103   23.3003 O   0  0  0  0  0  0
  -28.2757  -26.1790   20.2506 O   0  0  0  0  0  0
  -26.5657  -34.8904   22.4641 O   0  0  0  0  0  0
  -23.5539  -32.1325   23.7132 O   0  0  0  0  0  0
  -29.3373  -20.5558   20.1045 C   0  0  0  0  0  0
  -29.8739  -19.5506   19.0754 C   0  0  0  0  0  0
  -29.6965  -17.3074   20.6456 C   0  0  0  0  0  0
  -29.1636  -21.9458   19.8170 C   0  0  0  0  0  0
  -30.3437  -18.0609   19.4438 C   0  0  0  0  0  0
  -28.8101  -18.3522   21.4336 C   0  0  0  0  0  0
  -30.3324  -20.1131   22.3604 C   0  0  0  0  0  0
  -28.8579  -23.3516   20.5984 C   0  0  0  0  0  0
  -28.1223  -24.6786   19.8783 C   0  0  0  0  0  0
  -29.9768  -19.8941   17.8591 N   0  0  0  0  0  0
  -29.7309  -15.9978   20.9897 N   0  0  0  0  0  0
  -29.2001  -19.8421   21.4454 N   0  3  1  0  0  0
  -31.4851  -12.7007   19.1952 H   0  0  0  0  0  0
  -30.4285  -11.5801   19.9994 H   0  0  0  0  0  0
  -29.8395  -11.7608   17.5630 H   0  0  0  0  0  0
  -29.6332  -13.4880   17.7216 H   0  0  0  0  0  0
  -27.9328  -11.2885   18.9380 H   0  0  0  0  0  0
  -27.3994  -12.5066   17.8087 H   0  0  0  0  0  0
  -27.6263  -14.2600   19.4633 H   0  0  0  0  0  0
  -28.7464  -12.2113   21.4308 H   0  0  0  0  0  0
  -28.3806  -13.8756   21.8019 H   0  0  0  0  0  0
  -25.2776   -9.5705   22.4738 H   0  0  0  0  0  0
  -24.0022   -7.4645   22.7470 H   0  0  0  0  0  0
  -21.0851   -8.8766   19.8948 H   0  0  0  0  0  0
  -22.3693  -10.9676   19.6156 H   0  0  0  0  0  0
  -21.1992   -7.6140   23.9707 H   0  0  0  0  0  0
  -21.1501   -6.0520   25.9075 H   0  0  0  0  0  0
  -22.0593   -2.7603   23.2838 H   0  0  0  0  0  0
  -22.4102  -11.9886   22.4826 H   0  0  0  0  0  0
  -21.1079  -13.1219   22.2605 H   0  0  0  0  0  0
  -24.6622  -15.8549   20.5297 H   0  0  0  0  0  0
  -26.2869  -15.6237   20.1122 H   0  0  0  0  0  0
  -26.7261  -32.5312   23.1007 H   0  0  0  0  0  0
  -25.0076  -33.9624   25.0328 H   0  0  0  0  0  0
  -22.7461  -31.2914   21.3818 H   0  0  0  0  0  0
  -23.3757  -35.9590   23.3294 H   0  0  0  0  0  0
  -24.3574  -36.8904   22.2057 H   0  0  0  0  0  0
  -23.7248  -37.6454   23.6685 H   0  0  0  0  0  0
  -26.1541  -31.4772   20.6180 H   0  0  0  0  0  0
  -26.8695  -30.7710   22.0314 H   0  0  0  0  0  0
  -28.1172  -28.7989   21.2607 H   0  0  0  0  0  0
  -25.9314  -25.8839   18.9367 H   0  0  0  0  0  0
  -23.9918  -27.3189   18.9470 H   0  0  0  0  0  0
  -23.8021  -30.5722   19.3973 H   0  0  0  0  0  0
  -22.7847  -29.2367   19.8432 H   0  0  0  0  0  0
  -25.1315  -36.1862   25.0805 H   0  0  0  0  0  0
  -21.0009  -28.3311   24.1362 H   0  0  0  0  0  0
  -20.5685  -26.2330   23.3622 H   0  0  0  0  0  0
  -21.6653  -26.7431   22.1202 H   0  0  0  0  0  0
  -19.6921  -25.6288   21.1261 H   0  0  0  0  0  0
  -19.6702  -27.3178   20.6734 H   0  0  0  0  0  0
  -17.4210  -26.6683   21.4028 H   0  0  0  0  0  0
  -18.0338  -26.0081   22.9025 H   0  0  0  0  0  0
  -19.7950  -30.7295   24.2244 H   0  0  0  0  0  0
  -17.5022  -31.6272   24.5161 H   0  0  0  0  0  0
  -15.5364  -30.2980   23.7670 H   0  0  0  0  0  0
  -15.8687  -28.0813   22.7089 H   0  0  0  0  0  0
  -24.5898  -30.7091   25.7734 H   0  0  0  0  0  0
  -24.8902  -32.2924   26.4804 H   0  0  0  0  0  0
  -25.8005  -30.8942   27.0220 H   0  0  0  0  0  0
  -26.3008  -29.6683   24.1303 H   0  0  0  0  0  0
  -27.4004  -29.7268   25.4873 H   0  0  0  0  0  0
  -27.8919  -30.4203   23.9617 H   0  0  0  0  0  0
  -27.2641  -33.3648   26.2037 H   0  0  0  0  0  0
  -28.3891  -32.6875   25.0355 H   0  0  0  0  0  0
  -28.0695  -31.8493   26.5463 H   0  0  0  0  0  0
  -28.2587  -38.0092   24.7508 H   0  0  0  0  0  0
  -28.1080  -36.2619   24.6298 H   0  0  0  0  0  0
  -27.2290  -37.1444   25.8867 H   0  0  0  0  0  0
  -20.9448  -29.8756   21.6792 H   0  0  0  0  0  0
  -26.0157  -38.2816   24.1405 H   0  0  0  0  0  0
  -29.3923  -22.2020   18.7931 H   0  0  0  0  0  0
  -31.4186  -18.0914   19.6200 H   0  0  0  0  0  0
  -30.2102  -17.4340   18.5623 H   0  0  0  0  0  0
  -28.7141  -18.0089   22.4643 H   0  0  0  0  0  0
  -27.8028  -18.2881   21.0214 H   0  0  0  0  0  0
  -30.4911  -21.1867   22.4667 H   0  0  0  0  0  0
  -31.2579  -19.6713   21.9896 H   0  0  0  0  0  0
  -30.1408  -19.7108   23.3553 H   0  0  0  0  0  0
  -29.8459  -23.7001   20.9001 H   0  0  0  0  0  0
  -28.3484  -23.1244   21.5350 H   0  0  0  0  0  0
  -27.0645  -24.4272   19.9154 H   0  0  0  0  0  0
  -28.3825  -24.6366   18.8200 H   0  0  0  0  0  0
  -29.6622  -20.8440   17.6951 H   0  0  0  0  0  0
  -28.4141  -20.2706   21.9094 H   0  0  0  0  0  0
  1 25  1  0  0  0
  1 30  2  0  0  0
  1 81  1  0  0  0
  2  3  1  0  0  0
  2 25  1  0  0  0
  2 83  1  0  0  0
  2 84  1  0  0  0
  3  4  1  0  0  0
  3 85  1  0  0  0
  3 86  1  0  0  0
  4  5  1  0  0  0
  4 87  1  0  0  0
  4 88  1  0  0  0
  5  6  1  0  0  0
  5 26  1  0  0  0
  5 89  1  0  0  0
  6 25  1  0  0  0
  6 90  1  0  0  0
  6 91  1  0  0  0
  7  8  2  0  0  0
  7 26  1  0  0  0
  7 29  1  0  0  0
  8  9  1  0  0  0
  8 22  1  0  0  0
  9 10  1  0  0  0
  9 27  2  0  0  0
 10 11  2  0  0  0
 10 15  1  0  0  0
 11 12  1  0  0  0
 11 92  1  0  0  0
 12 13  2  0  0  0
 12 93  1  0  0  0
 13 14  1  0  0  0
 13 31  1  0  0  0
 14 15  2  0  0  0
 14 94  1  0  0  0
 15 95  1  0  0  0
 16 17  2  0  0  0
 16 21  1  0  0  0
 16 31  1  0  0  0
 17 18  1  0  0  0
 17 96  1  0  0  0
 18 19  2  0  0  0
 18 97  1  0  0  0
 19 20  1  0  0  0
 19 24  1  0  0  0
 20 21  2  0  0  0
 20 98  1  0  0  0
 21 23  1  0  0  0
 22 28  1  0  0  0
 22 32  2  0  0  0
 26 27  1  0  0  0
 28 99  1  0  0  0
 28100  1  0  0  0
 29101  1  0  0  0
 29102  1  0  0  0
 33 34  1  0  0  0
 33 66  1  0  0  0
 33 70  2  0  0  0
 34 36  1  0  0  0
 34 59  1  0  0  0
 34103  1  0  0  0
 35 44  2  0  0  0
 35 45  1  0  0  0
 35 68  1  0  0  0
 36 56  1  0  0  0
 36104  1  0  0  0
 37 39  1  0  0  0
 37 47  1  0  0  0
 37 66  1  0  0  0
 37105  1  0  0  0
 38 43  2  0  0  0
 38 46  1  0  0  0
 38 47  1  0  0  0
 39 64  1  0  0  0
 39 67  2  0  0  0
 40 52  1  0  0  0
 40 53  2  0  0  0
 40 58  1  0  0  0
 41106  1  0  0  0
 41107  1  0  0  0
 41108  1  0  0  0
 41 48  1  0  0  0
 42 43  1  0  0  0
 42 66  1  0  0  0
 42109  1  0  0  0
 42110  1  0  0  0
 43 44  1  0  0  0
 44111  1  0  0  0
 45 46  2  0  0  0
 45112  1  0  0  0
 46113  1  0  0  0
 47114  1  0  0  0
 47115  1  0  0  0
 48 56  1  0  0  0
 48 65  1  0  0  0
 48116  1  0  0  0
 49 50  1  0  0  0
 49 53  1  0  0  0
 49 64  1  0  0  0
 49117  1  0  0  0
 50 51  1  0  0  0
 50118  1  0  0  0
 50119  1  0  0  0
 51 52  1  0  0  0
 51120  1  0  0  0
 51121  1  0  0  0
 52122  1  0  0  0
 52123  1  0  0  0
 53 54  1  0  0  0
 54 55  2  0  0  0
 54124  1  0  0  0
 55 57  1  0  0  0
 55125  1  0  0  0
 56 69  2  0  0  0
 57 58  2  0  0  0
 57126  1  0  0  0
 58127  1  0  0  0
 59 60  1  0  0  0
 59 61  1  0  0  0
 59 62  1  0  0  0
 60128  1  0  0  0
 60129  1  0  0  0
 60130  1  0  0  0
 61131  1  0  0  0
 61132  1  0  0  0
 61133  1  0  0  0
 62134  1  0  0  0
 62135  1  0  0  0
 62136  1  0  0  0
 63 65  1  0  0  0
 63137  1  0  0  0
 63138  1  0  0  0
 63139  1  0  0  0
 64140  1  0  0  0
 65141  1  0  0  0
 68 79  1  0  0  0
 71 72  1  0  0  0
 71 74  2  0  0  0
 71 82  1  0  0  0
 72 75  1  0  0  0
 72 80  2  0  0  0
 73 75  1  0  0  0
 73 76  1  0  0  0
 73 81  2  0  0  0
 74 78  1  0  0  0
 74142  1  0  0  0
 75143  1  0  0  0
 75144  1  0  0  0
 76 82  1  0  0  0
 76145  1  0  0  0
 76146  1  0  0  0
 77147  1  0  0  0
 77148  1  0  0  0
 77149  1  0  0  0
 77 82  1  0  0  0
 78 79  1  0  0  0
 78150  1  0  0  0
 78151  1  0  0  0
 79152  1  0  0  0
 79153  1  0  0  0
 80154  1  0  0  0
 82155  1  0  0  0
M  CHG  1  82   1
M  ISO  4   1 100  68 101  79 101  81 100
M  END
> <chiral flag>
0

> <version>
0

> <s_m_source_file>
/data/baiqing/PycharmProjects/Reinvent-master-3.2/result/LINK_invent/BTK/process_docking_weight1_custom_product_contain_oxygen_bond_distance_aromatic_linkinvent_7_9_3/rearranged_h_0110.sdf

> <i_m_source_file_index>
10

> <r_mmod_Potential_Energy-OPLS-2005>
214.478622436523

> <r_mmod_Stretch_Energy-OPLS-2005>
223.217483520508

> <r_mmod_Bend_Energy-OPLS-2005>
285.908935546875

> <r_mmod_Torsional_Energy-OPLS-2005>
186.319046020508

> <r_mmod_Improper_Torsional_Energy-OPLS-2005>
2.7620370388031

> <r_mmod_Van_der_Waal_Energy-OPLS-2005>
129.102310180664

> <r_mmod_Electrostatic_Energy-OPLS-2005>
-291.548706054688

> <r_mmod_Solvation_Energy-OPLS-2005>
-486.320190429688

> <b_mmod_Minimization_Converged-OPLS-2005>
0

> <r_mmod_RMS_Derivative-OPLS-2005>
0.896129250526428

$$$$
11
                    3D
 Structure written by MMmdl.
155163  0  0  1  0            999 V2000
  -30.6249  -14.6361   20.5175 C   0  0  0  0  0  0
  -30.4370  -12.3942   19.4563 C   0  0  0  0  0  0
  -29.5091  -12.5215   18.2271 C   0  0  0  0  0  0
  -28.0317  -12.3563   18.6365 C   0  0  0  0  0  0
  -27.6548  -13.2189   19.8709 C   0  0  2  0  0  0
  -28.6975  -13.0649   21.0004 C   0  0  0  0  0  0
  -25.2555  -13.8139   20.5678 C   0  0  0  0  0  0
  -24.1821  -13.0412   20.9160 C   0  0  0  0  0  0
  -24.6393  -11.6890   20.8710 C   0  0  0  0  0  0
  -23.9053  -10.4286   21.0381 C   0  0  0  0  0  0
  -24.3603   -9.4206   21.9168 C   0  0  0  0  0  0
  -23.6288   -8.2235   22.0739 C   0  0  0  0  0  0
  -22.4273   -8.0268   21.3526 C   0  0  0  0  0  0
  -21.9895   -9.0240   20.4631 C   0  0  0  0  0  0
  -22.7221  -10.2122   20.3035 C   0  0  0  0  0  0
  -21.6855   -6.0728   22.5274 C   0  0  0  0  0  0
  -21.4018   -6.5636   23.8205 C   0  0  0  0  0  0
  -21.3665   -5.6789   24.9165 C   0  0  0  0  0  0
  -21.6043   -4.3047   24.7218 C   0  0  0  0  0  0
  -21.8824   -3.8141   23.4338 C   0  0  0  0  0  0
  -21.9198   -4.6958   22.3396 C   0  0  0  0  0  0
  -22.7853  -13.5215   21.1845 C   0  0  0  0  0  0
  -22.1671   -4.2145   21.0971 F   0  0  0  0  0  0
  -21.5631   -3.4525   25.7729 F   0  0  0  0  0  0
  -30.0138  -13.4109   20.4408 N   0  0  0  0  0  0
  -26.3000  -12.9343   20.3341 N   0  0  0  0  0  0
  -25.9328  -11.6490   20.5744 N   0  0  0  0  0  0
  -22.0493  -12.8206   22.0397 N   0  0  0  0  0  0
  -25.4247  -15.1849   20.4140 N   0  0  0  0  0  0
  -31.7861  -14.7903   20.1248 O   0  0  0  0  0  0
  -21.6635   -6.8865   21.4231 O   0  0  0  0  0  0
  -22.3545  -14.5534   20.6722 O   0  0  0  0  0  0
  -24.6265  -31.8619   23.2072 C   0  0  0  0  0  0
  -25.9121  -32.4785   23.8382 C   0  0  1  0  0  0
  -27.2181  -27.3276   20.1147 C   0  0  0  0  0  0
  -25.5950  -33.8581   24.2299 N   0  0  0  0  0  0
  -23.4182  -30.4900   21.5506 C   0  0  2  0  0  0
  -24.8622  -28.9537   20.1116 C   0  0  0  0  0  0
  -22.7472  -29.4652   22.4959 C   0  0  0  0  0  0
  -18.0286  -28.1395   22.8500 C   0  0  0  0  0  0
  -24.1490  -36.7297   23.2640 C   0  0  0  0  0  0
  -25.9607  -30.7973   21.3774 C   0  0  0  0  0  0
  -26.0338  -29.4286   20.7135 C   0  0  0  0  0  0
  -27.2157  -28.6298   20.7040 C   0  0  0  0  0  0
  -26.0179  -26.9100   19.4887 C   0  0  0  0  0  0
  -24.8560  -27.6995   19.4885 C   0  0  0  0  0  0
  -23.6301  -29.8321   20.1638 C   0  0  0  0  0  0
  -25.4109  -36.3087   24.0336 C   0  0  1  0  0  0
  -20.5888  -28.3696   23.1289 C   0  0  2  0  0  0
  -20.6779  -26.9423   22.5406 C   0  0  0  0  0  0
  -19.5738  -26.6393   21.5227 C   0  0  0  0  0  0
  -18.1927  -26.7938   22.1650 C   0  0  0  0  0  0
  -19.1539  -28.8864   23.2888 C   0  0  0  0  0  0
  -18.9460  -30.1472   23.8886 C   0  0  0  0  0  0
  -17.6454  -30.6594   24.0565 C   0  0  0  0  0  0
  -25.9052  -34.9457   23.5114 C   0  0  0  0  0  0
  -16.5346  -29.9087   23.6340 C   0  0  0  0  0  0
  -16.7275  -28.6515   23.0358 C   0  0  0  0  0  0
  -26.4498  -31.6585   25.0749 C   0  0  0  0  0  0
  -25.3736  -31.3753   26.1486 C   0  0  0  0  0  0
  -27.0300  -30.2986   24.6220 C   0  0  0  0  0  0
  -27.6086  -32.4301   25.7494 C   0  0  0  0  0  0
  -27.5582  -37.1800   24.8458 C   0  0  0  0  0  0
  -21.4193  -29.3052   22.3687 N   0  0  0  0  0  0
  -26.4289  -37.3781   23.9416 N   0  0  0  0  0  0
  -24.6874  -31.0648   22.1021 N   0  0  0  0  0  0
  -23.4205  -28.8187   23.3029 O   0  0  0  0  0  0
  -28.3304  -26.4676   20.1697 O   0  0  0  0  0  0
  -26.5603  -34.8923   22.4669 O   0  0  0  0  0  0
  -23.5430  -32.1409   23.7412 O   0  0  0  0  0  0
  -31.2207  -19.2347   20.3635 C   0  0  0  0  0  0
  -31.1677  -17.8164   20.4651 C   0  0  0  0  0  0
  -28.8750  -19.3912   20.8127 C   0  0  0  0  0  0
  -30.0837  -20.0806   20.5300 C   0  0  0  0  0  0
  -29.9578  -17.1384   20.7523 C   0  0  0  0  0  0
  -28.8068  -17.9595   20.9423 C   0  0  0  0  0  0
  -29.0881  -22.6450   20.4043 C   0  0  0  0  0  0
  -29.2139  -23.9939   20.1490 C   0  0  0  0  0  0
  -30.2100  -21.6162   20.4014 C   0  0  0  0  0  0
  -26.6007  -18.0444   21.8825 C   0  0  0  0  0  0
  -28.0552  -25.0229   20.0165 C   0  0  0  0  0  0
  -31.3722  -22.1031   20.2655 N   0  0  0  0  0  0
  -29.8266  -15.6852   20.8909 N   0  0  0  0  0  0
  -27.6336  -17.2993   21.2445 O   0  0  0  0  0  0
  -31.4799  -12.5176   19.1594 H   0  0  0  0  0  0
  -30.3669  -11.3952   19.8891 H   0  0  0  0  0  0
  -29.7745  -11.7790   17.4735 H   0  0  0  0  0  0
  -29.6512  -13.4963   17.7572 H   0  0  0  0  0  0
  -27.8685  -11.3016   18.8594 H   0  0  0  0  0  0
  -27.3762  -12.5936   17.7978 H   0  0  0  0  0  0
  -27.6745  -14.2575   19.5405 H   0  0  0  0  0  0
  -28.7069  -12.0395   21.3724 H   0  0  0  0  0  0
  -28.4415  -13.6881   21.8579 H   0  0  0  0  0  0
  -25.2745   -9.5696   22.4735 H   0  0  0  0  0  0
  -24.0005   -7.4623   22.7452 H   0  0  0  0  0  0
  -21.0822   -8.8749   19.8941 H   0  0  0  0  0  0
  -22.3670  -10.9649   19.6137 H   0  0  0  0  0  0
  -21.2011   -7.6147   23.9706 H   0  0  0  0  0  0
  -21.1488   -6.0514   25.9068 H   0  0  0  0  0  0
  -22.0601   -2.7605   23.2825 H   0  0  0  0  0  0
  -22.4112  -11.9859   22.4767 H   0  0  0  0  0  0
  -21.1107  -13.1222   22.2611 H   0  0  0  0  0  0
  -24.6628  -15.8365   20.5607 H   0  0  0  0  0  0
  -26.3032  -15.6416   20.2018 H   0  0  0  0  0  0
  -26.7195  -32.5446   23.1138 H   0  0  0  0  0  0
  -25.0101  -33.9722   25.0448 H   0  0  0  0  0  0
  -22.7124  -31.3129   21.4147 H   0  0  0  0  0  0
  -23.3761  -35.9622   23.3285 H   0  0  0  0  0  0
  -24.3595  -36.8921   22.2060 H   0  0  0  0  0  0
  -23.7229  -37.6494   23.6656 H   0  0  0  0  0  0
  -26.0973  -31.5684   20.6177 H   0  0  0  0  0  0
  -26.8393  -30.8363   22.0101 H   0  0  0  0  0  0
  -28.1117  -28.9941   21.1860 H   0  0  0  0  0  0
  -25.9288  -25.9554   18.9958 H   0  0  0  0  0  0
  -23.9590  -27.3302   19.0116 H   0  0  0  0  0  0
  -23.7439  -30.6115   19.4089 H   0  0  0  0  0  0
  -22.7496  -29.2604   19.8640 H   0  0  0  0  0  0
  -25.1284  -36.1945   25.0829 H   0  0  0  0  0  0
  -20.9990  -28.3264   24.1409 H   0  0  0  0  0  0
  -20.5737  -26.2297   23.3602 H   0  0  0  0  0  0
  -21.6637  -26.7486   22.1163 H   0  0  0  0  0  0
  -19.6897  -25.6305   21.1259 H   0  0  0  0  0  0
  -19.6668  -27.3205   20.6758 H   0  0  0  0  0  0
  -17.4199  -26.6703   21.4050 H   0  0  0  0  0  0
  -18.0315  -26.0081   22.9046 H   0  0  0  0  0  0
  -19.7928  -30.7312   24.2236 H   0  0  0  0  0  0
  -17.5005  -31.6278   24.5154 H   0  0  0  0  0  0
  -15.5343  -30.2987   23.7673 H   0  0  0  0  0  0
  -15.8682  -28.0842   22.7052 H   0  0  0  0  0  0
  -24.5837  -30.7196   25.7802 H   0  0  0  0  0  0
  -24.9025  -32.2938   26.4993 H   0  0  0  0  0  0
  -25.8044  -30.8832   27.0217 H   0  0  0  0  0  0
  -26.2848  -29.6759   24.1252 H   0  0  0  0  0  0
  -27.3950  -29.7232   25.4742 H   0  0  0  0  0  0
  -27.8764  -30.4215   23.9461 H   0  0  0  0  0  0
  -27.2740  -33.3641   26.2017 H   0  0  0  0  0  0
  -28.3922  -32.6779   25.0323 H   0  0  0  0  0  0
  -28.0721  -31.8444   26.5445 H   0  0  0  0  0  0
  -28.2585  -38.0113   24.7525 H   0  0  0  0  0  0
  -28.1090  -36.2642   24.6250 H   0  0  0  0  0  0
  -27.2309  -37.1405   25.8863 H   0  0  0  0  0  0
  -20.9368  -29.8768   21.6893 H   0  0  0  0  0  0
  -26.0172  -38.2861   24.1410 H   0  0  0  0  0  0
  -32.1841  -19.6699   20.1442 H   0  0  0  0  0  0
  -32.0841  -17.2611   20.3302 H   0  0  0  0  0  0
  -27.9883  -19.9923   20.9342 H   0  0  0  0  0  0
  -28.1084  -22.2338   20.6003 H   0  0  0  0  0  0
  -30.1966  -24.4010   19.9596 H   0  0  0  0  0  0
  -25.7741  -17.3800   22.1314 H   0  0  0  0  0  0
  -26.1940  -18.8266   21.2411 H   0  0  0  0  0  0
  -26.9540  -18.4862   22.8165 H   0  0  0  0  0  0
  -27.2468  -24.7193   20.6850 H   0  0  0  0  0  0
  -27.7104  -24.8622   18.9952 H   0  0  0  0  0  0
  -32.0792  -21.3783   20.2605 H   0  0  0  0  0  0
  -28.9079  -15.3961   21.1926 H   0  0  0  0  0  0
  1 25  1  0  0  0
  1 30  2  0  0  0
  1 83  1  0  0  0
  2  3  1  0  0  0
  2 25  1  0  0  0
  2 85  1  0  0  0
  2 86  1  0  0  0
  3  4  1  0  0  0
  3 87  1  0  0  0
  3 88  1  0  0  0
  4  5  1  0  0  0
  4 89  1  0  0  0
  4 90  1  0  0  0
  5  6  1  0  0  0
  5 26  1  0  0  0
  5 91  1  0  0  0
  6 25  1  0  0  0
  6 92  1  0  0  0
  6 93  1  0  0  0
  7  8  2  0  0  0
  7 26  1  0  0  0
  7 29  1  0  0  0
  8  9  1  0  0  0
  8 22  1  0  0  0
  9 10  1  0  0  0
  9 27  2  0  0  0
 10 11  2  0  0  0
 10 15  1  0  0  0
 11 12  1  0  0  0
 11 94  1  0  0  0
 12 13  2  0  0  0
 12 95  1  0  0  0
 13 14  1  0  0  0
 13 31  1  0  0  0
 14 15  2  0  0  0
 14 96  1  0  0  0
 15 97  1  0  0  0
 16 17  2  0  0  0
 16 21  1  0  0  0
 16 31  1  0  0  0
 17 18  1  0  0  0
 17 98  1  0  0  0
 18 19  2  0  0  0
 18 99  1  0  0  0
 19 20  1  0  0  0
 19 24  1  0  0  0
 20 21  2  0  0  0
 20100  1  0  0  0
 21 23  1  0  0  0
 22 28  1  0  0  0
 22 32  2  0  0  0
 26 27  1  0  0  0
 28101  1  0  0  0
 28102  1  0  0  0
 29103  1  0  0  0
 29104  1  0  0  0
 33 34  1  0  0  0
 33 66  1  0  0  0
 33 70  2  0  0  0
 34 36  1  0  0  0
 34 59  1  0  0  0
 34105  1  0  0  0
 35 44  2  0  0  0
 35 45  1  0  0  0
 35 68  1  0  0  0
 36 56  1  0  0  0
 36106  1  0  0  0
 37 39  1  0  0  0
 37 47  1  0  0  0
 37 66  1  0  0  0
 37107  1  0  0  0
 38 43  2  0  0  0
 38 46  1  0  0  0
 38 47  1  0  0  0
 39 64  1  0  0  0
 39 67  2  0  0  0
 40 52  1  0  0  0
 40 53  2  0  0  0
 40 58  1  0  0  0
 41108  1  0  0  0
 41109  1  0  0  0
 41110  1  0  0  0
 41 48  1  0  0  0
 42 43  1  0  0  0
 42 66  1  0  0  0
 42111  1  0  0  0
 42112  1  0  0  0
 43 44  1  0  0  0
 44113  1  0  0  0
 45 46  2  0  0  0
 45114  1  0  0  0
 46115  1  0  0  0
 47116  1  0  0  0
 47117  1  0  0  0
 48 56  1  0  0  0
 48 65  1  0  0  0
 48118  1  0  0  0
 49 50  1  0  0  0
 49 53  1  0  0  0
 49 64  1  0  0  0
 49119  1  0  0  0
 50 51  1  0  0  0
 50120  1  0  0  0
 50121  1  0  0  0
 51 52  1  0  0  0
 51122  1  0  0  0
 51123  1  0  0  0
 52124  1  0  0  0
 52125  1  0  0  0
 53 54  1  0  0  0
 54 55  2  0  0  0
 54126  1  0  0  0
 55 57  1  0  0  0
 55127  1  0  0  0
 56 69  2  0  0  0
 57 58  2  0  0  0
 57128  1  0  0  0
 58129  1  0  0  0
 59 60  1  0  0  0
 59 61  1  0  0  0
 59 62  1  0  0  0
 60130  1  0  0  0
 60131  1  0  0  0
 60132  1  0  0  0
 61133  1  0  0  0
 61134  1  0  0  0
 61135  1  0  0  0
 62136  1  0  0  0
 62137  1  0  0  0
 62138  1  0  0  0
 63 65  1  0  0  0
 63139  1  0  0  0
 63140  1  0  0  0
 63141  1  0  0  0
 64142  1  0  0  0
 65143  1  0  0  0
 68 81  1  0  0  0
 71 72  2  0  0  0
 71 74  1  0  0  0
 71144  1  0  0  0
 72 75  1  0  0  0
 72145  1  0  0  0
 73 74  2  0  0  0
 73 76  1  0  0  0
 73146  1  0  0  0
 74 79  1  0  0  0
 75 76  2  0  0  0
 75 83  1  0  0  0
 76 84  1  0  0  0
 77 78  2  0  0  0
 77 79  1  0  0  0
 77147  1  0  0  0
 78 81  1  0  0  0
 78148  1  0  0  0
 79 82  2  0  0  0
 80 84  1  0  0  0
 80149  1  0  0  0
 80150  1  0  0  0
 80151  1  0  0  0
 81152  1  0  0  0
 81153  1  0  0  0
 82154  1  0  0  0
 83155  1  0  0  0
M  ISO  4   1 100  68 101  81 101  83 100
M  END
> <chiral flag>
0

> <version>
0

> <s_m_source_file>
/data/baiqing/PycharmProjects/Reinvent-master-3.2/result/LINK_invent/BTK/process_docking_weight1_custom_product_contain_oxygen_bond_distance_aromatic_linkinvent_7_9_3/rearranged_h_0110.sdf

> <i_m_source_file_index>
11

> <r_mmod_Potential_Energy-OPLS-2005>
-6.18227672576904

> <r_mmod_Stretch_Energy-OPLS-2005>
80.0382995605469

> <r_mmod_Bend_Energy-OPLS-2005>
139.308364868164

> <r_mmod_Torsional_Energy-OPLS-2005>
223.788970947266

> <r_mmod_Improper_Torsional_Energy-OPLS-2005>
4.48735857009888

> <r_mmod_Van_der_Waal_Energy-OPLS-2005>
164.871124267578

> <r_mmod_Electrostatic_Energy-OPLS-2005>
-449.245758056641

> <r_mmod_Solvation_Energy-OPLS-2005>
-216.258682250977

> <b_mmod_Minimization_Converged-OPLS-2005>
0

> <r_mmod_RMS_Derivative-OPLS-2005>
2.19220209121704

$$$$
12
                    3D
 Structure written by MMmdl.
166175  0  0  1  0            999 V2000
  -30.6297  -14.6418   20.4859 C   0  0  0  0  0  0
  -30.4431  -12.3939   19.4449 C   0  0  0  0  0  0
  -29.5080  -12.5020   18.2193 C   0  0  0  0  0  0
  -28.0336  -12.3336   18.6389 C   0  0  0  0  0  0
  -27.6551  -13.2123   19.8603 C   0  0  2  0  0  0
  -28.7049  -13.0791   20.9879 C   0  0  0  0  0  0
  -25.2594  -13.8166   20.5694 C   0  0  0  0  0  0
  -24.1846  -13.0452   20.9197 C   0  0  0  0  0  0
  -24.6408  -11.6914   20.8751 C   0  0  0  0  0  0
  -23.9074  -10.4299   21.0423 C   0  0  0  0  0  0
  -24.3619   -9.4210   21.9197 C   0  0  0  0  0  0
  -23.6282   -8.2250   22.0762 C   0  0  0  0  0  0
  -22.4267   -8.0299   21.3556 C   0  0  0  0  0  0
  -21.9905   -9.0278   20.4661 C   0  0  0  0  0  0
  -22.7246  -10.2149   20.3073 C   0  0  0  0  0  0
  -21.6851   -6.0733   22.5276 C   0  0  0  0  0  0
  -21.4019   -6.5635   23.8212 C   0  0  0  0  0  0
  -21.3650   -5.6791   24.9169 C   0  0  0  0  0  0
  -21.6038   -4.3051   24.7219 C   0  0  0  0  0  0
  -21.8818   -3.8150   23.4346 C   0  0  0  0  0  0
  -21.9192   -4.6962   22.3400 C   0  0  0  0  0  0
  -22.7867  -13.5272   21.1827 C   0  0  0  0  0  0
  -22.1663   -4.2156   21.0974 F   0  0  0  0  0  0
  -21.5613   -3.4535   25.7730 F   0  0  0  0  0  0
  -30.0197  -13.4181   20.4177 N   0  0  0  0  0  0
  -26.3014  -12.9341   20.3326 N   0  0  0  0  0  0
  -25.9337  -11.6499   20.5757 N   0  0  0  0  0  0
  -22.0476  -12.8295   22.0382 N   0  0  0  0  0  0
  -25.4310  -15.1884   20.4105 N   0  0  0  0  0  0
  -31.8023  -14.8003   20.1320 O   0  0  0  0  0  0
  -21.6640   -6.8886   21.4245 O   0  0  0  0  0  0
  -22.3578  -14.5581   20.6658 O   0  0  0  0  0  0
  -24.6247  -31.8608   23.2046 C   0  0  0  0  0  0
  -25.9091  -32.4796   23.8367 C   0  0  1  0  0  0
  -27.2212  -27.3230   20.1079 C   0  0  0  0  0  0
  -25.5898  -33.8595   24.2279 N   0  0  0  0  0  0
  -23.4173  -30.4863   21.5478 C   0  0  2  0  0  0
  -24.8630  -28.9447   20.1145 C   0  0  0  0  0  0
  -22.7458  -29.4632   22.4941 C   0  0  0  0  0  0
  -18.0277  -28.1388   22.8483 C   0  0  0  0  0  0
  -24.1477  -36.7298   23.2633 C   0  0  0  0  0  0
  -25.9594  -30.7937   21.3747 C   0  0  0  0  0  0
  -26.0349  -29.4223   20.7146 C   0  0  0  0  0  0
  -27.2177  -28.6235   20.7018 C   0  0  0  0  0  0
  -26.0216  -26.9014   19.4847 C   0  0  0  0  0  0
  -24.8572  -27.6883   19.4942 C   0  0  0  0  0  0
  -23.6308  -29.8232   20.1636 C   0  0  0  0  0  0
  -25.4105  -36.3088   24.0320 C   0  0  1  0  0  0
  -20.5873  -28.3685   23.1277 C   0  0  2  0  0  0
  -20.6761  -26.9410   22.5401 C   0  0  0  0  0  0
  -19.5742  -26.6381   21.5195 C   0  0  0  0  0  0
  -18.1923  -26.7933   22.1612 C   0  0  0  0  0  0
  -19.1530  -28.8851   23.2880 C   0  0  0  0  0  0
  -18.9461  -30.1453   23.8902 C   0  0  0  0  0  0
  -17.6464  -30.6598   24.0559 C   0  0  0  0  0  0
  -25.9043  -34.9459   23.5105 C   0  0  0  0  0  0
  -16.5354  -29.9097   23.6334 C   0  0  0  0  0  0
  -16.7266  -28.6507   23.0365 C   0  0  0  0  0  0
  -26.4460  -31.6616   25.0745 C   0  0  0  0  0  0
  -25.3682  -31.3800   26.1473 C   0  0  0  0  0  0
  -27.0279  -30.3025   24.6216 C   0  0  0  0  0  0
  -27.6025  -32.4348   25.7512 C   0  0  0  0  0  0
  -27.5579  -37.1798   24.8457 C   0  0  0  0  0  0
  -21.4169  -29.3052   22.3679 N   0  0  0  0  0  0
  -26.4285  -37.3786   23.9409 N   0  0  0  0  0  0
  -24.6861  -31.0625   22.0996 N   0  0  0  0  0  0
  -23.4185  -28.8160   23.3011 O   0  0  0  0  0  0
  -28.3352  -26.4672   20.1540 O   0  0  0  0  0  0
  -26.5626  -34.8923   22.4683 O   0  0  0  0  0  0
  -23.5413  -32.1394   23.7380 O   0  0  0  0  0  0
  -29.3078  -19.3326   19.6548 C   0  0  0  0  0  0
  -30.7062  -19.3132   21.5992 C   0  0  0  0  0  0
  -29.2924  -17.8955   19.6426 C   0  0  0  0  0  0
  -30.6859  -17.8882   21.6272 C   0  0  0  0  0  0
  -30.0175  -20.0911   20.6229 C   0  0  0  0  0  0
  -29.9839  -17.1415   20.6444 C   0  0  0  0  0  0
  -30.4624  -24.4648   20.5869 C   0  0  0  0  0  0
  -29.2168  -24.0005   20.3756 C   0  0  0  0  0  0
  -31.5679  -23.5583   20.9064 C   0  0  0  0  0  0
  -27.5685  -17.6859   17.8150 C   0  0  0  0  0  0
  -28.5222  -17.1710   18.6098 C   0  0  0  0  0  0
  -31.2291  -22.1201   21.3146 C   0  0  0  0  0  0
  -28.8974  -22.4469   20.4184 C   0  0  2  0  0  0
  -31.3894  -17.1653   22.7634 C   0  0  0  0  0  0
  -27.8664  -22.1551   21.5237 C   0  0  0  0  0  0
  -28.0710  -25.0122   20.0379 C   0  0  0  0  0  0
  -30.0817  -21.5385   20.6047 N   0  0  0  0  0  0
  -29.8043  -15.6939   20.7722 N   0  0  0  0  0  0
  -32.7467  -23.9195   20.8755 O   0  0  0  0  0  0
  -31.4838  -12.5193   19.1413 H   0  0  0  0  0  0
  -30.3796  -11.4014   19.8930 H   0  0  0  0  0  0
  -29.7717  -11.7477   17.4775 H   0  0  0  0  0  0
  -29.6437  -13.4682   17.7301 H   0  0  0  0  0  0
  -27.8793  -11.2812   18.8804 H   0  0  0  0  0  0
  -27.3762  -12.5516   17.7974 H   0  0  0  0  0  0
  -27.6684  -14.2417   19.5064 H   0  0  0  0  0  0
  -28.7215  -12.0616   21.3809 H   0  0  0  0  0  0
  -28.4573  -13.7227   21.8343 H   0  0  0  0  0  0
  -25.2759   -9.5673   22.4776 H   0  0  0  0  0  0
  -23.9971   -7.4635   22.7478 H   0  0  0  0  0  0
  -21.0826   -8.8821   19.8975 H   0  0  0  0  0  0
  -22.3712  -10.9693   19.6185 H   0  0  0  0  0  0
  -21.2034   -7.6148   23.9725 H   0  0  0  0  0  0
  -21.1462   -6.0513   25.9068 H   0  0  0  0  0  0
  -22.0606   -2.7612   23.2855 H   0  0  0  0  0  0
  -22.4066  -11.9977   22.4835 H   0  0  0  0  0  0
  -21.1093  -13.1359   22.2549 H   0  0  0  0  0  0
  -24.6629  -15.8392   20.5306 H   0  0  0  0  0  0
  -26.2675  -15.6315   20.0530 H   0  0  0  0  0  0
  -26.7161  -32.5461   23.1121 H   0  0  0  0  0  0
  -25.0004  -33.9747   25.0391 H   0  0  0  0  0  0
  -22.7110  -31.3066   21.4056 H   0  0  0  0  0  0
  -23.3742  -35.9630   23.3300 H   0  0  0  0  0  0
  -24.3560  -36.8923   22.2049 H   0  0  0  0  0  0
  -23.7228  -37.6496   23.6663 H   0  0  0  0  0  0
  -26.0874  -31.5591   20.6084 H   0  0  0  0  0  0
  -26.8404  -30.8425   22.0030 H   0  0  0  0  0  0
  -28.1160  -28.9857   21.1821 H   0  0  0  0  0  0
  -25.9463  -25.9459   18.9892 H   0  0  0  0  0  0
  -23.9565  -27.3154   19.0258 H   0  0  0  0  0  0
  -23.7504  -30.5980   19.4059 H   0  0  0  0  0  0
  -22.7510  -29.2514   19.8625 H   0  0  0  0  0  0
  -25.1285  -36.1940   25.0813 H   0  0  0  0  0  0
  -20.9966  -28.3260   24.1397 H   0  0  0  0  0  0
  -20.5626  -26.2302   23.3598 H   0  0  0  0  0  0
  -21.6638  -26.7421   22.1220 H   0  0  0  0  0  0
  -19.6903  -25.6281   21.1248 H   0  0  0  0  0  0
  -19.6694  -27.3166   20.6705 H   0  0  0  0  0  0
  -17.4184  -26.6665   21.4030 H   0  0  0  0  0  0
  -18.0349  -26.0074   22.9011 H   0  0  0  0  0  0
  -19.7941  -30.7259   24.2288 H   0  0  0  0  0  0
  -17.5029  -31.6286   24.5146 H   0  0  0  0  0  0
  -15.5361  -30.3010   23.7658 H   0  0  0  0  0  0
  -15.8655  -28.0822   22.7108 H   0  0  0  0  0  0
  -24.5841  -30.7157   25.7822 H   0  0  0  0  0  0
  -24.8884  -32.2991   26.4857 H   0  0  0  0  0  0
  -25.7981  -30.9012   27.0278 H   0  0  0  0  0  0
  -26.2859  -29.6829   24.1168 H   0  0  0  0  0  0
  -27.3863  -29.7247   25.4746 H   0  0  0  0  0  0
  -27.8783  -30.4292   23.9514 H   0  0  0  0  0  0
  -27.2630  -33.3636   26.2119 H   0  0  0  0  0  0
  -28.3822  -32.6939   25.0334 H   0  0  0  0  0  0
  -28.0711  -31.8461   26.5412 H   0  0  0  0  0  0
  -28.2594  -38.0095   24.7506 H   0  0  0  0  0  0
  -28.1071  -36.2629   24.6270 H   0  0  0  0  0  0
  -27.2301  -37.1437   25.8859 H   0  0  0  0  0  0
  -20.9327  -29.8809   21.6925 H   0  0  0  0  0  0
  -26.0165  -38.2856   24.1433 H   0  0  0  0  0  0
  -28.7876  -19.8749   18.8804 H   0  0  0  0  0  0
  -31.2525  -19.8074   22.3874 H   0  0  0  0  0  0
  -30.6777  -25.5209   20.5339 H   0  0  0  0  0  0
  -27.0785  -17.0626   17.0806 H   0  0  0  0  0  0
  -27.2517  -18.7165   17.8719 H   0  0  0  0  0  0
  -28.7676  -16.1297   18.4644 H   0  0  0  0  0  0
  -31.0311  -22.1129   22.3868 H   0  0  0  0  0  0
  -32.1204  -21.5162   21.1440 H   0  0  0  0  0  0
  -28.4483  -22.2001   19.4543 H   0  0  0  0  0  0
  -31.8257  -17.8611   23.4805 H   0  0  0  0  0  0
  -32.1896  -16.5358   22.3740 H   0  0  0  0  0  0
  -30.6840  -16.5307   23.3031 H   0  0  0  0  0  0
  -28.2522  -22.4284   22.5069 H   0  0  0  0  0  0
  -27.6028  -21.0983   21.5587 H   0  0  0  0  0  0
  -26.9341  -22.6968   21.3673 H   0  0  0  0  0  0
  -27.2333  -24.7795   20.6951 H   0  0  0  0  0  0
  -27.7614  -24.7814   19.0187 H   0  0  0  0  0  0
  -28.8543  -15.4034   20.9490 H   0  0  0  0  0  0
  1 25  1  0  0  0
  1 30  2  0  0  0
  1 88  1  0  0  0
  2  3  1  0  0  0
  2 25  1  0  0  0
  2 90  1  0  0  0
  2 91  1  0  0  0
  3  4  1  0  0  0
  3 92  1  0  0  0
  3 93  1  0  0  0
  4  5  1  0  0  0
  4 94  1  0  0  0
  4 95  1  0  0  0
  5  6  1  0  0  0
  5 26  1  0  0  0
  5 96  1  0  0  0
  6 25  1  0  0  0
  6 97  1  0  0  0
  6 98  1  0  0  0
  7  8  2  0  0  0
  7 26  1  0  0  0
  7 29  1  0  0  0
  8  9  1  0  0  0
  8 22  1  0  0  0
  9 10  1  0  0  0
  9 27  2  0  0  0
 10 11  2  0  0  0
 10 15  1  0  0  0
 11 12  1  0  0  0
 11 99  1  0  0  0
 12 13  2  0  0  0
 12100  1  0  0  0
 13 14  1  0  0  0
 13 31  1  0  0  0
 14 15  2  0  0  0
 14101  1  0  0  0
 15102  1  0  0  0
 16 17  2  0  0  0
 16 21  1  0  0  0
 16 31  1  0  0  0
 17 18  1  0  0  0
 17103  1  0  0  0
 18 19  2  0  0  0
 18104  1  0  0  0
 19 20  1  0  0  0
 19 24  1  0  0  0
 20 21  2  0  0  0
 20105  1  0  0  0
 21 23  1  0  0  0
 22 28  1  0  0  0
 22 32  2  0  0  0
 26 27  1  0  0  0
 28106  1  0  0  0
 28107  1  0  0  0
 29108  1  0  0  0
 29109  1  0  0  0
 33 34  1  0  0  0
 33 66  1  0  0  0
 33 70  2  0  0  0
 34 36  1  0  0  0
 34 59  1  0  0  0
 34110  1  0  0  0
 35 44  2  0  0  0
 35 45  1  0  0  0
 35 68  1  0  0  0
 36 56  1  0  0  0
 36111  1  0  0  0
 37 39  1  0  0  0
 37 47  1  0  0  0
 37 66  1  0  0  0
 37112  1  0  0  0
 38 43  2  0  0  0
 38 46  1  0  0  0
 38 47  1  0  0  0
 39 64  1  0  0  0
 39 67  2  0  0  0
 40 52  1  0  0  0
 40 53  2  0  0  0
 40 58  1  0  0  0
 41113  1  0  0  0
 41114  1  0  0  0
 41115  1  0  0  0
 41 48  1  0  0  0
 42 43  1  0  0  0
 42 66  1  0  0  0
 42116  1  0  0  0
 42117  1  0  0  0
 43 44  1  0  0  0
 44118  1  0  0  0
 45 46  2  0  0  0
 45119  1  0  0  0
 46120  1  0  0  0
 47121  1  0  0  0
 47122  1  0  0  0
 48 56  1  0  0  0
 48 65  1  0  0  0
 48123  1  0  0  0
 49 50  1  0  0  0
 49 53  1  0  0  0
 49 64  1  0  0  0
 49124  1  0  0  0
 50 51  1  0  0  0
 50125  1  0  0  0
 50126  1  0  0  0
 51 52  1  0  0  0
 51127  1  0  0  0
 51128  1  0  0  0
 52129  1  0  0  0
 52130  1  0  0  0
 53 54  1  0  0  0
 54 55  2  0  0  0
 54131  1  0  0  0
 55 57  1  0  0  0
 55132  1  0  0  0
 56 69  2  0  0  0
 57 58  2  0  0  0
 57133  1  0  0  0
 58134  1  0  0  0
 59 60  1  0  0  0
 59 61  1  0  0  0
 59 62  1  0  0  0
 60135  1  0  0  0
 60136  1  0  0  0
 60137  1  0  0  0
 61138  1  0  0  0
 61139  1  0  0  0
 61140  1  0  0  0
 62141  1  0  0  0
 62142  1  0  0  0
 62143  1  0  0  0
 63 65  1  0  0  0
 63144  1  0  0  0
 63145  1  0  0  0
 63146  1  0  0  0
 64147  1  0  0  0
 65148  1  0  0  0
 68 86  1  0  0  0
 71 73  2  0  0  0
 71 75  1  0  0  0
 71149  1  0  0  0
 72 74  1  0  0  0
 72 75  2  0  0  0
 72150  1  0  0  0
 73 76  1  0  0  0
 73 81  1  0  0  0
 74 76  2  0  0  0
 74 84  1  0  0  0
 75 87  1  0  0  0
 76 88  1  0  0  0
 77 78  2  0  0  0
 77 79  1  0  0  0
 77151  1  0  0  0
 78 83  1  0  0  0
 78 86  1  0  0  0
 79 82  1  0  0  0
 79 89  2  0  0  0
 80 81  2  0  0  0
 80152  1  0  0  0
 80153  1  0  0  0
 81154  1  0  0  0
 82 87  1  0  0  0
 82155  1  0  0  0
 82156  1  0  0  0
 83 85  1  0  0  0
 83 87  1  0  0  0
 83157  1  0  0  0
 84158  1  0  0  0
 84159  1  0  0  0
 84160  1  0  0  0
 85161  1  0  0  0
 85162  1  0  0  0
 85163  1  0  0  0
 86164  1  0  0  0
 86165  1  0  0  0
 88166  1  0  0  0
M  ISO  4   1 100  68 101  86 101  88 100
M  END
> <chiral flag>
0

> <version>
0

> <s_m_source_file>
/data/baiqing/PycharmProjects/Reinvent-master-3.2/result/LINK_invent/BTK/process_docking_weight1_custom_product_contain_oxygen_bond_distance_aromatic_linkinvent_7_9_3/rearranged_h_0110.sdf

> <i_m_source_file_index>
12

> <r_mmod_Potential_Energy-OPLS-2005>
47.1929244995117

> <r_mmod_Stretch_Energy-OPLS-2005>
85.8884353637695

> <r_mmod_Bend_Energy-OPLS-2005>
136.923080444336

> <r_mmod_Torsional_Energy-OPLS-2005>
245.077651977539

> <r_mmod_Improper_Torsional_Energy-OPLS-2005>
7.55313444137573

> <r_mmod_Van_der_Waal_Energy-OPLS-2005>
159.057327270508

> <r_mmod_Electrostatic_Energy-OPLS-2005>
-407.322845458984

> <r_mmod_Solvation_Energy-OPLS-2005>
-229.397216796875

> <b_mmod_Minimization_Converged-OPLS-2005>
0

> <r_mmod_RMS_Derivative-OPLS-2005>
2.21568417549133

$$$$
13
                    3D
 Structure written by MMmdl.
164173  0  0  1  0            999 V2000
  -30.5137  -14.9081   20.4482 C   0  0  0  0  0  0
  -30.4545  -12.5625   19.4886 C   0  0  0  0  0  0
  -29.5244  -12.5316   18.2509 C   0  0  0  0  0  0
  -28.0530  -12.3285   18.6641 C   0  0  0  0  0  0
  -27.6394  -13.2383   19.8496 C   0  0  2  0  0  0
  -28.6851  -13.2063   20.9856 C   0  0  0  0  0  0
  -25.2487  -13.8189   20.5634 C   0  0  0  0  0  0
  -24.1809  -13.0441   20.9220 C   0  0  0  0  0  0
  -24.6413  -11.6920   20.8787 C   0  0  0  0  0  0
  -23.9087  -10.4301   21.0437 C   0  0  0  0  0  0
  -24.3638   -9.4207   21.9203 C   0  0  0  0  0  0
  -23.6311   -8.2245   22.0760 C   0  0  0  0  0  0
  -22.4290   -8.0296   21.3552 C   0  0  0  0  0  0
  -21.9933   -9.0276   20.4653 C   0  0  0  0  0  0
  -22.7266  -10.2153   20.3072 C   0  0  0  0  0  0
  -21.6848   -6.0749   22.5287 C   0  0  0  0  0  0
  -21.4011   -6.5650   23.8225 C   0  0  0  0  0  0
  -21.3656   -5.6798   24.9184 C   0  0  0  0  0  0
  -21.6044   -4.3063   24.7226 C   0  0  0  0  0  0
  -21.8817   -3.8157   23.4345 C   0  0  0  0  0  0
  -21.9191   -4.6977   22.3405 C   0  0  0  0  0  0
  -22.7838  -13.5236   21.1879 C   0  0  0  0  0  0
  -22.1666   -4.2168   21.0983 F   0  0  0  0  0  0
  -21.5622   -3.4543   25.7735 F   0  0  0  0  0  0
  -29.9679  -13.6288   20.4049 N   0  0  0  0  0  0
  -26.2936  -12.9410   20.3281 N   0  0  0  0  0  0
  -25.9347  -11.6552   20.5787 N   0  0  0  0  0  0
  -22.0472  -12.8238   22.0427 N   0  0  0  0  0  0
  -25.4078  -15.1902   20.3852 N   0  0  0  0  0  0
  -31.6962  -15.0507   20.1175 O   0  0  0  0  0  0
  -21.6641   -6.8901   21.4252 O   0  0  0  0  0  0
  -22.3534  -14.5542   20.6727 O   0  0  0  0  0  0
  -24.6413  -31.8455   23.1897 C   0  0  0  0  0  0
  -25.9187  -32.4690   23.8293 C   0  0  1  0  0  0
  -27.2228  -27.1558   20.1604 C   0  0  0  0  0  0
  -25.5952  -33.8499   24.2219 N   0  0  0  0  0  0
  -23.4440  -30.4638   21.5343 C   0  0  2  0  0  0
  -24.8947  -28.8905   20.1154 C   0  0  0  0  0  0
  -22.7549  -29.4555   22.4875 C   0  0  0  0  0  0
  -18.0299  -28.1400   22.8470 C   0  0  0  0  0  0
  -24.1490  -36.7246   23.2643 C   0  0  0  0  0  0
  -25.9977  -30.7272   21.3842 C   0  0  0  0  0  0
  -26.0710  -29.3386   20.7299 C   0  0  0  0  0  0
  -27.2375  -28.4882   20.7319 C   0  0  0  0  0  0
  -26.0227  -26.8044   19.5056 C   0  0  0  0  0  0
  -24.8823  -27.6361   19.4882 C   0  0  0  0  0  0
  -23.6693  -29.7890   20.1555 C   0  0  0  0  0  0
  -25.4117  -36.3030   24.0326 C   0  0  1  0  0  0
  -20.5907  -28.3719   23.1244 C   0  0  2  0  0  0
  -20.6783  -26.9424   22.5407 C   0  0  0  0  0  0
  -19.5762  -26.6380   21.5209 C   0  0  0  0  0  0
  -18.1942  -26.7931   22.1622 C   0  0  0  0  0  0
  -19.1556  -28.8876   23.2846 C   0  0  0  0  0  0
  -18.9474  -30.1469   23.8881 C   0  0  0  0  0  0
  -17.6475  -30.6594   24.0558 C   0  0  0  0  0  0
  -25.9067  -34.9401   23.5078 C   0  0  0  0  0  0
  -16.5363  -29.9094   23.6335 C   0  0  0  0  0  0
  -16.7283  -28.6511   23.0354 C   0  0  0  0  0  0
  -26.4508  -31.6528   25.0715 C   0  0  0  0  0  0
  -25.3677  -31.3702   26.1391 C   0  0  0  0  0  0
  -27.0364  -30.2927   24.6261 C   0  0  0  0  0  0
  -27.6040  -32.4266   25.7522 C   0  0  0  0  0  0
  -27.5574  -37.1770   24.8463 C   0  0  0  0  0  0
  -21.4242  -29.3053   22.3619 N   0  0  0  0  0  0
  -26.4284  -37.3737   23.9411 N   0  0  0  0  0  0
  -24.7141  -31.0327   22.0917 N   0  0  0  0  0  0
  -23.4190  -28.8097   23.3026 O   0  0  0  0  0  0
  -28.2952  -26.1986   20.1956 O   0  0  0  0  0  0
  -26.5657  -34.8894   22.4656 O   0  0  0  0  0  0
  -23.5535  -32.1335   23.7121 O   0  0  0  0  0  0
  -30.2308  -19.9066   20.0029 C   0  0  0  0  0  0
  -30.4171  -18.4554   19.9893 C   0  0  0  0  0  0
  -28.3730  -19.6446   21.4277 C   0  0  0  0  0  0
  -28.5485  -18.2019   21.4351 C   0  0  0  0  0  0
  -29.1985  -20.5909   20.7392 C   0  0  0  0  0  0
  -29.5914  -17.5190   20.7084 C   0  0  0  0  0  0
  -29.7227  -22.4326   22.1969 C   0  0  0  0  0  0
  -27.6037  -17.3915   22.2353 C   0  0  0  0  0  0
  -26.3469  -17.7428   22.5761 C   0  0  0  0  0  0
  -25.5019  -16.8756   23.4138 C   0  0  0  0  0  0
  -30.5388  -23.7112   22.0800 C   0  0  0  0  0  0
  -30.4947  -23.9885   20.5835 C   0  0  0  0  0  0
  -29.1315  -23.4205   20.1892 C   0  0  2  0  0  0
  -24.0635  -17.3148   23.6466 C   0  0  0  0  0  0
  -28.0531  -24.6872   20.4667 C   0  0  0  0  0  0
  -29.1038  -22.0962   21.0432 N   0  0  0  0  0  0
  -29.6422  -15.9865   20.7203 N   0  0  0  0  0  0
  -29.6871  -21.7962   23.2547 O   0  0  0  0  0  0
  -25.8990  -15.8311   23.9381 O   0  0  0  0  0  0
  -31.4844  -12.7426   19.1779 H   0  0  0  0  0  0
  -30.4597  -11.5962   19.9942 H   0  0  0  0  0  0
  -29.8327  -11.7397   17.5667 H   0  0  0  0  0  0
  -29.6213  -13.4666   17.6971 H   0  0  0  0  0  0
  -27.9329  -11.2816   18.9443 H   0  0  0  0  0  0
  -27.3917  -12.4925   17.8118 H   0  0  0  0  0  0
  -27.6190  -14.2534   19.4515 H   0  0  0  0  0  0
  -28.7630  -12.2057   21.4135 H   0  0  0  0  0  0
  -28.3910  -13.8642   21.8048 H   0  0  0  0  0  0
  -25.2780   -9.5681   22.4784 H   0  0  0  0  0  0
  -24.0017   -7.4627   22.7472 H   0  0  0  0  0  0
  -21.0863   -8.8811   19.8955 H   0  0  0  0  0  0
  -22.3735  -10.9705   19.6193 H   0  0  0  0  0  0
  -21.2011   -7.6162   23.9736 H   0  0  0  0  0  0
  -21.1473   -6.0527   25.9088 H   0  0  0  0  0  0
  -22.0593   -2.7619   23.2842 H   0  0  0  0  0  0
  -22.4083  -11.9914   22.4851 H   0  0  0  0  0  0
  -21.1085  -13.1273   22.2592 H   0  0  0  0  0  0
  -24.6168  -15.8201   20.4513 H   0  0  0  0  0  0
  -26.2316  -15.6301   19.9975 H   0  0  0  0  0  0
  -26.7248  -32.5310   23.1025 H   0  0  0  0  0  0
  -25.0058  -33.9626   25.0340 H   0  0  0  0  0  0
  -22.7462  -31.2889   21.3788 H   0  0  0  0  0  0
  -23.3765  -35.9566   23.3299 H   0  0  0  0  0  0
  -24.3578  -36.8882   22.2058 H   0  0  0  0  0  0
  -23.7238  -37.6436   23.6685 H   0  0  0  0  0  0
  -26.1477  -31.4823   20.6112 H   0  0  0  0  0  0
  -26.8699  -30.7793   22.0246 H   0  0  0  0  0  0
  -28.1370  -28.8299   21.2236 H   0  0  0  0  0  0
  -25.9405  -25.8540   19.0009 H   0  0  0  0  0  0
  -23.9866  -27.2887   18.9923 H   0  0  0  0  0  0
  -23.8015  -30.5608   19.3968 H   0  0  0  0  0  0
  -22.7860  -29.2265   19.8479 H   0  0  0  0  0  0
  -25.1306  -36.1858   25.0821 H   0  0  0  0  0  0
  -20.9996  -28.3301   24.1367 H   0  0  0  0  0  0
  -20.5666  -26.2332   23.3622 H   0  0  0  0  0  0
  -21.6648  -26.7424   22.1212 H   0  0  0  0  0  0
  -19.6925  -25.6285   21.1258 H   0  0  0  0  0  0
  -19.6704  -27.3174   20.6725 H   0  0  0  0  0  0
  -17.4202  -26.6664   21.4031 H   0  0  0  0  0  0
  -18.0353  -26.0085   22.9037 H   0  0  0  0  0  0
  -19.7949  -30.7283   24.2248 H   0  0  0  0  0  0
  -17.5031  -31.6277   24.5159 H   0  0  0  0  0  0
  -15.5365  -30.2998   23.7670 H   0  0  0  0  0  0
  -15.8678  -28.0828   22.7091 H   0  0  0  0  0  0
  -24.5864  -30.7064   25.7669 H   0  0  0  0  0  0
  -24.8864  -32.2884   26.4781 H   0  0  0  0  0  0
  -25.7939  -30.8863   27.0184 H   0  0  0  0  0  0
  -26.2955  -29.6656   24.1295 H   0  0  0  0  0  0
  -27.3990  -29.7212   25.4818 H   0  0  0  0  0  0
  -27.8870  -30.4168   23.9557 H   0  0  0  0  0  0
  -27.2626  -33.3565   26.2084 H   0  0  0  0  0  0
  -28.3883  -32.6809   25.0377 H   0  0  0  0  0  0
  -28.0671  -31.8387   26.5457 H   0  0  0  0  0  0
  -28.2586  -38.0072   24.7507 H   0  0  0  0  0  0
  -28.1079  -36.2604   24.6292 H   0  0  0  0  0  0
  -27.2297  -37.1410   25.8867 H   0  0  0  0  0  0
  -20.9452  -29.8757   21.6793 H   0  0  0  0  0  0
  -26.0163  -38.2807   24.1419 H   0  0  0  0  0  0
  -30.9531  -20.5095   19.4701 H   0  0  0  0  0  0
  -31.2360  -18.0626   19.4044 H   0  0  0  0  0  0
  -27.5992  -20.0688   22.0508 H   0  0  0  0  0  0
  -27.9788  -16.4467   22.6025 H   0  0  0  0  0  0
  -25.9133  -18.6727   22.2417 H   0  0  0  0  0  0
  -31.5578  -23.5730   22.4432 H   0  0  0  0  0  0
  -30.0640  -24.5051   22.6573 H   0  0  0  0  0  0
  -31.2922  -23.4447   20.0740 H   0  0  0  0  0  0
  -30.6127  -25.0458   20.3456 H   0  0  0  0  0  0
  -29.1304  -23.1718   19.1280 H   0  0  0  0  0  0
  -24.0342  -18.1503   24.3454 H   0  0  0  0  0  0
  -23.4709  -16.4980   24.0582 H   0  0  0  0  0  0
  -23.6058  -17.6287   22.7091 H   0  0  0  0  0  0
  -27.8076  -24.6556   21.5280 H   0  0  0  0  0  0
  -27.1281  -24.3864   19.9817 H   0  0  0  0  0  0
  -28.7584  -15.6032   21.0159 H   0  0  0  0  0  0
  1 25  1  0  0  0
  1 30  2  0  0  0
  1 87  1  0  0  0
  2  3  1  0  0  0
  2 25  1  0  0  0
  2 90  1  0  0  0
  2 91  1  0  0  0
  3  4  1  0  0  0
  3 92  1  0  0  0
  3 93  1  0  0  0
  4  5  1  0  0  0
  4 94  1  0  0  0
  4 95  1  0  0  0
  5  6  1  0  0  0
  5 26  1  0  0  0
  5 96  1  0  0  0
  6 25  1  0  0  0
  6 97  1  0  0  0
  6 98  1  0  0  0
  7  8  2  0  0  0
  7 26  1  0  0  0
  7 29  1  0  0  0
  8  9  1  0  0  0
  8 22  1  0  0  0
  9 10  1  0  0  0
  9 27  2  0  0  0
 10 11  2  0  0  0
 10 15  1  0  0  0
 11 12  1  0  0  0
 11 99  1  0  0  0
 12 13  2  0  0  0
 12100  1  0  0  0
 13 14  1  0  0  0
 13 31  1  0  0  0
 14 15  2  0  0  0
 14101  1  0  0  0
 15102  1  0  0  0
 16 17  2  0  0  0
 16 21  1  0  0  0
 16 31  1  0  0  0
 17 18  1  0  0  0
 17103  1  0  0  0
 18 19  2  0  0  0
 18104  1  0  0  0
 19 20  1  0  0  0
 19 24  1  0  0  0
 20 21  2  0  0  0
 20105  1  0  0  0
 21 23  1  0  0  0
 22 28  1  0  0  0
 22 32  2  0  0  0
 26 27  1  0  0  0
 28106  1  0  0  0
 28107  1  0  0  0
 29108  1  0  0  0
 29109  1  0  0  0
 33 34  1  0  0  0
 33 66  1  0  0  0
 33 70  2  0  0  0
 34 36  1  0  0  0
 34 59  1  0  0  0
 34110  1  0  0  0
 35 44  2  0  0  0
 35 45  1  0  0  0
 35 68  1  0  0  0
 36 56  1  0  0  0
 36111  1  0  0  0
 37 39  1  0  0  0
 37 47  1  0  0  0
 37 66  1  0  0  0
 37112  1  0  0  0
 38 43  2  0  0  0
 38 46  1  0  0  0
 38 47  1  0  0  0
 39 64  1  0  0  0
 39 67  2  0  0  0
 40 52  1  0  0  0
 40 53  2  0  0  0
 40 58  1  0  0  0
 41113  1  0  0  0
 41114  1  0  0  0
 41115  1  0  0  0
 41 48  1  0  0  0
 42 43  1  0  0  0
 42 66  1  0  0  0
 42116  1  0  0  0
 42117  1  0  0  0
 43 44  1  0  0  0
 44118  1  0  0  0
 45 46  2  0  0  0
 45119  1  0  0  0
 46120  1  0  0  0
 47121  1  0  0  0
 47122  1  0  0  0
 48 56  1  0  0  0
 48 65  1  0  0  0
 48123  1  0  0  0
 49 50  1  0  0  0
 49 53  1  0  0  0
 49 64  1  0  0  0
 49124  1  0  0  0
 50 51  1  0  0  0
 50125  1  0  0  0
 50126  1  0  0  0
 51 52  1  0  0  0
 51127  1  0  0  0
 51128  1  0  0  0
 52129  1  0  0  0
 52130  1  0  0  0
 53 54  1  0  0  0
 54 55  2  0  0  0
 54131  1  0  0  0
 55 57  1  0  0  0
 55132  1  0  0  0
 56 69  2  0  0  0
 57 58  2  0  0  0
 57133  1  0  0  0
 58134  1  0  0  0
 59 60  1  0  0  0
 59 61  1  0  0  0
 59 62  1  0  0  0
 60135  1  0  0  0
 60136  1  0  0  0
 60137  1  0  0  0
 61138  1  0  0  0
 61139  1  0  0  0
 61140  1  0  0  0
 62141  1  0  0  0
 62142  1  0  0  0
 62143  1  0  0  0
 63 65  1  0  0  0
 63144  1  0  0  0
 63145  1  0  0  0
 63146  1  0  0  0
 64147  1  0  0  0
 65148  1  0  0  0
 68 85  1  0  0  0
 71 72  2  0  0  0
 71 75  1  0  0  0
 71149  1  0  0  0
 72 76  1  0  0  0
 72150  1  0  0  0
 73 74  1  0  0  0
 73 75  2  0  0  0
 73151  1  0  0  0
 74 76  2  0  0  0
 74 78  1  0  0  0
 75 86  1  0  0  0
 76 87  1  0  0  0
 77 81  1  0  0  0
 77 86  1  0  0  0
 77 88  2  0  0  0
 78 79  2  0  0  0
 78152  1  0  0  0
 79 80  1  0  0  0
 79153  1  0  0  0
 80 84  1  0  0  0
 80 89  2  0  0  0
 81 82  1  0  0  0
 81154  1  0  0  0
 81155  1  0  0  0
 82 83  1  0  0  0
 82156  1  0  0  0
 82157  1  0  0  0
 83 85  1  0  0  0
 83 86  1  0  0  0
 83158  1  0  0  0
 84159  1  0  0  0
 84160  1  0  0  0
 84161  1  0  0  0
 85162  1  0  0  0
 85163  1  0  0  0
 87164  1  0  0  0
M  ISO  4   1 100  68 101  85 101  87 100
M  END
> <chiral flag>
0

> <version>
0

> <s_m_source_file>
/data/baiqing/PycharmProjects/Reinvent-master-3.2/result/LINK_invent/BTK/process_docking_weight1_custom_product_contain_oxygen_bond_distance_aromatic_linkinvent_7_9_3/rearranged_h_0110.sdf

> <i_m_source_file_index>
13

> <r_mmod_Potential_Energy-OPLS-2005>
508.783508300781

> <r_mmod_Stretch_Energy-OPLS-2005>
228.512649536133

> <r_mmod_Bend_Energy-OPLS-2005>
302.723876953125

> <r_mmod_Torsional_Energy-OPLS-2005>
329.825714111328

> <r_mmod_Improper_Torsional_Energy-OPLS-2005>
7.58384609222412

> <r_mmod_Van_der_Waal_Energy-OPLS-2005>
125.664077758789

> <r_mmod_Electrostatic_Energy-OPLS-2005>
-418.287200927734

> <r_mmod_Solvation_Energy-OPLS-2005>
-234.554077148438

> <b_mmod_Minimization_Converged-OPLS-2005>
0

> <r_mmod_RMS_Derivative-OPLS-2005>
1.42890596389771

$$$$
14
                    3D
 Structure written by MMmdl.
167176  0  0  1  0            999 V2000
  -30.5860  -14.6949   20.4905 C   0  0  0  0  0  0
  -30.4433  -12.4237   19.4656 C   0  0  0  0  0  0
  -29.5154  -12.5279   18.2335 C   0  0  0  0  0  0
  -28.0360  -12.3571   18.6364 C   0  0  0  0  0  0
  -27.6519  -13.2216   19.8679 C   0  0  2  0  0  0
  -28.6967  -13.0789   20.9977 C   0  0  0  0  0  0
  -25.2520  -13.8171   20.5638 C   0  0  0  0  0  0
  -24.1803  -13.0430   20.9160 C   0  0  0  0  0  0
  -24.6389  -11.6908   20.8728 C   0  0  0  0  0  0
  -23.9062  -10.4297   21.0396 C   0  0  0  0  0  0
  -24.3610   -9.4214   21.9174 C   0  0  0  0  0  0
  -23.6285   -8.2248   22.0752 C   0  0  0  0  0  0
  -22.4266   -8.0278   21.3551 C   0  0  0  0  0  0
  -21.9904   -9.0243   20.4642 C   0  0  0  0  0  0
  -22.7231  -10.2124   20.3049 C   0  0  0  0  0  0
  -21.6852   -6.0736   22.5288 C   0  0  0  0  0  0
  -21.4010   -6.5631   23.8226 C   0  0  0  0  0  0
  -21.3665   -5.6780   24.9182 C   0  0  0  0  0  0
  -21.6045   -4.3045   24.7229 C   0  0  0  0  0  0
  -21.8824   -3.8147   23.4348 C   0  0  0  0  0  0
  -21.9190   -4.6963   22.3406 C   0  0  0  0  0  0
  -22.7823  -13.5220   21.1826 C   0  0  0  0  0  0
  -22.1659   -4.2148   21.0982 F   0  0  0  0  0  0
  -21.5633   -3.4531   25.7745 F   0  0  0  0  0  0
  -30.0086  -13.4462   20.4406 N   0  0  0  0  0  0
  -26.2978  -12.9366   20.3344 N   0  0  0  0  0  0
  -25.9323  -11.6514   20.5764 N   0  0  0  0  0  0
  -22.0470  -12.8226   22.0398 N   0  0  0  0  0  0
  -25.4181  -15.1892   20.4016 N   0  0  0  0  0  0
  -31.7312  -14.8802   20.0694 O   0  0  0  0  0  0
  -21.6636   -6.8868   21.4247 O   0  0  0  0  0  0
  -22.3498  -14.5513   20.6662 O   0  0  0  0  0  0
  -24.6281  -31.8558   23.1983 C   0  0  0  0  0  0
  -25.9108  -32.4753   23.8346 C   0  0  1  0  0  0
  -27.2382  -27.2919   20.1012 C   0  0  0  0  0  0
  -25.5914  -33.8566   24.2251 N   0  0  0  0  0  0
  -23.4266  -30.4772   21.5401 C   0  0  2  0  0  0
  -24.8768  -28.9305   20.1042 C   0  0  0  0  0  0
  -22.7497  -29.4617   22.4920 C   0  0  0  0  0  0
  -18.0285  -28.1405   22.8492 C   0  0  0  0  0  0
  -24.1482  -36.7301   23.2645 C   0  0  0  0  0  0
  -25.9692  -30.7745   21.3769 C   0  0  0  0  0  0
  -26.0441  -29.4004   20.7162 C   0  0  0  0  0  0
  -27.2217  -28.5895   20.7125 C   0  0  0  0  0  0
  -26.0443  -26.8822   19.4765 C   0  0  0  0  0  0
  -24.8803  -27.6754   19.4773 C   0  0  0  0  0  0
  -23.6433  -29.8105   20.1566 C   0  0  0  0  0  0
  -25.4106  -36.3075   24.0323 C   0  0  1  0  0  0
  -20.5877  -28.3723   23.1275 C   0  0  2  0  0  0
  -20.6767  -26.9436   22.5418 C   0  0  0  0  0  0
  -19.5751  -26.6397   21.5221 C   0  0  0  0  0  0
  -18.1929  -26.7948   22.1635 C   0  0  0  0  0  0
  -19.1532  -28.8880   23.2893 C   0  0  0  0  0  0
  -18.9468  -30.1484   23.8913 C   0  0  0  0  0  0
  -17.6462  -30.6610   24.0573 C   0  0  0  0  0  0
  -25.9052  -34.9442   23.5086 C   0  0  0  0  0  0
  -16.5354  -29.9103   23.6336 C   0  0  0  0  0  0
  -16.7271  -28.6524   23.0344 C   0  0  0  0  0  0
  -26.4478  -31.6587   25.0739 C   0  0  0  0  0  0
  -25.3694  -31.3724   26.1448 C   0  0  0  0  0  0
  -27.0324  -30.2997   24.6235 C   0  0  0  0  0  0
  -27.6032  -32.4324   25.7511 C   0  0  0  0  0  0
  -27.5575  -37.1799   24.8451 C   0  0  0  0  0  0
  -21.4199  -29.3064   22.3663 N   0  0  0  0  0  0
  -26.4276  -37.3780   23.9412 N   0  0  0  0  0  0
  -24.6937  -31.0529   22.0955 N   0  0  0  0  0  0
  -23.4192  -28.8142   23.3017 O   0  0  0  0  0  0
  -28.3451  -26.4245   20.2171 O   0  0  0  0  0  0
  -26.5646  -34.8900   22.4666 O   0  0  0  0  0  0
  -23.5441  -32.1388   23.7272 O   0  0  0  0  0  0
  -30.3509  -17.9724   19.7677 C   0  0  0  0  0  0
  -28.5070  -19.2586   21.4154 C   0  0  0  0  0  0
  -30.0456  -19.3728   19.5739 C   0  0  0  0  0  0
  -29.0743  -20.0562   20.3818 C   0  0  0  0  0  0
  -29.7142  -17.1765   20.7644 C   0  0  0  0  0  0
  -28.8127  -17.8785   21.6065 C   0  0  0  0  0  0
  -28.2611  -23.7770   19.4615 C   0  0  0  0  0  0
  -28.9358  -22.7186   20.0802 C   0  0  0  0  0  0
  -27.1462  -23.3761   18.5443 C   0  0  0  0  0  0
  -26.7168  -21.9129   18.4739 C   0  0  0  0  0  0
  -27.0597  -21.1613   19.7540 C   0  0  0  0  0  0
  -30.2294  -22.9442   20.8434 C   0  0  0  0  0  0
  -32.2328  -20.3014   18.6731 C   0  0  0  0  0  0
  -30.7335  -20.0913   18.4205 C   0  0  0  0  0  0
  -28.7019  -25.3104   19.2887 C   0  0  0  0  0  0
  -28.4710  -21.3494   20.0827 N   0  0  0  0  0  0
  -28.1745  -17.1782   22.6334 N   0  0  0  0  0  0
  -29.7802  -15.7138   20.9390 N   0  0  0  0  0  0
  -26.6098  -24.1346   17.7334 O   0  0  0  0  0  0
  -31.4850  -12.5594   19.1688 H   0  0  0  0  0  0
  -30.3849  -11.4278   19.9090 H   0  0  0  0  0  0
  -29.7924  -11.7840   17.4851 H   0  0  0  0  0  0
  -29.6533  -13.5017   17.7602 H   0  0  0  0  0  0
  -27.8717  -11.3029   18.8587 H   0  0  0  0  0  0
  -27.3872  -12.5951   17.7935 H   0  0  0  0  0  0
  -27.6671  -14.2590   19.5326 H   0  0  0  0  0  0
  -28.7200  -12.0533   21.3700 H   0  0  0  0  0  0
  -28.4313  -13.6981   21.8558 H   0  0  0  0  0  0
  -25.2749   -9.5688   22.4755 H   0  0  0  0  0  0
  -23.9992   -7.4640   22.7467 H   0  0  0  0  0  0
  -21.0842   -8.8751   19.8932 H   0  0  0  0  0  0
  -22.3688  -10.9653   19.6157 H   0  0  0  0  0  0
  -21.1999   -7.6136   23.9732 H   0  0  0  0  0  0
  -21.1485   -6.0507   25.9085 H   0  0  0  0  0  0
  -22.0600   -2.7610   23.2857 H   0  0  0  0  0  0
  -22.4067  -11.9878   22.4794 H   0  0  0  0  0  0
  -21.1086  -13.1257   22.2599 H   0  0  0  0  0  0
  -24.6550  -15.8442   20.5277 H   0  0  0  0  0  0
  -26.2860  -15.6408   20.1463 H   0  0  0  0  0  0
  -26.7186  -32.5409   23.1110 H   0  0  0  0  0  0
  -24.9944  -33.9728   25.0310 H   0  0  0  0  0  0
  -22.7228  -31.2982   21.3931 H   0  0  0  0  0  0
  -23.3738  -35.9641   23.3275 H   0  0  0  0  0  0
  -24.3567  -36.8969   22.2071 H   0  0  0  0  0  0
  -23.7239  -37.6495   23.6685 H   0  0  0  0  0  0
  -26.1019  -31.5335   20.6051 H   0  0  0  0  0  0
  -26.8499  -30.8252   22.0064 H   0  0  0  0  0  0
  -28.1141  -28.9422   21.2114 H   0  0  0  0  0  0
  -25.9667  -25.9134   19.0314 H   0  0  0  0  0  0
  -23.9828  -27.3038   19.0028 H   0  0  0  0  0  0
  -23.7616  -30.5848   19.3982 H   0  0  0  0  0  0
  -22.7633  -29.2390   19.8569 H   0  0  0  0  0  0
  -25.1283  -36.1922   25.0819 H   0  0  0  0  0  0
  -21.0001  -28.3305   24.1379 H   0  0  0  0  0  0
  -20.5663  -26.2342   23.3630 H   0  0  0  0  0  0
  -21.6640  -26.7441   22.1219 H   0  0  0  0  0  0
  -19.6902  -25.6304   21.1268 H   0  0  0  0  0  0
  -19.6679  -27.3197   20.6742 H   0  0  0  0  0  0
  -17.4192  -26.6703   21.4045 H   0  0  0  0  0  0
  -18.0340  -26.0095   22.9043 H   0  0  0  0  0  0
  -19.7928  -30.7312   24.2282 H   0  0  0  0  0  0
  -17.4996  -31.6275   24.5199 H   0  0  0  0  0  0
  -15.5354  -30.2999   23.7655 H   0  0  0  0  0  0
  -15.8675  -28.0850   22.7031 H   0  0  0  0  0  0
  -24.5854  -30.7104   25.7743 H   0  0  0  0  0  0
  -24.8897  -32.2899   26.4884 H   0  0  0  0  0  0
  -25.8000  -30.8869   27.0222 H   0  0  0  0  0  0
  -26.2922  -29.6759   24.1216 H   0  0  0  0  0  0
  -27.3949  -29.7241   25.4770 H   0  0  0  0  0  0
  -27.8814  -30.4245   23.9503 H   0  0  0  0  0  0
  -27.2627  -33.3605   26.2107 H   0  0  0  0  0  0
  -28.3835  -32.6937   25.0346 H   0  0  0  0  0  0
  -28.0714  -31.8453   26.5426 H   0  0  0  0  0  0
  -28.2562  -38.0121   24.7519 H   0  0  0  0  0  0
  -28.1105  -36.2662   24.6233 H   0  0  0  0  0  0
  -27.2305  -37.1395   25.8855 H   0  0  0  0  0  0
  -20.9382  -29.8812   21.6889 H   0  0  0  0  0  0
  -26.0151  -38.2852   24.1423 H   0  0  0  0  0  0
  -31.0475  -17.4942   19.0953 H   0  0  0  0  0  0
  -27.7617  -19.7164   22.0505 H   0  0  0  0  0  0
  -27.2329  -21.4506   17.6324 H   0  0  0  0  0  0
  -25.6485  -21.8502   18.2667 H   0  0  0  0  0  0
  -26.7953  -20.1114   19.6186 H   0  0  0  0  0  0
  -26.4500  -21.5336   20.5790 H   0  0  0  0  0  0
  -30.0768  -23.6593   21.6532 H   0  0  0  0  0  0
  -30.9937  -23.3432   20.1758 H   0  0  0  0  0  0
  -30.6248  -22.0289   21.2850 H   0  0  0  0  0  0
  -32.6983  -20.8212   17.8356 H   0  0  0  0  0  0
  -32.7539  -19.3525   18.8011 H   0  0  0  0  0  0
  -32.4007  -20.8973   19.5708 H   0  0  0  0  0  0
  -30.2615  -21.0536   18.2229 H   0  0  0  0  0  0
  -30.5900  -19.5064   17.5120 H   0  0  0  0  0  0
  -28.4942  -25.6505   18.2736 H   0  0  0  0  0  0
  -29.7910  -25.2905   19.3167 H   0  0  0  0  0  0
  -27.6951  -17.7406   23.3293 H   0  0  0  0  0  0
  -28.7229  -16.4498   23.0756 H   0  0  0  0  0  0
  -28.9514  -15.3717   21.4012 H   0  0  0  0  0  0
  1 25  1  0  0  0
  1 30  2  0  0  0
  1 88  1  0  0  0
  2  3  1  0  0  0
  2 25  1  0  0  0
  2 90  1  0  0  0
  2 91  1  0  0  0
  3  4  1  0  0  0
  3 92  1  0  0  0
  3 93  1  0  0  0
  4  5  1  0  0  0
  4 94  1  0  0  0
  4 95  1  0  0  0
  5  6  1  0  0  0
  5 26  1  0  0  0
  5 96  1  0  0  0
  6 25  1  0  0  0
  6 97  1  0  0  0
  6 98  1  0  0  0
  7  8  2  0  0  0
  7 26  1  0  0  0
  7 29  1  0  0  0
  8  9  1  0  0  0
  8 22  1  0  0  0
  9 10  1  0  0  0
  9 27  2  0  0  0
 10 11  2  0  0  0
 10 15  1  0  0  0
 11 12  1  0  0  0
 11 99  1  0  0  0
 12 13  2  0  0  0
 12100  1  0  0  0
 13 14  1  0  0  0
 13 31  1  0  0  0
 14 15  2  0  0  0
 14101  1  0  0  0
 15102  1  0  0  0
 16 17  2  0  0  0
 16 21  1  0  0  0
 16 31  1  0  0  0
 17 18  1  0  0  0
 17103  1  0  0  0
 18 19  2  0  0  0
 18104  1  0  0  0
 19 20  1  0  0  0
 19 24  1  0  0  0
 20 21  2  0  0  0
 20105  1  0  0  0
 21 23  1  0  0  0
 22 28  1  0  0  0
 22 32  2  0  0  0
 26 27  1  0  0  0
 28106  1  0  0  0
 28107  1  0  0  0
 29108  1  0  0  0
 29109  1  0  0  0
 33 34  1  0  0  0
 33 66  1  0  0  0
 33 70  2  0  0  0
 34 36  1  0  0  0
 34 59  1  0  0  0
 34110  1  0  0  0
 35 44  2  0  0  0
 35 45  1  0  0  0
 35 68  1  0  0  0
 36 56  1  0  0  0
 36111  1  0  0  0
 37 39  1  0  0  0
 37 47  1  0  0  0
 37 66  1  0  0  0
 37112  1  0  0  0
 38 43  2  0  0  0
 38 46  1  0  0  0
 38 47  1  0  0  0
 39 64  1  0  0  0
 39 67  2  0  0  0
 40 52  1  0  0  0
 40 53  2  0  0  0
 40 58  1  0  0  0
 41113  1  0  0  0
 41114  1  0  0  0
 41115  1  0  0  0
 41 48  1  0  0  0
 42 43  1  0  0  0
 42 66  1  0  0  0
 42116  1  0  0  0
 42117  1  0  0  0
 43 44  1  0  0  0
 44118  1  0  0  0
 45 46  2  0  0  0
 45119  1  0  0  0
 46120  1  0  0  0
 47121  1  0  0  0
 47122  1  0  0  0
 48 56  1  0  0  0
 48 65  1  0  0  0
 48123  1  0  0  0
 49 50  1  0  0  0
 49 53  1  0  0  0
 49 64  1  0  0  0
 49124  1  0  0  0
 50 51  1  0  0  0
 50125  1  0  0  0
 50126  1  0  0  0
 51 52  1  0  0  0
 51127  1  0  0  0
 51128  1  0  0  0
 52129  1  0  0  0
 52130  1  0  0  0
 53 54  1  0  0  0
 54 55  2  0  0  0
 54131  1  0  0  0
 55 57  1  0  0  0
 55132  1  0  0  0
 56 69  2  0  0  0
 57 58  2  0  0  0
 57133  1  0  0  0
 58134  1  0  0  0
 59 60  1  0  0  0
 59 61  1  0  0  0
 59 62  1  0  0  0
 60135  1  0  0  0
 60136  1  0  0  0
 60137  1  0  0  0
 61138  1  0  0  0
 61139  1  0  0  0
 61140  1  0  0  0
 62141  1  0  0  0
 62142  1  0  0  0
 62143  1  0  0  0
 63 65  1  0  0  0
 63144  1  0  0  0
 63145  1  0  0  0
 63146  1  0  0  0
 64147  1  0  0  0
 65148  1  0  0  0
 68 85  1  0  0  0
 71 73  2  0  0  0
 71 75  1  0  0  0
 71149  1  0  0  0
 72 74  2  0  0  0
 72 76  1  0  0  0
 72150  1  0  0  0
 73 74  1  0  0  0
 73 84  1  0  0  0
 74 86  1  0  0  0
 75 76  2  0  0  0
 75 88  1  0  0  0
 76 87  1  0  0  0
 77 78  2  0  0  0
 77 79  1  0  0  0
 77 85  1  0  0  0
 78 82  1  0  0  0
 78 86  1  0  0  0
 79 80  1  0  0  0
 79 89  2  0  0  0
 80 81  1  0  0  0
 80151  1  0  0  0
 80152  1  0  0  0
 81 86  1  0  0  0
 81153  1  0  0  0
 81154  1  0  0  0
 82155  1  0  0  0
 82156  1  0  0  0
 82157  1  0  0  0
 83 84  1  0  0  0
 83158  1  0  0  0
 83159  1  0  0  0
 83160  1  0  0  0
 84161  1  0  0  0
 84162  1  0  0  0
 85163  1  0  0  0
 85164  1  0  0  0
 87165  1  0  0  0
 87166  1  0  0  0
 88167  1  0  0  0
M  ISO  4   1 100  68 101  85 101  88 100
M  END
> <chiral flag>
0

> <version>
0

> <s_m_source_file>
/data/baiqing/PycharmProjects/Reinvent-master-3.2/result/LINK_invent/BTK/process_docking_weight1_custom_product_contain_oxygen_bond_distance_aromatic_linkinvent_7_9_3/rearranged_h_0110.sdf

> <i_m_source_file_index>
14

> <r_mmod_Potential_Energy-OPLS-2005>
100.080879211426

> <r_mmod_Stretch_Energy-OPLS-2005>
111.734092712402

> <r_mmod_Bend_Energy-OPLS-2005>
202.904724121094

> <r_mmod_Torsional_Energy-OPLS-2005>
240.05224609375

> <r_mmod_Improper_Torsional_Energy-OPLS-2005>
11.8268623352051

> <r_mmod_Van_der_Waal_Energy-OPLS-2005>
156.13606262207

> <r_mmod_Electrostatic_Energy-OPLS-2005>
-475.053344726562

> <r_mmod_Solvation_Energy-OPLS-2005>
-214.474075317383

> <b_mmod_Minimization_Converged-OPLS-2005>
0

> <r_mmod_RMS_Derivative-OPLS-2005>
2.53963804244995

$$$$
15
                    3D
 Structure written by MMmdl.
167175  0  0  1  0            999 V2000
  -30.7540  -14.5070   20.3976 C   0  0  0  0  0  0
  -30.3837  -12.2804   19.4490 C   0  0  0  0  0  0
  -29.4734  -12.4333   18.2174 C   0  0  0  0  0  0
  -27.9930  -12.3148   18.6332 C   0  0  0  0  0  0
  -27.6275  -13.1876   19.8652 C   0  0  2  0  0  0
  -28.6977  -13.1243   20.9842 C   0  0  0  0  0  0
  -25.2476  -13.8088   20.5849 C   0  0  0  0  0  0
  -24.1705  -13.0389   20.9295 C   0  0  0  0  0  0
  -24.6260  -11.6857   20.8827 C   0  0  0  0  0  0
  -23.8969  -10.4237   21.0404 C   0  0  0  0  0  0
  -24.3523   -9.4159   21.9169 C   0  0  0  0  0  0
  -23.6223   -8.2190   22.0721 C   0  0  0  0  0  0
  -22.4208   -8.0224   21.3511 C   0  0  0  0  0  0
  -21.9844   -9.0199   20.4619 C   0  0  0  0  0  0
  -22.7165  -10.2088   20.3040 C   0  0  0  0  0  0
  -21.6836   -6.0665   22.5246 C   0  0  0  0  0  0
  -21.4017   -6.5606   23.8170 C   0  0  0  0  0  0
  -21.3676   -5.6781   24.9147 C   0  0  0  0  0  0
  -21.6038   -4.3039   24.7213 C   0  0  0  0  0  0
  -21.8832   -3.8110   23.4350 C   0  0  0  0  0  0
  -21.9199   -4.6901   22.3388 C   0  0  0  0  0  0
  -22.7746  -13.5222   21.1910 C   0  0  0  0  0  0
  -22.1653   -4.2095   21.0958 F   0  0  0  0  0  0
  -21.5641   -3.4533   25.7728 F   0  0  0  0  0  0
  -30.0158  -13.3577   20.3757 N   0  0  0  0  0  0
  -26.2848  -12.9196   20.3529 N   0  0  0  0  0  0
  -25.9172  -11.6392   20.5923 N   0  0  0  0  0  0
  -22.0408  -12.8204   22.0498 N   0  0  0  0  0  0
  -25.4237  -15.1801   20.4192 N   0  0  0  0  0  0
  -31.9755  -14.4720   20.2288 O   0  0  0  0  0  0
  -21.6631   -6.8780   21.4190 O   0  0  0  0  0  0
  -22.3439  -14.5521   20.6752 O   0  0  0  0  0  0
  -24.6097  -31.8680   23.2120 C   0  0  0  0  0  0
  -25.9003  -32.4821   23.8389 C   0  0  1  0  0  0
  -27.2439  -27.4558   20.0897 C   0  0  0  0  0  0
  -25.5884  -33.8621   24.2331 N   0  0  0  0  0  0
  -23.3968  -30.4901   21.5513 C   0  0  2  0  0  0
  -24.8425  -28.9549   20.1130 C   0  0  0  0  0  0
  -22.7389  -29.4646   22.5012 C   0  0  0  0  0  0
  -18.0255  -28.1362   22.8514 C   0  0  0  0  0  0
  -24.1498  -36.7330   23.2650 C   0  0  0  0  0  0
  -25.9207  -30.8391   21.3605 C   0  0  0  0  0  0
  -25.9973  -29.4714   20.7138 C   0  0  0  0  0  0
  -27.1921  -28.7224   20.7123 C   0  0  0  0  0  0
  -26.0690  -26.9418   19.4934 C   0  0  0  0  0  0
  -24.8721  -27.6877   19.5032 C   0  0  0  0  0  0
  -23.6008  -29.8173   20.1653 C   0  0  0  0  0  0
  -25.4116  -36.3121   24.0350 C   0  0  1  0  0  0
  -20.5849  -28.3642   23.1334 C   0  0  2  0  0  0
  -20.6743  -26.9387   22.5410 C   0  0  0  0  0  0
  -19.5707  -26.6372   21.5218 C   0  0  0  0  0  0
  -18.1902  -26.7904   22.1661 C   0  0  0  0  0  0
  -19.1510  -28.8816   23.2921 C   0  0  0  0  0  0
  -18.9442  -30.1435   23.8910 C   0  0  0  0  0  0
  -17.6445  -30.6584   24.0551 C   0  0  0  0  0  0
  -25.9035  -34.9475   23.5147 C   0  0  0  0  0  0
  -16.5327  -29.9088   23.6324 C   0  0  0  0  0  0
  -16.7244  -28.6496   23.0360 C   0  0  0  0  0  0
  -26.4450  -31.6598   25.0700 C   0  0  0  0  0  0
  -25.3738  -31.3667   26.1462 C   0  0  0  0  0  0
  -27.0268  -30.3054   24.6035 C   0  0  0  0  0  0
  -27.6033  -32.4305   25.7463 C   0  0  0  0  0  0
  -27.5580  -37.1826   24.8484 C   0  0  0  0  0  0
  -21.4124  -29.3027   22.3755 N   0  0  0  0  0  0
  -26.4315  -37.3780   23.9398 N   0  0  0  0  0  0
  -24.6602  -31.0791   22.1003 N   0  0  0  0  0  0
  -23.4177  -28.8192   23.3039 O   0  0  0  0  0  0
  -28.4459  -26.7811   20.1131 O   0  0  0  0  0  0
  -26.5607  -34.8924   22.4719 O   0  0  0  0  0  0
  -23.5286  -32.1419   23.7532 O   0  0  0  0  0  0
  -28.7916  -16.1266   18.0781 C   0  0  0  0  0  0
  -29.3838  -15.8998   19.1230 C   0  0  0  0  0  0
  -31.9539  -17.4855   18.6439 C   0  0  0  0  0  0
  -30.8039  -19.2146   19.9226 C   0  0  0  0  0  0
  -31.8076  -19.7357   17.7486 C   0  0  0  0  0  0
  -31.2021  -17.8651   19.7819 C   0  0  0  0  0  0
  -32.2113  -18.3954   17.6087 C   0  0  0  0  0  0
  -31.0850  -20.1448   18.8929 C   0  0  0  0  0  0
  -30.7425  -16.8059   20.7670 C   0  0  0  0  0  0
  -29.4119  -21.9420   19.2357 C   0  0  0  0  0  0
  -28.1591  -16.4476   16.7929 C   0  0  0  0  0  0
  -31.8025  -17.1774   15.4343 C   0  0  0  0  0  0
  -32.8356  -17.8983   16.3164 C   0  0  0  0  0  0
  -29.0388  -23.3097   18.6563 C   0  0  0  0  0  0
  -28.5933  -24.3567   19.6984 C   0  0  0  0  0  0
  -28.7231  -25.7829   19.1340 C   0  0  0  0  0  0
  -30.6347  -21.4896   18.9083 N   0  0  0  0  0  0
  -30.1068  -15.7013   20.2627 N   0  0  0  0  0  0
  -30.9901  -16.9510   21.9700 O   0  0  0  0  0  0
  -28.6087  -21.3284   19.9445 O   0  0  0  0  0  0
  -31.4321  -12.3130   19.1510 H   0  0  0  0  0  0
  -30.2333  -11.3052   19.9228 H   0  0  0  0  0  0
  -29.7031  -11.6659   17.4797 H   0  0  0  0  0  0
  -29.6560  -13.3900   17.7285 H   0  0  0  0  0  0
  -27.8044  -11.2647   18.8640 H   0  0  0  0  0  0
  -27.3449  -12.5588   17.7909 H   0  0  0  0  0  0
  -27.5704  -14.1989   19.4983 H   0  0  0  0  0  0
  -28.6849  -12.1534   21.4794 H   0  0  0  0  0  0
  -28.4952  -13.8639   21.7625 H   0  0  0  0  0  0
  -25.2631   -9.5682   22.4773 H   0  0  0  0  0  0
  -23.9939   -7.4603   22.7458 H   0  0  0  0  0  0
  -21.0760   -8.8693   19.8946 H   0  0  0  0  0  0
  -22.3560  -10.9609   19.6168 H   0  0  0  0  0  0
  -21.2003   -7.6112   23.9651 H   0  0  0  0  0  0
  -21.1493   -6.0505   25.9048 H   0  0  0  0  0  0
  -22.0608   -2.7567   23.2851 H   0  0  0  0  0  0
  -22.4022  -11.9835   22.4823 H   0  0  0  0  0  0
  -21.1015  -13.1177   22.2711 H   0  0  0  0  0  0
  -24.6697  -15.8504   20.5390 H   0  0  0  0  0  0
  -26.2868  -15.6104   20.1102 H   0  0  0  0  0  0
  -26.7084  -32.5533   23.1157 H   0  0  0  0  0  0
  -25.0001  -33.9772   25.0450 H   0  0  0  0  0  0
  -22.6838  -31.3056   21.4132 H   0  0  0  0  0  0
  -23.3731  -35.9703   23.3365 H   0  0  0  0  0  0
  -24.3576  -36.8876   22.2056 H   0  0  0  0  0  0
  -23.7285  -37.6578   23.6595 H   0  0  0  0  0  0
  -26.0267  -31.6002   20.5861 H   0  0  0  0  0  0
  -26.8122  -30.8958   21.9735 H   0  0  0  0  0  0
  -28.0827  -29.1195   21.1799 H   0  0  0  0  0  0
  -26.0584  -25.9656   19.0305 H   0  0  0  0  0  0
  -23.9828  -27.2814   19.0389 H   0  0  0  0  0  0
  -23.6924  -30.5891   19.4005 H   0  0  0  0  0  0
  -22.7282  -29.2253   19.8821 H   0  0  0  0  0  0
  -25.1302  -36.2014   25.0843 H   0  0  0  0  0  0
  -20.9942  -28.3184   24.1453 H   0  0  0  0  0  0
  -20.5660  -26.2249   23.3591 H   0  0  0  0  0  0
  -21.6599  -26.7438   22.1167 H   0  0  0  0  0  0
  -19.6866  -25.6289   21.1213 H   0  0  0  0  0  0
  -19.6635  -27.3210   20.6768 H   0  0  0  0  0  0
  -17.4164  -26.6642   21.4079 H   0  0  0  0  0  0
  -18.0347  -26.0039   22.9061 H   0  0  0  0  0  0
  -19.7912  -30.7246   24.2293 H   0  0  0  0  0  0
  -17.4994  -31.6271   24.5139 H   0  0  0  0  0  0
  -15.5324  -30.2999   23.7610 H   0  0  0  0  0  0
  -15.8652  -28.0802   22.7077 H   0  0  0  0  0  0
  -24.5908  -30.7029   25.7785 H   0  0  0  0  0  0
  -24.8941  -32.2800   26.4986 H   0  0  0  0  0  0
  -25.8110  -30.8771   27.0168 H   0  0  0  0  0  0
  -26.2779  -29.6837   24.1118 H   0  0  0  0  0  0
  -27.4094  -29.7273   25.4453 H   0  0  0  0  0  0
  -27.8593  -30.4402   23.9129 H   0  0  0  0  0  0
  -27.2663  -33.3596   26.2071 H   0  0  0  0  0  0
  -28.3829  -32.6872   25.0278 H   0  0  0  0  0  0
  -28.0713  -31.8406   26.5348 H   0  0  0  0  0  0
  -28.2639  -38.0081   24.7473 H   0  0  0  0  0  0
  -28.1025  -36.2604   24.6386 H   0  0  0  0  0  0
  -27.2269  -37.1596   25.8882 H   0  0  0  0  0  0
  -20.9279  -29.8783   21.7020 H   0  0  0  0  0  0
  -26.0220  -38.2883   24.1326 H   0  0  0  0  0  0
  -32.2479  -16.4525   18.5099 H   0  0  0  0  0  0
  -30.2291  -19.5079   20.7898 H   0  0  0  0  0  0
  -32.0066  -20.4398   16.9512 H   0  0  0  0  0  0
  -28.1754  -15.5707   16.1452 H   0  0  0  0  0  0
  -28.7023  -17.2567   16.3050 H   0  0  0  0  0  0
  -27.1266  -16.7557   16.9559 H   0  0  0  0  0  0
  -32.2558  -16.8018   14.5156 H   0  0  0  0  0  0
  -30.9855  -17.8434   15.1505 H   0  0  0  0  0  0
  -31.3607  -16.3224   15.9510 H   0  0  0  0  0  0
  -33.6484  -17.2110   16.5572 H   0  0  0  0  0  0
  -33.2796  -18.7333   15.7735 H   0  0  0  0  0  0
  -28.2500  -23.1584   17.9187 H   0  0  0  0  0  0
  -29.8944  -23.6927   18.0990 H   0  0  0  0  0  0
  -29.2059  -24.2654   20.5957 H   0  0  0  0  0  0
  -27.5643  -24.1602   20.0026 H   0  0  0  0  0  0
  -28.1455  -25.9160   18.2190 H   0  0  0  0  0  0
  -29.7633  -25.9415   18.8456 H   0  0  0  0  0  0
  -31.1785  -22.1331   18.3496 H   0  0  0  0  0  0
  1 25  1  0  0  0
  1 30  2  0  0  0
  1 88  1  0  0  0
  2  3  1  0  0  0
  2 25  1  0  0  0
  2 91  1  0  0  0
  2 92  1  0  0  0
  3  4  1  0  0  0
  3 93  1  0  0  0
  3 94  1  0  0  0
  4  5  1  0  0  0
  4 95  1  0  0  0
  4 96  1  0  0  0
  5  6  1  0  0  0
  5 26  1  0  0  0
  5 97  1  0  0  0
  6 25  1  0  0  0
  6 98  1  0  0  0
  6 99  1  0  0  0
  7  8  2  0  0  0
  7 26  1  0  0  0
  7 29  1  0  0  0
  8  9  1  0  0  0
  8 22  1  0  0  0
  9 10  1  0  0  0
  9 27  2  0  0  0
 10 11  2  0  0  0
 10 15  1  0  0  0
 11 12  1  0  0  0
 11100  1  0  0  0
 12 13  2  0  0  0
 12101  1  0  0  0
 13 14  1  0  0  0
 13 31  1  0  0  0
 14 15  2  0  0  0
 14102  1  0  0  0
 15103  1  0  0  0
 16 17  2  0  0  0
 16 21  1  0  0  0
 16 31  1  0  0  0
 17 18  1  0  0  0
 17104  1  0  0  0
 18 19  2  0  0  0
 18105  1  0  0  0
 19 20  1  0  0  0
 19 24  1  0  0  0
 20 21  2  0  0  0
 20106  1  0  0  0
 21 23  1  0  0  0
 22 28  1  0  0  0
 22 32  2  0  0  0
 26 27  1  0  0  0
 28107  1  0  0  0
 28108  1  0  0  0
 29109  1  0  0  0
 29110  1  0  0  0
 33 34  1  0  0  0
 33 66  1  0  0  0
 33 70  2  0  0  0
 34 36  1  0  0  0
 34 59  1  0  0  0
 34111  1  0  0  0
 35 44  2  0  0  0
 35 45  1  0  0  0
 35 68  1  0  0  0
 36 56  1  0  0  0
 36112  1  0  0  0
 37 39  1  0  0  0
 37 47  1  0  0  0
 37 66  1  0  0  0
 37113  1  0  0  0
 38 43  2  0  0  0
 38 46  1  0  0  0
 38 47  1  0  0  0
 39 64  1  0  0  0
 39 67  2  0  0  0
 40 52  1  0  0  0
 40 53  2  0  0  0
 40 58  1  0  0  0
 41114  1  0  0  0
 41115  1  0  0  0
 41116  1  0  0  0
 41 48  1  0  0  0
 42 43  1  0  0  0
 42 66  1  0  0  0
 42117  1  0  0  0
 42118  1  0  0  0
 43 44  1  0  0  0
 44119  1  0  0  0
 45 46  2  0  0  0
 45120  1  0  0  0
 46121  1  0  0  0
 47122  1  0  0  0
 47123  1  0  0  0
 48 56  1  0  0  0
 48 65  1  0  0  0
 48124  1  0  0  0
 49 50  1  0  0  0
 49 53  1  0  0  0
 49 64  1  0  0  0
 49125  1  0  0  0
 50 51  1  0  0  0
 50126  1  0  0  0
 50127  1  0  0  0
 51 52  1  0  0  0
 51128  1  0  0  0
 51129  1  0  0  0
 52130  1  0  0  0
 52131  1  0  0  0
 53 54  1  0  0  0
 54 55  2  0  0  0
 54132  1  0  0  0
 55 57  1  0  0  0
 55133  1  0  0  0
 56 69  2  0  0  0
 57 58  2  0  0  0
 57134  1  0  0  0
 58135  1  0  0  0
 59 60  1  0  0  0
 59 61  1  0  0  0
 59 62  1  0  0  0
 60136  1  0  0  0
 60137  1  0  0  0
 60138  1  0  0  0
 61139  1  0  0  0
 61140  1  0  0  0
 61141  1  0  0  0
 62142  1  0  0  0
 62143  1  0  0  0
 62144  1  0  0  0
 63 65  1  0  0  0
 63145  1  0  0  0
 63146  1  0  0  0
 63147  1  0  0  0
 64148  1  0  0  0
 65149  1  0  0  0
 68 86  1  0  0  0
 71 72  3  0  0  0
 71 81  1  0  0  0
 72 88  1  0  0  0
 73 76  2  0  0  0
 73 77  1  0  0  0
 73150  1  0  0  0
 74 76  1  0  0  0
 74 78  2  0  0  0
 74151  1  0  0  0
 75 77  2  0  0  0
 75 78  1  0  0  0
 75152  1  0  0  0
 76 79  1  0  0  0
 77 83  1  0  0  0
 78 87  1  0  0  0
 79 88  1  0  0  0
 79 89  2  0  0  0
 80 84  1  0  0  0
 80 87  1  0  0  0
 80 90  2  0  0  0
 81153  1  0  0  0
 81154  1  0  0  0
 81155  1  0  0  0
 82 83  1  0  0  0
 82156  1  0  0  0
 82157  1  0  0  0
 82158  1  0  0  0
 83159  1  0  0  0
 83160  1  0  0  0
 84 85  1  0  0  0
 84161  1  0  0  0
 84162  1  0  0  0
 85 86  1  0  0  0
 85163  1  0  0  0
 85164  1  0  0  0
 86165  1  0  0  0
 86166  1  0  0  0
 87167  1  0  0  0
M  ISO  4   1 100  68 101  86 101  88 100
M  END
> <chiral flag>
0

> <version>
0

> <s_m_source_file>
/data/baiqing/PycharmProjects/Reinvent-master-3.2/result/LINK_invent/BTK/process_docking_weight1_custom_product_contain_oxygen_bond_distance_aromatic_linkinvent_7_9_3/rearranged_h_0110.sdf

> <i_m_source_file_index>
15

> <r_mmod_Potential_Energy-OPLS-2005>
70.3005599975586

> <r_mmod_Stretch_Energy-OPLS-2005>
39.067554473877

> <r_mmod_Bend_Energy-OPLS-2005>
117.97241973877

> <r_mmod_Torsional_Energy-OPLS-2005>
369.489105224609

> <r_mmod_Improper_Torsional_Energy-OPLS-2005>
13.3811769485474

> <r_mmod_Van_der_Waal_Energy-OPLS-2005>
180.442932128906

> <r_mmod_Electrostatic_Energy-OPLS-2005>
-470.782348632812

> <r_mmod_Solvation_Energy-OPLS-2005>
-215.954147338867

> <b_mmod_Minimization_Converged-OPLS-2005>
0

> <r_mmod_RMS_Derivative-OPLS-2005>
6.11577606201172

$$$$
16
                    3D
 Structure written by MMmdl.
164173  0  0  1  0            999 V2000
  -30.5167  -14.9009   20.4276 C   0  0  0  0  0  0
  -30.4464  -12.5502   19.4915 C   0  0  0  0  0  0
  -29.5212  -12.5333   18.2517 C   0  0  0  0  0  0
  -28.0528  -12.3211   18.6680 C   0  0  0  0  0  0
  -27.6365  -13.2386   19.8455 C   0  0  2  0  0  0
  -28.6790  -13.2184   20.9843 C   0  0  0  0  0  0
  -25.2492  -13.8192   20.5699 C   0  0  0  0  0  0
  -24.1798  -13.0427   20.9234 C   0  0  0  0  0  0
  -24.6396  -11.6911   20.8754 C   0  0  0  0  0  0
  -23.9068  -10.4286   21.0405 C   0  0  0  0  0  0
  -24.3619   -9.4199   21.9184 C   0  0  0  0  0  0
  -23.6292   -8.2237   22.0755 C   0  0  0  0  0  0
  -22.4271   -8.0280   21.3544 C   0  0  0  0  0  0
  -21.9905   -9.0253   20.4643 C   0  0  0  0  0  0
  -22.7237  -10.2133   20.3050 C   0  0  0  0  0  0
  -21.6853   -6.0729   22.5271 C   0  0  0  0  0  0
  -21.4017   -6.5636   23.8204 C   0  0  0  0  0  0
  -21.3662   -5.6795   24.9171 C   0  0  0  0  0  0
  -21.6042   -4.3056   24.7228 C   0  0  0  0  0  0
  -21.8820   -3.8142   23.4352 C   0  0  0  0  0  0
  -21.9194   -4.6955   22.3404 C   0  0  0  0  0  0
  -22.7820  -13.5199   21.1907 C   0  0  0  0  0  0
  -22.1664   -4.2138   21.0985 F   0  0  0  0  0  0
  -21.5627   -3.4543   25.7744 F   0  0  0  0  0  0
  -29.9656  -13.6251   20.4009 N   0  0  0  0  0  0
  -26.2908  -12.9407   20.3242 N   0  0  0  0  0  0
  -25.9324  -11.6547   20.5733 N   0  0  0  0  0  0
  -22.0482  -12.8166   22.0460 N   0  0  0  0  0  0
  -25.4157  -15.1916   20.4121 N   0  0  0  0  0  0
  -31.7058  -15.0297   20.1158 O   0  0  0  0  0  0
  -21.6640   -6.8872   21.4232 O   0  0  0  0  0  0
  -22.3494  -14.5500   20.6755 O   0  0  0  0  0  0
  -24.6414  -31.8450   23.1891 C   0  0  0  0  0  0
  -25.9187  -32.4704   23.8277 C   0  0  1  0  0  0
  -27.2158  -27.1520   20.1425 C   0  0  0  0  0  0
  -25.5952  -33.8514   24.2188 N   0  0  0  0  0  0
  -23.4449  -30.4654   21.5336 C   0  0  2  0  0  0
  -24.8941  -28.8959   20.1070 C   0  0  0  0  0  0
  -22.7546  -29.4569   22.4847 C   0  0  0  0  0  0
  -18.0308  -28.1394   22.8480 C   0  0  0  0  0  0
  -24.1496  -36.7260   23.2641 C   0  0  0  0  0  0
  -25.9992  -30.7218   21.3885 C   0  0  0  0  0  0
  -26.0691  -29.3350   20.7296 C   0  0  0  0  0  0
  -27.2289  -28.4760   20.7353 C   0  0  0  0  0  0
  -26.0201  -26.8177   19.4690 C   0  0  0  0  0  0
  -24.8810  -27.6503   19.4631 C   0  0  0  0  0  0
  -23.6707  -29.7961   20.1514 C   0  0  0  0  0  0
  -25.4129  -36.3038   24.0308 C   0  0  1  0  0  0
  -20.5909  -28.3758   23.1235 C   0  0  2  0  0  0
  -20.6809  -26.9442   22.5446 C   0  0  0  0  0  0
  -19.5799  -26.6367   21.5243 C   0  0  0  0  0  0
  -18.1977  -26.7921   22.1647 C   0  0  0  0  0  0
  -19.1548  -28.8905   23.2835 C   0  0  0  0  0  0
  -18.9450  -30.1516   23.8830 C   0  0  0  0  0  0
  -17.6441  -30.6630   24.0491 C   0  0  0  0  0  0
  -25.9069  -34.9416   23.5056 C   0  0  0  0  0  0
  -16.5346  -29.9075   23.6326 C   0  0  0  0  0  0
  -16.7282  -28.6480   23.0383 C   0  0  0  0  0  0
  -26.4528  -31.6570   25.0710 C   0  0  0  0  0  0
  -25.3713  -31.3764   26.1400 C   0  0  0  0  0  0
  -27.0391  -30.2963   24.6283 C   0  0  0  0  0  0
  -27.6061  -32.4333   25.7500 C   0  0  0  0  0  0
  -27.5580  -37.1790   24.8464 C   0  0  0  0  0  0
  -21.4239  -29.3073   22.3581 N   0  0  0  0  0  0
  -26.4294  -37.3748   23.9401 N   0  0  0  0  0  0
  -24.7148  -31.0317   22.0929 N   0  0  0  0  0  0
  -23.4189  -28.8123   23.3007 O   0  0  0  0  0  0
  -28.2721  -26.1769   20.2258 O   0  0  0  0  0  0
  -26.5663  -34.8913   22.4639 O   0  0  0  0  0  0
  -23.5534  -32.1327   23.7104 O   0  0  0  0  0  0
  -29.8450  -19.8778   21.3283 C   0  0  0  0  0  0
  -28.8122  -18.1238   19.4159 C   0  0  0  0  0  0
  -28.5200  -19.5627   19.3781 C   0  0  0  0  0  0
  -28.9773  -20.5045   20.3689 C   0  0  0  0  0  0
  -30.1494  -18.4564   21.3645 C   0  0  0  0  0  0
  -29.6333  -17.5025   20.4254 C   0  0  0  0  0  0
  -27.3529  -21.8645   21.4744 C   0  0  0  0  0  0
  -26.9108  -17.1518   18.0821 C   0  0  0  0  0  0
  -28.2041  -17.1879   18.4457 C   0  0  0  0  0  0
  -27.4738  -22.9819   22.4991 C   0  0  0  0  0  0
  -28.8100  -23.6244   22.1293 C   0  0  0  0  0  0
  -28.8898  -23.3690   20.6225 C   0  0  2  0  0  0
  -27.6700  -20.1397   18.2510 C   0  0  0  0  0  0
  -28.0414  -24.6639   19.9551 C   0  0  0  0  0  0
  -28.3412  -21.8933   20.5558 N   0  0  0  0  0  0
  -30.9106  -17.9643   22.4235 N   0  0  0  0  0  0
  -29.6503  -15.9910   20.6479 N   0  0  0  0  0  0
  -26.4469  -21.0278   21.5374 O   0  0  0  0  0  0
  -31.4811  -12.7115   19.1854 H   0  0  0  0  0  0
  -30.4323  -11.5832   19.9983 H   0  0  0  0  0  0
  -29.8289  -11.7512   17.5565 H   0  0  0  0  0  0
  -29.6145  -13.4777   17.7131 H   0  0  0  0  0  0
  -27.9445  -11.2770   18.9637 H   0  0  0  0  0  0
  -27.3881  -12.4670   17.8152 H   0  0  0  0  0  0
  -27.6127  -14.2492   19.4378 H   0  0  0  0  0  0
  -28.7503  -12.2272   21.4342 H   0  0  0  0  0  0
  -28.3871  -13.8979   21.7862 H   0  0  0  0  0  0
  -25.2763   -9.5683   22.4760 H   0  0  0  0  0  0
  -24.0002   -7.4624   22.7470 H   0  0  0  0  0  0
  -21.0837   -8.8765   19.8949 H   0  0  0  0  0  0
  -22.3683  -10.9674   19.6167 H   0  0  0  0  0  0
  -21.2008   -7.6146   23.9698 H   0  0  0  0  0  0
  -21.1485   -6.0535   25.9073 H   0  0  0  0  0  0
  -22.0595   -2.7603   23.2856 H   0  0  0  0  0  0
  -22.4118  -11.9814   22.4803 H   0  0  0  0  0  0
  -21.1105  -13.1185   22.2700 H   0  0  0  0  0  0
  -24.6368  -15.8345   20.5039 H   0  0  0  0  0  0
  -26.2295  -15.6220   19.9918 H   0  0  0  0  0  0
  -26.7249  -32.5307   23.1003 H   0  0  0  0  0  0
  -25.0080  -33.9636   25.0319 H   0  0  0  0  0  0
  -22.7470  -31.2909   21.3795 H   0  0  0  0  0  0
  -23.3763  -35.9590   23.3291 H   0  0  0  0  0  0
  -24.3582  -36.8898   22.2059 H   0  0  0  0  0  0
  -23.7249  -37.6449   23.6686 H   0  0  0  0  0  0
  -26.1525  -31.4788   20.6178 H   0  0  0  0  0  0
  -26.8694  -30.7705   22.0314 H   0  0  0  0  0  0
  -28.1214  -28.8021   21.2500 H   0  0  0  0  0  0
  -25.9287  -25.8745   18.9525 H   0  0  0  0  0  0
  -23.9858  -27.3123   18.9593 H   0  0  0  0  0  0
  -23.8072  -30.5711   19.3964 H   0  0  0  0  0  0
  -22.7863  -29.2371   19.8403 H   0  0  0  0  0  0
  -25.1324  -36.1866   25.0801 H   0  0  0  0  0  0
  -20.9990  -28.3401   24.1360 H   0  0  0  0  0  0
  -20.5688  -26.2370   23.3691 H   0  0  0  0  0  0
  -21.6688  -26.7457   22.1273 H   0  0  0  0  0  0
  -19.6990  -25.6263   21.1317 H   0  0  0  0  0  0
  -19.6728  -27.3132   20.6740 H   0  0  0  0  0  0
  -17.4238  -26.6625   21.4067 H   0  0  0  0  0  0
  -18.0401  -26.0089   22.9078 H   0  0  0  0  0  0
  -19.7909  -30.7381   24.2170 H   0  0  0  0  0  0
  -17.4962  -31.6332   24.5033 H   0  0  0  0  0  0
  -15.5337  -30.2954   23.7661 H   0  0  0  0  0  0
  -15.8680  -28.0757   22.7163 H   0  0  0  0  0  0
  -24.5898  -30.7108   25.7715 H   0  0  0  0  0  0
  -24.8905  -32.2953   26.4764 H   0  0  0  0  0  0
  -25.7996  -30.8974   27.0210 H   0  0  0  0  0  0
  -26.3003  -29.6678   24.1295 H   0  0  0  0  0  0
  -27.4003  -29.7271   25.4859 H   0  0  0  0  0  0
  -27.8916  -30.4192   23.9600 H   0  0  0  0  0  0
  -27.2654  -33.3647   26.2033 H   0  0  0  0  0  0
  -28.3907  -32.6859   25.0358 H   0  0  0  0  0  0
  -28.0685  -31.8477   26.5450 H   0  0  0  0  0  0
  -28.2594  -38.0092   24.7512 H   0  0  0  0  0  0
  -28.1081  -36.2622   24.6297 H   0  0  0  0  0  0
  -27.2296  -37.1440   25.8866 H   0  0  0  0  0  0
  -20.9460  -29.8725   21.6704 H   0  0  0  0  0  0
  -26.0159  -38.2815   24.1405 H   0  0  0  0  0  0
  -30.2186  -20.4991   22.1304 H   0  0  0  0  0  0
  -26.5588  -16.4388   17.3506 H   0  0  0  0  0  0
  -26.1810  -17.8254   18.5073 H   0  0  0  0  0  0
  -28.8818  -16.4828   17.9836 H   0  0  0  0  0  0
  -27.4692  -22.5910   23.5164 H   0  0  0  0  0  0
  -26.6391  -23.6733   22.3887 H   0  0  0  0  0  0
  -29.6292  -23.1201   22.6436 H   0  0  0  0  0  0
  -28.8550  -24.6825   22.3905 H   0  0  0  0  0  0
  -29.9254  -23.3908   20.2822 H   0  0  0  0  0  0
  -27.8184  -19.6000   17.3167 H   0  0  0  0  0  0
  -27.9382  -21.1753   18.0428 H   0  0  0  0  0  0
  -26.6120  -20.1147   18.5113 H   0  0  0  0  0  0
  -26.9974  -24.4706   20.1959 H   0  0  0  0  0  0
  -28.0951  -24.5483   18.8722 H   0  0  0  0  0  0
  -30.8315  -16.9709   22.6116 H   0  0  0  0  0  0
  -30.9823  -18.5195   23.2698 H   0  0  0  0  0  0
  -28.7269  -15.6444   20.8540 H   0  0  0  0  0  0
  1 25  1  0  0  0
  1 30  2  0  0  0
  1 87  1  0  0  0
  2  3  1  0  0  0
  2 25  1  0  0  0
  2 89  1  0  0  0
  2 90  1  0  0  0
  3  4  1  0  0  0
  3 91  1  0  0  0
  3 92  1  0  0  0
  4  5  1  0  0  0
  4 93  1  0  0  0
  4 94  1  0  0  0
  5  6  1  0  0  0
  5 26  1  0  0  0
  5 95  1  0  0  0
  6 25  1  0  0  0
  6 96  1  0  0  0
  6 97  1  0  0  0
  7  8  2  0  0  0
  7 26  1  0  0  0
  7 29  1  0  0  0
  8  9  1  0  0  0
  8 22  1  0  0  0
  9 10  1  0  0  0
  9 27  2  0  0  0
 10 11  2  0  0  0
 10 15  1  0  0  0
 11 12  1  0  0  0
 11 98  1  0  0  0
 12 13  2  0  0  0
 12 99  1  0  0  0
 13 14  1  0  0  0
 13 31  1  0  0  0
 14 15  2  0  0  0
 14100  1  0  0  0
 15101  1  0  0  0
 16 17  2  0  0  0
 16 21  1  0  0  0
 16 31  1  0  0  0
 17 18  1  0  0  0
 17102  1  0  0  0
 18 19  2  0  0  0
 18103  1  0  0  0
 19 20  1  0  0  0
 19 24  1  0  0  0
 20 21  2  0  0  0
 20104  1  0  0  0
 21 23  1  0  0  0
 22 28  1  0  0  0
 22 32  2  0  0  0
 26 27  1  0  0  0
 28105  1  0  0  0
 28106  1  0  0  0
 29107  1  0  0  0
 29108  1  0  0  0
 33 34  1  0  0  0
 33 66  1  0  0  0
 33 70  2  0  0  0
 34 36  1  0  0  0
 34 59  1  0  0  0
 34109  1  0  0  0
 35 44  2  0  0  0
 35 45  1  0  0  0
 35 68  1  0  0  0
 36 56  1  0  0  0
 36110  1  0  0  0
 37 39  1  0  0  0
 37 47  1  0  0  0
 37 66  1  0  0  0
 37111  1  0  0  0
 38 43  2  0  0  0
 38 46  1  0  0  0
 38 47  1  0  0  0
 39 64  1  0  0  0
 39 67  2  0  0  0
 40 52  1  0  0  0
 40 53  2  0  0  0
 40 58  1  0  0  0
 41112  1  0  0  0
 41113  1  0  0  0
 41114  1  0  0  0
 41 48  1  0  0  0
 42 43  1  0  0  0
 42 66  1  0  0  0
 42115  1  0  0  0
 42116  1  0  0  0
 43 44  1  0  0  0
 44117  1  0  0  0
 45 46  2  0  0  0
 45118  1  0  0  0
 46119  1  0  0  0
 47120  1  0  0  0
 47121  1  0  0  0
 48 56  1  0  0  0
 48 65  1  0  0  0
 48122  1  0  0  0
 49 50  1  0  0  0
 49 53  1  0  0  0
 49 64  1  0  0  0
 49123  1  0  0  0
 50 51  1  0  0  0
 50124  1  0  0  0
 50125  1  0  0  0
 51 52  1  0  0  0
 51126  1  0  0  0
 51127  1  0  0  0
 52128  1  0  0  0
 52129  1  0  0  0
 53 54  1  0  0  0
 54 55  2  0  0  0
 54130  1  0  0  0
 55 57  1  0  0  0
 55131  1  0  0  0
 56 69  2  0  0  0
 57 58  2  0  0  0
 57132  1  0  0  0
 58133  1  0  0  0
 59 60  1  0  0  0
 59 61  1  0  0  0
 59 62  1  0  0  0
 60134  1  0  0  0
 60135  1  0  0  0
 60136  1  0  0  0
 61137  1  0  0  0
 61138  1  0  0  0
 61139  1  0  0  0
 62140  1  0  0  0
 62141  1  0  0  0
 62142  1  0  0  0
 63 65  1  0  0  0
 63143  1  0  0  0
 63144  1  0  0  0
 63145  1  0  0  0
 64146  1  0  0  0
 65147  1  0  0  0
 68 84  1  0  0  0
 71 74  2  0  0  0
 71 75  1  0  0  0
 71148  1  0  0  0
 72 73  2  0  0  0
 72 76  1  0  0  0
 72 79  1  0  0  0
 73 74  1  0  0  0
 73 83  1  0  0  0
 74 85  1  0  0  0
 75 76  2  0  0  0
 75 86  1  0  0  0
 76 87  1  0  0  0
 77 80  1  0  0  0
 77 85  1  0  0  0
 77 88  2  0  0  0
 78 79  2  0  0  0
 78149  1  0  0  0
 78150  1  0  0  0
 79151  1  0  0  0
 80 81  1  0  0  0
 80152  1  0  0  0
 80153  1  0  0  0
 81 82  1  0  0  0
 81154  1  0  0  0
 81155  1  0  0  0
 82 84  1  0  0  0
 82 85  1  0  0  0
 82156  1  0  0  0
 83157  1  0  0  0
 83158  1  0  0  0
 83159  1  0  0  0
 84160  1  0  0  0
 84161  1  0  0  0
 86162  1  0  0  0
 86163  1  0  0  0
 87164  1  0  0  0
M  ISO  4   1 100  68 101  84 101  87 100
M  END
> <chiral flag>
0

> <version>
0

> <s_m_source_file>
/data/baiqing/PycharmProjects/Reinvent-master-3.2/result/LINK_invent/BTK/process_docking_weight1_custom_product_contain_oxygen_bond_distance_aromatic_linkinvent_7_9_3/rearranged_h_0110.sdf

> <i_m_source_file_index>
16

> <r_mmod_Potential_Energy-OPLS-2005>
508.789123535156

> <r_mmod_Stretch_Energy-OPLS-2005>
226.407257080078

> <r_mmod_Bend_Energy-OPLS-2005>
282.643920898438

> <r_mmod_Torsional_Energy-OPLS-2005>
377.775634765625

> <r_mmod_Improper_Torsional_Energy-OPLS-2005>
15.2467918395996

> <r_mmod_Van_der_Waal_Energy-OPLS-2005>
131.328018188477

> <r_mmod_Electrostatic_Energy-OPLS-2005>
-463.769500732422

> <r_mmod_Solvation_Energy-OPLS-2005>
-231.553680419922

> <b_mmod_Minimization_Converged-OPLS-2005>
0

> <r_mmod_RMS_Derivative-OPLS-2005>
1.74893724918365

$$$$
17
                    3D
 Structure written by MMmdl.
155163  0  0  1  0            999 V2000
  -30.6726  -14.7054   20.4371 C   0  0  0  0  0  0
  -30.4235  -12.4256   19.4895 C   0  0  0  0  0  0
  -29.5104  -12.4893   18.2473 C   0  0  0  0  0  0
  -28.0395  -12.3169   18.6605 C   0  0  0  0  0  0
  -27.6481  -13.2346   19.8487 C   0  0  2  0  0  0
  -28.6879  -13.2002   20.9909 C   0  0  0  0  0  0
  -25.2582  -13.8216   20.5677 C   0  0  0  0  0  0
  -24.1875  -13.0469   20.9209 C   0  0  0  0  0  0
  -24.6469  -11.6941   20.8793 C   0  0  0  0  0  0
  -23.9146  -10.4312   21.0450 C   0  0  0  0  0  0
  -24.3671   -9.4195   21.9211 C   0  0  0  0  0  0
  -23.6309   -8.2255   22.0757 C   0  0  0  0  0  0
  -22.4285   -8.0333   21.3572 C   0  0  0  0  0  0
  -21.9959   -9.0309   20.4667 C   0  0  0  0  0  0
  -22.7322  -10.2173   20.3074 C   0  0  0  0  0  0
  -21.6845   -6.0783   22.5293 C   0  0  0  0  0  0
  -21.4008   -6.5668   23.8240 C   0  0  0  0  0  0
  -21.3651   -5.6806   24.9192 C   0  0  0  0  0  0
  -21.6033   -4.3068   24.7221 C   0  0  0  0  0  0
  -21.8813   -3.8178   23.4339 C   0  0  0  0  0  0
  -21.9183   -4.7005   22.3409 C   0  0  0  0  0  0
  -22.7876  -13.5241   21.1807 C   0  0  0  0  0  0
  -22.1655   -4.2202   21.0983 F   0  0  0  0  0  0
  -21.5612   -3.4545   25.7732 F   0  0  0  0  0  0
  -29.9971  -13.5087   20.4076 N   0  0  0  0  0  0
  -26.3005  -12.9430   20.3285 N   0  0  0  0  0  0
  -25.9409  -11.6574   20.5835 N   0  0  0  0  0  0
  -22.0480  -12.8299   22.0368 N   0  0  0  0  0  0
  -25.4290  -15.1930   20.4046 N   0  0  0  0  0  0
  -31.8698  -14.6990   20.1345 O   0  0  0  0  0  0
  -21.6618   -6.8946   21.4279 O   0  0  0  0  0  0
  -22.3585  -14.5537   20.6618 O   0  0  0  0  0  0
  -24.6345  -31.8542   23.2013 C   0  0  0  0  0  0
  -25.9157  -32.4747   23.8340 C   0  0  1  0  0  0
  -27.2014  -27.2651   20.1186 C   0  0  0  0  0  0
  -25.5949  -33.8548   24.2255 N   0  0  0  0  0  0
  -23.4312  -30.4814   21.5453 C   0  0  2  0  0  0
  -24.8730  -28.9397   20.1021 C   0  0  0  0  0  0
  -22.7509  -29.4592   22.4897 C   0  0  0  0  0  0
  -18.0290  -28.1427   22.8464 C   0  0  0  0  0  0
  -24.1474  -36.7286   23.2634 C   0  0  0  0  0  0
  -25.9790  -30.7682   21.3824 C   0  0  0  0  0  0
  -26.0462  -29.3934   20.7186 C   0  0  0  0  0  0
  -27.2159  -28.5700   20.7127 C   0  0  0  0  0  0
  -26.0109  -26.8941   19.4502 C   0  0  0  0  0  0
  -24.8617  -27.7008   19.4503 C   0  0  0  0  0  0
  -23.6455  -29.8253   20.1581 C   0  0  0  0  0  0
  -25.4104  -36.3067   24.0314 C   0  0  1  0  0  0
  -20.5892  -28.3719   23.1252 C   0  0  2  0  0  0
  -20.6771  -26.9433   22.5400 C   0  0  0  0  0  0
  -19.5746  -26.6401   21.5206 C   0  0  0  0  0  0
  -18.1932  -26.7967   22.1622 C   0  0  0  0  0  0
  -19.1539  -28.8895   23.2862 C   0  0  0  0  0  0
  -18.9463  -30.1500   23.8871 C   0  0  0  0  0  0
  -17.6458  -30.6609   24.0578 C   0  0  0  0  0  0
  -25.9057  -34.9430   23.5084 C   0  0  0  0  0  0
  -16.5351  -29.9103   23.6353 C   0  0  0  0  0  0
  -16.7275  -28.6544   23.0332 C   0  0  0  0  0  0
  -26.4524  -31.6593   25.0745 C   0  0  0  0  0  0
  -25.3735  -31.3746   26.1461 C   0  0  0  0  0  0
  -27.0371  -30.2999   24.6255 C   0  0  0  0  0  0
  -27.6083  -32.4335   25.7524 C   0  0  0  0  0  0
  -27.5572  -37.1791   24.8463 C   0  0  0  0  0  0
  -21.4211  -29.3060   22.3635 N   0  0  0  0  0  0
  -26.4280  -37.3767   23.9403 N   0  0  0  0  0  0
  -24.7015  -31.0501   22.1000 N   0  0  0  0  0  0
  -23.4205  -28.8103   23.2972 O   0  0  0  0  0  0
  -28.2726  -26.3457   20.2072 O   0  0  0  0  0  0
  -26.5629  -34.8912   22.4660 O   0  0  0  0  0  0
  -23.5486  -32.1350   23.7307 O   0  0  0  0  0  0
  -29.6795  -18.5005   20.6056 C   0  0  0  0  0  0
  -29.4997  -19.6917   19.7377 C   0  0  0  0  0  0
  -29.0525  -20.8698   20.3594 C   0  0  0  0  0  0
  -29.2643  -18.8123   21.8939 C   0  0  0  0  0  0
  -30.3863  -17.1573   20.1910 C   0  0  0  0  0  0
  -28.6765  -22.2441   19.7921 C   0  0  0  0  0  0
  -28.3584  -18.2887   24.1596 C   0  0  0  0  0  0
  -28.8691  -23.6604   20.4956 C   0  0  0  0  0  0
  -27.9868  -24.8956   19.9387 C   0  0  0  0  0  0
  -29.7864  -19.6422   18.3561 N   0  0  0  0  0  0
  -29.2385  -17.9852   23.0331 N   0  0  0  0  0  0
  -29.9789  -15.8951   20.6122 N   0  0  0  0  0  0
  -31.3438  -17.2700   19.4132 O   0  0  0  0  0  0
  -28.2135  -22.2762   18.6477 O   0  0  0  0  0  0
  -28.7625  -20.5153   22.0416 S   0  0  0  0  0  0
  -31.4666  -12.5101   19.1809 H   0  0  0  0  0  0
  -30.3422  -11.4557   19.9822 H   0  0  0  0  0  0
  -29.7921  -11.7192   17.5311 H   0  0  0  0  0  0
  -29.6390  -13.4469   17.7440 H   0  0  0  0  0  0
  -27.9075  -11.2726   18.9428 H   0  0  0  0  0  0
  -27.3805  -12.4885   17.8090 H   0  0  0  0  0  0
  -27.6424  -14.2497   19.4500 H   0  0  0  0  0  0
  -28.7092  -12.2252   21.4794 H   0  0  0  0  0  0
  -28.4273  -13.9239   21.7656 H   0  0  0  0  0  0
  -25.2814   -9.5632   22.4802 H   0  0  0  0  0  0
  -23.9997   -7.4625   22.7469 H   0  0  0  0  0  0
  -21.0880   -8.8873   19.8969 H   0  0  0  0  0  0
  -22.3808  -10.9738   19.6182 H   0  0  0  0  0  0
  -21.2010   -7.6175   23.9770 H   0  0  0  0  0  0
  -21.1462   -6.0531   25.9108 H   0  0  0  0  0  0
  -22.0589   -2.7647   23.2821 H   0  0  0  0  0  0
  -22.4040  -12.0004   22.4884 H   0  0  0  0  0  0
  -21.1093  -13.1398   22.2481 H   0  0  0  0  0  0
  -24.6595  -15.8464   20.4957 H   0  0  0  0  0  0
  -26.2865  -15.6330   20.0954 H   0  0  0  0  0  0
  -26.7219  -32.5385   23.1075 H   0  0  0  0  0  0
  -25.0079  -33.9671   25.0392 H   0  0  0  0  0  0
  -22.7287  -31.3063   21.4036 H   0  0  0  0  0  0
  -23.3736  -35.9626   23.3306 H   0  0  0  0  0  0
  -24.3563  -36.8908   22.2051 H   0  0  0  0  0  0
  -23.7230  -37.6482   23.6669 H   0  0  0  0  0  0
  -26.1157  -31.5228   20.6078 H   0  0  0  0  0  0
  -26.8595  -30.8158   22.0110 H   0  0  0  0  0  0
  -28.1155  -28.9065   21.2089 H   0  0  0  0  0  0
  -25.9190  -25.9537   18.9303 H   0  0  0  0  0  0
  -23.9715  -27.3538   18.9436 H   0  0  0  0  0  0
  -23.7652  -30.6055   19.4044 H   0  0  0  0  0  0
  -22.7625  -29.2561   19.8558 H   0  0  0  0  0  0
  -25.1285  -36.1915   25.0804 H   0  0  0  0  0  0
  -20.9990  -28.3310   24.1376 H   0  0  0  0  0  0
  -20.5673  -26.2322   23.3606 H   0  0  0  0  0  0
  -21.6640  -26.7454   22.1195 H   0  0  0  0  0  0
  -19.6910  -25.6304   21.1254 H   0  0  0  0  0  0
  -19.6710  -27.3196   20.6730 H   0  0  0  0  0  0
  -17.4193  -26.6688   21.4044 H   0  0  0  0  0  0
  -18.0361  -26.0135   22.9049 H   0  0  0  0  0  0
  -19.7929  -30.7343   24.2209 H   0  0  0  0  0  0
  -17.5002  -31.6283   24.5204 H   0  0  0  0  0  0
  -15.5348  -30.2999   23.7710 H   0  0  0  0  0  0
  -15.8670  -28.0888   22.7016 H   0  0  0  0  0  0
  -24.5916  -30.7097   25.7773 H   0  0  0  0  0  0
  -24.8928  -32.2914   26.4871 H   0  0  0  0  0  0
  -25.8040  -30.8917   27.0241 H   0  0  0  0  0  0
  -26.2959  -29.6743   24.1257 H   0  0  0  0  0  0
  -27.4007  -29.7279   25.4801 H   0  0  0  0  0  0
  -27.8863  -30.4261   23.9535 H   0  0  0  0  0  0
  -27.2696  -33.3637   26.2097 H   0  0  0  0  0  0
  -28.3902  -32.6885   25.0360 H   0  0  0  0  0  0
  -28.0748  -31.8463   26.5439 H   0  0  0  0  0  0
  -28.2585  -38.0089   24.7503 H   0  0  0  0  0  0
  -28.1065  -36.2616   24.6301 H   0  0  0  0  0  0
  -27.2285  -37.1458   25.8864 H   0  0  0  0  0  0
  -20.9400  -29.8767   21.6816 H   0  0  0  0  0  0
  -26.0158  -38.2834   24.1440 H   0  0  0  0  0  0
  -28.3281  -17.4480   24.8570 H   0  0  0  0  0  0
  -27.3350  -18.4679   23.8252 H   0  0  0  0  0  0
  -28.6981  -19.1645   24.7123 H   0  0  0  0  0  0
  -28.7055  -23.5448   21.5654 H   0  0  0  0  0  0
  -29.9260  -23.9012   20.3836 H   0  0  0  0  0  0
  -26.9876  -24.6710   20.3154 H   0  0  0  0  0  0
  -27.9137  -24.8073   18.8536 H   0  0  0  0  0  0
  -29.4353  -20.3897   17.7634 H   0  0  0  0  0  0
  -29.8299  -18.7458   17.8841 H   0  0  0  0  0  0
  -29.6948  -17.0755   23.0784 H   0  0  0  0  0  0
  -29.0713  -15.8451   21.0445 H   0  0  0  0  0  0
  1 25  1  0  0  0
  1 30  2  0  0  0
  1 82  1  0  0  0
  2  3  1  0  0  0
  2 25  1  0  0  0
  2 86  1  0  0  0
  2 87  1  0  0  0
  3  4  1  0  0  0
  3 88  1  0  0  0
  3 89  1  0  0  0
  4  5  1  0  0  0
  4 90  1  0  0  0
  4 91  1  0  0  0
  5  6  1  0  0  0
  5 26  1  0  0  0
  5 92  1  0  0  0
  6 25  1  0  0  0
  6 93  1  0  0  0
  6 94  1  0  0  0
  7  8  2  0  0  0
  7 26  1  0  0  0
  7 29  1  0  0  0
  8  9  1  0  0  0
  8 22  1  0  0  0
  9 10  1  0  0  0
  9 27  2  0  0  0
 10 11  2  0  0  0
 10 15  1  0  0  0
 11 12  1  0  0  0
 11 95  1  0  0  0
 12 13  2  0  0  0
 12 96  1  0  0  0
 13 14  1  0  0  0
 13 31  1  0  0  0
 14 15  2  0  0  0
 14 97  1  0  0  0
 15 98  1  0  0  0
 16 17  2  0  0  0
 16 21  1  0  0  0
 16 31  1  0  0  0
 17 18  1  0  0  0
 17 99  1  0  0  0
 18 19  2  0  0  0
 18100  1  0  0  0
 19 20  1  0  0  0
 19 24  1  0  0  0
 20 21  2  0  0  0
 20101  1  0  0  0
 21 23  1  0  0  0
 22 28  1  0  0  0
 22 32  2  0  0  0
 26 27  1  0  0  0
 28102  1  0  0  0
 28103  1  0  0  0
 29104  1  0  0  0
 29105  1  0  0  0
 33 34  1  0  0  0
 33 66  1  0  0  0
 33 70  2  0  0  0
 34 36  1  0  0  0
 34 59  1  0  0  0
 34106  1  0  0  0
 35 44  2  0  0  0
 35 45  1  0  0  0
 35 68  1  0  0  0
 36 56  1  0  0  0
 36107  1  0  0  0
 37 39  1  0  0  0
 37 47  1  0  0  0
 37 66  1  0  0  0
 37108  1  0  0  0
 38 43  2  0  0  0
 38 46  1  0  0  0
 38 47  1  0  0  0
 39 64  1  0  0  0
 39 67  2  0  0  0
 40 52  1  0  0  0
 40 53  2  0  0  0
 40 58  1  0  0  0
 41109  1  0  0  0
 41110  1  0  0  0
 41111  1  0  0  0
 41 48  1  0  0  0
 42 43  1  0  0  0
 42 66  1  0  0  0
 42112  1  0  0  0
 42113  1  0  0  0
 43 44  1  0  0  0
 44114  1  0  0  0
 45 46  2  0  0  0
 45115  1  0  0  0
 46116  1  0  0  0
 47117  1  0  0  0
 47118  1  0  0  0
 48 56  1  0  0  0
 48 65  1  0  0  0
 48119  1  0  0  0
 49 50  1  0  0  0
 49 53  1  0  0  0
 49 64  1  0  0  0
 49120  1  0  0  0
 50 51  1  0  0  0
 50121  1  0  0  0
 50122  1  0  0  0
 51 52  1  0  0  0
 51123  1  0  0  0
 51124  1  0  0  0
 52125  1  0  0  0
 52126  1  0  0  0
 53 54  1  0  0  0
 54 55  2  0  0  0
 54127  1  0  0  0
 55 57  1  0  0  0
 55128  1  0  0  0
 56 69  2  0  0  0
 57 58  2  0  0  0
 57129  1  0  0  0
 58130  1  0  0  0
 59 60  1  0  0  0
 59 61  1  0  0  0
 59 62  1  0  0  0
 60131  1  0  0  0
 60132  1  0  0  0
 60133  1  0  0  0
 61134  1  0  0  0
 61135  1  0  0  0
 61136  1  0  0  0
 62137  1  0  0  0
 62138  1  0  0  0
 62139  1  0  0  0
 63 65  1  0  0  0
 63140  1  0  0  0
 63141  1  0  0  0
 63142  1  0  0  0
 64143  1  0  0  0
 65144  1  0  0  0
 68 79  1  0  0  0
 71 72  1  0  0  0
 71 74  2  0  0  0
 71 75  1  0  0  0
 72 73  2  0  0  0
 72 80  1  0  0  0
 73 76  1  0  0  0
 73 85  1  0  0  0
 74 81  1  0  0  0
 74 85  1  0  0  0
 75 82  1  0  0  0
 75 83  2  0  0  0
 76 78  1  0  0  0
 76 84  2  0  0  0
 77 81  1  0  0  0
 77145  1  0  0  0
 77146  1  0  0  0
 77147  1  0  0  0
 78 79  1  0  0  0
 78148  1  0  0  0
 78149  1  0  0  0
 79150  1  0  0  0
 79151  1  0  0  0
 80152  1  0  0  0
 80153  1  0  0  0
 81154  1  0  0  0
 82155  1  0  0  0
M  ISO  4   1 100  68 101  79 101  82 100
M  END
> <chiral flag>
0

> <version>
0

> <s_m_source_file>
/data/baiqing/PycharmProjects/Reinvent-master-3.2/result/LINK_invent/BTK/process_docking_weight1_custom_product_contain_oxygen_bond_distance_aromatic_linkinvent_7_9_3/rearranged_h_0110.sdf

> <i_m_source_file_index>
17

> <r_mmod_Potential_Energy-OPLS-2005>
354.998901367188

> <r_mmod_Stretch_Energy-OPLS-2005>
115.263931274414

> <r_mmod_Bend_Energy-OPLS-2005>
171.446990966797

> <r_mmod_Torsional_Energy-OPLS-2005>
240.789108276367

> <r_mmod_Improper_Torsional_Energy-OPLS-2005>
8.5048360824585

> <r_mmod_Van_der_Waal_Energy-OPLS-2005>
139.969711303711

> <r_mmod_Electrostatic_Energy-OPLS-2005>
-149.439071655273

> <r_mmod_Solvation_Energy-OPLS-2005>
-255.716064453125

> <b_mmod_Minimization_Converged-OPLS-2005>
0

> <r_mmod_RMS_Derivative-OPLS-2005>
4.30577850341797

$$$$
18
                    3D
 Structure written by MMmdl.
165173  0  0  1  0            999 V2000
  -30.7629  -14.3568   20.6802 C   0  0  0  0  0  0
  -30.4164  -12.2831   19.3928 C   0  0  0  0  0  0
  -29.4830  -12.5243   18.1920 C   0  0  0  0  0  0
  -28.0073  -12.3806   18.6099 C   0  0  0  0  0  0
  -27.6670  -13.2010   19.8820 C   0  0  2  0  0  0
  -28.7042  -12.9351   20.9944 C   0  0  0  0  0  0
  -25.2619  -13.8157   20.5693 C   0  0  0  0  0  0
  -24.1847  -13.0438   20.9142 C   0  0  0  0  0  0
  -24.6393  -11.6904   20.8715 C   0  0  0  0  0  0
  -23.9056  -10.4292   21.0395 C   0  0  0  0  0  0
  -24.3611   -9.4214   21.9178 C   0  0  0  0  0  0
  -23.6291   -8.2247   22.0752 C   0  0  0  0  0  0
  -22.4272   -8.0284   21.3543 C   0  0  0  0  0  0
  -21.9904   -9.0254   20.4644 C   0  0  0  0  0  0
  -22.7227  -10.2135   20.3049 C   0  0  0  0  0  0
  -21.6855   -6.0738   22.5281 C   0  0  0  0  0  0
  -21.4013   -6.5639   23.8215 C   0  0  0  0  0  0
  -21.3659   -5.6792   24.9178 C   0  0  0  0  0  0
  -21.6042   -4.3053   24.7227 C   0  0  0  0  0  0
  -21.8819   -3.8147   23.4347 C   0  0  0  0  0  0
  -21.9193   -4.6966   22.3405 C   0  0  0  0  0  0
  -22.7874  -13.5248   21.1825 C   0  0  0  0  0  0
  -22.1661   -4.2150   21.0983 F   0  0  0  0  0  0
  -21.5631   -3.4537   25.7741 F   0  0  0  0  0  0
  -30.0466  -13.2259   20.4575 N   0  0  0  0  0  0
  -26.3051  -12.9316   20.3403 N   0  0  0  0  0  0
  -25.9318  -11.6471   20.5753 N   0  0  0  0  0  0
  -22.0519  -12.8238   22.0386 N   0  0  0  0  0  0
  -25.4375  -15.1875   20.4176 N   0  0  0  0  0  0
  -31.7994  -14.6365   20.0696 O   0  0  0  0  0  0
  -21.6638   -6.8882   21.4243 O   0  0  0  0  0  0
  -22.3546  -14.5553   20.6687 O   0  0  0  0  0  0
  -24.6110  -31.8716   23.2094 C   0  0  0  0  0  0
  -25.9025  -32.4837   23.8387 C   0  0  1  0  0  0
  -27.2388  -27.4562   20.0817 C   0  0  0  0  0  0
  -25.5896  -33.8637   24.2321 N   0  0  0  0  0  0
  -23.3972  -30.4944   21.5502 C   0  0  2  0  0  0
  -24.8406  -28.9585   20.1175 C   0  0  0  0  0  0
  -22.7384  -29.4686   22.5000 C   0  0  0  0  0  0
  -18.0270  -28.1373   22.8489 C   0  0  0  0  0  0
  -24.1484  -36.7326   23.2637 C   0  0  0  0  0  0
  -25.9238  -30.8394   21.3609 C   0  0  0  0  0  0
  -25.9979  -29.4734   20.7121 C   0  0  0  0  0  0
  -27.1938  -28.7254   20.6977 C   0  0  0  0  0  0
  -26.0572  -26.9453   19.4934 C   0  0  0  0  0  0
  -24.8630  -27.6903   19.5113 C   0  0  0  0  0  0
  -23.6031  -29.8237   20.1659 C   0  0  0  0  0  0
  -25.4112  -36.3128   24.0335 C   0  0  1  0  0  0
  -20.5855  -28.3661   23.1322 C   0  0  2  0  0  0
  -20.6766  -26.9403   22.5409 C   0  0  0  0  0  0
  -19.5749  -26.6387   21.5203 C   0  0  0  0  0  0
  -18.1921  -26.7921   22.1614 C   0  0  0  0  0  0
  -19.1518  -28.8833   23.2903 C   0  0  0  0  0  0
  -18.9454  -30.1443   23.8910 C   0  0  0  0  0  0
  -17.6454  -30.6585   24.0568 C   0  0  0  0  0  0
  -25.9034  -34.9487   23.5122 C   0  0  0  0  0  0
  -16.5345  -29.9091   23.6328 C   0  0  0  0  0  0
  -16.7257  -28.6504   23.0349 C   0  0  0  0  0  0
  -26.4459  -31.6613   25.0707 C   0  0  0  0  0  0
  -25.3723  -31.3714   26.1452 C   0  0  0  0  0  0
  -27.0295  -30.3064   24.6071 C   0  0  0  0  0  0
  -27.6036  -32.4331   25.7453 C   0  0  0  0  0  0
  -27.5587  -37.1821   24.8465 C   0  0  0  0  0  0
  -21.4119  -29.3043   22.3737 N   0  0  0  0  0  0
  -26.4305  -37.3801   23.9394 N   0  0  0  0  0  0
  -24.6622  -31.0831   22.0989 N   0  0  0  0  0  0
  -23.4172  -28.8244   23.3045 O   0  0  0  0  0  0
  -28.4457  -26.7866   20.0958 O   0  0  0  0  0  0
  -26.5589  -34.8932   22.4683 O   0  0  0  0  0  0
  -23.5306  -32.1469   23.7500 O   0  0  0  0  0  0
  -29.4564  -20.1132   19.2319 C   0  0  0  0  0  0
  -30.1492  -22.0995   21.0784 C   0  0  0  0  0  0
  -29.6863  -21.4286   18.7659 C   0  0  0  0  0  0
  -29.5885  -19.7747   20.5925 C   0  0  0  0  0  0
  -30.0375  -22.4360   19.7078 C   0  0  0  0  0  0
  -29.9360  -20.7790   21.5191 C   0  0  0  0  0  0
  -29.2111  -20.8856   16.3389 C   0  0  0  0  0  0
  -29.5738  -21.7333   17.3179 C   0  0  0  0  0  0
  -29.4415  -18.3580   20.9859 C   0  0  0  0  0  0
  -28.7830  -25.8658   17.8878 C   0  0  0  0  0  0
  -30.7393  -17.5568   20.9882 C   0  0  0  0  0  0
  -30.8552  -16.4399   22.0562 C   0  0  0  0  0  0
  -29.8784  -24.9096   20.0014 C   0  0  0  0  0  0
  -28.6179  -25.5585   19.3903 C   0  0  2  0  0  0
  -28.3222  -17.8260   21.2476 N   0  0  0  0  0  0
  -30.3296  -23.7353   19.2590 N   0  0  0  0  0  0
  -30.2741  -15.1642   21.6296 N   0  0  0  0  0  0
  -30.0922  -20.4823   22.8332 F   0  0  0  0  0  0
  -31.4594  -12.3833   19.0859 H   0  0  0  0  0  0
  -30.3132  -11.2598   19.7564 H   0  0  0  0  0  0
  -29.7128  -11.8225   17.3886 H   0  0  0  0  0  0
  -29.6532  -13.5226   17.7859 H   0  0  0  0  0  0
  -27.8125  -11.3221   18.7880 H   0  0  0  0  0  0
  -27.3526  -12.6740   17.7883 H   0  0  0  0  0  0
  -27.7287  -14.2560   19.6138 H   0  0  0  0  0  0
  -28.6649  -11.8898   21.3034 H   0  0  0  0  0  0
  -28.4541  -13.5049   21.8893 H   0  0  0  0  0  0
  -25.2760   -9.5692   22.4744 H   0  0  0  0  0  0
  -24.0005   -7.4639   22.7470 H   0  0  0  0  0  0
  -21.0833   -8.8766   19.8952 H   0  0  0  0  0  0
  -22.3683  -10.9670   19.6153 H   0  0  0  0  0  0
  -21.2002   -7.6146   23.9718 H   0  0  0  0  0  0
  -21.1481   -6.0523   25.9080 H   0  0  0  0  0  0
  -22.0599   -2.7609   23.2848 H   0  0  0  0  0  0
  -22.4133  -11.9891   22.4756 H   0  0  0  0  0  0
  -21.1145  -13.1271   22.2617 H   0  0  0  0  0  0
  -24.6883  -15.8541   20.5694 H   0  0  0  0  0  0
  -26.3242  -15.6321   20.2068 H   0  0  0  0  0  0
  -26.7094  -32.5547   23.1152 H   0  0  0  0  0  0
  -25.0081  -33.9806   25.0490 H   0  0  0  0  0  0
  -22.6858  -31.3109   21.4104 H   0  0  0  0  0  0
  -23.3742  -35.9664   23.3319 H   0  0  0  0  0  0
  -24.3576  -36.8922   22.2048 H   0  0  0  0  0  0
  -23.7244  -37.6544   23.6633 H   0  0  0  0  0  0
  -26.0334  -31.6032   20.5902 H   0  0  0  0  0  0
  -26.8146  -30.8945   21.9743 H   0  0  0  0  0  0
  -28.0903  -29.1241   21.1522 H   0  0  0  0  0  0
  -26.0329  -25.9805   19.0098 H   0  0  0  0  0  0
  -23.9715  -27.2830   19.0545 H   0  0  0  0  0  0
  -23.7083  -30.5963   19.4033 H   0  0  0  0  0  0
  -22.7279  -29.2406   19.8724 H   0  0  0  0  0  0
  -25.1289  -36.2004   25.0829 H   0  0  0  0  0  0
  -20.9940  -28.3222   24.1446 H   0  0  0  0  0  0
  -20.5668  -26.2269   23.3595 H   0  0  0  0  0  0
  -21.6645  -26.7464   22.1206 H   0  0  0  0  0  0
  -19.6917  -25.6296   21.1240 H   0  0  0  0  0  0
  -19.6692  -27.3195   20.6729 H   0  0  0  0  0  0
  -17.4197  -26.6669   21.4007 H   0  0  0  0  0  0
  -18.0327  -26.0052   22.8998 H   0  0  0  0  0  0
  -19.7931  -30.7257   24.2278 H   0  0  0  0  0  0
  -17.5016  -31.6267   24.5169 H   0  0  0  0  0  0
  -15.5347  -30.3004   23.7651 H   0  0  0  0  0  0
  -15.8652  -28.0840   22.7055 H   0  0  0  0  0  0
  -24.5885  -30.7076   25.7786 H   0  0  0  0  0  0
  -24.8917  -32.2862   26.4915 H   0  0  0  0  0  0
  -25.8069  -30.8868   27.0204 H   0  0  0  0  0  0
  -26.2828  -29.6819   24.1147 H   0  0  0  0  0  0
  -27.4101  -29.7304   25.4521 H   0  0  0  0  0  0
  -27.8638  -30.4407   23.9182 H   0  0  0  0  0  0
  -27.2669  -33.3624   26.2059 H   0  0  0  0  0  0
  -28.3820  -32.6918   25.0261 H   0  0  0  0  0  0
  -28.0730  -31.8443   26.5347 H   0  0  0  0  0  0
  -28.2625  -38.0103   24.7518 H   0  0  0  0  0  0
  -28.1073  -36.2641   24.6293 H   0  0  0  0  0  0
  -27.2303  -37.1476   25.8870 H   0  0  0  0  0  0
  -20.9263  -29.8760   21.6963 H   0  0  0  0  0  0
  -26.0206  -38.2887   24.1386 H   0  0  0  0  0  0
  -29.2058  -19.3227   18.5416 H   0  0  0  0  0  0
  -30.4416  -22.8347   21.8117 H   0  0  0  0  0  0
  -29.1745  -21.2273   15.3133 H   0  0  0  0  0  0
  -28.9465  -19.8548   16.5147 H   0  0  0  0  0  0
  -29.8133  -22.7370   17.0033 H   0  0  0  0  0  0
  -28.8929  -24.9540   17.3020 H   0  0  0  0  0  0
  -29.6634  -26.4833   17.7100 H   0  0  0  0  0  0
  -27.9238  -26.3995   17.4831 H   0  0  0  0  0  0
  -31.5558  -18.2580   21.1651 H   0  0  0  0  0  0
  -30.9144  -17.1724   19.9838 H   0  0  0  0  0  0
  -30.4010  -16.7510   22.9982 H   0  0  0  0  0  0
  -31.9108  -16.2690   22.2779 H   0  0  0  0  0  0
  -29.6906  -24.6854   21.0515 H   0  0  0  0  0  0
  -30.6952  -25.6327   19.9952 H   0  0  0  0  0  0
  -27.7805  -24.8809   19.5572 H   0  0  0  0  0  0
  -27.5639  -18.4968   21.1825 H   0  0  0  0  0  0
  -30.3150  -23.8566   18.2526 H   0  0  0  0  0  0
  -29.4229  -14.8675   22.0843 H   0  0  0  0  0  0
  1 25  1  0  0  0
  1 30  2  0  0  0
  1 87  1  0  0  0
  2  3  1  0  0  0
  2 25  1  0  0  0
  2 89  1  0  0  0
  2 90  1  0  0  0
  3  4  1  0  0  0
  3 91  1  0  0  0
  3 92  1  0  0  0
  4  5  1  0  0  0
  4 93  1  0  0  0
  4 94  1  0  0  0
  5  6  1  0  0  0
  5 26  1  0  0  0
  5 95  1  0  0  0
  6 25  1  0  0  0
  6 96  1  0  0  0
  6 97  1  0  0  0
  7  8  2  0  0  0
  7 26  1  0  0  0
  7 29  1  0  0  0
  8  9  1  0  0  0
  8 22  1  0  0  0
  9 10  1  0  0  0
  9 27  2  0  0  0
 10 11  2  0  0  0
 10 15  1  0  0  0
 11 12  1  0  0  0
 11 98  1  0  0  0
 12 13  2  0  0  0
 12 99  1  0  0  0
 13 14  1  0  0  0
 13 31  1  0  0  0
 14 15  2  0  0  0
 14100  1  0  0  0
 15101  1  0  0  0
 16 17  2  0  0  0
 16 21  1  0  0  0
 16 31  1  0  0  0
 17 18  1  0  0  0
 17102  1  0  0  0
 18 19  2  0  0  0
 18103  1  0  0  0
 19 20  1  0  0  0
 19 24  1  0  0  0
 20 21  2  0  0  0
 20104  1  0  0  0
 21 23  1  0  0  0
 22 28  1  0  0  0
 22 32  2  0  0  0
 26 27  1  0  0  0
 28105  1  0  0  0
 28106  1  0  0  0
 29107  1  0  0  0
 29108  1  0  0  0
 33 34  1  0  0  0
 33 66  1  0  0  0
 33 70  2  0  0  0
 34 36  1  0  0  0
 34 59  1  0  0  0
 34109  1  0  0  0
 35 44  2  0  0  0
 35 45  1  0  0  0
 35 68  1  0  0  0
 36 56  1  0  0  0
 36110  1  0  0  0
 37 39  1  0  0  0
 37 47  1  0  0  0
 37 66  1  0  0  0
 37111  1  0  0  0
 38 43  2  0  0  0
 38 46  1  0  0  0
 38 47  1  0  0  0
 39 64  1  0  0  0
 39 67  2  0  0  0
 40 52  1  0  0  0
 40 53  2  0  0  0
 40 58  1  0  0  0
 41112  1  0  0  0
 41113  1  0  0  0
 41114  1  0  0  0
 41 48  1  0  0  0
 42 43  1  0  0  0
 42 66  1  0  0  0
 42115  1  0  0  0
 42116  1  0  0  0
 43 44  1  0  0  0
 44117  1  0  0  0
 45 46  2  0  0  0
 45118  1  0  0  0
 46119  1  0  0  0
 47120  1  0  0  0
 47121  1  0  0  0
 48 56  1  0  0  0
 48 65  1  0  0  0
 48122  1  0  0  0
 49 50  1  0  0  0
 49 53  1  0  0  0
 49 64  1  0  0  0
 49123  1  0  0  0
 50 51  1  0  0  0
 50124  1  0  0  0
 50125  1  0  0  0
 51 52  1  0  0  0
 51126  1  0  0  0
 51127  1  0  0  0
 52128  1  0  0  0
 52129  1  0  0  0
 53 54  1  0  0  0
 54 55  2  0  0  0
 54130  1  0  0  0
 55 57  1  0  0  0
 55131  1  0  0  0
 56 69  2  0  0  0
 57 58  2  0  0  0
 57132  1  0  0  0
 58133  1  0  0  0
 59 60  1  0  0  0
 59 61  1  0  0  0
 59 62  1  0  0  0
 60134  1  0  0  0
 60135  1  0  0  0
 60136  1  0  0  0
 61137  1  0  0  0
 61138  1  0  0  0
 61139  1  0  0  0
 62140  1  0  0  0
 62141  1  0  0  0
 62142  1  0  0  0
 63 65  1  0  0  0
 63143  1  0  0  0
 63144  1  0  0  0
 63145  1  0  0  0
 64146  1  0  0  0
 65147  1  0  0  0
 68 84  1  0  0  0
 71 73  2  0  0  0
 71 74  1  0  0  0
 71148  1  0  0  0
 72 75  2  0  0  0
 72 76  1  0  0  0
 72149  1  0  0  0
 73 75  1  0  0  0
 73 78  1  0  0  0
 74 76  2  0  0  0
 74 79  1  0  0  0
 75 86  1  0  0  0
 76 88  1  0  0  0
 77 78  2  0  0  0
 77150  1  0  0  0
 77151  1  0  0  0
 78152  1  0  0  0
 79 81  1  0  0  0
 79 85  2  0  0  0
 80153  1  0  0  0
 80154  1  0  0  0
 80155  1  0  0  0
 80 84  1  0  0  0
 81 82  1  0  0  0
 81156  1  0  0  0
 81157  1  0  0  0
 82 87  1  0  0  0
 82158  1  0  0  0
 82159  1  0  0  0
 83 84  1  0  0  0
 83 86  1  0  0  0
 83160  1  0  0  0
 83161  1  0  0  0
 84162  1  0  0  0
 85163  1  0  0  0
 86164  1  0  0  0
 87165  1  0  0  0
M  ISO  4   1 100  68 101  84 101  87 100
M  END
> <chiral flag>
0

> <version>
0

> <s_m_source_file>
/data/baiqing/PycharmProjects/Reinvent-master-3.2/result/LINK_invent/BTK/process_docking_weight1_custom_product_contain_oxygen_bond_distance_aromatic_linkinvent_7_9_3/rearranged_h_0110.sdf

> <i_m_source_file_index>
18

> <r_mmod_Potential_Energy-OPLS-2005>
-46.7353973388672

> <r_mmod_Stretch_Energy-OPLS-2005>
35.0960464477539

> <r_mmod_Bend_Energy-OPLS-2005>
109.672355651855

> <r_mmod_Torsional_Energy-OPLS-2005>
210.274108886719

> <r_mmod_Improper_Torsional_Energy-OPLS-2005>
5.0478138923645

> <r_mmod_Van_der_Waal_Energy-OPLS-2005>
164.444793701172

> <r_mmod_Electrostatic_Energy-OPLS-2005>
-368.197021484375

> <r_mmod_Solvation_Energy-OPLS-2005>
-211.092422485352

> <b_mmod_Minimization_Converged-OPLS-2005>
0

> <r_mmod_RMS_Derivative-OPLS-2005>
1.52408373355865

$$$$
19
                    3D
 Structure written by MMmdl.
163172  0  0  1  0            999 V2000
  -30.6179  -14.6528   20.4946 C   0  0  0  0  0  0
  -30.4412  -12.4009   19.4485 C   0  0  0  0  0  0
  -29.5083  -12.5109   18.2216 C   0  0  0  0  0  0
  -28.0313  -12.3447   18.6334 C   0  0  0  0  0  0
  -27.6518  -13.2165   19.8598 C   0  0  2  0  0  0
  -28.6991  -13.0796   20.9876 C   0  0  0  0  0  0
  -25.2568  -13.8154   20.5717 C   0  0  0  0  0  0
  -24.1827  -13.0422   20.9188 C   0  0  0  0  0  0
  -24.6393  -11.6893   20.8721 C   0  0  0  0  0  0
  -23.9065  -10.4278   21.0379 C   0  0  0  0  0  0
  -24.3615   -9.4206   21.9171 C   0  0  0  0  0  0
  -23.6288   -8.2245   22.0756 C   0  0  0  0  0  0
  -22.4274   -8.0269   21.3545 C   0  0  0  0  0  0
  -21.9907   -9.0238   20.4649 C   0  0  0  0  0  0
  -22.7228  -10.2119   20.3048 C   0  0  0  0  0  0
  -21.6854   -6.0729   22.5278 C   0  0  0  0  0  0
  -21.4011   -6.5640   23.8207 C   0  0  0  0  0  0
  -21.3668   -5.6797   24.9173 C   0  0  0  0  0  0
  -21.6044   -4.3059   24.7228 C   0  0  0  0  0  0
  -21.8817   -3.8151   23.4352 C   0  0  0  0  0  0
  -21.9194   -4.6959   22.3405 C   0  0  0  0  0  0
  -22.7848  -13.5217   21.1838 C   0  0  0  0  0  0
  -22.1660   -4.2149   21.0983 F   0  0  0  0  0  0
  -21.5638   -3.4549   25.7744 F   0  0  0  0  0  0
  -30.0117  -13.4248   20.4196 N   0  0  0  0  0  0
  -26.2987  -12.9334   20.3315 N   0  0  0  0  0  0
  -25.9326  -11.6487   20.5738 N   0  0  0  0  0  0
  -22.0490  -12.8216   22.0399 N   0  0  0  0  0  0
  -25.4279  -15.1879   20.4210 N   0  0  0  0  0  0
  -31.7957  -14.8125   20.1602 O   0  0  0  0  0  0
  -21.6643   -6.8868   21.4237 O   0  0  0  0  0  0
  -22.3534  -14.5522   20.6681 O   0  0  0  0  0  0
  -24.6296  -31.8603   23.2041 C   0  0  0  0  0  0
  -25.9140  -32.4781   23.8372 C   0  0  1  0  0  0
  -27.2212  -27.3083   20.1112 C   0  0  0  0  0  0
  -25.5951  -33.8581   24.2299 N   0  0  0  0  0  0
  -23.4224  -30.4867   21.5479 C   0  0  2  0  0  0
  -24.8666  -28.9456   20.1128 C   0  0  0  0  0  0
  -22.7490  -29.4638   22.4947 C   0  0  0  0  0  0
  -18.0291  -28.1383   22.8500 C   0  0  0  0  0  0
  -24.1484  -36.7289   23.2639 C   0  0  0  0  0  0
  -25.9673  -30.7875   21.3774 C   0  0  0  0  0  0
  -26.0394  -29.4163   20.7157 C   0  0  0  0  0  0
  -27.2203  -28.6116   20.7028 C   0  0  0  0  0  0
  -26.0154  -26.8970   19.4895 C   0  0  0  0  0  0
  -24.8577  -27.6915   19.4912 C   0  0  0  0  0  0
  -23.6364  -29.8265   20.1624 C   0  0  0  0  0  0
  -25.4113  -36.3091   24.0335 C   0  0  1  0  0  0
  -20.5894  -28.3698   23.1278 C   0  0  2  0  0  0
  -20.6782  -26.9422   22.5407 C   0  0  0  0  0  0
  -19.5749  -26.6383   21.5219 C   0  0  0  0  0  0
  -18.1931  -26.7932   22.1629 C   0  0  0  0  0  0
  -19.1546  -28.8862   23.2883 C   0  0  0  0  0  0
  -18.9464  -30.1464   23.8900 C   0  0  0  0  0  0
  -17.6463  -30.6589   24.0564 C   0  0  0  0  0  0
  -25.9056  -34.9457   23.5113 C   0  0  0  0  0  0
  -16.5354  -29.9084   23.6333 C   0  0  0  0  0  0
  -16.7277  -28.6495   23.0368 C   0  0  0  0  0  0
  -26.4505  -31.6591   25.0748 C   0  0  0  0  0  0
  -25.3726  -31.3721   26.1462 C   0  0  0  0  0  0
  -27.0352  -30.3018   24.6216 C   0  0  0  0  0  0
  -27.6063  -32.4327   25.7520 C   0  0  0  0  0  0
  -27.5587  -37.1799   24.8468 C   0  0  0  0  0  0
  -21.4207  -29.3051   22.3677 N   0  0  0  0  0  0
  -26.4293  -37.3789   23.9418 N   0  0  0  0  0  0
  -24.6921  -31.0613   22.0995 N   0  0  0  0  0  0
  -23.4205  -28.8170   23.3027 O   0  0  0  0  0  0
  -28.3320  -26.4396   20.1580 O   0  0  0  0  0  0
  -26.5616  -34.8924   22.4676 O   0  0  0  0  0  0
  -23.5455  -32.1408   23.7363 O   0  0  0  0  0  0
  -31.0283  -19.3182   21.1076 C   0  0  0  0  0  0
  -31.0101  -17.8923   21.1443 C   0  0  0  0  0  0
  -28.9022  -19.3444   20.0107 C   0  0  0  0  0  0
  -29.9798  -20.1070   20.5384 C   0  0  0  0  0  0
  -29.9197  -17.1523   20.6284 C   0  0  0  0  0  0
  -28.8548  -17.9069   20.0602 C   0  0  0  0  0  0
  -29.1963  -23.8880   20.0519 C   0  0  0  0  0  0
  -29.0289  -22.5698   20.4658 C   0  0  0  0  0  0
  -30.5124  -24.2737   19.4897 C   0  0  0  0  0  0
  -31.5019  -23.1554   19.1806 C   0  0  0  0  0  0
  -31.4325  -22.0208   20.2102 C   0  0  0  0  0  0
  -27.6954  -22.1179   21.0502 C   0  0  0  0  0  0
  -26.8125  -17.8503   18.7961 C   0  0  0  0  0  0
  -28.0658  -24.9884   19.9492 C   0  0  0  0  0  0
  -30.0567  -21.5589   20.4476 N   0  0  0  0  0  0
  -29.7759  -15.7021   20.7473 N   0  0  0  0  0  0
  -30.8402  -25.4321   19.2180 O   0  0  0  0  0  0
  -27.7995  -17.1695   19.5612 O   0  0  0  0  0  0
  -31.4815  -12.5324   19.1453 H   0  0  0  0  0  0
  -30.3814  -11.4061   19.8937 H   0  0  0  0  0  0
  -29.7764  -11.7635   17.4742 H   0  0  0  0  0  0
  -29.6463  -13.4818   17.7430 H   0  0  0  0  0  0
  -27.8705  -11.2905   18.8649 H   0  0  0  0  0  0
  -27.3778  -12.5744   17.7906 H   0  0  0  0  0  0
  -27.6627  -14.2497   19.5129 H   0  0  0  0  0  0
  -28.7130  -12.0598   21.3751 H   0  0  0  0  0  0
  -28.4468  -13.7189   21.8349 H   0  0  0  0  0  0
  -25.2746   -9.5692   22.4759 H   0  0  0  0  0  0
  -23.9996   -7.4645   22.7484 H   0  0  0  0  0  0
  -21.0844   -8.8740   19.8954 H   0  0  0  0  0  0
  -22.3663  -10.9659   19.6168 H   0  0  0  0  0  0
  -21.1992   -7.6147   23.9708 H   0  0  0  0  0  0
  -21.1499   -6.0536   25.9078 H   0  0  0  0  0  0
  -22.0592   -2.7617   23.2857 H   0  0  0  0  0  0
  -22.4108  -11.9881   22.4790 H   0  0  0  0  0  0
  -21.1109  -13.1235   22.2601 H   0  0  0  0  0  0
  -24.6611  -15.8376   20.5525 H   0  0  0  0  0  0
  -26.2829  -15.6403   20.1193 H   0  0  0  0  0  0
  -26.7212  -32.5439   23.1121 H   0  0  0  0  0  0
  -25.0122  -33.9723   25.0458 H   0  0  0  0  0  0
  -22.7174  -31.3088   21.4068 H   0  0  0  0  0  0
  -23.3761  -35.9605   23.3286 H   0  0  0  0  0  0
  -24.3580  -36.8924   22.2059 H   0  0  0  0  0  0
  -23.7210  -37.6476   23.6660 H   0  0  0  0  0  0
  -26.1031  -31.5535   20.6128 H   0  0  0  0  0  0
  -26.8462  -30.8323   22.0087 H   0  0  0  0  0  0
  -28.1205  -28.9715   21.1808 H   0  0  0  0  0  0
  -25.9158  -25.9408   19.0014 H   0  0  0  0  0  0
  -23.9579  -27.3244   19.0168 H   0  0  0  0  0  0
  -23.7578  -30.6048   19.4084 H   0  0  0  0  0  0
  -22.7554  -29.2592   19.8576 H   0  0  0  0  0  0
  -25.1285  -36.1950   25.0828 H   0  0  0  0  0  0
  -20.9987  -28.3274   24.1396 H   0  0  0  0  0  0
  -20.5698  -26.2313   23.3612 H   0  0  0  0  0  0
  -21.6646  -26.7457   22.1183 H   0  0  0  0  0  0
  -19.6905  -25.6289   21.1258 H   0  0  0  0  0  0
  -19.6679  -27.3188   20.6744 H   0  0  0  0  0  0
  -17.4204  -26.6712   21.4022 H   0  0  0  0  0  0
  -18.0311  -26.0059   22.9009 H   0  0  0  0  0  0
  -19.7938  -30.7293   24.2265 H   0  0  0  0  0  0
  -17.5004  -31.6271   24.5161 H   0  0  0  0  0  0
  -15.5350  -30.2979   23.7650 H   0  0  0  0  0  0
  -15.8679  -28.0801   22.7091 H   0  0  0  0  0  0
  -24.5905  -30.7072   25.7775 H   0  0  0  0  0  0
  -24.8908  -32.2881   26.4896 H   0  0  0  0  0  0
  -25.8036  -30.8884   27.0238 H   0  0  0  0  0  0
  -26.2940  -29.6765   24.1230 H   0  0  0  0  0  0
  -27.4035  -29.7278   25.4729 H   0  0  0  0  0  0
  -27.8810  -30.4310   23.9460 H   0  0  0  0  0  0
  -27.2683  -33.3629   26.2100 H   0  0  0  0  0  0
  -28.3870  -32.6891   25.0345 H   0  0  0  0  0  0
  -28.0735  -31.8453   26.5435 H   0  0  0  0  0  0
  -28.2591  -38.0112   24.7548 H   0  0  0  0  0  0
  -28.1099  -36.2647   24.6251 H   0  0  0  0  0  0
  -27.2310  -37.1399   25.8873 H   0  0  0  0  0  0
  -20.9395  -29.8790   21.6893 H   0  0  0  0  0  0
  -26.0177  -38.2865   24.1426 H   0  0  0  0  0  0
  -31.8870  -19.8046   21.5467 H   0  0  0  0  0  0
  -31.8372  -17.3704   21.6050 H   0  0  0  0  0  0
  -28.0981  -19.8955   19.5505 H   0  0  0  0  0  0
  -32.5120  -23.5611   19.1310 H   0  0  0  0  0  0
  -31.2680  -22.7678   18.1898 H   0  0  0  0  0  0
  -31.8673  -22.3483   21.1564 H   0  0  0  0  0  0
  -32.0712  -21.2223   19.8322 H   0  0  0  0  0  0
  -27.3462  -22.8297   21.7983 H   0  0  0  0  0  0
  -27.7514  -21.1611   21.5667 H   0  0  0  0  0  0
  -26.9360  -22.0465   20.2707 H   0  0  0  0  0  0
  -26.1293  -17.1224   18.3592 H   0  0  0  0  0  0
  -27.2564  -18.4097   17.9711 H   0  0  0  0  0  0
  -26.2259  -18.5275   19.4191 H   0  0  0  0  0  0
  -27.2372  -24.7037   20.5960 H   0  0  0  0  0  0
  -27.7171  -24.8717   18.9237 H   0  0  0  0  0  0
  -28.8191  -15.4019   20.8438 H   0  0  0  0  0  0
  1 25  1  0  0  0
  1 30  2  0  0  0
  1 86  1  0  0  0
  2  3  1  0  0  0
  2 25  1  0  0  0
  2 89  1  0  0  0
  2 90  1  0  0  0
  3  4  1  0  0  0
  3 91  1  0  0  0
  3 92  1  0  0  0
  4  5  1  0  0  0
  4 93  1  0  0  0
  4 94  1  0  0  0
  5  6  1  0  0  0
  5 26  1  0  0  0
  5 95  1  0  0  0
  6 25  1  0  0  0
  6 96  1  0  0  0
  6 97  1  0  0  0
  7  8  2  0  0  0
  7 26  1  0  0  0
  7 29  1  0  0  0
  8  9  1  0  0  0
  8 22  1  0  0  0
  9 10  1  0  0  0
  9 27  2  0  0  0
 10 11  2  0  0  0
 10 15  1  0  0  0
 11 12  1  0  0  0
 11 98  1  0  0  0
 12 13  2  0  0  0
 12 99  1  0  0  0
 13 14  1  0  0  0
 13 31  1  0  0  0
 14 15  2  0  0  0
 14100  1  0  0  0
 15101  1  0  0  0
 16 17  2  0  0  0
 16 21  1  0  0  0
 16 31  1  0  0  0
 17 18  1  0  0  0
 17102  1  0  0  0
 18 19  2  0  0  0
 18103  1  0  0  0
 19 20  1  0  0  0
 19 24  1  0  0  0
 20 21  2  0  0  0
 20104  1  0  0  0
 21 23  1  0  0  0
 22 28  1  0  0  0
 22 32  2  0  0  0
 26 27  1  0  0  0
 28105  1  0  0  0
 28106  1  0  0  0
 29107  1  0  0  0
 29108  1  0  0  0
 33 34  1  0  0  0
 33 66  1  0  0  0
 33 70  2  0  0  0
 34 36  1  0  0  0
 34 59  1  0  0  0
 34109  1  0  0  0
 35 44  2  0  0  0
 35 45  1  0  0  0
 35 68  1  0  0  0
 36 56  1  0  0  0
 36110  1  0  0  0
 37 39  1  0  0  0
 37 47  1  0  0  0
 37 66  1  0  0  0
 37111  1  0  0  0
 38 43  2  0  0  0
 38 46  1  0  0  0
 38 47  1  0  0  0
 39 64  1  0  0  0
 39 67  2  0  0  0
 40 52  1  0  0  0
 40 53  2  0  0  0
 40 58  1  0  0  0
 41112  1  0  0  0
 41113  1  0  0  0
 41114  1  0  0  0
 41 48  1  0  0  0
 42 43  1  0  0  0
 42 66  1  0  0  0
 42115  1  0  0  0
 42116  1  0  0  0
 43 44  1  0  0  0
 44117  1  0  0  0
 45 46  2  0  0  0
 45118  1  0  0  0
 46119  1  0  0  0
 47120  1  0  0  0
 47121  1  0  0  0
 48 56  1  0  0  0
 48 65  1  0  0  0
 48122  1  0  0  0
 49 50  1  0  0  0
 49 53  1  0  0  0
 49 64  1  0  0  0
 49123  1  0  0  0
 50 51  1  0  0  0
 50124  1  0  0  0
 50125  1  0  0  0
 51 52  1  0  0  0
 51126  1  0  0  0
 51127  1  0  0  0
 52128  1  0  0  0
 52129  1  0  0  0
 53 54  1  0  0  0
 54 55  2  0  0  0
 54130  1  0  0  0
 55 57  1  0  0  0
 55131  1  0  0  0
 56 69  2  0  0  0
 57 58  2  0  0  0
 57132  1  0  0  0
 58133  1  0  0  0
 59 60  1  0  0  0
 59 61  1  0  0  0
 59 62  1  0  0  0
 60134  1  0  0  0
 60135  1  0  0  0
 60136  1  0  0  0
 61137  1  0  0  0
 61138  1  0  0  0
 61139  1  0  0  0
 62140  1  0  0  0
 62141  1  0  0  0
 62142  1  0  0  0
 63 65  1  0  0  0
 63143  1  0  0  0
 63144  1  0  0  0
 63145  1  0  0  0
 64146  1  0  0  0
 65147  1  0  0  0
 68 84  1  0  0  0
 71 72  2  0  0  0
 71 74  1  0  0  0
 71148  1  0  0  0
 72 75  1  0  0  0
 72149  1  0  0  0
 73 74  2  0  0  0
 73 76  1  0  0  0
 73150  1  0  0  0
 74 85  1  0  0  0
 75 76  2  0  0  0
 75 86  1  0  0  0
 76 88  1  0  0  0
 77 78  2  0  0  0
 77 79  1  0  0  0
 77 84  1  0  0  0
 78 82  1  0  0  0
 78 85  1  0  0  0
 79 80  1  0  0  0
 79 87  2  0  0  0
 80 81  1  0  0  0
 80151  1  0  0  0
 80152  1  0  0  0
 81 85  1  0  0  0
 81153  1  0  0  0
 81154  1  0  0  0
 82155  1  0  0  0
 82156  1  0  0  0
 82157  1  0  0  0
 83 88  1  0  0  0
 83158  1  0  0  0
 83159  1  0  0  0
 83160  1  0  0  0
 84161  1  0  0  0
 84162  1  0  0  0
 86163  1  0  0  0
M  ISO  4   1 100  68 101  84 101  86 100
M  END
> <chiral flag>
0

> <version>
0

> <s_m_source_file>
/data/baiqing/PycharmProjects/Reinvent-master-3.2/result/LINK_invent/BTK/process_docking_weight1_custom_product_contain_oxygen_bond_distance_aromatic_linkinvent_7_9_3/rearranged_h_0110.sdf

> <i_m_source_file_index>
19

> <r_mmod_Potential_Energy-OPLS-2005>
56.2410507202148

> <r_mmod_Stretch_Energy-OPLS-2005>
94.6576156616211

> <r_mmod_Bend_Energy-OPLS-2005>
150.662536621094

> <r_mmod_Torsional_Energy-OPLS-2005>
207.363906860352

> <r_mmod_Improper_Torsional_Energy-OPLS-2005>
6.15997982025146

> <r_mmod_Van_der_Waal_Energy-OPLS-2005>
174.644180297852

> <r_mmod_Electrostatic_Energy-OPLS-2005>
-409.085174560547

> <r_mmod_Solvation_Energy-OPLS-2005>
-222.714233398438

> <b_mmod_Minimization_Converged-OPLS-2005>
0

> <r_mmod_RMS_Derivative-OPLS-2005>
1.35259580612183

$$$$
20
                    3D
 Structure written by MMmdl.
169177  0  0  1  0            999 V2000
  -30.6703  -14.5002   20.5499 C   0  0  0  0  0  0
  -30.4319  -12.3178   19.4167 C   0  0  0  0  0  0
  -29.4971  -12.5114   18.2031 C   0  0  0  0  0  0
  -28.0170  -12.3688   18.6148 C   0  0  0  0  0  0
  -27.6637  -13.2007   19.8761 C   0  0  2  0  0  0
  -28.7093  -12.9698   20.9912 C   0  0  0  0  0  0
  -25.2612  -13.8127   20.5682 C   0  0  0  0  0  0
  -24.1840  -13.0424   20.9152 C   0  0  0  0  0  0
  -24.6370  -11.6885   20.8689 C   0  0  0  0  0  0
  -23.9015  -10.4288   21.0365 C   0  0  0  0  0  0
  -24.3578   -9.4215   21.9152 C   0  0  0  0  0  0
  -23.6276   -8.2236   22.0736 C   0  0  0  0  0  0
  -22.4260   -8.0257   21.3532 C   0  0  0  0  0  0
  -21.9871   -9.0215   20.4631 C   0  0  0  0  0  0
  -22.7175  -10.2108   20.3030 C   0  0  0  0  0  0
  -21.6858   -6.0703   22.5264 C   0  0  0  0  0  0
  -21.4018   -6.5612   23.8192 C   0  0  0  0  0  0
  -21.3663   -5.6775   24.9159 C   0  0  0  0  0  0
  -21.6058   -4.3042   24.7217 C   0  0  0  0  0  0
  -21.8823   -3.8118   23.4343 C   0  0  0  0  0  0
  -21.9193   -4.6928   22.3395 C   0  0  0  0  0  0
  -22.7872  -13.5243   21.1828 C   0  0  0  0  0  0
  -22.1672   -4.2110   21.0971 F   0  0  0  0  0  0
  -21.5631   -3.4530   25.7737 F   0  0  0  0  0  0
  -30.0381  -13.2973   20.4410 N   0  0  0  0  0  0
  -26.3043  -12.9286   20.3374 N   0  0  0  0  0  0
  -25.9300  -11.6447   20.5719 N   0  0  0  0  0  0
  -22.0517  -12.8233   22.0392 N   0  0  0  0  0  0
  -25.4358  -15.1842   20.4108 N   0  0  0  0  0  0
  -31.8115  -14.6854   20.1213 O   0  0  0  0  0  0
  -21.6643   -6.8846   21.4231 O   0  0  0  0  0  0
  -22.3558  -14.5547   20.6668 O   0  0  0  0  0  0
  -24.6180  -31.8659   23.2083 C   0  0  0  0  0  0
  -25.9064  -32.4815   23.8391 C   0  0  1  0  0  0
  -27.2409  -27.4136   20.0880 C   0  0  0  0  0  0
  -25.5907  -33.8617   24.2328 N   0  0  0  0  0  0
  -23.4079  -30.4895   21.5490 C   0  0  2  0  0  0
  -24.8522  -28.9493   20.1142 C   0  0  0  0  0  0
  -22.7430  -29.4663   22.4981 C   0  0  0  0  0  0
  -18.0282  -28.1391   22.8498 C   0  0  0  0  0  0
  -24.1476  -36.7309   23.2645 C   0  0  0  0  0  0
  -25.9390  -30.8194   21.3676 C   0  0  0  0  0  0
  -26.0123  -29.4518   20.7161 C   0  0  0  0  0  0
  -27.2033  -28.6874   20.7074 C   0  0  0  0  0  0
  -26.0537  -26.9223   19.4969 C   0  0  0  0  0  0
  -24.8679  -27.6827   19.5054 C   0  0  0  0  0  0
  -23.6169  -29.8210   20.1640 C   0  0  0  0  0  0
  -25.4098  -36.3122   24.0350 C   0  0  1  0  0  0
  -20.5875  -28.3687   23.1306 C   0  0  2  0  0  0
  -20.6782  -26.9420   22.5423 C   0  0  0  0  0  0
  -19.5758  -26.6394   21.5226 C   0  0  0  0  0  0
  -18.1930  -26.7938   22.1628 C   0  0  0  0  0  0
  -19.1532  -28.8855   23.2900 C   0  0  0  0  0  0
  -18.9459  -30.1457   23.8914 C   0  0  0  0  0  0
  -17.6462  -30.6597   24.0569 C   0  0  0  0  0  0
  -25.9031  -34.9481   23.5139 C   0  0  0  0  0  0
  -16.5354  -29.9099   23.6328 C   0  0  0  0  0  0
  -16.7269  -28.6517   23.0349 C   0  0  0  0  0  0
  -26.4472  -31.6608   25.0737 C   0  0  0  0  0  0
  -25.3721  -31.3729   26.1480 C   0  0  0  0  0  0
  -27.0321  -30.3049   24.6150 C   0  0  0  0  0  0
  -27.6056  -32.4329   25.7481 C   0  0  0  0  0  0
  -27.5578  -37.1812   24.8469 C   0  0  0  0  0  0
  -21.4155  -29.3040   22.3705 N   0  0  0  0  0  0
  -26.4292  -37.3805   23.9416 N   0  0  0  0  0  0
  -24.6736  -31.0740   22.0992 N   0  0  0  0  0  0
  -23.4183  -28.8214   23.3050 O   0  0  0  0  0  0
  -28.4212  -26.6874   20.1034 O   0  0  0  0  0  0
  -26.5594  -34.8939   22.4700 O   0  0  0  0  0  0
  -23.5367  -32.1426   23.7463 O   0  0  0  0  0  0
  -30.4620  -19.1488   20.2114 C   0  0  0  0  0  0
  -29.0264  -18.9204   22.1435 C   0  0  0  0  0  0
  -29.6890  -19.7647   21.2263 C   0  0  0  0  0  0
  -29.9396  -16.9045   21.0689 C   0  0  0  0  0  0
  -30.6030  -17.7315   20.1145 C   0  0  0  0  0  0
  -29.1443  -17.5197   22.0591 C   0  0  0  0  0  0
  -29.6023  -21.2600   21.3475 C   0  0  0  0  0  0
  -28.6747  -22.3073   23.5002 C   0  0  0  0  0  0
  -31.3079  -23.2822   18.4374 C   0  0  0  0  0  0
  -32.2234  -17.9360   18.3438 C   0  0  0  0  0  0
  -29.9193  -21.7963   22.7474 C   0  0  0  0  0  0
  -30.9998  -23.7555   19.8691 C   0  0  0  0  0  0
  -28.4590  -24.1917   19.4724 C   0  0  0  0  0  0
  -28.6643  -25.6951   19.0867 C   0  0  0  0  0  0
  -29.5487  -23.4826   20.3400 C   0  0  1  0  0  0
  -29.3520  -22.0165   20.3346 N   0  0  0  0  0  0
  -29.9074  -15.4683   21.0986 N   0  0  0  0  0  0
  -31.3228  -17.1350   19.1011 O   0  0  0  0  0  0
  -28.4753  -16.7408   22.9445 F   0  0  0  0  0  0
  -31.4748  -12.4288   19.1148 H   0  0  0  0  0  0
  -30.3433  -11.3051   19.8103 H   0  0  0  0  0  0
  -29.7379  -11.7878   17.4239 H   0  0  0  0  0  0
  -29.6633  -13.4969   17.7646 H   0  0  0  0  0  0
  -27.8260  -11.3113   18.8017 H   0  0  0  0  0  0
  -27.3658  -12.6496   17.7859 H   0  0  0  0  0  0
  -27.7091  -14.2501   19.5859 H   0  0  0  0  0  0
  -28.6928  -11.9270   21.3110 H   0  0  0  0  0  0
  -28.4670  -13.5455   21.8848 H   0  0  0  0  0  0
  -25.2716   -9.5710   22.4724 H   0  0  0  0  0  0
  -23.9986   -7.4639   22.7457 H   0  0  0  0  0  0
  -21.0797   -8.8695   19.8957 H   0  0  0  0  0  0
  -22.3592  -10.9621   19.6136 H   0  0  0  0  0  0
  -21.2013   -7.6125   23.9680 H   0  0  0  0  0  0
  -21.1497   -6.0512   25.9061 H   0  0  0  0  0  0
  -22.0604   -2.7578   23.2845 H   0  0  0  0  0  0
  -22.4151  -11.9924   22.4816 H   0  0  0  0  0  0
  -21.1124  -13.1246   22.2579 H   0  0  0  0  0  0
  -24.6756  -15.8444   20.5335 H   0  0  0  0  0  0
  -26.2945  -15.6218   20.1015 H   0  0  0  0  0  0
  -26.7139  -32.5515   23.1156 H   0  0  0  0  0  0
  -25.0066  -33.9763   25.0481 H   0  0  0  0  0  0
  -22.6989  -31.3078   21.4094 H   0  0  0  0  0  0
  -23.3752  -35.9631   23.3323 H   0  0  0  0  0  0
  -24.3572  -36.8903   22.2058 H   0  0  0  0  0  0
  -23.7205  -37.6513   23.6637 H   0  0  0  0  0  0
  -26.0589  -31.5824   20.5975 H   0  0  0  0  0  0
  -26.8255  -30.8711   21.9889 H   0  0  0  0  0  0
  -28.1003  -29.0711   21.1738 H   0  0  0  0  0  0
  -26.0225  -25.9441   19.0395 H   0  0  0  0  0  0
  -23.9738  -27.2842   19.0450 H   0  0  0  0  0  0
  -23.7283  -30.5963   19.4049 H   0  0  0  0  0  0
  -22.7388  -29.2446   19.8681 H   0  0  0  0  0  0
  -25.1268  -36.2003   25.0846 H   0  0  0  0  0  0
  -20.9971  -28.3274   24.1425 H   0  0  0  0  0  0
  -20.5715  -26.2294   23.3614 H   0  0  0  0  0  0
  -21.6646  -26.7479   22.1196 H   0  0  0  0  0  0
  -19.6917  -25.6307   21.1245 H   0  0  0  0  0  0
  -19.6699  -27.3214   20.6764 H   0  0  0  0  0  0
  -17.4207  -26.6707   21.4017 H   0  0  0  0  0  0
  -18.0315  -26.0073   22.9015 H   0  0  0  0  0  0
  -19.7936  -30.7268   24.2291 H   0  0  0  0  0  0
  -17.5019  -31.6275   24.5177 H   0  0  0  0  0  0
  -15.5354  -30.3007   23.7643 H   0  0  0  0  0  0
  -15.8670  -28.0842   22.7047 H   0  0  0  0  0  0
  -24.5867  -30.7117   25.7799 H   0  0  0  0  0  0
  -24.8942  -32.2896   26.4948 H   0  0  0  0  0  0
  -25.8047  -30.8861   27.0229 H   0  0  0  0  0  0
  -26.2893  -29.6794   24.1188 H   0  0  0  0  0  0
  -27.4069  -29.7305   25.4634 H   0  0  0  0  0  0
  -27.8730  -30.4373   23.9337 H   0  0  0  0  0  0
  -27.2692  -33.3623   26.2086 H   0  0  0  0  0  0
  -28.3832  -32.6901   25.0277 H   0  0  0  0  0  0
  -28.0764  -31.8441   26.5363 H   0  0  0  0  0  0
  -28.2614  -38.0093   24.7517 H   0  0  0  0  0  0
  -28.1057  -36.2630   24.6293 H   0  0  0  0  0  0
  -27.2305  -37.1467   25.8875 H   0  0  0  0  0  0
  -20.9337  -29.8725   21.6882 H   0  0  0  0  0  0
  -26.0193  -38.2894   24.1410 H   0  0  0  0  0  0
  -30.9471  -19.8068   19.5051 H   0  0  0  0  0  0
  -28.4138  -19.3411   22.9261 H   0  0  0  0  0  0
  -27.9469  -21.5110   23.6550 H   0  0  0  0  0  0
  -28.1656  -23.1109   22.9689 H   0  0  0  0  0  0
  -28.9523  -22.6903   24.4828 H   0  0  0  0  0  0
  -32.3598  -23.4390   18.1975 H   0  0  0  0  0  0
  -30.7183  -23.8265   17.7000 H   0  0  0  0  0  0
  -31.1008  -22.2175   18.3136 H   0  0  0  0  0  0
  -32.8207  -17.2921   17.6980 H   0  0  0  0  0  0
  -32.9137  -18.4802   18.9899 H   0  0  0  0  0  0
  -31.6972  -18.6443   17.7028 H   0  0  0  0  0  0
  -30.6690  -22.5838   22.6808 H   0  0  0  0  0  0
  -30.3957  -21.0138   23.3393 H   0  0  0  0  0  0
  -31.2308  -24.8173   19.9587 H   0  0  0  0  0  0
  -31.6990  -23.2676   20.5495 H   0  0  0  0  0  0
  -28.3852  -23.6441   18.5323 H   0  0  0  0  0  0
  -27.4856  -24.0695   19.9467 H   0  0  0  0  0  0
  -28.0746  -25.9182   18.1980 H   0  0  0  0  0  0
  -29.6844  -25.8460   18.7388 H   0  0  0  0  0  0
  -29.4553  -23.9120   21.3367 H   0  0  0  0  0  0
  -29.1004  -15.1070   21.5828 H   0  0  0  0  0  0
  1 25  1  0  0  0
  1 30  2  0  0  0
  1 87  1  0  0  0
  2  3  1  0  0  0
  2 25  1  0  0  0
  2 90  1  0  0  0
  2 91  1  0  0  0
  3  4  1  0  0  0
  3 92  1  0  0  0
  3 93  1  0  0  0
  4  5  1  0  0  0
  4 94  1  0  0  0
  4 95  1  0  0  0
  5  6  1  0  0  0
  5 26  1  0  0  0
  5 96  1  0  0  0
  6 25  1  0  0  0
  6 97  1  0  0  0
  6 98  1  0  0  0
  7  8  2  0  0  0
  7 26  1  0  0  0
  7 29  1  0  0  0
  8  9  1  0  0  0
  8 22  1  0  0  0
  9 10  1  0  0  0
  9 27  2  0  0  0
 10 11  2  0  0  0
 10 15  1  0  0  0
 11 12  1  0  0  0
 11 99  1  0  0  0
 12 13  2  0  0  0
 12100  1  0  0  0
 13 14  1  0  0  0
 13 31  1  0  0  0
 14 15  2  0  0  0
 14101  1  0  0  0
 15102  1  0  0  0
 16 17  2  0  0  0
 16 21  1  0  0  0
 16 31  1  0  0  0
 17 18  1  0  0  0
 17103  1  0  0  0
 18 19  2  0  0  0
 18104  1  0  0  0
 19 20  1  0  0  0
 19 24  1  0  0  0
 20 21  2  0  0  0
 20105  1  0  0  0
 21 23  1  0  0  0
 22 28  1  0  0  0
 22 32  2  0  0  0
 26 27  1  0  0  0
 28106  1  0  0  0
 28107  1  0  0  0
 29108  1  0  0  0
 29109  1  0  0  0
 33 34  1  0  0  0
 33 66  1  0  0  0
 33 70  2  0  0  0
 34 36  1  0  0  0
 34 59  1  0  0  0
 34110  1  0  0  0
 35 44  2  0  0  0
 35 45  1  0  0  0
 35 68  1  0  0  0
 36 56  1  0  0  0
 36111  1  0  0  0
 37 39  1  0  0  0
 37 47  1  0  0  0
 37 66  1  0  0  0
 37112  1  0  0  0
 38 43  2  0  0  0
 38 46  1  0  0  0
 38 47  1  0  0  0
 39 64  1  0  0  0
 39 67  2  0  0  0
 40 52  1  0  0  0
 40 53  2  0  0  0
 40 58  1  0  0  0
 41113  1  0  0  0
 41114  1  0  0  0
 41115  1  0  0  0
 41 48  1  0  0  0
 42 43  1  0  0  0
 42 66  1  0  0  0
 42116  1  0  0  0
 42117  1  0  0  0
 43 44  1  0  0  0
 44118  1  0  0  0
 45 46  2  0  0  0
 45119  1  0  0  0
 46120  1  0  0  0
 47121  1  0  0  0
 47122  1  0  0  0
 48 56  1  0  0  0
 48 65  1  0  0  0
 48123  1  0  0  0
 49 50  1  0  0  0
 49 53  1  0  0  0
 49 64  1  0  0  0
 49124  1  0  0  0
 50 51  1  0  0  0
 50125  1  0  0  0
 50126  1  0  0  0
 51 52  1  0  0  0
 51127  1  0  0  0
 51128  1  0  0  0
 52129  1  0  0  0
 52130  1  0  0  0
 53 54  1  0  0  0
 54 55  2  0  0  0
 54131  1  0  0  0
 55 57  1  0  0  0
 55132  1  0  0  0
 56 69  2  0  0  0
 57 58  2  0  0  0
 57133  1  0  0  0
 58134  1  0  0  0
 59 60  1  0  0  0
 59 61  1  0  0  0
 59 62  1  0  0  0
 60135  1  0  0  0
 60136  1  0  0  0
 60137  1  0  0  0
 61138  1  0  0  0
 61139  1  0  0  0
 61140  1  0  0  0
 62141  1  0  0  0
 62142  1  0  0  0
 62143  1  0  0  0
 63 65  1  0  0  0
 63144  1  0  0  0
 63145  1  0  0  0
 63146  1  0  0  0
 64147  1  0  0  0
 65148  1  0  0  0
 68 84  1  0  0  0
 71 73  2  0  0  0
 71 75  1  0  0  0
 71149  1  0  0  0
 72 73  1  0  0  0
 72 76  2  0  0  0
 72150  1  0  0  0
 73 77  1  0  0  0
 74 75  2  0  0  0
 74 76  1  0  0  0
 74 87  1  0  0  0
 75 88  1  0  0  0
 76 89  1  0  0  0
 77 81  1  0  0  0
 77 86  2  0  0  0
 78 81  1  0  0  0
 78151  1  0  0  0
 78152  1  0  0  0
 78153  1  0  0  0
 79 82  1  0  0  0
 79154  1  0  0  0
 79155  1  0  0  0
 79156  1  0  0  0
 80 88  1  0  0  0
 80157  1  0  0  0
 80158  1  0  0  0
 80159  1  0  0  0
 81160  1  0  0  0
 81161  1  0  0  0
 82162  1  0  0  0
 82163  1  0  0  0
 82 85  1  0  0  0
 83 84  1  0  0  0
 83 85  1  0  0  0
 83164  1  0  0  0
 83165  1  0  0  0
 84166  1  0  0  0
 84167  1  0  0  0
 85 86  1  0  0  0
 85168  1  0  0  0
 87169  1  0  0  0
M  ISO  4   1 100  68 101  84 101  87 100
M  END
> <chiral flag>
0

> <version>
0

> <s_m_source_file>
/data/baiqing/PycharmProjects/Reinvent-master-3.2/result/LINK_invent/BTK/process_docking_weight1_custom_product_contain_oxygen_bond_distance_aromatic_linkinvent_7_9_3/rearranged_h_0110.sdf

> <i_m_source_file_index>
20

> <r_mmod_Potential_Energy-OPLS-2005>
-86.6142959594727

> <r_mmod_Stretch_Energy-OPLS-2005>
49.3206367492676

> <r_mmod_Bend_Energy-OPLS-2005>
143.157669067383

> <r_mmod_Torsional_Energy-OPLS-2005>
236.860305786133

> <r_mmod_Improper_Torsional_Energy-OPLS-2005>
2.9875476360321

> <r_mmod_Van_der_Waal_Energy-OPLS-2005>
163.886001586914

> <r_mmod_Electrostatic_Energy-OPLS-2005>
-488.726837158203

> <r_mmod_Solvation_Energy-OPLS-2005>
-210.082077026367

> <b_mmod_Minimization_Converged-OPLS-2005>
0

> <r_mmod_RMS_Derivative-OPLS-2005>
1.91537833213806

$$$$
21
                    3D
 Structure written by MMmdl.
154162  0  0  1  0            999 V2000
  -30.7359  -14.5078   20.5285 C   0  0  0  0  0  0
  -30.4132  -12.3144   19.4443 C   0  0  0  0  0  0
  -29.4948  -12.4854   18.2183 C   0  0  0  0  0  0
  -28.0159  -12.3551   18.6289 C   0  0  0  0  0  0
  -27.6591  -13.2169   19.8712 C   0  0  2  0  0  0
  -28.7041  -13.0588   21.0009 C   0  0  0  0  0  0
  -25.2579  -13.8177   20.5696 C   0  0  0  0  0  0
  -24.1846  -13.0446   20.9197 C   0  0  0  0  0  0
  -24.6411  -11.6919   20.8755 C   0  0  0  0  0  0
  -23.9071  -10.4311   21.0411 C   0  0  0  0  0  0
  -24.3622   -9.4226   21.9191 C   0  0  0  0  0  0
  -23.6313   -8.2252   22.0748 C   0  0  0  0  0  0
  -22.4293   -8.0294   21.3530 C   0  0  0  0  0  0
  -21.9922   -9.0272   20.4631 C   0  0  0  0  0  0
  -22.7242  -10.2161   20.3054 C   0  0  0  0  0  0
  -21.6863   -6.0754   22.5276 C   0  0  0  0  0  0
  -21.4023   -6.5649   23.8212 C   0  0  0  0  0  0
  -21.3650   -5.6796   24.9163 C   0  0  0  0  0  0
  -21.6039   -4.3059   24.7211 C   0  0  0  0  0  0
  -21.8827   -3.8160   23.4325 C   0  0  0  0  0  0
  -21.9202   -4.6982   22.3387 C   0  0  0  0  0  0
  -22.7865  -13.5249   21.1851 C   0  0  0  0  0  0
  -22.1674   -4.2169   21.0965 F   0  0  0  0  0  0
  -21.5615   -3.4536   25.7716 F   0  0  0  0  0  0
  -30.0327  -13.3397   20.4363 N   0  0  0  0  0  0
  -26.3031  -12.9378   20.3396 N   0  0  0  0  0  0
  -25.9346  -11.6526   20.5794 N   0  0  0  0  0  0
  -22.0504  -12.8245   22.0395 N   0  0  0  0  0  0
  -25.4288  -15.1900   20.4063 N   0  0  0  0  0  0
  -31.8880  -14.5762   20.0916 O   0  0  0  0  0  0
  -21.6647   -6.8898   21.4236 O   0  0  0  0  0  0
  -22.3541  -14.5564   20.6708 O   0  0  0  0  0  0
  -24.6150  -31.8660   23.2070 C   0  0  0  0  0  0
  -25.9036  -32.4809   23.8370 C   0  0  1  0  0  0
  -27.2325  -27.4136   20.1167 C   0  0  0  0  0  0
  -25.5887  -33.8609   24.2306 N   0  0  0  0  0  0
  -23.4063  -30.4892   21.5456 C   0  0  2  0  0  0
  -24.8561  -28.9503   20.1137 C   0  0  0  0  0  0
  -22.7420  -29.4655   22.4957 C   0  0  0  0  0  0
  -18.0283  -28.1382   22.8433 C   0  0  0  0  0  0
  -24.1490  -36.7314   23.2637 C   0  0  0  0  0  0
  -25.9353  -30.8274   21.3631 C   0  0  0  0  0  0
  -26.0162  -29.4592   20.7122 C   0  0  0  0  0  0
  -27.2121  -28.7018   20.7043 C   0  0  0  0  0  0
  -26.0596  -26.9197   19.5115 C   0  0  0  0  0  0
  -24.8744  -27.6822   19.5042 C   0  0  0  0  0  0
  -23.6170  -29.8185   20.1609 C   0  0  0  0  0  0
  -25.4111  -36.3098   24.0331 C   0  0  1  0  0  0
  -20.5877  -28.3685   23.1312 C   0  0  2  0  0  0
  -20.6794  -26.9411   22.5431 C   0  0  0  0  0  0
  -19.5800  -26.6412   21.5201 C   0  0  0  0  0  0
  -18.1958  -26.7909   22.1604 C   0  0  0  0  0  0
  -19.1522  -28.8839   23.2878 C   0  0  0  0  0  0
  -18.9440  -30.1441   23.8895 C   0  0  0  0  0  0
  -17.6435  -30.6541   24.0576 C   0  0  0  0  0  0
  -25.9037  -34.9468   23.5115 C   0  0  0  0  0  0
  -16.5331  -29.9055   23.6286 C   0  0  0  0  0  0
  -16.7267  -28.6519   23.0214 C   0  0  0  0  0  0
  -26.4465  -31.6587   25.0701 C   0  0  0  0  0  0
  -25.3731  -31.3697   26.1457 C   0  0  0  0  0  0
  -27.0310  -30.3030   24.6075 C   0  0  0  0  0  0
  -27.6031  -32.4308   25.7475 C   0  0  0  0  0  0
  -27.5578  -37.1812   24.8464 C   0  0  0  0  0  0
  -21.4129  -29.3063   22.3717 N   0  0  0  0  0  0
  -26.4296  -37.3779   23.9399 N   0  0  0  0  0  0
  -24.6703  -31.0758   22.0968 N   0  0  0  0  0  0
  -23.4189  -28.8197   23.3003 O   0  0  0  0  0  0
  -28.3730  -26.6355   20.1225 O   0  0  0  0  0  0
  -26.5603  -34.8923   22.4682 O   0  0  0  0  0  0
  -23.5335  -32.1406   23.7457 O   0  0  0  0  0  0
  -29.5338  -19.2649   20.7881 C   0  0  0  0  0  0
  -28.0521  -20.0916   22.4924 C   0  0  0  0  0  0
  -29.5757  -18.0044   21.4539 C   0  0  0  0  0  0
  -28.7883  -20.3515   21.3155 C   0  0  0  0  0  0
  -28.8481  -17.9152   22.6669 C   0  0  0  0  0  0
  -30.4749  -16.9056   20.9044 C   0  0  0  0  0  0
  -28.5142  -22.8533   21.1765 C   0  0  0  0  0  0
  -28.4785  -24.0882   20.2334 C   0  0  0  0  0  0
  -28.3119  -25.4587   20.9655 C   0  0  0  0  0  0
  -28.0846  -18.9110   23.1479 N   0  0  0  0  0  0
  -28.8526  -16.8049   23.5031 N   0  0  0  0  0  0
  -28.7751  -21.6314   20.6455 N   0  0  0  0  0  0
  -30.0630  -15.6050   20.9699 N   0  0  0  0  0  0
  -31.5303  -17.2708   20.3721 O   0  0  0  0  0  0
  -28.3337  -23.0151   22.3852 O   0  0  0  0  0  0
  -31.4583  -12.3806   19.1355 H   0  0  0  0  0  0
  -30.3005  -11.3166   19.8717 H   0  0  0  0  0  0
  -29.7340  -11.7413   17.4577 H   0  0  0  0  0  0
  -29.6702  -13.4593   17.7589 H   0  0  0  0  0  0
  -27.8224  -11.3025   18.8407 H   0  0  0  0  0  0
  -27.3691  -12.6173   17.7902 H   0  0  0  0  0  0
  -27.6890  -14.2561   19.5449 H   0  0  0  0  0  0
  -28.6829  -12.0444   21.4035 H   0  0  0  0  0  0
  -28.4730  -13.7158   21.8402 H   0  0  0  0  0  0
  -25.2764   -9.5708   22.4769 H   0  0  0  0  0  0
  -24.0030   -7.4632   22.7457 H   0  0  0  0  0  0
  -21.0860   -8.8790   19.8928 H   0  0  0  0  0  0
  -22.3707  -10.9708   19.6164 H   0  0  0  0  0  0
  -21.2034   -7.6159   23.9724 H   0  0  0  0  0  0
  -21.1452   -6.0512   25.9064 H   0  0  0  0  0  0
  -22.0619   -2.7627   23.2810 H   0  0  0  0  0  0
  -22.4127  -11.9915   22.4794 H   0  0  0  0  0  0
  -21.1098  -13.1244   22.2561 H   0  0  0  0  0  0
  -24.6623  -15.8451   20.5134 H   0  0  0  0  0  0
  -26.2816  -15.6289   20.0842 H   0  0  0  0  0  0
  -26.7101  -32.5502   23.1123 H   0  0  0  0  0  0
  -25.0037  -33.9781   25.0450 H   0  0  0  0  0  0
  -22.6964  -31.3057   21.4025 H   0  0  0  0  0  0
  -23.3736  -35.9660   23.3313 H   0  0  0  0  0  0
  -24.3577  -36.8917   22.2045 H   0  0  0  0  0  0
  -23.7270  -37.6530   23.6654 H   0  0  0  0  0  0
  -26.0501  -31.5925   20.5945 H   0  0  0  0  0  0
  -26.8237  -30.8814   21.9810 H   0  0  0  0  0  0
  -28.1086  -29.0926   21.1675 H   0  0  0  0  0  0
  -26.0639  -25.9417   19.0499 H   0  0  0  0  0  0
  -23.9851  -27.2866   19.0330 H   0  0  0  0  0  0
  -23.7236  -30.5914   19.3997 H   0  0  0  0  0  0
  -22.7415  -29.2372   19.8657 H   0  0  0  0  0  0
  -25.1296  -36.1946   25.0823 H   0  0  0  0  0  0
  -20.9971  -28.3255   24.1432 H   0  0  0  0  0  0
  -21.6676  -26.7425   22.1256 H   0  0  0  0  0  0
  -20.5699  -26.2287   23.3627 H   0  0  0  0  0  0
  -19.7007  -25.6340   21.1201 H   0  0  0  0  0  0
  -19.6755  -27.3256   20.6764 H   0  0  0  0  0  0
  -17.4238  -26.6635   21.4010 H   0  0  0  0  0  0
  -18.0391  -26.0056   22.9017 H   0  0  0  0  0  0
  -19.7908  -30.7283   24.2266 H   0  0  0  0  0  0
  -17.4977  -31.6192   24.5228 H   0  0  0  0  0  0
  -15.5316  -30.2941   23.7611 H   0  0  0  0  0  0
  -15.8684  -28.0906   22.6778 H   0  0  0  0  0  0
  -24.5891  -30.7051   25.7810 H   0  0  0  0  0  0
  -24.8939  -32.2858   26.4918 H   0  0  0  0  0  0
  -25.8094  -30.8862   27.0209 H   0  0  0  0  0  0
  -26.2862  -29.6780   24.1132 H   0  0  0  0  0  0
  -27.4094  -29.7263   25.4528 H   0  0  0  0  0  0
  -27.8685  -30.4361   23.9222 H   0  0  0  0  0  0
  -27.2635  -33.3589   26.2089 H   0  0  0  0  0  0
  -28.3835  -32.6898   25.0306 H   0  0  0  0  0  0
  -28.0707  -31.8404   26.5366 H   0  0  0  0  0  0
  -28.2605  -38.0099   24.7495 H   0  0  0  0  0  0
  -28.1071  -36.2632   24.6314 H   0  0  0  0  0  0
  -27.2302  -37.1487   25.8870 H   0  0  0  0  0  0
  -20.9273  -29.8798   21.6959 H   0  0  0  0  0  0
  -26.0181  -38.2856   24.1380 H   0  0  0  0  0  0
  -30.1000  -19.4058   19.8788 H   0  0  0  0  0  0
  -27.4039  -20.8293   22.9365 H   0  0  0  0  0  0
  -27.6552  -23.9548   19.5316 H   0  0  0  0  0  0
  -29.3978  -24.1007   19.6477 H   0  0  0  0  0  0
  -29.1141  -25.5604   21.6970 H   0  0  0  0  0  0
  -27.3878  -25.4462   21.5474 H   0  0  0  0  0  0
  -28.4846  -16.9605   24.4340 H   0  0  0  0  0  0
  -29.6836  -16.2276   23.5196 H   0  0  0  0  0  0
  -29.0385  -21.6290   19.6677 H   0  0  0  0  0  0
  -29.1461  -15.4441   21.3529 H   0  0  0  0  0  0
  1 25  1  0  0  0
  1 30  2  0  0  0
  1 83  1  0  0  0
  2  3  1  0  0  0
  2 25  1  0  0  0
  2 86  1  0  0  0
  2 87  1  0  0  0
  3  4  1  0  0  0
  3 88  1  0  0  0
  3 89  1  0  0  0
  4  5  1  0  0  0
  4 90  1  0  0  0
  4 91  1  0  0  0
  5  6  1  0  0  0
  5 26  1  0  0  0
  5 92  1  0  0  0
  6 25  1  0  0  0
  6 93  1  0  0  0
  6 94  1  0  0  0
  7  8  2  0  0  0
  7 26  1  0  0  0
  7 29  1  0  0  0
  8  9  1  0  0  0
  8 22  1  0  0  0
  9 10  1  0  0  0
  9 27  2  0  0  0
 10 11  2  0  0  0
 10 15  1  0  0  0
 11 12  1  0  0  0
 11 95  1  0  0  0
 12 13  2  0  0  0
 12 96  1  0  0  0
 13 14  1  0  0  0
 13 31  1  0  0  0
 14 15  2  0  0  0
 14 97  1  0  0  0
 15 98  1  0  0  0
 16 17  2  0  0  0
 16 21  1  0  0  0
 16 31  1  0  0  0
 17 18  1  0  0  0
 17 99  1  0  0  0
 18 19  2  0  0  0
 18100  1  0  0  0
 19 20  1  0  0  0
 19 24  1  0  0  0
 20 21  2  0  0  0
 20101  1  0  0  0
 21 23  1  0  0  0
 22 28  1  0  0  0
 22 32  2  0  0  0
 26 27  1  0  0  0
 28102  1  0  0  0
 28103  1  0  0  0
 29104  1  0  0  0
 29105  1  0  0  0
 33 34  1  0  0  0
 33 66  1  0  0  0
 33 70  2  0  0  0
 34 36  1  0  0  0
 34 59  1  0  0  0
 34106  1  0  0  0
 35 44  2  0  0  0
 35 45  1  0  0  0
 35 68  1  0  0  0
 36 56  1  0  0  0
 36107  1  0  0  0
 37 39  1  0  0  0
 37 47  1  0  0  0
 37 66  1  0  0  0
 37108  1  0  0  0
 38 43  2  0  0  0
 38 46  1  0  0  0
 38 47  1  0  0  0
 39 64  1  0  0  0
 39 67  2  0  0  0
 40 52  1  0  0  0
 40 53  2  0  0  0
 40 58  1  0  0  0
 41109  1  0  0  0
 41110  1  0  0  0
 41111  1  0  0  0
 41 48  1  0  0  0
 42 43  1  0  0  0
 42 66  1  0  0  0
 42112  1  0  0  0
 42113  1  0  0  0
 43 44  1  0  0  0
 44114  1  0  0  0
 45 46  2  0  0  0
 45115  1  0  0  0
 46116  1  0  0  0
 47117  1  0  0  0
 47118  1  0  0  0
 48 56  1  0  0  0
 48 65  1  0  0  0
 48119  1  0  0  0
 49 50  1  0  0  0
 49 53  1  0  0  0
 49 64  1  0  0  0
 49120  1  0  0  0
 50 51  1  0  0  0
 50121  1  0  0  0
 50122  1  0  0  0
 51 52  1  0  0  0
 51123  1  0  0  0
 51124  1  0  0  0
 52125  1  0  0  0
 52126  1  0  0  0
 53 54  1  0  0  0
 54 55  2  0  0  0
 54127  1  0  0  0
 55 57  1  0  0  0
 55128  1  0  0  0
 56 69  2  0  0  0
 57 58  2  0  0  0
 57129  1  0  0  0
 58130  1  0  0  0
 59 60  1  0  0  0
 59 61  1  0  0  0
 59 62  1  0  0  0
 60131  1  0  0  0
 60132  1  0  0  0
 60133  1  0  0  0
 61134  1  0  0  0
 61135  1  0  0  0
 61136  1  0  0  0
 62137  1  0  0  0
 62138  1  0  0  0
 62139  1  0  0  0
 63 65  1  0  0  0
 63140  1  0  0  0
 63141  1  0  0  0
 63142  1  0  0  0
 64143  1  0  0  0
 65144  1  0  0  0
 68 79  1  0  0  0
 71 73  2  0  0  0
 71 74  1  0  0  0
 71145  1  0  0  0
 72 74  2  0  0  0
 72 80  1  0  0  0
 72146  1  0  0  0
 73 75  1  0  0  0
 73 76  1  0  0  0
 74 82  1  0  0  0
 75 80  2  0  0  0
 75 81  1  0  0  0
 76 83  1  0  0  0
 76 84  2  0  0  0
 77 78  1  0  0  0
 77 82  1  0  0  0
 77 85  2  0  0  0
 78 79  1  0  0  0
 78147  1  0  0  0
 78148  1  0  0  0
 79149  1  0  0  0
 79150  1  0  0  0
 81151  1  0  0  0
 81152  1  0  0  0
 82153  1  0  0  0
 83154  1  0  0  0
M  ISO  4   1 100  68 101  79 101  83 100
M  END
> <chiral flag>
0

> <version>
0

> <s_m_source_file>
/data/baiqing/PycharmProjects/Reinvent-master-3.2/result/LINK_invent/BTK/process_docking_weight1_custom_product_contain_oxygen_bond_distance_aromatic_linkinvent_7_9_3/rearranged_h_0110.sdf

> <i_m_source_file_index>
21

> <r_mmod_Potential_Energy-OPLS-2005>
-280.903198242188

> <r_mmod_Stretch_Energy-OPLS-2005>
48.062572479248

> <r_mmod_Bend_Energy-OPLS-2005>
111.983406066895

> <r_mmod_Torsional_Energy-OPLS-2005>
253.680313110352

> <r_mmod_Improper_Torsional_Energy-OPLS-2005>
8.138596534729

> <r_mmod_Van_der_Waal_Energy-OPLS-2005>
165.876159667969

> <r_mmod_Electrostatic_Energy-OPLS-2005>
-627.644897460938

> <r_mmod_Solvation_Energy-OPLS-2005>
-261.556976318359

> <b_mmod_Minimization_Converged-OPLS-2005>
0

> <r_mmod_RMS_Derivative-OPLS-2005>
2.51670360565186

$$$$
22
                    3D
 Structure written by MMmdl.
156164  0  0  1  0            999 V2000
  -30.6937  -14.5565   20.5126 C   0  0  0  0  0  0
  -30.4210  -12.3381   19.4710 C   0  0  0  0  0  0
  -29.5027  -12.4751   18.2387 C   0  0  0  0  0  0
  -28.0240  -12.3385   18.6487 C   0  0  0  0  0  0
  -27.6553  -13.2195   19.8735 C   0  0  2  0  0  0
  -28.6932  -13.0779   21.0109 C   0  0  0  0  0  0
  -25.2534  -13.8205   20.5664 C   0  0  0  0  0  0
  -24.1796  -13.0467   20.9174 C   0  0  0  0  0  0
  -24.6377  -11.6934   20.8783 C   0  0  0  0  0  0
  -23.9082  -10.4316   21.0475 C   0  0  0  0  0  0
  -24.3627   -9.4210   21.9239 C   0  0  0  0  0  0
  -23.6287   -8.2243   22.0784 C   0  0  0  0  0  0
  -22.4263   -8.0307   21.3571 C   0  0  0  0  0  0
  -21.9925   -9.0290   20.4663 C   0  0  0  0  0  0
  -22.7272  -10.2164   20.3103 C   0  0  0  0  0  0
  -21.6840   -6.0753   22.5274 C   0  0  0  0  0  0
  -21.3999   -6.5651   23.8217 C   0  0  0  0  0  0
  -21.3658   -5.6795   24.9173 C   0  0  0  0  0  0
  -21.6037   -4.3063   24.7205 C   0  0  0  0  0  0
  -21.8818   -3.8157   23.4329 C   0  0  0  0  0  0
  -21.9179   -4.6978   22.3387 C   0  0  0  0  0  0
  -22.7813  -13.5267   21.1830 C   0  0  0  0  0  0
  -22.1658   -4.2173   21.0970 F   0  0  0  0  0  0
  -21.5629   -3.4540   25.7721 F   0  0  0  0  0  0
  -30.0215  -13.3683   20.4504 N   0  0  0  0  0  0
  -26.2991  -12.9395   20.3397 N   0  0  0  0  0  0
  -25.9322  -11.6548   20.5841 N   0  0  0  0  0  0
  -22.0450  -12.8249   22.0385 N   0  0  0  0  0  0
  -25.4230  -15.1920   20.3990 N   0  0  0  0  0  0
  -31.8476  -14.6420   20.0826 O   0  0  0  0  0  0
  -21.6628   -6.8896   21.4246 O   0  0  0  0  0  0
  -22.3497  -14.5596   20.6714 O   0  0  0  0  0  0
  -24.6193  -31.8640   23.2075 C   0  0  0  0  0  0
  -25.9048  -32.4813   23.8420 C   0  0  1  0  0  0
  -27.2388  -27.4000   20.1136 C   0  0  0  0  0  0
  -25.5861  -33.8607   24.2331 N   0  0  0  0  0  0
  -23.4121  -30.4848   21.5457 C   0  0  2  0  0  0
  -24.8628  -28.9465   20.1106 C   0  0  0  0  0  0
  -22.7454  -29.4627   22.4954 C   0  0  0  0  0  0
  -18.0278  -28.1403   22.8480 C   0  0  0  0  0  0
  -24.1476  -36.7330   23.2644 C   0  0  0  0  0  0
  -25.9430  -30.8222   21.3603 C   0  0  0  0  0  0
  -26.0247  -29.4520   20.7099 C   0  0  0  0  0  0
  -27.2180  -28.6892   20.7036 C   0  0  0  0  0  0
  -26.0634  -26.9161   19.5047 C   0  0  0  0  0  0
  -24.8787  -27.6795   19.5027 C   0  0  0  0  0  0
  -23.6241  -29.8159   20.1607 C   0  0  0  0  0  0
  -25.4079  -36.3110   24.0359 C   0  0  1  0  0  0
  -20.5864  -28.3696   23.1321 C   0  0  2  0  0  0
  -20.6780  -26.9416   22.5448 C   0  0  0  0  0  0
  -19.5763  -26.6403   21.5250 C   0  0  0  0  0  0
  -18.1927  -26.7941   22.1632 C   0  0  0  0  0  0
  -19.1522  -28.8856   23.2899 C   0  0  0  0  0  0
  -18.9456  -30.1451   23.8925 C   0  0  0  0  0  0
  -17.6468  -30.6597   24.0565 C   0  0  0  0  0  0
  -25.9025  -34.9468   23.5157 C   0  0  0  0  0  0
  -16.5362  -29.9095   23.6339 C   0  0  0  0  0  0
  -16.7272  -28.6521   23.0342 C   0  0  0  0  0  0
  -26.4464  -31.6583   25.0765 C   0  0  0  0  0  0
  -25.3732  -31.3610   26.1529 C   0  0  0  0  0  0
  -27.0319  -30.3051   24.6096 C   0  0  0  0  0  0
  -27.6086  -32.4270   25.7473 C   0  0  0  0  0  0
  -27.5576  -37.1801   24.8464 C   0  0  0  0  0  0
  -21.4165  -29.3046   22.3719 N   0  0  0  0  0  0
  -26.4276  -37.3810   23.9430 N   0  0  0  0  0  0
  -24.6777  -31.0724   22.0982 N   0  0  0  0  0  0
  -23.4206  -28.8180   23.3013 O   0  0  0  0  0  0
  -28.3691  -26.6033   20.1178 O   0  0  0  0  0  0
  -26.5614  -34.8908   22.4739 O   0  0  0  0  0  0
  -23.5385  -32.1400   23.7460 O   0  0  0  0  0  0
  -28.0697  -20.2980   22.3597 C   0  0  0  0  0  0
  -27.9944  -19.0637   23.0367 C   0  0  0  0  0  0
  -28.6600  -17.9193   22.5282 C   0  0  0  0  0  0
  -29.4290  -18.0473   21.3366 C   0  0  0  0  0  0
  -28.8306  -20.3953   21.1750 C   0  0  0  0  0  0
  -28.4980  -24.0707   20.3370 C   0  0  0  0  0  0
  -28.7579  -22.9264   21.0266 C   0  0  0  0  0  0
  -30.3176  -16.9582   20.7422 C   0  0  0  0  0  0
  -28.2996  -25.4514   20.9987 C   0  0  0  0  0  0
  -29.4616  -19.2728   20.7283 N   0  3  0  0  0  0
  -27.2902  -18.9453   24.2408 N   0  0  0  0  0  0
  -28.5104  -16.7289   23.2534 N   0  0  0  0  0  0
  -28.9418  -21.6612   20.4366 N   0  0  0  0  0  0
  -29.9874  -15.6482   20.9186 N   0  0  0  0  0  0
  -31.2726  -17.3499   20.0556 O   0  0  0  0  0  0
  -31.4659  -12.4273   19.1676 H   0  0  0  0  0  0
  -30.3303  -11.3475   19.9180 H   0  0  0  0  0  0
  -29.7518  -11.7115   17.5022 H   0  0  0  0  0  0
  -29.6661  -13.4386   17.7550 H   0  0  0  0  0  0
  -27.8445  -11.2890   18.8883 H   0  0  0  0  0  0
  -27.3748  -12.5753   17.8046 H   0  0  0  0  0  0
  -27.6816  -14.2540   19.5296 H   0  0  0  0  0  0
  -28.6758  -12.0702   21.4245 H   0  0  0  0  0  0
  -28.4441  -13.7426   21.8400 H   0  0  0  0  0  0
  -25.2768   -9.5668   22.4839 H   0  0  0  0  0  0
  -23.9971   -7.4625   22.7519 H   0  0  0  0  0  0
  -21.0848   -8.8843   19.8970 H   0  0  0  0  0  0
  -22.3757  -10.9729   19.6216 H   0  0  0  0  0  0
  -21.2010   -7.6155   23.9725 H   0  0  0  0  0  0
  -21.1474   -6.0526   25.9079 H   0  0  0  0  0  0
  -22.0597   -2.7617   23.2809 H   0  0  0  0  0  0
  -22.3999  -11.9857   22.4723 H   0  0  0  0  0  0
  -21.1114  -13.1362   22.2693 H   0  0  0  0  0  0
  -24.6630  -15.8525   20.5224 H   0  0  0  0  0  0
  -26.2758  -15.6293   20.0740 H   0  0  0  0  0  0
  -26.7130  -32.5512   23.1204 H   0  0  0  0  0  0
  -24.9980  -33.9752   25.0444 H   0  0  0  0  0  0
  -22.7060  -31.3043   21.4012 H   0  0  0  0  0  0
  -23.3759  -35.9663   23.3311 H   0  0  0  0  0  0
  -24.3589  -36.8958   22.2072 H   0  0  0  0  0  0
  -23.7222  -37.6524   23.6666 H   0  0  0  0  0  0
  -26.0516  -31.5801   20.5812 H   0  0  0  0  0  0
  -26.8358  -30.8874   21.9717 H   0  0  0  0  0  0
  -28.1152  -29.0712   21.1709 H   0  0  0  0  0  0
  -26.0661  -25.9408   19.0408 H   0  0  0  0  0  0
  -23.9878  -27.2828   19.0374 H   0  0  0  0  0  0
  -23.7247  -30.5935   19.4007 H   0  0  0  0  0  0
  -22.7483  -29.2338   19.8685 H   0  0  0  0  0  0
  -25.1236  -36.2015   25.0864 H   0  0  0  0  0  0
  -20.9962  -28.3266   24.1439 H   0  0  0  0  0  0
  -20.5752  -26.2271   23.3618 H   0  0  0  0  0  0
  -21.6620  -26.7492   22.1157 H   0  0  0  0  0  0
  -19.6945  -25.6331   21.1226 H   0  0  0  0  0  0
  -19.6722  -27.3262   20.6814 H   0  0  0  0  0  0
  -17.4200  -26.6707   21.4021 H   0  0  0  0  0  0
  -18.0297  -26.0083   22.9024 H   0  0  0  0  0  0
  -19.7925  -30.7250   24.2309 H   0  0  0  0  0  0
  -17.5009  -31.6269   24.5190 H   0  0  0  0  0  0
  -15.5344  -30.3024   23.7651 H   0  0  0  0  0  0
  -15.8652  -28.0862   22.7050 H   0  0  0  0  0  0
  -24.5954  -30.6886   25.7873 H   0  0  0  0  0  0
  -24.8824  -32.2690   26.5038 H   0  0  0  0  0  0
  -25.8115  -30.8769   27.0267 H   0  0  0  0  0  0
  -26.2837  -29.6791   24.1221 H   0  0  0  0  0  0
  -27.4221  -29.7311   25.4514 H   0  0  0  0  0  0
  -27.8618  -30.4439   23.9164 H   0  0  0  0  0  0
  -27.2798  -33.3627   26.2006 H   0  0  0  0  0  0
  -28.3892  -32.6732   25.0251 H   0  0  0  0  0  0
  -28.0743  -31.8380   26.5377 H   0  0  0  0  0  0
  -28.2581  -38.0115   24.7544 H   0  0  0  0  0  0
  -28.1074  -36.2648   24.6229 H   0  0  0  0  0  0
  -27.2295  -37.1387   25.8866 H   0  0  0  0  0  0
  -20.9359  -29.8742   21.6897 H   0  0  0  0  0  0
  -26.0191  -38.2912   24.1425 H   0  0  0  0  0  0
  -27.5396  -21.1549   22.7443 H   0  0  0  0  0  0
  -28.4060  -24.0320   19.2594 H   0  0  0  0  0  0
  -28.8526  -22.9362   22.1032 H   0  0  0  0  0  0
  -29.0791  -25.5712   21.7510 H   0  0  0  0  0  0
  -27.3613  -25.4280   21.5573 H   0  0  0  0  0  0
  -30.0484  -19.3282   19.8909 H   0  0  0  0  0  0
  -27.0939  -19.8218   24.7062 H   0  0  0  0  0  0
  -27.7472  -18.3117   24.8846 H   0  0  0  0  0  0
  -27.7340  -16.8480   23.8958 H   0  0  0  0  0  0
  -29.3234  -16.5009   23.8161 H   0  0  0  0  0  0
  -29.2048  -21.5676   19.4661 H   0  0  0  0  0  0
  -29.1209  -15.4998   21.4120 H   0  0  0  0  0  0
  1 25  1  0  0  0
  1 30  2  0  0  0
  1 84  1  0  0  0
  2  3  1  0  0  0
  2 25  1  0  0  0
  2 86  1  0  0  0
  2 87  1  0  0  0
  3  4  1  0  0  0
  3 88  1  0  0  0
  3 89  1  0  0  0
  4  5  1  0  0  0
  4 90  1  0  0  0
  4 91  1  0  0  0
  5  6  1  0  0  0
  5 26  1  0  0  0
  5 92  1  0  0  0
  6 25  1  0  0  0
  6 93  1  0  0  0
  6 94  1  0  0  0
  7  8  2  0  0  0
  7 26  1  0  0  0
  7 29  1  0  0  0
  8  9  1  0  0  0
  8 22  1  0  0  0
  9 10  1  0  0  0
  9 27  2  0  0  0
 10 11  2  0  0  0
 10 15  1  0  0  0
 11 12  1  0  0  0
 11 95  1  0  0  0
 12 13  2  0  0  0
 12 96  1  0  0  0
 13 14  1  0  0  0
 13 31  1  0  0  0
 14 15  2  0  0  0
 14 97  1  0  0  0
 15 98  1  0  0  0
 16 17  2  0  0  0
 16 21  1  0  0  0
 16 31  1  0  0  0
 17 18  1  0  0  0
 17 99  1  0  0  0
 18 19  2  0  0  0
 18100  1  0  0  0
 19 20  1  0  0  0
 19 24  1  0  0  0
 20 21  2  0  0  0
 20101  1  0  0  0
 21 23  1  0  0  0
 22 28  1  0  0  0
 22 32  2  0  0  0
 26 27  1  0  0  0
 28102  1  0  0  0
 28103  1  0  0  0
 29104  1  0  0  0
 29105  1  0  0  0
 33 34  1  0  0  0
 33 66  1  0  0  0
 33 70  2  0  0  0
 34 36  1  0  0  0
 34 59  1  0  0  0
 34106  1  0  0  0
 35 44  2  0  0  0
 35 45  1  0  0  0
 35 68  1  0  0  0
 36 56  1  0  0  0
 36107  1  0  0  0
 37 39  1  0  0  0
 37 47  1  0  0  0
 37 66  1  0  0  0
 37108  1  0  0  0
 38 43  2  0  0  0
 38 46  1  0  0  0
 38 47  1  0  0  0
 39 64  1  0  0  0
 39 67  2  0  0  0
 40 52  1  0  0  0
 40 53  2  0  0  0
 40 58  1  0  0  0
 41109  1  0  0  0
 41110  1  0  0  0
 41111  1  0  0  0
 41 48  1  0  0  0
 42 43  1  0  0  0
 42 66  1  0  0  0
 42112  1  0  0  0
 42113  1  0  0  0
 43 44  1  0  0  0
 44114  1  0  0  0
 45 46  2  0  0  0
 45115  1  0  0  0
 46116  1  0  0  0
 47117  1  0  0  0
 47118  1  0  0  0
 48 56  1  0  0  0
 48 65  1  0  0  0
 48119  1  0  0  0
 49 50  1  0  0  0
 49 53  1  0  0  0
 49 64  1  0  0  0
 49120  1  0  0  0
 50 51  1  0  0  0
 50121  1  0  0  0
 50122  1  0  0  0
 51 52  1  0  0  0
 51123  1  0  0  0
 51124  1  0  0  0
 52125  1  0  0  0
 52126  1  0  0  0
 53 54  1  0  0  0
 54 55  2  0  0  0
 54127  1  0  0  0
 55 57  1  0  0  0
 55128  1  0  0  0
 56 69  2  0  0  0
 57 58  2  0  0  0
 57129  1  0  0  0
 58130  1  0  0  0
 59 60  1  0  0  0
 59 61  1  0  0  0
 59 62  1  0  0  0
 60131  1  0  0  0
 60132  1  0  0  0
 60133  1  0  0  0
 61134  1  0  0  0
 61135  1  0  0  0
 61136  1  0  0  0
 62137  1  0  0  0
 62138  1  0  0  0
 62139  1  0  0  0
 63 65  1  0  0  0
 63140  1  0  0  0
 63141  1  0  0  0
 63142  1  0  0  0
 64143  1  0  0  0
 65144  1  0  0  0
 68 79  1  0  0  0
 71 72  2  0  0  0
 71 75  1  0  0  0
 71145  1  0  0  0
 72 73  1  0  0  0
 72 81  1  0  0  0
 73 74  2  0  0  0
 73 82  1  0  0  0
 74 78  1  0  0  0
 74 80  1  0  0  0
 75 80  2  0  0  0
 75 83  1  0  0  0
 76 77  2  0  0  0
 76 79  1  0  0  0
 76146  1  0  0  0
 77 83  1  0  0  0
 77147  1  0  0  0
 78 84  1  0  0  0
 78 85  2  0  0  0
 79148  1  0  0  0
 79149  1  0  0  0
 80150  1  0  0  0
 81151  1  0  0  0
 81152  1  0  0  0
 82153  1  0  0  0
 82154  1  0  0  0
 83155  1  0  0  0
 84156  1  0  0  0
M  CHG  1  80   1
M  ISO  4   1 100  68 101  79 101  84 100
M  END
> <chiral flag>
0

> <version>
0

> <s_m_source_file>
/data/baiqing/PycharmProjects/Reinvent-master-3.2/result/LINK_invent/BTK/process_docking_weight1_custom_product_contain_oxygen_bond_distance_aromatic_linkinvent_7_9_3/rearranged_h_0110.sdf

> <i_m_source_file_index>
22

> <r_mmod_Potential_Energy-OPLS-2005>
-233.41813659668

> <r_mmod_Stretch_Energy-OPLS-2005>
51.5112113952637

> <r_mmod_Bend_Energy-OPLS-2005>
116.983200073242

> <r_mmod_Torsional_Energy-OPLS-2005>
280.708190917969

> <r_mmod_Improper_Torsional_Energy-OPLS-2005>
16.2332649230957

> <r_mmod_Van_der_Waal_Energy-OPLS-2005>
166.285720825195

> <r_mmod_Electrostatic_Energy-OPLS-2005>
-431.640380859375

> <r_mmod_Solvation_Energy-OPLS-2005>
-459.121002197266

> <b_mmod_Minimization_Converged-OPLS-2005>
0

> <r_mmod_RMS_Derivative-OPLS-2005>
4.43667459487915

$$$$
23
                    3D
 Structure written by MMmdl.
163171  0  0  1  0            999 V2000
  -30.6354  -14.7186   20.3769 C   0  0  0  0  0  0
  -30.4335  -12.4143   19.4587 C   0  0  0  0  0  0
  -29.4911  -12.3847   18.2334 C   0  0  0  0  0  0
  -28.0175  -12.2757   18.6609 C   0  0  0  0  0  0
  -27.6356  -13.2197   19.8325 C   0  0  2  0  0  0
  -28.6920  -13.1955   20.9566 C   0  0  0  0  0  0
  -25.2486  -13.8156   20.5654 C   0  0  0  0  0  0
  -24.1791  -13.0426   20.9246 C   0  0  0  0  0  0
  -24.6376  -11.6906   20.8811 C   0  0  0  0  0  0
  -23.9055  -10.4284   21.0444 C   0  0  0  0  0  0
  -24.3607   -9.4194   21.9210 C   0  0  0  0  0  0
  -23.6283   -8.2230   22.0765 C   0  0  0  0  0  0
  -22.4268   -8.0275   21.3550 C   0  0  0  0  0  0
  -21.9909   -9.0253   20.4654 C   0  0  0  0  0  0
  -22.7235  -10.2133   20.3077 C   0  0  0  0  0  0
  -21.6848   -6.0729   22.5280 C   0  0  0  0  0  0
  -21.4010   -6.5635   23.8213 C   0  0  0  0  0  0
  -21.3658   -5.6791   24.9178 C   0  0  0  0  0  0
  -21.6044   -4.3054   24.7229 C   0  0  0  0  0  0
  -21.8819   -3.8144   23.4350 C   0  0  0  0  0  0
  -21.9191   -4.6958   22.3405 C   0  0  0  0  0  0
  -22.7814  -13.5220   21.1879 C   0  0  0  0  0  0
  -22.1660   -4.2143   21.0983 F   0  0  0  0  0  0
  -21.5629   -3.4539   25.7742 F   0  0  0  0  0  0
  -29.9859  -13.5085   20.3417 N   0  0  0  0  0  0
  -26.2920  -12.9361   20.3283 N   0  0  0  0  0  0
  -25.9307  -11.6526   20.5857 N   0  0  0  0  0  0
  -22.0449  -12.8214   22.0429 N   0  0  0  0  0  0
  -25.4104  -15.1843   20.3875 N   0  0  0  0  0  0
  -31.8663  -14.7524   20.3158 O   0  0  0  0  0  0
  -21.6634   -6.8870   21.4241 O   0  0  0  0  0  0
  -22.3508  -14.5521   20.6713 O   0  0  0  0  0  0
  -24.6244  -31.8593   23.2004 C   0  0  0  0  0  0
  -25.9093  -32.4776   23.8340 C   0  0  1  0  0  0
  -27.2267  -27.3214   20.1411 C   0  0  0  0  0  0
  -25.5911  -33.8576   24.2272 N   0  0  0  0  0  0
  -23.4184  -30.4789   21.5431 C   0  0  2  0  0  0
  -24.8669  -28.9240   20.1193 C   0  0  0  0  0  0
  -22.7461  -29.4617   22.4950 C   0  0  0  0  0  0
  -18.0281  -28.1379   22.8488 C   0  0  0  0  0  0
  -24.1487  -36.7293   23.2640 C   0  0  0  0  0  0
  -25.9559  -30.7935   21.3670 C   0  0  0  0  0  0
  -26.0333  -29.4167   20.7190 C   0  0  0  0  0  0
  -27.2200  -28.6287   20.7130 C   0  0  0  0  0  0
  -26.0422  -26.8666   19.5294 C   0  0  0  0  0  0
  -24.8720  -27.6540   19.5150 C   0  0  0  0  0  0
  -23.6340  -29.8048   20.1617 C   0  0  0  0  0  0
  -25.4113  -36.3083   24.0329 C   0  0  1  0  0  0
  -20.5877  -28.3684   23.1290 C   0  0  2  0  0  0
  -20.6770  -26.9410   22.5413 C   0  0  0  0  0  0
  -19.5752  -26.6385   21.5210 C   0  0  0  0  0  0
  -18.1928  -26.7924   22.1621 C   0  0  0  0  0  0
  -19.1531  -28.8849   23.2883 C   0  0  0  0  0  0
  -18.9459  -30.1450   23.8901 C   0  0  0  0  0  0
  -17.6460  -30.6586   24.0562 C   0  0  0  0  0  0
  -25.9048  -34.9452   23.5103 C   0  0  0  0  0  0
  -16.5350  -29.9086   23.6328 C   0  0  0  0  0  0
  -16.7269  -28.6499   23.0355 C   0  0  0  0  0  0
  -26.4488  -31.6584   25.0706 C   0  0  0  0  0  0
  -25.3729  -31.3705   26.1438 C   0  0  0  0  0  0
  -27.0332  -30.3016   24.6137 C   0  0  0  0  0  0
  -27.6050  -32.4318   25.7478 C   0  0  0  0  0  0
  -27.5578  -37.1799   24.8466 C   0  0  0  0  0  0
  -21.4177  -29.3038   22.3688 N   0  0  0  0  0  0
  -26.4292  -37.3777   23.9408 N   0  0  0  0  0  0
  -24.6850  -31.0608   22.0945 N   0  0  0  0  0  0
  -23.4183  -28.8169   23.3040 O   0  0  0  0  0  0
  -28.3609  -26.5075   20.1107 O   0  0  0  0  0  0
  -26.5623  -34.8920   22.4674 O   0  0  0  0  0  0
  -23.5410  -32.1391   23.7340 O   0  0  0  0  0  0
  -30.1410  -19.5961   20.4624 C   0  0  0  0  0  0
  -28.3100  -17.4969   20.7269 C   0  0  0  0  0  0
  -30.5754  -18.2287   20.3694 C   0  0  0  0  0  0
  -29.6533  -17.1317   20.4525 C   0  0  0  0  0  0
  -27.8832  -18.8569   20.7937 C   0  0  0  0  0  0
  -28.7731  -19.9513   20.6147 C   0  0  0  0  0  0
  -30.6901  -15.5238   17.5245 C   0  0  0  0  0  0
  -29.8262  -15.9512   18.4677 C   0  0  0  0  0  0
  -32.0455  -17.9705   20.0877 C   0  0  0  0  0  0
  -30.4900  -15.7448   16.0417 C   0  0  0  0  0  0
  -28.2658  -23.8206   20.0987 C   0  0  0  0  0  0
  -28.3699  -25.2263   20.8497 C   0  0  0  0  0  0
  -28.9006  -22.5133   20.7828 C   0  0  0  0  0  0
  -26.5309  -19.1376   20.9859 N   0  0  0  0  0  0
  -29.9221  -15.8028   19.8699 N   0  0  0  0  0  0
  -28.2124  -21.2492   20.5005 O   0  0  0  0  0  0
  -31.4665  -12.5472   19.1318 H   0  0  0  0  0  0
  -30.4031  -11.4637   19.9932 H   0  0  0  0  0  0
  -29.7488  -11.5390   17.5939 H   0  0  0  0  0  0
  -29.6144  -13.2612   17.6092 H   0  0  0  0  0  0
  -27.8549  -11.2393   18.9589 H   0  0  0  0  0  0
  -27.3620  -12.4475   17.8062 H   0  0  0  0  0  0
  -27.6182  -14.2264   19.4161 H   0  0  0  0  0  0
  -28.7251  -12.2216   21.4473 H   0  0  0  0  0  0
  -28.4475  -13.9299   21.7261 H   0  0  0  0  0  0
  -25.2751   -9.5666   22.4786 H   0  0  0  0  0  0
  -23.9992   -7.4616   22.7475 H   0  0  0  0  0  0
  -21.0848   -8.8771   19.8948 H   0  0  0  0  0  0
  -22.3702  -10.9676   19.6188 H   0  0  0  0  0  0
  -21.1999   -7.6142   23.9713 H   0  0  0  0  0  0
  -21.1480   -6.0524   25.9080 H   0  0  0  0  0  0
  -22.0598   -2.7604   23.2856 H   0  0  0  0  0  0
  -22.4060  -11.9878   22.4826 H   0  0  0  0  0  0
  -21.1065  -13.1241   22.2622 H   0  0  0  0  0  0
  -24.6237  -15.8205   20.4504 H   0  0  0  0  0  0
  -26.2278  -15.5983   19.9616 H   0  0  0  0  0  0
  -26.7160  -32.5455   23.1091 H   0  0  0  0  0  0
  -25.0050  -33.9719   25.0411 H   0  0  0  0  0  0
  -22.7119  -31.2981   21.3953 H   0  0  0  0  0  0
  -23.3748  -35.9627   23.3306 H   0  0  0  0  0  0
  -24.3576  -36.8914   22.2054 H   0  0  0  0  0  0
  -23.7241  -37.6496   23.6664 H   0  0  0  0  0  0
  -26.0783  -31.5521   20.5930 H   0  0  0  0  0  0
  -26.8393  -30.8511   21.9911 H   0  0  0  0  0  0
  -28.1232  -29.0096   21.1688 H   0  0  0  0  0  0
  -26.0243  -25.8923   19.0618 H   0  0  0  0  0  0
  -23.9773  -27.2699   19.0448 H   0  0  0  0  0  0
  -23.7524  -30.5765   19.4004 H   0  0  0  0  0  0
  -22.7549  -29.2310   19.8630 H   0  0  0  0  0  0
  -25.1289  -36.1936   25.0821 H   0  0  0  0  0  0
  -20.9961  -28.3258   24.1415 H   0  0  0  0  0  0
  -20.5672  -26.2291   23.3609 H   0  0  0  0  0  0
  -21.6640  -26.7444   22.1206 H   0  0  0  0  0  0
  -19.6915  -25.6296   21.1238 H   0  0  0  0  0  0
  -19.6691  -27.3197   20.6741 H   0  0  0  0  0  0
  -17.4196  -26.6675   21.4022 H   0  0  0  0  0  0
  -18.0330  -26.0060   22.9012 H   0  0  0  0  0  0
  -19.7935  -30.7260   24.2277 H   0  0  0  0  0  0
  -17.5016  -31.6269   24.5160 H   0  0  0  0  0  0
  -15.5350  -30.2990   23.7651 H   0  0  0  0  0  0
  -15.8668  -28.0818   22.7077 H   0  0  0  0  0  0
  -24.5911  -30.7045   25.7767 H   0  0  0  0  0  0
  -24.8909  -32.2861   26.4873 H   0  0  0  0  0  0
  -25.8063  -30.8880   27.0208 H   0  0  0  0  0  0
  -26.2896  -29.6760   24.1185 H   0  0  0  0  0  0
  -27.4075  -29.7272   25.4622 H   0  0  0  0  0  0
  -27.8742  -30.4315   23.9320 H   0  0  0  0  0  0
  -27.2666  -33.3624   26.2045 H   0  0  0  0  0  0
  -28.3865  -32.6868   25.0308 H   0  0  0  0  0  0
  -28.0711  -31.8447   26.5401 H   0  0  0  0  0  0
  -28.2594  -38.0097   24.7514 H   0  0  0  0  0  0
  -28.1074  -36.2627   24.6289 H   0  0  0  0  0  0
  -27.2293  -37.1447   25.8868 H   0  0  0  0  0  0
  -20.9358  -29.8747   21.6884 H   0  0  0  0  0  0
  -26.0172  -38.2850   24.1413 H   0  0  0  0  0  0
  -30.8692  -20.3818   20.3257 H   0  0  0  0  0  0
  -27.5712  -16.7135   20.7839 H   0  0  0  0  0  0
  -31.5922  -14.9915   17.7908 H   0  0  0  0  0  0
  -28.9368  -16.4925   18.1740 H   0  0  0  0  0  0
  -32.4551  -17.2720   20.8170 H   0  0  0  0  0  0
  -32.6339  -18.8860   20.1505 H   0  0  0  0  0  0
  -32.1829  -17.5524   19.0909 H   0  0  0  0  0  0
  -29.5655  -16.2879   15.8413 H   0  0  0  0  0  0
  -30.4447  -14.7882   15.5203 H   0  0  0  0  0  0
  -31.3207  -16.3202   15.6318 H   0  0  0  0  0  0
  -28.7136  -23.9214   19.1103 H   0  0  0  0  0  0
  -27.2085  -23.6335   19.9130 H   0  0  0  0  0  0
  -29.3228  -25.2281   21.3793 H   0  0  0  0  0  0
  -27.6168  -25.2603   21.6391 H   0  0  0  0  0  0
  -28.8742  -22.6393   21.8659 H   0  0  0  0  0  0
  -29.9544  -22.4460   20.5138 H   0  0  0  0  0  0
  -25.8458  -18.4307   20.7436 H   0  0  0  0  0  0
  -26.2345  -20.0813   20.7554 H   0  0  0  0  0  0
  1 25  1  0  0  0
  1 30  2  0  0  0
  1 85  1  0  0  0
  2  3  1  0  0  0
  2 25  1  0  0  0
  2 87  1  0  0  0
  2 88  1  0  0  0
  3  4  1  0  0  0
  3 89  1  0  0  0
  3 90  1  0  0  0
  4  5  1  0  0  0
  4 91  1  0  0  0
  4 92  1  0  0  0
  5  6  1  0  0  0
  5 26  1  0  0  0
  5 93  1  0  0  0
  6 25  1  0  0  0
  6 94  1  0  0  0
  6 95  1  0  0  0
  7  8  2  0  0  0
  7 26  1  0  0  0
  7 29  1  0  0  0
  8  9  1  0  0  0
  8 22  1  0  0  0
  9 10  1  0  0  0
  9 27  2  0  0  0
 10 11  2  0  0  0
 10 15  1  0  0  0
 11 12  1  0  0  0
 11 96  1  0  0  0
 12 13  2  0  0  0
 12 97  1  0  0  0
 13 14  1  0  0  0
 13 31  1  0  0  0
 14 15  2  0  0  0
 14 98  1  0  0  0
 15 99  1  0  0  0
 16 17  2  0  0  0
 16 21  1  0  0  0
 16 31  1  0  0  0
 17 18  1  0  0  0
 17100  1  0  0  0
 18 19  2  0  0  0
 18101  1  0  0  0
 19 20  1  0  0  0
 19 24  1  0  0  0
 20 21  2  0  0  0
 20102  1  0  0  0
 21 23  1  0  0  0
 22 28  1  0  0  0
 22 32  2  0  0  0
 26 27  1  0  0  0
 28103  1  0  0  0
 28104  1  0  0  0
 29105  1  0  0  0
 29106  1  0  0  0
 33 34  1  0  0  0
 33 66  1  0  0  0
 33 70  2  0  0  0
 34 36  1  0  0  0
 34 59  1  0  0  0
 34107  1  0  0  0
 35 44  2  0  0  0
 35 45  1  0  0  0
 35 68  1  0  0  0
 36 56  1  0  0  0
 36108  1  0  0  0
 37 39  1  0  0  0
 37 47  1  0  0  0
 37 66  1  0  0  0
 37109  1  0  0  0
 38 43  2  0  0  0
 38 46  1  0  0  0
 38 47  1  0  0  0
 39 64  1  0  0  0
 39 67  2  0  0  0
 40 52  1  0  0  0
 40 53  2  0  0  0
 40 58  1  0  0  0
 41110  1  0  0  0
 41111  1  0  0  0
 41112  1  0  0  0
 41 48  1  0  0  0
 42 43  1  0  0  0
 42 66  1  0  0  0
 42113  1  0  0  0
 42114  1  0  0  0
 43 44  1  0  0  0
 44115  1  0  0  0
 45 46  2  0  0  0
 45116  1  0  0  0
 46117  1  0  0  0
 47118  1  0  0  0
 47119  1  0  0  0
 48 56  1  0  0  0
 48 65  1  0  0  0
 48120  1  0  0  0
 49 50  1  0  0  0
 49 53  1  0  0  0
 49 64  1  0  0  0
 49121  1  0  0  0
 50 51  1  0  0  0
 50122  1  0  0  0
 50123  1  0  0  0
 51 52  1  0  0  0
 51124  1  0  0  0
 51125  1  0  0  0
 52126  1  0  0  0
 52127  1  0  0  0
 53 54  1  0  0  0
 54 55  2  0  0  0
 54128  1  0  0  0
 55 57  1  0  0  0
 55129  1  0  0  0
 56 69  2  0  0  0
 57 58  2  0  0  0
 57130  1  0  0  0
 58131  1  0  0  0
 59 60  1  0  0  0
 59 61  1  0  0  0
 59 62  1  0  0  0
 60132  1  0  0  0
 60133  1  0  0  0
 60134  1  0  0  0
 61135  1  0  0  0
 61136  1  0  0  0
 61137  1  0  0  0
 62138  1  0  0  0
 62139  1  0  0  0
 62140  1  0  0  0
 63 65  1  0  0  0
 63141  1  0  0  0
 63142  1  0  0  0
 63143  1  0  0  0
 64144  1  0  0  0
 65145  1  0  0  0
 68 82  1  0  0  0
 71 73  2  0  0  0
 71 76  1  0  0  0
 71146  1  0  0  0
 72 74  2  0  0  0
 72 75  1  0  0  0
 72147  1  0  0  0
 73 74  1  0  0  0
 73 79  1  0  0  0
 74 85  1  0  0  0
 75 76  2  0  0  0
 75 84  1  0  0  0
 76 86  1  0  0  0
 77 78  2  0  0  0
 77 80  1  0  0  0
 77148  1  0  0  0
 78 85  1  0  0  0
 78149  1  0  0  0
 79150  1  0  0  0
 79151  1  0  0  0
 79152  1  0  0  0
 80153  1  0  0  0
 80154  1  0  0  0
 80155  1  0  0  0
 81 82  1  0  0  0
 81 83  1  0  0  0
 81156  1  0  0  0
 81157  1  0  0  0
 82158  1  0  0  0
 82159  1  0  0  0
 83 86  1  0  0  0
 83160  1  0  0  0
 83161  1  0  0  0
 84162  1  0  0  0
 84163  1  0  0  0
M  ISO  4   1 100  68 101  82 101  85 100
M  END
> <chiral flag>
0

> <version>
0

> <s_m_source_file>
/data/baiqing/PycharmProjects/Reinvent-master-3.2/result/LINK_invent/BTK/process_docking_weight1_custom_product_contain_oxygen_bond_distance_aromatic_linkinvent_7_9_3/rearranged_h_0110.sdf

> <i_m_source_file_index>
23

> <r_mmod_Potential_Energy-OPLS-2005>
372.629455566406

> <r_mmod_Stretch_Energy-OPLS-2005>
89.5885848999023

> <r_mmod_Bend_Energy-OPLS-2005>
174.865570068359

> <r_mmod_Torsional_Energy-OPLS-2005>
404.427459716797

> <r_mmod_Improper_Torsional_Energy-OPLS-2005>
31.9307136535645

> <r_mmod_Van_der_Waal_Energy-OPLS-2005>
133.094741821289

> <r_mmod_Electrostatic_Energy-OPLS-2005>
-343.462188720703

> <r_mmod_Solvation_Energy-OPLS-2005>
-194.812942504883

> <b_mmod_Minimization_Converged-OPLS-2005>
0

> <r_mmod_RMS_Derivative-OPLS-2005>
0.665666937828064

$$$$
24
                    3D
 Structure written by MMmdl.
160168  0  0  1  0            999 V2000
  -30.6769  -14.6485   20.6181 C   0  0  0  0  0  0
  -30.4357  -12.4301   19.4788 C   0  0  0  0  0  0
  -29.5241  -12.5515   18.2393 C   0  0  0  0  0  0
  -28.0464  -12.3593   18.6315 C   0  0  0  0  0  0
  -27.6530  -13.2225   19.8587 C   0  0  2  0  0  0
  -28.6813  -13.0805   20.9980 C   0  0  0  0  0  0
  -25.2568  -13.8183   20.5641 C   0  0  0  0  0  0
  -24.1840  -13.0454   20.9164 C   0  0  0  0  0  0
  -24.6414  -11.6918   20.8691 C   0  0  0  0  0  0
  -23.9095  -10.4296   21.0371 C   0  0  0  0  0  0
  -24.3649   -9.4222   21.9160 C   0  0  0  0  0  0
  -23.6321   -8.2262   22.0749 C   0  0  0  0  0  0
  -22.4310   -8.0286   21.3539 C   0  0  0  0  0  0
  -21.9942   -9.0244   20.4625 C   0  0  0  0  0  0
  -22.7273  -10.2121   20.3019 C   0  0  0  0  0  0
  -21.6860   -6.0747   22.5292 C   0  0  0  0  0  0
  -21.4001   -6.5635   23.8228 C   0  0  0  0  0  0
  -21.3663   -5.6786   24.9183 C   0  0  0  0  0  0
  -21.6054   -4.3056   24.7231 C   0  0  0  0  0  0
  -21.8822   -3.8153   23.4346 C   0  0  0  0  0  0
  -21.9193   -4.6976   22.3404 C   0  0  0  0  0  0
  -22.7859  -13.5229   21.1831 C   0  0  0  0  0  0
  -22.1658   -4.2170   21.0975 F   0  0  0  0  0  0
  -21.5649   -3.4535   25.7740 F   0  0  0  0  0  0
  -30.0100  -13.4453   20.4716 N   0  0  0  0  0  0
  -26.2982  -12.9366   20.3225 N   0  0  0  0  0  0
  -25.9331  -11.6512   20.5671 N   0  0  0  0  0  0
  -22.0484  -12.8214   22.0371 N   0  0  0  0  0  0
  -25.4321  -15.1907   20.4098 N   0  0  0  0  0  0
  -31.7596  -14.8238   20.0506 O   0  0  0  0  0  0
  -21.6661   -6.8893   21.4257 O   0  0  0  0  0  0
  -22.3548  -14.5554   20.6711 O   0  0  0  0  0  0
  -24.6321  -31.8588   23.2038 C   0  0  0  0  0  0
  -25.9154  -32.4776   23.8385 C   0  0  1  0  0  0
  -27.2131  -27.2854   20.1260 C   0  0  0  0  0  0
  -25.5984  -33.8585   24.2315 N   0  0  0  0  0  0
  -23.4265  -30.4834   21.5470 C   0  0  2  0  0  0
  -24.8715  -28.9351   20.1110 C   0  0  0  0  0  0
  -22.7489  -29.4641   22.4949 C   0  0  0  0  0  0
  -18.0290  -28.1412   22.8505 C   0  0  0  0  0  0
  -24.1487  -36.7249   23.2634 C   0  0  0  0  0  0
  -25.9726  -30.7748   21.3861 C   0  0  0  0  0  0
  -26.0430  -29.4010   20.7252 C   0  0  0  0  0  0
  -27.2175  -28.5872   20.7230 C   0  0  0  0  0  0
  -26.0311  -26.8923   19.4617 C   0  0  0  0  0  0
  -24.8702  -27.6884   19.4675 C   0  0  0  0  0  0
  -23.6415  -29.8191   20.1634 C   0  0  0  0  0  0
  -25.4116  -36.3081   24.0343 C   0  0  1  0  0  0
  -20.5891  -28.3725   23.1269 C   0  0  2  0  0  0
  -20.6798  -26.9444   22.5403 C   0  0  0  0  0  0
  -19.5760  -26.6409   21.5225 C   0  0  0  0  0  0
  -18.1931  -26.7969   22.1614 C   0  0  0  0  0  0
  -19.1540  -28.8886   23.2886 C   0  0  0  0  0  0
  -18.9455  -30.1484   23.8905 C   0  0  0  0  0  0
  -17.6449  -30.6608   24.0585 C   0  0  0  0  0  0
  -25.9072  -34.9456   23.5125 C   0  0  0  0  0  0
  -16.5341  -29.9093   23.6362 C   0  0  0  0  0  0
  -16.7277  -28.6508   23.0396 C   0  0  0  0  0  0
  -26.4522  -31.6587   25.0760 C   0  0  0  0  0  0
  -25.3738  -31.3679   26.1455 C   0  0  0  0  0  0
  -27.0390  -30.3018   24.6246 C   0  0  0  0  0  0
  -27.6100  -32.4300   25.7523 C   0  0  0  0  0  0
  -27.5611  -37.1744   24.8440 C   0  0  0  0  0  0
  -21.4199  -29.3068   22.3658 N   0  0  0  0  0  0
  -26.4274  -37.3798   23.9458 N   0  0  0  0  0  0
  -24.6960  -31.0564   22.1015 N   0  0  0  0  0  0
  -23.4175  -28.8180   23.3061 O   0  0  0  0  0  0
  -28.2995  -26.3921   20.1655 O   0  0  0  0  0  0
  -26.5605  -34.8918   22.4668 O   0  0  0  0  0  0
  -23.5467  -32.1411   23.7339 O   0  0  0  0  0  0
  -29.5226  -17.5145   19.7280 C   0  0  0  0  0  0
  -30.3059  -18.1689   21.8930 C   0  0  0  0  0  0
  -29.9977  -17.0931   20.9974 C   0  0  0  0  0  0
  -29.3511  -18.8961   19.3921 C   0  0  0  0  0  0
  -30.1145  -19.5618   21.5862 C   0  0  0  0  0  0
  -29.6210  -19.9592   20.3109 C   0  0  0  0  0  0
  -29.1486  -15.9530   23.6339 C   0  0  0  0  0  0
  -29.9849  -15.3479   22.7674 C   0  0  0  0  0  0
  -29.0449  -23.8532   20.1722 C   0  0  0  0  0  0
  -30.8248  -20.2404   23.7950 C   0  0  0  0  0  0
  -27.9915  -24.9782   20.5616 C   0  0  0  0  0  0
  -28.8212  -22.3540   20.6651 C   0  0  0  0  0  0
  -28.8983  -19.2235   18.1139 N   0  0  0  0  0  0
  -30.1261  -15.6591   21.3963 N   0  0  0  0  0  0
  -30.0504  -24.1474   19.5139 O   0  0  0  0  0  0
  -30.4338  -20.5759   22.4689 O   0  0  0  0  0  0
  -29.5078  -21.3094   19.8779 O   0  0  0  0  0  0
  -31.4817  -12.5452   19.1911 H   0  0  0  0  0  0
  -30.3636  -11.4312   19.9111 H   0  0  0  0  0  0
  -29.8166  -11.8252   17.4793 H   0  0  0  0  0  0
  -29.6611  -13.5351   17.7859 H   0  0  0  0  0  0
  -27.8958  -11.3017   18.8560 H   0  0  0  0  0  0
  -27.4019  -12.5874   17.7816 H   0  0  0  0  0  0
  -27.6753  -14.2607   19.5269 H   0  0  0  0  0  0
  -28.6950  -12.0576   21.3749 H   0  0  0  0  0  0
  -28.3602  -13.6946   21.8352 H   0  0  0  0  0  0
  -25.2790   -9.5721   22.4745 H   0  0  0  0  0  0
  -24.0045   -7.4657   22.7470 H   0  0  0  0  0  0
  -21.0903   -8.8747   19.8907 H   0  0  0  0  0  0
  -22.3740  -10.9652   19.6122 H   0  0  0  0  0  0
  -21.1961   -7.6132   23.9749 H   0  0  0  0  0  0
  -21.1484   -6.0497   25.9097 H   0  0  0  0  0  0
  -22.0592   -2.7617   23.2850 H   0  0  0  0  0  0
  -22.4078  -11.9884   22.4789 H   0  0  0  0  0  0
  -21.1067  -13.1209   22.2488 H   0  0  0  0  0  0
  -24.6838  -15.8610   20.5465 H   0  0  0  0  0  0
  -26.3003  -15.6210   20.1171 H   0  0  0  0  0  0
  -26.7231  -32.5416   23.1133 H   0  0  0  0  0  0
  -25.0233  -33.9741   25.0529 H   0  0  0  0  0  0
  -22.7259  -31.3085   21.4040 H   0  0  0  0  0  0
  -23.3842  -35.9482   23.3180 H   0  0  0  0  0  0
  -24.3609  -36.8984   22.2071 H   0  0  0  0  0  0
  -23.7116  -37.6362   23.6722 H   0  0  0  0  0  0
  -26.1191  -31.5392   20.6237 H   0  0  0  0  0  0
  -26.8473  -30.8158   22.0226 H   0  0  0  0  0  0
  -28.1141  -28.9327   21.2168 H   0  0  0  0  0  0
  -25.9908  -25.9554   18.9244 H   0  0  0  0  0  0
  -23.9779  -27.3399   18.9672 H   0  0  0  0  0  0
  -23.7594  -30.5956   19.4071 H   0  0  0  0  0  0
  -22.7609  -29.2479   19.8644 H   0  0  0  0  0  0
  -25.1285  -36.1933   25.0828 H   0  0  0  0  0  0
  -20.9983  -28.3326   24.1392 H   0  0  0  0  0  0
  -20.5751  -26.2332   23.3622 H   0  0  0  0  0  0
  -21.6667  -26.7524   22.1156 H   0  0  0  0  0  0
  -19.6921  -25.6313   21.1275 H   0  0  0  0  0  0
  -19.6697  -27.3219   20.6764 H   0  0  0  0  0  0
  -17.4217  -26.6776   21.3993 H   0  0  0  0  0  0
  -18.0271  -26.0092   22.8974 H   0  0  0  0  0  0
  -19.7916  -30.7326   24.2271 H   0  0  0  0  0  0
  -17.4987  -31.6286   24.5177 H   0  0  0  0  0  0
  -15.5344  -30.2991   23.7693 H   0  0  0  0  0  0
  -15.8674  -28.0816   22.7143 H   0  0  0  0  0  0
  -24.5966  -30.6984   25.7738 H   0  0  0  0  0  0
  -24.8852  -32.2805   26.4883 H   0  0  0  0  0  0
  -25.8039  -30.8844   27.0234 H   0  0  0  0  0  0
  -26.2970  -29.6721   24.1317 H   0  0  0  0  0  0
  -27.4138  -29.7327   25.4768 H   0  0  0  0  0  0
  -27.8827  -30.4319   23.9463 H   0  0  0  0  0  0
  -27.2783  -33.3635   26.2082 H   0  0  0  0  0  0
  -28.3931  -32.6786   25.0344 H   0  0  0  0  0  0
  -28.0758  -31.8421   26.5446 H   0  0  0  0  0  0
  -28.2501  -38.0172   24.7751 H   0  0  0  0  0  0
  -28.1254  -36.2737   24.5972 H   0  0  0  0  0  0
  -27.2353  -37.1012   25.8831 H   0  0  0  0  0  0
  -20.9398  -29.8743   21.6812 H   0  0  0  0  0  0
  -26.0160  -38.2842   24.1607 H   0  0  0  0  0  0
  -29.2727  -16.7580   18.9959 H   0  0  0  0  0  0
  -30.7138  -17.9048   22.8551 H   0  0  0  0  0  0
  -29.1219  -15.6542   24.6726 H   0  0  0  0  0  0
  -28.4787  -16.7452   23.3339 H   0  0  0  0  0  0
  -30.6323  -14.5485   23.1097 H   0  0  0  0  0  0
  -30.9313  -21.1531   24.3805 H   0  0  0  0  0  0
  -31.7881  -19.7273   23.8095 H   0  0  0  0  0  0
  -30.0766  -19.6219   24.2924 H   0  0  0  0  0  0
  -27.8790  -24.9594   21.6481 H   0  0  0  0  0  0
  -27.0268  -24.6392   20.1773 H   0  0  0  0  0  0
  -27.7514  -22.1507   20.6349 H   0  0  0  0  0  0
  -29.1168  -22.3079   21.7107 H   0  0  0  0  0  0
  -29.0052  -18.5416   17.3693 H   0  0  0  0  0  0
  -29.0674  -20.1752   17.8039 H   0  0  0  0  0  0
  1 25  1  0  0  0
  1 30  2  0  0  0
  1 84  1  0  0  0
  2  3  1  0  0  0
  2 25  1  0  0  0
  2 88  1  0  0  0
  2 89  1  0  0  0
  3  4  1  0  0  0
  3 90  1  0  0  0
  3 91  1  0  0  0
  4  5  1  0  0  0
  4 92  1  0  0  0
  4 93  1  0  0  0
  5  6  1  0  0  0
  5 26  1  0  0  0
  5 94  1  0  0  0
  6 25  1  0  0  0
  6 95  1  0  0  0
  6 96  1  0  0  0
  7  8  2  0  0  0
  7 26  1  0  0  0
  7 29  1  0  0  0
  8  9  1  0  0  0
  8 22  1  0  0  0
  9 10  1  0  0  0
  9 27  2  0  0  0
 10 11  2  0  0  0
 10 15  1  0  0  0
 11 12  1  0  0  0
 11 97  1  0  0  0
 12 13  2  0  0  0
 12 98  1  0  0  0
 13 14  1  0  0  0
 13 31  1  0  0  0
 14 15  2  0  0  0
 14 99  1  0  0  0
 15100  1  0  0  0
 16 17  2  0  0  0
 16 21  1  0  0  0
 16 31  1  0  0  0
 17 18  1  0  0  0
 17101  1  0  0  0
 18 19  2  0  0  0
 18102  1  0  0  0
 19 20  1  0  0  0
 19 24  1  0  0  0
 20 21  2  0  0  0
 20103  1  0  0  0
 21 23  1  0  0  0
 22 28  1  0  0  0
 22 32  2  0  0  0
 26 27  1  0  0  0
 28104  1  0  0  0
 28105  1  0  0  0
 29106  1  0  0  0
 29107  1  0  0  0
 33 34  1  0  0  0
 33 66  1  0  0  0
 33 70  2  0  0  0
 34 36  1  0  0  0
 34 59  1  0  0  0
 34108  1  0  0  0
 35 44  2  0  0  0
 35 45  1  0  0  0
 35 68  1  0  0  0
 36 56  1  0  0  0
 36109  1  0  0  0
 37 39  1  0  0  0
 37 47  1  0  0  0
 37 66  1  0  0  0
 37110  1  0  0  0
 38 43  2  0  0  0
 38 46  1  0  0  0
 38 47  1  0  0  0
 39 64  1  0  0  0
 39 67  2  0  0  0
 40 52  1  0  0  0
 40 53  2  0  0  0
 40 58  1  0  0  0
 41111  1  0  0  0
 41112  1  0  0  0
 41113  1  0  0  0
 41 48  1  0  0  0
 42 43  1  0  0  0
 42 66  1  0  0  0
 42114  1  0  0  0
 42115  1  0  0  0
 43 44  1  0  0  0
 44116  1  0  0  0
 45 46  2  0  0  0
 45117  1  0  0  0
 46118  1  0  0  0
 47119  1  0  0  0
 47120  1  0  0  0
 48 56  1  0  0  0
 48 65  1  0  0  0
 48121  1  0  0  0
 49 50  1  0  0  0
 49 53  1  0  0  0
 49 64  1  0  0  0
 49122  1  0  0  0
 50 51  1  0  0  0
 50123  1  0  0  0
 50124  1  0  0  0
 51 52  1  0  0  0
 51125  1  0  0  0
 51126  1  0  0  0
 52127  1  0  0  0
 52128  1  0  0  0
 53 54  1  0  0  0
 54 55  2  0  0  0
 54129  1  0  0  0
 55 57  1  0  0  0
 55130  1  0  0  0
 56 69  2  0  0  0
 57 58  2  0  0  0
 57131  1  0  0  0
 58132  1  0  0  0
 59 60  1  0  0  0
 59 61  1  0  0  0
 59 62  1  0  0  0
 60133  1  0  0  0
 60134  1  0  0  0
 60135  1  0  0  0
 61136  1  0  0  0
 61137  1  0  0  0
 61138  1  0  0  0
 62139  1  0  0  0
 62140  1  0  0  0
 62141  1  0  0  0
 63 65  1  0  0  0
 63142  1  0  0  0
 63143  1  0  0  0
 63144  1  0  0  0
 64145  1  0  0  0
 65146  1  0  0  0
 68 81  1  0  0  0
 71 73  2  0  0  0
 71 74  1  0  0  0
 71147  1  0  0  0
 72 73  1  0  0  0
 72 75  2  0  0  0
 72148  1  0  0  0
 73 84  1  0  0  0
 74 76  2  0  0  0
 74 83  1  0  0  0
 75 76  1  0  0  0
 75 86  1  0  0  0
 76 87  1  0  0  0
 77 78  2  0  0  0
 77149  1  0  0  0
 77150  1  0  0  0
 78 84  1  0  0  0
 78151  1  0  0  0
 79 81  1  0  0  0
 79 82  1  0  0  0
 79 85  2  0  0  0
 80 86  1  0  0  0
 80152  1  0  0  0
 80153  1  0  0  0
 80154  1  0  0  0
 81155  1  0  0  0
 81156  1  0  0  0
 82 87  1  0  0  0
 82157  1  0  0  0
 82158  1  0  0  0
 83159  1  0  0  0
 83160  1  0  0  0
M  ISO  4   1 100  68 101  81 101  84 100
M  END
> <chiral flag>
0

> <version>
0

> <s_m_source_file>
/data/baiqing/PycharmProjects/Reinvent-master-3.2/result/LINK_invent/BTK/process_docking_weight1_custom_product_contain_oxygen_bond_distance_aromatic_linkinvent_7_9_3/rearranged_h_0110.sdf

> <i_m_source_file_index>
24

> <r_mmod_Potential_Energy-OPLS-2005>
338.084350585938

> <r_mmod_Stretch_Energy-OPLS-2005>
109.476707458496

> <r_mmod_Bend_Energy-OPLS-2005>
157.704299926758

> <r_mmod_Torsional_Energy-OPLS-2005>
329.680358886719

> <r_mmod_Improper_Torsional_Energy-OPLS-2005>
6.26452732086182

> <r_mmod_Van_der_Waal_Energy-OPLS-2005>
158.69645690918

> <r_mmod_Electrostatic_Energy-OPLS-2005>
-239.176681518555

> <r_mmod_Solvation_Energy-OPLS-2005>
-243.373199462891

> <b_mmod_Minimization_Converged-OPLS-2005>
0

> <r_mmod_RMS_Derivative-OPLS-2005>
3.05239605903625

$$$$
25
                    3D
 Structure written by MMmdl.
159168  0  0  1  0            999 V2000
  -30.5947  -14.6877   20.4915 C   0  0  0  0  0  0
  -30.4463  -12.4236   19.4571 C   0  0  0  0  0  0
  -29.5110  -12.5130   18.2291 C   0  0  0  0  0  0
  -28.0354  -12.3405   18.6437 C   0  0  0  0  0  0
  -27.6519  -13.2196   19.8639 C   0  0  2  0  0  0
  -28.6985  -13.0877   20.9936 C   0  0  0  0  0  0
  -25.2539  -13.8160   20.5684 C   0  0  0  0  0  0
  -24.1809  -13.0415   20.9157 C   0  0  0  0  0  0
  -24.6396  -11.6894   20.8725 C   0  0  0  0  0  0
  -23.9067  -10.4279   21.0399 C   0  0  0  0  0  0
  -24.3617   -9.4199   21.9183 C   0  0  0  0  0  0
  -23.6288   -8.2237   22.0754 C   0  0  0  0  0  0
  -22.4272   -8.0275   21.3541 C   0  0  0  0  0  0
  -21.9905   -9.0250   20.4646 C   0  0  0  0  0  0
  -22.7236  -10.2126   20.3052 C   0  0  0  0  0  0
  -21.6851   -6.0733   22.5280 C   0  0  0  0  0  0
  -21.4014   -6.5638   23.8213 C   0  0  0  0  0  0
  -21.3658   -5.6792   24.9175 C   0  0  0  0  0  0
  -21.6043   -4.3055   24.7226 C   0  0  0  0  0  0
  -21.8820   -3.8145   23.4349 C   0  0  0  0  0  0
  -21.9192   -4.6960   22.3403 C   0  0  0  0  0  0
  -22.7834  -13.5211   21.1839 C   0  0  0  0  0  0
  -22.1662   -4.2144   21.0981 F   0  0  0  0  0  0
  -21.5624   -3.4540   25.7741 F   0  0  0  0  0  0
  -30.0092  -13.4476   20.4285 N   0  0  0  0  0  0
  -26.2989  -12.9359   20.3342 N   0  0  0  0  0  0
  -25.9334  -11.6508   20.5771 N   0  0  0  0  0  0
  -22.0488  -12.8209   22.0410 N   0  0  0  0  0  0
  -25.4176  -15.1892   20.4180 N   0  0  0  0  0  0
  -31.7546  -14.8738   20.1149 O   0  0  0  0  0  0
  -21.6634   -6.8875   21.4241 O   0  0  0  0  0  0
  -22.3513  -14.5522   20.6701 O   0  0  0  0  0  0
  -24.6273  -31.8577   23.2004 C   0  0  0  0  0  0
  -25.9112  -32.4769   23.8342 C   0  0  1  0  0  0
  -27.2269  -27.2992   20.1316 C   0  0  0  0  0  0
  -25.5920  -33.8570   24.2270 N   0  0  0  0  0  0
  -23.4234  -30.4789   21.5429 C   0  0  2  0  0  0
  -24.8724  -28.9278   20.1131 C   0  0  0  0  0  0
  -22.7486  -29.4606   22.4928 C   0  0  0  0  0  0
  -18.0291  -28.1382   22.8485 C   0  0  0  0  0  0
  -24.1489  -36.7293   23.2638 C   0  0  0  0  0  0
  -25.9651  -30.7826   21.3744 C   0  0  0  0  0  0
  -26.0412  -29.4069   20.7194 C   0  0  0  0  0  0
  -27.2237  -28.6057   20.7150 C   0  0  0  0  0  0
  -26.0397  -26.8776   19.4951 C   0  0  0  0  0  0
  -24.8747  -27.6694   19.4898 C   0  0  0  0  0  0
  -23.6404  -29.8102   20.1595 C   0  0  0  0  0  0
  -25.4115  -36.3079   24.0327 C   0  0  1  0  0  0
  -20.5891  -28.3687   23.1280 C   0  0  2  0  0  0
  -20.6777  -26.9408   22.5408 C   0  0  0  0  0  0
  -19.5753  -26.6380   21.5211 C   0  0  0  0  0  0
  -18.1935  -26.7926   22.1626 C   0  0  0  0  0  0
  -19.1543  -28.8853   23.2877 C   0  0  0  0  0  0
  -18.9465  -30.1455   23.8891 C   0  0  0  0  0  0
  -17.6464  -30.6583   24.0562 C   0  0  0  0  0  0
  -25.9047  -34.9447   23.5100 C   0  0  0  0  0  0
  -16.5355  -29.9080   23.6330 C   0  0  0  0  0  0
  -16.7278  -28.6499   23.0348 C   0  0  0  0  0  0
  -26.4492  -31.6585   25.0718 C   0  0  0  0  0  0
  -25.3723  -31.3730   26.1444 C   0  0  0  0  0  0
  -27.0336  -30.3007   24.6179 C   0  0  0  0  0  0
  -27.6050  -32.4324   25.7486 C   0  0  0  0  0  0
  -27.5581  -37.1799   24.8464 C   0  0  0  0  0  0
  -21.4197  -29.3038   22.3672 N   0  0  0  0  0  0
  -26.4294  -37.3773   23.9406 N   0  0  0  0  0  0
  -24.6908  -31.0568   22.0963 N   0  0  0  0  0  0
  -23.4198  -28.8148   23.3018 O   0  0  0  0  0  0
  -28.3348  -26.4344   20.1495 O   0  0  0  0  0  0
  -26.5621  -34.8918   22.4670 O   0  0  0  0  0  0
  -23.5431  -32.1381   23.7320 O   0  0  0  0  0  0
  -30.9294  -17.9506   20.1933 C   0  0  0  0  0  0
  -29.8285  -17.1853   20.6429 C   0  0  0  0  0  0
  -28.6933  -17.9837   20.8944 C   0  0  0  0  0  0
  -29.7122  -19.9621   20.2517 C   0  0  0  0  0  0
  -28.8508  -23.7835   19.9640 C   0  0  0  0  0  0
  -28.9673  -22.5012   20.5103 C   0  0  0  0  0  0
  -29.3947  -23.9975   18.6002 C   0  0  0  0  0  0
  -29.7950  -22.7617   17.8045 C   0  0  0  0  0  0
  -30.4381  -21.6935   18.6991 C   0  0  0  0  0  0
  -28.4141  -22.2428   21.9086 C   0  0  0  0  0  0
  -28.1272  -25.0346   20.6354 C   0  0  0  0  0  0
  -30.8602  -19.3048   20.0109 N   0  0  0  0  0  0
  -28.6212  -19.3207   20.6822 N   0  0  0  0  0  0
  -29.6293  -21.3686   19.8832 N   0  0  0  0  0  0
  -27.5323  -17.3848   21.3595 N   0  0  0  0  0  0
  -29.7618  -15.7247   20.8294 N   0  0  0  0  0  0
  -29.5219  -25.0984   18.0575 O   0  0  0  0  0  0
  -31.4844  -12.5669   19.1521 H   0  0  0  0  0  0
  -30.3998  -11.4309   19.9075 H   0  0  0  0  0  0
  -29.7826  -11.7556   17.4927 H   0  0  0  0  0  0
  -29.6411  -13.4782   17.7370 H   0  0  0  0  0  0
  -27.8846  -11.2880   18.8871 H   0  0  0  0  0  0
  -27.3766  -12.5541   17.8010 H   0  0  0  0  0  0
  -27.6620  -14.2523   19.5142 H   0  0  0  0  0  0
  -28.7218  -12.0672   21.3787 H   0  0  0  0  0  0
  -28.4370  -13.7192   21.8441 H   0  0  0  0  0  0
  -25.2765   -9.5672   22.4754 H   0  0  0  0  0  0
  -23.9993   -7.4631   22.7478 H   0  0  0  0  0  0
  -21.0831   -8.8777   19.8958 H   0  0  0  0  0  0
  -22.3701  -10.9666   19.6158 H   0  0  0  0  0  0
  -21.2011   -7.6148   23.9716 H   0  0  0  0  0  0
  -21.1478   -6.0522   25.9078 H   0  0  0  0  0  0
  -22.0600   -2.7606   23.2853 H   0  0  0  0  0  0
  -22.4101  -11.9862   22.4786 H   0  0  0  0  0  0
  -21.1117  -13.1248   22.2641 H   0  0  0  0  0  0
  -24.6519  -15.8338   20.5780 H   0  0  0  0  0  0
  -26.2927  -15.6733   20.2465 H   0  0  0  0  0  0
  -26.7178  -32.5436   23.1088 H   0  0  0  0  0  0
  -25.0062  -33.9714   25.0411 H   0  0  0  0  0  0
  -22.7181  -31.2996   21.3971 H   0  0  0  0  0  0
  -23.3747  -35.9630   23.3303 H   0  0  0  0  0  0
  -24.3581  -36.8912   22.2053 H   0  0  0  0  0  0
  -23.7246  -37.6497   23.6659 H   0  0  0  0  0  0
  -26.0976  -31.5440   20.6047 H   0  0  0  0  0  0
  -26.8449  -30.8337   22.0041 H   0  0  0  0  0  0
  -28.1219  -28.9695   21.1944 H   0  0  0  0  0  0
  -26.0050  -25.9158   19.0034 H   0  0  0  0  0  0
  -23.9815  -27.2991   19.0056 H   0  0  0  0  0  0
  -23.7614  -30.5855   19.4021 H   0  0  0  0  0  0
  -22.7602  -29.2399   19.8566 H   0  0  0  0  0  0
  -25.1295  -36.1933   25.0819 H   0  0  0  0  0  0
  -20.9984  -28.3259   24.1401 H   0  0  0  0  0  0
  -20.5681  -26.2293   23.3607 H   0  0  0  0  0  0
  -21.6646  -26.7436   22.1201 H   0  0  0  0  0  0
  -19.6915  -25.6291   21.1241 H   0  0  0  0  0  0
  -19.6692  -27.3189   20.6741 H   0  0  0  0  0  0
  -17.4204  -26.6670   21.4030 H   0  0  0  0  0  0
  -18.0339  -26.0068   22.9023 H   0  0  0  0  0  0
  -19.7939  -30.7277   24.2251 H   0  0  0  0  0  0
  -17.5015  -31.6261   24.5167 H   0  0  0  0  0  0
  -15.5354  -30.2980   23.7653 H   0  0  0  0  0  0
  -15.8679  -28.0817   22.7060 H   0  0  0  0  0  0
  -24.5887  -30.7094   25.7769 H   0  0  0  0  0  0
  -24.8927  -32.2902   26.4875 H   0  0  0  0  0  0
  -25.8042  -30.8896   27.0216 H   0  0  0  0  0  0
  -26.2913  -29.6755   24.1204 H   0  0  0  0  0  0
  -27.4032  -29.7267   25.4687 H   0  0  0  0  0  0
  -27.8784  -30.4292   23.9408 H   0  0  0  0  0  0
  -27.2656  -33.3618   26.2072 H   0  0  0  0  0  0
  -28.3853  -32.6897   25.0311 H   0  0  0  0  0  0
  -28.0728  -31.8446   26.5395 H   0  0  0  0  0  0
  -28.2599  -38.0096   24.7507 H   0  0  0  0  0  0
  -28.1076  -36.2626   24.6294 H   0  0  0  0  0  0
  -27.2299  -37.1454   25.8867 H   0  0  0  0  0  0
  -20.9377  -29.8759   21.6880 H   0  0  0  0  0  0
  -26.0175  -38.2849   24.1402 H   0  0  0  0  0  0
  -31.8764  -17.4882   19.9593 H   0  0  0  0  0  0
  -30.4821  -23.0464   17.0077 H   0  0  0  0  0  0
  -28.9013  -22.3613   17.3267 H   0  0  0  0  0  0
  -31.4228  -22.0248   19.0316 H   0  0  0  0  0  0
  -30.6029  -20.8120   18.0779 H   0  0  0  0  0  0
  -28.7402  -23.0183   22.6016 H   0  0  0  0  0  0
  -28.7413  -21.3017   22.3463 H   0  0  0  0  0  0
  -27.3235  -22.2451   21.8901 H   0  0  0  0  0  0
  -28.4313  -25.0561   21.6808 H   0  0  0  0  0  0
  -27.0665  -24.7873   20.6660 H   0  0  0  0  0  0
  -27.6718  -16.6430   22.0299 H   0  0  0  0  0  0
  -26.8296  -18.0376   21.6783 H   0  0  0  0  0  0
  -28.8493  -15.4034   21.1147 H   0  0  0  0  0  0
  1 25  1  0  0  0
  1 30  2  0  0  0
  1 86  1  0  0  0
  2  3  1  0  0  0
  2 25  1  0  0  0
  2 88  1  0  0  0
  2 89  1  0  0  0
  3  4  1  0  0  0
  3 90  1  0  0  0
  3 91  1  0  0  0
  4  5  1  0  0  0
  4 92  1  0  0  0
  4 93  1  0  0  0
  5  6  1  0  0  0
  5 26  1  0  0  0
  5 94  1  0  0  0
  6 25  1  0  0  0
  6 95  1  0  0  0
  6 96  1  0  0  0
  7  8  2  0  0  0
  7 26  1  0  0  0
  7 29  1  0  0  0
  8  9  1  0  0  0
  8 22  1  0  0  0
  9 10  1  0  0  0
  9 27  2  0  0  0
 10 11  2  0  0  0
 10 15  1  0  0  0
 11 12  1  0  0  0
 11 97  1  0  0  0
 12 13  2  0  0  0
 12 98  1  0  0  0
 13 14  1  0  0  0
 13 31  1  0  0  0
 14 15  2  0  0  0
 14 99  1  0  0  0
 15100  1  0  0  0
 16 17  2  0  0  0
 16 21  1  0  0  0
 16 31  1  0  0  0
 17 18  1  0  0  0
 17101  1  0  0  0
 18 19  2  0  0  0
 18102  1  0  0  0
 19 20  1  0  0  0
 19 24  1  0  0  0
 20 21  2  0  0  0
 20103  1  0  0  0
 21 23  1  0  0  0
 22 28  1  0  0  0
 22 32  2  0  0  0
 26 27  1  0  0  0
 28104  1  0  0  0
 28105  1  0  0  0
 29106  1  0  0  0
 29107  1  0  0  0
 33 34  1  0  0  0
 33 66  1  0  0  0
 33 70  2  0  0  0
 34 36  1  0  0  0
 34 59  1  0  0  0
 34108  1  0  0  0
 35 44  2  0  0  0
 35 45  1  0  0  0
 35 68  1  0  0  0
 36 56  1  0  0  0
 36109  1  0  0  0
 37 39  1  0  0  0
 37 47  1  0  0  0
 37 66  1  0  0  0
 37110  1  0  0  0
 38 43  2  0  0  0
 38 46  1  0  0  0
 38 47  1  0  0  0
 39 64  1  0  0  0
 39 67  2  0  0  0
 40 52  1  0  0  0
 40 53  2  0  0  0
 40 58  1  0  0  0
 41111  1  0  0  0
 41112  1  0  0  0
 41113  1  0  0  0
 41 48  1  0  0  0
 42 43  1  0  0  0
 42 66  1  0  0  0
 42114  1  0  0  0
 42115  1  0  0  0
 43 44  1  0  0  0
 44116  1  0  0  0
 45 46  2  0  0  0
 45117  1  0  0  0
 46118  1  0  0  0
 47119  1  0  0  0
 47120  1  0  0  0
 48 56  1  0  0  0
 48 65  1  0  0  0
 48121  1  0  0  0
 49 50  1  0  0  0
 49 53  1  0  0  0
 49 64  1  0  0  0
 49122  1  0  0  0
 50 51  1  0  0  0
 50123  1  0  0  0
 50124  1  0  0  0
 51 52  1  0  0  0
 51125  1  0  0  0
 51126  1  0  0  0
 52127  1  0  0  0
 52128  1  0  0  0
 53 54  1  0  0  0
 54 55  2  0  0  0
 54129  1  0  0  0
 55 57  1  0  0  0
 55130  1  0  0  0
 56 69  2  0  0  0
 57 58  2  0  0  0
 57131  1  0  0  0
 58132  1  0  0  0
 59 60  1  0  0  0
 59 61  1  0  0  0
 59 62  1  0  0  0
 60133  1  0  0  0
 60134  1  0  0  0
 60135  1  0  0  0
 61136  1  0  0  0
 61137  1  0  0  0
 61138  1  0  0  0
 62139  1  0  0  0
 62140  1  0  0  0
 62141  1  0  0  0
 63 65  1  0  0  0
 63142  1  0  0  0
 63143  1  0  0  0
 63144  1  0  0  0
 64145  1  0  0  0
 65146  1  0  0  0
 68 81  1  0  0  0
 71 72  2  0  0  0
 71 82  1  0  0  0
 71147  1  0  0  0
 72 73  1  0  0  0
 72 86  1  0  0  0
 73 83  2  0  0  0
 73 85  1  0  0  0
 74 82  2  0  0  0
 74 83  1  0  0  0
 74 84  1  0  0  0
 75 76  2  0  0  0
 75 77  1  0  0  0
 75 81  1  0  0  0
 76 80  1  0  0  0
 76 84  1  0  0  0
 77 78  1  0  0  0
 77 87  2  0  0  0
 78 79  1  0  0  0
 78148  1  0  0  0
 78149  1  0  0  0
 79 84  1  0  0  0
 79150  1  0  0  0
 79151  1  0  0  0
 80152  1  0  0  0
 80153  1  0  0  0
 80154  1  0  0  0
 81155  1  0  0  0
 81156  1  0  0  0
 85157  1  0  0  0
 85158  1  0  0  0
 86159  1  0  0  0
M  ISO  4   1 100  68 101  81 101  86 100
M  END
> <chiral flag>
0

> <version>
0

> <s_m_source_file>
/data/baiqing/PycharmProjects/Reinvent-master-3.2/result/LINK_invent/BTK/process_docking_weight1_custom_product_contain_oxygen_bond_distance_aromatic_linkinvent_7_9_3/rearranged_h_0110.sdf

> <i_m_source_file_index>
25

> <r_mmod_Potential_Energy-OPLS-2005>
-521.424621582031

> <r_mmod_Stretch_Energy-OPLS-2005>
103.768737792969

> <r_mmod_Bend_Energy-OPLS-2005>
156.481079101562

> <r_mmod_Torsional_Energy-OPLS-2005>
211.863540649414

> <r_mmod_Improper_Torsional_Energy-OPLS-2005>
9.74570751190186

> <r_mmod_Van_der_Waal_Energy-OPLS-2005>
173.077438354492

> <r_mmod_Electrostatic_Energy-OPLS-2005>
-1000.80914306641

> <r_mmod_Solvation_Energy-OPLS-2005>
-237.634201049805

> <b_mmod_Minimization_Converged-OPLS-2005>
0

> <r_mmod_RMS_Derivative-OPLS-2005>
0.497845888137817

$$$$
26
                    3D
 Structure written by MMmdl.
166175  0  0  1  0            999 V2000
  -30.6739  -14.5422   20.4732 C   0  0  0  0  0  0
  -30.4203  -12.3202   19.4508 C   0  0  0  0  0  0
  -29.4976  -12.4758   18.2224 C   0  0  0  0  0  0
  -28.0178  -12.3443   18.6313 C   0  0  0  0  0  0
  -27.6544  -13.2129   19.8654 C   0  0  2  0  0  0
  -28.6976  -13.0566   20.9965 C   0  0  0  0  0  0
  -25.2566  -13.8183   20.5693 C   0  0  0  0  0  0
  -24.1827  -13.0443   20.9186 C   0  0  0  0  0  0
  -24.6386  -11.6913   20.8741 C   0  0  0  0  0  0
  -23.9056  -10.4289   21.0408 C   0  0  0  0  0  0
  -24.3606   -9.4203   21.9190 C   0  0  0  0  0  0
  -23.6282   -8.2241   22.0764 C   0  0  0  0  0  0
  -22.4270   -8.0279   21.3548 C   0  0  0  0  0  0
  -21.9909   -9.0245   20.4643 C   0  0  0  0  0  0
  -22.7233  -10.2127   20.3051 C   0  0  0  0  0  0
  -21.6852   -6.0728   22.5273 C   0  0  0  0  0  0
  -21.4013   -6.5636   23.8205 C   0  0  0  0  0  0
  -21.3656   -5.6795   24.9171 C   0  0  0  0  0  0
  -21.6047   -4.3058   24.7226 C   0  0  0  0  0  0
  -21.8819   -3.8144   23.4347 C   0  0  0  0  0  0
  -21.9191   -4.6958   22.3399 C   0  0  0  0  0  0
  -22.7848  -13.5234   21.1838 C   0  0  0  0  0  0
  -22.1661   -4.2142   21.0980 F   0  0  0  0  0  0
  -21.5626   -3.4542   25.7740 F   0  0  0  0  0  0
  -30.0233  -13.3449   20.4313 N   0  0  0  0  0  0
  -26.2992  -12.9359   20.3335 N   0  0  0  0  0  0
  -25.9316  -11.6515   20.5781 N   0  0  0  0  0  0
  -22.0488  -12.8206   22.0381 N   0  0  0  0  0  0
  -25.4287  -15.1901   20.4108 N   0  0  0  0  0  0
  -31.8557  -14.6562   20.1389 O   0  0  0  0  0  0
  -21.6636   -6.8871   21.4238 O   0  0  0  0  0  0
  -22.3532  -14.5536   20.6695 O   0  0  0  0  0  0
  -24.6168  -31.8659   23.2105 C   0  0  0  0  0  0
  -25.9044  -32.4816   23.8403 C   0  0  1  0  0  0
  -27.2246  -27.4081   20.1078 C   0  0  0  0  0  0
  -25.5889  -33.8614   24.2332 N   0  0  0  0  0  0
  -23.4067  -30.4915   21.5495 C   0  0  2  0  0  0
  -24.8567  -28.9609   20.1091 C   0  0  0  0  0  0
  -22.7411  -29.4654   22.4958 C   0  0  0  0  0  0
  -18.0273  -28.1379   22.8504 C   0  0  0  0  0  0
  -24.1481  -36.7302   23.2647 C   0  0  0  0  0  0
  -25.9381  -30.8266   21.3669 C   0  0  0  0  0  0
  -26.0180  -29.4588   20.7157 C   0  0  0  0  0  0
  -27.2089  -28.6881   20.7178 C   0  0  0  0  0  0
  -26.0595  -26.9493   19.4655 C   0  0  0  0  0  0
  -24.8733  -27.7050   19.4802 C   0  0  0  0  0  0
  -23.6177  -29.8277   20.1627 C   0  0  0  0  0  0
  -25.4101  -36.3106   24.0354 C   0  0  1  0  0  0
  -20.5863  -28.3676   23.1302 C   0  0  2  0  0  0
  -20.6764  -26.9416   22.5395 C   0  0  0  0  0  0
  -19.5739  -26.6397   21.5194 C   0  0  0  0  0  0
  -18.1921  -26.7932   22.1619 C   0  0  0  0  0  0
  -19.1523  -28.8843   23.2907 C   0  0  0  0  0  0
  -18.9451  -30.1447   23.8922 C   0  0  0  0  0  0
  -17.6458  -30.6594   24.0570 C   0  0  0  0  0  0
  -25.9028  -34.9471   23.5138 C   0  0  0  0  0  0
  -16.5346  -29.9099   23.6338 C   0  0  0  0  0  0
  -16.7261  -28.6506   23.0373 C   0  0  0  0  0  0
  -26.4485  -31.6588   25.0720 C   0  0  0  0  0  0
  -25.3754  -31.3615   26.1450 C   0  0  0  0  0  0
  -27.0370  -30.3069   24.6063 C   0  0  0  0  0  0
  -27.6046  -32.4313   25.7499 C   0  0  0  0  0  0
  -27.5570  -37.1811   24.8482 C   0  0  0  0  0  0
  -21.4133  -29.3045   22.3702 N   0  0  0  0  0  0
  -26.4285  -37.3793   23.9422 N   0  0  0  0  0  0
  -24.6721  -31.0751   22.1011 N   0  0  0  0  0  0
  -23.4169  -28.8186   23.3002 O   0  0  0  0  0  0
  -28.3330  -26.5836   20.1292 O   0  0  0  0  0  0
  -26.5588  -34.8930   22.4698 O   0  0  0  0  0  0
  -23.5355  -32.1409   23.7495 O   0  0  0  0  0  0
  -30.3187  -19.5438   18.9161 C   0  0  0  0  0  0
  -30.5504  -18.3959   18.1487 C   0  0  0  0  0  0
  -29.9077  -19.4552   20.2625 C   0  0  0  0  0  0
  -29.7672  -18.1457   20.8491 C   0  0  0  0  0  0
  -30.4213  -17.1182   18.7148 C   0  0  0  0  0  0
  -30.0611  -16.9616   20.0864 C   0  0  0  0  0  0
  -28.2015  -24.1036   20.8015 C   0  0  0  0  0  0
  -29.2279  -23.1927   20.7986 C   0  0  0  0  0  0
  -26.8144  -23.6041   20.5984 C   0  0  0  0  0  0
  -29.7491  -20.7706   21.0275 C   0  0  0  0  0  0
  -26.6170  -22.1641   20.1254 C   0  0  0  0  0  0
  -27.9054  -21.5400   19.5656 C   0  0  0  0  0  0
  -29.3088  -18.0045   22.2986 C   0  0  0  0  0  0
  -30.6759  -23.6308   21.0166 C   0  0  0  0  0  0
  -28.3329  -25.6041   21.2024 C   0  0  0  0  0  0
  -29.0517  -21.8095   20.4479 N   0  0  0  0  0  0
  -30.6428  -16.0358   17.8661 N   0  0  0  0  0  0
  -29.8964  -15.6378   20.6622 N   0  0  0  0  0  0
  -25.8037  -24.2618   20.8506 O   0  0  0  0  0  0
  -30.3204  -20.8816   22.1183 O   0  0  0  0  0  0
  -31.4654  -12.4100   19.1499 H   0  0  0  0  0  0
  -30.3189  -11.3247   19.8857 H   0  0  0  0  0  0
  -29.7436  -11.7266   17.4690 H   0  0  0  0  0  0
  -29.6606  -13.4446   17.7502 H   0  0  0  0  0  0
  -27.8306  -11.2927   18.8511 H   0  0  0  0  0  0
  -27.3707  -12.5977   17.7909 H   0  0  0  0  0  0
  -27.6790  -14.2490   19.5283 H   0  0  0  0  0  0
  -28.6779  -12.0423   21.3982 H   0  0  0  0  0  0
  -28.4667  -13.7177   21.8332 H   0  0  0  0  0  0
  -25.2747   -9.5680   22.4767 H   0  0  0  0  0  0
  -23.9982   -7.4640   22.7492 H   0  0  0  0  0  0
  -21.0845   -8.8756   19.8940 H   0  0  0  0  0  0
  -22.3695  -10.9661   19.6158 H   0  0  0  0  0  0
  -21.2008   -7.6147   23.9703 H   0  0  0  0  0  0
  -21.1485   -6.0528   25.9070 H   0  0  0  0  0  0
  -22.0602   -2.7604   23.2853 H   0  0  0  0  0  0
  -22.4113  -11.9854   22.4733 H   0  0  0  0  0  0
  -21.1103  -13.1228   22.2588 H   0  0  0  0  0  0
  -24.6621  -15.8459   20.5177 H   0  0  0  0  0  0
  -26.2761  -15.6250   20.0683 H   0  0  0  0  0  0
  -26.7107  -32.5545   23.1163 H   0  0  0  0  0  0
  -25.0071  -33.9787   25.0499 H   0  0  0  0  0  0
  -22.6958  -31.3097   21.4113 H   0  0  0  0  0  0
  -23.3750  -35.9625   23.3316 H   0  0  0  0  0  0
  -24.3576  -36.8906   22.2056 H   0  0  0  0  0  0
  -23.7219  -37.6507   23.6656 H   0  0  0  0  0  0
  -26.0478  -31.5888   20.5941 H   0  0  0  0  0  0
  -26.8273  -30.8852   21.9825 H   0  0  0  0  0  0
  -28.1019  -29.0620   21.1998 H   0  0  0  0  0  0
  -26.0630  -25.9899   18.9690 H   0  0  0  0  0  0
  -23.9838  -27.3174   19.0023 H   0  0  0  0  0  0
  -23.7225  -30.6051   19.4045 H   0  0  0  0  0  0
  -22.7425  -29.2465   19.8670 H   0  0  0  0  0  0
  -25.1268  -36.1972   25.0848 H   0  0  0  0  0  0
  -20.9970  -28.3244   24.1417 H   0  0  0  0  0  0
  -20.5671  -26.2280   23.3572 H   0  0  0  0  0  0
  -21.6635  -26.7458   22.1187 H   0  0  0  0  0  0
  -19.6906  -25.6307   21.1226 H   0  0  0  0  0  0
  -19.6683  -27.3205   20.6719 H   0  0  0  0  0  0
  -17.4182  -26.6686   21.4029 H   0  0  0  0  0  0
  -18.0347  -26.0057   22.8997 H   0  0  0  0  0  0
  -19.7924  -30.7258   24.2312 H   0  0  0  0  0  0
  -17.5013  -31.6284   24.5155 H   0  0  0  0  0  0
  -15.5350  -30.3010   23.7658 H   0  0  0  0  0  0
  -15.8657  -28.0829   22.7101 H   0  0  0  0  0  0
  -24.5969  -30.6933   25.7746 H   0  0  0  0  0  0
  -24.8896  -32.2728   26.4945 H   0  0  0  0  0  0
  -25.8123  -30.8742   27.0176 H   0  0  0  0  0  0
  -26.2923  -29.6771   24.1179 H   0  0  0  0  0  0
  -27.4269  -29.7345   25.4489 H   0  0  0  0  0  0
  -27.8685  -30.4462   23.9151 H   0  0  0  0  0  0
  -27.2680  -33.3635   26.2053 H   0  0  0  0  0  0
  -28.3883  -32.6822   25.0335 H   0  0  0  0  0  0
  -28.0680  -31.8434   26.5436 H   0  0  0  0  0  0
  -28.2587  -38.0110   24.7534 H   0  0  0  0  0  0
  -28.1068  -36.2636   24.6310 H   0  0  0  0  0  0
  -27.2289  -37.1460   25.8889 H   0  0  0  0  0  0
  -20.9280  -29.8757   21.6926 H   0  0  0  0  0  0
  -26.0174  -38.2877   24.1400 H   0  0  0  0  0  0
  -30.4662  -20.5103   18.4542 H   0  0  0  0  0  0
  -30.8421  -18.5152   17.1143 H   0  0  0  0  0  0
  -25.8288  -22.1379   19.3728 H   0  0  0  0  0  0
  -26.2626  -21.5812   20.9758 H   0  0  0  0  0  0
  -28.1256  -21.9540   18.5804 H   0  0  0  0  0  0
  -27.7203  -20.4770   19.4095 H   0  0  0  0  0  0
  -28.5624  -18.7570   22.5532 H   0  0  0  0  0  0
  -30.1574  -18.1206   22.9729 H   0  0  0  0  0  0
  -28.8463  -17.0403   22.5030 H   0  0  0  0  0  0
  -30.8692  -23.7828   22.0796 H   0  0  0  0  0  0
  -30.8732  -24.5679   20.4950 H   0  0  0  0  0  0
  -31.4014  -22.9120   20.6349 H   0  0  0  0  0  0
  -29.2631  -25.7457   21.7504 H   0  0  0  0  0  0
  -27.5632  -25.8395   21.9410 H   0  0  0  0  0  0
  -31.0613  -16.2539   16.9695 H   0  0  0  0  0  0
  -31.1493  -15.2808   18.3204 H   0  0  0  0  0  0
  -28.9968  -15.4557   21.0754 H   0  0  0  0  0  0
  1 25  1  0  0  0
  1 30  2  0  0  0
  1 88  1  0  0  0
  2  3  1  0  0  0
  2 25  1  0  0  0
  2 91  1  0  0  0
  2 92  1  0  0  0
  3  4  1  0  0  0
  3 93  1  0  0  0
  3 94  1  0  0  0
  4  5  1  0  0  0
  4 95  1  0  0  0
  4 96  1  0  0  0
  5  6  1  0  0  0
  5 26  1  0  0  0
  5 97  1  0  0  0
  6 25  1  0  0  0
  6 98  1  0  0  0
  6 99  1  0  0  0
  7  8  2  0  0  0
  7 26  1  0  0  0
  7 29  1  0  0  0
  8  9  1  0  0  0
  8 22  1  0  0  0
  9 10  1  0  0  0
  9 27  2  0  0  0
 10 11  2  0  0  0
 10 15  1  0  0  0
 11 12  1  0  0  0
 11100  1  0  0  0
 12 13  2  0  0  0
 12101  1  0  0  0
 13 14  1  0  0  0
 13 31  1  0  0  0
 14 15  2  0  0  0
 14102  1  0  0  0
 15103  1  0  0  0
 16 17  2  0  0  0
 16 21  1  0  0  0
 16 31  1  0  0  0
 17 18  1  0  0  0
 17104  1  0  0  0
 18 19  2  0  0  0
 18105  1  0  0  0
 19 20  1  0  0  0
 19 24  1  0  0  0
 20 21  2  0  0  0
 20106  1  0  0  0
 21 23  1  0  0  0
 22 28  1  0  0  0
 22 32  2  0  0  0
 26 27  1  0  0  0
 28107  1  0  0  0
 28108  1  0  0  0
 29109  1  0  0  0
 29110  1  0  0  0
 33 34  1  0  0  0
 33 66  1  0  0  0
 33 70  2  0  0  0
 34 36  1  0  0  0
 34 59  1  0  0  0
 34111  1  0  0  0
 35 44  2  0  0  0
 35 45  1  0  0  0
 35 68  1  0  0  0
 36 56  1  0  0  0
 36112  1  0  0  0
 37 39  1  0  0  0
 37 47  1  0  0  0
 37 66  1  0  0  0
 37113  1  0  0  0
 38 43  2  0  0  0
 38 46  1  0  0  0
 38 47  1  0  0  0
 39 64  1  0  0  0
 39 67  2  0  0  0
 40 52  1  0  0  0
 40 53  2  0  0  0
 40 58  1  0  0  0
 41114  1  0  0  0
 41115  1  0  0  0
 41116  1  0  0  0
 41 48  1  0  0  0
 42 43  1  0  0  0
 42 66  1  0  0  0
 42117  1  0  0  0
 42118  1  0  0  0
 43 44  1  0  0  0
 44119  1  0  0  0
 45 46  2  0  0  0
 45120  1  0  0  0
 46121  1  0  0  0
 47122  1  0  0  0
 47123  1  0  0  0
 48 56  1  0  0  0
 48 65  1  0  0  0
 48124  1  0  0  0
 49 50  1  0  0  0
 49 53  1  0  0  0
 49 64  1  0  0  0
 49125  1  0  0  0
 50 51  1  0  0  0
 50126  1  0  0  0
 50127  1  0  0  0
 51 52  1  0  0  0
 51128  1  0  0  0
 51129  1  0  0  0
 52130  1  0  0  0
 52131  1  0  0  0
 53 54  1  0  0  0
 54 55  2  0  0  0
 54132  1  0  0  0
 55 57  1  0  0  0
 55133  1  0  0  0
 56 69  2  0  0  0
 57 58  2  0  0  0
 57134  1  0  0  0
 58135  1  0  0  0
 59 60  1  0  0  0
 59 61  1  0  0  0
 59 62  1  0  0  0
 60136  1  0  0  0
 60137  1  0  0  0
 60138  1  0  0  0
 61139  1  0  0  0
 61140  1  0  0  0
 61141  1  0  0  0
 62142  1  0  0  0
 62143  1  0  0  0
 62144  1  0  0  0
 63 65  1  0  0  0
 63145  1  0  0  0
 63146  1  0  0  0
 63147  1  0  0  0
 64148  1  0  0  0
 65149  1  0  0  0
 68 85  1  0  0  0
 71 72  2  0  0  0
 71 73  1  0  0  0
 71150  1  0  0  0
 72 75  1  0  0  0
 72151  1  0  0  0
 73 74  2  0  0  0
 73 80  1  0  0  0
 74 76  1  0  0  0
 74 83  1  0  0  0
 75 76  2  0  0  0
 75 87  1  0  0  0
 76 88  1  0  0  0
 77 78  2  0  0  0
 77 79  1  0  0  0
 77 85  1  0  0  0
 78 84  1  0  0  0
 78 86  1  0  0  0
 79 81  1  0  0  0
 79 89  2  0  0  0
 80 86  1  0  0  0
 80 90  2  0  0  0
 81 82  1  0  0  0
 81152  1  0  0  0
 81153  1  0  0  0
 82 86  1  0  0  0
 82154  1  0  0  0
 82155  1  0  0  0
 83156  1  0  0  0
 83157  1  0  0  0
 83158  1  0  0  0
 84159  1  0  0  0
 84160  1  0  0  0
 84161  1  0  0  0
 85162  1  0  0  0
 85163  1  0  0  0
 87164  1  0  0  0
 87165  1  0  0  0
 88166  1  0  0  0
M  ISO  4   1 100  68 101  85 101  88 100
M  END
> <chiral flag>
0

> <version>
0

> <s_m_source_file>
/data/baiqing/PycharmProjects/Reinvent-master-3.2/result/LINK_invent/BTK/process_docking_weight1_custom_product_contain_oxygen_bond_distance_aromatic_linkinvent_7_9_3/rearranged_h_0110.sdf

> <i_m_source_file_index>
26

> <r_mmod_Potential_Energy-OPLS-2005>
59.0358047485352

> <r_mmod_Stretch_Energy-OPLS-2005>
65.3259048461914

> <r_mmod_Bend_Energy-OPLS-2005>
108.74617767334

> <r_mmod_Torsional_Energy-OPLS-2005>
296.043701171875

> <r_mmod_Improper_Torsional_Energy-OPLS-2005>
13.2409105300903

> <r_mmod_Van_der_Waal_Energy-OPLS-2005>
183.718048095703

> <r_mmod_Electrostatic_Energy-OPLS-2005>
-406.500396728516

> <r_mmod_Solvation_Energy-OPLS-2005>
-227.531326293945

> <b_mmod_Minimization_Converged-OPLS-2005>
0

> <r_mmod_RMS_Derivative-OPLS-2005>
1.35061860084534

$$$$
27
                    3D
 Structure written by MMmdl.
168176  0  0  1  0            999 V2000
  -30.7950  -14.3577   20.6835 C   0  0  0  0  0  0
  -30.4086  -12.2859   19.4069 C   0  0  0  0  0  0
  -29.4859  -12.5320   18.1975 C   0  0  0  0  0  0
  -28.0077  -12.3867   18.6033 C   0  0  0  0  0  0
  -27.6646  -13.2011   19.8761 C   0  0  2  0  0  0
  -28.6954  -12.9307   20.9919 C   0  0  0  0  0  0
  -25.2595  -13.8147   20.5663 C   0  0  0  0  0  0
  -24.1840  -13.0428   20.9163 C   0  0  0  0  0  0
  -24.6392  -11.6895   20.8721 C   0  0  0  0  0  0
  -23.9052  -10.4288   21.0396 C   0  0  0  0  0  0
  -24.3607   -9.4210   21.9181 C   0  0  0  0  0  0
  -23.6288   -8.2242   22.0755 C   0  0  0  0  0  0
  -22.4271   -8.0281   21.3543 C   0  0  0  0  0  0
  -21.9902   -9.0247   20.4642 C   0  0  0  0  0  0
  -22.7223  -10.2128   20.3046 C   0  0  0  0  0  0
  -21.6843   -6.0737   22.5281 C   0  0  0  0  0  0
  -21.4013   -6.5638   23.8217 C   0  0  0  0  0  0
  -21.3660   -5.6788   24.9177 C   0  0  0  0  0  0
  -21.6041   -4.3050   24.7225 C   0  0  0  0  0  0
  -21.8817   -3.8148   23.4341 C   0  0  0  0  0  0
  -21.9195   -4.6969   22.3401 C   0  0  0  0  0  0
  -22.7864  -13.5236   21.1842 C   0  0  0  0  0  0
  -22.1660   -4.2155   21.0980 F   0  0  0  0  0  0
  -21.5628   -3.4538   25.7737 F   0  0  0  0  0  0
  -30.0478  -13.2323   20.4784 N   0  0  0  0  0  0
  -26.3022  -12.9312   20.3332 N   0  0  0  0  0  0
  -25.9306  -11.6476   20.5713 N   0  0  0  0  0  0
  -22.0505  -12.8230   22.0399 N   0  0  0  0  0  0
  -25.4312  -15.1871   20.4085 N   0  0  0  0  0  0
  -31.7851  -14.6341   19.9957 O   0  0  0  0  0  0
  -21.6631   -6.8883   21.4244 O   0  0  0  0  0  0
  -22.3560  -14.5553   20.6708 O   0  0  0  0  0  0
  -24.6106  -31.8714   23.2145 C   0  0  0  0  0  0
  -25.9001  -32.4858   23.8419 C   0  0  1  0  0  0
  -27.2405  -27.4799   20.0885 C   0  0  0  0  0  0
  -25.5873  -33.8657   24.2360 N   0  0  0  0  0  0
  -23.3959  -30.4947   21.5538 C   0  0  2  0  0  0
  -24.8452  -28.9667   20.1171 C   0  0  0  0  0  0
  -22.7364  -29.4675   22.5019 C   0  0  0  0  0  0
  -18.0241  -28.1367   22.8488 C   0  0  0  0  0  0
  -24.1479  -36.7304   23.2645 C   0  0  0  0  0  0
  -25.9201  -30.8528   21.3561 C   0  0  0  0  0  0
  -26.0039  -29.4893   20.7054 C   0  0  0  0  0  0
  -27.2068  -28.7530   20.6880 C   0  0  0  0  0  0
  -26.0664  -26.9563   19.5018 C   0  0  0  0  0  0
  -24.8679  -27.6959   19.5157 C   0  0  0  0  0  0
  -23.6033  -29.8281   20.1683 C   0  0  0  0  0  0
  -25.4095  -36.3124   24.0352 C   0  0  1  0  0  0
  -20.5826  -28.3643   23.1337 C   0  0  2  0  0  0
  -20.6751  -26.9390   22.5423 C   0  0  0  0  0  0
  -19.5745  -26.6385   21.5200 C   0  0  0  0  0  0
  -18.1906  -26.7916   22.1597 C   0  0  0  0  0  0
  -19.1496  -28.8816   23.2917 C   0  0  0  0  0  0
  -18.9439  -30.1417   23.8940 C   0  0  0  0  0  0
  -17.6455  -30.6599   24.0540 C   0  0  0  0  0  0
  -25.9021  -34.9495   23.5151 C   0  0  0  0  0  0
  -16.5332  -29.9099   23.6335 C   0  0  0  0  0  0
  -16.7234  -28.6503   23.0372 C   0  0  0  0  0  0
  -26.4440  -31.6609   25.0719 C   0  0  0  0  0  0
  -25.3735  -31.3634   26.1484 C   0  0  0  0  0  0
  -27.0293  -30.3093   24.6027 C   0  0  0  0  0  0
  -27.6052  -32.4306   25.7454 C   0  0  0  0  0  0
  -27.5573  -37.1808   24.8486 C   0  0  0  0  0  0
  -21.4095  -29.3029   22.3749 N   0  0  0  0  0  0
  -26.4295  -37.3793   23.9430 N   0  0  0  0  0  0
  -24.6604  -31.0853   22.1021 N   0  0  0  0  0  0
  -23.4146  -28.8198   23.3030 O   0  0  0  0  0  0
  -28.4144  -26.7720   20.0818 O   0  0  0  0  0  0
  -26.5573  -34.8927   22.4699 O   0  0  0  0  0  0
  -23.5312  -32.1441   23.7588 O   0  0  0  0  0  0
  -29.8985  -17.4213   20.6619 C   0  0  0  0  0  0
  -32.0633  -18.7616   21.8304 C   0  0  0  0  0  0
  -30.7362  -16.7212   21.5603 C   0  0  0  0  0  0
  -31.8284  -17.4087   22.1622 C   0  0  0  0  0  0
  -30.1200  -18.7776   20.3583 C   0  0  0  0  0  0
  -31.2221  -19.4575   20.9288 C   0  0  0  0  0  0
  -30.4331  -15.2922   21.8375 C   0  0  0  0  0  0
  -32.3966  -21.5333   21.2617 C   0  0  0  0  0  0
  -32.7979  -16.7381   23.1409 C   0  0  0  0  0  0
  -28.3181  -22.9913   20.3193 C   0  0  0  0  0  0
  -28.5230  -24.3661   19.6675 C   0  0  0  0  0  0
  -28.7030  -21.8093   19.4169 C   0  0  0  0  0  0
  -28.3368  -25.4893   20.6950 C   0  0  0  0  0  0
  -28.4928  -20.4675   20.1399 C   0  0  0  0  0  0
  -29.9907  -14.9432   22.9736 N   0  0  0  0  0  0
  -32.4258  -16.9835   24.5425 N   0  3  0  0  0  0
  -31.4199  -20.7720   20.5659 O   0  0  0  0  0  0
  -29.2330  -19.4143   19.5213 O   0  0  0  0  0  0
  -31.4541  -12.3641   19.1056 H   0  0  0  0  0  0
  -30.2908  -11.2620   19.7656 H   0  0  0  0  0  0
  -29.7208  -11.8304   17.3951 H   0  0  0  0  0  0
  -29.6612  -13.5301   17.7957 H   0  0  0  0  0  0
  -27.8103  -11.3277   18.7769 H   0  0  0  0  0  0
  -27.3581  -12.6847   17.7797 H   0  0  0  0  0  0
  -27.7268  -14.2574   19.6124 H   0  0  0  0  0  0
  -28.6570  -11.8822   21.2930 H   0  0  0  0  0  0
  -28.3975  -13.4819   21.8774 H   0  0  0  0  0  0
  -25.2749   -9.5688   22.4753 H   0  0  0  0  0  0
  -23.9993   -7.4639   22.7471 H   0  0  0  0  0  0
  -21.0836   -8.8761   19.8948 H   0  0  0  0  0  0
  -22.3683  -10.9665   19.6152 H   0  0  0  0  0  0
  -21.2002   -7.6144   23.9723 H   0  0  0  0  0  0
  -21.1480   -6.0515   25.9077 H   0  0  0  0  0  0
  -22.0598   -2.7610   23.2838 H   0  0  0  0  0  0
  -22.4098  -11.9872   22.4767 H   0  0  0  0  0  0
  -21.1123  -13.1268   22.2610 H   0  0  0  0  0  0
  -24.6632  -15.8409   20.5168 H   0  0  0  0  0  0
  -26.2873  -15.6297   20.1001 H   0  0  0  0  0  0
  -26.7060  -32.5598   23.1179 H   0  0  0  0  0  0
  -25.0107  -33.9860   25.0551 H   0  0  0  0  0  0
  -22.6837  -31.3105   21.4150 H   0  0  0  0  0  0
  -23.3758  -35.9621   23.3352 H   0  0  0  0  0  0
  -24.3587  -36.8891   22.2058 H   0  0  0  0  0  0
  -23.7223  -37.6511   23.6642 H   0  0  0  0  0  0
  -26.0214  -31.6211   20.5873 H   0  0  0  0  0  0
  -26.8122  -30.9145   21.9684 H   0  0  0  0  0  0
  -28.1025  -29.1550   21.1401 H   0  0  0  0  0  0
  -26.0749  -25.9828   19.0324 H   0  0  0  0  0  0
  -23.9726  -27.2869   19.0683 H   0  0  0  0  0  0
  -23.7012  -30.6035   19.4075 H   0  0  0  0  0  0
  -22.7304  -29.2409   19.8785 H   0  0  0  0  0  0
  -25.1267  -36.1993   25.0847 H   0  0  0  0  0  0
  -20.9899  -28.3211   24.1460 H   0  0  0  0  0  0
  -20.5661  -26.2235   23.3598 H   0  0  0  0  0  0
  -21.6628  -26.7460   22.1211 H   0  0  0  0  0  0
  -19.6935  -25.6303   21.1236 H   0  0  0  0  0  0
  -19.6724  -27.3192   20.6731 H   0  0  0  0  0  0
  -17.4180  -26.6647   21.3996 H   0  0  0  0  0  0
  -18.0323  -26.0043   22.8982 H   0  0  0  0  0  0
  -19.7921  -30.7185   24.2370 H   0  0  0  0  0  0
  -17.5026  -31.6302   24.5096 H   0  0  0  0  0  0
  -15.5348  -30.3015   23.7681 H   0  0  0  0  0  0
  -15.8609  -28.0834   22.7123 H   0  0  0  0  0  0
  -24.5967  -30.6916   25.7820 H   0  0  0  0  0  0
  -24.8827  -32.2727   26.4966 H   0  0  0  0  0  0
  -25.8139  -30.8813   27.0221 H   0  0  0  0  0  0
  -26.2828  -29.6842   24.1124 H   0  0  0  0  0  0
  -27.4171  -29.7347   25.4443 H   0  0  0  0  0  0
  -27.8584  -30.4488   23.9091 H   0  0  0  0  0  0
  -27.2757  -33.3656   26.1996 H   0  0  0  0  0  0
  -28.3867  -32.6780   25.0259 H   0  0  0  0  0  0
  -28.0676  -31.8406   26.5384 H   0  0  0  0  0  0
  -28.2603  -38.0088   24.7545 H   0  0  0  0  0  0
  -28.1066  -36.2638   24.6311 H   0  0  0  0  0  0
  -27.2313  -37.1461   25.8892 H   0  0  0  0  0  0
  -20.9245  -29.8744   21.6981 H   0  0  0  0  0  0
  -26.0199  -38.2883   24.1409 H   0  0  0  0  0  0
  -29.0539  -16.9185   20.2111 H   0  0  0  0  0  0
  -32.9149  -19.2541   22.2752 H   0  0  0  0  0  0
  -32.3415  -22.5721   20.9330 H   0  0  0  0  0  0
  -33.4061  -21.1745   21.0572 H   0  0  0  0  0  0
  -32.2171  -21.5262   22.3376 H   0  0  0  0  0  0
  -33.7997  -17.1400   22.9783 H   0  0  0  0  0  0
  -32.8892  -15.6660   22.9656 H   0  0  0  0  0  0
  -27.2783  -22.8940   20.6323 H   0  0  0  0  0  0
  -28.9169  -22.9439   21.2313 H   0  0  0  0  0  0
  -27.8240  -24.4850   18.8407 H   0  0  0  0  0  0
  -29.5236  -24.4341   19.2388 H   0  0  0  0  0  0
  -29.7460  -21.9176   19.1252 H   0  0  0  0  0  0
  -28.1280  -21.8236   18.4908 H   0  0  0  0  0  0
  -29.1230  -25.4347   21.4486 H   0  0  0  0  0  0
  -27.3988  -25.3538   21.2372 H   0  0  0  0  0  0
  -27.4346  -20.2029   20.1299 H   0  0  0  0  0  0
  -28.7568  -20.5722   21.1947 H   0  0  0  0  0  0
  -29.8026  -15.7444   23.5594 H   0  0  0  0  0  0
  -32.2949  -17.9641   24.7122 H   0  0  0  0  0  0
  -33.1620  -16.6569   25.1427 H   0  0  0  0  0  0
  -31.5857  -16.4943   24.7877 H   0  0  0  0  0  0
  1 25  1  0  0  0
  1 30  2  0  0  0
  1 77  1  0  0  0
  2  3  1  0  0  0
  2 25  1  0  0  0
  2 89  1  0  0  0
  2 90  1  0  0  0
  3  4  1  0  0  0
  3 91  1  0  0  0
  3 92  1  0  0  0
  4  5  1  0  0  0
  4 93  1  0  0  0
  4 94  1  0  0  0
  5  6  1  0  0  0
  5 26  1  0  0  0
  5 95  1  0  0  0
  6 25  1  0  0  0
  6 96  1  0  0  0
  6 97  1  0  0  0
  7  8  2  0  0  0
  7 26  1  0  0  0
  7 29  1  0  0  0
  8  9  1  0  0  0
  8 22  1  0  0  0
  9 10  1  0  0  0
  9 27  2  0  0  0
 10 11  2  0  0  0
 10 15  1  0  0  0
 11 12  1  0  0  0
 11 98  1  0  0  0
 12 13  2  0  0  0
 12 99  1  0  0  0
 13 14  1  0  0  0
 13 31  1  0  0  0
 14 15  2  0  0  0
 14100  1  0  0  0
 15101  1  0  0  0
 16 17  2  0  0  0
 16 21  1  0  0  0
 16 31  1  0  0  0
 17 18  1  0  0  0
 17102  1  0  0  0
 18 19  2  0  0  0
 18103  1  0  0  0
 19 20  1  0  0  0
 19 24  1  0  0  0
 20 21  2  0  0  0
 20104  1  0  0  0
 21 23  1  0  0  0
 22 28  1  0  0  0
 22 32  2  0  0  0
 26 27  1  0  0  0
 28105  1  0  0  0
 28106  1  0  0  0
 29107  1  0  0  0
 29108  1  0  0  0
 33 34  1  0  0  0
 33 66  1  0  0  0
 33 70  2  0  0  0
 34 36  1  0  0  0
 34 59  1  0  0  0
 34109  1  0  0  0
 35 44  2  0  0  0
 35 45  1  0  0  0
 35 68  1  0  0  0
 36 56  1  0  0  0
 36110  1  0  0  0
 37 39  1  0  0  0
 37 47  1  0  0  0
 37 66  1  0  0  0
 37111  1  0  0  0
 38 43  2  0  0  0
 38 46  1  0  0  0
 38 47  1  0  0  0
 39 64  1  0  0  0
 39 67  2  0  0  0
 40 52  1  0  0  0
 40 53  2  0  0  0
 40 58  1  0  0  0
 41112  1  0  0  0
 41113  1  0  0  0
 41114  1  0  0  0
 41 48  1  0  0  0
 42 43  1  0  0  0
 42 66  1  0  0  0
 42115  1  0  0  0
 42116  1  0  0  0
 43 44  1  0  0  0
 44117  1  0  0  0
 45 46  2  0  0  0
 45118  1  0  0  0
 46119  1  0  0  0
 47120  1  0  0  0
 47121  1  0  0  0
 48 56  1  0  0  0
 48 65  1  0  0  0
 48122  1  0  0  0
 49 50  1  0  0  0
 49 53  1  0  0  0
 49 64  1  0  0  0
 49123  1  0  0  0
 50 51  1  0  0  0
 50124  1  0  0  0
 50125  1  0  0  0
 51 52  1  0  0  0
 51126  1  0  0  0
 51127  1  0  0  0
 52128  1  0  0  0
 52129  1  0  0  0
 53 54  1  0  0  0
 54 55  2  0  0  0
 54130  1  0  0  0
 55 57  1  0  0  0
 55131  1  0  0  0
 56 69  2  0  0  0
 57 58  2  0  0  0
 57132  1  0  0  0
 58133  1  0  0  0
 59 60  1  0  0  0
 59 61  1  0  0  0
 59 62  1  0  0  0
 60134  1  0  0  0
 60135  1  0  0  0
 60136  1  0  0  0
 61137  1  0  0  0
 61138  1  0  0  0
 61139  1  0  0  0
 62140  1  0  0  0
 62141  1  0  0  0
 62142  1  0  0  0
 63 65  1  0  0  0
 63143  1  0  0  0
 63144  1  0  0  0
 63145  1  0  0  0
 64146  1  0  0  0
 65147  1  0  0  0
 68 83  1  0  0  0
 71 73  2  0  0  0
 71 75  1  0  0  0
 71148  1  0  0  0
 72 74  2  0  0  0
 72 76  1  0  0  0
 72149  1  0  0  0
 73 74  1  0  0  0
 73 77  1  0  0  0
 74 79  1  0  0  0
 75 76  2  0  0  0
 75 88  1  0  0  0
 76 87  1  0  0  0
 77 85  2  0  0  0
 78 87  1  0  0  0
 78150  1  0  0  0
 78151  1  0  0  0
 78152  1  0  0  0
 79 86  1  0  0  0
 79153  1  0  0  0
 79154  1  0  0  0
 80 81  1  0  0  0
 80 82  1  0  0  0
 80155  1  0  0  0
 80156  1  0  0  0
 81 83  1  0  0  0
 81157  1  0  0  0
 81158  1  0  0  0
 82 84  1  0  0  0
 82159  1  0  0  0
 82160  1  0  0  0
 83161  1  0  0  0
 83162  1  0  0  0
 84 88  1  0  0  0
 84163  1  0  0  0
 84164  1  0  0  0
 85165  1  0  0  0
 86166  1  0  0  0
 86167  1  0  0  0
 86168  1  0  0  0
M  CHG  1  86   1
M  ISO  4   1 100  68 101  77 100  83 101
M  END
> <chiral flag>
0

> <version>
0

> <s_m_source_file>
/data/baiqing/PycharmProjects/Reinvent-master-3.2/result/LINK_invent/BTK/process_docking_weight1_custom_product_contain_oxygen_bond_distance_aromatic_linkinvent_7_9_3/rearranged_h_0110.sdf

> <i_m_source_file_index>
27

> <r_mmod_Potential_Energy-OPLS-2005>
-179.322967529297

> <r_mmod_Stretch_Energy-OPLS-2005>
37.8506088256836

> <r_mmod_Bend_Energy-OPLS-2005>
107.333374023438

> <r_mmod_Torsional_Energy-OPLS-2005>
242.74787902832

> <r_mmod_Improper_Torsional_Energy-OPLS-2005>
2.2944610118866

> <r_mmod_Van_der_Waal_Energy-OPLS-2005>
163.812957763672

> <r_mmod_Electrostatic_Energy-OPLS-2005>
-227.358901977539

> <r_mmod_Solvation_Energy-OPLS-2005>
-513.314331054688

> <b_mmod_Minimization_Converged-OPLS-2005>
0

> <r_mmod_RMS_Derivative-OPLS-2005>
2.83427906036377

$$$$
28
                    3D
 Structure written by MMmdl.
156164  0  0  1  0            999 V2000
  -30.6184  -14.6552   20.5035 C   0  0  0  0  0  0
  -30.4402  -12.4018   19.4577 C   0  0  0  0  0  0
  -29.5109  -12.5121   18.2281 C   0  0  0  0  0  0
  -28.0332  -12.3479   18.6373 C   0  0  0  0  0  0
  -27.6536  -13.2188   19.8648 C   0  0  2  0  0  0
  -28.6980  -13.0761   20.9954 C   0  0  0  0  0  0
  -25.2526  -13.8151   20.5609 C   0  0  0  0  0  0
  -24.1819  -13.0423   20.9188 C   0  0  0  0  0  0
  -24.6401  -11.6900   20.8753 C   0  0  0  0  0  0
  -23.9071  -10.4284   21.0413 C   0  0  0  0  0  0
  -24.3619   -9.4199   21.9190 C   0  0  0  0  0  0
  -23.6288   -8.2238   22.0760 C   0  0  0  0  0  0
  -22.4270   -8.0279   21.3550 C   0  0  0  0  0  0
  -21.9911   -9.0254   20.4652 C   0  0  0  0  0  0
  -22.7246  -10.2128   20.3060 C   0  0  0  0  0  0
  -21.6851   -6.0733   22.5277 C   0  0  0  0  0  0
  -21.4014   -6.5637   23.8211 C   0  0  0  0  0  0
  -21.3659   -5.6791   24.9173 C   0  0  0  0  0  0
  -21.6043   -4.3054   24.7226 C   0  0  0  0  0  0
  -21.8821   -3.8145   23.4348 C   0  0  0  0  0  0
  -21.9193   -4.6960   22.3401 C   0  0  0  0  0  0
  -22.7839  -13.5215   21.1844 C   0  0  0  0  0  0
  -22.1660   -4.2144   21.0979 F   0  0  0  0  0  0
  -21.5626   -3.4536   25.7739 F   0  0  0  0  0  0
  -30.0136  -13.4246   20.4352 N   0  0  0  0  0  0
  -26.2985  -12.9353   20.3315 N   0  0  0  0  0  0
  -25.9337  -11.6507   20.5788 N   0  0  0  0  0  0
  -22.0480  -12.8219   22.0410 N   0  0  0  0  0  0
  -25.4157  -15.1850   20.3852 N   0  0  0  0  0  0
  -31.7751  -14.8163   20.1032 O   0  0  0  0  0  0
  -21.6638   -6.8874   21.4239 O   0  0  0  0  0  0
  -22.3525  -14.5523   20.6693 O   0  0  0  0  0  0
  -24.6262  -31.8594   23.2015 C   0  0  0  0  0  0
  -25.9105  -32.4776   23.8342 C   0  0  1  0  0  0
  -27.2253  -27.3133   20.1224 C   0  0  0  0  0  0
  -25.5918  -33.8575   24.2268 N   0  0  0  0  0  0
  -23.4198  -30.4829   21.5438 C   0  0  2  0  0  0
  -24.8673  -28.9367   20.1110 C   0  0  0  0  0  0
  -22.7479  -29.4623   22.4933 C   0  0  0  0  0  0
  -18.0294  -28.1383   22.8503 C   0  0  0  0  0  0
  -24.1491  -36.7288   23.2645 C   0  0  0  0  0  0
  -25.9621  -30.7884   21.3736 C   0  0  0  0  0  0
  -26.0358  -29.4152   20.7163 C   0  0  0  0  0  0
  -27.2176  -28.6164   20.7110 C   0  0  0  0  0  0
  -26.0321  -26.8876   19.4937 C   0  0  0  0  0  0
  -24.8673  -27.6786   19.4902 C   0  0  0  0  0  0
  -23.6350  -29.8174   20.1592 C   0  0  0  0  0  0
  -25.4116  -36.3082   24.0336 C   0  0  1  0  0  0
  -20.5896  -28.3680   23.1296 C   0  0  2  0  0  0
  -20.6784  -26.9403   22.5416 C   0  0  0  0  0  0
  -19.5757  -26.6385   21.5220 C   0  0  0  0  0  0
  -18.1939  -26.7933   22.1632 C   0  0  0  0  0  0
  -19.1548  -28.8853   23.2894 C   0  0  0  0  0  0
  -18.9470  -30.1463   23.8896 C   0  0  0  0  0  0
  -17.6468  -30.6591   24.0570 C   0  0  0  0  0  0
  -25.9050  -34.9451   23.5102 C   0  0  0  0  0  0
  -16.5360  -29.9091   23.6335 C   0  0  0  0  0  0
  -16.7281  -28.6508   23.0356 C   0  0  0  0  0  0
  -26.4485  -31.6590   25.0715 C   0  0  0  0  0  0
  -25.3716  -31.3727   26.1439 C   0  0  0  0  0  0
  -27.0331  -30.3022   24.6161 C   0  0  0  0  0  0
  -27.6046  -32.4321   25.7481 C   0  0  0  0  0  0
  -27.5579  -37.1805   24.8470 C   0  0  0  0  0  0
  -21.4192  -29.3035   22.3687 N   0  0  0  0  0  0
  -26.4292  -37.3781   23.9415 N   0  0  0  0  0  0
  -24.6880  -31.0611   22.0958 N   0  0  0  0  0  0
  -23.4203  -28.8166   23.3012 O   0  0  0  0  0  0
  -28.3454  -26.4663   20.1750 O   0  0  0  0  0  0
  -26.5630  -34.8925   22.4676 O   0  0  0  0  0  0
  -23.5425  -32.1382   23.7351 O   0  0  0  0  0  0
  -29.8018  -24.3790   21.8642 C   0  0  0  0  0  0
  -28.9072  -19.4150   21.2299 C   0  0  0  0  0  0
  -30.8568  -17.8479   19.9660 C   0  0  0  0  0  0
  -28.9210  -17.9918   21.3891 C   0  0  0  0  0  0
  -29.8678  -20.1054   20.4428 C   0  0  0  0  0  0
  -29.8941  -17.1603   20.7526 C   0  0  0  0  0  0
  -30.8463  -19.2706   19.8229 C   0  0  0  0  0  0
  -29.0585  -22.4483   20.5257 C   0  0  0  0  0  0
  -27.8678  -17.3630   22.2849 C   0  0  0  0  0  0
  -28.1331  -24.9944   20.0982 C   0  0  0  0  0  0
  -29.3149  -24.0130   20.5251 C   0  0  1  0  0  0
  -30.1864  -24.6700   22.9234 N   0  0  0  0  0  0
  -29.9733  -21.5435   20.3101 N   0  0  0  0  0  0
  -31.8419  -19.8777   19.0576 N   0  0  0  0  0  0
  -29.8214  -15.6974   20.9103 N   0  0  0  0  0  0
  -31.4812  -12.5289   19.1561 H   0  0  0  0  0  0
  -30.3784  -11.4066   19.9006 H   0  0  0  0  0  0
  -29.7772  -11.7587   17.4857 H   0  0  0  0  0  0
  -29.6528  -13.4803   17.7453 H   0  0  0  0  0  0
  -27.8708  -11.2950   18.8700 H   0  0  0  0  0  0
  -27.3797  -12.5770   17.7943 H   0  0  0  0  0  0
  -27.6721  -14.2549   19.5260 H   0  0  0  0  0  0
  -28.7123  -12.0543   21.3783 H   0  0  0  0  0  0
  -28.4399  -13.7053   21.8485 H   0  0  0  0  0  0
  -25.2763   -9.5669   22.4766 H   0  0  0  0  0  0
  -23.9994   -7.4629   22.7480 H   0  0  0  0  0  0
  -21.0846   -8.8782   19.8954 H   0  0  0  0  0  0
  -22.3716  -10.9670   19.6170 H   0  0  0  0  0  0
  -21.2008   -7.6145   23.9713 H   0  0  0  0  0  0
  -21.1477   -6.0521   25.9077 H   0  0  0  0  0  0
  -22.0600   -2.7605   23.2852 H   0  0  0  0  0  0
  -22.4094  -11.9889   22.4815 H   0  0  0  0  0  0
  -21.1098  -13.1253   22.2605 H   0  0  0  0  0  0
  -24.6319  -15.8253   20.4532 H   0  0  0  0  0  0
  -26.2393  -15.6108   19.9800 H   0  0  0  0  0  0
  -26.7171  -32.5447   23.1088 H   0  0  0  0  0  0
  -25.0067  -33.9721   25.0414 H   0  0  0  0  0  0
  -22.7138  -31.3034   21.4003 H   0  0  0  0  0  0
  -23.3753  -35.9621   23.3308 H   0  0  0  0  0  0
  -24.3579  -36.8900   22.2058 H   0  0  0  0  0  0
  -23.7236  -37.6493   23.6658 H   0  0  0  0  0  0
  -26.0975  -31.5506   20.6053 H   0  0  0  0  0  0
  -26.8415  -30.8352   22.0043 H   0  0  0  0  0  0
  -28.1123  -28.9796   21.1968 H   0  0  0  0  0  0
  -25.9713  -25.9266   19.0059 H   0  0  0  0  0  0
  -23.9704  -27.3075   19.0129 H   0  0  0  0  0  0
  -23.7559  -30.5924   19.4014 H   0  0  0  0  0  0
  -22.7543  -29.2477   19.8566 H   0  0  0  0  0  0
  -25.1294  -36.1927   25.0828 H   0  0  0  0  0  0
  -20.9992  -28.3241   24.1413 H   0  0  0  0  0  0
  -20.5694  -26.2277   23.3605 H   0  0  0  0  0  0
  -21.6653  -26.7445   22.1198 H   0  0  0  0  0  0
  -19.6905  -25.6296   21.1245 H   0  0  0  0  0  0
  -19.6696  -27.3212   20.6761 H   0  0  0  0  0  0
  -17.4208  -26.6701   21.4028 H   0  0  0  0  0  0
  -18.0323  -26.0072   22.9020 H   0  0  0  0  0  0
  -19.7944  -30.7294   24.2244 H   0  0  0  0  0  0
  -17.5022  -31.6270   24.5175 H   0  0  0  0  0  0
  -15.5363  -30.2990   23.7663 H   0  0  0  0  0  0
  -15.8682  -28.0833   22.7053 H   0  0  0  0  0  0
  -24.5893  -30.7073   25.7768 H   0  0  0  0  0  0
  -24.8908  -32.2897   26.4860 H   0  0  0  0  0  0
  -25.8043  -30.8910   27.0214 H   0  0  0  0  0  0
  -26.2911  -29.6765   24.1196 H   0  0  0  0  0  0
  -27.4057  -29.7274   25.4646 H   0  0  0  0  0  0
  -27.8757  -30.4320   23.9367 H   0  0  0  0  0  0
  -27.2662  -33.3625   26.2054 H   0  0  0  0  0  0
  -28.3863  -32.6873   25.0310 H   0  0  0  0  0  0
  -28.0707  -31.8444   26.5398 H   0  0  0  0  0  0
  -28.2608  -38.0096   24.7516 H   0  0  0  0  0  0
  -28.1065  -36.2626   24.6296 H   0  0  0  0  0  0
  -27.2299  -37.1457   25.8877 H   0  0  0  0  0  0
  -20.9361  -29.8736   21.6887 H   0  0  0  0  0  0
  -26.0165  -38.2855   24.1412 H   0  0  0  0  0  0
  -28.1512  -19.9841   21.7516 H   0  0  0  0  0  0
  -31.6217  -17.2794   19.4577 H   0  0  0  0  0  0
  -28.0286  -22.1718   20.7675 H   0  0  0  0  0  0
  -27.2711  -18.1180   22.7973 H   0  0  0  0  0  0
  -28.3337  -16.7393   23.0483 H   0  0  0  0  0  0
  -27.1885  -16.7456   21.7019 H   0  0  0  0  0  0
  -27.2653  -24.7450   20.7110 H   0  0  0  0  0  0
  -27.8644  -24.7499   19.0699 H   0  0  0  0  0  0
  -30.1515  -24.1987   19.8533 H   0  0  0  0  0  0
  -32.7305  -19.3959   18.9712 H   0  0  0  0  0  0
  -31.9513  -20.8719   19.2384 H   0  0  0  0  0  0
  -28.9516  -15.3740   21.3034 H   0  0  0  0  0  0
  1 25  1  0  0  0
  1 30  2  0  0  0
  1 85  1  0  0  0
  2  3  1  0  0  0
  2 25  1  0  0  0
  2 86  1  0  0  0
  2 87  1  0  0  0
  3  4  1  0  0  0
  3 88  1  0  0  0
  3 89  1  0  0  0
  4  5  1  0  0  0
  4 90  1  0  0  0
  4 91  1  0  0  0
  5  6  1  0  0  0
  5 26  1  0  0  0
  5 92  1  0  0  0
  6 25  1  0  0  0
  6 93  1  0  0  0
  6 94  1  0  0  0
  7  8  2  0  0  0
  7 26  1  0  0  0
  7 29  1  0  0  0
  8  9  1  0  0  0
  8 22  1  0  0  0
  9 10  1  0  0  0
  9 27  2  0  0  0
 10 11  2  0  0  0
 10 15  1  0  0  0
 11 12  1  0  0  0
 11 95  1  0  0  0
 12 13  2  0  0  0
 12 96  1  0  0  0
 13 14  1  0  0  0
 13 31  1  0  0  0
 14 15  2  0  0  0
 14 97  1  0  0  0
 15 98  1  0  0  0
 16 17  2  0  0  0
 16 21  1  0  0  0
 16 31  1  0  0  0
 17 18  1  0  0  0
 17 99  1  0  0  0
 18 19  2  0  0  0
 18100  1  0  0  0
 19 20  1  0  0  0
 19 24  1  0  0  0
 20 21  2  0  0  0
 20101  1  0  0  0
 21 23  1  0  0  0
 22 28  1  0  0  0
 22 32  2  0  0  0
 26 27  1  0  0  0
 28102  1  0  0  0
 28103  1  0  0  0
 29104  1  0  0  0
 29105  1  0  0  0
 33 34  1  0  0  0
 33 66  1  0  0  0
 33 70  2  0  0  0
 34 36  1  0  0  0
 34 59  1  0  0  0
 34106  1  0  0  0
 35 44  2  0  0  0
 35 45  1  0  0  0
 35 68  1  0  0  0
 36 56  1  0  0  0
 36107  1  0  0  0
 37 39  1  0  0  0
 37 47  1  0  0  0
 37 66  1  0  0  0
 37108  1  0  0  0
 38 43  2  0  0  0
 38 46  1  0  0  0
 38 47  1  0  0  0
 39 64  1  0  0  0
 39 67  2  0  0  0
 40 52  1  0  0  0
 40 53  2  0  0  0
 40 58  1  0  0  0
 41109  1  0  0  0
 41110  1  0  0  0
 41111  1  0  0  0
 41 48  1  0  0  0
 42 43  1  0  0  0
 42 66  1  0  0  0
 42112  1  0  0  0
 42113  1  0  0  0
 43 44  1  0  0  0
 44114  1  0  0  0
 45 46  2  0  0  0
 45115  1  0  0  0
 46116  1  0  0  0
 47117  1  0  0  0
 47118  1  0  0  0
 48 56  1  0  0  0
 48 65  1  0  0  0
 48119  1  0  0  0
 49 50  1  0  0  0
 49 53  1  0  0  0
 49 64  1  0  0  0
 49120  1  0  0  0
 50 51  1  0  0  0
 50121  1  0  0  0
 50122  1  0  0  0
 51 52  1  0  0  0
 51123  1  0  0  0
 51124  1  0  0  0
 52125  1  0  0  0
 52126  1  0  0  0
 53 54  1  0  0  0
 54 55  2  0  0  0
 54127  1  0  0  0
 55 57  1  0  0  0
 55128  1  0  0  0
 56 69  2  0  0  0
 57 58  2  0  0  0
 57129  1  0  0  0
 58130  1  0  0  0
 59 60  1  0  0  0
 59 61  1  0  0  0
 59 62  1  0  0  0
 60131  1  0  0  0
 60132  1  0  0  0
 60133  1  0  0  0
 61134  1  0  0  0
 61135  1  0  0  0
 61136  1  0  0  0
 62137  1  0  0  0
 62138  1  0  0  0
 62139  1  0  0  0
 63 65  1  0  0  0
 63140  1  0  0  0
 63141  1  0  0  0
 63142  1  0  0  0
 64143  1  0  0  0
 65144  1  0  0  0
 68 80  1  0  0  0
 71 82  3  0  0  0
 71 81  1  0  0  0
 72 74  2  0  0  0
 72 75  1  0  0  0
 72145  1  0  0  0
 73 76  2  0  0  0
 73 77  1  0  0  0
 73146  1  0  0  0
 74 76  1  0  0  0
 74 79  1  0  0  0
 75 77  2  0  0  0
 75 83  1  0  0  0
 76 85  1  0  0  0
 77 84  1  0  0  0
 78 81  1  0  0  0
 78 83  2  0  0  0
 78147  1  0  0  0
 79148  1  0  0  0
 79149  1  0  0  0
 79150  1  0  0  0
 80 81  1  0  0  0
 80151  1  0  0  0
 80152  1  0  0  0
 81153  1  0  0  0
 84154  1  0  0  0
 84155  1  0  0  0
 85156  1  0  0  0
M  ISO  4   1 100  68 101  80 101  85 100
M  END
> <chiral flag>
0

> <version>
0

> <s_m_source_file>
/data/baiqing/PycharmProjects/Reinvent-master-3.2/result/LINK_invent/BTK/process_docking_weight1_custom_product_contain_oxygen_bond_distance_aromatic_linkinvent_7_9_3/rearranged_h_0110.sdf

> <i_m_source_file_index>
28

> <r_mmod_Potential_Energy-OPLS-2005>
-22.4538974761963

> <r_mmod_Stretch_Energy-OPLS-2005>
88.1710510253906

> <r_mmod_Bend_Energy-OPLS-2005>
149.443786621094

> <r_mmod_Torsional_Energy-OPLS-2005>
220.740997314453

> <r_mmod_Improper_Torsional_Energy-OPLS-2005>
8.3551139831543

> <r_mmod_Van_der_Waal_Energy-OPLS-2005>
145.953094482422

> <r_mmod_Electrostatic_Energy-OPLS-2005>
-441.845153808594

> <r_mmod_Solvation_Energy-OPLS-2005>
-245.014526367188

> <b_mmod_Minimization_Converged-OPLS-2005>
0

> <r_mmod_RMS_Derivative-OPLS-2005>
1.21531927585602

$$$$
29
                    3D
 Structure written by MMmdl.
160168  0  0  1  0            999 V2000
  -30.5832  -14.7263   20.5009 C   0  0  0  0  0  0
  -30.4638  -12.4554   19.4498 C   0  0  0  0  0  0
  -29.5119  -12.5095   18.2278 C   0  0  0  0  0  0
  -28.0331  -12.3240   18.6347 C   0  0  0  0  0  0
  -27.6529  -13.1897   19.8612 C   0  0  2  0  0  0
  -28.7081  -13.0095   20.9767 C   0  0  0  0  0  0
  -25.2591  -13.8110   20.5696 C   0  0  0  0  0  0
  -24.1783  -13.0393   20.9130 C   0  0  0  0  0  0
  -24.6340  -11.6869   20.8734 C   0  0  0  0  0  0
  -23.9016  -10.4263   21.0429 C   0  0  0  0  0  0
  -24.3576   -9.4183   21.9200 C   0  0  0  0  0  0
  -23.6265   -8.2210   22.0759 C   0  0  0  0  0  0
  -22.4254   -8.0250   21.3551 C   0  0  0  0  0  0
  -21.9878   -9.0218   20.4658 C   0  0  0  0  0  0
  -22.7202  -10.2099   20.3074 C   0  0  0  0  0  0
  -21.6842   -6.0713   22.5281 C   0  0  0  0  0  0
  -21.4018   -6.5627   23.8212 C   0  0  0  0  0  0
  -21.3648   -5.6788   24.9180 C   0  0  0  0  0  0
  -21.6029   -4.3044   24.7247 C   0  0  0  0  0  0
  -21.8822   -3.8134   23.4373 C   0  0  0  0  0  0
  -21.9193   -4.6940   22.3418 C   0  0  0  0  0  0
  -22.7830  -13.5246   21.1799 C   0  0  0  0  0  0
  -22.1658   -4.2127   21.0996 F   0  0  0  0  0  0
  -21.5618   -3.4527   25.7762 F   0  0  0  0  0  0
  -30.0025  -13.4650   20.4332 N   0  0  0  0  0  0
  -26.2978  -12.9219   20.3338 N   0  0  0  0  0  0
  -25.9265  -11.6404   20.5766 N   0  0  0  0  0  0
  -22.0476  -12.8265   22.0391 N   0  0  0  0  0  0
  -25.4477  -15.1789   20.4264 N   0  0  0  0  0  0
  -31.7519  -14.8832   20.1283 O   0  0  0  0  0  0
  -21.6625   -6.8850   21.4243 O   0  0  0  0  0  0
  -22.3506  -14.5513   20.6608 O   0  0  0  0  0  0
  -24.6338  -31.8554   23.1953 C   0  0  0  0  0  0
  -25.9174  -32.4736   23.8271 C   0  0  1  0  0  0
  -27.2443  -27.2603   20.1470 C   0  0  0  0  0  0
  -25.5979  -33.8536   24.2186 N   0  0  0  0  0  0
  -23.4318  -30.4696   21.5421 C   0  0  2  0  0  0
  -24.8826  -28.9060   20.1159 C   0  0  0  0  0  0
  -22.7509  -29.4575   22.4957 C   0  0  0  0  0  0
  -18.0278  -28.1310   22.8448 C   0  0  0  0  0  0
  -24.1515  -36.7281   23.2644 C   0  0  0  0  0  0
  -25.9784  -30.7629   21.3755 C   0  0  0  0  0  0
  -26.0516  -29.3825   20.7251 C   0  0  0  0  0  0
  -27.2344  -28.5763   20.7209 C   0  0  0  0  0  0
  -26.0478  -26.8406   19.5240 C   0  0  0  0  0  0
  -24.8856  -27.6400   19.5007 C   0  0  0  0  0  0
  -23.6514  -29.7936   20.1625 C   0  0  0  0  0  0
  -25.4130  -36.3020   24.0311 C   0  0  1  0  0  0
  -20.5898  -28.3649   23.1230 C   0  0  2  0  0  0
  -20.6766  -26.9363   22.5381 C   0  0  0  0  0  0
  -19.5740  -26.6335   21.5178 C   0  0  0  0  0  0
  -18.1926  -26.7844   22.1584 C   0  0  0  0  0  0
  -19.1541  -28.8784   23.2819 C   0  0  0  0  0  0
  -18.9480  -30.1391   23.8815 C   0  0  0  0  0  0
  -17.6495  -30.6529   24.0524 C   0  0  0  0  0  0
  -25.9099  -34.9421   23.5056 C   0  0  0  0  0  0
  -16.5381  -29.9022   23.6304 C   0  0  0  0  0  0
  -16.7266  -28.6433   23.0318 C   0  0  0  0  0  0
  -26.4523  -31.6583   25.0685 C   0  0  0  0  0  0
  -25.3725  -31.3769   26.1396 C   0  0  0  0  0  0
  -27.0331  -30.2949   24.6194 C   0  0  0  0  0  0
  -27.6002  -32.4396   25.7474 C   0  0  0  0  0  0
  -27.5587  -37.1790   24.8458 C   0  0  0  0  0  0
  -21.4214  -29.3015   22.3663 N   0  0  0  0  0  0
  -26.4290  -37.3717   23.9408 N   0  0  0  0  0  0
  -24.7007  -31.0474   22.0942 N   0  0  0  0  0  0
  -23.4173  -28.8162   23.3145 O   0  0  0  0  0  0
  -28.3602  -26.3917   20.1511 O   0  0  0  0  0  0
  -26.5662  -34.8900   22.4626 O   0  0  0  0  0  0
  -23.5478  -32.1445   23.7195 O   0  0  0  0  0  0
  -29.7625  -19.7822   19.7065 C   0  0  0  0  0  0
  -30.9439  -19.5776   21.7686 C   0  0  0  0  0  0
  -30.1314  -17.4817   20.6963 C   0  0  0  0  0  0
  -30.3776  -20.4488   20.7948 C   0  0  0  0  0  0
  -29.6490  -18.3470   19.6469 C   0  0  0  0  0  0
  -30.8318  -18.1488   21.7443 C   0  0  0  0  0  0
  -30.1256  -23.0345   20.6755 C   0  0  0  0  0  0
  -29.6785  -16.0044   20.8734 C   0  0  0  0  0  0
  -32.7584  -16.8854   24.6189 C   0  0  0  0  0  0
  -28.8094  -23.6332   20.0585 C   0  0  0  0  0  0
  -32.6022  -17.6380   23.2920 C   0  0  0  0  0  0
  -28.1934  -25.0006   20.6887 C   0  0  0  0  0  0
  -28.4973  -15.8914   21.3198 N   0  0  0  0  0  0
  -30.6567  -21.8589   20.9452 N   0  0  0  0  0  0
  -29.0053  -17.8226   18.5186 N   0  0  0  0  0  0
  -31.2914  -17.3816   22.7948 O   0  0  0  0  0  0
  -31.4877  -12.6337   19.1196 H   0  0  0  0  0  0
  -30.4787  -11.4575   19.8936 H   0  0  0  0  0  0
  -29.7945  -11.7438   17.5056 H   0  0  0  0  0  0
  -29.6283  -13.4659   17.7167 H   0  0  0  0  0  0
  -27.8799  -11.2704   18.8695 H   0  0  0  0  0  0
  -27.3755  -12.5423   17.7930 H   0  0  0  0  0  0
  -27.6701  -14.2206   19.5087 H   0  0  0  0  0  0
  -28.7650  -11.9554   21.2521 H   0  0  0  0  0  0
  -28.4362  -13.5106   21.9043 H   0  0  0  0  0  0
  -25.2723   -9.5644   22.4773 H   0  0  0  0  0  0
  -23.9961   -7.4613   22.7483 H   0  0  0  0  0  0
  -21.0806   -8.8762   19.8986 H   0  0  0  0  0  0
  -22.3681  -10.9635   19.6177 H   0  0  0  0  0  0
  -21.2021   -7.6136   23.9717 H   0  0  0  0  0  0
  -21.1463   -6.0518   25.9078 H   0  0  0  0  0  0
  -22.0621   -2.7602   23.2894 H   0  0  0  0  0  0
  -22.4095  -11.9893   22.4728 H   0  0  0  0  0  0
  -21.1121  -13.1340   22.2665 H   0  0  0  0  0  0
  -24.7347  -15.8642   20.6471 H   0  0  0  0  0  0
  -26.3865  -15.5699   20.4014 H   0  0  0  0  0  0
  -26.7286  -32.5365   23.1046 H   0  0  0  0  0  0
  -25.0068  -33.9665   25.0277 H   0  0  0  0  0  0
  -22.7267  -31.2889   21.3883 H   0  0  0  0  0  0
  -23.3745  -35.9667   23.3292 H   0  0  0  0  0  0
  -24.3614  -36.8934   22.2082 H   0  0  0  0  0  0
  -23.7323  -37.6493   23.6681 H   0  0  0  0  0  0
  -26.1250  -31.5177   20.6024 H   0  0  0  0  0  0
  -26.8528  -30.8062   22.0113 H   0  0  0  0  0  0
  -28.1342  -28.9451   21.1930 H   0  0  0  0  0  0
  -26.0091  -25.8652   19.0603 H   0  0  0  0  0  0
  -23.9942  -27.2668   19.0148 H   0  0  0  0  0  0
  -23.7690  -30.5659   19.4023 H   0  0  0  0  0  0
  -22.7691  -29.2283   19.8607 H   0  0  0  0  0  0
  -25.1311  -36.1857   25.0807 H   0  0  0  0  0  0
  -20.9926  -28.3249   24.1358 H   0  0  0  0  0  0
  -20.5675  -26.2268   23.3614 H   0  0  0  0  0  0
  -21.6642  -26.7395   22.1190 H   0  0  0  0  0  0
  -19.6955  -25.6258   21.1193 H   0  0  0  0  0  0
  -19.6669  -27.3135   20.6716 H   0  0  0  0  0  0
  -17.4207  -26.6554   21.3982 H   0  0  0  0  0  0
  -18.0299  -25.9969   22.8954 H   0  0  0  0  0  0
  -19.8001  -30.7163   24.2152 H   0  0  0  0  0  0
  -17.5075  -31.6193   24.5129 H   0  0  0  0  0  0
  -15.5369  -30.2893   23.7654 H   0  0  0  0  0  0
  -15.8669  -28.0748   22.7043 H   0  0  0  0  0  0
  -24.5855  -30.7163   25.7727 H   0  0  0  0  0  0
  -24.8988  -32.2980   26.4785 H   0  0  0  0  0  0
  -25.8052  -30.8962   27.0181 H   0  0  0  0  0  0
  -26.2876  -29.6736   24.1216 H   0  0  0  0  0  0
  -27.3909  -29.7164   25.4728 H   0  0  0  0  0  0
  -27.8809  -30.4137   23.9450 H   0  0  0  0  0  0
  -27.2488  -33.3677   26.1994 H   0  0  0  0  0  0
  -28.3836  -32.7057   25.0362 H   0  0  0  0  0  0
  -28.0632  -31.8619   26.5471 H   0  0  0  0  0  0
  -28.2554  -38.0145   24.7475 H   0  0  0  0  0  0
  -28.1141  -36.2640   24.6276 H   0  0  0  0  0  0
  -27.2311  -37.1412   25.8875 H   0  0  0  0  0  0
  -20.9419  -29.8736   21.6861 H   0  0  0  0  0  0
  -26.0160  -38.2791   24.1371 H   0  0  0  0  0  0
  -29.3863  -20.3800   18.8891 H   0  0  0  0  0  0
  -31.4630  -20.0430   22.5929 H   0  0  0  0  0  0
  -30.7634  -23.8788   20.9496 H   0  0  0  0  0  0
  -33.7770  -16.9618   25.0037 H   0  0  0  0  0  0
  -32.5168  -15.8268   24.5192 H   0  0  0  0  0  0
  -32.0956  -17.3024   25.3764 H   0  0  0  0  0  0
  -28.0541  -22.8513   20.1491 H   0  0  0  0  0  0
  -28.9560  -23.7550   18.9881 H   0  0  0  0  0  0
  -33.3368  -17.2889   22.5651 H   0  0  0  0  0  0
  -32.8040  -18.6929   23.4689 H   0  0  0  0  0  0
  -28.4792  -25.0392   21.7411 H   0  0  0  0  0  0
  -27.1224  -24.8011   20.7331 H   0  0  0  0  0  0
  -28.0860  -16.8036   21.4711 H   0  0  0  0  0  0
  -28.8623  -18.4182   17.7093 H   0  0  0  0  0  0
  -29.1658  -16.8568   18.2537 H   0  0  0  0  0  0
  1 25  1  0  0  0
  1 30  2  0  0  0
  1 78  1  0  0  0
  2  3  1  0  0  0
  2 25  1  0  0  0
  2 87  1  0  0  0
  2 88  1  0  0  0
  3  4  1  0  0  0
  3 89  1  0  0  0
  3 90  1  0  0  0
  4  5  1  0  0  0
  4 91  1  0  0  0
  4 92  1  0  0  0
  5  6  1  0  0  0
  5 26  1  0  0  0
  5 93  1  0  0  0
  6 25  1  0  0  0
  6 94  1  0  0  0
  6 95  1  0  0  0
  7  8  2  0  0  0
  7 26  1  0  0  0
  7 29  1  0  0  0
  8  9  1  0  0  0
  8 22  1  0  0  0
  9 10  1  0  0  0
  9 27  2  0  0  0
 10 11  2  0  0  0
 10 15  1  0  0  0
 11 12  1  0  0  0
 11 96  1  0  0  0
 12 13  2  0  0  0
 12 97  1  0  0  0
 13 14  1  0  0  0
 13 31  1  0  0  0
 14 15  2  0  0  0
 14 98  1  0  0  0
 15 99  1  0  0  0
 16 17  2  0  0  0
 16 21  1  0  0  0
 16 31  1  0  0  0
 17 18  1  0  0  0
 17100  1  0  0  0
 18 19  2  0  0  0
 18101  1  0  0  0
 19 20  1  0  0  0
 19 24  1  0  0  0
 20 21  2  0  0  0
 20102  1  0  0  0
 21 23  1  0  0  0
 22 28  1  0  0  0
 22 32  2  0  0  0
 26 27  1  0  0  0
 28103  1  0  0  0
 28104  1  0  0  0
 29105  1  0  0  0
 29106  1  0  0  0
 33 34  1  0  0  0
 33 66  1  0  0  0
 33 70  2  0  0  0
 34 36  1  0  0  0
 34 59  1  0  0  0
 34107  1  0  0  0
 35 44  2  0  0  0
 35 45  1  0  0  0
 35 68  1  0  0  0
 36 56  1  0  0  0
 36108  1  0  0  0
 37 39  1  0  0  0
 37 47  1  0  0  0
 37 66  1  0  0  0
 37109  1  0  0  0
 38 43  2  0  0  0
 38 46  1  0  0  0
 38 47  1  0  0  0
 39 64  1  0  0  0
 39 67  2  0  0  0
 40 52  1  0  0  0
 40 53  2  0  0  0
 40 58  1  0  0  0
 41110  1  0  0  0
 41111  1  0  0  0
 41112  1  0  0  0
 41 48  1  0  0  0
 42 43  1  0  0  0
 42 66  1  0  0  0
 42113  1  0  0  0
 42114  1  0  0  0
 43 44  1  0  0  0
 44115  1  0  0  0
 45 46  2  0  0  0
 45116  1  0  0  0
 46117  1  0  0  0
 47118  1  0  0  0
 47119  1  0  0  0
 48 56  1  0  0  0
 48 65  1  0  0  0
 48120  1  0  0  0
 49 50  1  0  0  0
 49 53  1  0  0  0
 49 64  1  0  0  0
 49121  1  0  0  0
 50 51  1  0  0  0
 50122  1  0  0  0
 50123  1  0  0  0
 51 52  1  0  0  0
 51124  1  0  0  0
 51125  1  0  0  0
 52126  1  0  0  0
 52127  1  0  0  0
 53 54  1  0  0  0
 54 55  2  0  0  0
 54128  1  0  0  0
 55 57  1  0  0  0
 55129  1  0  0  0
 56 69  2  0  0  0
 57 58  2  0  0  0
 57130  1  0  0  0
 58131  1  0  0  0
 59 60  1  0  0  0
 59 61  1  0  0  0
 59 62  1  0  0  0
 60132  1  0  0  0
 60133  1  0  0  0
 60134  1  0  0  0
 61135  1  0  0  0
 61136  1  0  0  0
 61137  1  0  0  0
 62138  1  0  0  0
 62139  1  0  0  0
 62140  1  0  0  0
 63 65  1  0  0  0
 63141  1  0  0  0
 63142  1  0  0  0
 63143  1  0  0  0
 64144  1  0  0  0
 65145  1  0  0  0
 68 82  1  0  0  0
 71 74  2  0  0  0
 71 75  1  0  0  0
 71146  1  0  0  0
 72 74  1  0  0  0
 72 76  2  0  0  0
 72147  1  0  0  0
 73 75  2  0  0  0
 73 76  1  0  0  0
 73 78  1  0  0  0
 74 84  1  0  0  0
 75 85  1  0  0  0
 76 86  1  0  0  0
 77 80  1  0  0  0
 77 84  2  0  0  0
 77148  1  0  0  0
 78 83  2  0  0  0
 79 81  1  0  0  0
 79149  1  0  0  0
 79150  1  0  0  0
 79151  1  0  0  0
 80 82  1  0  0  0
 80152  1  0  0  0
 80153  1  0  0  0
 81 86  1  0  0  0
 81154  1  0  0  0
 81155  1  0  0  0
 82156  1  0  0  0
 82157  1  0  0  0
 83158  1  0  0  0
 85159  1  0  0  0
 85160  1  0  0  0
M  ISO  4   1 100  68 101  78 100  82 101
M  END
> <chiral flag>
0

> <version>
0

> <s_m_source_file>
/data/baiqing/PycharmProjects/Reinvent-master-3.2/result/LINK_invent/BTK/process_docking_weight1_custom_product_contain_oxygen_bond_distance_aromatic_linkinvent_7_9_3/rearranged_h_0110.sdf

> <i_m_source_file_index>
29

> <r_mmod_Potential_Energy-OPLS-2005>
525.595092773438

> <r_mmod_Stretch_Energy-OPLS-2005>
126.170448303223

> <r_mmod_Bend_Energy-OPLS-2005>
271.493682861328

> <r_mmod_Torsional_Energy-OPLS-2005>
262.556396484375

> <r_mmod_Improper_Torsional_Energy-OPLS-2005>
10.7749137878418

> <r_mmod_Van_der_Waal_Energy-OPLS-2005>
148.380279541016

> <r_mmod_Electrostatic_Energy-OPLS-2005>
-163.216369628906

> <r_mmod_Solvation_Energy-OPLS-2005>
-205.783752441406

> <b_mmod_Minimization_Converged-OPLS-2005>
0

> <r_mmod_RMS_Derivative-OPLS-2005>
5.39699649810791

$$$$
30
                    3D
 Structure written by MMmdl.
164173  0  0  1  0            999 V2000
  -30.4871  -15.0521   20.4189 C   0  0  0  0  0  0
  -30.4486  -12.6741   19.4852 C   0  0  0  0  0  0
  -29.5225  -12.5442   18.2542 C   0  0  0  0  0  0
  -28.0627  -12.3047   18.6827 C   0  0  0  0  0  0
  -27.6229  -13.2519   19.8292 C   0  0  2  0  0  0
  -28.6647  -13.3336   20.9628 C   0  0  0  0  0  0
  -25.2438  -13.8198   20.5723 C   0  0  0  0  0  0
  -24.1785  -13.0429   20.9254 C   0  0  0  0  0  0
  -24.6402  -11.6920   20.8769 C   0  0  0  0  0  0
  -23.9083  -10.4305   21.0452 C   0  0  0  0  0  0
  -24.3639   -9.4216   21.9223 C   0  0  0  0  0  0
  -23.6324   -8.2242   22.0783 C   0  0  0  0  0  0
  -22.4295   -8.0299   21.3578 C   0  0  0  0  0  0
  -21.9951   -9.0270   20.4673 C   0  0  0  0  0  0
  -22.7257  -10.2152   20.3093 C   0  0  0  0  0  0
  -21.6864   -6.0751   22.5289 C   0  0  0  0  0  0
  -21.4011   -6.5648   23.8219 C   0  0  0  0  0  0
  -21.3657   -5.6808   24.9186 C   0  0  0  0  0  0
  -21.6048   -4.3071   24.7241 C   0  0  0  0  0  0
  -21.8810   -3.8163   23.4357 C   0  0  0  0  0  0
  -21.9205   -4.6982   22.3420 C   0  0  0  0  0  0
  -22.7800  -13.5196   21.1911 C   0  0  0  0  0  0
  -22.1664   -4.2161   21.1004 F   0  0  0  0  0  0
  -21.5642   -3.4552   25.7744 F   0  0  0  0  0  0
  -29.9178  -13.7790   20.3385 N   0  0  0  0  0  0
  -26.2868  -12.9443   20.3247 N   0  0  0  0  0  0
  -25.9322  -11.6565   20.5735 N   0  0  0  0  0  0
  -22.0458  -12.8174   22.0456 N   0  0  0  0  0  0
  -25.4075  -15.1944   20.4104 N   0  0  0  0  0  0
  -31.7123  -15.1120   20.2591 O   0  0  0  0  0  0
  -21.6653   -6.8892   21.4256 O   0  0  0  0  0  0
  -22.3476  -14.5520   20.6774 O   0  0  0  0  0  0
  -24.6453  -31.8434   23.1888 C   0  0  0  0  0  0
  -25.9226  -32.4691   23.8286 C   0  0  1  0  0  0
  -27.1990  -27.0825   20.1481 C   0  0  0  0  0  0
  -25.5975  -33.8499   24.2208 N   0  0  0  0  0  0
  -23.4518  -30.4604   21.5352 C   0  0  2  0  0  0
  -24.9011  -28.8856   20.1131 C   0  0  0  0  0  0
  -22.7584  -29.4518   22.4849 C   0  0  0  0  0  0
  -18.0309  -28.1370   22.8477 C   0  0  0  0  0  0
  -24.1508  -36.7224   23.2643 C   0  0  0  0  0  0
  -26.0130  -30.6967   21.4009 C   0  0  0  0  0  0
  -26.0796  -29.3045   20.7401 C   0  0  0  0  0  0
  -27.2272  -28.4173   20.7442 C   0  0  0  0  0  0
  -25.9933  -26.7858   19.4759 C   0  0  0  0  0  0
  -24.8739  -27.6429   19.4681 C   0  0  0  0  0  0
  -23.6828  -29.7945   20.1530 C   0  0  0  0  0  0
  -25.4149  -36.3034   24.0308 C   0  0  1  0  0  0
  -20.5931  -28.3717   23.1231 C   0  0  2  0  0  0
  -20.6804  -26.9427   22.5409 C   0  0  0  0  0  0
  -19.5763  -26.6383   21.5226 C   0  0  0  0  0  0
  -18.1937  -26.7922   22.1626 C   0  0  0  0  0  0
  -19.1573  -28.8862   23.2829 C   0  0  0  0  0  0
  -18.9478  -30.1455   23.8848 C   0  0  0  0  0  0
  -17.6479  -30.6580   24.0557 C   0  0  0  0  0  0
  -25.9080  -34.9409   23.5066 C   0  0  0  0  0  0
  -16.5362  -29.9073   23.6341 C   0  0  0  0  0  0
  -16.7299  -28.6493   23.0375 C   0  0  0  0  0  0
  -26.4558  -31.6548   25.0719 C   0  0  0  0  0  0
  -25.3705  -31.3741   26.1370 C   0  0  0  0  0  0
  -27.0444  -30.2937   24.6327 C   0  0  0  0  0  0
  -27.6098  -32.4331   25.7472 C   0  0  0  0  0  0
  -27.5586  -37.1764   24.8462 C   0  0  0  0  0  0
  -21.4287  -29.3029   22.3581 N   0  0  0  0  0  0
  -26.4318  -37.3749   23.9392 N   0  0  0  0  0  0
  -24.7228  -31.0220   22.0951 N   0  0  0  0  0  0
  -23.4215  -28.8083   23.3028 O   0  0  0  0  0  0
  -28.2363  -26.0694   20.2437 O   0  0  0  0  0  0
  -26.5660  -34.8894   22.4640 O   0  0  0  0  0  0
  -23.5555  -32.1381   23.7042 O   0  0  0  0  0  0
  -29.9719  -20.5146   21.7047 C   0  0  0  0  0  0
  -30.5676  -18.1032   21.8291 C   0  0  0  0  0  0
  -29.1148  -18.9433   20.0846 C   0  0  0  0  0  0
  -30.6201  -19.4257   22.3500 C   0  0  0  0  0  0
  -29.2032  -20.3797   20.5306 C   0  0  0  0  0  0
  -29.8004  -17.7504   20.6926 C   0  0  0  0  0  0
  -25.6367  -22.1761   20.0448 C   0  0  0  0  0  0
  -31.3453  -19.6540   23.6250 C   0  0  0  0  0  0
  -26.1060  -22.2453   21.4985 C   0  0  0  0  0  0
  -26.2890  -21.1322   19.1370 C   0  0  0  0  0  0
  -27.4471  -22.9820   21.7620 C   0  0  0  0  0  0
  -27.7616  -21.4248   18.7885 C   0  0  0  0  0  0
  -28.4711  -23.0940   20.6074 C   0  0  2  0  0  0
  -28.1690  -24.5630   19.7593 C   0  0  0  0  0  0
  -31.4019  -20.7490   24.2629 N   0  0  0  0  0  0
  -28.6275  -21.6528   19.9494 N   0  0  0  0  0  0
  -29.6626  -16.2351   20.3569 N   0  0  0  0  0  0
  -24.7317  -22.9041   19.6315 O   0  0  0  0  0  0
  -31.4683  -12.8794   19.1581 H   0  0  0  0  0  0
  -30.4955  -11.7422   20.0486 H   0  0  0  0  0  0
  -29.8594  -11.7364   17.6027 H   0  0  0  0  0  0
  -29.5824  -13.4602   17.6647 H   0  0  0  0  0  0
  -27.9793  -11.2670   19.0067 H   0  0  0  0  0  0
  -27.3978  -12.4136   17.8254 H   0  0  0  0  0  0
  -27.5635  -14.2386   19.3707 H   0  0  0  0  0  0
  -28.7905  -12.3741   21.4661 H   0  0  0  0  0  0
  -28.3464  -14.0486   21.7242 H   0  0  0  0  0  0
  -25.2794   -9.5677   22.4776 H   0  0  0  0  0  0
  -24.0052   -7.4625   22.7478 H   0  0  0  0  0  0
  -21.0907   -8.8789   19.8943 H   0  0  0  0  0  0
  -22.3759  -10.9704   19.6195 H   0  0  0  0  0  0
  -21.1963   -7.6144   23.9714 H   0  0  0  0  0  0
  -21.1493   -6.0545   25.9089 H   0  0  0  0  0  0
  -22.0585   -2.7624   23.2858 H   0  0  0  0  0  0
  -22.4103  -11.9834   22.4814 H   0  0  0  0  0  0
  -21.1063  -13.1157   22.2640 H   0  0  0  0  0  0
  -24.6284  -15.8357   20.5121 H   0  0  0  0  0  0
  -26.2356  -15.6441   20.0456 H   0  0  0  0  0  0
  -26.7249  -32.5277   23.0969 H   0  0  0  0  0  0
  -25.0133  -33.9646   25.0358 H   0  0  0  0  0  0
  -22.7561  -31.2862   21.3786 H   0  0  0  0  0  0
  -23.3814  -35.9506   23.3293 H   0  0  0  0  0  0
  -24.3584  -36.8894   22.2064 H   0  0  0  0  0  0
  -23.7222  -37.6394   23.6689 H   0  0  0  0  0  0
  -26.1781  -31.4520   20.6321 H   0  0  0  0  0  0
  -26.8777  -30.7443   22.0511 H   0  0  0  0  0  0
  -28.1191  -28.7287   21.2703 H   0  0  0  0  0  0
  -25.8514  -25.8466   18.9686 H   0  0  0  0  0  0
  -23.9706  -27.3254   18.9689 H   0  0  0  0  0  0
  -23.8279  -30.5712   19.4013 H   0  0  0  0  0  0
  -22.7977  -29.2396   19.8354 H   0  0  0  0  0  0
  -25.1338  -36.1892   25.0804 H   0  0  0  0  0  0
  -20.9979  -28.3319   24.1373 H   0  0  0  0  0  0
  -20.5752  -26.2321   23.3614 H   0  0  0  0  0  0
  -21.6654  -26.7447   22.1167 H   0  0  0  0  0  0
  -19.6936  -25.6302   21.1240 H   0  0  0  0  0  0
  -19.6704  -27.3196   20.6753 H   0  0  0  0  0  0
  -17.4226  -26.6678   21.4019 H   0  0  0  0  0  0
  -18.0312  -26.0053   22.9003 H   0  0  0  0  0  0
  -19.7951  -30.7281   24.2197 H   0  0  0  0  0  0
  -17.5038  -31.6262   24.5171 H   0  0  0  0  0  0
  -15.5365  -30.2971   23.7693 H   0  0  0  0  0  0
  -15.8691  -28.0797   22.7130 H   0  0  0  0  0  0
  -24.5899  -30.7094   25.7642 H   0  0  0  0  0  0
  -24.8862  -32.2920   26.4698 H   0  0  0  0  0  0
  -25.7949  -30.8954   27.0200 H   0  0  0  0  0  0
  -26.3081  -29.6608   24.1343 H   0  0  0  0  0  0
  -27.4071  -29.7289   25.4927 H   0  0  0  0  0  0
  -27.8996  -30.4186   23.9680 H   0  0  0  0  0  0
  -27.2719  -33.3687   26.1937 H   0  0  0  0  0  0
  -28.3932  -32.6791   25.0286 H   0  0  0  0  0  0
  -28.0708  -31.8509   26.5462 H   0  0  0  0  0  0
  -28.2581  -38.0085   24.7539 H   0  0  0  0  0  0
  -28.1124  -36.2608   24.6300 H   0  0  0  0  0  0
  -27.2264  -37.1406   25.8855 H   0  0  0  0  0  0
  -20.9503  -29.8758   21.6754 H   0  0  0  0  0  0
  -26.0196  -38.2809   24.1459 H   0  0  0  0  0  0
  -30.0733  -21.4983   22.1346 H   0  0  0  0  0  0
  -31.0820  -17.3227   22.3745 H   0  0  0  0  0  0
  -28.4830  -18.7307   19.2355 H   0  0  0  0  0  0
  -31.8621  -18.7852   24.0411 H   0  0  0  0  0  0
  -26.1901  -21.2153   21.8432 H   0  0  0  0  0  0
  -25.3191  -22.6974   22.1011 H   0  0  0  0  0  0
  -25.7120  -21.0821   18.2141 H   0  0  0  0  0  0
  -26.1969  -20.1528   19.6073 H   0  0  0  0  0  0
  -27.9345  -22.4506   22.5769 H   0  0  0  0  0  0
  -27.2490  -23.9719   22.1696 H   0  0  0  0  0  0
  -27.8085  -22.2968   18.1345 H   0  0  0  0  0  0
  -28.1574  -20.6135   18.1791 H   0  0  0  0  0  0
  -29.4374  -23.2878   21.0758 H   0  0  0  0  0  0
  -27.2277  -24.4059   19.2458 H   0  0  0  0  0  0
  -28.8960  -24.5617   18.9452 H   0  0  0  0  0  0
  -30.8845  -21.4889   23.8017 H   0  0  0  0  0  0
  -28.7139  -15.9834   20.1164 H   0  0  0  0  0  0
  1 25  1  0  0  0
  1 30  2  0  0  0
  1 87  1  0  0  0
  2  3  1  0  0  0
  2 25  1  0  0  0
  2 89  1  0  0  0
  2 90  1  0  0  0
  3  4  1  0  0  0
  3 91  1  0  0  0
  3 92  1  0  0  0
  4  5  1  0  0  0
  4 93  1  0  0  0
  4 94  1  0  0  0
  5  6  1  0  0  0
  5 26  1  0  0  0
  5 95  1  0  0  0
  6 25  1  0  0  0
  6 96  1  0  0  0
  6 97  1  0  0  0
  7  8  2  0  0  0
  7 26  1  0  0  0
  7 29  1  0  0  0
  8  9  1  0  0  0
  8 22  1  0  0  0
  9 10  1  0  0  0
  9 27  2  0  0  0
 10 11  2  0  0  0
 10 15  1  0  0  0
 11 12  1  0  0  0
 11 98  1  0  0  0
 12 13  2  0  0  0
 12 99  1  0  0  0
 13 14  1  0  0  0
 13 31  1  0  0  0
 14 15  2  0  0  0
 14100  1  0  0  0
 15101  1  0  0  0
 16 17  2  0  0  0
 16 21  1  0  0  0
 16 31  1  0  0  0
 17 18  1  0  0  0
 17102  1  0  0  0
 18 19  2  0  0  0
 18103  1  0  0  0
 19 20  1  0  0  0
 19 24  1  0  0  0
 20 21  2  0  0  0
 20104  1  0  0  0
 21 23  1  0  0  0
 22 28  1  0  0  0
 22 32  2  0  0  0
 26 27  1  0  0  0
 28105  1  0  0  0
 28106  1  0  0  0
 29107  1  0  0  0
 29108  1  0  0  0
 33 34  1  0  0  0
 33 66  1  0  0  0
 33 70  2  0  0  0
 34 36  1  0  0  0
 34 59  1  0  0  0
 34109  1  0  0  0
 35 44  2  0  0  0
 35 45  1  0  0  0
 35 68  1  0  0  0
 36 56  1  0  0  0
 36110  1  0  0  0
 37 39  1  0  0  0
 37 47  1  0  0  0
 37 66  1  0  0  0
 37111  1  0  0  0
 38 43  2  0  0  0
 38 46  1  0  0  0
 38 47  1  0  0  0
 39 64  1  0  0  0
 39 67  2  0  0  0
 40 52  1  0  0  0
 40 53  2  0  0  0
 40 58  1  0  0  0
 41112  1  0  0  0
 41113  1  0  0  0
 41114  1  0  0  0
 41 48  1  0  0  0
 42 43  1  0  0  0
 42 66  1  0  0  0
 42115  1  0  0  0
 42116  1  0  0  0
 43 44  1  0  0  0
 44117  1  0  0  0
 45 46  2  0  0  0
 45118  1  0  0  0
 46119  1  0  0  0
 47120  1  0  0  0
 47121  1  0  0  0
 48 56  1  0  0  0
 48 65  1  0  0  0
 48122  1  0  0  0
 49 50  1  0  0  0
 49 53  1  0  0  0
 49 64  1  0  0  0
 49123  1  0  0  0
 50 51  1  0  0  0
 50124  1  0  0  0
 50125  1  0  0  0
 51 52  1  0  0  0
 51126  1  0  0  0
 51127  1  0  0  0
 52128  1  0  0  0
 52129  1  0  0  0
 53 54  1  0  0  0
 54 55  2  0  0  0
 54130  1  0  0  0
 55 57  1  0  0  0
 55131  1  0  0  0
 56 69  2  0  0  0
 57 58  2  0  0  0
 57132  1  0  0  0
 58133  1  0  0  0
 59 60  1  0  0  0
 59 61  1  0  0  0
 59 62  1  0  0  0
 60134  1  0  0  0
 60135  1  0  0  0
 60136  1  0  0  0
 61137  1  0  0  0
 61138  1  0  0  0
 61139  1  0  0  0
 62140  1  0  0  0
 62141  1  0  0  0
 62142  1  0  0  0
 63 65  1  0  0  0
 63143  1  0  0  0
 63144  1  0  0  0
 63145  1  0  0  0
 64146  1  0  0  0
 65147  1  0  0  0
 68 84  1  0  0  0
 71 74  2  0  0  0
 71 75  1  0  0  0
 71148  1  0  0  0
 72 74  1  0  0  0
 72 76  2  0  0  0
 72149  1  0  0  0
 73 75  2  0  0  0
 73 76  1  0  0  0
 73150  1  0  0  0
 74 78  1  0  0  0
 75 86  1  0  0  0
 76 87  1  0  0  0
 77 79  1  0  0  0
 77 80  1  0  0  0
 77 88  2  0  0  0
 78 85  2  0  0  0
 78151  1  0  0  0
 79 81  1  0  0  0
 79152  1  0  0  0
 79153  1  0  0  0
 80 82  1  0  0  0
 80154  1  0  0  0
 80155  1  0  0  0
 81 83  1  0  0  0
 81156  1  0  0  0
 81157  1  0  0  0
 82 86  1  0  0  0
 82158  1  0  0  0
 82159  1  0  0  0
 83 84  1  0  0  0
 83 86  1  0  0  0
 83160  1  0  0  0
 84161  1  0  0  0
 84162  1  0  0  0
 85163  1  0  0  0
 87164  1  0  0  0
M  ISO  4   1 100  68 101  84 101  87 100
M  END
> <chiral flag>
0

> <version>
0

> <s_m_source_file>
/data/baiqing/PycharmProjects/Reinvent-master-3.2/result/LINK_invent/BTK/process_docking_weight1_custom_product_contain_oxygen_bond_distance_aromatic_linkinvent_7_9_3/rearranged_h_0110.sdf

> <i_m_source_file_index>
30

> <r_mmod_Potential_Energy-OPLS-2005>
650.930969238281

> <r_mmod_Stretch_Energy-OPLS-2005>
322.839508056641

> <r_mmod_Bend_Energy-OPLS-2005>
305.602752685547

> <r_mmod_Torsional_Energy-OPLS-2005>
240.823699951172

> <r_mmod_Improper_Torsional_Energy-OPLS-2005>
9.9197473526001

> <r_mmod_Van_der_Waal_Energy-OPLS-2005>
133.633560180664

> <r_mmod_Electrostatic_Energy-OPLS-2005>
-370.68505859375

> <r_mmod_Solvation_Energy-OPLS-2005>
-257.128387451172

> <b_mmod_Minimization_Converged-OPLS-2005>
0

> <r_mmod_RMS_Derivative-OPLS-2005>
4.57265281677246

$$$$
31
                    3D
 Structure written by MMmdl.
161169  0  0  1  0            999 V2000
  -30.6279  -14.7557   20.4407 C   0  0  0  0  0  0
  -30.4279  -12.4646   19.4632 C   0  0  0  0  0  0
  -29.5017  -12.5043   18.2267 C   0  0  0  0  0  0
  -28.0312  -12.3069   18.6417 C   0  0  0  0  0  0
  -27.6347  -13.2115   19.8362 C   0  0  2  0  0  0
  -28.6812  -13.1374   20.9660 C   0  0  0  0  0  0
  -25.2513  -13.8146   20.5698 C   0  0  0  0  0  0
  -24.1763  -13.0436   20.9172 C   0  0  0  0  0  0
  -24.6316  -11.6906   20.8700 C   0  0  0  0  0  0
  -23.8995  -10.4298   21.0396 C   0  0  0  0  0  0
  -24.3578   -9.4235   21.9183 C   0  0  0  0  0  0
  -23.6289   -8.2249   22.0751 C   0  0  0  0  0  0
  -22.4272   -8.0270   21.3540 C   0  0  0  0  0  0
  -21.9884   -9.0222   20.4638 C   0  0  0  0  0  0
  -22.7169  -10.2122   20.3057 C   0  0  0  0  0  0
  -21.6846   -6.0728   22.5292 C   0  0  0  0  0  0
  -21.3995   -6.5640   23.8221 C   0  0  0  0  0  0
  -21.3664   -5.6796   24.9182 C   0  0  0  0  0  0
  -21.6061   -4.3057   24.7235 C   0  0  0  0  0  0
  -21.8815   -3.8144   23.4357 C   0  0  0  0  0  0
  -21.9195   -4.6958   22.3418 C   0  0  0  0  0  0
  -22.7801  -13.5240   21.1917 C   0  0  0  0  0  0
  -22.1669   -4.2164   21.0983 F   0  0  0  0  0  0
  -21.5644   -3.4538   25.7734 F   0  0  0  0  0  0
  -29.9762  -13.5317   20.3908 N   0  0  0  0  0  0
  -26.2879  -12.9301   20.3190 N   0  0  0  0  0  0
  -25.9224  -11.6467   20.5643 N   0  0  0  0  0  0
  -22.0458  -12.8200   22.0452 N   0  0  0  0  0  0
  -25.4446  -15.1856   20.4304 N   0  0  0  0  0  0
  -31.8411  -14.7325   20.2535 O   0  0  0  0  0  0
  -21.6643   -6.8860   21.4249 O   0  0  0  0  0  0
  -22.3483  -14.5571   20.6819 O   0  0  0  0  0  0
  -24.6278  -31.8605   23.1985 C   0  0  0  0  0  0
  -25.9120  -32.4770   23.8363 C   0  0  1  0  0  0
  -27.2298  -27.3184   20.1218 C   0  0  0  0  0  0
  -25.5941  -33.8574   24.2285 N   0  0  0  0  0  0
  -23.4238  -30.4788   21.5420 C   0  0  2  0  0  0
  -24.8731  -28.9304   20.1110 C   0  0  0  0  0  0
  -22.7500  -29.4618   22.4945 C   0  0  0  0  0  0
  -18.0286  -28.1371   22.8485 C   0  0  0  0  0  0
  -24.1494  -36.7301   23.2643 C   0  0  0  0  0  0
  -25.9632  -30.7894   21.3734 C   0  0  0  0  0  0
  -26.0407  -29.4165   20.7134 C   0  0  0  0  0  0
  -27.2280  -28.6252   20.7011 C   0  0  0  0  0  0
  -26.0427  -26.8780   19.5014 C   0  0  0  0  0  0
  -24.8757  -27.6674   19.4931 C   0  0  0  0  0  0
  -23.6397  -29.8097   20.1578 C   0  0  0  0  0  0
  -25.4117  -36.3083   24.0328 C   0  0  1  0  0  0
  -20.5895  -28.3691   23.1265 C   0  0  2  0  0  0
  -20.6776  -26.9421   22.5394 C   0  0  0  0  0  0
  -19.5756  -26.6381   21.5203 C   0  0  0  0  0  0
  -18.1933  -26.7907   22.1621 C   0  0  0  0  0  0
  -19.1548  -28.8847   23.2859 C   0  0  0  0  0  0
  -18.9470  -30.1444   23.8891 C   0  0  0  0  0  0
  -17.6473  -30.6572   24.0557 C   0  0  0  0  0  0
  -25.9060  -34.9449   23.5111 C   0  0  0  0  0  0
  -16.5361  -29.9077   23.6314 C   0  0  0  0  0  0
  -16.7278  -28.6484   23.0349 C   0  0  0  0  0  0
  -26.4500  -31.6579   25.0737 C   0  0  0  0  0  0
  -25.3711  -31.3698   26.1444 C   0  0  0  0  0  0
  -27.0349  -30.2994   24.6203 C   0  0  0  0  0  0
  -27.6082  -32.4309   25.7493 C   0  0  0  0  0  0
  -27.5586  -37.1803   24.8465 C   0  0  0  0  0  0
  -21.4215  -29.3042   22.3680 N   0  0  0  0  0  0
  -26.4300  -37.3771   23.9405 N   0  0  0  0  0  0
  -24.6903  -31.0608   22.0943 N   0  0  0  0  0  0
  -23.4214  -28.8183   23.3057 O   0  0  0  0  0  0
  -28.3381  -26.4647   20.1194 O   0  0  0  0  0  0
  -26.5637  -34.8917   22.4678 O   0  0  0  0  0  0
  -23.5432  -32.1468   23.7265 O   0  0  0  0  0  0
  -29.4240  -18.7896   20.4922 C   0  0  0  0  0  0
  -31.9891  -19.4503   19.8181 C   0  0  0  0  0  0
  -30.3310  -17.6549   20.2907 C   0  0  0  0  0  0
  -31.6220  -18.0782   19.8056 C   0  0  0  0  0  0
  -29.7441  -20.1983   20.3581 C   0  0  0  0  0  0
  -31.0927  -20.5022   20.0895 C   0  0  0  0  0  0
  -29.7986  -16.1657   20.5610 C   0  0  0  0  0  0
  -28.5308  -23.8289   20.1437 C   0  0  0  0  0  0
  -33.6062  -17.6981   18.1197 C   0  0  0  0  0  0
  -32.7476  -22.1559   20.5414 C   0  0  0  0  0  0
  -32.6452  -17.1317   19.1817 C   0  0  0  0  0  0
  -28.2161  -25.1986   20.8852 C   0  0  0  0  0  0
  -28.9518  -22.5573   21.0025 C   0  0  0  0  0  0
  -28.5856  -16.1164   20.9233 N   0  0  0  0  0  0
  -28.4306  -23.7525   18.9138 O   0  0  0  0  0  0
  -31.4884  -21.8142   19.9716 O   0  0  0  0  0  0
  -28.7490  -21.2129   20.3979 O   0  0  0  0  0  0
  -31.4650  -12.5898   19.1503 H   0  0  0  0  0  0
  -30.3805  -11.4888   19.9477 H   0  0  0  0  0  0
  -29.7928  -11.7387   17.5088 H   0  0  0  0  0  0
  -29.6039  -13.4624   17.7153 H   0  0  0  0  0  0
  -27.9077  -11.2571   18.9156 H   0  0  0  0  0  0
  -27.3712  -12.4841   17.7929 H   0  0  0  0  0  0
  -27.6251  -14.2245   19.4352 H   0  0  0  0  0  0
  -28.7322  -12.1231   21.3660 H   0  0  0  0  0  0
  -28.3979  -13.7630   21.8123 H   0  0  0  0  0  0
  -25.2733   -9.5747   22.4746 H   0  0  0  0  0  0
  -24.0056   -7.4631   22.7432 H   0  0  0  0  0  0
  -21.0844   -8.8672   19.8917 H   0  0  0  0  0  0
  -22.3602  -10.9649   19.6167 H   0  0  0  0  0  0
  -21.1956   -7.6142   23.9722 H   0  0  0  0  0  0
  -21.1508   -6.0523   25.9087 H   0  0  0  0  0  0
  -22.0592   -2.7616   23.2836 H   0  0  0  0  0  0
  -22.4074  -11.9868   22.4859 H   0  0  0  0  0  0
  -21.1071  -13.1198   22.2665 H   0  0  0  0  0  0
  -24.7308  -15.8766   20.6307 H   0  0  0  0  0  0
  -26.3762  -15.5829   20.3443 H   0  0  0  0  0  0
  -26.7192  -32.5433   23.1134 H   0  0  0  0  0  0
  -25.0044  -33.9739   25.0394 H   0  0  0  0  0  0
  -22.7203  -31.2991   21.3919 H   0  0  0  0  0  0
  -23.3748  -35.9641   23.3310 H   0  0  0  0  0  0
  -24.3601  -36.8937   22.2063 H   0  0  0  0  0  0
  -23.7254  -37.6504   23.6667 H   0  0  0  0  0  0
  -26.1023  -31.5572   20.6103 H   0  0  0  0  0  0
  -26.8385  -30.8333   22.0092 H   0  0  0  0  0  0
  -28.1354  -28.9997   21.1562 H   0  0  0  0  0  0
  -26.0217  -25.9098   19.0199 H   0  0  0  0  0  0
  -23.9832  -27.2943   19.0110 H   0  0  0  0  0  0
  -23.7574  -30.5849   19.3993 H   0  0  0  0  0  0
  -22.7612  -29.2363   19.8550 H   0  0  0  0  0  0
  -25.1285  -36.1961   25.0816 H   0  0  0  0  0  0
  -20.9951  -28.3247   24.1406 H   0  0  0  0  0  0
  -20.5653  -26.2328   23.3606 H   0  0  0  0  0  0
  -21.6649  -26.7445   22.1226 H   0  0  0  0  0  0
  -19.6926  -25.6287   21.1256 H   0  0  0  0  0  0
  -19.6665  -27.3167   20.6705 H   0  0  0  0  0  0
  -17.4207  -26.6659   21.4008 H   0  0  0  0  0  0
  -18.0333  -26.0034   22.9001 H   0  0  0  0  0  0
  -19.7952  -30.7227   24.2297 H   0  0  0  0  0  0
  -17.5037  -31.6250   24.5151 H   0  0  0  0  0  0
  -15.5365  -30.2975   23.7614 H   0  0  0  0  0  0
  -15.8690  -28.0770   22.7097 H   0  0  0  0  0  0
  -24.5898  -30.7054   25.7737 H   0  0  0  0  0  0
  -24.8868  -32.2840   26.4879 H   0  0  0  0  0  0
  -25.8011  -30.8856   27.0224 H   0  0  0  0  0  0
  -26.2922  -29.6728   24.1243 H   0  0  0  0  0  0
  -27.4064  -29.7273   25.4724 H   0  0  0  0  0  0
  -27.8795  -30.4282   23.9428 H   0  0  0  0  0  0
  -27.2732  -33.3627   26.2071 H   0  0  0  0  0  0
  -28.3876  -32.6856   25.0289 H   0  0  0  0  0  0
  -28.0775  -31.8431   26.5405 H   0  0  0  0  0  0
  -28.2589  -38.0110   24.7504 H   0  0  0  0  0  0
  -28.1101  -36.2644   24.6288 H   0  0  0  0  0  0
  -27.2320  -37.1445   25.8874 H   0  0  0  0  0  0
  -20.9435  -29.8776   21.6877 H   0  0  0  0  0  0
  -26.0198  -38.2859   24.1361 H   0  0  0  0  0  0
  -28.3958  -18.5957   20.7571 H   0  0  0  0  0  0
  -32.9855  -19.7270   19.5175 H   0  0  0  0  0  0
  -34.1827  -16.8800   17.6842 H   0  0  0  0  0  0
  -34.3335  -18.3963   18.5310 H   0  0  0  0  0  0
  -33.0707  -18.1802   17.3013 H   0  0  0  0  0  0
  -32.8493  -23.2412   20.5509 H   0  0  0  0  0  0
  -33.5870  -21.7608   19.9682 H   0  0  0  0  0  0
  -32.8234  -21.8086   21.5739 H   0  0  0  0  0  0
  -32.0929  -16.3723   18.6343 H   0  0  0  0  0  0
  -33.2340  -16.6751   19.9751 H   0  0  0  0  0  0
  -28.8936  -25.2717   21.7355 H   0  0  0  0  0  0
  -27.2126  -25.1295   21.3091 H   0  0  0  0  0  0
  -29.9626  -22.7055   21.3794 H   0  0  0  0  0  0
  -28.3223  -22.5786   21.8922 H   0  0  0  0  0  0
  -28.2005  -17.0489   20.9858 H   0  0  0  0  0  0
  1 25  1  0  0  0
  1 30  2  0  0  0
  1 77  1  0  0  0
  2  3  1  0  0  0
  2 25  1  0  0  0
  2 88  1  0  0  0
  2 89  1  0  0  0
  3  4  1  0  0  0
  3 90  1  0  0  0
  3 91  1  0  0  0
  4  5  1  0  0  0
  4 92  1  0  0  0
  4 93  1  0  0  0
  5  6  1  0  0  0
  5 26  1  0  0  0
  5 94  1  0  0  0
  6 25  1  0  0  0
  6 95  1  0  0  0
  6 96  1  0  0  0
  7  8  2  0  0  0
  7 26  1  0  0  0
  7 29  1  0  0  0
  8  9  1  0  0  0
  8 22  1  0  0  0
  9 10  1  0  0  0
  9 27  2  0  0  0
 10 11  2  0  0  0
 10 15  1  0  0  0
 11 12  1  0  0  0
 11 97  1  0  0  0
 12 13  2  0  0  0
 12 98  1  0  0  0
 13 14  1  0  0  0
 13 31  1  0  0  0
 14 15  2  0  0  0
 14 99  1  0  0  0
 15100  1  0  0  0
 16 17  2  0  0  0
 16 21  1  0  0  0
 16 31  1  0  0  0
 17 18  1  0  0  0
 17101  1  0  0  0
 18 19  2  0  0  0
 18102  1  0  0  0
 19 20  1  0  0  0
 19 24  1  0  0  0
 20 21  2  0  0  0
 20103  1  0  0  0
 21 23  1  0  0  0
 22 28  1  0  0  0
 22 32  2  0  0  0
 26 27  1  0  0  0
 28104  1  0  0  0
 28105  1  0  0  0
 29106  1  0  0  0
 29107  1  0  0  0
 33 34  1  0  0  0
 33 66  1  0  0  0
 33 70  2  0  0  0
 34 36  1  0  0  0
 34 59  1  0  0  0
 34108  1  0  0  0
 35 44  2  0  0  0
 35 45  1  0  0  0
 35 68  1  0  0  0
 36 56  1  0  0  0
 36109  1  0  0  0
 37 39  1  0  0  0
 37 47  1  0  0  0
 37 66  1  0  0  0
 37110  1  0  0  0
 38 43  2  0  0  0
 38 46  1  0  0  0
 38 47  1  0  0  0
 39 64  1  0  0  0
 39 67  2  0  0  0
 40 52  1  0  0  0
 40 53  2  0  0  0
 40 58  1  0  0  0
 41111  1  0  0  0
 41112  1  0  0  0
 41113  1  0  0  0
 41 48  1  0  0  0
 42 43  1  0  0  0
 42 66  1  0  0  0
 42114  1  0  0  0
 42115  1  0  0  0
 43 44  1  0  0  0
 44116  1  0  0  0
 45 46  2  0  0  0
 45117  1  0  0  0
 46118  1  0  0  0
 47119  1  0  0  0
 47120  1  0  0  0
 48 56  1  0  0  0
 48 65  1  0  0  0
 48121  1  0  0  0
 49 50  1  0  0  0
 49 53  1  0  0  0
 49 64  1  0  0  0
 49122  1  0  0  0
 50 51  1  0  0  0
 50123  1  0  0  0
 50124  1  0  0  0
 51 52  1  0  0  0
 51125  1  0  0  0
 51126  1  0  0  0
 52127  1  0  0  0
 52128  1  0  0  0
 53 54  1  0  0  0
 54 55  2  0  0  0
 54129  1  0  0  0
 55 57  1  0  0  0
 55130  1  0  0  0
 56 69  2  0  0  0
 57 58  2  0  0  0
 57131  1  0  0  0
 58132  1  0  0  0
 59 60  1  0  0  0
 59 61  1  0  0  0
 59 62  1  0  0  0
 60133  1  0  0  0
 60134  1  0  0  0
 60135  1  0  0  0
 61136  1  0  0  0
 61137  1  0  0  0
 61138  1  0  0  0
 62139  1  0  0  0
 62140  1  0  0  0
 62141  1  0  0  0
 63 65  1  0  0  0
 63142  1  0  0  0
 63143  1  0  0  0
 63144  1  0  0  0
 64145  1  0  0  0
 65146  1  0  0  0
 68 82  1  0  0  0
 71 73  2  0  0  0
 71 75  1  0  0  0
 71147  1  0  0  0
 72 74  2  0  0  0
 72 76  1  0  0  0
 72148  1  0  0  0
 73 74  1  0  0  0
 73 77  1  0  0  0
 74 81  1  0  0  0
 75 76  2  0  0  0
 75 87  1  0  0  0
 76 86  1  0  0  0
 77 84  2  0  0  0
 78 82  1  0  0  0
 78 83  1  0  0  0
 78 85  2  0  0  0
 79 81  1  0  0  0
 79149  1  0  0  0
 79150  1  0  0  0
 79151  1  0  0  0
 80 86  1  0  0  0
 80152  1  0  0  0
 80153  1  0  0  0
 80154  1  0  0  0
 81155  1  0  0  0
 81156  1  0  0  0
 82157  1  0  0  0
 82158  1  0  0  0
 83 87  1  0  0  0
 83159  1  0  0  0
 83160  1  0  0  0
 84161  1  0  0  0
M  ISO  4   1 100  68 101  77 100  82 101
M  END
> <chiral flag>
0

> <version>
0

> <s_m_source_file>
/data/baiqing/PycharmProjects/Reinvent-master-3.2/result/LINK_invent/BTK/process_docking_weight1_custom_product_contain_oxygen_bond_distance_aromatic_linkinvent_7_9_3/rearranged_h_0110.sdf

> <i_m_source_file_index>
31

> <r_mmod_Potential_Energy-OPLS-2005>
429.612121582031

> <r_mmod_Stretch_Energy-OPLS-2005>
145.305953979492

> <r_mmod_Bend_Energy-OPLS-2005>
210.270355224609

> <r_mmod_Torsional_Energy-OPLS-2005>
255.745101928711

> <r_mmod_Improper_Torsional_Energy-OPLS-2005>
4.44803476333618

> <r_mmod_Van_der_Waal_Energy-OPLS-2005>
177.115859985352

> <r_mmod_Electrostatic_Energy-OPLS-2005>
-217.156066894531

> <r_mmod_Solvation_Energy-OPLS-2005>
-220.118515014648

> <b_mmod_Minimization_Converged-OPLS-2005>
0

> <r_mmod_RMS_Derivative-OPLS-2005>
3.32023286819458

$$$$
32
                    3D
 Structure written by MMmdl.
160168  0  0  1  0            999 V2000
  -30.8991  -12.5673   20.7650 C   0  0  0  0  0  0
  -30.8769  -12.9104   18.6270 C   0  0  0  0  0  0
  -29.6758  -12.9976   17.7441 C   0  0  0  0  0  0
  -29.0681  -14.3025   18.2445 C   0  0  0  0  0  0
  -28.5735  -14.5217   19.8870 C   0  0  2  0  0  0
  -29.8982  -14.4225   20.5499 C   0  0  0  0  0  0
  -24.7098  -14.1169   20.8707 C   0  0  0  0  0  0
  -23.7977  -13.1405   21.0415 C   0  0  0  0  0  0
  -24.3865  -11.8789   21.0173 C   0  0  0  0  0  0
  -23.8402  -10.5029   21.0723 C   0  0  0  0  0  0
  -24.3371   -9.4896   21.9291 C   0  0  0  0  0  0
  -23.6447   -8.2606   22.0678 C   0  0  0  0  0  0
  -22.4477   -8.0327   21.3459 C   0  0  0  0  0  0
  -21.9998   -9.0145   20.4471 C   0  0  0  0  0  0
  -22.6925  -10.2265   20.3044 C   0  0  0  0  0  0
  -21.7012   -6.0763   22.5268 C   0  0  0  0  0  0
  -21.4132   -6.5684   23.8188 C   0  0  0  0  0  0
  -21.3697   -5.6836   24.9154 C   0  0  0  0  0  0
  -21.6030   -4.3086   24.7218 C   0  0  0  0  0  0
  -21.8791   -3.8158   23.4345 C   0  0  0  0  0  0
  -21.9234   -4.6970   22.3404 C   0  0  0  0  0  0
  -22.3830  -13.4542   21.2093 C   0  0  0  0  0  0
  -22.1680   -4.2132   21.0986 F   0  0  0  0  0  0
  -21.5594   -3.4577   25.7736 F   0  0  0  0  0  0
  -30.4609  -13.2978   19.9656 N   0  0  0  0  0  0
  -25.9950  -13.5923   20.8106 N   0  0  0  0  0  0
  -25.6292  -12.1619   21.0059 N   0  0  0  0  0  0
  -21.7373  -12.7319   22.1035 N   0  0  0  0  0  0
  -24.3870  -15.4591   20.7664 N   0  0  0  0  0  0
  -31.9715  -13.0359   21.1892 O   0  0  0  0  0  0
  -21.6930   -6.8858   21.4191 O   0  0  0  0  0  0
  -21.8902  -14.4243   20.6376 O   0  0  0  0  0  0
  -24.6794  -31.8122   23.1678 C   0  0  0  0  0  0
  -25.9438  -32.4500   23.8136 C   0  0  1  0  0  0
  -26.9658  -26.7304   20.0857 C   0  0  0  0  0  0
  -25.6059  -33.8333   24.2015 N   0  0  0  0  0  0
  -23.4818  -30.4476   21.5293 C   0  0  2  0  0  0
  -24.8760  -28.8310   20.0810 C   0  0  0  0  0  0
  -22.7688  -29.4436   22.4752 C   0  0  0  0  0  0
  -18.0336  -28.1408   22.8472 C   0  0  0  0  0  0
  -24.1504  -36.7165   23.2644 C   0  0  0  0  0  0
  -26.0647  -30.5364   21.4257 C   0  0  0  0  0  0
  -26.0769  -29.1233   20.7379 C   0  0  0  0  0  0
  -27.1338  -28.0822   20.7265 C   0  0  0  0  0  0
  -25.7834  -26.6703   19.3471 C   0  0  0  0  0  0
  -24.7652  -27.6369   19.3672 C   0  0  0  0  0  0
  -23.7054  -29.8043   20.1407 C   0  0  0  0  0  0
  -25.4151  -36.2915   24.0282 C   0  0  1  0  0  0
  -20.5962  -28.3759   23.1167 C   0  0  2  0  0  0
  -20.6804  -26.9435   22.5389 C   0  0  0  0  0  0
  -19.5768  -26.6372   21.5213 C   0  0  0  0  0  0
  -18.1957  -26.7941   22.1628 C   0  0  0  0  0  0
  -19.1598  -28.8907   23.2810 C   0  0  0  0  0  0
  -18.9501  -30.1495   23.8848 C   0  0  0  0  0  0
  -17.6490  -30.6593   24.0556 C   0  0  0  0  0  0
  -25.9142  -34.9303   23.4970 C   0  0  0  0  0  0
  -16.5383  -29.9078   23.6341 C   0  0  0  0  0  0
  -16.7316  -28.6499   23.0363 C   0  0  0  0  0  0
  -26.4605  -31.6519   25.0746 C   0  0  0  0  0  0
  -25.3675  -31.3834   26.1366 C   0  0  0  0  0  0
  -27.0510  -30.2849   24.6639 C   0  0  0  0  0  0
  -27.6070  -32.4369   25.7542 C   0  0  0  0  0  0
  -27.5576  -37.1743   24.8459 C   0  0  0  0  0  0
  -21.4353  -29.3053   22.3510 N   0  0  0  0  0  0
  -26.4277  -37.3674   23.9411 N   0  0  0  0  0  0
  -24.7691  -30.9637   22.0909 N   0  0  0  0  0  0
  -23.4218  -28.7965   23.2979 O   0  0  0  0  0  0
  -27.6998  -25.4069   20.1048 O   0  0  0  0  0  0
  -26.5749  -34.8858   22.4568 O   0  0  0  0  0  0
  -23.5852  -32.1216   23.6697 O   0  0  0  0  0  0
  -27.6593  -14.6192   22.0996 C   0  0  0  0  0  0
  -26.9710  -15.7514   21.0675 C   0  0  0  0  0  0
  -28.0541  -13.0242   21.6566 C   0  0  0  0  0  0
  -27.8073  -12.4224   19.9893 C   0  0  0  0  0  0
  -26.5635  -15.4666   19.4001 C   0  0  0  0  0  0
  -26.8240  -13.6316   18.7547 C   0  0  0  0  0  0
  -28.0843  -10.9436   23.0885 C   0  0  0  0  0  0
  -28.4012  -12.2282   22.8607 C   0  0  0  0  0  0
  -28.8199  -11.2173   19.9877 C   0  0  0  0  0  0
  -27.3533  -21.9928   19.8945 C   0  0  0  0  0  0
  -26.7547  -20.3424   19.1753 C   0  0  0  0  0  0
  -27.0870  -23.8514   19.6500 C   0  0  0  0  0  0
  -26.8433  -18.4847   19.5421 C   0  0  0  0  0  0
  -30.0977  -11.3952   20.6612 N   0  0  0  0  0  0
  -28.4875  -10.1305   19.5075 O   0  0  0  0  0  0
  -26.4642  -16.9426   18.8512 O   0  0  0  0  0  0
  -26.5673  -13.2898   17.4652 F   0  0  0  0  0  0
  -31.6307  -13.6300   18.2991 H   0  0  0  0  0  0
  -31.3623  -11.9342   18.4976 H   0  0  0  0  0  0
  -29.0070  -12.1465   17.6779 H   0  0  0  0  0  0
  -30.0166  -13.1322   16.7162 H   0  0  0  0  0  0
  -28.4197  -14.7381   17.4804 H   0  0  0  0  0  0
  -29.8554  -15.0456   18.0908 H   0  0  0  0  0  0
  -28.7519  -15.6130   19.8001 H   0  0  0  0  0  0
  -29.9858  -14.5707   21.6339 H   0  0  0  0  0  0
  -30.5713  -15.2205   20.2145 H   0  0  0  0  0  0
  -25.2194   -9.6783   22.5243 H   0  0  0  0  0  0
  -24.0272   -7.5100   22.7450 H   0  0  0  0  0  0
  -21.1027   -8.8436   19.8689 H   0  0  0  0  0  0
  -22.3018  -10.9760   19.6307 H   0  0  0  0  0  0
  -21.2195   -7.6208   23.9680 H   0  0  0  0  0  0
  -21.1529   -6.0590   25.9048 H   0  0  0  0  0  0
  -22.0506   -2.7610   23.2853 H   0  0  0  0  0  0
  -22.1902  -11.9768   22.5956 H   0  0  0  0  0  0
  -20.7710  -12.9421   22.3113 H   0  0  0  0  0  0
  -23.4113  -15.7227   20.6591 H   0  0  0  0  0  0
  -25.0444  -16.1766   20.4866 H   0  0  0  0  0  0
  -26.7486  -32.4898   23.0802 H   0  0  0  0  0  0
  -25.0147  -33.9394   25.0128 H   0  0  0  0  0  0
  -22.8042  -31.2919   21.3818 H   0  0  0  0  0  0
  -23.3792  -35.9468   23.3236 H   0  0  0  0  0  0
  -24.3586  -36.8894   22.2074 H   0  0  0  0  0  0
  -23.7233  -37.6313   23.6760 H   0  0  0  0  0  0
  -26.2942  -31.2762   20.6576 H   0  0  0  0  0  0
  -26.9136  -30.5579   22.0967 H   0  0  0  0  0  0
  -28.0356  -28.2665   21.2927 H   0  0  0  0  0  0
  -25.5673  -25.7831   18.7725 H   0  0  0  0  0  0
  -23.8562  -27.4325   18.8181 H   0  0  0  0  0  0
  -23.8978  -30.5917   19.4111 H   0  0  0  0  0  0
  -22.7938  -29.3103   19.8001 H   0  0  0  0  0  0
  -25.1353  -36.1688   25.0772 H   0  0  0  0  0  0
  -21.0061  -28.3360   24.1288 H   0  0  0  0  0  0
  -20.5681  -26.2381   23.3638 H   0  0  0  0  0  0
  -21.6664  -26.7398   22.1195 H   0  0  0  0  0  0
  -19.6913  -25.6268   21.1279 H   0  0  0  0  0  0
  -19.6690  -27.3151   20.6719 H   0  0  0  0  0  0
  -17.4219  -26.6698   21.4036 H   0  0  0  0  0  0
  -18.0342  -26.0096   22.9036 H   0  0  0  0  0  0
  -19.7974  -30.7332   24.2185 H   0  0  0  0  0  0
  -17.5036  -31.6263   24.5171 H   0  0  0  0  0  0
  -15.5377  -30.2954   23.7689 H   0  0  0  0  0  0
  -15.8725  -28.0793   22.7098 H   0  0  0  0  0  0
  -24.5897  -30.7135   25.7683 H   0  0  0  0  0  0
  -24.8813  -32.3044   26.4585 H   0  0  0  0  0  0
  -25.7856  -30.9145   27.0282 H   0  0  0  0  0  0
  -26.3191  -29.6465   24.1676 H   0  0  0  0  0  0
  -27.3966  -29.7308   25.5378 H   0  0  0  0  0  0
  -27.9185  -30.3968   24.0133 H   0  0  0  0  0  0
  -27.2635  -33.3752   26.1909 H   0  0  0  0  0  0
  -28.3972  -32.6795   25.0426 H   0  0  0  0  0  0
  -28.0631  -31.8639   26.5624 H   0  0  0  0  0  0
  -28.2532  -38.0095   24.7544 H   0  0  0  0  0  0
  -28.1133  -36.2619   24.6239 H   0  0  0  0  0  0
  -27.2295  -37.1320   25.8859 H   0  0  0  0  0  0
  -20.9600  -29.8800   21.6693 H   0  0  0  0  0  0
  -26.0104  -38.2720   24.1433 H   0  0  0  0  0  0
  -27.8298  -14.9254   23.1220 H   0  0  0  0  0  0
  -26.8462  -16.7297   21.4986 H   0  0  0  0  0  0
  -28.3895  -10.4541   24.0024 H   0  0  0  0  0  0
  -27.5132  -10.3632   22.3790 H   0  0  0  0  0  0
  -28.9663  -12.7509   23.6209 H   0  0  0  0  0  0
  -28.4372  -21.8976   19.8257 H   0  0  0  0  0  0
  -27.1583  -21.8699   20.9605 H   0  0  0  0  0  0
  -27.1119  -20.3999   18.1473 H   0  0  0  0  0  0
  -25.6816  -20.5055   19.0761 H   0  0  0  0  0  0
  -26.0383  -23.9438   19.9312 H   0  0  0  0  0  0
  -27.0769  -23.9453   18.5638 H   0  0  0  0  0  0
  -26.2907  -18.4523   20.4795 H   0  0  0  0  0  0
  -27.8849  -18.3443   19.8332 H   0  0  0  0  0  0
  -30.5477  -10.5502   20.9722 H   0  0  0  0  0  0
  1 25  1  0  0  0
  1 30  2  0  0  0
  1 84  1  0  0  0
  2  3  1  0  0  0
  2 25  1  0  0  0
  2 88  1  0  0  0
  2 89  1  0  0  0
  3  4  1  0  0  0
  3 90  1  0  0  0
  3 91  1  0  0  0
  4  5  1  0  0  0
  4 92  1  0  0  0
  4 93  1  0  0  0
  5  6  1  0  0  0
  5 26  1  0  0  0
  5 94  1  0  0  0
  6 25  1  0  0  0
  6 95  1  0  0  0
  6 96  1  0  0  0
  7  8  2  0  0  0
  7 26  1  0  0  0
  7 29  1  0  0  0
  8  9  1  0  0  0
  8 22  1  0  0  0
  9 10  1  0  0  0
  9 27  2  0  0  0
 10 11  2  0  0  0
 10 15  1  0  0  0
 11 12  1  0  0  0
 11 97  1  0  0  0
 12 13  2  0  0  0
 12 98  1  0  0  0
 13 14  1  0  0  0
 13 31  1  0  0  0
 14 15  2  0  0  0
 14 99  1  0  0  0
 15100  1  0  0  0
 16 17  2  0  0  0
 16 21  1  0  0  0
 16 31  1  0  0  0
 17 18  1  0  0  0
 17101  1  0  0  0
 18 19  2  0  0  0
 18102  1  0  0  0
 19 20  1  0  0  0
 19 24  1  0  0  0
 20 21  2  0  0  0
 20103  1  0  0  0
 21 23  1  0  0  0
 22 28  1  0  0  0
 22 32  2  0  0  0
 26 27  1  0  0  0
 28104  1  0  0  0
 28105  1  0  0  0
 29106  1  0  0  0
 29107  1  0  0  0
 33 34  1  0  0  0
 33 66  1  0  0  0
 33 70  2  0  0  0
 34 36  1  0  0  0
 34 59  1  0  0  0
 34108  1  0  0  0
 35 44  2  0  0  0
 35 45  1  0  0  0
 35 68  1  0  0  0
 36 56  1  0  0  0
 36109  1  0  0  0
 37 39  1  0  0  0
 37 47  1  0  0  0
 37 66  1  0  0  0
 37110  1  0  0  0
 38 43  2  0  0  0
 38 46  1  0  0  0
 38 47  1  0  0  0
 39 64  1  0  0  0
 39 67  2  0  0  0
 40 52  1  0  0  0
 40 53  2  0  0  0
 40 58  1  0  0  0
 41111  1  0  0  0
 41112  1  0  0  0
 41113  1  0  0  0
 41 48  1  0  0  0
 42 43  1  0  0  0
 42 66  1  0  0  0
 42114  1  0  0  0
 42115  1  0  0  0
 43 44  1  0  0  0
 44116  1  0  0  0
 45 46  2  0  0  0
 45117  1  0  0  0
 46118  1  0  0  0
 47119  1  0  0  0
 47120  1  0  0  0
 48 56  1  0  0  0
 48 65  1  0  0  0
 48121  1  0  0  0
 49 50  1  0  0  0
 49 53  1  0  0  0
 49 64  1  0  0  0
 49122  1  0  0  0
 50 51  1  0  0  0
 50123  1  0  0  0
 50124  1  0  0  0
 51 52  1  0  0  0
 51125  1  0  0  0
 51126  1  0  0  0
 52127  1  0  0  0
 52128  1  0  0  0
 53 54  1  0  0  0
 54 55  2  0  0  0
 54129  1  0  0  0
 55 57  1  0  0  0
 55130  1  0  0  0
 56 69  2  0  0  0
 57 58  2  0  0  0
 57131  1  0  0  0
 58132  1  0  0  0
 59 60  1  0  0  0
 59 61  1  0  0  0
 59 62  1  0  0  0
 60133  1  0  0  0
 60134  1  0  0  0
 60135  1  0  0  0
 61136  1  0  0  0
 61137  1  0  0  0
 61138  1  0  0  0
 62139  1  0  0  0
 62140  1  0  0  0
 62141  1  0  0  0
 63 65  1  0  0  0
 63142  1  0  0  0
 63143  1  0  0  0
 63144  1  0  0  0
 64145  1  0  0  0
 65146  1  0  0  0
 68 82  1  0  0  0
 71 72  2  0  0  0
 71 73  1  0  0  0
 71147  1  0  0  0
 72 75  1  0  0  0
 72148  1  0  0  0
 73 74  2  0  0  0
 73 78  1  0  0  0
 74 76  1  0  0  0
 74 79  1  0  0  0
 75 76  2  0  0  0
 75 86  1  0  0  0
 76 87  1  0  0  0
 77 78  2  0  0  0
 77149  1  0  0  0
 77150  1  0  0  0
 78151  1  0  0  0
 79 84  1  0  0  0
 79 85  2  0  0  0
 80 81  1  0  0  0
 80 82  1  0  0  0
 80152  1  0  0  0
 80153  1  0  0  0
 81 83  1  0  0  0
 81154  1  0  0  0
 81155  1  0  0  0
 82156  1  0  0  0
 82157  1  0  0  0
 83 86  1  0  0  0
 83158  1  0  0  0
 83159  1  0  0  0
 84160  1  0  0  0
M  ISO  4   1 100  68 101  82 101  84 100
M  END
> <chiral flag>
0

> <version>
0

> <s_m_source_file>
/data/baiqing/PycharmProjects/Reinvent-master-3.2/result/LINK_invent/BTK/process_docking_weight1_custom_product_contain_oxygen_bond_distance_aromatic_linkinvent_7_9_3/rearranged_h_0110.sdf

> <i_m_source_file_index>
32

> <r_mmod_Potential_Energy-OPLS-2005>
12607.947265625

> <r_mmod_Stretch_Energy-OPLS-2005>
6111.8056640625

> <r_mmod_Bend_Energy-OPLS-2005>
1031.19274902344

> <r_mmod_Torsional_Energy-OPLS-2005>
383.036529541016

> <r_mmod_Improper_Torsional_Energy-OPLS-2005>
25.2980003356934

> <r_mmod_Van_der_Waal_Energy-OPLS-2005>
2822.00610351562

> <r_mmod_Electrostatic_Energy-OPLS-2005>
-428.889678955078

> <r_mmod_Solvation_Energy-OPLS-2005>
-197.615356445312

> <b_mmod_Minimization_Converged-OPLS-2005>
0

> <r_mmod_RMS_Derivative-OPLS-2005>
2.51353859901428

$$$$
33
                    3D
 Structure written by MMmdl.
161169  0  0  1  0            999 V2000
  -30.7639  -14.4605   20.6073 C   0  0  0  0  0  0
  -30.4011  -12.3253   19.4141 C   0  0  0  0  0  0
  -29.4768  -12.5047   18.1965 C   0  0  0  0  0  0
  -28.0046  -12.3524   18.6203 C   0  0  0  0  0  0
  -27.6487  -13.2158   19.8613 C   0  0  2  0  0  0
  -28.6952  -13.0474   20.9858 C   0  0  0  0  0  0
  -25.2522  -13.8183   20.5659 C   0  0  0  0  0  0
  -24.1813  -13.0447   20.9181 C   0  0  0  0  0  0
  -24.6384  -11.6915   20.8738 C   0  0  0  0  0  0
  -23.9062  -10.4297   21.0409 C   0  0  0  0  0  0
  -24.3615   -9.4215   21.9188 C   0  0  0  0  0  0
  -23.6292   -8.2246   22.0767 C   0  0  0  0  0  0
  -22.4275   -8.0282   21.3549 C   0  0  0  0  0  0
  -21.9903   -9.0257   20.4655 C   0  0  0  0  0  0
  -22.7230  -10.2132   20.3066 C   0  0  0  0  0  0
  -21.6850   -6.0732   22.5289 C   0  0  0  0  0  0
  -21.4016   -6.5641   23.8222 C   0  0  0  0  0  0
  -21.3653   -5.6793   24.9183 C   0  0  0  0  0  0
  -21.6045   -4.3060   24.7229 C   0  0  0  0  0  0
  -21.8818   -3.8147   23.4352 C   0  0  0  0  0  0
  -21.9197   -4.6961   22.3409 C   0  0  0  0  0  0
  -22.7831  -13.5230   21.1847 C   0  0  0  0  0  0
  -22.1666   -4.2147   21.0985 F   0  0  0  0  0  0
  -21.5618   -3.4550   25.7744 F   0  0  0  0  0  0
  -30.0175  -13.3373   20.4130 N   0  0  0  0  0  0
  -26.2959  -12.9373   20.3324 N   0  0  0  0  0  0
  -25.9317  -11.6521   20.5784 N   0  0  0  0  0  0
  -22.0489  -12.8223   22.0398 N   0  0  0  0  0  0
  -25.4225  -15.1907   20.4045 N   0  0  0  0  0  0
  -31.9072  -14.5525   20.1493 O   0  0  0  0  0  0
  -21.6641   -6.8874   21.4247 O   0  0  0  0  0  0
  -22.3511  -14.5542   20.6709 O   0  0  0  0  0  0
  -24.6110  -31.8703   23.2118 C   0  0  0  0  0  0
  -25.9011  -32.4835   23.8396 C   0  0  1  0  0  0
  -27.2244  -27.4415   20.1118 C   0  0  0  0  0  0
  -25.5874  -33.8633   24.2311 N   0  0  0  0  0  0
  -23.3999  -30.4924   21.5534 C   0  0  2  0  0  0
  -24.8479  -28.9697   20.1126 C   0  0  0  0  0  0
  -22.7396  -29.4658   22.5022 C   0  0  0  0  0  0
  -18.0260  -28.1379   22.8504 C   0  0  0  0  0  0
  -24.1482  -36.7331   23.2636 C   0  0  0  0  0  0
  -25.9256  -30.8458   21.3596 C   0  0  0  0  0  0
  -26.0081  -29.4806   20.7080 C   0  0  0  0  0  0
  -27.2025  -28.7251   20.7025 C   0  0  0  0  0  0
  -26.0521  -26.9542   19.4894 C   0  0  0  0  0  0
  -24.8662  -27.7077   19.4950 C   0  0  0  0  0  0
  -23.6058  -29.8269   20.1682 C   0  0  0  0  0  0
  -25.4106  -36.3122   24.0317 C   0  0  1  0  0  0
  -20.5854  -28.3658   23.1351 C   0  0  2  0  0  0
  -20.6765  -26.9395   22.5449 C   0  0  0  0  0  0
  -19.5722  -26.6392   21.5254 C   0  0  0  0  0  0
  -18.1890  -26.7922   22.1642 C   0  0  0  0  0  0
  -19.1513  -28.8827   23.2931 C   0  0  0  0  0  0
  -18.9432  -30.1460   23.8890 C   0  0  0  0  0  0
  -17.6431  -30.6583   24.0578 C   0  0  0  0  0  0
  -25.9022  -34.9478   23.5107 C   0  0  0  0  0  0
  -16.5323  -29.9082   23.6358 C   0  0  0  0  0  0
  -16.7247  -28.6526   23.0323 C   0  0  0  0  0  0
  -26.4451  -31.6588   25.0702 C   0  0  0  0  0  0
  -25.3688  -31.3651   26.1425 C   0  0  0  0  0  0
  -27.0340  -30.3032   24.6092 C   0  0  0  0  0  0
  -27.6068  -32.4280   25.7424 C   0  0  0  0  0  0
  -27.5572  -37.1798   24.8453 C   0  0  0  0  0  0
  -21.4122  -29.3026   22.3748 N   0  0  0  0  0  0
  -26.4297  -37.3796   23.9398 N   0  0  0  0  0  0
  -24.6644  -31.0809   22.1016 N   0  0  0  0  0  0
  -23.4183  -28.8173   23.3037 O   0  0  0  0  0  0
  -28.3680  -26.6735   20.1664 O   0  0  0  0  0  0
  -26.5615  -34.8925   22.4683 O   0  0  0  0  0  0
  -23.5299  -32.1461   23.7499 O   0  0  0  0  0  0
  -30.3171  -20.0268   20.0105 C   0  0  0  0  0  0
  -29.1392  -20.0872   22.1230 C   0  0  0  0  0  0
  -30.2234  -17.9928   21.3973 C   0  0  0  0  0  0
  -30.6333  -18.6695   20.2109 C   0  0  0  0  0  0
  -29.6147  -20.7643   20.9751 C   0  0  0  0  0  0
  -29.4353  -18.7111   22.3552 C   0  0  0  0  0  0
  -30.7918  -16.6093   21.6591 C   0  0  0  0  0  0
  -29.2058  -23.1886   21.5355 C   0  0  0  0  0  0
  -31.4964  -17.9990   19.1484 C   0  0  0  0  0  0
  -27.8095  -18.6294   24.2390 C   0  0  0  0  0  0
  -29.4354  -24.6025   20.9729 C   0  0  0  0  0  0
  -28.1407  -25.2936   20.5093 C   0  0  0  0  0  0
  -29.4678  -22.1608   20.7060 N   0  0  0  0  0  0
  -28.9806  -18.0998   23.5446 N   0  0  0  0  0  0
  -30.1455  -15.5327   21.1530 N   0  0  0  0  0  0
  -31.8700  -16.5324   22.2613 O   0  0  0  0  0  0
  -28.8174  -23.0559   22.6980 O   0  0  0  0  0  0
  -31.4439  -12.4019   19.1042 H   0  0  0  0  0  0
  -30.2885  -11.3247   19.8345 H   0  0  0  0  0  0
  -29.7203  -11.7737   17.4235 H   0  0  0  0  0  0
  -29.6327  -13.4881   17.7491 H   0  0  0  0  0  0
  -27.8327  -11.2986   18.8423 H   0  0  0  0  0  0
  -27.3454  -12.5986   17.7860 H   0  0  0  0  0  0
  -27.6774  -14.2555   19.5354 H   0  0  0  0  0  0
  -28.6781  -12.0277   21.3765 H   0  0  0  0  0  0
  -28.4572  -13.6951   21.8316 H   0  0  0  0  0  0
  -25.2771   -9.5692   22.4748 H   0  0  0  0  0  0
  -24.0011   -7.4640   22.7489 H   0  0  0  0  0  0
  -21.0831   -8.8772   19.8954 H   0  0  0  0  0  0
  -22.3700  -10.9669   19.6167 H   0  0  0  0  0  0
  -21.2012   -7.6151   23.9718 H   0  0  0  0  0  0
  -21.1467   -6.0531   25.9082 H   0  0  0  0  0  0
  -22.0599   -2.7611   23.2864 H   0  0  0  0  0  0
  -22.4123  -11.9893   22.4783 H   0  0  0  0  0  0
  -21.1122  -13.1248   22.2633 H   0  0  0  0  0  0
  -24.6523  -15.8428   20.5070 H   0  0  0  0  0  0
  -26.2704  -15.6320   20.0729 H   0  0  0  0  0  0
  -26.7074  -32.5568   23.1173 H   0  0  0  0  0  0
  -24.9977  -33.9785   25.0416 H   0  0  0  0  0  0
  -22.6872  -31.3082   21.4140 H   0  0  0  0  0  0
  -23.3743  -35.9669   23.3319 H   0  0  0  0  0  0
  -24.3569  -36.8943   22.2055 H   0  0  0  0  0  0
  -23.7235  -37.6523   23.6667 H   0  0  0  0  0  0
  -26.0236  -31.6117   20.5915 H   0  0  0  0  0  0
  -26.8206  -30.9132   21.9671 H   0  0  0  0  0  0
  -28.0961  -29.1087   21.1753 H   0  0  0  0  0  0
  -26.0428  -25.9937   18.9959 H   0  0  0  0  0  0
  -23.9750  -27.3110   19.0267 H   0  0  0  0  0  0
  -23.6932  -30.5996   19.4016 H   0  0  0  0  0  0
  -22.7345  -29.2310   19.8857 H   0  0  0  0  0  0
  -25.1272  -36.2000   25.0806 H   0  0  0  0  0  0
  -20.9942  -28.3245   24.1481 H   0  0  0  0  0  0
  -20.5700  -26.2252   23.3632 H   0  0  0  0  0  0
  -21.6622  -26.7473   22.1195 H   0  0  0  0  0  0
  -19.6885  -25.6332   21.1214 H   0  0  0  0  0  0
  -19.6640  -27.3284   20.6853 H   0  0  0  0  0  0
  -17.4173  -26.6694   21.4035 H   0  0  0  0  0  0
  -18.0249  -26.0053   22.9024 H   0  0  0  0  0  0
  -19.7907  -30.7295   24.2211 H   0  0  0  0  0  0
  -17.4989  -31.6243   24.5206 H   0  0  0  0  0  0
  -15.5326  -30.2960   23.7721 H   0  0  0  0  0  0
  -15.8648  -28.0889   22.6968 H   0  0  0  0  0  0
  -24.5897  -30.6982   25.7705 H   0  0  0  0  0  0
  -24.8816  -32.2765   26.4880 H   0  0  0  0  0  0
  -25.7999  -30.8774   27.0180 H   0  0  0  0  0  0
  -26.2922  -29.6694   24.1217 H   0  0  0  0  0  0
  -27.4201  -29.7353   25.4574 H   0  0  0  0  0  0
  -27.8690  -30.4370   23.9217 H   0  0  0  0  0  0
  -27.2792  -33.3618   26.2018 H   0  0  0  0  0  0
  -28.3874  -32.6759   25.0206 H   0  0  0  0  0  0
  -28.0760  -31.8363   26.5293 H   0  0  0  0  0  0
  -28.2593  -38.0100   24.7561 H   0  0  0  0  0  0
  -28.1065  -36.2632   24.6244 H   0  0  0  0  0  0
  -27.2280  -37.1433   25.8850 H   0  0  0  0  0  0
  -20.9270  -29.8737   21.6971 H   0  0  0  0  0  0
  -26.0178  -38.2850   24.1470 H   0  0  0  0  0  0
  -30.6717  -20.5296   19.1216 H   0  0  0  0  0  0
  -28.5765  -20.6453   22.8528 H   0  0  0  0  0  0
  -31.6296  -18.6457   18.2801 H   0  0  0  0  0  0
  -31.0477  -17.0714   18.7918 H   0  0  0  0  0  0
  -32.4891  -17.7794   19.5455 H   0  0  0  0  0  0
  -27.4531  -17.9156   24.9838 H   0  0  0  0  0  0
  -26.9892  -18.8114   23.5426 H   0  0  0  0  0  0
  -28.0401  -19.5601   24.7604 H   0  0  0  0  0  0
  -30.1575  -24.5723   20.1561 H   0  0  0  0  0  0
  -29.8933  -25.2015   21.7627 H   0  0  0  0  0  0
  -27.3957  -25.2268   21.3083 H   0  0  0  0  0  0
  -27.7403  -24.7524   19.6512 H   0  0  0  0  0  0
  -29.7519  -22.4435   19.7774 H   0  0  0  0  0  0
  -29.2569  -17.1491   23.7745 H   0  0  0  0  0  0
  -29.1461  -15.5893   21.0626 H   0  0  0  0  0  0
  1 25  1  0  0  0
  1 30  2  0  0  0
  1 85  1  0  0  0
  2  3  1  0  0  0
  2 25  1  0  0  0
  2 88  1  0  0  0
  2 89  1  0  0  0
  3  4  1  0  0  0
  3 90  1  0  0  0
  3 91  1  0  0  0
  4  5  1  0  0  0
  4 92  1  0  0  0
  4 93  1  0  0  0
  5  6  1  0  0  0
  5 26  1  0  0  0
  5 94  1  0  0  0
  6 25  1  0  0  0
  6 95  1  0  0  0
  6 96  1  0  0  0
  7  8  2  0  0  0
  7 26  1  0  0  0
  7 29  1  0  0  0
  8  9  1  0  0  0
  8 22  1  0  0  0
  9 10  1  0  0  0
  9 27  2  0  0  0
 10 11  2  0  0  0
 10 15  1  0  0  0
 11 12  1  0  0  0
 11 97  1  0  0  0
 12 13  2  0  0  0
 12 98  1  0  0  0
 13 14  1  0  0  0
 13 31  1  0  0  0
 14 15  2  0  0  0
 14 99  1  0  0  0
 15100  1  0  0  0
 16 17  2  0  0  0
 16 21  1  0  0  0
 16 31  1  0  0  0
 17 18  1  0  0  0
 17101  1  0  0  0
 18 19  2  0  0  0
 18102  1  0  0  0
 19 20  1  0  0  0
 19 24  1  0  0  0
 20 21  2  0  0  0
 20103  1  0  0  0
 21 23  1  0  0  0
 22 28  1  0  0  0
 22 32  2  0  0  0
 26 27  1  0  0  0
 28104  1  0  0  0
 28105  1  0  0  0
 29106  1  0  0  0
 29107  1  0  0  0
 33 34  1  0  0  0
 33 66  1  0  0  0
 33 70  2  0  0  0
 34 36  1  0  0  0
 34 59  1  0  0  0
 34108  1  0  0  0
 35 44  2  0  0  0
 35 45  1  0  0  0
 35 68  1  0  0  0
 36 56  1  0  0  0
 36109  1  0  0  0
 37 39  1  0  0  0
 37 47  1  0  0  0
 37 66  1  0  0  0
 37110  1  0  0  0
 38 43  2  0  0  0
 38 46  1  0  0  0
 38 47  1  0  0  0
 39 64  1  0  0  0
 39 67  2  0  0  0
 40 52  1  0  0  0
 40 53  2  0  0  0
 40 58  1  0  0  0
 41111  1  0  0  0
 41112  1  0  0  0
 41113  1  0  0  0
 41 48  1  0  0  0
 42 43  1  0  0  0
 42 66  1  0  0  0
 42114  1  0  0  0
 42115  1  0  0  0
 43 44  1  0  0  0
 44116  1  0  0  0
 45 46  2  0  0  0
 45117  1  0  0  0
 46118  1  0  0  0
 47119  1  0  0  0
 47120  1  0  0  0
 48 56  1  0  0  0
 48 65  1  0  0  0
 48121  1  0  0  0
 49 50  1  0  0  0
 49 53  1  0  0  0
 49 64  1  0  0  0
 49122  1  0  0  0
 50 51  1  0  0  0
 50123  1  0  0  0
 50124  1  0  0  0
 51 52  1  0  0  0
 51125  1  0  0  0
 51126  1  0  0  0
 52127  1  0  0  0
 52128  1  0  0  0
 53 54  1  0  0  0
 54 55  2  0  0  0
 54129  1  0  0  0
 55 57  1  0  0  0
 55130  1  0  0  0
 56 69  2  0  0  0
 57 58  2  0  0  0
 57131  1  0  0  0
 58132  1  0  0  0
 59 60  1  0  0  0
 59 61  1  0  0  0
 59 62  1  0  0  0
 60133  1  0  0  0
 60134  1  0  0  0
 60135  1  0  0  0
 61136  1  0  0  0
 61137  1  0  0  0
 61138  1  0  0  0
 62139  1  0  0  0
 62140  1  0  0  0
 62141  1  0  0  0
 63 65  1  0  0  0
 63142  1  0  0  0
 63143  1  0  0  0
 63144  1  0  0  0
 64145  1  0  0  0
 65146  1  0  0  0
 68 82  1  0  0  0
 71 74  2  0  0  0
 71 75  1  0  0  0
 71147  1  0  0  0
 72 75  2  0  0  0
 72 76  1  0  0  0
 72148  1  0  0  0
 73 74  1  0  0  0
 73 76  2  0  0  0
 73 77  1  0  0  0
 74 79  1  0  0  0
 75 83  1  0  0  0
 76 84  1  0  0  0
 77 85  1  0  0  0
 77 86  2  0  0  0
 78 81  1  0  0  0
 78 83  1  0  0  0
 78 87  2  0  0  0
 79149  1  0  0  0
 79150  1  0  0  0
 79151  1  0  0  0
 80 84  1  0  0  0
 80152  1  0  0  0
 80153  1  0  0  0
 80154  1  0  0  0
 81 82  1  0  0  0
 81155  1  0  0  0
 81156  1  0  0  0
 82157  1  0  0  0
 82158  1  0  0  0
 83159  1  0  0  0
 84160  1  0  0  0
 85161  1  0  0  0
M  ISO  4   1 100  68 101  82 101  85 100
M  END
> <chiral flag>
0

> <version>
0

> <s_m_source_file>
/data/baiqing/PycharmProjects/Reinvent-master-3.2/result/LINK_invent/BTK/process_docking_weight1_custom_product_contain_oxygen_bond_distance_aromatic_linkinvent_7_9_3/rearranged_h_0110.sdf

> <i_m_source_file_index>
33

> <r_mmod_Potential_Energy-OPLS-2005>
62.8770446777344

> <r_mmod_Stretch_Energy-OPLS-2005>
42.1851348876953

> <r_mmod_Bend_Energy-OPLS-2005>
114.167129516602

> <r_mmod_Torsional_Energy-OPLS-2005>
289.590759277344

> <r_mmod_Improper_Torsional_Energy-OPLS-2005>
6.49613761901855

> <r_mmod_Van_der_Waal_Energy-OPLS-2005>
167.696151733398

> <r_mmod_Electrostatic_Energy-OPLS-2005>
-318.81884765625

> <r_mmod_Solvation_Energy-OPLS-2005>
-256.915313720703

> <b_mmod_Minimization_Converged-OPLS-2005>
0

> <r_mmod_RMS_Derivative-OPLS-2005>
3.23953723907471

$$$$
34
                    3D
 Structure written by MMmdl.
172180  0  0  1  0            999 V2000
  -30.7066  -14.4449   20.4474 C   0  0  0  0  0  0
  -30.4153  -12.2556   19.4334 C   0  0  0  0  0  0
  -29.4900  -12.4337   18.2095 C   0  0  0  0  0  0
  -28.0118  -12.3202   18.6261 C   0  0  0  0  0  0
  -27.6540  -13.2000   19.8539 C   0  0  2  0  0  0
  -28.6971  -13.0364   20.9856 C   0  0  0  0  0  0
  -25.2577  -13.8163   20.5662 C   0  0  0  0  0  0
  -24.1827  -13.0451   20.9194 C   0  0  0  0  0  0
  -24.6378  -11.6916   20.8758 C   0  0  0  0  0  0
  -23.9054  -10.4291   21.0414 C   0  0  0  0  0  0
  -24.3610   -9.4203   21.9187 C   0  0  0  0  0  0
  -23.6286   -8.2236   22.0755 C   0  0  0  0  0  0
  -22.4261   -8.0279   21.3548 C   0  0  0  0  0  0
  -21.9898   -9.0257   20.4651 C   0  0  0  0  0  0
  -22.7229  -10.2135   20.3062 C   0  0  0  0  0  0
  -21.6852   -6.0731   22.5281 C   0  0  0  0  0  0
  -21.4012   -6.5634   23.8215 C   0  0  0  0  0  0
  -21.3658   -5.6788   24.9176 C   0  0  0  0  0  0
  -21.6039   -4.3049   24.7226 C   0  0  0  0  0  0
  -21.8819   -3.8142   23.4347 C   0  0  0  0  0  0
  -21.9191   -4.6960   22.3403 C   0  0  0  0  0  0
  -22.7849  -13.5255   21.1852 C   0  0  0  0  0  0
  -22.1663   -4.2161   21.0979 F   0  0  0  0  0  0
  -21.5627   -3.4524   25.7734 F   0  0  0  0  0  0
  -30.0342  -13.2716   20.4210 N   0  0  0  0  0  0
  -26.2989  -12.9316   20.3283 N   0  0  0  0  0  0
  -25.9293  -11.6496   20.5759 N   0  0  0  0  0  0
  -22.0471  -12.8265   22.0404 N   0  0  0  0  0  0
  -25.4294  -15.1877   20.4062 N   0  0  0  0  0  0
  -31.9197  -14.5482   20.2510 O   0  0  0  0  0  0
  -21.6630   -6.8872   21.4241 O   0  0  0  0  0  0
  -22.3543  -14.5557   20.6689 O   0  0  0  0  0  0
  -24.6093  -31.8709   23.2127 C   0  0  0  0  0  0
  -25.9006  -32.4843   23.8416 C   0  0  1  0  0  0
  -27.2442  -27.4867   20.0941 C   0  0  0  0  0  0
  -25.5874  -33.8641   24.2352 N   0  0  0  0  0  0
  -23.3965  -30.4926   21.5509 C   0  0  2  0  0  0
  -24.8472  -28.9618   20.1176 C   0  0  0  0  0  0
  -22.7385  -29.4666   22.5007 C   0  0  0  0  0  0
  -18.0263  -28.1370   22.8492 C   0  0  0  0  0  0
  -24.1484  -36.7325   23.2639 C   0  0  0  0  0  0
  -25.9189  -30.8517   21.3594 C   0  0  0  0  0  0
  -26.0002  -29.4868   20.7146 C   0  0  0  0  0  0
  -27.2029  -28.7526   20.7084 C   0  0  0  0  0  0
  -26.0782  -26.9547   19.5074 C   0  0  0  0  0  0
  -24.8771  -27.6909   19.5141 C   0  0  0  0  0  0
  -23.6047  -29.8215   20.1662 C   0  0  0  0  0  0
  -25.4101  -36.3127   24.0346 C   0  0  1  0  0  0
  -20.5851  -28.3650   23.1327 C   0  0  2  0  0  0
  -20.6754  -26.9389   22.5420 C   0  0  0  0  0  0
  -19.5738  -26.6383   21.5209 C   0  0  0  0  0  0
  -18.1914  -26.7915   22.1621 C   0  0  0  0  0  0
  -19.1513  -28.8825   23.2909 C   0  0  0  0  0  0
  -18.9446  -30.1431   23.8923 C   0  0  0  0  0  0
  -17.6453  -30.6577   24.0565 C   0  0  0  0  0  0
  -25.9023  -34.9490   23.5146 C   0  0  0  0  0  0
  -16.5342  -29.9084   23.6322 C   0  0  0  0  0  0
  -16.7254  -28.6498   23.0345 C   0  0  0  0  0  0
  -26.4459  -31.6604   25.0719 C   0  0  0  0  0  0
  -25.3746  -31.3700   26.1482 C   0  0  0  0  0  0
  -27.0281  -30.3054   24.6056 C   0  0  0  0  0  0
  -27.6054  -32.4311   25.7469 C   0  0  0  0  0  0
  -27.5582  -37.1812   24.8465 C   0  0  0  0  0  0
  -21.4120  -29.3022   22.3741 N   0  0  0  0  0  0
  -26.4295  -37.3803   23.9413 N   0  0  0  0  0  0
  -24.6590  -31.0857   22.1003 N   0  0  0  0  0  0
  -23.4173  -28.8216   23.3042 O   0  0  0  0  0  0
  -28.4104  -26.7714   20.0679 O   0  0  0  0  0  0
  -26.5590  -34.8933   22.4711 O   0  0  0  0  0  0
  -23.5294  -32.1442   23.7546 O   0  0  0  0  0  0
  -29.3312  -17.6319   19.1722 C   0  0  0  0  0  0
  -30.6777  -16.0036   17.9636 C   0  0  0  0  0  0
  -29.3220  -18.4956   18.0466 C   0  0  0  0  0  0
  -29.9930  -16.3836   19.1464 C   0  0  0  0  0  0
  -30.6553  -16.8269   16.8304 C   0  0  0  0  0  0
  -29.9516  -18.0444   16.8535 C   0  0  0  0  0  0
  -27.5760  -20.8000   16.1446 C   0  0  0  0  0  0
  -28.9834  -23.4524   17.3143 C   0  0  0  0  0  0
  -26.7660  -21.9821   14.0243 C   0  0  0  0  0  0
  -28.6757  -19.8780   18.2529 C   0  0  0  0  0  0
  -27.8715  -21.1402   14.6817 C   0  0  0  0  0  0
  -28.5359  -24.7218   18.0296 C   0  0  0  0  0  0
  -29.7033  -25.6606   18.3863 C   0  0  0  0  0  0
  -29.2052  -27.0098   18.9136 C   0  0  0  0  0  0
  -28.7304  -20.9852   17.1598 C   0  0  2  0  0  0
  -31.3281  -16.4477   15.6635 N   0  0  0  0  0  0
  -29.9008  -18.6923   15.6259 N   0  0  0  0  0  0
  -29.9208  -15.5210   20.2869 N   0  0  0  0  0  0
  -28.5380  -22.2882   17.8011 N   0  0  0  0  0  0
  -26.4358  -20.4540   16.4695 O   0  0  0  0  0  0
  -29.7024  -23.5267   16.3176 O   0  0  0  0  0  0
  -31.4633  -12.3348   19.1327 H   0  0  0  0  0  0
  -30.2989  -11.2595   19.8630 H   0  0  0  0  0  0
  -29.7219  -11.6789   17.4572 H   0  0  0  0  0  0
  -29.6620  -13.3961   17.7302 H   0  0  0  0  0  0
  -27.8243  -11.2719   18.8630 H   0  0  0  0  0  0
  -27.3622  -12.5618   17.7843 H   0  0  0  0  0  0
  -27.6780  -14.2324   19.5070 H   0  0  0  0  0  0
  -28.6489  -12.0320   21.4093 H   0  0  0  0  0  0
  -28.4893  -13.7244   21.8071 H   0  0  0  0  0  0
  -25.2759   -9.5679   22.4756 H   0  0  0  0  0  0
  -23.9999   -7.4623   22.7472 H   0  0  0  0  0  0
  -21.0826   -8.8783   19.8956 H   0  0  0  0  0  0
  -22.3696  -10.9675   19.6166 H   0  0  0  0  0  0
  -21.2008   -7.6145   23.9729 H   0  0  0  0  0  0
  -21.1478   -6.0510   25.9084 H   0  0  0  0  0  0
  -22.0601   -2.7608   23.2840 H   0  0  0  0  0  0
  -22.4069  -11.9943   22.4833 H   0  0  0  0  0  0
  -21.1086  -13.1306   22.2584 H   0  0  0  0  0  0
  -24.6599  -15.8402   20.5121 H   0  0  0  0  0  0
  -26.2741  -15.6247   20.0617 H   0  0  0  0  0  0
  -26.7086  -32.5582   23.1201 H   0  0  0  0  0  0
  -25.0027  -33.9814   25.0498 H   0  0  0  0  0  0
  -22.6823  -31.3065   21.4108 H   0  0  0  0  0  0
  -23.3742  -35.9662   23.3316 H   0  0  0  0  0  0
  -24.3580  -36.8918   22.2050 H   0  0  0  0  0  0
  -23.7244  -37.6539   23.6637 H   0  0  0  0  0  0
  -26.0217  -31.6162   20.5883 H   0  0  0  0  0  0
  -26.8106  -30.9115   21.9716 H   0  0  0  0  0  0
  -28.0967  -29.1546   21.1647 H   0  0  0  0  0  0
  -26.1004  -25.9801   19.0435 H   0  0  0  0  0  0
  -23.9902  -27.2774   19.0548 H   0  0  0  0  0  0
  -23.7066  -30.5932   19.4025 H   0  0  0  0  0  0
  -22.7332  -29.2334   19.8750 H   0  0  0  0  0  0
  -25.1276  -36.2002   25.0838 H   0  0  0  0  0  0
  -20.9941  -28.3210   24.1450 H   0  0  0  0  0  0
  -20.5643  -26.2257   23.3600 H   0  0  0  0  0  0
  -21.6627  -26.7429   22.1224 H   0  0  0  0  0  0
  -19.6898  -25.6301   21.1221 H   0  0  0  0  0  0
  -19.6677  -27.3209   20.6751 H   0  0  0  0  0  0
  -17.4182  -26.6658   21.4026 H   0  0  0  0  0  0
  -18.0319  -26.0054   22.9014 H   0  0  0  0  0  0
  -19.7924  -30.7231   24.2308 H   0  0  0  0  0  0
  -17.5012  -31.6263   24.5160 H   0  0  0  0  0  0
  -15.5345  -30.2999   23.7631 H   0  0  0  0  0  0
  -15.8650  -28.0830   22.7050 H   0  0  0  0  0  0
  -24.5900  -30.7065   25.7828 H   0  0  0  0  0  0
  -24.8955  -32.2849   26.4973 H   0  0  0  0  0  0
  -25.8107  -30.8838   27.0217 H   0  0  0  0  0  0
  -26.2800  -29.6817   24.1140 H   0  0  0  0  0  0
  -27.4106  -29.7285   25.4490 H   0  0  0  0  0  0
  -27.8616  -30.4396   23.9155 H   0  0  0  0  0  0
  -27.2689  -33.3599   26.2095 H   0  0  0  0  0  0
  -28.3830  -32.6889   25.0265 H   0  0  0  0  0  0
  -28.0758  -31.8401   26.5340 H   0  0  0  0  0  0
  -28.2614  -38.0098   24.7506 H   0  0  0  0  0  0
  -28.1061  -36.2629   24.6293 H   0  0  0  0  0  0
  -27.2298  -37.1472   25.8869 H   0  0  0  0  0  0
  -20.9265  -29.8752   21.6981 H   0  0  0  0  0  0
  -26.0188  -38.2885   24.1408 H   0  0  0  0  0  0
  -28.8361  -17.9473   20.0809 H   0  0  0  0  0  0
  -31.2175  -15.0709   17.8979 H   0  0  0  0  0  0
  -27.0492  -22.2608   13.0092 H   0  0  0  0  0  0
  -26.5840  -22.9017   14.5826 H   0  0  0  0  0  0
  -25.8258  -21.4326   13.9654 H   0  0  0  0  0  0
  -29.1949  -20.2757   19.1268 H   0  0  0  0  0  0
  -27.6501  -19.7255   18.5915 H   0  0  0  0  0  0
  -28.0051  -20.2115   14.1278 H   0  0  0  0  0  0
  -28.8201  -21.6743   14.6320 H   0  0  0  0  0  0
  -27.9792  -24.4630   18.9305 H   0  0  0  0  0  0
  -27.8377  -25.2411   17.3711 H   0  0  0  0  0  0
  -30.3340  -25.8351   17.5134 H   0  0  0  0  0  0
  -30.3405  -25.1876   19.1345 H   0  0  0  0  0  0
  -28.6557  -27.5340   18.1280 H   0  0  0  0  0  0
  -30.0475  -27.6477   19.1854 H   0  0  0  0  0  0
  -29.7026  -20.9851   16.6666 H   0  0  0  0  0  0
  -31.8772  -15.5986   15.7276 H   0  0  0  0  0  0
  -31.8911  -17.1938   15.2663 H   0  0  0  0  0  0
  -28.9552  -18.8362   15.3038 H   0  0  0  0  0  0
  -30.3289  -18.0340   14.9765 H   0  0  0  0  0  0
  -29.0073  -15.4489   20.7087 H   0  0  0  0  0  0
  -27.9443  -22.3109   18.6187 H   0  0  0  0  0  0
  1 25  1  0  0  0
  1 30  2  0  0  0
  1 88  1  0  0  0
  2  3  1  0  0  0
  2 25  1  0  0  0
  2 92  1  0  0  0
  2 93  1  0  0  0
  3  4  1  0  0  0
  3 94  1  0  0  0
  3 95  1  0  0  0
  4  5  1  0  0  0
  4 96  1  0  0  0
  4 97  1  0  0  0
  5  6  1  0  0  0
  5 26  1  0  0  0
  5 98  1  0  0  0
  6 25  1  0  0  0
  6 99  1  0  0  0
  6100  1  0  0  0
  7  8  2  0  0  0
  7 26  1  0  0  0
  7 29  1  0  0  0
  8  9  1  0  0  0
  8 22  1  0  0  0
  9 10  1  0  0  0
  9 27  2  0  0  0
 10 11  2  0  0  0
 10 15  1  0  0  0
 11 12  1  0  0  0
 11101  1  0  0  0
 12 13  2  0  0  0
 12102  1  0  0  0
 13 14  1  0  0  0
 13 31  1  0  0  0
 14 15  2  0  0  0
 14103  1  0  0  0
 15104  1  0  0  0
 16 17  2  0  0  0
 16 21  1  0  0  0
 16 31  1  0  0  0
 17 18  1  0  0  0
 17105  1  0  0  0
 18 19  2  0  0  0
 18106  1  0  0  0
 19 20  1  0  0  0
 19 24  1  0  0  0
 20 21  2  0  0  0
 20107  1  0  0  0
 21 23  1  0  0  0
 22 28  1  0  0  0
 22 32  2  0  0  0
 26 27  1  0  0  0
 28108  1  0  0  0
 28109  1  0  0  0
 29110  1  0  0  0
 29111  1  0  0  0
 33 34  1  0  0  0
 33 66  1  0  0  0
 33 70  2  0  0  0
 34 36  1  0  0  0
 34 59  1  0  0  0
 34112  1  0  0  0
 35 44  2  0  0  0
 35 45  1  0  0  0
 35 68  1  0  0  0
 36 56  1  0  0  0
 36113  1  0  0  0
 37 39  1  0  0  0
 37 47  1  0  0  0
 37 66  1  0  0  0
 37114  1  0  0  0
 38 43  2  0  0  0
 38 46  1  0  0  0
 38 47  1  0  0  0
 39 64  1  0  0  0
 39 67  2  0  0  0
 40 52  1  0  0  0
 40 53  2  0  0  0
 40 58  1  0  0  0
 41115  1  0  0  0
 41116  1  0  0  0
 41117  1  0  0  0
 41 48  1  0  0  0
 42 43  1  0  0  0
 42 66  1  0  0  0
 42118  1  0  0  0
 42119  1  0  0  0
 43 44  1  0  0  0
 44120  1  0  0  0
 45 46  2  0  0  0
 45121  1  0  0  0
 46122  1  0  0  0
 47123  1  0  0  0
 47124  1  0  0  0
 48 56  1  0  0  0
 48 65  1  0  0  0
 48125  1  0  0  0
 49 50  1  0  0  0
 49 53  1  0  0  0
 49 64  1  0  0  0
 49126  1  0  0  0
 50 51  1  0  0  0
 50127  1  0  0  0
 50128  1  0  0  0
 51 52  1  0  0  0
 51129  1  0  0  0
 51130  1  0  0  0
 52131  1  0  0  0
 52132  1  0  0  0
 53 54  1  0  0  0
 54 55  2  0  0  0
 54133  1  0  0  0
 55 57  1  0  0  0
 55134  1  0  0  0
 56 69  2  0  0  0
 57 58  2  0  0  0
 57135  1  0  0  0
 58136  1  0  0  0
 59 60  1  0  0  0
 59 61  1  0  0  0
 59 62  1  0  0  0
 60137  1  0  0  0
 60138  1  0  0  0
 60139  1  0  0  0
 61140  1  0  0  0
 61141  1  0  0  0
 61142  1  0  0  0
 62143  1  0  0  0
 62144  1  0  0  0
 62145  1  0  0  0
 63 65  1  0  0  0
 63146  1  0  0  0
 63147  1  0  0  0
 63148  1  0  0  0
 64149  1  0  0  0
 65150  1  0  0  0
 68 84  1  0  0  0
 71 73  2  0  0  0
 71 74  1  0  0  0
 71151  1  0  0  0
 72 74  2  0  0  0
 72 75  1  0  0  0
 72152  1  0  0  0
 73 76  1  0  0  0
 73 80  1  0  0  0
 74 88  1  0  0  0
 75 76  2  0  0  0
 75 86  1  0  0  0
 76 87  1  0  0  0
 77 81  1  0  0  0
 77 85  1  0  0  0
 77 90  2  0  0  0
 78 82  1  0  0  0
 78 89  1  0  0  0
 78 91  2  0  0  0
 79 81  1  0  0  0
 79153  1  0  0  0
 79154  1  0  0  0
 79155  1  0  0  0
 80156  1  0  0  0
 80157  1  0  0  0
 80 85  1  0  0  0
 81158  1  0  0  0
 81159  1  0  0  0
 82 83  1  0  0  0
 82160  1  0  0  0
 82161  1  0  0  0
 83 84  1  0  0  0
 83162  1  0  0  0
 83163  1  0  0  0
 84164  1  0  0  0
 84165  1  0  0  0
 85 89  1  0  0  0
 85166  1  0  0  0
 86167  1  0  0  0
 86168  1  0  0  0
 87169  1  0  0  0
 87170  1  0  0  0
 88171  1  0  0  0
 89172  1  0  0  0
M  ISO  4   1 100  68 101  84 101  88 100
M  END
> <chiral flag>
0

> <version>
0

> <s_m_source_file>
/data/baiqing/PycharmProjects/Reinvent-master-3.2/result/LINK_invent/BTK/process_docking_weight1_custom_product_contain_oxygen_bond_distance_aromatic_linkinvent_7_9_3/rearranged_h_0110.sdf

> <i_m_source_file_index>
34

> <r_mmod_Potential_Energy-OPLS-2005>
-241.241989135742

> <r_mmod_Stretch_Energy-OPLS-2005>
35.4837608337402

> <r_mmod_Bend_Energy-OPLS-2005>
106.283912658691

> <r_mmod_Torsional_Energy-OPLS-2005>
314.401550292969

> <r_mmod_Improper_Torsional_Energy-OPLS-2005>
26.3036651611328

> <r_mmod_Van_der_Waal_Energy-OPLS-2005>
173.542526245117

> <r_mmod_Electrostatic_Energy-OPLS-2005>
-669.861022949219

> <r_mmod_Solvation_Energy-OPLS-2005>
-249.359741210938

> <b_mmod_Minimization_Converged-OPLS-2005>
0

> <r_mmod_RMS_Derivative-OPLS-2005>
1.92021918296814

$$$$
35
                    3D
 Structure written by MMmdl.
157165  0  0  1  0            999 V2000
  -30.6923  -14.4624   20.6018 C   0  0  0  0  0  0
  -30.4330  -12.3106   19.4169 C   0  0  0  0  0  0
  -29.4983  -12.5186   18.2063 C   0  0  0  0  0  0
  -28.0188  -12.3761   18.6172 C   0  0  0  0  0  0
  -27.6669  -13.2032   19.8825 C   0  0  2  0  0  0
  -28.7075  -12.9538   20.9975 C   0  0  0  0  0  0
  -25.2591  -13.8142   20.5653 C   0  0  0  0  0  0
  -24.1833  -13.0422   20.9126 C   0  0  0  0  0  0
  -24.6391  -11.6893   20.8708 C   0  0  0  0  0  0
  -23.9050  -10.4284   21.0388 C   0  0  0  0  0  0
  -24.3605   -9.4209   21.9174 C   0  0  0  0  0  0
  -23.6283   -8.2245   22.0752 C   0  0  0  0  0  0
  -22.4266   -8.0279   21.3540 C   0  0  0  0  0  0
  -21.9891   -9.0249   20.4642 C   0  0  0  0  0  0
  -22.7218  -10.2129   20.3046 C   0  0  0  0  0  0
  -21.6853   -6.0729   22.5276 C   0  0  0  0  0  0
  -21.4017   -6.5635   23.8211 C   0  0  0  0  0  0
  -21.3661   -5.6787   24.9173 C   0  0  0  0  0  0
  -21.6043   -4.3050   24.7223 C   0  0  0  0  0  0
  -21.8822   -3.8141   23.4345 C   0  0  0  0  0  0
  -21.9194   -4.6957   22.3399 C   0  0  0  0  0  0
  -22.7861  -13.5232   21.1811 C   0  0  0  0  0  0
  -22.1661   -4.2142   21.0976 F   0  0  0  0  0  0
  -21.5627   -3.4536   25.7735 F   0  0  0  0  0  0
  -30.0443  -13.2732   20.4592 N   0  0  0  0  0  0
  -26.3052  -12.9313   20.3395 N   0  0  0  0  0  0
  -25.9327  -11.6474   20.5766 N   0  0  0  0  0  0
  -22.0505  -12.8241   22.0382 N   0  0  0  0  0  0
  -25.4296  -15.1857   20.4096 N   0  0  0  0  0  0
  -31.7858  -14.6974   20.0788 O   0  0  0  0  0  0
  -21.6637   -6.8873   21.4239 O   0  0  0  0  0  0
  -22.3541  -14.5544   20.6672 O   0  0  0  0  0  0
  -24.6147  -31.8681   23.2098 C   0  0  0  0  0  0
  -25.9039  -32.4826   23.8397 C   0  0  1  0  0  0
  -27.2379  -27.4334   20.1012 C   0  0  0  0  0  0
  -25.5893  -33.8624   24.2326 N   0  0  0  0  0  0
  -23.4038  -30.4897   21.5504 C   0  0  2  0  0  0
  -24.8519  -28.9534   20.1177 C   0  0  0  0  0  0
  -22.7412  -29.4656   22.4996 C   0  0  0  0  0  0
  -18.0274  -28.1381   22.8495 C   0  0  0  0  0  0
  -24.1485  -36.7318   23.2638 C   0  0  0  0  0  0
  -25.9326  -30.8330   21.3632 C   0  0  0  0  0  0
  -26.0125  -29.4667   20.7116 C   0  0  0  0  0  0
  -27.2112  -28.7159   20.6962 C   0  0  0  0  0  0
  -26.0621  -26.9352   19.5000 C   0  0  0  0  0  0
  -24.8713  -27.6864   19.5088 C   0  0  0  0  0  0
  -23.6135  -29.8205   20.1661 C   0  0  0  0  0  0
  -25.4105  -36.3114   24.0338 C   0  0  1  0  0  0
  -20.5864  -28.3666   23.1324 C   0  0  2  0  0  0
  -20.6766  -26.9404   22.5421 C   0  0  0  0  0  0
  -19.5743  -26.6390   21.5218 C   0  0  0  0  0  0
  -18.1921  -26.7928   22.1627 C   0  0  0  0  0  0
  -19.1523  -28.8841   23.2906 C   0  0  0  0  0  0
  -18.9451  -30.1447   23.8916 C   0  0  0  0  0  0
  -17.6453  -30.6586   24.0571 C   0  0  0  0  0  0
  -25.9035  -34.9480   23.5130 C   0  0  0  0  0  0
  -16.5344  -29.9090   23.6325 C   0  0  0  0  0  0
  -16.7262  -28.6507   23.0346 C   0  0  0  0  0  0
  -26.4464  -31.6605   25.0726 C   0  0  0  0  0  0
  -25.3730  -31.3724   26.1477 C   0  0  0  0  0  0
  -27.0294  -30.3046   24.6107 C   0  0  0  0  0  0
  -27.6046  -32.4324   25.7478 C   0  0  0  0  0  0
  -27.5583  -37.1808   24.8460 C   0  0  0  0  0  0
  -21.4139  -29.3030   22.3730 N   0  0  0  0  0  0
  -26.4292  -37.3797   23.9411 N   0  0  0  0  0  0
  -24.6686  -31.0778   22.0998 N   0  0  0  0  0  0
  -23.4180  -28.8207   23.3048 O   0  0  0  0  0  0
  -28.3972  -26.6886   20.0838 O   0  0  0  0  0  0
  -26.5602  -34.8932   22.4695 O   0  0  0  0  0  0
  -23.5339  -32.1431   23.7490 O   0  0  0  0  0  0
  -30.7435  -19.0120   20.4803 C   0  0  0  0  0  0
  -30.9560  -17.6191   20.6272 C   0  0  0  0  0  0
  -28.4888  -18.7625   21.3434 C   0  0  0  0  0  0
  -29.5041  -19.6019   20.8370 C   0  0  0  0  0  0
  -29.9268  -16.7873   21.1316 C   0  0  0  0  0  0
  -28.7007  -17.3769   21.4950 C   0  0  0  0  0  0
  -29.3403  -24.4031   20.1825 C   0  0  0  0  0  0
  -31.1518  -24.0090   21.8702 C   0  0  0  0  0  0
  -28.2897  -25.3981   20.7156 C   0  0  0  0  0  0
  -30.3012  -21.9789   20.6064 C   0  0  0  0  0  0
  -29.9226  -23.3786   21.1892 C   0  0  2  0  0  0
  -30.0205  -15.3761   21.3241 N   0  0  0  0  0  0
  -29.2296  -20.9810   20.7086 N   0  0  0  0  0  0
  -29.7253  -24.4464   19.0088 O   0  0  0  0  0  0
  -27.7101  -16.5924   21.9854 F   0  0  0  0  0  0
  -31.4759  -12.4231   19.1145 H   0  0  0  0  0  0
  -30.3443  -11.2927   19.7999 H   0  0  0  0  0  0
  -29.7373  -11.8019   17.4195 H   0  0  0  0  0  0
  -29.6666  -13.5089   17.7791 H   0  0  0  0  0  0
  -27.8260  -11.3186   18.8021 H   0  0  0  0  0  0
  -27.3701  -12.6616   17.7887 H   0  0  0  0  0  0
  -27.7192  -14.2560   19.6037 H   0  0  0  0  0  0
  -28.6839  -11.9076   21.3058 H   0  0  0  0  0  0
  -28.4559  -13.5164   21.8972 H   0  0  0  0  0  0
  -25.2757   -9.5689   22.4737 H   0  0  0  0  0  0
  -23.9994   -7.4643   22.7480 H   0  0  0  0  0  0
  -21.0814   -8.8768   19.8955 H   0  0  0  0  0  0
  -22.3676  -10.9665   19.6151 H   0  0  0  0  0  0
  -21.2011   -7.6143   23.9712 H   0  0  0  0  0  0
  -21.1479   -6.0516   25.9074 H   0  0  0  0  0  0
  -22.0598   -2.7602   23.2850 H   0  0  0  0  0  0
  -22.4115  -11.9906   22.4779 H   0  0  0  0  0  0
  -21.1130  -13.1292   22.2592 H   0  0  0  0  0  0
  -24.6777  -15.8454   20.5731 H   0  0  0  0  0  0
  -26.3213  -15.6356   20.2459 H   0  0  0  0  0  0
  -26.7119  -32.5542   23.1173 H   0  0  0  0  0  0
  -25.0032  -33.9792   25.0462 H   0  0  0  0  0  0
  -22.6918  -31.3059   21.4102 H   0  0  0  0  0  0
  -23.3743  -35.9655   23.3307 H   0  0  0  0  0  0
  -24.3579  -36.8925   22.2050 H   0  0  0  0  0  0
  -23.7241  -37.6528   23.6647 H   0  0  0  0  0  0
  -26.0453  -31.5990   20.5948 H   0  0  0  0  0  0
  -26.8201  -30.8875   21.9823 H   0  0  0  0  0  0
  -28.1092  -29.1097   21.1518 H   0  0  0  0  0  0
  -26.0647  -25.9688   19.0155 H   0  0  0  0  0  0
  -23.9807  -27.2861   19.0439 H   0  0  0  0  0  0
  -23.7230  -30.5953   19.4063 H   0  0  0  0  0  0
  -22.7374  -29.2409   19.8696 H   0  0  0  0  0  0
  -25.1279  -36.1981   25.0831 H   0  0  0  0  0  0
  -20.9951  -28.3236   24.1447 H   0  0  0  0  0  0
  -20.5677  -26.2274   23.3605 H   0  0  0  0  0  0
  -21.6637  -26.7455   22.1210 H   0  0  0  0  0  0
  -19.6906  -25.6307   21.1233 H   0  0  0  0  0  0
  -19.6683  -27.3214   20.6761 H   0  0  0  0  0  0
  -17.4191  -26.6682   21.4028 H   0  0  0  0  0  0
  -18.0317  -26.0066   22.9017 H   0  0  0  0  0  0
  -19.7928  -30.7260   24.2292 H   0  0  0  0  0  0
  -17.5009  -31.6266   24.5171 H   0  0  0  0  0  0
  -15.5346  -30.3000   23.7637 H   0  0  0  0  0  0
  -15.8662  -28.0835   22.7047 H   0  0  0  0  0  0
  -24.5883  -30.7095   25.7812 H   0  0  0  0  0  0
  -24.8950  -32.2891   26.4943 H   0  0  0  0  0  0
  -25.8077  -30.8870   27.0223 H   0  0  0  0  0  0
  -26.2842  -29.6813   24.1149 H   0  0  0  0  0  0
  -27.4047  -29.7279   25.4572 H   0  0  0  0  0  0
  -27.8684  -30.4363   23.9271 H   0  0  0  0  0  0
  -27.2667  -33.3607   26.2096 H   0  0  0  0  0  0
  -28.3824  -32.6912   25.0281 H   0  0  0  0  0  0
  -28.0749  -31.8427   26.5355 H   0  0  0  0  0  0
  -28.2599  -38.0107   24.7518 H   0  0  0  0  0  0
  -28.1080  -36.2643   24.6264 H   0  0  0  0  0  0
  -27.2309  -37.1433   25.8866 H   0  0  0  0  0  0
  -20.9301  -29.8747   21.6947 H   0  0  0  0  0  0
  -26.0182  -38.2876   24.1417 H   0  0  0  0  0  0
  -31.5475  -19.6136   20.0821 H   0  0  0  0  0  0
  -31.9148  -17.2067   20.3494 H   0  0  0  0  0  0
  -27.5298  -19.1705   21.6263 H   0  0  0  0  0  0
  -30.9280  -24.9948   22.2805 H   0  0  0  0  0  0
  -31.9809  -24.1220   21.1699 H   0  0  0  0  0  0
  -31.5001  -23.3891   22.6970 H   0  0  0  0  0  0
  -28.4239  -25.5202   21.7905 H   0  0  0  0  0  0
  -27.3066  -24.9522   20.5680 H   0  0  0  0  0  0
  -31.1744  -21.6032   21.1421 H   0  0  0  0  0  0
  -30.6087  -22.0675   19.5630 H   0  0  0  0  0  0
  -29.1731  -23.2381   21.9690 H   0  0  0  0  0  0
  -29.2112  -14.9909   21.7885 H   0  0  0  0  0  0
  -28.3174  -21.3071   21.0170 H   0  0  0  0  0  0
  1 25  1  0  0  0
  1 30  2  0  0  0
  1 82  1  0  0  0
  2  3  1  0  0  0
  2 25  1  0  0  0
  2 86  1  0  0  0
  2 87  1  0  0  0
  3  4  1  0  0  0
  3 88  1  0  0  0
  3 89  1  0  0  0
  4  5  1  0  0  0
  4 90  1  0  0  0
  4 91  1  0  0  0
  5  6  1  0  0  0
  5 26  1  0  0  0
  5 92  1  0  0  0
  6 25  1  0  0  0
  6 93  1  0  0  0
  6 94  1  0  0  0
  7  8  2  0  0  0
  7 26  1  0  0  0
  7 29  1  0  0  0
  8  9  1  0  0  0
  8 22  1  0  0  0
  9 10  1  0  0  0
  9 27  2  0  0  0
 10 11  2  0  0  0
 10 15  1  0  0  0
 11 12  1  0  0  0
 11 95  1  0  0  0
 12 13  2  0  0  0
 12 96  1  0  0  0
 13 14  1  0  0  0
 13 31  1  0  0  0
 14 15  2  0  0  0
 14 97  1  0  0  0
 15 98  1  0  0  0
 16 17  2  0  0  0
 16 21  1  0  0  0
 16 31  1  0  0  0
 17 18  1  0  0  0
 17 99  1  0  0  0
 18 19  2  0  0  0
 18100  1  0  0  0
 19 20  1  0  0  0
 19 24  1  0  0  0
 20 21  2  0  0  0
 20101  1  0  0  0
 21 23  1  0  0  0
 22 28  1  0  0  0
 22 32  2  0  0  0
 26 27  1  0  0  0
 28102  1  0  0  0
 28103  1  0  0  0
 29104  1  0  0  0
 29105  1  0  0  0
 33 34  1  0  0  0
 33 66  1  0  0  0
 33 70  2  0  0  0
 34 36  1  0  0  0
 34 59  1  0  0  0
 34106  1  0  0  0
 35 44  2  0  0  0
 35 45  1  0  0  0
 35 68  1  0  0  0
 36 56  1  0  0  0
 36107  1  0  0  0
 37 39  1  0  0  0
 37 47  1  0  0  0
 37 66  1  0  0  0
 37108  1  0  0  0
 38 43  2  0  0  0
 38 46  1  0  0  0
 38 47  1  0  0  0
 39 64  1  0  0  0
 39 67  2  0  0  0
 40 52  1  0  0  0
 40 53  2  0  0  0
 40 58  1  0  0  0
 41109  1  0  0  0
 41110  1  0  0  0
 41111  1  0  0  0
 41 48  1  0  0  0
 42 43  1  0  0  0
 42 66  1  0  0  0
 42112  1  0  0  0
 42113  1  0  0  0
 43 44  1  0  0  0
 44114  1  0  0  0
 45 46  2  0  0  0
 45115  1  0  0  0
 46116  1  0  0  0
 47117  1  0  0  0
 47118  1  0  0  0
 48 56  1  0  0  0
 48 65  1  0  0  0
 48119  1  0  0  0
 49 50  1  0  0  0
 49 53  1  0  0  0
 49 64  1  0  0  0
 49120  1  0  0  0
 50 51  1  0  0  0
 50121  1  0  0  0
 50122  1  0  0  0
 51 52  1  0  0  0
 51123  1  0  0  0
 51124  1  0  0  0
 52125  1  0  0  0
 52126  1  0  0  0
 53 54  1  0  0  0
 54 55  2  0  0  0
 54127  1  0  0  0
 55 57  1  0  0  0
 55128  1  0  0  0
 56 69  2  0  0  0
 57 58  2  0  0  0
 57129  1  0  0  0
 58130  1  0  0  0
 59 60  1  0  0  0
 59 61  1  0  0  0
 59 62  1  0  0  0
 60131  1  0  0  0
 60132  1  0  0  0
 60133  1  0  0  0
 61134  1  0  0  0
 61135  1  0  0  0
 61136  1  0  0  0
 62137  1  0  0  0
 62138  1  0  0  0
 62139  1  0  0  0
 63 65  1  0  0  0
 63140  1  0  0  0
 63141  1  0  0  0
 63142  1  0  0  0
 64143  1  0  0  0
 65144  1  0  0  0
 68 79  1  0  0  0
 71 72  2  0  0  0
 71 74  1  0  0  0
 71145  1  0  0  0
 72 75  1  0  0  0
 72146  1  0  0  0
 73 74  2  0  0  0
 73 76  1  0  0  0
 73147  1  0  0  0
 74 83  1  0  0  0
 75 76  2  0  0  0
 75 82  1  0  0  0
 76 85  1  0  0  0
 77 79  1  0  0  0
 77 81  1  0  0  0
 77 84  2  0  0  0
 78148  1  0  0  0
 78149  1  0  0  0
 78150  1  0  0  0
 78 81  1  0  0  0
 79151  1  0  0  0
 79152  1  0  0  0
 80 81  1  0  0  0
 80 83  1  0  0  0
 80153  1  0  0  0
 80154  1  0  0  0
 81155  1  0  0  0
 82156  1  0  0  0
 83157  1  0  0  0
M  ISO  4   1 100  68 101  79 101  82 100
M  END
> <chiral flag>
0

> <version>
0

> <s_m_source_file>
/data/baiqing/PycharmProjects/Reinvent-master-3.2/result/LINK_invent/BTK/process_docking_weight1_custom_product_contain_oxygen_bond_distance_aromatic_linkinvent_7_9_3/rearranged_h_0110.sdf

> <i_m_source_file_index>
35

> <r_mmod_Potential_Energy-OPLS-2005>
-37.4135704040527

> <r_mmod_Stretch_Energy-OPLS-2005>
39.0920944213867

> <r_mmod_Bend_Energy-OPLS-2005>
110.11060333252

> <r_mmod_Torsional_Energy-OPLS-2005>
230.429138183594

> <r_mmod_Improper_Torsional_Energy-OPLS-2005>
5.22195482254028

> <r_mmod_Van_der_Waal_Energy-OPLS-2005>
149.852508544922

> <r_mmod_Electrostatic_Energy-OPLS-2005>
-355.524108886719

> <r_mmod_Solvation_Energy-OPLS-2005>
-227.495452880859

> <b_mmod_Minimization_Converged-OPLS-2005>
0

> <r_mmod_RMS_Derivative-OPLS-2005>
0.830708563327789

$$$$
36
                    3D
 Structure written by MMmdl.
164172  0  0  1  0            999 V2000
  -30.7194  -14.6626   20.3993 C   0  0  0  0  0  0
  -30.4117  -12.4001   19.4676 C   0  0  0  0  0  0
  -29.4988  -12.4693   18.2258 C   0  0  0  0  0  0
  -28.0281  -12.3200   18.6456 C   0  0  0  0  0  0
  -27.6403  -13.2361   19.8366 C   0  0  2  0  0  0
  -28.6895  -13.1923   20.9715 C   0  0  0  0  0  0
  -25.2500  -13.8172   20.5775 C   0  0  0  0  0  0
  -24.1776  -13.0427   20.9195 C   0  0  0  0  0  0
  -24.6350  -11.6889   20.8664 C   0  0  0  0  0  0
  -23.9028  -10.4261   21.0332 C   0  0  0  0  0  0
  -24.3565   -9.4185   21.9136 C   0  0  0  0  0  0
  -23.6236   -8.2238   22.0750 C   0  0  0  0  0  0
  -22.4253   -8.0246   21.3538 C   0  0  0  0  0  0
  -21.9860   -9.0202   20.4658 C   0  0  0  0  0  0
  -22.7169  -10.2087   20.3024 C   0  0  0  0  0  0
  -21.6852   -6.0683   22.5254 C   0  0  0  0  0  0
  -21.4028   -6.5600   23.8177 C   0  0  0  0  0  0
  -21.3666   -5.6772   24.9150 C   0  0  0  0  0  0
  -21.6051   -4.3029   24.7221 C   0  0  0  0  0  0
  -21.8827   -3.8100   23.4347 C   0  0  0  0  0  0
  -21.9197   -4.6907   22.3395 C   0  0  0  0  0  0
  -22.7774  -13.5191   21.1826 C   0  0  0  0  0  0
  -22.1659   -4.2082   21.0972 F   0  0  0  0  0  0
  -21.5651   -3.4526   25.7746 F   0  0  0  0  0  0
  -30.0022  -13.4874   20.3842 N   0  0  0  0  0  0
  -26.2910  -12.9405   20.3222 N   0  0  0  0  0  0
  -25.9307  -11.6536   20.5708 N   0  0  0  0  0  0
  -22.0396  -12.8242   22.0388 N   0  0  0  0  0  0
  -25.4204  -15.1911   20.4362 N   0  0  0  0  0  0
  -31.9221  -14.6158   20.1410 O   0  0  0  0  0  0
  -21.6649   -6.8836   21.4237 O   0  0  0  0  0  0
  -22.3488  -14.5474   20.6631 O   0  0  0  0  0  0
  -24.6328  -31.8580   23.1986 C   0  0  0  0  0  0
  -25.9157  -32.4768   23.8335 C   0  0  1  0  0  0
  -27.2406  -27.3271   20.1040 C   0  0  0  0  0  0
  -25.5966  -33.8578   24.2269 N   0  0  0  0  0  0
  -23.4298  -30.4785   21.5465 C   0  0  2  0  0  0
  -24.8756  -28.9296   20.1152 C   0  0  0  0  0  0
  -22.7488  -29.4636   22.4964 C   0  0  0  0  0  0
  -18.0299  -28.1456   22.8482 C   0  0  0  0  0  0
  -24.1493  -36.7282   23.2637 C   0  0  0  0  0  0
  -25.9701  -30.7908   21.3692 C   0  0  0  0  0  0
  -26.0475  -29.4195   20.7080 C   0  0  0  0  0  0
  -27.2383  -28.6331   20.6848 C   0  0  0  0  0  0
  -26.0512  -26.8935   19.4800 C   0  0  0  0  0  0
  -24.8798  -27.6719   19.4921 C   0  0  0  0  0  0
  -23.6418  -29.8094   20.1645 C   0  0  0  0  0  0
  -25.4122  -36.3098   24.0325 C   0  0  1  0  0  0
  -20.5899  -28.3766   23.1277 C   0  0  2  0  0  0
  -20.6811  -26.9494   22.5404 C   0  0  0  0  0  0
  -19.5774  -26.6443   21.5227 C   0  0  0  0  0  0
  -18.1949  -26.7994   22.1618 C   0  0  0  0  0  0
  -19.1547  -28.8926   23.2879 C   0  0  0  0  0  0
  -18.9462  -30.1520   23.8915 C   0  0  0  0  0  0
  -17.6451  -30.6640   24.0604 C   0  0  0  0  0  0
  -25.9043  -34.9451   23.5083 C   0  0  0  0  0  0
  -16.5344  -29.9151   23.6346 C   0  0  0  0  0  0
  -16.7279  -28.6583   23.0337 C   0  0  0  0  0  0
  -26.4519  -31.6597   25.0724 C   0  0  0  0  0  0
  -25.3719  -31.3743   26.1424 C   0  0  0  0  0  0
  -27.0379  -30.3030   24.6183 C   0  0  0  0  0  0
  -27.6114  -32.4314   25.7478 C   0  0  0  0  0  0
  -27.5570  -37.1788   24.8455 C   0  0  0  0  0  0
  -21.4192  -29.3097   22.3667 N   0  0  0  0  0  0
  -26.4287  -37.3789   23.9402 N   0  0  0  0  0  0
  -24.6989  -31.0558   22.0966 N   0  0  0  0  0  0
  -23.4153  -28.8187   23.3101 O   0  0  0  0  0  0
  -28.3472  -26.4616   20.1410 O   0  0  0  0  0  0
  -26.5614  -34.8919   22.4644 O   0  0  0  0  0  0
  -23.5481  -32.1398   23.7283 O   0  0  0  0  0  0
  -28.4581  -20.3761   20.0738 C   0  0  0  0  0  0
  -30.0164  -18.4627   20.4257 C   0  0  0  0  0  0
  -30.8565  -19.3885   21.1497 C   0  0  0  0  0  0
  -28.7931  -18.9951   19.9030 C   0  0  0  0  0  0
  -29.2951  -21.3012   20.7493 C   0  0  0  0  0  0
  -30.5028  -20.7737   21.2806 C   0  0  0  0  0  0
  -32.3559  -17.8061   22.4682 C   0  0  0  0  0  0
  -32.0926  -18.9855   21.8739 C   0  0  0  0  0  0
  -30.5756  -17.0788   20.0130 C   0  0  0  0  0  0
  -28.0162  -25.2916   22.2194 C   0  0  0  0  0  0
  -32.1387  -22.4736   21.2397 C   0  0  0  0  0  0
  -29.0994  -23.8909   20.3160 C   0  0  0  0  0  0
  -28.1133  -25.1006   20.6908 C   0  0  2  0  0  0
  -27.8673  -18.2137   19.1918 N   0  0  0  0  0  0
  -28.8435  -22.6262   21.0780 N   0  0  0  0  0  0
  -30.0714  -15.8811   20.4892 N   0  0  0  0  0  0
  -31.5153  -17.1288   19.2048 O   0  0  0  0  0  0
  -31.3163  -21.6068   22.0126 O   0  0  0  0  0  0
  -31.4566  -12.4766   19.1624 H   0  0  0  0  0  0
  -30.3247  -11.4345   19.9681 H   0  0  0  0  0  0
  -29.7676  -11.6745   17.5257 H   0  0  0  0  0  0
  -29.6368  -13.4151   17.6992 H   0  0  0  0  0  0
  -27.8879  -11.2752   18.9209 H   0  0  0  0  0  0
  -27.3674  -12.4983   17.7952 H   0  0  0  0  0  0
  -27.6367  -14.2553   19.4425 H   0  0  0  0  0  0
  -28.7042  -12.2066   21.4401 H   0  0  0  0  0  0
  -28.4445  -13.9128   21.7516 H   0  0  0  0  0  0
  -25.2717   -9.5687   22.4668 H   0  0  0  0  0  0
  -23.9928   -7.4692   22.7498 H   0  0  0  0  0  0
  -21.0776   -8.8707   19.8996 H   0  0  0  0  0  0
  -22.3590  -10.9595   19.6110 H   0  0  0  0  0  0
  -21.2032   -7.6110   23.9654 H   0  0  0  0  0  0
  -21.1482   -6.0511   25.9050 H   0  0  0  0  0  0
  -22.0601   -2.7554   23.2873 H   0  0  0  0  0  0
  -22.4023  -11.9962   22.4860 H   0  0  0  0  0  0
  -21.1011  -13.1276   22.2519 H   0  0  0  0  0  0
  -24.6652  -15.8369   20.6379 H   0  0  0  0  0  0
  -26.2906  -15.6502   20.1943 H   0  0  0  0  0  0
  -26.7231  -32.5443   23.1093 H   0  0  0  0  0  0
  -25.0182  -33.9730   25.0470 H   0  0  0  0  0  0
  -22.7285  -31.3014   21.3962 H   0  0  0  0  0  0
  -23.3749  -35.9609   23.3308 H   0  0  0  0  0  0
  -24.3579  -36.8882   22.2034 H   0  0  0  0  0  0
  -23.7182  -37.6468   23.6643 H   0  0  0  0  0  0
  -26.0956  -31.5554   20.6032 H   0  0  0  0  0  0
  -26.8520  -30.8400   21.9977 H   0  0  0  0  0  0
  -28.1487  -29.0080   21.1362 H   0  0  0  0  0  0
  -26.0162  -25.9344   18.9846 H   0  0  0  0  0  0
  -23.9879  -27.2920   19.0176 H   0  0  0  0  0  0
  -23.7653  -30.5852   19.4068 H   0  0  0  0  0  0
  -22.7638  -29.2364   19.8639 H   0  0  0  0  0  0
  -25.1281  -36.1975   25.0804 H   0  0  0  0  0  0
  -20.9978  -28.3387   24.1403 H   0  0  0  0  0  0
  -20.5792  -26.2383   23.3607 H   0  0  0  0  0  0
  -21.6678  -26.7597   22.1147 H   0  0  0  0  0  0
  -19.6953  -25.6354   21.1278 H   0  0  0  0  0  0
  -19.6727  -27.3250   20.6754 H   0  0  0  0  0  0
  -17.4221  -26.6763   21.4011 H   0  0  0  0  0  0
  -18.0351  -26.0162   22.9037 H   0  0  0  0  0  0
  -19.7932  -30.7366   24.2276 H   0  0  0  0  0  0
  -17.5002  -31.6306   24.5233 H   0  0  0  0  0  0
  -15.5348  -30.3051   23.7683 H   0  0  0  0  0  0
  -15.8676  -28.0922   22.7003 H   0  0  0  0  0  0
  -24.5912  -30.7106   25.7681 H   0  0  0  0  0  0
  -24.8900  -32.2927   26.4789 H   0  0  0  0  0  0
  -25.8020  -30.8897   27.0199 H   0  0  0  0  0  0
  -26.2986  -29.6744   24.1217 H   0  0  0  0  0  0
  -27.4109  -29.7319   25.4685 H   0  0  0  0  0  0
  -27.8811  -30.4303   23.9401 H   0  0  0  0  0  0
  -27.2767  -33.3610   26.2081 H   0  0  0  0  0  0
  -28.3909  -32.6849   25.0288 H   0  0  0  0  0  0
  -28.0813  -31.8389   26.5331 H   0  0  0  0  0  0
  -28.2606  -38.0079   24.7539 H   0  0  0  0  0  0
  -28.1067  -36.2604   24.6284 H   0  0  0  0  0  0
  -27.2302  -37.1448   25.8869 H   0  0  0  0  0  0
  -20.9437  -29.8719   21.6742 H   0  0  0  0  0  0
  -26.0182  -38.2866   24.1432 H   0  0  0  0  0  0
  -27.5120  -20.7309   19.6951 H   0  0  0  0  0  0
  -33.3019  -17.6344   22.9636 H   0  0  0  0  0  0
  -31.6464  -16.9968   22.4878 H   0  0  0  0  0  0
  -32.8724  -19.7336   21.9250 H   0  0  0  0  0  0
  -28.9810  -25.5478   22.6604 H   0  0  0  0  0  0
  -27.6452  -24.3985   22.7237 H   0  0  0  0  0  0
  -27.3176  -26.0923   22.4552 H   0  0  0  0  0  0
  -31.8963  -22.4684   20.1751 H   0  0  0  0  0  0
  -33.1884  -22.2004   21.3459 H   0  0  0  0  0  0
  -32.0276  -23.4895   21.6166 H   0  0  0  0  0  0
  -30.1191  -24.1996   20.5456 H   0  0  0  0  0  0
  -29.0833  -23.6920   19.2423 H   0  0  0  0  0  0
  -27.1415  -24.7464   20.3553 H   0  0  0  0  0  0
  -28.2010  -17.4473   18.6158 H   0  0  0  0  0  0
  -27.1404  -18.7161   18.6911 H   0  0  0  0  0  0
  -29.0297  -22.8030   22.0620 H   0  0  0  0  0  0
  -29.1616  -15.9248   20.9165 H   0  0  0  0  0  0
  1 25  1  0  0  0
  1 30  2  0  0  0
  1 86  1  0  0  0
  2  3  1  0  0  0
  2 25  1  0  0  0
  2 89  1  0  0  0
  2 90  1  0  0  0
  3  4  1  0  0  0
  3 91  1  0  0  0
  3 92  1  0  0  0
  4  5  1  0  0  0
  4 93  1  0  0  0
  4 94  1  0  0  0
  5  6  1  0  0  0
  5 26  1  0  0  0
  5 95  1  0  0  0
  6 25  1  0  0  0
  6 96  1  0  0  0
  6 97  1  0  0  0
  7  8  2  0  0  0
  7 26  1  0  0  0
  7 29  1  0  0  0
  8  9  1  0  0  0
  8 22  1  0  0  0
  9 10  1  0  0  0
  9 27  2  0  0  0
 10 11  2  0  0  0
 10 15  1  0  0  0
 11 12  1  0  0  0
 11 98  1  0  0  0
 12 13  2  0  0  0
 12 99  1  0  0  0
 13 14  1  0  0  0
 13 31  1  0  0  0
 14 15  2  0  0  0
 14100  1  0  0  0
 15101  1  0  0  0
 16 17  2  0  0  0
 16 21  1  0  0  0
 16 31  1  0  0  0
 17 18  1  0  0  0
 17102  1  0  0  0
 18 19  2  0  0  0
 18103  1  0  0  0
 19 20  1  0  0  0
 19 24  1  0  0  0
 20 21  2  0  0  0
 20104  1  0  0  0
 21 23  1  0  0  0
 22 28  1  0  0  0
 22 32  2  0  0  0
 26 27  1  0  0  0
 28105  1  0  0  0
 28106  1  0  0  0
 29107  1  0  0  0
 29108  1  0  0  0
 33 34  1  0  0  0
 33 66  1  0  0  0
 33 70  2  0  0  0
 34 36  1  0  0  0
 34 59  1  0  0  0
 34109  1  0  0  0
 35 44  2  0  0  0
 35 45  1  0  0  0
 35 68  1  0  0  0
 36 56  1  0  0  0
 36110  1  0  0  0
 37 39  1  0  0  0
 37 47  1  0  0  0
 37 66  1  0  0  0
 37111  1  0  0  0
 38 43  2  0  0  0
 38 46  1  0  0  0
 38 47  1  0  0  0
 39 64  1  0  0  0
 39 67  2  0  0  0
 40 52  1  0  0  0
 40 53  2  0  0  0
 40 58  1  0  0  0
 41112  1  0  0  0
 41113  1  0  0  0
 41114  1  0  0  0
 41 48  1  0  0  0
 42 43  1  0  0  0
 42 66  1  0  0  0
 42115  1  0  0  0
 42116  1  0  0  0
 43 44  1  0  0  0
 44117  1  0  0  0
 45 46  2  0  0  0
 45118  1  0  0  0
 46119  1  0  0  0
 47120  1  0  0  0
 47121  1  0  0  0
 48 56  1  0  0  0
 48 65  1  0  0  0
 48122  1  0  0  0
 49 50  1  0  0  0
 49 53  1  0  0  0
 49 64  1  0  0  0
 49123  1  0  0  0
 50 51  1  0  0  0
 50124  1  0  0  0
 50125  1  0  0  0
 51 52  1  0  0  0
 51126  1  0  0  0
 51127  1  0  0  0
 52128  1  0  0  0
 52129  1  0  0  0
 53 54  1  0  0  0
 54 55  2  0  0  0
 54130  1  0  0  0
 55 57  1  0  0  0
 55131  1  0  0  0
 56 69  2  0  0  0
 57 58  2  0  0  0
 57132  1  0  0  0
 58133  1  0  0  0
 59 60  1  0  0  0
 59 61  1  0  0  0
 59 62  1  0  0  0
 60134  1  0  0  0
 60135  1  0  0  0
 60136  1  0  0  0
 61137  1  0  0  0
 61138  1  0  0  0
 61139  1  0  0  0
 62140  1  0  0  0
 62141  1  0  0  0
 62142  1  0  0  0
 63 65  1  0  0  0
 63143  1  0  0  0
 63144  1  0  0  0
 63145  1  0  0  0
 64146  1  0  0  0
 65147  1  0  0  0
 68 83  1  0  0  0
 71 74  2  0  0  0
 71 75  1  0  0  0
 71148  1  0  0  0
 72 73  2  0  0  0
 72 74  1  0  0  0
 72 79  1  0  0  0
 73 76  1  0  0  0
 73 78  1  0  0  0
 74 84  1  0  0  0
 75 76  2  0  0  0
 75 85  1  0  0  0
 76 88  1  0  0  0
 77 78  2  0  0  0
 77149  1  0  0  0
 77150  1  0  0  0
 78151  1  0  0  0
 79 86  1  0  0  0
 79 87  2  0  0  0
 80152  1  0  0  0
 80153  1  0  0  0
 80154  1  0  0  0
 80 83  1  0  0  0
 81 88  1  0  0  0
 81155  1  0  0  0
 81156  1  0  0  0
 81157  1  0  0  0
 82 83  1  0  0  0
 82 85  1  0  0  0
 82158  1  0  0  0
 82159  1  0  0  0
 83160  1  0  0  0
 84161  1  0  0  0
 84162  1  0  0  0
 85163  1  0  0  0
 86164  1  0  0  0
M  ISO  4   1 100  68 101  83 101  86 100
M  END
> <chiral flag>
0

> <version>
0

> <s_m_source_file>
/data/baiqing/PycharmProjects/Reinvent-master-3.2/result/LINK_invent/BTK/process_docking_weight1_custom_product_contain_oxygen_bond_distance_aromatic_linkinvent_7_9_3/rearranged_h_0110.sdf

> <i_m_source_file_index>
36

> <r_mmod_Potential_Energy-OPLS-2005>
300.060333251953

> <r_mmod_Stretch_Energy-OPLS-2005>
91.0639724731445

> <r_mmod_Bend_Energy-OPLS-2005>
162.689453125

> <r_mmod_Torsional_Energy-OPLS-2005>
350.676055908203

> <r_mmod_Improper_Torsional_Energy-OPLS-2005>
16.3523807525635

> <r_mmod_Van_der_Waal_Energy-OPLS-2005>
162.491195678711

> <r_mmod_Electrostatic_Energy-OPLS-2005>
-316.106353759766

> <r_mmod_Solvation_Energy-OPLS-2005>
-230.661911010742

> <b_mmod_Minimization_Converged-OPLS-2005>
0

> <r_mmod_RMS_Derivative-OPLS-2005>
6.60300970077515

$$$$
37
                    3D
 Structure written by MMmdl.
161169  0  0  1  0            999 V2000
  -30.6159  -15.0433   20.4294 C   0  0  0  0  0  0
  -30.4021  -12.6464   19.5626 C   0  0  0  0  0  0
  -29.5208  -12.5570   18.2973 C   0  0  0  0  0  0
  -28.0582  -12.3332   18.7031 C   0  0  0  0  0  0
  -27.6189  -13.2825   19.8468 C   0  0  2  0  0  0
  -28.6483  -13.4049   20.9978 C   0  0  0  0  0  0
  -25.2379  -13.8282   20.5730 C   0  0  0  0  0  0
  -24.1730  -13.0466   20.9248 C   0  0  0  0  0  0
  -24.6416  -11.6967   20.8792 C   0  0  0  0  0  0
  -23.9115  -10.4299   21.0438 C   0  0  0  0  0  0
  -24.3663   -9.4210   21.9209 C   0  0  0  0  0  0
  -23.6321   -8.2256   22.0758 C   0  0  0  0  0  0
  -22.4314   -8.0274   21.3542 C   0  0  0  0  0  0
  -21.9958   -9.0261   20.4657 C   0  0  0  0  0  0
  -22.7290  -10.2139   20.3078 C   0  0  0  0  0  0
  -21.6845   -6.0737   22.5270 C   0  0  0  0  0  0
  -21.4001   -6.5655   23.8206 C   0  0  0  0  0  0
  -21.3666   -5.6807   24.9178 C   0  0  0  0  0  0
  -21.6042   -4.3069   24.7210 C   0  0  0  0  0  0
  -21.8822   -3.8152   23.4341 C   0  0  0  0  0  0
  -21.9196   -4.6961   22.3397 C   0  0  0  0  0  0
  -22.7733  -13.5192   21.1894 C   0  0  0  0  0  0
  -22.1664   -4.2161   21.0966 F   0  0  0  0  0  0
  -21.5659   -3.4541   25.7733 F   0  0  0  0  0  0
  -29.9319  -13.8069   20.4088 N   0  0  0  0  0  0
  -26.2839  -12.9584   20.3311 N   0  0  0  0  0  0
  -25.9383  -11.6689   20.5828 N   0  0  0  0  0  0
  -22.0406  -12.8147   22.0452 N   0  0  0  0  0  0
  -25.3978  -15.1989   20.4071 N   0  0  0  0  0  0
  -31.7518  -14.9171   19.9640 O   0  0  0  0  0  0
  -21.6657   -6.8878   21.4242 O   0  0  0  0  0  0
  -22.3397  -14.5476   20.6718 O   0  0  0  0  0  0
  -24.6439  -31.8360   23.1818 C   0  0  0  0  0  0
  -25.9185  -32.4650   23.8226 C   0  0  1  0  0  0
  -27.2125  -27.0928   20.1792 C   0  0  0  0  0  0
  -25.5908  -33.8459   24.2136 N   0  0  0  0  0  0
  -23.4478  -30.4529   21.5251 C   0  0  2  0  0  0
  -24.9002  -28.8701   20.0991 C   0  0  0  0  0  0
  -22.7573  -29.4502   22.4808 C   0  0  0  0  0  0
  -18.0301  -28.1393   22.8488 C   0  0  0  0  0  0
  -24.1489  -36.7275   23.2646 C   0  0  0  0  0  0
  -26.0004  -30.7029   21.3766 C   0  0  0  0  0  0
  -26.0700  -29.3053   20.7289 C   0  0  0  0  0  0
  -27.2215  -28.4295   20.7574 C   0  0  0  0  0  0
  -26.0189  -26.7627   19.5017 C   0  0  0  0  0  0
  -24.8898  -27.6157   19.4639 C   0  0  0  0  0  0
  -23.6728  -29.7695   20.1455 C   0  0  0  0  0  0
  -25.4123  -36.3016   24.0310 C   0  0  1  0  0  0
  -20.5927  -28.3729   23.1232 C   0  0  2  0  0  0
  -20.6792  -26.9422   22.5413 C   0  0  0  0  0  0
  -19.5755  -26.6325   21.5257 C   0  0  0  0  0  0
  -18.1938  -26.7898   22.1708 C   0  0  0  0  0  0
  -19.1562  -28.8883   23.2834 C   0  0  0  0  0  0
  -18.9457  -30.1507   23.8818 C   0  0  0  0  0  0
  -17.6450  -30.6605   24.0534 C   0  0  0  0  0  0
  -25.9072  -34.9390   23.5052 C   0  0  0  0  0  0
  -16.5342  -29.9072   23.6324 C   0  0  0  0  0  0
  -16.7277  -28.6513   23.0338 C   0  0  0  0  0  0
  -26.4516  -31.6526   25.0674 C   0  0  0  0  0  0
  -25.3712  -31.3694   26.1371 C   0  0  0  0  0  0
  -27.0354  -30.2919   24.6232 C   0  0  0  0  0  0
  -27.6010  -32.4317   25.7477 C   0  0  0  0  0  0
  -27.5574  -37.1794   24.8462 C   0  0  0  0  0  0
  -21.4263  -29.3026   22.3580 N   0  0  0  0  0  0
  -26.4278  -37.3743   23.9406 N   0  0  0  0  0  0
  -24.7190  -31.0202   22.0840 N   0  0  0  0  0  0
  -23.4229  -28.8067   23.2953 O   0  0  0  0  0  0
  -28.2561  -26.1043   20.3522 O   0  0  0  0  0  0
  -26.5690  -34.8892   22.4644 O   0  0  0  0  0  0
  -23.5566  -32.1237   23.7037 O   0  0  0  0  0  0
  -29.6109  -19.3632   20.5506 C   0  0  0  0  0  0
  -27.9009  -17.6874   20.8514 C   0  0  0  0  0  0
  -27.3351  -20.1182   20.7362 C   0  0  0  0  0  0
  -29.2881  -17.8979   20.6955 C   0  0  0  0  0  0
  -28.6696  -20.5271   20.5164 C   0  0  0  0  0  0
  -26.9641  -18.7533   20.9196 C   0  0  0  0  0  0
  -28.2453  -23.1342   20.3983 C   0  0  0  0  0  0
  -31.7400  -17.2537   20.7562 C   0  0  0  0  0  0
  -30.2279  -16.4337   22.5607 C   0  0  0  0  0  0
  -25.1055  -19.1309   22.3166 C   0  0  0  0  0  0
  -28.4028  -24.6792   19.7096 C   0  0  0  0  0  0
  -30.3525  -16.6367   21.0326 C   0  0  1  0  0  0
  -28.9734  -21.9866   20.2200 N   0  0  0  0  0  0
  -32.6906  -17.3526   21.7086 N   0  0  0  0  0  0
  -32.0244  -17.7766   19.5415 N   0  3  0  0  0  0
  -25.6645  -18.4212   21.2127 O   0  0  0  0  0  0
  -31.4475  -12.7166   19.2645 H   0  0  0  0  0  0
  -30.3441  -11.7166   20.1338 H   0  0  0  0  0  0
  -29.8646  -11.7516   17.6459 H   0  0  0  0  0  0
  -29.6098  -13.4831   17.7232 H   0  0  0  0  0  0
  -27.9671  -11.2947   19.0251 H   0  0  0  0  0  0
  -27.4008  -12.4451   17.8384 H   0  0  0  0  0  0
  -27.5596  -14.2669   19.3847 H   0  0  0  0  0  0
  -28.7419  -12.4747   21.5581 H   0  0  0  0  0  0
  -28.3183  -14.1584   21.7100 H   0  0  0  0  0  0
  -25.2813   -9.5673   22.4790 H   0  0  0  0  0  0
  -24.0015   -7.4649   22.7488 H   0  0  0  0  0  0
  -21.0880   -8.8804   19.8951 H   0  0  0  0  0  0
  -22.3762  -10.9701   19.6186 H   0  0  0  0  0  0
  -21.1970   -7.6157   23.9696 H   0  0  0  0  0  0
  -21.1501   -6.0545   25.9084 H   0  0  0  0  0  0
  -22.0591   -2.7612   23.2838 H   0  0  0  0  0  0
  -22.4050  -11.9787   22.4770 H   0  0  0  0  0  0
  -21.1023  -13.1140   22.2729 H   0  0  0  0  0  0
  -24.6274  -15.8477   20.5246 H   0  0  0  0  0  0
  -26.2287  -15.6387   20.0410 H   0  0  0  0  0  0
  -26.7228  -32.5235   23.0928 H   0  0  0  0  0  0
  -24.9929  -33.9566   25.0201 H   0  0  0  0  0  0
  -22.7457  -31.2756   21.3614 H   0  0  0  0  0  0
  -23.3741  -35.9620   23.3297 H   0  0  0  0  0  0
  -24.3543  -36.8935   22.2063 H   0  0  0  0  0  0
  -23.7260  -37.6470   23.6706 H   0  0  0  0  0  0
  -26.1369  -31.4425   20.5875 H   0  0  0  0  0  0
  -26.8785  -30.7766   22.0036 H   0  0  0  0  0  0
  -28.1006  -28.7475   21.2995 H   0  0  0  0  0  0
  -25.9129  -25.7893   19.0477 H   0  0  0  0  0  0
  -23.9903  -27.2721   18.9711 H   0  0  0  0  0  0
  -23.7866  -30.5330   19.3766 H   0  0  0  0  0  0
  -22.7911  -29.1979   19.8559 H   0  0  0  0  0  0
  -25.1309  -36.1841   25.0806 H   0  0  0  0  0  0
  -21.0039  -28.3342   24.1349 H   0  0  0  0  0  0
  -20.5715  -26.2347   23.3653 H   0  0  0  0  0  0
  -21.6636  -26.7377   22.1196 H   0  0  0  0  0  0
  -19.6909  -25.6200   21.1377 H   0  0  0  0  0  0
  -19.6663  -27.3075   20.6736 H   0  0  0  0  0  0
  -17.4168  -26.6561   21.4173 H   0  0  0  0  0  0
  -18.0435  -26.0113   22.9206 H   0  0  0  0  0  0
  -19.7926  -30.7380   24.2118 H   0  0  0  0  0  0
  -17.4979  -31.6288   24.5121 H   0  0  0  0  0  0
  -15.5347  -30.2967   23.7672 H   0  0  0  0  0  0
  -15.8683  -28.0819   22.7048 H   0  0  0  0  0  0
  -24.5928  -30.6981   25.7720 H   0  0  0  0  0  0
  -24.8854  -32.2864   26.4727 H   0  0  0  0  0  0
  -25.8043  -30.8944   27.0186 H   0  0  0  0  0  0
  -26.2944  -29.6655   24.1246 H   0  0  0  0  0  0
  -27.3964  -29.7206   25.4794 H   0  0  0  0  0  0
  -27.8859  -30.4135   23.9517 H   0  0  0  0  0  0
  -27.2561  -33.3637   26.1970 H   0  0  0  0  0  0
  -28.3889  -32.6852   25.0370 H   0  0  0  0  0  0
  -28.0596  -31.8491   26.5478 H   0  0  0  0  0  0
  -28.2585  -38.0098   24.7470 H   0  0  0  0  0  0
  -28.1078  -36.2615   24.6327 H   0  0  0  0  0  0
  -27.2273  -37.1480   25.8861 H   0  0  0  0  0  0
  -20.9474  -29.8764   21.6770 H   0  0  0  0  0  0
  -26.0152  -38.2812   24.1408 H   0  0  0  0  0  0
  -30.6572  -19.6256   20.5084 H   0  0  0  0  0  0
  -27.5486  -16.6865   21.0423 H   0  0  0  0  0  0
  -26.5517  -20.8577   20.7573 H   0  0  0  0  0  0
  -27.3371  -23.0749   21.0004 H   0  0  0  0  0  0
  -29.2262  -16.1066   22.8296 H   0  0  0  0  0  0
  -30.9212  -15.6855   22.9400 H   0  0  0  0  0  0
  -30.4048  -17.3653   23.1021 H   0  0  0  0  0  0
  -24.2503  -18.5808   22.7095 H   0  0  0  0  0  0
  -24.7574  -20.1255   22.0372 H   0  0  0  0  0  0
  -25.8237  -19.2286   23.1362 H   0  0  0  0  0  0
  -27.8311  -24.6766   18.7815 H   0  0  0  0  0  0
  -29.4354  -24.7032   19.3637 H   0  0  0  0  0  0
  -32.5287  -16.9839   22.6352 H   0  0  0  0  0  0
  -33.5858  -17.7883   21.5531 H   0  0  0  0  0  0
  -32.9302  -18.1387   19.2868 H   0  0  0  0  0  0
  -31.3205  -17.7835   18.8148 H   0  0  0  0  0  0
  1 25  1  0  0  0
  1 30  2  0  0  0
  1 82  1  0  0  0
  2  3  1  0  0  0
  2 25  1  0  0  0
  2 87  1  0  0  0
  2 88  1  0  0  0
  3  4  1  0  0  0
  3 89  1  0  0  0
  3 90  1  0  0  0
  4  5  1  0  0  0
  4 91  1  0  0  0
  4 92  1  0  0  0
  5  6  1  0  0  0
  5 26  1  0  0  0
  5 93  1  0  0  0
  6 25  1  0  0  0
  6 94  1  0  0  0
  6 95  1  0  0  0
  7  8  2  0  0  0
  7 26  1  0  0  0
  7 29  1  0  0  0
  8  9  1  0  0  0
  8 22  1  0  0  0
  9 10  1  0  0  0
  9 27  2  0  0  0
 10 11  2  0  0  0
 10 15  1  0  0  0
 11 12  1  0  0  0
 11 96  1  0  0  0
 12 13  2  0  0  0
 12 97  1  0  0  0
 13 14  1  0  0  0
 13 31  1  0  0  0
 14 15  2  0  0  0
 14 98  1  0  0  0
 15 99  1  0  0  0
 16 17  2  0  0  0
 16 21  1  0  0  0
 16 31  1  0  0  0
 17 18  1  0  0  0
 17100  1  0  0  0
 18 19  2  0  0  0
 18101  1  0  0  0
 19 20  1  0  0  0
 19 24  1  0  0  0
 20 21  2  0  0  0
 20102  1  0  0  0
 21 23  1  0  0  0
 22 28  1  0  0  0
 22 32  2  0  0  0
 26 27  1  0  0  0
 28103  1  0  0  0
 28104  1  0  0  0
 29105  1  0  0  0
 29106  1  0  0  0
 33 34  1  0  0  0
 33 66  1  0  0  0
 33 70  2  0  0  0
 34 36  1  0  0  0
 34 59  1  0  0  0
 34107  1  0  0  0
 35 44  2  0  0  0
 35 45  1  0  0  0
 35 68  1  0  0  0
 36 56  1  0  0  0
 36108  1  0  0  0
 37 39  1  0  0  0
 37 47  1  0  0  0
 37 66  1  0  0  0
 37109  1  0  0  0
 38 43  2  0  0  0
 38 46  1  0  0  0
 38 47  1  0  0  0
 39 64  1  0  0  0
 39 67  2  0  0  0
 40 52  1  0  0  0
 40 53  2  0  0  0
 40 58  1  0  0  0
 41110  1  0  0  0
 41111  1  0  0  0
 41112  1  0  0  0
 41 48  1  0  0  0
 42 43  1  0  0  0
 42 66  1  0  0  0
 42113  1  0  0  0
 42114  1  0  0  0
 43 44  1  0  0  0
 44115  1  0  0  0
 45 46  2  0  0  0
 45116  1  0  0  0
 46117  1  0  0  0
 47118  1  0  0  0
 47119  1  0  0  0
 48 56  1  0  0  0
 48 65  1  0  0  0
 48120  1  0  0  0
 49 50  1  0  0  0
 49 53  1  0  0  0
 49 64  1  0  0  0
 49121  1  0  0  0
 50 51  1  0  0  0
 50122  1  0  0  0
 50123  1  0  0  0
 51 52  1  0  0  0
 51124  1  0  0  0
 51125  1  0  0  0
 52126  1  0  0  0
 52127  1  0  0  0
 53 54  1  0  0  0
 54 55  2  0  0  0
 54128  1  0  0  0
 55 57  1  0  0  0
 55129  1  0  0  0
 56 69  2  0  0  0
 57 58  2  0  0  0
 57130  1  0  0  0
 58131  1  0  0  0
 59 60  1  0  0  0
 59 61  1  0  0  0
 59 62  1  0  0  0
 60132  1  0  0  0
 60133  1  0  0  0
 60134  1  0  0  0
 61135  1  0  0  0
 61136  1  0  0  0
 61137  1  0  0  0
 62138  1  0  0  0
 62139  1  0  0  0
 62140  1  0  0  0
 63 65  1  0  0  0
 63141  1  0  0  0
 63142  1  0  0  0
 63143  1  0  0  0
 64144  1  0  0  0
 65145  1  0  0  0
 68 81  1  0  0  0
 71 74  2  0  0  0
 71 75  1  0  0  0
 71146  1  0  0  0
 72 74  1  0  0  0
 72 76  2  0  0  0
 72147  1  0  0  0
 73 75  2  0  0  0
 73 76  1  0  0  0
 73148  1  0  0  0
 74 82  1  0  0  0
 75 83  1  0  0  0
 76 86  1  0  0  0
 77 81  1  0  0  0
 77 83  2  0  0  0
 77149  1  0  0  0
 78 84  1  0  0  0
 78 85  2  0  0  0
 78 82  1  0  0  0
 79150  1  0  0  0
 79151  1  0  0  0
 79152  1  0  0  0
 79 82  1  0  0  0
 80 86  1  0  0  0
 80153  1  0  0  0
 80154  1  0  0  0
 80155  1  0  0  0
 81156  1  0  0  0
 81157  1  0  0  0
 84158  1  0  0  0
 84159  1  0  0  0
 85160  1  0  0  0
 85161  1  0  0  0
M  CHG  1  85   1
M  ISO  4   1 100  68 101  81 101  82 100
M  END
> <chiral flag>
0

> <version>
0

> <s_m_source_file>
/data/baiqing/PycharmProjects/Reinvent-master-3.2/result/LINK_invent/BTK/process_docking_weight1_custom_product_contain_oxygen_bond_distance_aromatic_linkinvent_7_9_3/rearranged_h_0110.sdf

> <i_m_source_file_index>
37

> <r_mmod_Potential_Energy-OPLS-2005>
876.592041015625

> <r_mmod_Stretch_Energy-OPLS-2005>
348.208160400391

> <r_mmod_Bend_Energy-OPLS-2005>
410.462982177734

> <r_mmod_Torsional_Energy-OPLS-2005>
218.293167114258

> <r_mmod_Improper_Torsional_Energy-OPLS-2005>
6.9344654083252

> <r_mmod_Van_der_Waal_Energy-OPLS-2005>
145.454956054688

> <r_mmod_Electrostatic_Energy-OPLS-2005>
-60.3004837036133

> <r_mmod_Solvation_Energy-OPLS-2005>
-442.270568847656

> <b_mmod_Minimization_Converged-OPLS-2005>
0

> <r_mmod_RMS_Derivative-OPLS-2005>
5.35413026809692

$$$$
38
                    3D
 Structure written by MMmdl.
158166  0  0  1  0            999 V2000
  -30.6866  -14.6338   20.5628 C   0  0  0  0  0  0
  -30.4296  -12.4100   19.4601 C   0  0  0  0  0  0
  -29.5069  -12.5068   18.2281 C   0  0  0  0  0  0
  -28.0345  -12.3357   18.6442 C   0  0  0  0  0  0
  -27.6502  -13.2264   19.8557 C   0  0  2  0  0  0
  -28.6883  -13.1086   20.9906 C   0  0  0  0  0  0
  -25.2544  -13.8193   20.5686 C   0  0  0  0  0  0
  -24.1808  -13.0435   20.9107 C   0  0  0  0  0  0
  -24.6410  -11.6924   20.8706 C   0  0  0  0  0  0
  -23.9081  -10.4302   21.0366 C   0  0  0  0  0  0
  -24.3644   -9.4224   21.9137 C   0  0  0  0  0  0
  -23.6313   -8.2266   22.0740 C   0  0  0  0  0  0
  -22.4288   -8.0296   21.3548 C   0  0  0  0  0  0
  -21.9921   -9.0265   20.4644 C   0  0  0  0  0  0
  -22.7259  -10.2126   20.3025 C   0  0  0  0  0  0
  -21.6865   -6.0738   22.5279 C   0  0  0  0  0  0
  -21.4024   -6.5637   23.8218 C   0  0  0  0  0  0
  -21.3665   -5.6782   24.9176 C   0  0  0  0  0  0
  -21.6037   -4.3046   24.7216 C   0  0  0  0  0  0
  -21.8823   -3.8149   23.4335 C   0  0  0  0  0  0
  -21.9208   -4.6967   22.3396 C   0  0  0  0  0  0
  -22.7836  -13.5211   21.1812 C   0  0  0  0  0  0
  -22.1661   -4.2159   21.0969 F   0  0  0  0  0  0
  -21.5645   -3.4522   25.7725 F   0  0  0  0  0  0
  -30.0101  -13.4431   20.4355 N   0  0  0  0  0  0
  -26.2989  -12.9408   20.3309 N   0  0  0  0  0  0
  -25.9357  -11.6555   20.5764 N   0  0  0  0  0  0
  -22.0483  -12.8215   22.0379 N   0  0  0  0  0  0
  -25.4205  -15.1921   20.4289 N   0  0  0  0  0  0
  -31.7911  -14.7783   20.0326 O   0  0  0  0  0  0
  -21.6659   -6.8890   21.4248 O   0  0  0  0  0  0
  -22.3526  -14.5533   20.6689 O   0  0  0  0  0  0
  -24.6243  -31.8600   23.2011 C   0  0  0  0  0  0
  -25.9099  -32.4782   23.8335 C   0  0  1  0  0  0
  -27.2199  -27.3162   20.1236 C   0  0  0  0  0  0
  -25.5931  -33.8583   24.2275 N   0  0  0  0  0  0
  -23.4195  -30.4829   21.5436 C   0  0  2  0  0  0
  -24.8670  -28.9378   20.1106 C   0  0  0  0  0  0
  -22.7468  -29.4634   22.4928 C   0  0  0  0  0  0
  -18.0287  -28.1392   22.8478 C   0  0  0  0  0  0
  -24.1497  -36.7295   23.2633 C   0  0  0  0  0  0
  -25.9610  -30.7897   21.3745 C   0  0  0  0  0  0
  -26.0361  -29.4164   20.7176 C   0  0  0  0  0  0
  -27.2178  -28.6180   20.7139 C   0  0  0  0  0  0
  -26.0370  -26.8961   19.4800 C   0  0  0  0  0  0
  -24.8705  -27.6832   19.4804 C   0  0  0  0  0  0
  -23.6350  -29.8187   20.1596 C   0  0  0  0  0  0
  -25.4124  -36.3091   24.0322 C   0  0  1  0  0  0
  -20.5885  -28.3702   23.1279 C   0  0  2  0  0  0
  -20.6787  -26.9431   22.5409 C   0  0  0  0  0  0
  -19.5763  -26.6398   21.5208 C   0  0  0  0  0  0
  -18.1941  -26.7936   22.1620 C   0  0  0  0  0  0
  -19.1537  -28.8864   23.2872 C   0  0  0  0  0  0
  -18.9457  -30.1467   23.8894 C   0  0  0  0  0  0
  -17.6458  -30.6598   24.0569 C   0  0  0  0  0  0
  -25.9060  -34.9456   23.5098 C   0  0  0  0  0  0
  -16.5353  -29.9098   23.6328 C   0  0  0  0  0  0
  -16.7275  -28.6515   23.0341 C   0  0  0  0  0  0
  -26.4472  -31.6581   25.0701 C   0  0  0  0  0  0
  -25.3706  -31.3725   26.1434 C   0  0  0  0  0  0
  -27.0292  -30.2997   24.6152 C   0  0  0  0  0  0
  -27.6056  -32.4285   25.7453 C   0  0  0  0  0  0
  -27.5585  -37.1799   24.8463 C   0  0  0  0  0  0
  -21.4183  -29.3051   22.3662 N   0  0  0  0  0  0
  -26.4305  -37.3778   23.9398 N   0  0  0  0  0  0
  -24.6870  -31.0604   22.0966 N   0  0  0  0  0  0
  -23.4186  -28.8173   23.3007 O   0  0  0  0  0  0
  -28.3154  -26.4439   20.1497 O   0  0  0  0  0  0
  -26.5618  -34.8911   22.4661 O   0  0  0  0  0  0
  -23.5407  -32.1422   23.7330 O   0  0  0  0  0  0
  -28.5586  -19.1578   20.8201 C   0  0  0  0  0  0
  -28.7094  -17.7512   21.0554 C   0  0  0  0  0  0
  -29.9507  -17.0776   20.8304 C   0  0  0  0  0  0
  -29.6373  -19.9370   20.3289 C   0  0  0  0  0  0
  -30.9886  -17.9125   20.2961 C   0  0  0  0  0  0
  -28.9385  -23.8859   20.0913 C   0  0  0  0  0  0
  -30.1611  -15.4970   22.7380 C   0  0  0  0  0  0
  -28.6595  -22.3837   20.5330 C   0  0  0  0  0  0
  -28.0405  -25.0666   20.6491 C   0  0  0  0  0  0
  -30.7816  -19.2538   20.0775 N   0  3  0  0  0  0
  -27.6094  -17.0200   21.5267 N   0  0  0  0  0  0
  -32.2707  -17.4400   20.0254 N   0  0  0  0  0  0
  -29.6329  -21.3462   20.0531 N   0  0  0  0  0  0
  -30.1236  -15.6715   21.2756 N   0  0  0  0  0  0
  -29.8715  -24.1251   19.3149 O   0  0  0  0  0  0
  -31.4735  -12.5164   19.1600 H   0  0  0  0  0  0
  -30.3577  -11.4195   19.9127 H   0  0  0  0  0  0
  -29.7783  -11.7422   17.4994 H   0  0  0  0  0  0
  -29.6479  -13.4677   17.7299 H   0  0  0  0  0  0
  -27.8921  -11.2848   18.9048 H   0  0  0  0  0  0
  -27.3701  -12.5263   17.7999 H   0  0  0  0  0  0
  -27.6604  -14.2573   19.5019 H   0  0  0  0  0  0
  -28.7003  -12.0990   21.4033 H   0  0  0  0  0  0
  -28.4030  -13.7643   21.8112 H   0  0  0  0  0  0
  -25.2786   -9.5720   22.4701 H   0  0  0  0  0  0
  -24.0036   -7.4674   22.7459 H   0  0  0  0  0  0
  -21.0850   -8.8789   19.8956 H   0  0  0  0  0  0
  -22.3711  -10.9667   19.6145 H   0  0  0  0  0  0
  -21.2001   -7.6139   23.9734 H   0  0  0  0  0  0
  -21.1485   -6.0487   25.9076 H   0  0  0  0  0  0
  -22.0596   -2.7609   23.2824 H   0  0  0  0  0  0
  -22.4090  -11.9864   22.4774 H   0  0  0  0  0  0
  -21.1113  -13.1276   22.2583 H   0  0  0  0  0  0
  -24.6609  -15.8215   20.6610 H   0  0  0  0  0  0
  -26.3244  -15.6569   20.4744 H   0  0  0  0  0  0
  -26.7162  -32.5445   23.1071 H   0  0  0  0  0  0
  -25.0077  -33.9724   25.0419 H   0  0  0  0  0  0
  -22.7160  -31.3042   21.4000 H   0  0  0  0  0  0
  -23.3756  -35.9631   23.3301 H   0  0  0  0  0  0
  -24.3597  -36.8908   22.2049 H   0  0  0  0  0  0
  -23.7245  -37.6495   23.6645 H   0  0  0  0  0  0
  -26.0938  -31.5537   20.6082 H   0  0  0  0  0  0
  -26.8395  -30.8376   22.0043 H   0  0  0  0  0  0
  -28.1121  -28.9824   21.2012 H   0  0  0  0  0  0
  -26.0049  -25.9419   18.9754 H   0  0  0  0  0  0
  -23.9776  -27.3156   18.9929 H   0  0  0  0  0  0
  -23.7515  -30.5953   19.4033 H   0  0  0  0  0  0
  -22.7581  -29.2442   19.8553 H   0  0  0  0  0  0
  -25.1300  -36.1952   25.0813 H   0  0  0  0  0  0
  -20.9958  -28.3275   24.1400 H   0  0  0  0  0  0
  -20.5703  -26.2308   23.3598 H   0  0  0  0  0  0
  -21.6657  -26.7486   22.1186 H   0  0  0  0  0  0
  -19.6937  -25.6303   21.1234 H   0  0  0  0  0  0
  -19.6700  -27.3216   20.6732 H   0  0  0  0  0  0
  -17.4213  -26.6668   21.4025 H   0  0  0  0  0  0
  -18.0359  -26.0091   22.9026 H   0  0  0  0  0  0
  -19.7937  -30.7280   24.2262 H   0  0  0  0  0  0
  -17.5020  -31.6270   24.5180 H   0  0  0  0  0  0
  -15.5356  -30.2998   23.7662 H   0  0  0  0  0  0
  -15.8669  -28.0839   22.7042 H   0  0  0  0  0  0
  -24.5882  -30.7071   25.7751 H   0  0  0  0  0  0
  -24.8889  -32.2900   26.4832 H   0  0  0  0  0  0
  -25.8028  -30.8909   27.0224 H   0  0  0  0  0  0
  -26.2857  -29.6765   24.1175 H   0  0  0  0  0  0
  -27.3984  -29.7223   25.4637 H   0  0  0  0  0  0
  -27.8730  -30.4255   23.9368 H   0  0  0  0  0  0
  -27.2697  -33.3584   26.2047 H   0  0  0  0  0  0
  -28.3850  -32.6854   25.0264 H   0  0  0  0  0  0
  -28.0755  -31.8406   26.5350 H   0  0  0  0  0  0
  -28.2608  -38.0089   24.7512 H   0  0  0  0  0  0
  -28.1076  -36.2622   24.6297 H   0  0  0  0  0  0
  -27.2299  -37.1458   25.8863 H   0  0  0  0  0  0
  -20.9366  -29.8756   21.6850 H   0  0  0  0  0  0
  -26.0193  -38.2854   24.1389 H   0  0  0  0  0  0
  -27.6103  -19.6353   21.0134 H   0  0  0  0  0  0
  -30.8029  -16.2551   23.1891 H   0  0  0  0  0  0
  -30.5546  -14.5280   23.0562 H   0  0  0  0  0  0
  -29.1718  -15.5972   23.1844 H   0  0  0  0  0  0
  -27.6588  -22.1189   20.1921 H   0  0  0  0  0  0
  -28.6307  -22.3600   21.6229 H   0  0  0  0  0  0
  -28.1889  -25.0949   21.7284 H   0  0  0  0  0  0
  -27.0005  -24.7778   20.5046 H   0  0  0  0  0  0
  -31.5748  -19.7956   19.7305 H   0  0  0  0  0  0
  -26.8714  -17.5619   21.9568 H   0  0  0  0  0  0
  -27.8623  -16.2245   22.0974 H   0  0  0  0  0  0
  -32.3882  -16.4288   19.9995 H   0  0  0  0  0  0
  -32.8752  -17.9347   19.3890 H   0  0  0  0  0  0
  -30.4341  -21.7564   19.5859 H   0  0  0  0  0  0
  1 25  1  0  0  0
  1 30  2  0  0  0
  1 84  1  0  0  0
  2  3  1  0  0  0
  2 25  1  0  0  0
  2 86  1  0  0  0
  2 87  1  0  0  0
  3  4  1  0  0  0
  3 88  1  0  0  0
  3 89  1  0  0  0
  4  5  1  0  0  0
  4 90  1  0  0  0
  4 91  1  0  0  0
  5  6  1  0  0  0
  5 26  1  0  0  0
  5 92  1  0  0  0
  6 25  1  0  0  0
  6 93  1  0  0  0
  6 94  1  0  0  0
  7  8  2  0  0  0
  7 26  1  0  0  0
  7 29  1  0  0  0
  8  9  1  0  0  0
  8 22  1  0  0  0
  9 10  1  0  0  0
  9 27  2  0  0  0
 10 11  2  0  0  0
 10 15  1  0  0  0
 11 12  1  0  0  0
 11 95  1  0  0  0
 12 13  2  0  0  0
 12 96  1  0  0  0
 13 14  1  0  0  0
 13 31  1  0  0  0
 14 15  2  0  0  0
 14 97  1  0  0  0
 15 98  1  0  0  0
 16 17  2  0  0  0
 16 21  1  0  0  0
 16 31  1  0  0  0
 17 18  1  0  0  0
 17 99  1  0  0  0
 18 19  2  0  0  0
 18100  1  0  0  0
 19 20  1  0  0  0
 19 24  1  0  0  0
 20 21  2  0  0  0
 20101  1  0  0  0
 21 23  1  0  0  0
 22 28  1  0  0  0
 22 32  2  0  0  0
 26 27  1  0  0  0
 28102  1  0  0  0
 28103  1  0  0  0
 29104  1  0  0  0
 29105  1  0  0  0
 33 34  1  0  0  0
 33 66  1  0  0  0
 33 70  2  0  0  0
 34 36  1  0  0  0
 34 59  1  0  0  0
 34106  1  0  0  0
 35 44  2  0  0  0
 35 45  1  0  0  0
 35 68  1  0  0  0
 36 56  1  0  0  0
 36107  1  0  0  0
 37 39  1  0  0  0
 37 47  1  0  0  0
 37 66  1  0  0  0
 37108  1  0  0  0
 38 43  2  0  0  0
 38 46  1  0  0  0
 38 47  1  0  0  0
 39 64  1  0  0  0
 39 67  2  0  0  0
 40 52  1  0  0  0
 40 53  2  0  0  0
 40 58  1  0  0  0
 41109  1  0  0  0
 41110  1  0  0  0
 41111  1  0  0  0
 41 48  1  0  0  0
 42 43  1  0  0  0
 42 66  1  0  0  0
 42112  1  0  0  0
 42113  1  0  0  0
 43 44  1  0  0  0
 44114  1  0  0  0
 45 46  2  0  0  0
 45115  1  0  0  0
 46116  1  0  0  0
 47117  1  0  0  0
 47118  1  0  0  0
 48 56  1  0  0  0
 48 65  1  0  0  0
 48119  1  0  0  0
 49 50  1  0  0  0
 49 53  1  0  0  0
 49 64  1  0  0  0
 49120  1  0  0  0
 50 51  1  0  0  0
 50121  1  0  0  0
 50122  1  0  0  0
 51 52  1  0  0  0
 51123  1  0  0  0
 51124  1  0  0  0
 52125  1  0  0  0
 52126  1  0  0  0
 53 54  1  0  0  0
 54 55  2  0  0  0
 54127  1  0  0  0
 55 57  1  0  0  0
 55128  1  0  0  0
 56 69  2  0  0  0
 57 58  2  0  0  0
 57129  1  0  0  0
 58130  1  0  0  0
 59 60  1  0  0  0
 59 61  1  0  0  0
 59 62  1  0  0  0
 60131  1  0  0  0
 60132  1  0  0  0
 60133  1  0  0  0
 61134  1  0  0  0
 61135  1  0  0  0
 61136  1  0  0  0
 62137  1  0  0  0
 62138  1  0  0  0
 62139  1  0  0  0
 63 65  1  0  0  0
 63140  1  0  0  0
 63141  1  0  0  0
 63142  1  0  0  0
 64143  1  0  0  0
 65144  1  0  0  0
 68 79  1  0  0  0
 71 72  2  0  0  0
 71 74  1  0  0  0
 71145  1  0  0  0
 72 73  1  0  0  0
 72 81  1  0  0  0
 73 75  2  0  0  0
 73 84  1  0  0  0
 74 80  2  0  0  0
 74 83  1  0  0  0
 75 80  1  0  0  0
 75 82  1  0  0  0
 76 78  1  0  0  0
 76 79  1  0  0  0
 76 85  2  0  0  0
 77 84  1  0  0  0
 77146  1  0  0  0
 77147  1  0  0  0
 77148  1  0  0  0
 78 83  1  0  0  0
 78149  1  0  0  0
 78150  1  0  0  0
 79151  1  0  0  0
 79152  1  0  0  0
 80153  1  0  0  0
 81154  1  0  0  0
 81155  1  0  0  0
 82156  1  0  0  0
 82157  1  0  0  0
 83158  1  0  0  0
M  CHG  1  80   1
M  ISO  4   1 100  68 101  79 101  84 100
M  END
> <chiral flag>
0

> <version>
0

> <s_m_source_file>
/data/baiqing/PycharmProjects/Reinvent-master-3.2/result/LINK_invent/BTK/process_docking_weight1_custom_product_contain_oxygen_bond_distance_aromatic_linkinvent_7_9_3/rearranged_h_0110.sdf

> <i_m_source_file_index>
38

> <r_mmod_Potential_Energy-OPLS-2005>
-20.1027011871338

> <r_mmod_Stretch_Energy-OPLS-2005>
90.9351119995117

> <r_mmod_Bend_Energy-OPLS-2005>
155.527465820312

> <r_mmod_Torsional_Energy-OPLS-2005>
323.302673339844

> <r_mmod_Improper_Torsional_Energy-OPLS-2005>
12.8006267547607

> <r_mmod_Van_der_Waal_Energy-OPLS-2005>
156.407501220703

> <r_mmod_Electrostatic_Energy-OPLS-2005>
-377.899597167969

> <r_mmod_Solvation_Energy-OPLS-2005>
-430.339630126953

> <b_mmod_Minimization_Converged-OPLS-2005>
0

> <r_mmod_RMS_Derivative-OPLS-2005>
3.17092061042786

$$$$
39
                    3D
 Structure written by MMmdl.
166174  0  0  1  0            999 V2000
  -30.6471  -14.6549   20.5777 C   0  0  0  0  0  0
  -30.4386  -12.4283   19.4590 C   0  0  0  0  0  0
  -29.5170  -12.5286   18.2252 C   0  0  0  0  0  0
  -28.0385  -12.3542   18.6283 C   0  0  0  0  0  0
  -27.6500  -13.2227   19.8550 C   0  0  2  0  0  0
  -28.6870  -13.0826   20.9880 C   0  0  0  0  0  0
  -25.2547  -13.8175   20.5663 C   0  0  0  0  0  0
  -24.1832  -13.0446   20.9195 C   0  0  0  0  0  0
  -24.6386  -11.6918   20.8695 C   0  0  0  0  0  0
  -23.9044  -10.4321   21.0365 C   0  0  0  0  0  0
  -24.3612   -9.4240   21.9143 C   0  0  0  0  0  0
  -23.6304   -8.2260   22.0713 C   0  0  0  0  0  0
  -22.4270   -8.0292   21.3537 C   0  0  0  0  0  0
  -21.9904   -9.0250   20.4620 C   0  0  0  0  0  0
  -22.7215  -10.2138   20.3024 C   0  0  0  0  0  0
  -21.6866   -6.0742   22.5277 C   0  0  0  0  0  0
  -21.4021   -6.5630   23.8216 C   0  0  0  0  0  0
  -21.3663   -5.6767   24.9174 C   0  0  0  0  0  0
  -21.6055   -4.3038   24.7214 C   0  0  0  0  0  0
  -21.8822   -3.8137   23.4323 C   0  0  0  0  0  0
  -21.9202   -4.6966   22.3394 C   0  0  0  0  0  0
  -22.7853  -13.5249   21.1868 C   0  0  0  0  0  0
  -22.1670   -4.2160   21.0967 F   0  0  0  0  0  0
  -21.5632   -3.4510   25.7718 F   0  0  0  0  0  0
  -30.0026  -13.4472   20.4405 N   0  0  0  0  0  0
  -26.2965  -12.9361   20.3232 N   0  0  0  0  0  0
  -25.9319  -11.6513   20.5689 N   0  0  0  0  0  0
  -22.0468  -12.8262   22.0400 N   0  0  0  0  0  0
  -25.4209  -15.1900   20.4108 N   0  0  0  0  0  0
  -31.7520  -14.8316   20.0523 O   0  0  0  0  0  0
  -21.6644   -6.8880   21.4233 O   0  0  0  0  0  0
  -22.3536  -14.5543   20.6672 O   0  0  0  0  0  0
  -24.6278  -31.8599   23.1977 C   0  0  0  0  0  0
  -25.9115  -32.4798   23.8320 C   0  0  1  0  0  0
  -27.2225  -27.2880   20.1483 C   0  0  0  0  0  0
  -25.5941  -33.8597   24.2268 N   0  0  0  0  0  0
  -23.4210  -30.4838   21.5365 C   0  0  2  0  0  0
  -24.8696  -28.9182   20.1159 C   0  0  0  0  0  0
  -22.7478  -29.4665   22.4884 C   0  0  0  0  0  0
  -18.0295  -28.1404   22.8499 C   0  0  0  0  0  0
  -24.1460  -36.7276   23.2630 C   0  0  0  0  0  0
  -25.9633  -30.7828   21.3665 C   0  0  0  0  0  0
  -26.0355  -29.4013   20.7210 C   0  0  0  0  0  0
  -27.2177  -28.6018   20.7173 C   0  0  0  0  0  0
  -26.0352  -26.8477   19.5322 C   0  0  0  0  0  0
  -24.8724  -27.6480   19.5108 C   0  0  0  0  0  0
  -23.6402  -29.8077   20.1543 C   0  0  0  0  0  0
  -25.4085  -36.3097   24.0327 C   0  0  1  0  0  0
  -20.5898  -28.3717   23.1273 C   0  0  2  0  0  0
  -20.6780  -26.9436   22.5408 C   0  0  0  0  0  0
  -19.5755  -26.6405   21.5207 C   0  0  0  0  0  0
  -18.1939  -26.7948   22.1622 C   0  0  0  0  0  0
  -19.1559  -28.8869   23.2886 C   0  0  0  0  0  0
  -18.9471  -30.1458   23.8928 C   0  0  0  0  0  0
  -17.6480  -30.6610   24.0559 C   0  0  0  0  0  0
  -25.9037  -34.9471   23.5083 C   0  0  0  0  0  0
  -16.5362  -29.9115   23.6333 C   0  0  0  0  0  0
  -16.7287  -28.6519   23.0372 C   0  0  0  0  0  0
  -26.4484  -31.6638   25.0717 C   0  0  0  0  0  0
  -25.3711  -31.3809   26.1445 C   0  0  0  0  0  0
  -27.0323  -30.3068   24.6192 C   0  0  0  0  0  0
  -27.6050  -32.4366   25.7495 C   0  0  0  0  0  0
  -27.5557  -37.1793   24.8474 C   0  0  0  0  0  0
  -21.4189  -29.3070   22.3641 N   0  0  0  0  0  0
  -26.4264  -37.3793   23.9427 N   0  0  0  0  0  0
  -24.6899  -31.0589   22.0922 N   0  0  0  0  0  0
  -23.4207  -28.8216   23.2964 O   0  0  0  0  0  0
  -28.3612  -26.4668   20.1351 O   0  0  0  0  0  0
  -26.5589  -34.8955   22.4639 O   0  0  0  0  0  0
  -23.5445  -32.1392   23.7316 O   0  0  0  0  0  0
  -28.1606  -18.9722   21.4497 C   0  0  0  0  0  0
  -30.3179  -17.8600   20.1057 C   0  0  0  0  0  0
  -28.4806  -17.5896   21.6423 C   0  0  0  0  0  0
  -29.6086  -16.9943   20.9909 C   0  0  0  0  0  0
  -29.9868  -19.2493   19.9182 C   0  0  0  0  0  0
  -28.8868  -19.8625   20.6123 C   0  0  0  0  0  0
  -26.8914  -17.2317   23.5783 C   0  0  0  0  0  0
  -27.6580  -16.7818   22.5701 C   0  0  0  0  0  0
  -27.5347  -24.9967   21.9903 C   0  0  0  0  0  0
  -31.9448  -20.5659   19.6626 C   0  0  0  0  0  0
  -30.4772  -15.5136   22.7822 C   0  0  0  0  0  0
  -28.2472  -23.7646   19.8233 C   0  0  0  0  0  0
  -29.0932  -22.4155   20.1208 C   0  0  0  0  0  0
  -28.3990  -25.0875   20.7222 C   0  0  1  0  0  0
  -30.7767  -19.9764   19.0203 N   0  0  0  0  0  0
  -30.0783  -15.6356   21.3706 N   0  0  0  0  0  0
  -28.3705  -21.1933   20.5243 O   0  0  0  0  0  0
  -31.4802  -12.5583   19.1636 H   0  0  0  0  0  0
  -30.3877  -11.4334   19.9049 H   0  0  0  0  0  0
  -29.7958  -11.7794   17.4826 H   0  0  0  0  0  0
  -29.6515  -13.4991   17.7454 H   0  0  0  0  0  0
  -27.8805  -11.2981   18.8530 H   0  0  0  0  0  0
  -27.3926  -12.5809   17.7804 H   0  0  0  0  0  0
  -27.6689  -14.2610   19.5172 H   0  0  0  0  0  0
  -28.7138  -12.0590   21.3619 H   0  0  0  0  0  0
  -28.4024  -13.6999   21.8369 H   0  0  0  0  0  0
  -25.2768   -9.5742   22.4704 H   0  0  0  0  0  0
  -24.0047   -7.4647   22.7416 H   0  0  0  0  0  0
  -21.0842   -8.8755   19.8923 H   0  0  0  0  0  0
  -22.3665  -10.9663   19.6125 H   0  0  0  0  0  0
  -21.2010   -7.6134   23.9736 H   0  0  0  0  0  0
  -21.1480   -6.0481   25.9083 H   0  0  0  0  0  0
  -22.0599   -2.7599   23.2800 H   0  0  0  0  0  0
  -22.4092  -12.0006   22.4944 H   0  0  0  0  0  0
  -21.1030  -13.1227   22.2479 H   0  0  0  0  0  0
  -24.6523  -15.8379   20.5441 H   0  0  0  0  0  0
  -26.2818  -15.6441   20.1363 H   0  0  0  0  0  0
  -26.7171  -32.5477   23.1061 H   0  0  0  0  0  0
  -25.0208  -33.9739   25.0499 H   0  0  0  0  0  0
  -22.7135  -31.3033   21.3868 H   0  0  0  0  0  0
  -23.3769  -35.9570   23.3318 H   0  0  0  0  0  0
  -24.3534  -36.8868   22.2044 H   0  0  0  0  0  0
  -23.7183  -37.6470   23.6619 H   0  0  0  0  0  0
  -26.0826  -31.5356   20.5867 H   0  0  0  0  0  0
  -26.8504  -30.8478   21.9847 H   0  0  0  0  0  0
  -28.1179  -28.9802   21.1793 H   0  0  0  0  0  0
  -26.0049  -25.8701   19.0707 H   0  0  0  0  0  0
  -23.9771  -27.2714   19.0371 H   0  0  0  0  0  0
  -23.7595  -30.5799   19.3928 H   0  0  0  0  0  0
  -22.7599  -29.2358   19.8546 H   0  0  0  0  0  0
  -25.1267  -36.1919   25.0822 H   0  0  0  0  0  0
  -21.0002  -28.3284   24.1383 H   0  0  0  0  0  0
  -20.5666  -26.2326   23.3615 H   0  0  0  0  0  0
  -21.6651  -26.7447   22.1196 H   0  0  0  0  0  0
  -19.6892  -25.6305   21.1267 H   0  0  0  0  0  0
  -19.6692  -27.3190   20.6728 H   0  0  0  0  0  0
  -17.4195  -26.6720   21.4033 H   0  0  0  0  0  0
  -18.0317  -26.0083   22.9016 H   0  0  0  0  0  0
  -19.7943  -30.7262   24.2336 H   0  0  0  0  0  0
  -17.5032  -31.6307   24.5139 H   0  0  0  0  0  0
  -15.5368  -30.3023   23.7661 H   0  0  0  0  0  0
  -15.8674  -28.0846   22.7099 H   0  0  0  0  0  0
  -24.5879  -30.7148   25.7800 H   0  0  0  0  0  0
  -24.8914  -32.3002   26.4828 H   0  0  0  0  0  0
  -25.8043  -30.9039   27.0246 H   0  0  0  0  0  0
  -26.2911  -29.6843   24.1181 H   0  0  0  0  0  0
  -27.3986  -29.7301   25.4695 H   0  0  0  0  0  0
  -27.8781  -30.4394   23.9443 H   0  0  0  0  0  0
  -27.2679  -33.3672   26.2069 H   0  0  0  0  0  0
  -28.3881  -32.6928   25.0345 H   0  0  0  0  0  0
  -28.0686  -31.8493   26.5427 H   0  0  0  0  0  0
  -28.2616  -38.0055   24.7506 H   0  0  0  0  0  0
  -28.1012  -36.2602   24.6306 H   0  0  0  0  0  0
  -27.2278  -37.1443   25.8877 H   0  0  0  0  0  0
  -20.9331  -29.8801   21.6880 H   0  0  0  0  0  0
  -26.0155  -38.2862   24.1463 H   0  0  0  0  0  0
  -27.3064  -19.3825   21.9667 H   0  0  0  0  0  0
  -31.1732  -17.4521   19.5871 H   0  0  0  0  0  0
  -26.3244  -16.5322   24.1765 H   0  0  0  0  0  0
  -26.8126  -18.2781   23.8378 H   0  0  0  0  0  0
  -27.6605  -15.7163   22.4003 H   0  0  0  0  0  0
  -27.7689  -25.8031   22.6860 H   0  0  0  0  0  0
  -27.7085  -24.0529   22.5080 H   0  0  0  0  0  0
  -26.4712  -25.0545   21.7587 H   0  0  0  0  0  0
  -32.7240  -19.8177   19.8193 H   0  0  0  0  0  0
  -31.6899  -21.0042   20.6284 H   0  0  0  0  0  0
  -32.3654  -21.3529   19.0314 H   0  0  0  0  0  0
  -29.8444  -14.8000   23.3076 H   0  0  0  0  0  0
  -30.4051  -16.4663   23.3117 H   0  0  0  0  0  0
  -31.5127  -15.1829   22.8947 H   0  0  0  0  0  0
  -27.1921  -23.5055   19.7253 H   0  0  0  0  0  0
  -28.5333  -24.0754   18.8181 H   0  0  0  0  0  0
  -29.6103  -22.1966   19.1894 H   0  0  0  0  0  0
  -29.8747  -22.6189   20.8550 H   0  0  0  0  0  0
  -29.4305  -25.0401   21.0775 H   0  0  0  0  0  0
  -31.0451  -19.4208   18.2107 H   0  0  0  0  0  0
  1 25  1  0  0  0
  1 30  2  0  0  0
  1 86  1  0  0  0
  2  3  1  0  0  0
  2 25  1  0  0  0
  2 88  1  0  0  0
  2 89  1  0  0  0
  3  4  1  0  0  0
  3 90  1  0  0  0
  3 91  1  0  0  0
  4  5  1  0  0  0
  4 92  1  0  0  0
  4 93  1  0  0  0
  5  6  1  0  0  0
  5 26  1  0  0  0
  5 94  1  0  0  0
  6 25  1  0  0  0
  6 95  1  0  0  0
  6 96  1  0  0  0
  7  8  2  0  0  0
  7 26  1  0  0  0
  7 29  1  0  0  0
  8  9  1  0  0  0
  8 22  1  0  0  0
  9 10  1  0  0  0
  9 27  2  0  0  0
 10 11  2  0  0  0
 10 15  1  0  0  0
 11 12  1  0  0  0
 11 97  1  0  0  0
 12 13  2  0  0  0
 12 98  1  0  0  0
 13 14  1  0  0  0
 13 31  1  0  0  0
 14 15  2  0  0  0
 14 99  1  0  0  0
 15100  1  0  0  0
 16 17  2  0  0  0
 16 21  1  0  0  0
 16 31  1  0  0  0
 17 18  1  0  0  0
 17101  1  0  0  0
 18 19  2  0  0  0
 18102  1  0  0  0
 19 20  1  0  0  0
 19 24  1  0  0  0
 20 21  2  0  0  0
 20103  1  0  0  0
 21 23  1  0  0  0
 22 28  1  0  0  0
 22 32  2  0  0  0
 26 27  1  0  0  0
 28104  1  0  0  0
 28105  1  0  0  0
 29106  1  0  0  0
 29107  1  0  0  0
 33 34  1  0  0  0
 33 66  1  0  0  0
 33 70  2  0  0  0
 34 36  1  0  0  0
 34 59  1  0  0  0
 34108  1  0  0  0
 35 44  2  0  0  0
 35 45  1  0  0  0
 35 68  1  0  0  0
 36 56  1  0  0  0
 36109  1  0  0  0
 37 39  1  0  0  0
 37 47  1  0  0  0
 37 66  1  0  0  0
 37110  1  0  0  0
 38 43  2  0  0  0
 38 46  1  0  0  0
 38 47  1  0  0  0
 39 64  1  0  0  0
 39 67  2  0  0  0
 40 52  1  0  0  0
 40 53  2  0  0  0
 40 58  1  0  0  0
 41111  1  0  0  0
 41112  1  0  0  0
 41113  1  0  0  0
 41 48  1  0  0  0
 42 43  1  0  0  0
 42 66  1  0  0  0
 42114  1  0  0  0
 42115  1  0  0  0
 43 44  1  0  0  0
 44116  1  0  0  0
 45 46  2  0  0  0
 45117  1  0  0  0
 46118  1  0  0  0
 47119  1  0  0  0
 47120  1  0  0  0
 48 56  1  0  0  0
 48 65  1  0  0  0
 48121  1  0  0  0
 49 50  1  0  0  0
 49 53  1  0  0  0
 49 64  1  0  0  0
 49122  1  0  0  0
 50 51  1  0  0  0
 50123  1  0  0  0
 50124  1  0  0  0
 51 52  1  0  0  0
 51125  1  0  0  0
 51126  1  0  0  0
 52127  1  0  0  0
 52128  1  0  0  0
 53 54  1  0  0  0
 54 55  2  0  0  0
 54129  1  0  0  0
 55 57  1  0  0  0
 55130  1  0  0  0
 56 69  2  0  0  0
 57 58  2  0  0  0
 57131  1  0  0  0
 58132  1  0  0  0
 59 60  1  0  0  0
 59 61  1  0  0  0
 59 62  1  0  0  0
 60133  1  0  0  0
 60134  1  0  0  0
 60135  1  0  0  0
 61136  1  0  0  0
 61137  1  0  0  0
 61138  1  0  0  0
 62139  1  0  0  0
 62140  1  0  0  0
 62141  1  0  0  0
 63 65  1  0  0  0
 63142  1  0  0  0
 63143  1  0  0  0
 63144  1  0  0  0
 64145  1  0  0  0
 65146  1  0  0  0
 68 84  1  0  0  0
 71 73  2  0  0  0
 71 76  1  0  0  0
 71147  1  0  0  0
 72 74  2  0  0  0
 72 75  1  0  0  0
 72148  1  0  0  0
 73 74  1  0  0  0
 73 78  1  0  0  0
 74 86  1  0  0  0
 75 76  2  0  0  0
 75 85  1  0  0  0
 76 87  1  0  0  0
 77 78  2  0  0  0
 77149  1  0  0  0
 77150  1  0  0  0
 78151  1  0  0  0
 79152  1  0  0  0
 79153  1  0  0  0
 79154  1  0  0  0
 79 84  1  0  0  0
 80 85  1  0  0  0
 80155  1  0  0  0
 80156  1  0  0  0
 80157  1  0  0  0
 81 86  1  0  0  0
 81158  1  0  0  0
 81159  1  0  0  0
 81160  1  0  0  0
 82 83  1  0  0  0
 82 84  1  0  0  0
 82161  1  0  0  0
 82162  1  0  0  0
 83 87  1  0  0  0
 83163  1  0  0  0
 83164  1  0  0  0
 84165  1  0  0  0
 85166  1  0  0  0
M  ISO  4   1 100  68 101  84 101  86 100
M  END
> <chiral flag>
0

> <version>
0

> <s_m_source_file>
/data/baiqing/PycharmProjects/Reinvent-master-3.2/result/LINK_invent/BTK/process_docking_weight1_custom_product_contain_oxygen_bond_distance_aromatic_linkinvent_7_9_3/rearranged_h_0110.sdf

> <i_m_source_file_index>
39

> <r_mmod_Potential_Energy-OPLS-2005>
364.195007324219

> <r_mmod_Stretch_Energy-OPLS-2005>
110.076606750488

> <r_mmod_Bend_Energy-OPLS-2005>
205.063323974609

> <r_mmod_Torsional_Energy-OPLS-2005>
359.734100341797

> <r_mmod_Improper_Torsional_Energy-OPLS-2005>
10.0963907241821

> <r_mmod_Van_der_Waal_Energy-OPLS-2005>
135.561904907227

> <r_mmod_Electrostatic_Energy-OPLS-2005>
-310.453796386719

> <r_mmod_Solvation_Energy-OPLS-2005>
-199.436218261719

> <b_mmod_Minimization_Converged-OPLS-2005>
0

> <r_mmod_RMS_Derivative-OPLS-2005>
3.65443825721741

$$$$
40
                    3D
 Structure written by MMmdl.
170179  0  0  1  0            999 V2000
  -30.5729  -14.7748   20.4642 C   0  0  0  0  0  0
  -30.4469  -12.4783   19.4599 C   0  0  0  0  0  0
  -29.5144  -12.5070   18.2283 C   0  0  0  0  0  0
  -28.0406  -12.3212   18.6448 C   0  0  0  0  0  0
  -27.6413  -13.2227   19.8426 C   0  0  2  0  0  0
  -28.6887  -13.1572   20.9734 C   0  0  0  0  0  0
  -25.2528  -13.8171   20.5669 C   0  0  0  0  0  0
  -24.1824  -13.0431   20.9207 C   0  0  0  0  0  0
  -24.6397  -11.6909   20.8748 C   0  0  0  0  0  0
  -23.9071  -10.4286   21.0412 C   0  0  0  0  0  0
  -24.3622   -9.4206   21.9187 C   0  0  0  0  0  0
  -23.6297   -8.2241   22.0755 C   0  0  0  0  0  0
  -22.4281   -8.0278   21.3546 C   0  0  0  0  0  0
  -21.9915   -9.0253   20.4649 C   0  0  0  0  0  0
  -22.7243  -10.2130   20.3059 C   0  0  0  0  0  0
  -21.6852   -6.0736   22.5281 C   0  0  0  0  0  0
  -21.4012   -6.5641   23.8214 C   0  0  0  0  0  0
  -21.3657   -5.6798   24.9179 C   0  0  0  0  0  0
  -21.6046   -4.3056   24.7229 C   0  0  0  0  0  0
  -21.8819   -3.8146   23.4357 C   0  0  0  0  0  0
  -21.9194   -4.6965   22.3408 C   0  0  0  0  0  0
  -22.7841  -13.5227   21.1863 C   0  0  0  0  0  0
  -22.1662   -4.2143   21.0990 F   0  0  0  0  0  0
  -21.5631   -3.4543   25.7745 F   0  0  0  0  0  0
  -29.9805  -13.5337   20.3844 N   0  0  0  0  0  0
  -26.2944  -12.9354   20.3243 N   0  0  0  0  0  0
  -25.9323  -11.6512   20.5733 N   0  0  0  0  0  0
  -22.0478  -12.8207   22.0404 N   0  0  0  0  0  0
  -25.4208  -15.1901   20.4064 N   0  0  0  0  0  0
  -31.7750  -14.8977   20.2115 O   0  0  0  0  0  0
  -21.6642   -6.8878   21.4239 O   0  0  0  0  0  0
  -22.3535  -14.5535   20.6718 O   0  0  0  0  0  0
  -24.6333  -31.8542   23.1955 C   0  0  0  0  0  0
  -25.9165  -32.4744   23.8306 C   0  0  1  0  0  0
  -27.2228  -27.2464   20.1322 C   0  0  0  0  0  0
  -25.5953  -33.8543   24.2231 N   0  0  0  0  0  0
  -23.4299  -30.4735   21.5412 C   0  0  2  0  0  0
  -24.8786  -28.9135   20.1134 C   0  0  0  0  0  0
  -22.7499  -29.4606   22.4940 C   0  0  0  0  0  0
  -18.0284  -28.1399   22.8474 C   0  0  0  0  0  0
  -24.1488  -36.7275   23.2632 C   0  0  0  0  0  0
  -25.9767  -30.7601   21.3790 C   0  0  0  0  0  0
  -26.0510  -29.3794   20.7235 C   0  0  0  0  0  0
  -27.2282  -28.5590   20.7210 C   0  0  0  0  0  0
  -26.0277  -26.8483   19.4987 C   0  0  0  0  0  0
  -24.8714  -27.6550   19.4910 C   0  0  0  0  0  0
  -23.6483  -29.8018   20.1597 C   0  0  0  0  0  0
  -25.4116  -36.3062   24.0310 C   0  0  1  0  0  0
  -20.5882  -28.3717   23.1269 C   0  0  2  0  0  0
  -20.6771  -26.9436   22.5410 C   0  0  0  0  0  0
  -19.5750  -26.6397   21.5204 C   0  0  0  0  0  0
  -18.1926  -26.7940   22.1604 C   0  0  0  0  0  0
  -19.1536  -28.8869   23.2864 C   0  0  0  0  0  0
  -18.9455  -30.1467   23.8890 C   0  0  0  0  0  0
  -17.6457  -30.6599   24.0568 C   0  0  0  0  0  0
  -25.9064  -34.9440   23.5074 C   0  0  0  0  0  0
  -16.5350  -29.9093   23.6344 C   0  0  0  0  0  0
  -16.7270  -28.6513   23.0351 C   0  0  0  0  0  0
  -26.4522  -31.6564   25.0700 C   0  0  0  0  0  0
  -25.3730  -31.3737   26.1404 C   0  0  0  0  0  0
  -27.0362  -30.2960   24.6226 C   0  0  0  0  0  0
  -27.6070  -32.4306   25.7482 C   0  0  0  0  0  0
  -27.5580  -37.1785   24.8457 C   0  0  0  0  0  0
  -21.4206  -29.3054   22.3658 N   0  0  0  0  0  0
  -26.4291  -37.3764   23.9404 N   0  0  0  0  0  0
  -24.6990  -31.0481   22.0951 N   0  0  0  0  0  0
  -23.4180  -28.8165   23.3061 O   0  0  0  0  0  0
  -28.3120  -26.3414   20.1229 O   0  0  0  0  0  0
  -26.5654  -34.8923   22.4654 O   0  0  0  0  0  0
  -23.5484  -32.1393   23.7241 O   0  0  0  0  0  0
  -29.7219  -19.9059   22.2196 C   0  0  0  0  0  0
  -29.5590  -18.4823   20.2588 C   0  0  0  0  0  0
  -30.0126  -17.4595   22.4494 C   0  0  0  0  0  0
  -29.4998  -19.8370   20.8294 C   0  0  0  0  0  0
  -29.9698  -18.7657   23.0111 C   0  0  0  0  0  0
  -29.8358  -17.2715   21.0456 C   0  0  0  0  0  0
  -28.8063  -23.8112   20.0955 C   0  0  0  0  0  0
  -29.8796  -23.9051   19.0807 C   0  0  0  0  0  0
  -28.1212  -24.9663   20.4893 C   0  0  0  0  0  0
  -28.5641  -22.3217   20.6529 C   0  0  0  0  0  0
  -30.3475  -22.6100   18.4091 C   0  0  0  0  0  0
  -30.5566  -21.4623   19.4111 C   0  0  0  0  0  0
  -29.2765  -18.2896   18.7784 C   0  0  0  0  0  0
  -31.7880  -14.6484   24.5206 C   0  0  0  0  0  0
  -30.1761  -16.2629   23.3952 C   0  0  0  0  0  0
  -31.6472  -15.9261   23.6857 C   0  0  0  0  0  0
  -29.3233  -21.1048   20.1108 N   0  0  0  0  0  0
  -30.1545  -18.9640   24.3831 N   0  0  0  0  0  0
  -29.7172  -15.8742   20.5205 N   0  0  0  0  0  0
  -30.3989  -24.9680   18.7222 O   0  0  0  0  0  0
  -31.4819  -12.6352   19.1508 H   0  0  0  0  0  0
  -30.4210  -11.5028   19.9485 H   0  0  0  0  0  0
  -29.8021  -11.7309   17.5181 H   0  0  0  0  0  0
  -29.6275  -13.4584   17.7055 H   0  0  0  0  0  0
  -27.9018  -11.2722   18.9105 H   0  0  0  0  0  0
  -27.3824  -12.5072   17.7953 H   0  0  0  0  0  0
  -27.6301  -14.2413   19.4559 H   0  0  0  0  0  0
  -28.7400  -12.1552   21.4033 H   0  0  0  0  0  0
  -28.4162  -13.8265   21.7905 H   0  0  0  0  0  0
  -25.2764   -9.5682   22.4768 H   0  0  0  0  0  0
  -24.0002   -7.4631   22.7475 H   0  0  0  0  0  0
  -21.0846   -8.8784   19.8952 H   0  0  0  0  0  0
  -22.3709  -10.9679   19.6174 H   0  0  0  0  0  0
  -21.1999   -7.6147   23.9717 H   0  0  0  0  0  0
  -21.1479   -6.0527   25.9079 H   0  0  0  0  0  0
  -22.0600   -2.7607   23.2863 H   0  0  0  0  0  0
  -22.4080  -11.9860   22.4782 H   0  0  0  0  0  0
  -21.1091  -13.1234   22.2604 H   0  0  0  0  0  0
  -24.6465  -15.8366   20.5165 H   0  0  0  0  0  0
  -26.2545  -15.6340   20.0446 H   0  0  0  0  0  0
  -26.7224  -32.5385   23.1042 H   0  0  0  0  0  0
  -25.0061  -33.9668   25.0348 H   0  0  0  0  0  0
  -22.7273  -31.2957   21.3908 H   0  0  0  0  0  0
  -23.3762  -35.9601   23.3300 H   0  0  0  0  0  0
  -24.3573  -36.8891   22.2046 H   0  0  0  0  0  0
  -23.7233  -37.6460   23.6674 H   0  0  0  0  0  0
  -26.1135  -31.5208   20.6092 H   0  0  0  0  0  0
  -26.8540  -30.8116   22.0126 H   0  0  0  0  0  0
  -28.1299  -28.9155   21.1987 H   0  0  0  0  0  0
  -25.9779  -25.8822   19.0168 H   0  0  0  0  0  0
  -23.9742  -27.2929   19.0082 H   0  0  0  0  0  0
  -23.7700  -30.5756   19.4010 H   0  0  0  0  0  0
  -22.7668  -29.2327   19.8590 H   0  0  0  0  0  0
  -25.1303  -36.1898   25.0802 H   0  0  0  0  0  0
  -20.9946  -28.3312   24.1404 H   0  0  0  0  0  0
  -20.5648  -26.2346   23.3627 H   0  0  0  0  0  0
  -21.6645  -26.7463   22.1214 H   0  0  0  0  0  0
  -19.6935  -25.6310   21.1224 H   0  0  0  0  0  0
  -19.6684  -27.3220   20.6746 H   0  0  0  0  0  0
  -17.4193  -26.6683   21.4011 H   0  0  0  0  0  0
  -18.0341  -26.0086   22.9004 H   0  0  0  0  0  0
  -19.7934  -30.7275   24.2265 H   0  0  0  0  0  0
  -17.5015  -31.6272   24.5186 H   0  0  0  0  0  0
  -15.5347  -30.2991   23.7682 H   0  0  0  0  0  0
  -15.8666  -28.0836   22.7077 H   0  0  0  0  0  0
  -24.5938  -30.7056   25.7723 H   0  0  0  0  0  0
  -24.8897  -32.2916   26.4760 H   0  0  0  0  0  0
  -25.8022  -30.8956   27.0216 H   0  0  0  0  0  0
  -26.2963  -29.6686   24.1243 H   0  0  0  0  0  0
  -27.3994  -29.7249   25.4778 H   0  0  0  0  0  0
  -27.8866  -30.4180   23.9513 H   0  0  0  0  0  0
  -27.2684  -33.3622   26.2030 H   0  0  0  0  0  0
  -28.3908  -32.6816   25.0327 H   0  0  0  0  0  0
  -28.0720  -31.8445   26.5417 H   0  0  0  0  0  0
  -28.2585  -38.0090   24.7509 H   0  0  0  0  0  0
  -28.1075  -36.2615   24.6283 H   0  0  0  0  0  0
  -27.2301  -37.1428   25.8858 H   0  0  0  0  0  0
  -20.9434  -29.8730   21.6796 H   0  0  0  0  0  0
  -26.0165  -38.2831   24.1418 H   0  0  0  0  0  0
  -29.7227  -20.8666   22.7083 H   0  0  0  0  0  0
  -27.3326  -24.8881   21.2243 H   0  0  0  0  0  0
  -27.5033  -22.1137   20.5075 H   0  0  0  0  0  0
  -28.6906  -22.3871   21.7317 H   0  0  0  0  0  0
  -31.2807  -22.8064   17.8806 H   0  0  0  0  0  0
  -29.6150  -22.3254   17.6547 H   0  0  0  0  0  0
  -31.3137  -21.7500   20.1438 H   0  0  0  0  0  0
  -30.9598  -20.5971   18.8832 H   0  0  0  0  0  0
  -29.0719  -19.2283   18.2655 H   0  0  0  0  0  0
  -28.4046  -17.6491   18.6490 H   0  0  0  0  0  0
  -30.1249  -17.8124   18.2887 H   0  0  0  0  0  0
  -32.8357  -14.4368   24.7358 H   0  0  0  0  0  0
  -31.3733  -13.7871   23.9945 H   0  0  0  0  0  0
  -31.2657  -14.7400   25.4733 H   0  0  0  0  0  0
  -29.6583  -15.3885   23.0089 H   0  0  0  0  0  0
  -29.6532  -16.4604   24.3315 H   0  0  0  0  0  0
  -32.1939  -15.8029   22.7507 H   0  0  0  0  0  0
  -32.1214  -16.7607   24.2043 H   0  0  0  0  0  0
  -30.3374  -19.8960   24.7421 H   0  0  0  0  0  0
  -30.5687  -18.2265   24.9419 H   0  0  0  0  0  0
  -28.7588  -15.5875   20.3941 H   0  0  0  0  0  0
  1 25  1  0  0  0
  1 30  2  0  0  0
  1 89  1  0  0  0
  2  3  1  0  0  0
  2 25  1  0  0  0
  2 91  1  0  0  0
  2 92  1  0  0  0
  3  4  1  0  0  0
  3 93  1  0  0  0
  3 94  1  0  0  0
  4  5  1  0  0  0
  4 95  1  0  0  0
  4 96  1  0  0  0
  5  6  1  0  0  0
  5 26  1  0  0  0
  5 97  1  0  0  0
  6 25  1  0  0  0
  6 98  1  0  0  0
  6 99  1  0  0  0
  7  8  2  0  0  0
  7 26  1  0  0  0
  7 29  1  0  0  0
  8  9  1  0  0  0
  8 22  1  0  0  0
  9 10  1  0  0  0
  9 27  2  0  0  0
 10 11  2  0  0  0
 10 15  1  0  0  0
 11 12  1  0  0  0
 11100  1  0  0  0
 12 13  2  0  0  0
 12101  1  0  0  0
 13 14  1  0  0  0
 13 31  1  0  0  0
 14 15  2  0  0  0
 14102  1  0  0  0
 15103  1  0  0  0
 16 17  2  0  0  0
 16 21  1  0  0  0
 16 31  1  0  0  0
 17 18  1  0  0  0
 17104  1  0  0  0
 18 19  2  0  0  0
 18105  1  0  0  0
 19 20  1  0  0  0
 19 24  1  0  0  0
 20 21  2  0  0  0
 20106  1  0  0  0
 21 23  1  0  0  0
 22 28  1  0  0  0
 22 32  2  0  0  0
 26 27  1  0  0  0
 28107  1  0  0  0
 28108  1  0  0  0
 29109  1  0  0  0
 29110  1  0  0  0
 33 34  1  0  0  0
 33 66  1  0  0  0
 33 70  2  0  0  0
 34 36  1  0  0  0
 34 59  1  0  0  0
 34111  1  0  0  0
 35 44  2  0  0  0
 35 45  1  0  0  0
 35 68  1  0  0  0
 36 56  1  0  0  0
 36112  1  0  0  0
 37 39  1  0  0  0
 37 47  1  0  0  0
 37 66  1  0  0  0
 37113  1  0  0  0
 38 43  2  0  0  0
 38 46  1  0  0  0
 38 47  1  0  0  0
 39 64  1  0  0  0
 39 67  2  0  0  0
 40 52  1  0  0  0
 40 53  2  0  0  0
 40 58  1  0  0  0
 41114  1  0  0  0
 41115  1  0  0  0
 41116  1  0  0  0
 41 48  1  0  0  0
 42 43  1  0  0  0
 42 66  1  0  0  0
 42117  1  0  0  0
 42118  1  0  0  0
 43 44  1  0  0  0
 44119  1  0  0  0
 45 46  2  0  0  0
 45120  1  0  0  0
 46121  1  0  0  0
 47122  1  0  0  0
 47123  1  0  0  0
 48 56  1  0  0  0
 48 65  1  0  0  0
 48124  1  0  0  0
 49 50  1  0  0  0
 49 53  1  0  0  0
 49 64  1  0  0  0
 49125  1  0  0  0
 50 51  1  0  0  0
 50126  1  0  0  0
 50127  1  0  0  0
 51 52  1  0  0  0
 51128  1  0  0  0
 51129  1  0  0  0
 52130  1  0  0  0
 52131  1  0  0  0
 53 54  1  0  0  0
 54 55  2  0  0  0
 54132  1  0  0  0
 55 57  1  0  0  0
 55133  1  0  0  0
 56 69  2  0  0  0
 57 58  2  0  0  0
 57134  1  0  0  0
 58135  1  0  0  0
 59 60  1  0  0  0
 59 61  1  0  0  0
 59 62  1  0  0  0
 60136  1  0  0  0
 60137  1  0  0  0
 60138  1  0  0  0
 61139  1  0  0  0
 61140  1  0  0  0
 61141  1  0  0  0
 62142  1  0  0  0
 62143  1  0  0  0
 62144  1  0  0  0
 63 65  1  0  0  0
 63145  1  0  0  0
 63146  1  0  0  0
 63147  1  0  0  0
 64148  1  0  0  0
 65149  1  0  0  0
 68 79  1  0  0  0
 71 74  2  0  0  0
 71 75  1  0  0  0
 71150  1  0  0  0
 72 74  1  0  0  0
 72 76  2  0  0  0
 72 83  1  0  0  0
 73 75  2  0  0  0
 73 76  1  0  0  0
 73 85  1  0  0  0
 74 87  1  0  0  0
 75 88  1  0  0  0
 76 89  1  0  0  0
 77 78  1  0  0  0
 77 79  2  0  0  0
 77 80  1  0  0  0
 78 81  1  0  0  0
 78 90  2  0  0  0
 79151  1  0  0  0
 80 87  1  0  0  0
 80152  1  0  0  0
 80153  1  0  0  0
 81 82  1  0  0  0
 81154  1  0  0  0
 81155  1  0  0  0
 82 87  1  0  0  0
 82156  1  0  0  0
 82157  1  0  0  0
 83158  1  0  0  0
 83159  1  0  0  0
 83160  1  0  0  0
 84 86  1  0  0  0
 84161  1  0  0  0
 84162  1  0  0  0
 84163  1  0  0  0
 85 86  1  0  0  0
 85164  1  0  0  0
 85165  1  0  0  0
 86166  1  0  0  0
 86167  1  0  0  0
 88168  1  0  0  0
 88169  1  0  0  0
 89170  1  0  0  0
M  ISO  4   1 100  68 101  79 101  89 100
M  END
> <chiral flag>
0

> <version>
0

> <s_m_source_file>
/data/baiqing/PycharmProjects/Reinvent-master-3.2/result/LINK_invent/BTK/process_docking_weight1_custom_product_contain_oxygen_bond_distance_aromatic_linkinvent_7_9_3/rearranged_h_0110.sdf

> <i_m_source_file_index>
40

> <r_mmod_Potential_Energy-OPLS-2005>
267.114959716797

> <r_mmod_Stretch_Energy-OPLS-2005>
143.331024169922

> <r_mmod_Bend_Energy-OPLS-2005>
171.733367919922

> <r_mmod_Torsional_Energy-OPLS-2005>
258.641998291016

> <r_mmod_Improper_Torsional_Energy-OPLS-2005>
15.8226137161255

> <r_mmod_Van_der_Waal_Energy-OPLS-2005>
143.733856201172

> <r_mmod_Electrostatic_Energy-OPLS-2005>
-332.756011962891

> <r_mmod_Solvation_Energy-OPLS-2005>
-230.915084838867

> <b_mmod_Minimization_Converged-OPLS-2005>
0

> <r_mmod_RMS_Derivative-OPLS-2005>
2.32292032241821

$$$$
41
                    3D
 Structure written by MMmdl.
166174  0  0  1  0            999 V2000
  -30.6853  -14.5326   20.5718 C   0  0  0  0  0  0
  -30.4234  -12.3478   19.4313 C   0  0  0  0  0  0
  -29.4963  -12.5081   18.2089 C   0  0  0  0  0  0
  -28.0195  -12.3568   18.6234 C   0  0  0  0  0  0
  -27.6549  -13.2142   19.8658 C   0  0  2  0  0  0
  -28.6968  -13.0353   20.9919 C   0  0  0  0  0  0
  -25.2568  -13.8169   20.5679 C   0  0  0  0  0  0
  -24.1831  -13.0440   20.9191 C   0  0  0  0  0  0
  -24.6396  -11.6912   20.8731 C   0  0  0  0  0  0
  -23.9067  -10.4297   21.0401 C   0  0  0  0  0  0
  -24.3616   -9.4213   21.9188 C   0  0  0  0  0  0
  -23.6293   -8.2251   22.0752 C   0  0  0  0  0  0
  -22.4274   -8.0286   21.3542 C   0  0  0  0  0  0
  -21.9915   -9.0256   20.4641 C   0  0  0  0  0  0
  -22.7243  -10.2139   20.3050 C   0  0  0  0  0  0
  -21.6852   -6.0744   22.5281 C   0  0  0  0  0  0
  -21.4008   -6.5644   23.8217 C   0  0  0  0  0  0
  -21.3660   -5.6794   24.9176 C   0  0  0  0  0  0
  -21.6043   -4.3055   24.7220 C   0  0  0  0  0  0
  -21.8819   -3.8150   23.4342 C   0  0  0  0  0  0
  -21.9194   -4.6974   22.3404 C   0  0  0  0  0  0
  -22.7855  -13.5246   21.1865 C   0  0  0  0  0  0
  -22.1661   -4.2161   21.0983 F   0  0  0  0  0  0
  -21.5632   -3.4537   25.7733 F   0  0  0  0  0  0
  -30.0181  -13.3514   20.4300 N   0  0  0  0  0  0
  -26.2993  -12.9352   20.3323 N   0  0  0  0  0  0
  -25.9321  -11.6506   20.5746 N   0  0  0  0  0  0
  -22.0493  -12.8217   22.0399 N   0  0  0  0  0  0
  -25.4285  -15.1889   20.4096 N   0  0  0  0  0  0
  -31.8279  -14.6979   20.1349 O   0  0  0  0  0  0
  -21.6638   -6.8884   21.4241 O   0  0  0  0  0  0
  -22.3549  -14.5574   20.6744 O   0  0  0  0  0  0
  -24.6211  -31.8650   23.2077 C   0  0  0  0  0  0
  -25.9090  -32.4798   23.8382 C   0  0  1  0  0  0
  -27.2223  -27.3816   20.0977 C   0  0  0  0  0  0
  -25.5939  -33.8593   24.2321 N   0  0  0  0  0  0
  -23.4096  -30.4910   21.5505 C   0  0  2  0  0  0
  -24.8515  -28.9557   20.1099 C   0  0  0  0  0  0
  -22.7443  -29.4659   22.4982 C   0  0  0  0  0  0
  -18.0277  -28.1380   22.8491 C   0  0  0  0  0  0
  -24.1483  -36.7294   23.2641 C   0  0  0  0  0  0
  -25.9443  -30.8144   21.3675 C   0  0  0  0  0  0
  -26.0163  -29.4458   20.7121 C   0  0  0  0  0  0
  -27.2030  -28.6677   20.7018 C   0  0  0  0  0  0
  -26.0354  -26.9296   19.4720 C   0  0  0  0  0  0
  -24.8595  -27.7000   19.4843 C   0  0  0  0  0  0
  -23.6167  -29.8281   20.1636 C   0  0  0  0  0  0
  -25.4108  -36.3095   24.0337 C   0  0  1  0  0  0
  -20.5876  -28.3676   23.1303 C   0  0  2  0  0  0
  -20.6767  -26.9404   22.5419 C   0  0  0  0  0  0
  -19.5739  -26.6383   21.5221 C   0  0  0  0  0  0
  -18.1917  -26.7929   22.1621 C   0  0  0  0  0  0
  -19.1532  -28.8846   23.2890 C   0  0  0  0  0  0
  -18.9454  -30.1454   23.8902 C   0  0  0  0  0  0
  -17.6452  -30.6583   24.0575 C   0  0  0  0  0  0
  -25.9046  -34.9461   23.5126 C   0  0  0  0  0  0
  -16.5344  -29.9084   23.6336 C   0  0  0  0  0  0
  -16.7264  -28.6502   23.0352 C   0  0  0  0  0  0
  -26.4503  -31.6580   25.0722 C   0  0  0  0  0  0
  -25.3750  -31.3668   26.1453 C   0  0  0  0  0  0
  -27.0361  -30.3031   24.6118 C   0  0  0  0  0  0
  -27.6077  -32.4300   25.7481 C   0  0  0  0  0  0
  -27.5573  -37.1808   24.8474 C   0  0  0  0  0  0
  -21.4167  -29.3040   22.3717 N   0  0  0  0  0  0
  -26.4289  -37.3784   23.9411 N   0  0  0  0  0  0
  -24.6774  -31.0715   22.0995 N   0  0  0  0  0  0
  -23.4193  -28.8204   23.3043 O   0  0  0  0  0  0
  -28.3704  -26.5956   20.1442 O   0  0  0  0  0  0
  -26.5603  -34.8924   22.4686 O   0  0  0  0  0  0
  -23.5394  -32.1428   23.7449 O   0  0  0  0  0  0
  -31.9004  -18.5524   22.4211 C   0  0  0  0  0  0
  -31.4963  -17.2060   22.2599 C   0  0  0  0  0  0
  -31.2948  -19.6255   21.7303 C   0  0  0  0  0  0
  -30.4367  -16.9146   21.3499 C   0  0  0  0  0  0
  -30.1622  -19.3718   20.9053 C   0  0  0  0  0  0
  -29.7703  -18.0084   20.7187 C   0  0  0  0  0  0
  -31.8725  -20.9730   21.9019 C   0  0  0  0  0  0
  -32.4391  -21.4495   23.0253 C   0  0  0  0  0  0
  -32.1617  -16.1737   23.1207 C   0  0  0  0  0  0
  -33.0399  -22.8318   23.1597 C   0  0  0  0  0  0
  -33.6244  -16.4001   23.4927 C   0  0  0  0  0  0
  -29.4189  -24.3003   20.3773 C   0  0  0  0  0  0
  -29.5160  -22.8315   19.8277 C   0  0  0  0  0  0
  -28.2502  -25.1779   19.8357 C   0  0  0  0  0  0
  -29.1252  -21.6523   20.7778 C   0  0  0  0  0  0
  -29.9727  -15.5693   21.0809 N   0  0  0  0  0  0
  -31.5989  -15.1569   23.5367 O   0  0  0  0  0  0
  -29.4632  -20.3610   20.2007 O   0  0  0  0  0  0
  -28.7226  -17.7385   19.9011 F   0  0  0  0  0  0
  -31.4678  -12.4547   19.1325 H   0  0  0  0  0  0
  -30.3349  -11.3444   19.8505 H   0  0  0  0  0  0
  -29.7468  -11.7686   17.4466 H   0  0  0  0  0  0
  -29.6520  -13.4859   17.7493 H   0  0  0  0  0  0
  -27.8457  -11.3018   18.8375 H   0  0  0  0  0  0
  -27.3656  -12.6065   17.7870 H   0  0  0  0  0  0
  -27.6856  -14.2563   19.5455 H   0  0  0  0  0  0
  -28.6882  -12.0100   21.3640 H   0  0  0  0  0  0
  -28.4507  -13.6596   21.8524 H   0  0  0  0  0  0
  -25.2758   -9.5695   22.4769 H   0  0  0  0  0  0
  -23.9999   -7.4645   22.7476 H   0  0  0  0  0  0
  -21.0849   -8.8775   19.8943 H   0  0  0  0  0  0
  -22.3704  -10.9676   19.6157 H   0  0  0  0  0  0
  -21.1984   -7.6149   23.9722 H   0  0  0  0  0  0
  -21.1483   -6.0521   25.9082 H   0  0  0  0  0  0
  -22.0595   -2.7610   23.2837 H   0  0  0  0  0  0
  -22.4080  -11.9840   22.4733 H   0  0  0  0  0  0
  -21.1120  -13.1253   22.2631 H   0  0  0  0  0  0
  -24.6585  -15.8405   20.5162 H   0  0  0  0  0  0
  -26.2767  -15.6333   20.0800 H   0  0  0  0  0  0
  -26.7163  -32.5488   23.1142 H   0  0  0  0  0  0
  -25.0125  -33.9750   25.0492 H   0  0  0  0  0  0
  -22.7012  -31.3105   21.4125 H   0  0  0  0  0  0
  -23.3755  -35.9620   23.3304 H   0  0  0  0  0  0
  -24.3581  -36.8910   22.2060 H   0  0  0  0  0  0
  -23.7225  -37.6490   23.6661 H   0  0  0  0  0  0
  -26.0647  -31.5779   20.5980 H   0  0  0  0  0  0
  -26.8304  -30.8647   21.9891 H   0  0  0  0  0  0
  -28.1006  -29.0413   21.1758 H   0  0  0  0  0  0
  -25.9861  -25.9754   18.9685 H   0  0  0  0  0  0
  -23.9664  -27.3202   19.0069 H   0  0  0  0  0  0
  -23.7261  -30.6056   19.4070 H   0  0  0  0  0  0
  -22.7381  -29.2530   19.8662 H   0  0  0  0  0  0
  -25.1282  -36.1959   25.0835 H   0  0  0  0  0  0
  -20.9958  -28.3232   24.1427 H   0  0  0  0  0  0
  -20.5676  -26.2280   23.3612 H   0  0  0  0  0  0
  -21.6627  -26.7443   22.1196 H   0  0  0  0  0  0
  -19.6898  -25.6298   21.1233 H   0  0  0  0  0  0
  -19.6672  -27.3211   20.6766 H   0  0  0  0  0  0
  -17.4191  -26.6708   21.4016 H   0  0  0  0  0  0
  -18.0288  -26.0055   22.8996 H   0  0  0  0  0  0
  -19.7934  -30.7281   24.2252 H   0  0  0  0  0  0
  -17.5006  -31.6266   24.5175 H   0  0  0  0  0  0
  -15.5342  -30.2988   23.7662 H   0  0  0  0  0  0
  -15.8664  -28.0832   22.7054 H   0  0  0  0  0  0
  -24.5959  -30.6984   25.7779 H   0  0  0  0  0  0
  -24.8898  -32.2798   26.4903 H   0  0  0  0  0  0
  -25.8090  -30.8839   27.0217 H   0  0  0  0  0  0
  -26.2927  -29.6750   24.1202 H   0  0  0  0  0  0
  -27.4178  -29.7307   25.4584 H   0  0  0  0  0  0
  -27.8731  -30.4363   23.9259 H   0  0  0  0  0  0
  -27.2725  -33.3625   26.2034 H   0  0  0  0  0  0
  -28.3902  -32.6808   25.0304 H   0  0  0  0  0  0
  -28.0729  -31.8423   26.5410 H   0  0  0  0  0  0
  -28.2599  -38.0097   24.7513 H   0  0  0  0  0  0
  -28.1057  -36.2627   24.6306 H   0  0  0  0  0  0
  -27.2286  -37.1459   25.8876 H   0  0  0  0  0  0
  -20.9344  -29.8766   21.6931 H   0  0  0  0  0  0
  -26.0172  -38.2862   24.1406 H   0  0  0  0  0  0
  -32.7238  -18.7749   23.0832 H   0  0  0  0  0  0
  -31.8539  -21.6072   21.0289 H   0  0  0  0  0  0
  -32.4820  -20.8384   23.9162 H   0  0  0  0  0  0
  -32.9349  -23.4090   22.2403 H   0  0  0  0  0  0
  -34.1006  -22.7563   23.3988 H   0  0  0  0  0  0
  -32.5482  -23.3803   23.9635 H   0  0  0  0  0  0
  -34.1985  -16.6854   22.6117 H   0  0  0  0  0  0
  -34.0552  -15.4875   23.9040 H   0  0  0  0  0  0
  -33.7158  -17.1834   24.2440 H   0  0  0  0  0  0
  -30.3449  -24.8095   20.1077 H   0  0  0  0  0  0
  -29.4048  -24.2923   21.4680 H   0  0  0  0  0  0
  -30.5525  -22.6733   19.5305 H   0  0  0  0  0  0
  -28.9507  -22.7468   18.8992 H   0  0  0  0  0  0
  -27.3276  -24.7657   20.2462 H   0  0  0  0  0  0
  -28.1944  -25.0760   18.7509 H   0  0  0  0  0  0
  -28.0444  -21.6725   20.9206 H   0  0  0  0  0  0
  -29.5248  -21.8007   21.7784 H   0  0  0  0  0  0
  -28.9864  -15.4032   21.2062 H   0  0  0  0  0  0
  1 25  1  0  0  0
  1 30  2  0  0  0
  1 86  1  0  0  0
  2  3  1  0  0  0
  2 25  1  0  0  0
  2 90  1  0  0  0
  2 91  1  0  0  0
  3  4  1  0  0  0
  3 92  1  0  0  0
  3 93  1  0  0  0
  4  5  1  0  0  0
  4 94  1  0  0  0
  4 95  1  0  0  0
  5  6  1  0  0  0
  5 26  1  0  0  0
  5 96  1  0  0  0
  6 25  1  0  0  0
  6 97  1  0  0  0
  6 98  1  0  0  0
  7  8  2  0  0  0
  7 26  1  0  0  0
  7 29  1  0  0  0
  8  9  1  0  0  0
  8 22  1  0  0  0
  9 10  1  0  0  0
  9 27  2  0  0  0
 10 11  2  0  0  0
 10 15  1  0  0  0
 11 12  1  0  0  0
 11 99  1  0  0  0
 12 13  2  0  0  0
 12100  1  0  0  0
 13 14  1  0  0  0
 13 31  1  0  0  0
 14 15  2  0  0  0
 14101  1  0  0  0
 15102  1  0  0  0
 16 17  2  0  0  0
 16 21  1  0  0  0
 16 31  1  0  0  0
 17 18  1  0  0  0
 17103  1  0  0  0
 18 19  2  0  0  0
 18104  1  0  0  0
 19 20  1  0  0  0
 19 24  1  0  0  0
 20 21  2  0  0  0
 20105  1  0  0  0
 21 23  1  0  0  0
 22 28  1  0  0  0
 22 32  2  0  0  0
 26 27  1  0  0  0
 28106  1  0  0  0
 28107  1  0  0  0
 29108  1  0  0  0
 29109  1  0  0  0
 33 34  1  0  0  0
 33 66  1  0  0  0
 33 70  2  0  0  0
 34 36  1  0  0  0
 34 59  1  0  0  0
 34110  1  0  0  0
 35 44  2  0  0  0
 35 45  1  0  0  0
 35 68  1  0  0  0
 36 56  1  0  0  0
 36111  1  0  0  0
 37 39  1  0  0  0
 37 47  1  0  0  0
 37 66  1  0  0  0
 37112  1  0  0  0
 38 43  2  0  0  0
 38 46  1  0  0  0
 38 47  1  0  0  0
 39 64  1  0  0  0
 39 67  2  0  0  0
 40 52  1  0  0  0
 40 53  2  0  0  0
 40 58  1  0  0  0
 41113  1  0  0  0
 41114  1  0  0  0
 41115  1  0  0  0
 41 48  1  0  0  0
 42 43  1  0  0  0
 42 66  1  0  0  0
 42116  1  0  0  0
 42117  1  0  0  0
 43 44  1  0  0  0
 44118  1  0  0  0
 45 46  2  0  0  0
 45119  1  0  0  0
 46120  1  0  0  0
 47121  1  0  0  0
 47122  1  0  0  0
 48 56  1  0  0  0
 48 65  1  0  0  0
 48123  1  0  0  0
 49 50  1  0  0  0
 49 53  1  0  0  0
 49 64  1  0  0  0
 49124  1  0  0  0
 50 51  1  0  0  0
 50125  1  0  0  0
 50126  1  0  0  0
 51 52  1  0  0  0
 51127  1  0  0  0
 51128  1  0  0  0
 52129  1  0  0  0
 52130  1  0  0  0
 53 54  1  0  0  0
 54 55  2  0  0  0
 54131  1  0  0  0
 55 57  1  0  0  0
 55132  1  0  0  0
 56 69  2  0  0  0
 57 58  2  0  0  0
 57133  1  0  0  0
 58134  1  0  0  0
 59 60  1  0  0  0
 59 61  1  0  0  0
 59 62  1  0  0  0
 60135  1  0  0  0
 60136  1  0  0  0
 60137  1  0  0  0
 61138  1  0  0  0
 61139  1  0  0  0
 61140  1  0  0  0
 62141  1  0  0  0
 62142  1  0  0  0
 62143  1  0  0  0
 63 65  1  0  0  0
 63144  1  0  0  0
 63145  1  0  0  0
 63146  1  0  0  0
 64147  1  0  0  0
 65148  1  0  0  0
 68 84  1  0  0  0
 71 72  2  0  0  0
 71 73  1  0  0  0
 71149  1  0  0  0
 72 74  1  0  0  0
 72 79  1  0  0  0
 73 75  2  0  0  0
 73 77  1  0  0  0
 74 76  2  0  0  0
 74 86  1  0  0  0
 75 76  1  0  0  0
 75 88  1  0  0  0
 76 89  1  0  0  0
 77 78  2  0  0  0
 77150  1  0  0  0
 78 80  1  0  0  0
 78151  1  0  0  0
 79 81  1  0  0  0
 79 87  2  0  0  0
 80152  1  0  0  0
 80153  1  0  0  0
 80154  1  0  0  0
 81155  1  0  0  0
 81156  1  0  0  0
 81157  1  0  0  0
 82 83  1  0  0  0
 82 84  1  0  0  0
 82158  1  0  0  0
 82159  1  0  0  0
 83 85  1  0  0  0
 83160  1  0  0  0
 83161  1  0  0  0
 84162  1  0  0  0
 84163  1  0  0  0
 85 88  1  0  0  0
 85164  1  0  0  0
 85165  1  0  0  0
 86166  1  0  0  0
M  ISO  4   1 100  68 101  84 101  86 100
M  END
> <chiral flag>
0

> <version>
0

> <s_m_source_file>
/data/baiqing/PycharmProjects/Reinvent-master-3.2/result/LINK_invent/BTK/process_docking_weight1_custom_product_contain_oxygen_bond_distance_aromatic_linkinvent_7_9_3/rearranged_h_0110.sdf

> <i_m_source_file_index>
41

> <r_mmod_Potential_Energy-OPLS-2005>
76.1394195556641

> <r_mmod_Stretch_Energy-OPLS-2005>
57.0090141296387

> <r_mmod_Bend_Energy-OPLS-2005>
123.864814758301

> <r_mmod_Torsional_Energy-OPLS-2005>
290.249938964844

> <r_mmod_Improper_Torsional_Energy-OPLS-2005>
3.74769353866577

> <r_mmod_Van_der_Waal_Energy-OPLS-2005>
163.247131347656

> <r_mmod_Electrostatic_Energy-OPLS-2005>
-380.941162109375

> <r_mmod_Solvation_Energy-OPLS-2005>
-204.691909790039

> <b_mmod_Minimization_Converged-OPLS-2005>
0

> <r_mmod_RMS_Derivative-OPLS-2005>
1.53817510604858

$$$$
42
                    3D
 Structure written by MMmdl.
164172  0  0  1  0            999 V2000
  -30.6125  -14.6638   20.5010 C   0  0  0  0  0  0
  -30.4424  -12.4054   19.4594 C   0  0  0  0  0  0
  -29.5121  -12.5009   18.2303 C   0  0  0  0  0  0
  -28.0354  -12.3348   18.6429 C   0  0  0  0  0  0
  -27.6505  -13.2139   19.8637 C   0  0  2  0  0  0
  -28.6959  -13.0853   20.9938 C   0  0  0  0  0  0
  -25.2553  -13.8150   20.5727 C   0  0  0  0  0  0
  -24.1832  -13.0406   20.9234 C   0  0  0  0  0  0
  -24.6393  -11.6881   20.8760 C   0  0  0  0  0  0
  -23.9078  -10.4254   21.0389 C   0  0  0  0  0  0
  -24.3617   -9.4163   21.9163 C   0  0  0  0  0  0
  -23.6280   -8.2211   22.0743 C   0  0  0  0  0  0
  -22.4266   -8.0250   21.3546 C   0  0  0  0  0  0
  -21.9921   -9.0220   20.4648 C   0  0  0  0  0  0
  -22.7253  -10.2093   20.3048 C   0  0  0  0  0  0
  -21.6864   -6.0711   22.5291 C   0  0  0  0  0  0
  -21.4020   -6.5630   23.8217 C   0  0  0  0  0  0
  -21.3665   -5.6798   24.9192 C   0  0  0  0  0  0
  -21.6039   -4.3058   24.7256 C   0  0  0  0  0  0
  -21.8814   -3.8140   23.4384 C   0  0  0  0  0  0
  -21.9191   -4.6942   22.3430 C   0  0  0  0  0  0
  -22.7858  -13.5183   21.1882 C   0  0  0  0  0  0
  -22.1654   -4.2122   21.1008 F   0  0  0  0  0  0
  -21.5624   -3.4550   25.7768 F   0  0  0  0  0  0
  -30.0076  -13.4327   20.4244 N   0  0  0  0  0  0
  -26.2972  -12.9325   20.3333 N   0  0  0  0  0  0
  -25.9318  -11.6479   20.5789 N   0  0  0  0  0  0
  -22.0511  -12.8146   22.0431 N   0  0  0  0  0  0
  -25.4253  -15.1872   20.4137 N   0  0  0  0  0  0
  -31.7895  -14.8209   20.1720 O   0  0  0  0  0  0
  -21.6642   -6.8837   21.4241 O   0  0  0  0  0  0
  -22.3524  -14.5481   20.6721 O   0  0  0  0  0  0
  -24.6291  -31.8557   23.2043 C   0  0  0  0  0  0
  -25.9137  -32.4735   23.8346 C   0  0  1  0  0  0
  -27.2183  -27.3087   20.1022 C   0  0  0  0  0  0
  -25.5949  -33.8540   24.2268 N   0  0  0  0  0  0
  -23.4203  -30.4839   21.5459 C   0  0  2  0  0  0
  -24.8656  -28.9437   20.1013 C   0  0  0  0  0  0
  -22.7470  -29.4606   22.4926 C   0  0  0  0  0  0
  -18.0279  -28.1381   22.8485 C   0  0  0  0  0  0
  -24.1498  -36.7285   23.2640 C   0  0  0  0  0  0
  -25.9628  -30.7845   21.3775 C   0  0  0  0  0  0
  -26.0350  -29.4129   20.7132 C   0  0  0  0  0  0
  -27.2134  -28.6066   20.7055 C   0  0  0  0  0  0
  -26.0239  -26.8991   19.4643 C   0  0  0  0  0  0
  -24.8641  -27.6951   19.4640 C   0  0  0  0  0  0
  -23.6342  -29.8272   20.1568 C   0  0  0  0  0  0
  -25.4111  -36.3051   24.0330 C   0  0  1  0  0  0
  -20.5885  -28.3679   23.1297 C   0  0  2  0  0  0
  -20.6771  -26.9406   22.5416 C   0  0  0  0  0  0
  -19.5751  -26.6391   21.5214 C   0  0  0  0  0  0
  -18.1926  -26.7927   22.1619 C   0  0  0  0  0  0
  -19.1531  -28.8852   23.2890 C   0  0  0  0  0  0
  -18.9447  -30.1459   23.8905 C   0  0  0  0  0  0
  -17.6443  -30.6584   24.0568 C   0  0  0  0  0  0
  -25.9049  -34.9422   23.5092 C   0  0  0  0  0  0
  -16.5340  -29.9076   23.6334 C   0  0  0  0  0  0
  -16.7263  -28.6500   23.0339 C   0  0  0  0  0  0
  -26.4535  -31.6542   25.0717 C   0  0  0  0  0  0
  -25.3807  -31.3651   26.1469 C   0  0  0  0  0  0
  -27.0368  -30.2950   24.6194 C   0  0  0  0  0  0
  -27.6077  -32.4285   25.7498 C   0  0  0  0  0  0
  -27.5578  -37.1782   24.8456 C   0  0  0  0  0  0
  -21.4182  -29.3033   22.3685 N   0  0  0  0  0  0
  -26.4264  -37.3764   23.9439 N   0  0  0  0  0  0
  -24.6893  -31.0575   22.0994 N   0  0  0  0  0  0
  -23.4185  -28.8135   23.2999 O   0  0  0  0  0  0
  -28.3332  -26.4516   20.1376 O   0  0  0  0  0  0
  -26.5607  -34.8901   22.4653 O   0  0  0  0  0  0
  -23.5451  -32.1368   23.7365 O   0  0  0  0  0  0
  -29.2387  -19.3534   19.6779 C   0  0  0  0  0  0
  -30.4427  -17.9308   21.7608 C   0  0  0  0  0  0
  -29.3060  -17.9226   19.6354 C   0  0  0  0  0  0
  -29.7734  -20.1179   20.7502 C   0  0  0  0  0  0
  -29.9051  -17.1692   20.6906 C   0  0  0  0  0  0
  -30.3900  -19.3674   21.7972 C   0  0  0  0  0  0
  -31.0324  -16.8065   17.4022 C   0  0  0  0  0  0
  -29.7233  -16.5235   17.5063 C   0  0  0  0  0  0
  -29.0875  -22.4357   20.1656 C   0  0  0  0  0  0
  -30.4864  -24.3557   19.2487 C   0  0  0  0  0  0
  -31.4568  -19.4324   23.9648 C   0  0  0  0  0  0
  -28.7212  -17.2196   18.4154 C   0  0  0  0  0  0
  -28.1216  -24.9888   19.9478 C   0  0  0  0  0  0
  -29.3442  -24.0036   20.2209 C   0  0  1  0  0  0
  -29.8035  -21.5633   20.8172 N   0  0  0  0  0  0
  -29.7694  -15.7098   20.7839 N   0  0  0  0  0  0
  -30.9091  -20.1096   22.8413 O   0  0  0  0  0  0
  -31.4823  -12.5412   19.1600 H   0  0  0  0  0  0
  -30.3841  -11.4137   19.9115 H   0  0  0  0  0  0
  -29.7829  -11.7387   17.4976 H   0  0  0  0  0  0
  -29.6540  -13.4620   17.7348 H   0  0  0  0  0  0
  -27.8838  -11.2818   18.8844 H   0  0  0  0  0  0
  -27.3801  -12.5468   17.7990 H   0  0  0  0  0  0
  -27.6597  -14.2459   19.5141 H   0  0  0  0  0  0
  -28.7120  -12.0692   21.3931 H   0  0  0  0  0  0
  -28.4371  -13.7300   21.8356 H   0  0  0  0  0  0
  -25.2758   -9.5644   22.4753 H   0  0  0  0  0  0
  -23.9998   -7.4609   22.7445 H   0  0  0  0  0  0
  -21.0873   -8.8728   19.8942 H   0  0  0  0  0  0
  -22.3701  -10.9621   19.6159 H   0  0  0  0  0  0
  -21.2021   -7.6148   23.9719 H   0  0  0  0  0  0
  -21.1495   -6.0543   25.9094 H   0  0  0  0  0  0
  -22.0597   -2.7597   23.2922 H   0  0  0  0  0  0
  -22.4160  -11.9836   22.4850 H   0  0  0  0  0  0
  -21.1110  -13.1117   22.2607 H   0  0  0  0  0  0
  -24.6585  -15.8422   20.5335 H   0  0  0  0  0  0
  -26.2713  -15.6304   20.0834 H   0  0  0  0  0  0
  -26.7205  -32.5402   23.1082 H   0  0  0  0  0  0
  -25.0110  -33.9669   25.0424 H   0  0  0  0  0  0
  -22.7174  -31.3078   21.4076 H   0  0  0  0  0  0
  -23.3748  -35.9621   23.3242 H   0  0  0  0  0  0
  -24.3621  -36.8962   22.2069 H   0  0  0  0  0  0
  -23.7252  -37.6472   23.6703 H   0  0  0  0  0  0
  -26.1048  -31.5561   20.6189 H   0  0  0  0  0  0
  -26.8392  -30.8245   22.0124 H   0  0  0  0  0  0
  -28.1111  -28.9618   21.1942 H   0  0  0  0  0  0
  -25.9563  -25.9527   18.9513 H   0  0  0  0  0  0
  -23.9750  -27.3431   18.9574 H   0  0  0  0  0  0
  -23.7502  -30.6107   19.4069 H   0  0  0  0  0  0
  -22.7545  -29.2601   19.8487 H   0  0  0  0  0  0
  -25.1289  -36.1877   25.0813 H   0  0  0  0  0  0
  -20.9976  -28.3258   24.1418 H   0  0  0  0  0  0
  -20.5705  -26.2280   23.3602 H   0  0  0  0  0  0
  -21.6638  -26.7450   22.1192 H   0  0  0  0  0  0
  -19.6919  -25.6312   21.1220 H   0  0  0  0  0  0
  -19.6696  -27.3230   20.6768 H   0  0  0  0  0  0
  -17.4202  -26.6672   21.4019 H   0  0  0  0  0  0
  -18.0325  -26.0072   22.9017 H   0  0  0  0  0  0
  -19.7922  -30.7275   24.2271 H   0  0  0  0  0  0
  -17.4991  -31.6264   24.5156 H   0  0  0  0  0  0
  -15.5337  -30.2963   23.7674 H   0  0  0  0  0  0
  -15.8660  -28.0828   22.7028 H   0  0  0  0  0  0
  -24.6006  -30.6955   25.7843 H   0  0  0  0  0  0
  -24.8984  -32.2790   26.4938 H   0  0  0  0  0  0
  -25.8200  -30.8843   27.0216 H   0  0  0  0  0  0
  -26.2924  -29.6677   24.1274 H   0  0  0  0  0  0
  -27.4097  -29.7242   25.4710 H   0  0  0  0  0  0
  -27.8797  -30.4193   23.9388 H   0  0  0  0  0  0
  -27.2660  -33.3581   26.2062 H   0  0  0  0  0  0
  -28.3901  -32.6835   25.0342 H   0  0  0  0  0  0
  -28.0727  -31.8420   26.5432 H   0  0  0  0  0  0
  -28.2530  -38.0141   24.7548 H   0  0  0  0  0  0
  -28.1125  -36.2662   24.6190 H   0  0  0  0  0  0
  -27.2314  -37.1328   25.8861 H   0  0  0  0  0  0
  -20.9355  -29.8764   21.6906 H   0  0  0  0  0  0
  -26.0120  -38.2817   24.1486 H   0  0  0  0  0  0
  -28.7727  -19.8728   18.8517 H   0  0  0  0  0  0
  -30.8833  -17.3813   22.5776 H   0  0  0  0  0  0
  -31.6629  -16.2559   16.7185 H   0  0  0  0  0  0
  -31.5017  -17.5778   17.9948 H   0  0  0  0  0  0
  -29.3167  -15.7429   16.8798 H   0  0  0  0  0  0
  -28.2753  -22.1333   19.4977 H   0  0  0  0  0  0
  -31.3898  -23.7910   19.4751 H   0  0  0  0  0  0
  -30.7406  -25.4147   19.2977 H   0  0  0  0  0  0
  -30.2114  -24.1340   18.2154 H   0  0  0  0  0  0
  -30.7286  -18.7682   24.4331 H   0  0  0  0  0  0
  -31.7445  -20.1748   24.7101 H   0  0  0  0  0  0
  -32.3526  -18.8668   23.7037 H   0  0  0  0  0  0
  -28.1576  -17.9287   17.8095 H   0  0  0  0  0  0
  -27.9959  -16.4816   18.7563 H   0  0  0  0  0  0
  -27.2907  -24.6784   20.5829 H   0  0  0  0  0  0
  -27.7963  -24.8163   18.9202 H   0  0  0  0  0  0
  -29.6858  -24.2188   21.2339 H   0  0  0  0  0  0
  -28.8284  -15.3953   20.9553 H   0  0  0  0  0  0
  1 25  1  0  0  0
  1 30  2  0  0  0
  1 86  1  0  0  0
  2  3  1  0  0  0
  2 25  1  0  0  0
  2 88  1  0  0  0
  2 89  1  0  0  0
  3  4  1  0  0  0
  3 90  1  0  0  0
  3 91  1  0  0  0
  4  5  1  0  0  0
  4 92  1  0  0  0
  4 93  1  0  0  0
  5  6  1  0  0  0
  5 26  1  0  0  0
  5 94  1  0  0  0
  6 25  1  0  0  0
  6 95  1  0  0  0
  6 96  1  0  0  0
  7  8  2  0  0  0
  7 26  1  0  0  0
  7 29  1  0  0  0
  8  9  1  0  0  0
  8 22  1  0  0  0
  9 10  1  0  0  0
  9 27  2  0  0  0
 10 11  2  0  0  0
 10 15  1  0  0  0
 11 12  1  0  0  0
 11 97  1  0  0  0
 12 13  2  0  0  0
 12 98  1  0  0  0
 13 14  1  0  0  0
 13 31  1  0  0  0
 14 15  2  0  0  0
 14 99  1  0  0  0
 15100  1  0  0  0
 16 17  2  0  0  0
 16 21  1  0  0  0
 16 31  1  0  0  0
 17 18  1  0  0  0
 17101  1  0  0  0
 18 19  2  0  0  0
 18102  1  0  0  0
 19 20  1  0  0  0
 19 24  1  0  0  0
 20 21  2  0  0  0
 20103  1  0  0  0
 21 23  1  0  0  0
 22 28  1  0  0  0
 22 32  2  0  0  0
 26 27  1  0  0  0
 28104  1  0  0  0
 28105  1  0  0  0
 29106  1  0  0  0
 29107  1  0  0  0
 33 34  1  0  0  0
 33 66  1  0  0  0
 33 70  2  0  0  0
 34 36  1  0  0  0
 34 59  1  0  0  0
 34108  1  0  0  0
 35 44  2  0  0  0
 35 45  1  0  0  0
 35 68  1  0  0  0
 36 56  1  0  0  0
 36109  1  0  0  0
 37 39  1  0  0  0
 37 47  1  0  0  0
 37 66  1  0  0  0
 37110  1  0  0  0
 38 43  2  0  0  0
 38 46  1  0  0  0
 38 47  1  0  0  0
 39 64  1  0  0  0
 39 67  2  0  0  0
 40 52  1  0  0  0
 40 53  2  0  0  0
 40 58  1  0  0  0
 41111  1  0  0  0
 41112  1  0  0  0
 41113  1  0  0  0
 41 48  1  0  0  0
 42 43  1  0  0  0
 42 66  1  0  0  0
 42114  1  0  0  0
 42115  1  0  0  0
 43 44  1  0  0  0
 44116  1  0  0  0
 45 46  2  0  0  0
 45117  1  0  0  0
 46118  1  0  0  0
 47119  1  0  0  0
 47120  1  0  0  0
 48 56  1  0  0  0
 48 65  1  0  0  0
 48121  1  0  0  0
 49 50  1  0  0  0
 49 53  1  0  0  0
 49 64  1  0  0  0
 49122  1  0  0  0
 50 51  1  0  0  0
 50123  1  0  0  0
 50124  1  0  0  0
 51 52  1  0  0  0
 51125  1  0  0  0
 51126  1  0  0  0
 52127  1  0  0  0
 52128  1  0  0  0
 53 54  1  0  0  0
 54 55  2  0  0  0
 54129  1  0  0  0
 55 57  1  0  0  0
 55130  1  0  0  0
 56 69  2  0  0  0
 57 58  2  0  0  0
 57131  1  0  0  0
 58132  1  0  0  0
 59 60  1  0  0  0
 59 61  1  0  0  0
 59 62  1  0  0  0
 60133  1  0  0  0
 60134  1  0  0  0
 60135  1  0  0  0
 61136  1  0  0  0
 61137  1  0  0  0
 61138  1  0  0  0
 62139  1  0  0  0
 62140  1  0  0  0
 62141  1  0  0  0
 63 65  1  0  0  0
 63142  1  0  0  0
 63143  1  0  0  0
 63144  1  0  0  0
 64145  1  0  0  0
 65146  1  0  0  0
 68 83  1  0  0  0
 71 73  2  0  0  0
 71 74  1  0  0  0
 71147  1  0  0  0
 72 75  2  0  0  0
 72 76  1  0  0  0
 72148  1  0  0  0
 73 75  1  0  0  0
 73 82  1  0  0  0
 74 76  2  0  0  0
 74 85  1  0  0  0
 75 86  1  0  0  0
 76 87  1  0  0  0
 77 78  2  0  0  0
 77149  1  0  0  0
 77150  1  0  0  0
 78 82  1  0  0  0
 78151  1  0  0  0
 79 84  1  0  0  0
 79 85  2  0  0  0
 79152  1  0  0  0
 80153  1  0  0  0
 80154  1  0  0  0
 80155  1  0  0  0
 80 84  1  0  0  0
 81 87  1  0  0  0
 81156  1  0  0  0
 81157  1  0  0  0
 81158  1  0  0  0
 82159  1  0  0  0
 82160  1  0  0  0
 83 84  1  0  0  0
 83161  1  0  0  0
 83162  1  0  0  0
 84163  1  0  0  0
 86164  1  0  0  0
M  ISO  4   1 100  68 101  83 101  86 100
M  END
> <chiral flag>
0

> <version>
0

> <s_m_source_file>
/data/baiqing/PycharmProjects/Reinvent-master-3.2/result/LINK_invent/BTK/process_docking_weight1_custom_product_contain_oxygen_bond_distance_aromatic_linkinvent_7_9_3/rearranged_h_0110.sdf

> <i_m_source_file_index>
42

> <r_mmod_Potential_Energy-OPLS-2005>
108.810745239258

> <r_mmod_Stretch_Energy-OPLS-2005>
89.8286361694336

> <r_mmod_Bend_Energy-OPLS-2005>
156.84342956543

> <r_mmod_Torsional_Energy-OPLS-2005>
259.901275634766

> <r_mmod_Improper_Torsional_Energy-OPLS-2005>
5.80951166152954

> <r_mmod_Van_der_Waal_Energy-OPLS-2005>
140.563568115234

> <r_mmod_Electrostatic_Energy-OPLS-2005>
-372.554565429688

> <r_mmod_Solvation_Energy-OPLS-2005>
-227.421859741211

> <b_mmod_Minimization_Converged-OPLS-2005>
0

> <r_mmod_RMS_Derivative-OPLS-2005>
3.52879500389099

$$$$
43
                    3D
 Structure written by MMmdl.
162170  0  0  1  0            999 V2000
  -30.7373  -14.4759   20.5024 C   0  0  0  0  0  0
  -30.4087  -12.2946   19.4358 C   0  0  0  0  0  0
  -29.4949  -12.4928   18.2102 C   0  0  0  0  0  0
  -28.0160  -12.3628   18.6219 C   0  0  0  0  0  0
  -27.6581  -13.2132   19.8711 C   0  0  2  0  0  0
  -28.7047  -13.0547   21.0007 C   0  0  0  0  0  0
  -25.2568  -13.8137   20.5683 C   0  0  0  0  0  0
  -24.1820  -13.0416   20.9208 C   0  0  0  0  0  0
  -24.6391  -11.6890   20.8759 C   0  0  0  0  0  0
  -23.9056  -10.4278   21.0416 C   0  0  0  0  0  0
  -24.3598   -9.4197   21.9194 C   0  0  0  0  0  0
  -23.6293   -8.2221   22.0753 C   0  0  0  0  0  0
  -22.4281   -8.0258   21.3539 C   0  0  0  0  0  0
  -21.9912   -9.0236   20.4647 C   0  0  0  0  0  0
  -22.7228  -10.2123   20.3075 C   0  0  0  0  0  0
  -21.6840   -6.0709   22.5275 C   0  0  0  0  0  0
  -21.3994   -6.5620   23.8205 C   0  0  0  0  0  0
  -21.3682   -5.6790   24.9186 C   0  0  0  0  0  0
  -21.6071   -4.3055   24.7250 C   0  0  0  0  0  0
  -21.8809   -3.8128   23.4371 C   0  0  0  0  0  0
  -21.9178   -4.6931   22.3418 C   0  0  0  0  0  0
  -22.7843  -13.5221   21.1855 C   0  0  0  0  0  0
  -22.1638   -4.2100   21.1002 F   0  0  0  0  0  0
  -21.5673   -3.4544   25.7775 F   0  0  0  0  0  0
  -30.0376  -13.3120   20.4339 N   0  0  0  0  0  0
  -26.3011  -12.9326   20.3363 N   0  0  0  0  0  0
  -25.9323  -11.6477   20.5765 N   0  0  0  0  0  0
  -22.0449  -12.8240   22.0414 N   0  0  0  0  0  0
  -25.4282  -15.1837   20.4043 N   0  0  0  0  0  0
  -31.9112  -14.5654   20.1363 O   0  0  0  0  0  0
  -21.6653   -6.8846   21.4232 O   0  0  0  0  0  0
  -22.3561  -14.5535   20.6710 O   0  0  0  0  0  0
  -24.6153  -31.8688   23.2133 C   0  0  0  0  0  0
  -25.9056  -32.4833   23.8413 C   0  0  1  0  0  0
  -27.2229  -27.4270   20.1021 C   0  0  0  0  0  0
  -25.5920  -33.8632   24.2348 N   0  0  0  0  0  0
  -23.4031  -30.4929   21.5516 C   0  0  2  0  0  0
  -24.8497  -28.9669   20.1079 C   0  0  0  0  0  0
  -22.7411  -29.4635   22.4972 C   0  0  0  0  0  0
  -18.0260  -28.1376   22.8492 C   0  0  0  0  0  0
  -24.1477  -36.7313   23.2630 C   0  0  0  0  0  0
  -25.9321  -30.8335   21.3659 C   0  0  0  0  0  0
  -26.0107  -29.4686   20.7092 C   0  0  0  0  0  0
  -27.2046  -28.7099   20.6966 C   0  0  0  0  0  0
  -26.0470  -26.9525   19.4730 C   0  0  0  0  0  0
  -24.8644  -27.7111   19.4796 C   0  0  0  0  0  0
  -23.6143  -29.8353   20.1622 C   0  0  0  0  0  0
  -25.4106  -36.3130   24.0336 C   0  0  1  0  0  0
  -20.5849  -28.3667   23.1312 C   0  0  2  0  0  0
  -20.6748  -26.9403   22.5416 C   0  0  0  0  0  0
  -19.5735  -26.6391   21.5197 C   0  0  0  0  0  0
  -18.1913  -26.7928   22.1606 C   0  0  0  0  0  0
  -19.1507  -28.8839   23.2902 C   0  0  0  0  0  0
  -18.9435  -30.1447   23.8923 C   0  0  0  0  0  0
  -17.6435  -30.6593   24.0563 C   0  0  0  0  0  0
  -25.9032  -34.9486   23.5135 C   0  0  0  0  0  0
  -16.5328  -29.9103   23.6313 C   0  0  0  0  0  0
  -16.7242  -28.6504   23.0357 C   0  0  0  0  0  0
  -26.4494  -31.6610   25.0725 C   0  0  0  0  0  0
  -25.3789  -31.3683   26.1486 C   0  0  0  0  0  0
  -27.0294  -30.3059   24.6064 C   0  0  0  0  0  0
  -27.6081  -32.4312   25.7495 C   0  0  0  0  0  0
  -27.5572  -37.1821   24.8463 C   0  0  0  0  0  0
  -21.4129  -29.3044   22.3738 N   0  0  0  0  0  0
  -26.4287  -37.3812   23.9406 N   0  0  0  0  0  0
  -24.6680  -31.0787   22.1028 N   0  0  0  0  0  0
  -23.4181  -28.8159   23.3003 O   0  0  0  0  0  0
  -28.3647  -26.6525   20.1684 O   0  0  0  0  0  0
  -26.5558  -34.8923   22.4679 O   0  0  0  0  0  0
  -23.5346  -32.1434   23.7524 O   0  0  0  0  0  0
  -30.0477  -19.2322   19.3980 C   0  0  0  0  0  0
  -30.0496  -18.5031   21.7152 C   0  0  0  0  0  0
  -30.0796  -18.1822   20.3396 C   0  0  0  0  0  0
  -29.9975  -20.5862   19.7928 C   0  0  0  0  0  0
  -29.9935  -19.8572   22.1227 C   0  0  0  0  0  0
  -29.9543  -20.9099   21.1754 C   0  0  0  0  0  0
  -28.8177  -21.7387   17.8378 C   0  0  0  0  0  0
  -30.0858  -21.6446   18.7013 C   0  0  0  0  0  0
  -30.2503  -16.7637   19.7931 C   0  0  0  0  0  0
  -29.2456  -24.4785   21.0293 C   0  0  0  0  0  0
  -28.1275  -25.2381   20.2922 C   0  0  0  0  0  0
  -28.8285  -23.0208   21.3428 C   0  0  0  0  0  0
  -30.0001  -20.1665   23.4820 N   0  0  0  0  0  0
  -30.0021  -15.5939   20.6599 N   0  0  0  0  0  0
  -29.9711  -22.2150   21.6371 O   0  0  0  0  0  0
  -31.4568  -12.3556   19.1384 H   0  0  0  0  0  0
  -30.2686  -11.2958   19.8536 H   0  0  0  0  0  0
  -29.7320  -11.7611   17.4358 H   0  0  0  0  0  0
  -29.6772  -13.4725   17.7670 H   0  0  0  0  0  0
  -27.8278  -11.3070   18.8244 H   0  0  0  0  0  0
  -27.3673  -12.6283   17.7863 H   0  0  0  0  0  0
  -27.6861  -14.2538   19.5493 H   0  0  0  0  0  0
  -28.6713  -12.0486   21.4215 H   0  0  0  0  0  0
  -28.4858  -13.7360   21.8246 H   0  0  0  0  0  0
  -25.2729   -9.5688   22.4775 H   0  0  0  0  0  0
  -24.0003   -7.4622   22.7483 H   0  0  0  0  0  0
  -21.0834   -8.8772   19.8963 H   0  0  0  0  0  0
  -22.3684  -10.9676   19.6207 H   0  0  0  0  0  0
  -21.1952   -7.6124   23.9690 H   0  0  0  0  0  0
  -21.1537   -6.0529   25.9089 H   0  0  0  0  0  0
  -22.0568   -2.7580   23.2904 H   0  0  0  0  0  0
  -22.4045  -11.9944   22.4896 H   0  0  0  0  0  0
  -21.1053  -13.1279   22.2555 H   0  0  0  0  0  0
  -24.6534  -15.8328   20.4865 H   0  0  0  0  0  0
  -26.2701  -15.6166   20.0464 H   0  0  0  0  0  0
  -26.7108  -32.5548   23.1154 H   0  0  0  0  0  0
  -25.0181  -33.9825   25.0568 H   0  0  0  0  0  0
  -22.6891  -31.3077   21.4156 H   0  0  0  0  0  0
  -23.3743  -35.9638   23.3317 H   0  0  0  0  0  0
  -24.3551  -36.8908   22.2035 H   0  0  0  0  0  0
  -23.7229  -37.6527   23.6620 H   0  0  0  0  0  0
  -26.0394  -31.5995   20.5960 H   0  0  0  0  0  0
  -26.8227  -30.8879   21.9814 H   0  0  0  0  0  0
  -28.1000  -29.0885   21.1694 H   0  0  0  0  0  0
  -26.0264  -25.9906   18.9790 H   0  0  0  0  0  0
  -23.9762  -27.3282   18.9963 H   0  0  0  0  0  0
  -23.7327  -30.6157   19.4099 H   0  0  0  0  0  0
  -22.7380  -29.2619   19.8573 H   0  0  0  0  0  0
  -25.1284  -36.1994   25.0825 H   0  0  0  0  0  0
  -20.9909  -28.3222   24.1441 H   0  0  0  0  0  0
  -20.5642  -26.2258   23.3606 H   0  0  0  0  0  0
  -21.6625  -26.7471   22.1212 H   0  0  0  0  0  0
  -19.6913  -25.6304   21.1232 H   0  0  0  0  0  0
  -19.6694  -27.3186   20.6720 H   0  0  0  0  0  0
  -17.4191  -26.6664   21.4011 H   0  0  0  0  0  0
  -18.0340  -26.0065   22.8997 H   0  0  0  0  0  0
  -19.7912  -30.7253   24.2311 H   0  0  0  0  0  0
  -17.4999  -31.6275   24.5164 H   0  0  0  0  0  0
  -15.5336  -30.3026   23.7639 H   0  0  0  0  0  0
  -15.8623  -28.0843   22.7082 H   0  0  0  0  0  0
  -24.5977  -30.7014   25.7820 H   0  0  0  0  0  0
  -24.8970  -32.2816   26.4980 H   0  0  0  0  0  0
  -25.8187  -30.8835   27.0217 H   0  0  0  0  0  0
  -26.2812  -29.6864   24.1110 H   0  0  0  0  0  0
  -27.4053  -29.7250   25.4494 H   0  0  0  0  0  0
  -27.8651  -30.4365   23.9192 H   0  0  0  0  0  0
  -27.2718  -33.3596   26.2115 H   0  0  0  0  0  0
  -28.3884  -32.6901   25.0331 H   0  0  0  0  0  0
  -28.0749  -31.8414   26.5394 H   0  0  0  0  0  0
  -28.2617  -38.0093   24.7506 H   0  0  0  0  0  0
  -28.1048  -36.2636   24.6309 H   0  0  0  0  0  0
  -27.2276  -37.1493   25.8860 H   0  0  0  0  0  0
  -20.9284  -29.8813   21.7010 H   0  0  0  0  0  0
  -26.0181  -38.2877   24.1456 H   0  0  0  0  0  0
  -30.1041  -18.9962   18.3437 H   0  0  0  0  0  0
  -30.1109  -17.7161   22.4523 H   0  0  0  0  0  0
  -27.9284  -21.9621   18.4264 H   0  0  0  0  0  0
  -28.6352  -20.8049   17.3083 H   0  0  0  0  0  0
  -28.9195  -22.5214   17.0863 H   0  0  0  0  0  0
  -30.9242  -21.3888   18.0522 H   0  0  0  0  0  0
  -30.3455  -22.6144   19.1221 H   0  0  0  0  0  0
  -31.2562  -16.7411   19.3717 H   0  0  0  0  0  0
  -29.5936  -16.6554   18.9279 H   0  0  0  0  0  0
  -29.4994  -24.9888   21.9602 H   0  0  0  0  0  0
  -30.1451  -24.4927   20.4139 H   0  0  0  0  0  0
  -27.2015  -25.0461   20.8390 H   0  0  0  0  0  0
  -28.0053  -24.8081   19.2959 H   0  0  0  0  0  0
  -28.1571  -23.0081   22.2038 H   0  0  0  0  0  0
  -28.2475  -22.6110   20.5199 H   0  0  0  0  0  0
  -29.6594  -19.4690   24.1346 H   0  0  0  0  0  0
  -29.7398  -21.1157   23.7341 H   0  0  0  0  0  0
  -29.0606  -15.4642   20.9926 H   0  0  0  0  0  0
  1 25  1  0  0  0
  1 30  2  0  0  0
  1 84  1  0  0  0
  2  3  1  0  0  0
  2 25  1  0  0  0
  2 86  1  0  0  0
  2 87  1  0  0  0
  3  4  1  0  0  0
  3 88  1  0  0  0
  3 89  1  0  0  0
  4  5  1  0  0  0
  4 90  1  0  0  0
  4 91  1  0  0  0
  5  6  1  0  0  0
  5 26  1  0  0  0
  5 92  1  0  0  0
  6 25  1  0  0  0
  6 93  1  0  0  0
  6 94  1  0  0  0
  7  8  2  0  0  0
  7 26  1  0  0  0
  7 29  1  0  0  0
  8  9  1  0  0  0
  8 22  1  0  0  0
  9 10  1  0  0  0
  9 27  2  0  0  0
 10 11  2  0  0  0
 10 15  1  0  0  0
 11 12  1  0  0  0
 11 95  1  0  0  0
 12 13  2  0  0  0
 12 96  1  0  0  0
 13 14  1  0  0  0
 13 31  1  0  0  0
 14 15  2  0  0  0
 14 97  1  0  0  0
 15 98  1  0  0  0
 16 17  2  0  0  0
 16 21  1  0  0  0
 16 31  1  0  0  0
 17 18  1  0  0  0
 17 99  1  0  0  0
 18 19  2  0  0  0
 18100  1  0  0  0
 19 20  1  0  0  0
 19 24  1  0  0  0
 20 21  2  0  0  0
 20101  1  0  0  0
 21 23  1  0  0  0
 22 28  1  0  0  0
 22 32  2  0  0  0
 26 27  1  0  0  0
 28102  1  0  0  0
 28103  1  0  0  0
 29104  1  0  0  0
 29105  1  0  0  0
 33 34  1  0  0  0
 33 66  1  0  0  0
 33 70  2  0  0  0
 34 36  1  0  0  0
 34 59  1  0  0  0
 34106  1  0  0  0
 35 44  2  0  0  0
 35 45  1  0  0  0
 35 68  1  0  0  0
 36 56  1  0  0  0
 36107  1  0  0  0
 37 39  1  0  0  0
 37 47  1  0  0  0
 37 66  1  0  0  0
 37108  1  0  0  0
 38 43  2  0  0  0
 38 46  1  0  0  0
 38 47  1  0  0  0
 39 64  1  0  0  0
 39 67  2  0  0  0
 40 52  1  0  0  0
 40 53  2  0  0  0
 40 58  1  0  0  0
 41109  1  0  0  0
 41110  1  0  0  0
 41111  1  0  0  0
 41 48  1  0  0  0
 42 43  1  0  0  0
 42 66  1  0  0  0
 42112  1  0  0  0
 42113  1  0  0  0
 43 44  1  0  0  0
 44114  1  0  0  0
 45 46  2  0  0  0
 45115  1  0  0  0
 46116  1  0  0  0
 47117  1  0  0  0
 47118  1  0  0  0
 48 56  1  0  0  0
 48 65  1  0  0  0
 48119  1  0  0  0
 49 50  1  0  0  0
 49 53  1  0  0  0
 49 64  1  0  0  0
 49120  1  0  0  0
 50 51  1  0  0  0
 50121  1  0  0  0
 50122  1  0  0  0
 51 52  1  0  0  0
 51123  1  0  0  0
 51124  1  0  0  0
 52125  1  0  0  0
 52126  1  0  0  0
 53 54  1  0  0  0
 54 55  2  0  0  0
 54127  1  0  0  0
 55 57  1  0  0  0
 55128  1  0  0  0
 56 69  2  0  0  0
 57 58  2  0  0  0
 57129  1  0  0  0
 58130  1  0  0  0
 59 60  1  0  0  0
 59 61  1  0  0  0
 59 62  1  0  0  0
 60131  1  0  0  0
 60132  1  0  0  0
 60133  1  0  0  0
 61134  1  0  0  0
 61135  1  0  0  0
 61136  1  0  0  0
 62137  1  0  0  0
 62138  1  0  0  0
 62139  1  0  0  0
 63 65  1  0  0  0
 63140  1  0  0  0
 63141  1  0  0  0
 63142  1  0  0  0
 64143  1  0  0  0
 65144  1  0  0  0
 68 81  1  0  0  0
 71 73  2  0  0  0
 71 74  1  0  0  0
 71145  1  0  0  0
 72 73  1  0  0  0
 72 75  2  0  0  0
 72146  1  0  0  0
 73 79  1  0  0  0
 74 76  2  0  0  0
 74 78  1  0  0  0
 75 76  1  0  0  0
 75 83  1  0  0  0
 76 85  1  0  0  0
 77 78  1  0  0  0
 77147  1  0  0  0
 77148  1  0  0  0
 77149  1  0  0  0
 78150  1  0  0  0
 78151  1  0  0  0
 79 84  1  0  0  0
 79152  1  0  0  0
 79153  1  0  0  0
 80 81  1  0  0  0
 80 82  1  0  0  0
 80154  1  0  0  0
 80155  1  0  0  0
 81156  1  0  0  0
 81157  1  0  0  0
 82 85  1  0  0  0
 82158  1  0  0  0
 82159  1  0  0  0
 83160  1  0  0  0
 83161  1  0  0  0
 84162  1  0  0  0
M  ISO  4   1 100  68 101  81 101  84 100
M  END
> <chiral flag>
0

> <version>
0

> <s_m_source_file>
/data/baiqing/PycharmProjects/Reinvent-master-3.2/result/LINK_invent/BTK/process_docking_weight1_custom_product_contain_oxygen_bond_distance_aromatic_linkinvent_7_9_3/rearranged_h_0110.sdf

> <i_m_source_file_index>
43

> <r_mmod_Potential_Energy-OPLS-2005>
-95.1738357543945

> <r_mmod_Stretch_Energy-OPLS-2005>
37.8129272460938

> <r_mmod_Bend_Energy-OPLS-2005>
104.320983886719

> <r_mmod_Torsional_Energy-OPLS-2005>
257.003082275391

> <r_mmod_Improper_Torsional_Energy-OPLS-2005>
15.044319152832

> <r_mmod_Van_der_Waal_Energy-OPLS-2005>
157.985565185547

> <r_mmod_Electrostatic_Energy-OPLS-2005>
-463.820465087891

> <r_mmod_Solvation_Energy-OPLS-2005>
-224.927383422852

> <b_mmod_Minimization_Converged-OPLS-2005>
0

> <r_mmod_RMS_Derivative-OPLS-2005>
3.21979308128357

$$$$
44
                    3D
 Structure written by MMmdl.
165174  0  0  1  0            999 V2000
  -30.5412  -14.7645   20.4675 C   0  0  0  0  0  0
  -30.4562  -12.4745   19.4489 C   0  0  0  0  0  0
  -29.5108  -12.4913   18.2247 C   0  0  0  0  0  0
  -28.0371  -12.3067   18.6465 C   0  0  0  0  0  0
  -27.6397  -13.2105   19.8427 C   0  0  2  0  0  0
  -28.6898  -13.1132   20.9673 C   0  0  0  0  0  0
  -25.2541  -13.8145   20.5701 C   0  0  0  0  0  0
  -24.1805  -13.0428   20.9224 C   0  0  0  0  0  0
  -24.6365  -11.6901   20.8774 C   0  0  0  0  0  0
  -23.9039  -10.4285   21.0417 C   0  0  0  0  0  0
  -24.3602   -9.4201   21.9185 C   0  0  0  0  0  0
  -23.6281   -8.2233   22.0749 C   0  0  0  0  0  0
  -22.4267   -8.0269   21.3544 C   0  0  0  0  0  0
  -21.9899   -9.0234   20.4643 C   0  0  0  0  0  0
  -22.7220  -10.2117   20.3057 C   0  0  0  0  0  0
  -21.6838   -6.0743   22.5286 C   0  0  0  0  0  0
  -21.3997   -6.5640   23.8218 C   0  0  0  0  0  0
  -21.3663   -5.6797   24.9182 C   0  0  0  0  0  0
  -21.6045   -4.3058   24.7219 C   0  0  0  0  0  0
  -21.8820   -3.8151   23.4337 C   0  0  0  0  0  0
  -21.9186   -4.6975   22.3406 C   0  0  0  0  0  0
  -22.7840  -13.5237   21.1887 C   0  0  0  0  0  0
  -22.1661   -4.2164   21.0977 F   0  0  0  0  0  0
  -21.5637   -3.4539   25.7730 F   0  0  0  0  0  0
  -29.9805  -13.5108   20.3876 N   0  0  0  0  0  0
  -26.2935  -12.9296   20.3264 N   0  0  0  0  0  0
  -25.9273  -11.6475   20.5740 N   0  0  0  0  0  0
  -22.0472  -12.8230   22.0434 N   0  0  0  0  0  0
  -25.4214  -15.1866   20.4096 N   0  0  0  0  0  0
  -31.7463  -14.9245   20.2457 O   0  0  0  0  0  0
  -21.6631   -6.8874   21.4243 O   0  0  0  0  0  0
  -22.3529  -14.5540   20.6716 O   0  0  0  0  0  0
  -24.6352  -31.8563   23.1887 C   0  0  0  0  0  0
  -25.9190  -32.4749   23.8241 C   0  0  1  0  0  0
  -27.2228  -27.2478   20.1267 C   0  0  0  0  0  0
  -25.6017  -33.8556   24.2171 N   0  0  0  0  0  0
  -23.4298  -30.4824   21.5315 C   0  0  2  0  0  0
  -24.8754  -28.9214   20.1040 C   0  0  0  0  0  0
  -22.7518  -29.4647   22.4803 C   0  0  0  0  0  0
  -18.0372  -28.1466   22.8543 C   0  0  0  0  0  0
  -24.1541  -36.7254   23.2634 C   0  0  0  0  0  0
  -25.9783  -30.7622   21.3716 C   0  0  0  0  0  0
  -26.0450  -29.3830   20.7182 C   0  0  0  0  0  0
  -27.2168  -28.5579   20.7179 C   0  0  0  0  0  0
  -26.0203  -26.8493   19.4952 C   0  0  0  0  0  0
  -24.8692  -27.6657   19.4827 C   0  0  0  0  0  0
  -23.6488  -29.8173   20.1476 C   0  0  0  0  0  0
  -25.4175  -36.3016   24.0295 C   0  0  1  0  0  0
  -20.5968  -28.3808   23.1282 C   0  0  2  0  0  0
  -20.6896  -26.9540   22.5409 C   0  0  0  0  0  0
  -19.5831  -26.6449   21.5293 C   0  0  0  0  0  0
  -18.2008  -26.8041   22.1667 C   0  0  0  0  0  0
  -19.1617  -28.8954   23.2929 C   0  0  0  0  0  0
  -18.9513  -30.1557   23.8932 C   0  0  0  0  0  0
  -17.6503  -30.6649   24.0641 C   0  0  0  0  0  0
  -25.9106  -34.9429   23.5001 C   0  0  0  0  0  0
  -16.5404  -29.9139   23.6370 C   0  0  0  0  0  0
  -16.7355  -28.6582   23.0352 C   0  0  0  0  0  0
  -26.4527  -31.6604   25.0639 C   0  0  0  0  0  0
  -25.3666  -31.3826   26.1283 C   0  0  0  0  0  0
  -27.0384  -30.3021   24.6135 C   0  0  0  0  0  0
  -27.6058  -32.4397   25.7415 C   0  0  0  0  0  0
  -27.5606  -37.1785   24.8472 C   0  0  0  0  0  0
  -21.4221  -29.3122   22.3581 N   0  0  0  0  0  0
  -26.4313  -37.3739   23.9409 N   0  0  0  0  0  0
  -24.7004  -31.0533   22.0865 N   0  0  0  0  0  0
  -23.4234  -28.8185   23.2894 O   0  0  0  0  0  0
  -28.3499  -26.3891   20.1940 O   0  0  0  0  0  0
  -26.5659  -34.8937   22.4551 O   0  0  0  0  0  0
  -23.5493  -32.1386   23.7180 O   0  0  0  0  0  0
  -28.7221  -18.5602   22.8661 C   0  0  0  0  0  0
  -28.8486  -19.7545   22.1350 C   0  0  0  0  0  0
  -29.6570  -18.4437   20.2502 C   0  0  0  0  0  0
  -29.0569  -17.3015   22.3175 C   0  0  0  0  0  0
  -29.2925  -19.7478   20.7996 C   0  0  0  0  0  0
  -29.5696  -17.1905   20.9971 C   0  0  0  0  0  0
  -27.0291  -21.9767   20.3303 C   0  0  0  0  0  0
  -28.7472  -16.1005   23.1016 C   0  0  0  0  0  0
  -27.5362  -15.8526   23.6255 C   0  0  0  0  0  0
  -26.2581  -23.0194   21.1212 C   0  0  0  0  0  0
  -27.3832  -23.8306   21.7701 C   0  0  0  0  0  0
  -28.5407  -23.7112   20.7722 C   0  0  2  0  0  0
  -27.1827  -14.6050   24.3992 C   0  0  0  0  0  0
  -29.3715  -21.1572   20.0422 C   0  0  0  0  0  0
  -28.3820  -24.9501   19.7306 C   0  0  0  0  0  0
  -28.3413  -22.2686   20.2848 N   0  0  0  0  0  0
  -29.6345  -15.8178   20.4275 N   0  0  0  0  0  0
  -26.4915  -20.9619   19.8839 O   0  0  0  0  0  0
  -31.4823  -12.6651   19.1304 H   0  0  0  0  0  0
  -30.4634  -11.4958   19.9286 H   0  0  0  0  0  0
  -29.7955  -11.7061   17.5240 H   0  0  0  0  0  0
  -29.6189  -13.4329   17.6835 H   0  0  0  0  0  0
  -27.9036  -11.2593   18.9188 H   0  0  0  0  0  0
  -27.3734  -12.4815   17.7994 H   0  0  0  0  0  0
  -27.6341  -14.2295   19.4597 H   0  0  0  0  0  0
  -28.7429  -12.0963   21.3609 H   0  0  0  0  0  0
  -28.4166  -13.7450   21.8090 H   0  0  0  0  0  0
  -25.2741   -9.5692   22.4757 H   0  0  0  0  0  0
  -24.0003   -7.4629   22.7457 H   0  0  0  0  0  0
  -21.0840   -8.8737   19.8941 H   0  0  0  0  0  0
  -22.3672  -10.9648   19.6170 H   0  0  0  0  0  0
  -21.1971   -7.6153   23.9728 H   0  0  0  0  0  0
  -21.1489   -6.0521   25.9083 H   0  0  0  0  0  0
  -22.0590   -2.7620   23.2829 H   0  0  0  0  0  0
  -22.4077  -11.9901   22.4849 H   0  0  0  0  0  0
  -21.1085  -13.1241   22.2610 H   0  0  0  0  0  0
  -24.6517  -15.8340   20.5352 H   0  0  0  0  0  0
  -26.2615  -15.6396   20.0761 H   0  0  0  0  0  0
  -26.7226  -32.5386   23.0953 H   0  0  0  0  0  0
  -25.0359  -33.9732   25.0441 H   0  0  0  0  0  0
  -22.7297  -31.3086   21.3855 H   0  0  0  0  0  0
  -23.3815  -35.9557   23.3273 H   0  0  0  0  0  0
  -24.3616  -36.8876   22.2035 H   0  0  0  0  0  0
  -23.7280  -37.6445   23.6693 H   0  0  0  0  0  0
  -26.1317  -31.5161   20.5984 H   0  0  0  0  0  0
  -26.8499  -30.7973   22.0150 H   0  0  0  0  0  0
  -28.1098  -28.9122   21.2145 H   0  0  0  0  0  0
  -25.9174  -25.8889   19.0206 H   0  0  0  0  0  0
  -23.9741  -27.3059   18.9939 H   0  0  0  0  0  0
  -23.7818  -30.5997   19.3989 H   0  0  0  0  0  0
  -22.7630  -29.2614   19.8349 H   0  0  0  0  0  0
  -25.1356  -36.1820   25.0778 H   0  0  0  0  0  0
  -21.0174  -28.3445   24.1361 H   0  0  0  0  0  0
  -20.6036  -26.2414   23.3605 H   0  0  0  0  0  0
  -21.6726  -26.7689   22.1056 H   0  0  0  0  0  0
  -19.7032  -25.6355   21.1344 H   0  0  0  0  0  0
  -19.6775  -27.3265   20.6843 H   0  0  0  0  0  0
  -17.4314  -26.6912   21.4016 H   0  0  0  0  0  0
  -18.0319  -26.0151   22.9009 H   0  0  0  0  0  0
  -19.7964  -30.7418   24.2261 H   0  0  0  0  0  0
  -17.5045  -31.6329   24.5230 H   0  0  0  0  0  0
  -15.5406  -30.3050   23.7692 H   0  0  0  0  0  0
  -15.8768  -28.0941   22.6983 H   0  0  0  0  0  0
  -24.5871  -30.7192   25.7525 H   0  0  0  0  0  0
  -24.8844  -32.3045   26.4580 H   0  0  0  0  0  0
  -25.7831  -30.9027   27.0137 H   0  0  0  0  0  0
  -26.2933  -29.6761   24.1203 H   0  0  0  0  0  0
  -27.4152  -29.7300   25.4620 H   0  0  0  0  0  0
  -27.8777  -30.4327   23.9282 H   0  0  0  0  0  0
  -27.2668  -33.3771   26.1855 H   0  0  0  0  0  0
  -28.3901  -32.6875   25.0240 H   0  0  0  0  0  0
  -28.0698  -31.8632   26.5415 H   0  0  0  0  0  0
  -28.2562  -38.0154   24.7545 H   0  0  0  0  0  0
  -28.1144  -36.2662   24.6223 H   0  0  0  0  0  0
  -27.2300  -37.1288   25.8867 H   0  0  0  0  0  0
  -20.9388  -29.8690   21.6669 H   0  0  0  0  0  0
  -26.0170  -38.2783   24.1445 H   0  0  0  0  0  0
  -28.3258  -18.6122   23.8706 H   0  0  0  0  0  0
  -28.5704  -20.6854   22.6100 H   0  0  0  0  0  0
  -29.9645  -18.3998   19.2160 H   0  0  0  0  0  0
  -29.5560  -15.3987   23.2515 H   0  0  0  0  0  0
  -26.7300  -16.5613   23.4796 H   0  0  0  0  0  0
  -25.5947  -22.5613   21.8550 H   0  0  0  0  0  0
  -25.6656  -23.6301   20.4398 H   0  0  0  0  0  0
  -27.6677  -23.3672   22.7154 H   0  0  0  0  0  0
  -27.0996  -24.8617   21.9826 H   0  0  0  0  0  0
  -29.4940  -23.8003   21.2947 H   0  0  0  0  0  0
  -28.0412  -13.9393   24.4870 H   0  0  0  0  0  0
  -26.3868  -14.0692   23.8802 H   0  0  0  0  0  0
  -26.8378  -14.8606   25.4005 H   0  0  0  0  0  0
  -29.3649  -20.9480   18.9738 H   0  0  0  0  0  0
  -30.3556  -21.5770   20.2510 H   0  0  0  0  0  0
  -27.5677  -24.7230   19.0508 H   0  0  0  0  0  0
  -29.2552  -24.8975   19.0811 H   0  0  0  0  0  0
  -28.7125  -15.4150   20.3652 H   0  0  0  0  0  0
  1 25  1  0  0  0
  1 30  2  0  0  0
  1 87  1  0  0  0
  2  3  1  0  0  0
  2 25  1  0  0  0
  2 89  1  0  0  0
  2 90  1  0  0  0
  3  4  1  0  0  0
  3 91  1  0  0  0
  3 92  1  0  0  0
  4  5  1  0  0  0
  4 93  1  0  0  0
  4 94  1  0  0  0
  5  6  1  0  0  0
  5 26  1  0  0  0
  5 95  1  0  0  0
  6 25  1  0  0  0
  6 96  1  0  0  0
  6 97  1  0  0  0
  7  8  2  0  0  0
  7 26  1  0  0  0
  7 29  1  0  0  0
  8  9  1  0  0  0
  8 22  1  0  0  0
  9 10  1  0  0  0
  9 27  2  0  0  0
 10 11  2  0  0  0
 10 15  1  0  0  0
 11 12  1  0  0  0
 11 98  1  0  0  0
 12 13  2  0  0  0
 12 99  1  0  0  0
 13 14  1  0  0  0
 13 31  1  0  0  0
 14 15  2  0  0  0
 14100  1  0  0  0
 15101  1  0  0  0
 16 17  2  0  0  0
 16 21  1  0  0  0
 16 31  1  0  0  0
 17 18  1  0  0  0
 17102  1  0  0  0
 18 19  2  0  0  0
 18103  1  0  0  0
 19 20  1  0  0  0
 19 24  1  0  0  0
 20 21  2  0  0  0
 20104  1  0  0  0
 21 23  1  0  0  0
 22 28  1  0  0  0
 22 32  2  0  0  0
 26 27  1  0  0  0
 28105  1  0  0  0
 28106  1  0  0  0
 29107  1  0  0  0
 29108  1  0  0  0
 33 34  1  0  0  0
 33 66  1  0  0  0
 33 70  2  0  0  0
 34 36  1  0  0  0
 34 59  1  0  0  0
 34109  1  0  0  0
 35 44  2  0  0  0
 35 45  1  0  0  0
 35 68  1  0  0  0
 36 56  1  0  0  0
 36110  1  0  0  0
 37 39  1  0  0  0
 37 47  1  0  0  0
 37 66  1  0  0  0
 37111  1  0  0  0
 38 43  2  0  0  0
 38 46  1  0  0  0
 38 47  1  0  0  0
 39 64  1  0  0  0
 39 67  2  0  0  0
 40 52  1  0  0  0
 40 53  2  0  0  0
 40 58  1  0  0  0
 41112  1  0  0  0
 41113  1  0  0  0
 41114  1  0  0  0
 41 48  1  0  0  0
 42 43  1  0  0  0
 42 66  1  0  0  0
 42115  1  0  0  0
 42116  1  0  0  0
 43 44  1  0  0  0
 44117  1  0  0  0
 45 46  2  0  0  0
 45118  1  0  0  0
 46119  1  0  0  0
 47120  1  0  0  0
 47121  1  0  0  0
 48 56  1  0  0  0
 48 65  1  0  0  0
 48122  1  0  0  0
 49 50  1  0  0  0
 49 53  1  0  0  0
 49 64  1  0  0  0
 49123  1  0  0  0
 50 51  1  0  0  0
 50124  1  0  0  0
 50125  1  0  0  0
 51 52  1  0  0  0
 51126  1  0  0  0
 51127  1  0  0  0
 52128  1  0  0  0
 52129  1  0  0  0
 53 54  1  0  0  0
 54 55  2  0  0  0
 54130  1  0  0  0
 55 57  1  0  0  0
 55131  1  0  0  0
 56 69  2  0  0  0
 57 58  2  0  0  0
 57132  1  0  0  0
 58133  1  0  0  0
 59 60  1  0  0  0
 59 61  1  0  0  0
 59 62  1  0  0  0
 60134  1  0  0  0
 60135  1  0  0  0
 60136  1  0  0  0
 61137  1  0  0  0
 61138  1  0  0  0
 61139  1  0  0  0
 62140  1  0  0  0
 62141  1  0  0  0
 62142  1  0  0  0
 63 65  1  0  0  0
 63143  1  0  0  0
 63144  1  0  0  0
 63145  1  0  0  0
 64146  1  0  0  0
 65147  1  0  0  0
 68 85  1  0  0  0
 71 72  2  0  0  0
 71 74  1  0  0  0
 71148  1  0  0  0
 72 75  1  0  0  0
 72149  1  0  0  0
 73 75  2  0  0  0
 73 76  1  0  0  0
 73150  1  0  0  0
 74 76  2  0  0  0
 74 78  1  0  0  0
 75 84  1  0  0  0
 76 87  1  0  0  0
 77 80  1  0  0  0
 77 86  1  0  0  0
 77 88  2  0  0  0
 78 79  2  0  0  0
 78151  1  0  0  0
 79 83  1  0  0  0
 79152  1  0  0  0
 80 81  1  0  0  0
 80153  1  0  0  0
 80154  1  0  0  0
 81 82  1  0  0  0
 81155  1  0  0  0
 81156  1  0  0  0
 82 85  1  0  0  0
 82 86  1  0  0  0
 82157  1  0  0  0
 83158  1  0  0  0
 83159  1  0  0  0
 83160  1  0  0  0
 84 86  1  0  0  0
 84161  1  0  0  0
 84162  1  0  0  0
 85163  1  0  0  0
 85164  1  0  0  0
 87165  1  0  0  0
M  ISO  4   1 100  68 101  85 101  87 100
M  END
> <chiral flag>
0

> <version>
0

> <s_m_source_file>
/data/baiqing/PycharmProjects/Reinvent-master-3.2/result/LINK_invent/BTK/process_docking_weight1_custom_product_contain_oxygen_bond_distance_aromatic_linkinvent_7_9_3/rearranged_h_0110.sdf

> <i_m_source_file_index>
44

> <r_mmod_Potential_Energy-OPLS-2005>
270.409118652344

> <r_mmod_Stretch_Energy-OPLS-2005>
133.055267333984

> <r_mmod_Bend_Energy-OPLS-2005>
226.293502807617

> <r_mmod_Torsional_Energy-OPLS-2005>
304.115020751953

> <r_mmod_Improper_Torsional_Energy-OPLS-2005>
16.2265739440918

> <r_mmod_Van_der_Waal_Energy-OPLS-2005>
121.637535095215

> <r_mmod_Electrostatic_Energy-OPLS-2005>
-404.86376953125

> <r_mmod_Solvation_Energy-OPLS-2005>
-222.208435058594

> <b_mmod_Minimization_Converged-OPLS-2005>
0

> <r_mmod_RMS_Derivative-OPLS-2005>
4.03182315826416

$$$$
45
                    3D
 Structure written by MMmdl.
163171  0  0  1  0            999 V2000
  -30.6753  -14.4792   20.5935 C   0  0  0  0  0  0
  -30.4265  -12.3242   19.4141 C   0  0  0  0  0  0
  -29.4843  -12.5232   18.2062 C   0  0  0  0  0  0
  -28.0116  -12.3629   18.6259 C   0  0  0  0  0  0
  -27.6626  -13.1965   19.8858 C   0  0  2  0  0  0
  -28.7045  -12.9605   21.0036 C   0  0  0  0  0  0
  -25.2632  -13.8130   20.5696 C   0  0  0  0  0  0
  -24.1850  -13.0442   20.9199 C   0  0  0  0  0  0
  -24.6383  -11.6906   20.8772 C   0  0  0  0  0  0
  -23.9039  -10.4309   21.0410 C   0  0  0  0  0  0
  -24.3606   -9.4211   21.9165 C   0  0  0  0  0  0
  -23.6287   -8.2236   22.0736 C   0  0  0  0  0  0
  -22.4257   -8.0281   21.3530 C   0  0  0  0  0  0
  -21.9892   -9.0272   20.4641 C   0  0  0  0  0  0
  -22.7213  -10.2162   20.3054 C   0  0  0  0  0  0
  -21.6853   -6.0740   22.5279 C   0  0  0  0  0  0
  -21.4023   -6.5653   23.8220 C   0  0  0  0  0  0
  -21.3650   -5.6798   24.9177 C   0  0  0  0  0  0
  -21.6029   -4.3061   24.7217 C   0  0  0  0  0  0
  -21.8819   -3.8152   23.4344 C   0  0  0  0  0  0
  -21.9206   -4.6967   22.3404 C   0  0  0  0  0  0
  -22.7887  -13.5275   21.1848 C   0  0  0  0  0  0
  -22.1671   -4.2156   21.0985 F   0  0  0  0  0  0
  -21.5606   -3.4542   25.7724 F   0  0  0  0  0  0
  -30.0373  -13.2824   20.4617 N   0  0  0  0  0  0
  -26.3034  -12.9265   20.3425 N   0  0  0  0  0  0
  -25.9314  -11.6439   20.5828 N   0  0  0  0  0  0
  -22.0524  -12.8290   22.0405 N   0  0  0  0  0  0
  -25.4419  -15.1829   20.4025 N   0  0  0  0  0  0
  -31.7767  -14.7140   20.0861 O   0  0  0  0  0  0
  -21.6630   -6.8869   21.4232 O   0  0  0  0  0  0
  -22.3608  -14.5579   20.6690 O   0  0  0  0  0  0
  -24.6148  -31.8675   23.2143 C   0  0  0  0  0  0
  -25.9044  -32.4826   23.8418 C   0  0  1  0  0  0
  -27.2303  -27.4158   20.1022 C   0  0  0  0  0  0
  -25.5895  -33.8635   24.2337 N   0  0  0  0  0  0
  -23.4037  -30.4963   21.5532 C   0  0  2  0  0  0
  -24.8464  -28.9598   20.1195 C   0  0  0  0  0  0
  -22.7399  -29.4678   22.4976 C   0  0  0  0  0  0
  -18.0271  -28.1380   22.8491 C   0  0  0  0  0  0
  -24.1477  -36.7312   23.2632 C   0  0  0  0  0  0
  -25.9379  -30.8263   21.3758 C   0  0  0  0  0  0
  -26.0085  -29.4636   20.7134 C   0  0  0  0  0  0
  -27.1985  -28.7008   20.6954 C   0  0  0  0  0  0
  -26.0399  -26.9237   19.5145 C   0  0  0  0  0  0
  -24.8570  -27.6889   19.5205 C   0  0  0  0  0  0
  -23.6150  -29.8364   20.1656 C   0  0  0  0  0  0
  -25.4103  -36.3122   24.0329 C   0  0  1  0  0  0
  -20.5862  -28.3672   23.1312 C   0  0  2  0  0  0
  -20.6774  -26.9405   22.5430 C   0  0  0  0  0  0
  -19.5770  -26.6393   21.5215 C   0  0  0  0  0  0
  -18.1934  -26.7926   22.1613 C   0  0  0  0  0  0
  -19.1519  -28.8840   23.2902 C   0  0  0  0  0  0
  -18.9445  -30.1443   23.8917 C   0  0  0  0  0  0
  -17.6451  -30.6587   24.0578 C   0  0  0  0  0  0
  -25.9032  -34.9479   23.5130 C   0  0  0  0  0  0
  -16.5343  -29.9099   23.6330 C   0  0  0  0  0  0
  -16.7261  -28.6518   23.0345 C   0  0  0  0  0  0
  -26.4476  -31.6633   25.0758 C   0  0  0  0  0  0
  -25.3750  -31.3819   26.1528 C   0  0  0  0  0  0
  -27.0278  -30.3036   24.6221 C   0  0  0  0  0  0
  -27.6063  -32.4365   25.7475 C   0  0  0  0  0  0
  -27.5590  -37.1794   24.8441 C   0  0  0  0  0  0
  -21.4130  -29.3029   22.3693 N   0  0  0  0  0  0
  -26.4291  -37.3805   23.9407 N   0  0  0  0  0  0
  -24.6701  -31.0779   22.1046 N   0  0  0  0  0  0
  -23.4165  -28.8231   23.3030 O   0  0  0  0  0  0
  -28.4271  -26.7172   20.1245 O   0  0  0  0  0  0
  -26.5596  -34.8920   22.4696 O   0  0  0  0  0  0
  -23.5329  -32.1427   23.7528 O   0  0  0  0  0  0
  -29.8709  -19.2027   21.1360 C   0  0  0  0  0  0
  -30.0321  -17.8338   21.6119 C   0  0  0  0  0  0
  -29.8982  -16.8018   20.7411 C   0  0  0  0  0  0
  -29.5637  -19.4584   19.8471 C   0  0  0  0  0  0
  -29.5239  -17.0530   19.3312 C   0  0  0  0  0  0
  -28.2548  -22.8505   20.2678 C   0  0  0  0  0  0
  -30.3293  -17.5930   23.0822 C   0  0  0  0  0  0
  -29.0295  -18.6443   17.5442 C   0  0  0  0  0  0
  -30.6819  -22.4698   20.6405 C   0  0  0  0  0  0
  -29.3723  -20.8793   19.2481 C   0  0  0  0  0  0
  -28.3430  -24.2943   20.8208 C   0  0  0  0  0  0
  -28.5141  -25.3456   19.6876 C   0  0  0  0  0  0
  -29.3958  -18.3645   18.9483 N   0  0  0  0  0  0
  -29.9474  -15.4543   21.1786 N   0  0  0  0  0  0
  -29.3619  -22.0596   20.1505 N   0  0  0  0  0  0
  -29.3019  -16.1249   18.5442 O   0  0  0  0  0  0
  -27.1424  -22.4655   19.9008 O   0  0  0  0  0  0
  -31.4639  -12.4556   19.0996 H   0  0  0  0  0  0
  -30.3582  -11.3034   19.7928 H   0  0  0  0  0  0
  -29.7259  -11.8102   17.4175 H   0  0  0  0  0  0
  -29.6307  -13.5169   17.7795 H   0  0  0  0  0  0
  -27.8393  -11.3055   18.8228 H   0  0  0  0  0  0
  -27.3476  -12.6287   17.8024 H   0  0  0  0  0  0
  -27.7095  -14.2454   19.5960 H   0  0  0  0  0  0
  -28.6860  -11.9197   21.3283 H   0  0  0  0  0  0
  -28.4605  -13.5412   21.8946 H   0  0  0  0  0  0
  -25.2745   -9.5696   22.4742 H   0  0  0  0  0  0
  -24.0006   -7.4634   22.7461 H   0  0  0  0  0  0
  -21.0812   -8.8803   19.8964 H   0  0  0  0  0  0
  -22.3644  -10.9727   19.6191 H   0  0  0  0  0  0
  -21.2021   -7.6157   23.9734 H   0  0  0  0  0  0
  -21.1451   -6.0515   25.9085 H   0  0  0  0  0  0
  -22.0595   -2.7611   23.2835 H   0  0  0  0  0  0
  -22.4144  -11.9974   22.4825 H   0  0  0  0  0  0
  -21.1143  -13.1346   22.2579 H   0  0  0  0  0  0
  -24.6762  -15.8418   20.4795 H   0  0  0  0  0  0
  -26.2856  -15.6016   20.0319 H   0  0  0  0  0  0
  -26.7111  -32.5523   23.1168 H   0  0  0  0  0  0
  -25.0046  -33.9813   25.0481 H   0  0  0  0  0  0
  -22.6935  -31.3149   21.4179 H   0  0  0  0  0  0
  -23.3748  -35.9635   23.3288 H   0  0  0  0  0  0
  -24.3567  -36.8930   22.2044 H   0  0  0  0  0  0
  -23.7208  -37.6506   23.6651 H   0  0  0  0  0  0
  -26.0702  -31.6027   20.6213 H   0  0  0  0  0  0
  -26.8174  -30.8595   22.0084 H   0  0  0  0  0  0
  -28.0986  -29.0921   21.1474 H   0  0  0  0  0  0
  -25.9871  -25.9538   19.0466 H   0  0  0  0  0  0
  -23.9586  -27.2909   19.0696 H   0  0  0  0  0  0
  -23.7428  -30.6204   19.4179 H   0  0  0  0  0  0
  -22.7334  -29.2734   19.8544 H   0  0  0  0  0  0
  -25.1284  -36.1992   25.0824 H   0  0  0  0  0  0
  -20.9967  -28.3251   24.1427 H   0  0  0  0  0  0
  -20.5682  -26.2271   23.3612 H   0  0  0  0  0  0
  -21.6641  -26.7451   22.1219 H   0  0  0  0  0  0
  -19.6938  -25.6313   21.1224 H   0  0  0  0  0  0
  -19.6743  -27.3219   20.6758 H   0  0  0  0  0  0
  -17.4216  -26.6673   21.4002 H   0  0  0  0  0  0
  -18.0340  -26.0063   22.9007 H   0  0  0  0  0  0
  -19.7919  -30.7251   24.2293 H   0  0  0  0  0  0
  -17.5006  -31.6263   24.5192 H   0  0  0  0  0  0
  -15.5346  -30.3016   23.7644 H   0  0  0  0  0  0
  -15.8652  -28.0859   22.7042 H   0  0  0  0  0  0
  -24.5876  -30.7203   25.7916 H   0  0  0  0  0  0
  -24.9001  -32.3010   26.4965 H   0  0  0  0  0  0
  -25.8088  -30.9006   27.0296 H   0  0  0  0  0  0
  -26.2839  -29.6816   24.1224 H   0  0  0  0  0  0
  -27.3909  -29.7291   25.4756 H   0  0  0  0  0  0
  -27.8753  -30.4294   23.9477 H   0  0  0  0  0  0
  -27.2695  -33.3657   26.2086 H   0  0  0  0  0  0
  -28.3822  -32.6948   25.0258 H   0  0  0  0  0  0
  -28.0785  -31.8477   26.5345 H   0  0  0  0  0  0
  -28.2611  -38.0091   24.7496 H   0  0  0  0  0  0
  -28.1078  -36.2620   24.6245 H   0  0  0  0  0  0
  -27.2304  -37.1412   25.8842 H   0  0  0  0  0  0
  -20.9280  -29.8712   21.6887 H   0  0  0  0  0  0
  -26.0180  -38.2872   24.1470 H   0  0  0  0  0  0
  -30.0074  -20.0233   21.8254 H   0  0  0  0  0  0
  -30.5066  -18.5309   23.6083 H   0  0  0  0  0  0
  -31.2182  -16.9728   23.1974 H   0  0  0  0  0  0
  -29.4889  -17.0938   23.5647 H   0  0  0  0  0  0
  -28.0319  -19.0814   17.4959 H   0  0  0  0  0  0
  -29.0053  -17.7756   16.8853 H   0  0  0  0  0  0
  -29.7400  -19.3304   17.0861 H   0  0  0  0  0  0
  -30.6815  -22.5664   21.7271 H   0  0  0  0  0  0
  -30.9836  -23.4237   20.2061 H   0  0  0  0  0  0
  -31.4555  -21.7459   20.3809 H   0  0  0  0  0  0
  -28.4648  -20.8854   18.6451 H   0  0  0  0  0  0
  -30.1777  -21.0473   18.5316 H   0  0  0  0  0  0
  -29.1210  -24.3945   21.5765 H   0  0  0  0  0  0
  -27.4066  -24.4913   21.3472 H   0  0  0  0  0  0
  -27.8729  -25.1295   18.8346 H   0  0  0  0  0  0
  -29.5231  -25.2363   19.2907 H   0  0  0  0  0  0
  -29.1308  -15.1435   21.6826 H   0  0  0  0  0  0
  1 25  1  0  0  0
  1 30  2  0  0  0
  1 84  1  0  0  0
  2  3  1  0  0  0
  2 25  1  0  0  0
  2 88  1  0  0  0
  2 89  1  0  0  0
  3  4  1  0  0  0
  3 90  1  0  0  0
  3 91  1  0  0  0
  4  5  1  0  0  0
  4 92  1  0  0  0
  4 93  1  0  0  0
  5  6  1  0  0  0
  5 26  1  0  0  0
  5 94  1  0  0  0
  6 25  1  0  0  0
  6 95  1  0  0  0
  6 96  1  0  0  0
  7  8  2  0  0  0
  7 26  1  0  0  0
  7 29  1  0  0  0
  8  9  1  0  0  0
  8 22  1  0  0  0
  9 10  1  0  0  0
  9 27  2  0  0  0
 10 11  2  0  0  0
 10 15  1  0  0  0
 11 12  1  0  0  0
 11 97  1  0  0  0
 12 13  2  0  0  0
 12 98  1  0  0  0
 13 14  1  0  0  0
 13 31  1  0  0  0
 14 15  2  0  0  0
 14 99  1  0  0  0
 15100  1  0  0  0
 16 17  2  0  0  0
 16 21  1  0  0  0
 16 31  1  0  0  0
 17 18  1  0  0  0
 17101  1  0  0  0
 18 19  2  0  0  0
 18102  1  0  0  0
 19 20  1  0  0  0
 19 24  1  0  0  0
 20 21  2  0  0  0
 20103  1  0  0  0
 21 23  1  0  0  0
 22 28  1  0  0  0
 22 32  2  0  0  0
 26 27  1  0  0  0
 28104  1  0  0  0
 28105  1  0  0  0
 29106  1  0  0  0
 29107  1  0  0  0
 33 34  1  0  0  0
 33 66  1  0  0  0
 33 70  2  0  0  0
 34 36  1  0  0  0
 34 59  1  0  0  0
 34108  1  0  0  0
 35 44  2  0  0  0
 35 45  1  0  0  0
 35 68  1  0  0  0
 36 56  1  0  0  0
 36109  1  0  0  0
 37 39  1  0  0  0
 37 47  1  0  0  0
 37 66  1  0  0  0
 37110  1  0  0  0
 38 43  2  0  0  0
 38 46  1  0  0  0
 38 47  1  0  0  0
 39 64  1  0  0  0
 39 67  2  0  0  0
 40 52  1  0  0  0
 40 53  2  0  0  0
 40 58  1  0  0  0
 41111  1  0  0  0
 41112  1  0  0  0
 41113  1  0  0  0
 41 48  1  0  0  0
 42 43  1  0  0  0
 42 66  1  0  0  0
 42114  1  0  0  0
 42115  1  0  0  0
 43 44  1  0  0  0
 44116  1  0  0  0
 45 46  2  0  0  0
 45117  1  0  0  0
 46118  1  0  0  0
 47119  1  0  0  0
 47120  1  0  0  0
 48 56  1  0  0  0
 48 65  1  0  0  0
 48121  1  0  0  0
 49 50  1  0  0  0
 49 53  1  0  0  0
 49 64  1  0  0  0
 49122  1  0  0  0
 50 51  1  0  0  0
 50123  1  0  0  0
 50124  1  0  0  0
 51 52  1  0  0  0
 51125  1  0  0  0
 51126  1  0  0  0
 52127  1  0  0  0
 52128  1  0  0  0
 53 54  1  0  0  0
 54 55  2  0  0  0
 54129  1  0  0  0
 55 57  1  0  0  0
 55130  1  0  0  0
 56 69  2  0  0  0
 57 58  2  0  0  0
 57131  1  0  0  0
 58132  1  0  0  0
 59 60  1  0  0  0
 59 61  1  0  0  0
 59 62  1  0  0  0
 60133  1  0  0  0
 60134  1  0  0  0
 60135  1  0  0  0
 61136  1  0  0  0
 61137  1  0  0  0
 61138  1  0  0  0
 62139  1  0  0  0
 62140  1  0  0  0
 62141  1  0  0  0
 63 65  1  0  0  0
 63142  1  0  0  0
 63143  1  0  0  0
 63144  1  0  0  0
 64145  1  0  0  0
 65146  1  0  0  0
 68 82  1  0  0  0
 71 72  1  0  0  0
 71 74  2  0  0  0
 71147  1  0  0  0
 72 73  2  0  0  0
 72 77  1  0  0  0
 73 75  1  0  0  0
 73 84  1  0  0  0
 74 80  1  0  0  0
 74 83  1  0  0  0
 75 83  1  0  0  0
 75 86  2  0  0  0
 76 81  1  0  0  0
 76 85  1  0  0  0
 76 87  2  0  0  0
 77148  1  0  0  0
 77149  1  0  0  0
 77150  1  0  0  0
 78 83  1  0  0  0
 78151  1  0  0  0
 78152  1  0  0  0
 78153  1  0  0  0
 79 85  1  0  0  0
 79154  1  0  0  0
 79155  1  0  0  0
 79156  1  0  0  0
 80 85  1  0  0  0
 80157  1  0  0  0
 80158  1  0  0  0
 81 82  1  0  0  0
 81159  1  0  0  0
 81160  1  0  0  0
 82161  1  0  0  0
 82162  1  0  0  0
 84163  1  0  0  0
M  ISO  4   1 100  68 101  82 101  84 100
M  END
> <chiral flag>
0

> <version>
0

> <s_m_source_file>
/data/baiqing/PycharmProjects/Reinvent-master-3.2/result/LINK_invent/BTK/process_docking_weight1_custom_product_contain_oxygen_bond_distance_aromatic_linkinvent_7_9_3/rearranged_h_0110.sdf

> <i_m_source_file_index>
45

> <r_mmod_Potential_Energy-OPLS-2005>
-49.562629699707

> <r_mmod_Stretch_Energy-OPLS-2005>
53.5491065979004

> <r_mmod_Bend_Energy-OPLS-2005>
123.522048950195

> <r_mmod_Torsional_Energy-OPLS-2005>
254.443298339844

> <r_mmod_Improper_Torsional_Energy-OPLS-2005>
6.51755285263062

> <r_mmod_Van_der_Waal_Energy-OPLS-2005>
185.662994384766

> <r_mmod_Electrostatic_Energy-OPLS-2005>
-457.470275878906

> <r_mmod_Solvation_Energy-OPLS-2005>
-230.000839233398

> <b_mmod_Minimization_Converged-OPLS-2005>
0

> <r_mmod_RMS_Derivative-OPLS-2005>
3.79766249656677

$$$$
46
                    3D
 Structure written by MMmdl.
157165  0  0  1  0            999 V2000
  -30.6337  -14.5563   20.6187 C   0  0  0  0  0  0
  -30.4584  -12.3959   19.3930 C   0  0  0  0  0  0
  -29.5018  -12.5698   18.1917 C   0  0  0  0  0  0
  -28.0134  -12.4431   18.5840 C   0  0  0  0  0  0
  -27.6676  -13.2211   19.8848 C   0  0  2  0  0  0
  -28.7112  -12.9129   20.9730 C   0  0  0  0  0  0
  -25.2548  -13.8200   20.5707 C   0  0  0  0  0  0
  -24.1818  -13.0515   20.9199 C   0  0  0  0  0  0
  -24.6395  -11.6963   20.8729 C   0  0  0  0  0  0
  -23.9114  -10.4374   21.0473 C   0  0  0  0  0  0
  -24.3632   -9.4250   21.9268 C   0  0  0  0  0  0
  -23.6304   -8.2260   22.0737 C   0  0  0  0  0  0
  -22.4287   -8.0335   21.3509 C   0  0  0  0  0  0
  -21.9977   -9.0340   20.4623 C   0  0  0  0  0  0
  -22.7301  -10.2226   20.3103 C   0  0  0  0  0  0
  -21.6894   -6.0765   22.5283 C   0  0  0  0  0  0
  -21.4041   -6.5677   23.8229 C   0  0  0  0  0  0
  -21.3644   -5.6800   24.9177 C   0  0  0  0  0  0
  -21.6001   -4.3053   24.7222 C   0  0  0  0  0  0
  -21.8831   -3.8168   23.4351 C   0  0  0  0  0  0
  -21.9193   -4.6979   22.3402 C   0  0  0  0  0  0
  -22.7798  -13.5245   21.1950 C   0  0  0  0  0  0
  -22.1658   -4.2196   21.0992 F   0  0  0  0  0  0
  -21.5616   -3.4543   25.7743 F   0  0  0  0  0  0
  -30.0388  -13.3299   20.4623 N   0  0  0  0  0  0
  -26.3050  -12.9448   20.3374 N   0  0  0  0  0  0
  -25.9332  -11.6583   20.5684 N   0  0  0  0  0  0
  -22.0416  -12.8234   22.0449 N   0  0  0  0  0  0
  -25.4300  -15.1968   20.4147 N   0  0  0  0  0  0
  -31.7303  -14.8090   20.1097 O   0  0  0  0  0  0
  -21.6634   -6.8931   21.4238 O   0  0  0  0  0  0
  -22.3467  -14.5588   20.6852 O   0  0  0  0  0  0
  -24.6222  -31.8604   23.2127 C   0  0  0  0  0  0
  -25.9113  -32.4709   23.8417 C   0  0  1  0  0  0
  -27.2142  -27.3826   20.0987 C   0  0  0  0  0  0
  -25.5871  -33.8503   24.2364 N   0  0  0  0  0  0
  -23.4084  -30.4911   21.5542 C   0  0  2  0  0  0
  -24.8448  -28.9471   20.1163 C   0  0  0  0  0  0
  -22.7476  -29.4606   22.5023 C   0  0  0  0  0  0
  -18.0236  -28.1329   22.8493 C   0  0  0  0  0  0
  -24.1475  -36.7328   23.2653 C   0  0  0  0  0  0
  -25.9364  -30.8108   21.3726 C   0  0  0  0  0  0
  -26.0079  -29.4482   20.7082 C   0  0  0  0  0  0
  -27.1980  -28.6745   20.6906 C   0  0  0  0  0  0
  -26.0205  -26.8983   19.5118 C   0  0  0  0  0  0
  -24.8419  -27.6759   19.5191 C   0  0  0  0  0  0
  -23.6184  -29.8318   20.1637 C   0  0  0  0  0  0
  -25.4084  -36.3018   24.0320 C   0  0  1  0  0  0
  -20.5821  -28.3671   23.1293 C   0  0  2  0  0  0
  -20.6693  -26.9390   22.5437 C   0  0  0  0  0  0
  -19.5706  -26.6342   21.5203 C   0  0  0  0  0  0
  -18.1890  -26.7837   22.1582 C   0  0  0  0  0  0
  -19.1487  -28.8815   23.2862 C   0  0  0  0  0  0
  -18.9405  -30.1409   23.8920 C   0  0  0  0  0  0
  -17.6429  -30.6556   24.0544 C   0  0  0  0  0  0
  -25.9024  -34.9371   23.5179 C   0  0  0  0  0  0
  -16.5328  -29.9068   23.6275 C   0  0  0  0  0  0
  -16.7214  -28.6419   23.0363 C   0  0  0  0  0  0
  -26.4526  -31.6465   25.0800 C   0  0  0  0  0  0
  -25.3794  -31.3575   26.1617 C   0  0  0  0  0  0
  -27.0381  -30.2867   24.6196 C   0  0  0  0  0  0
  -27.6043  -32.4255   25.7535 C   0  0  0  0  0  0
  -27.5586  -37.1839   24.8488 C   0  0  0  0  0  0
  -21.4209  -29.2969   22.3712 N   0  0  0  0  0  0
  -26.4296  -37.3712   23.9378 N   0  0  0  0  0  0
  -24.6719  -31.0753   22.1015 N   0  0  0  0  0  0
  -23.4197  -28.8206   23.3143 O   0  0  0  0  0  0
  -28.4012  -26.6563   20.1481 O   0  0  0  0  0  0
  -26.5627  -34.8829   22.4790 O   0  0  0  0  0  0
  -23.5453  -32.1374   23.7571 O   0  0  0  0  0  0
  -31.8790  -19.4348   19.5225 C   0  0  0  0  0  0
  -31.3803  -18.1726   19.9325 C   0  0  0  0  0  0
  -31.1281  -20.6186   19.7381 C   0  0  0  0  0  0
  -30.1004  -18.0710   20.5490 C   0  0  0  0  0  0
  -29.8104  -20.5374   20.2893 C   0  0  0  0  0  0
  -29.2813  -19.2489   20.6135 C   0  0  0  0  0  0
  -29.6045  -16.8608   21.2868 C   0  0  0  0  0  0
  -29.8252  -15.5141   21.3899 C   0  0  0  0  0  0
  -26.9585  -18.7601   20.1319 C   0  0  0  0  0  0
  -28.2806  -24.0657   20.2653 C   0  0  0  0  0  0
  -28.5848  -25.3873   19.4792 C   0  0  0  0  0  0
  -29.3563  -22.9384   20.0447 C   0  0  0  0  0  0
  -27.9695  -19.1929   21.0748 O   0  0  0  0  0  0
  -28.9759  -21.6341   20.5189 O   0  0  0  0  0  0
  -31.4716  -12.5966   19.0419 H   0  0  0  0  0  0
  -30.4775  -11.3661   19.7483 H   0  0  0  0  0  0
  -29.7467  -11.8644   17.3963 H   0  0  0  0  0  0
  -29.6796  -13.5624   17.7768 H   0  0  0  0  0  0
  -27.7646  -11.3869   18.6896 H   0  0  0  0  0  0
  -27.3999  -12.8311   17.7682 H   0  0  0  0  0  0
  -27.7341  -14.2926   19.6820 H   0  0  0  0  0  0
  -28.7364  -11.8411   21.1669 H   0  0  0  0  0  0
  -28.3951  -13.3433   21.9180 H   0  0  0  0  0  0
  -25.2816   -9.5752   22.4840 H   0  0  0  0  0  0
  -24.0077   -7.4640   22.7455 H   0  0  0  0  0  0
  -21.0903   -8.8884   19.8917 H   0  0  0  0  0  0
  -22.3808  -10.9787   19.6195 H   0  0  0  0  0  0
  -21.2060   -7.6204   23.9764 H   0  0  0  0  0  0
  -21.1421   -6.0527   25.9079 H   0  0  0  0  0  0
  -22.0610   -2.7674   23.2839 H   0  0  0  0  0  0
  -22.3954  -11.9835   22.4827 H   0  0  0  0  0  0
  -21.1014  -13.1231   22.2666 H   0  0  0  0  0  0
  -24.6827  -15.8735   20.5213 H   0  0  0  0  0  0
  -26.3118  -15.6278   20.1740 H   0  0  0  0  0  0
  -26.7168  -32.5503   23.1166 H   0  0  0  0  0  0
  -24.9828  -33.9551   25.0367 H   0  0  0  0  0  0
  -22.6984  -31.3049   21.4157 H   0  0  0  0  0  0
  -23.3636  -35.9791   23.3332 H   0  0  0  0  0  0
  -24.3634  -36.8965   22.2094 H   0  0  0  0  0  0
  -23.7314  -37.6556   23.6700 H   0  0  0  0  0  0
  -26.0654  -31.5880   20.6222 H   0  0  0  0  0  0
  -26.8034  -30.8436   22.0183 H   0  0  0  0  0  0
  -28.1001  -29.0527   21.1503 H   0  0  0  0  0  0
  -25.9632  -25.9139   19.0656 H   0  0  0  0  0  0
  -23.9226  -27.2954   19.0898 H   0  0  0  0  0  0
  -23.7567  -30.6027   19.3980 H   0  0  0  0  0  0
  -22.7241  -29.2786   19.8644 H   0  0  0  0  0  0
  -25.1254  -36.1899   25.0806 H   0  0  0  0  0  0
  -20.9787  -28.3176   24.1466 H   0  0  0  0  0  0
  -20.5475  -26.2360   23.3672 H   0  0  0  0  0  0
  -21.6615  -26.7405   22.1377 H   0  0  0  0  0  0
  -19.6947  -25.6269   21.1206 H   0  0  0  0  0  0
  -19.6570  -27.3162   20.6727 H   0  0  0  0  0  0
  -17.4195  -26.6595   21.3938 H   0  0  0  0  0  0
  -18.0296  -25.9974   22.8956 H   0  0  0  0  0  0
  -19.7936  -30.7144   24.2333 H   0  0  0  0  0  0
  -17.5021  -31.6210   24.5165 H   0  0  0  0  0  0
  -15.5331  -30.2983   23.7547 H   0  0  0  0  0  0
  -15.8611  -28.0682   22.7148 H   0  0  0  0  0  0
  -24.5984  -30.6856   25.8047 H   0  0  0  0  0  0
  -24.9041  -32.2763   26.5084 H   0  0  0  0  0  0
  -25.8263  -30.8816   27.0365 H   0  0  0  0  0  0
  -26.2928  -29.6583   24.1314 H   0  0  0  0  0  0
  -27.4153  -29.7126   25.4671 H   0  0  0  0  0  0
  -27.8775  -30.4125   23.9338 H   0  0  0  0  0  0
  -27.2494  -33.3513   26.2060 H   0  0  0  0  0  0
  -28.3797  -32.6847   25.0323 H   0  0  0  0  0  0
  -28.0734  -31.8471   26.5510 H   0  0  0  0  0  0
  -28.2565  -38.0136   24.7386 H   0  0  0  0  0  0
  -28.0988  -36.2632   24.6355 H   0  0  0  0  0  0
  -27.2317  -37.1619   25.8887 H   0  0  0  0  0  0
  -20.9545  -29.8692   21.6838 H   0  0  0  0  0  0
  -26.0149  -38.2795   24.1282 H   0  0  0  0  0  0
  -32.8725  -19.5233   19.0858 H   0  0  0  0  0  0
  -32.0250  -17.3030   19.8391 H   0  0  0  0  0  0
  -31.5940  -21.5548   19.4274 H   0  0  0  0  0  0
  -28.8581  -17.1482   22.0187 H   0  0  0  0  0  0
  -29.2859  -15.1089   22.2308 H   0  0  0  0  0  0
  -26.9253  -17.6757   20.0009 H   0  0  0  0  0  0
  -27.0798  -19.1783   19.1278 H   0  0  0  0  0  0
  -25.9542  -19.0431   20.4716 H   0  0  0  0  0  0
  -27.2952  -23.7371   19.9471 H   0  0  0  0  0  0
  -28.1723  -24.2333   21.3424 H   0  0  0  0  0  0
  -29.6448  -25.3822   19.2109 H   0  0  0  0  0  0
  -28.0644  -25.3631   18.5234 H   0  0  0  0  0  0
  -30.2805  -23.2390   20.5409 H   0  0  0  0  0  0
  -29.6014  -22.8563   18.9877 H   0  0  0  0  0  0
  1 25  1  0  0  0
  1 30  2  0  0  0
  1 78  1  0  0  0
  2  3  1  0  0  0
  2 25  1  0  0  0
  2 85  1  0  0  0
  2 86  1  0  0  0
  3  4  1  0  0  0
  3 87  1  0  0  0
  3 88  1  0  0  0
  4  5  1  0  0  0
  4 89  1  0  0  0
  4 90  1  0  0  0
  5  6  1  0  0  0
  5 26  1  0  0  0
  5 91  1  0  0  0
  6 25  1  0  0  0
  6 92  1  0  0  0
  6 93  1  0  0  0
  7  8  2  0  0  0
  7 26  1  0  0  0
  7 29  1  0  0  0
  8  9  1  0  0  0
  8 22  1  0  0  0
  9 10  1  0  0  0
  9 27  2  0  0  0
 10 11  2  0  0  0
 10 15  1  0  0  0
 11 12  1  0  0  0
 11 94  1  0  0  0
 12 13  2  0  0  0
 12 95  1  0  0  0
 13 14  1  0  0  0
 13 31  1  0  0  0
 14 15  2  0  0  0
 14 96  1  0  0  0
 15 97  1  0  0  0
 16 17  2  0  0  0
 16 21  1  0  0  0
 16 31  1  0  0  0
 17 18  1  0  0  0
 17 98  1  0  0  0
 18 19  2  0  0  0
 18 99  1  0  0  0
 19 20  1  0  0  0
 19 24  1  0  0  0
 20 21  2  0  0  0
 20100  1  0  0  0
 21 23  1  0  0  0
 22 28  1  0  0  0
 22 32  2  0  0  0
 26 27  1  0  0  0
 28101  1  0  0  0
 28102  1  0  0  0
 29103  1  0  0  0
 29104  1  0  0  0
 33 34  1  0  0  0
 33 66  1  0  0  0
 33 70  2  0  0  0
 34 36  1  0  0  0
 34 59  1  0  0  0
 34105  1  0  0  0
 35 44  2  0  0  0
 35 45  1  0  0  0
 35 68  1  0  0  0
 36 56  1  0  0  0
 36106  1  0  0  0
 37 39  1  0  0  0
 37 47  1  0  0  0
 37 66  1  0  0  0
 37107  1  0  0  0
 38 43  2  0  0  0
 38 46  1  0  0  0
 38 47  1  0  0  0
 39 64  1  0  0  0
 39 67  2  0  0  0
 40 52  1  0  0  0
 40 53  2  0  0  0
 40 58  1  0  0  0
 41108  1  0  0  0
 41109  1  0  0  0
 41110  1  0  0  0
 41 48  1  0  0  0
 42 43  1  0  0  0
 42 66  1  0  0  0
 42111  1  0  0  0
 42112  1  0  0  0
 43 44  1  0  0  0
 44113  1  0  0  0
 45 46  2  0  0  0
 45114  1  0  0  0
 46115  1  0  0  0
 47116  1  0  0  0
 47117  1  0  0  0
 48 56  1  0  0  0
 48 65  1  0  0  0
 48118  1  0  0  0
 49 50  1  0  0  0
 49 53  1  0  0  0
 49 64  1  0  0  0
 49119  1  0  0  0
 50 51  1  0  0  0
 50120  1  0  0  0
 50121  1  0  0  0
 51 52  1  0  0  0
 51122  1  0  0  0
 51123  1  0  0  0
 52124  1  0  0  0
 52125  1  0  0  0
 53 54  1  0  0  0
 54 55  2  0  0  0
 54126  1  0  0  0
 55 57  1  0  0  0
 55127  1  0  0  0
 56 69  2  0  0  0
 57 58  2  0  0  0
 57128  1  0  0  0
 58129  1  0  0  0
 59 60  1  0  0  0
 59 61  1  0  0  0
 59 62  1  0  0  0
 60130  1  0  0  0
 60131  1  0  0  0
 60132  1  0  0  0
 61133  1  0  0  0
 61134  1  0  0  0
 61135  1  0  0  0
 62136  1  0  0  0
 62137  1  0  0  0
 62138  1  0  0  0
 63 65  1  0  0  0
 63139  1  0  0  0
 63140  1  0  0  0
 63141  1  0  0  0
 64142  1  0  0  0
 65143  1  0  0  0
 68 81  1  0  0  0
 71 72  2  0  0  0
 71 73  1  0  0  0
 71144  1  0  0  0
 72 74  1  0  0  0
 72145  1  0  0  0
 73 75  2  0  0  0
 73146  1  0  0  0
 74 76  2  0  0  0
 74 77  1  0  0  0
 75 76  1  0  0  0
 75 84  1  0  0  0
 76 83  1  0  0  0
 77 78  2  0  0  0
 77147  1  0  0  0
 78148  1  0  0  0
 79 83  1  0  0  0
 79149  1  0  0  0
 79150  1  0  0  0
 79151  1  0  0  0
 80 81  1  0  0  0
 80 82  1  0  0  0
 80152  1  0  0  0
 80153  1  0  0  0
 81154  1  0  0  0
 81155  1  0  0  0
 82 84  1  0  0  0
 82156  1  0  0  0
 82157  1  0  0  0
M  ISO  4   1 100  68 101  78 100  81 101
M  END
> <chiral flag>
0

> <version>
0

> <s_m_source_file>
/data/baiqing/PycharmProjects/Reinvent-master-3.2/result/LINK_invent/BTK/process_docking_weight1_custom_product_contain_oxygen_bond_distance_aromatic_linkinvent_7_9_3/rearranged_h_0110.sdf

> <i_m_source_file_index>
46

> <r_mmod_Potential_Energy-OPLS-2005>
132.232559204102

> <r_mmod_Stretch_Energy-OPLS-2005>
63.9345512390137

> <r_mmod_Bend_Energy-OPLS-2005>
190.156723022461

> <r_mmod_Torsional_Energy-OPLS-2005>
231.843078613281

> <r_mmod_Improper_Torsional_Energy-OPLS-2005>
3.41063356399536

> <r_mmod_Van_der_Waal_Energy-OPLS-2005>
146.390365600586

> <r_mmod_Electrostatic_Energy-OPLS-2005>
-325.661773681641

> <r_mmod_Solvation_Energy-OPLS-2005>
-204.1376953125

> <b_mmod_Minimization_Converged-OPLS-2005>
0

> <r_mmod_RMS_Derivative-OPLS-2005>
15.6291332244873

$$$$
47
                    3D
 Structure written by MMmdl.
165173  0  0  1  0            999 V2000
  -30.6766  -14.5990   20.5858 C   0  0  0  0  0  0
  -30.4312  -12.3929   19.4516 C   0  0  0  0  0  0
  -29.5053  -12.5310   18.2230 C   0  0  0  0  0  0
  -28.0280  -12.3616   18.6270 C   0  0  0  0  0  0
  -27.6559  -13.2141   19.8675 C   0  0  2  0  0  0
  -28.6921  -13.0282   20.9947 C   0  0  0  0  0  0
  -25.2562  -13.8162   20.5656 C   0  0  0  0  0  0
  -24.1830  -13.0432   20.9172 C   0  0  0  0  0  0
  -24.6392  -11.6902   20.8725 C   0  0  0  0  0  0
  -23.9057  -10.4293   21.0403 C   0  0  0  0  0  0
  -24.3610   -9.4213   21.9186 C   0  0  0  0  0  0
  -23.6287   -8.2247   22.0754 C   0  0  0  0  0  0
  -22.4271   -8.0278   21.3540 C   0  0  0  0  0  0
  -21.9904   -9.0253   20.4645 C   0  0  0  0  0  0
  -22.7227  -10.2136   20.3053 C   0  0  0  0  0  0
  -21.6855   -6.0731   22.5275 C   0  0  0  0  0  0
  -21.4014   -6.5635   23.8208 C   0  0  0  0  0  0
  -21.3659   -5.6791   24.9172 C   0  0  0  0  0  0
  -21.6045   -4.3053   24.7228 C   0  0  0  0  0  0
  -21.8821   -3.8140   23.4348 C   0  0  0  0  0  0
  -21.9193   -4.6958   22.3400 C   0  0  0  0  0  0
  -22.7856  -13.5234   21.1853 C   0  0  0  0  0  0
  -22.1662   -4.2142   21.0980 F   0  0  0  0  0  0
  -21.5633   -3.4535   25.7743 F   0  0  0  0  0  0
  -30.0191  -13.3930   20.4624 N   0  0  0  0  0  0
  -26.2993  -12.9341   20.3303 N   0  0  0  0  0  0
  -25.9317  -11.6497   20.5725 N   0  0  0  0  0  0
  -22.0504  -12.8223   22.0411 N   0  0  0  0  0  0
  -25.4267  -15.1879   20.4057 N   0  0  0  0  0  0
  -31.7503  -14.7984   20.0066 O   0  0  0  0  0  0
  -21.6634   -6.8873   21.4235 O   0  0  0  0  0  0
  -22.3541  -14.5541   20.6708 O   0  0  0  0  0  0
  -24.6243  -31.8598   23.2049 C   0  0  0  0  0  0
  -25.9098  -32.4776   23.8376 C   0  0  1  0  0  0
  -27.2269  -27.3382   20.1239 C   0  0  0  0  0  0
  -25.5922  -33.8575   24.2301 N   0  0  0  0  0  0
  -23.4182  -30.4835   21.5467 C   0  0  2  0  0  0
  -24.8661  -28.9412   20.1126 C   0  0  0  0  0  0
  -22.7475  -29.4614   22.4946 C   0  0  0  0  0  0
  -18.0280  -28.1367   22.8494 C   0  0  0  0  0  0
  -24.1484  -36.7295   23.2640 C   0  0  0  0  0  0
  -25.9572  -30.7975   21.3740 C   0  0  0  0  0  0
  -26.0335  -29.4268   20.7166 C   0  0  0  0  0  0
  -27.2195  -28.6381   20.7101 C   0  0  0  0  0  0
  -26.0423  -26.9014   19.4916 C   0  0  0  0  0  0
  -24.8718  -27.6821   19.4912 C   0  0  0  0  0  0
  -23.6322  -29.8184   20.1621 C   0  0  0  0  0  0
  -25.4106  -36.3083   24.0332 C   0  0  1  0  0  0
  -20.5885  -28.3669   23.1282 C   0  0  2  0  0  0
  -20.6767  -26.9392   22.5409 C   0  0  0  0  0  0
  -19.5744  -26.6372   21.5209 C   0  0  0  0  0  0
  -18.1922  -26.7914   22.1617 C   0  0  0  0  0  0
  -19.1538  -28.8835   23.2880 C   0  0  0  0  0  0
  -18.9459  -30.1440   23.8891 C   0  0  0  0  0  0
  -17.6460  -30.6576   24.0559 C   0  0  0  0  0  0
  -25.9039  -34.9447   23.5115 C   0  0  0  0  0  0
  -16.5346  -29.9072   23.6337 C   0  0  0  0  0  0
  -16.7268  -28.6486   23.0362 C   0  0  0  0  0  0
  -26.4493  -31.6580   25.0741 C   0  0  0  0  0  0
  -25.3737  -31.3684   26.1479 C   0  0  0  0  0  0
  -27.0347  -30.3012   24.6188 C   0  0  0  0  0  0
  -27.6071  -32.4313   25.7498 C   0  0  0  0  0  0
  -27.5585  -37.1796   24.8471 C   0  0  0  0  0  0
  -21.4189  -29.3027   22.3685 N   0  0  0  0  0  0
  -26.4292  -37.3774   23.9420 N   0  0  0  0  0  0
  -24.6853  -31.0629   22.0990 N   0  0  0  0  0  0
  -23.4205  -28.8150   23.3019 O   0  0  0  0  0  0
  -28.3451  -26.4994   20.1435 O   0  0  0  0  0  0
  -26.5608  -34.8917   22.4680 O   0  0  0  0  0  0
  -23.5409  -32.1388   23.7382 O   0  0  0  0  0  0
  -30.6717  -17.8253   20.1335 C   0  0  0  0  0  0
  -29.8375  -17.1629   21.0691 C   0  0  0  0  0  0
  -28.6740  -19.4023   21.3279 C   0  0  0  0  0  0
  -28.8037  -17.9973   21.6265 C   0  0  0  0  0  0
  -30.5386  -19.2055   19.8108 C   0  0  0  0  0  0
  -29.5533  -20.0489   20.4018 C   0  0  0  0  0  0
  -27.5588  -20.1498   21.9402 C   0  0  0  0  0  0
  -27.5043  -20.5046   23.2359 C   0  0  0  0  0  0
  -30.0968  -15.7006   21.5380 C   0  0  0  0  0  0
  -26.3623  -21.2705   23.8667 C   0  0  0  0  0  0
  -32.4585  -20.4894   19.4257 C   0  0  0  0  0  0
  -29.0240  -23.9476   20.0297 C   0  0  0  0  0  0
  -28.1422  -25.1193   20.6323 C   0  0  0  0  0  0
  -28.7472  -22.4842   20.5829 C   0  0  0  0  0  0
  -29.8816  -15.3927   22.7512 N   0  0  0  0  0  0
  -27.8512  -17.4491   22.4987 N   0  0  0  0  0  0
  -31.4029  -19.7139   18.8755 O   0  0  0  0  0  0
  -29.5483  -21.4093   19.9928 O   0  0  0  0  0  0
  -31.4741  -12.5082   19.1512 H   0  0  0  0  0  0
  -30.3608  -11.3876   19.8704 H   0  0  0  0  0  0
  -29.7727  -11.7945   17.4642 H   0  0  0  0  0  0
  -29.6493  -13.5103   17.7632 H   0  0  0  0  0  0
  -27.8612  -11.3054   18.8409 H   0  0  0  0  0  0
  -27.3757  -12.6076   17.7886 H   0  0  0  0  0  0
  -27.6888  -14.2581   19.5560 H   0  0  0  0  0  0
  -28.7032  -11.9905   21.3304 H   0  0  0  0  0  0
  -28.3888  -13.5985   21.8687 H   0  0  0  0  0  0
  -25.2757   -9.5693   22.4758 H   0  0  0  0  0  0
  -23.9997   -7.4639   22.7477 H   0  0  0  0  0  0
  -21.0833   -8.8771   19.8952 H   0  0  0  0  0  0
  -22.3685  -10.9674   19.6161 H   0  0  0  0  0  0
  -21.2001   -7.6144   23.9710 H   0  0  0  0  0  0
  -21.1483   -6.0520   25.9075 H   0  0  0  0  0  0
  -22.0600   -2.7601   23.2851 H   0  0  0  0  0  0
  -22.4116  -11.9881   22.4792 H   0  0  0  0  0  0
  -21.1126  -13.1258   22.2626 H   0  0  0  0  0  0
  -24.6577  -15.8406   20.5085 H   0  0  0  0  0  0
  -26.2784  -15.6305   20.0850 H   0  0  0  0  0  0
  -26.7160  -32.5453   23.1122 H   0  0  0  0  0  0
  -25.0081  -33.9711   25.0456 H   0  0  0  0  0  0
  -22.7106  -31.3031   21.4048 H   0  0  0  0  0  0
  -23.3752  -35.9622   23.3291 H   0  0  0  0  0  0
  -24.3577  -36.8935   22.2061 H   0  0  0  0  0  0
  -23.7231  -37.6486   23.6674 H   0  0  0  0  0  0
  -26.0880  -31.5620   20.6069 H   0  0  0  0  0  0
  -26.8367  -30.8455   22.0042 H   0  0  0  0  0  0
  -28.1175  -29.0071   21.1863 H   0  0  0  0  0  0
  -26.0151  -25.9412   18.9963 H   0  0  0  0  0  0
  -23.9793  -27.3053   19.0108 H   0  0  0  0  0  0
  -23.7466  -30.5948   19.4045 H   0  0  0  0  0  0
  -22.7533  -29.2443   19.8636 H   0  0  0  0  0  0
  -25.1283  -36.1944   25.0824 H   0  0  0  0  0  0
  -20.9966  -28.3237   24.1407 H   0  0  0  0  0  0
  -20.5668  -26.2274   23.3603 H   0  0  0  0  0  0
  -21.6633  -26.7418   22.1206 H   0  0  0  0  0  0
  -19.6906  -25.6289   21.1227 H   0  0  0  0  0  0
  -19.6681  -27.3185   20.6742 H   0  0  0  0  0  0
  -17.4201  -26.6672   21.4014 H   0  0  0  0  0  0
  -18.0311  -26.0046   22.8999 H   0  0  0  0  0  0
  -19.7934  -30.7257   24.2262 H   0  0  0  0  0  0
  -17.5014  -31.6261   24.5150 H   0  0  0  0  0  0
  -15.5347  -30.2969   23.7665 H   0  0  0  0  0  0
  -15.8667  -28.0795   22.7091 H   0  0  0  0  0  0
  -24.5951  -30.6979   25.7821 H   0  0  0  0  0  0
  -24.8862  -32.2813   26.4909 H   0  0  0  0  0  0
  -25.8090  -30.8889   27.0257 H   0  0  0  0  0  0
  -26.2903  -29.6717   24.1293 H   0  0  0  0  0  0
  -27.4140  -29.7322   25.4686 H   0  0  0  0  0  0
  -27.8737  -30.4310   23.9346 H   0  0  0  0  0  0
  -27.2732  -33.3665   26.2001 H   0  0  0  0  0  0
  -28.3915  -32.6770   25.0328 H   0  0  0  0  0  0
  -28.0688  -31.8467   26.5462 H   0  0  0  0  0  0
  -28.2594  -38.0104   24.7544 H   0  0  0  0  0  0
  -28.1095  -36.2636   24.6274 H   0  0  0  0  0  0
  -27.2307  -37.1423   25.8875 H   0  0  0  0  0  0
  -20.9368  -29.8759   21.6900 H   0  0  0  0  0  0
  -26.0180  -38.2854   24.1420 H   0  0  0  0  0  0
  -31.4733  -17.2782   19.6603 H   0  0  0  0  0  0
  -26.7404  -20.4016   21.2817 H   0  0  0  0  0  0
  -28.3203  -20.2364   23.8937 H   0  0  0  0  0  0
  -25.5982  -21.5283   23.1321 H   0  0  0  0  0  0
  -26.7315  -22.1940   24.3147 H   0  0  0  0  0  0
  -25.8972  -20.6717   24.6503 H   0  0  0  0  0  0
  -33.1869  -20.7114   18.6459 H   0  0  0  0  0  0
  -32.9754  -19.9499   20.2211 H   0  0  0  0  0  0
  -32.1018  -21.4390   19.8248 H   0  0  0  0  0  0
  -30.0765  -24.1838   20.1863 H   0  0  0  0  0  0
  -28.8772  -23.9359   18.9502 H   0  0  0  0  0  0
  -28.3236  -25.1498   21.7078 H   0  0  0  0  0  0
  -27.1005  -24.8126   20.5460 H   0  0  0  0  0  0
  -27.6944  -22.2707   20.4023 H   0  0  0  0  0  0
  -28.9042  -22.4901   21.6618 H   0  0  0  0  0  0
  -29.4987  -16.2044   23.2296 H   0  0  0  0  0  0
  -27.6331  -16.4610   22.4286 H   0  0  0  0  0  0
  -27.0371  -18.0198   22.6993 H   0  0  0  0  0  0
  1 25  1  0  0  0
  1 30  2  0  0  0
  1 79  1  0  0  0
  2  3  1  0  0  0
  2 25  1  0  0  0
  2 89  1  0  0  0
  2 90  1  0  0  0
  3  4  1  0  0  0
  3 91  1  0  0  0
  3 92  1  0  0  0
  4  5  1  0  0  0
  4 93  1  0  0  0
  4 94  1  0  0  0
  5  6  1  0  0  0
  5 26  1  0  0  0
  5 95  1  0  0  0
  6 25  1  0  0  0
  6 96  1  0  0  0
  6 97  1  0  0  0
  7  8  2  0  0  0
  7 26  1  0  0  0
  7 29  1  0  0  0
  8  9  1  0  0  0
  8 22  1  0  0  0
  9 10  1  0  0  0
  9 27  2  0  0  0
 10 11  2  0  0  0
 10 15  1  0  0  0
 11 12  1  0  0  0
 11 98  1  0  0  0
 12 13  2  0  0  0
 12 99  1  0  0  0
 13 14  1  0  0  0
 13 31  1  0  0  0
 14 15  2  0  0  0
 14100  1  0  0  0
 15101  1  0  0  0
 16 17  2  0  0  0
 16 21  1  0  0  0
 16 31  1  0  0  0
 17 18  1  0  0  0
 17102  1  0  0  0
 18 19  2  0  0  0
 18103  1  0  0  0
 19 20  1  0  0  0
 19 24  1  0  0  0
 20 21  2  0  0  0
 20104  1  0  0  0
 21 23  1  0  0  0
 22 28  1  0  0  0
 22 32  2  0  0  0
 26 27  1  0  0  0
 28105  1  0  0  0
 28106  1  0  0  0
 29107  1  0  0  0
 29108  1  0  0  0
 33 34  1  0  0  0
 33 66  1  0  0  0
 33 70  2  0  0  0
 34 36  1  0  0  0
 34 59  1  0  0  0
 34109  1  0  0  0
 35 44  2  0  0  0
 35 45  1  0  0  0
 35 68  1  0  0  0
 36 56  1  0  0  0
 36110  1  0  0  0
 37 39  1  0  0  0
 37 47  1  0  0  0
 37 66  1  0  0  0
 37111  1  0  0  0
 38 43  2  0  0  0
 38 46  1  0  0  0
 38 47  1  0  0  0
 39 64  1  0  0  0
 39 67  2  0  0  0
 40 52  1  0  0  0
 40 53  2  0  0  0
 40 58  1  0  0  0
 41112  1  0  0  0
 41113  1  0  0  0
 41114  1  0  0  0
 41 48  1  0  0  0
 42 43  1  0  0  0
 42 66  1  0  0  0
 42115  1  0  0  0
 42116  1  0  0  0
 43 44  1  0  0  0
 44117  1  0  0  0
 45 46  2  0  0  0
 45118  1  0  0  0
 46119  1  0  0  0
 47120  1  0  0  0
 47121  1  0  0  0
 48 56  1  0  0  0
 48 65  1  0  0  0
 48122  1  0  0  0
 49 50  1  0  0  0
 49 53  1  0  0  0
 49 64  1  0  0  0
 49123  1  0  0  0
 50 51  1  0  0  0
 50124  1  0  0  0
 50125  1  0  0  0
 51 52  1  0  0  0
 51126  1  0  0  0
 51127  1  0  0  0
 52128  1  0  0  0
 52129  1  0  0  0
 53 54  1  0  0  0
 54 55  2  0  0  0
 54130  1  0  0  0
 55 57  1  0  0  0
 55131  1  0  0  0
 56 69  2  0  0  0
 57 58  2  0  0  0
 57132  1  0  0  0
 58133  1  0  0  0
 59 60  1  0  0  0
 59 61  1  0  0  0
 59 62  1  0  0  0
 60134  1  0  0  0
 60135  1  0  0  0
 60136  1  0  0  0
 61137  1  0  0  0
 61138  1  0  0  0
 61139  1  0  0  0
 62140  1  0  0  0
 62141  1  0  0  0
 62142  1  0  0  0
 63 65  1  0  0  0
 63143  1  0  0  0
 63144  1  0  0  0
 63145  1  0  0  0
 64146  1  0  0  0
 65147  1  0  0  0
 68 83  1  0  0  0
 71 72  2  0  0  0
 71 75  1  0  0  0
 71148  1  0  0  0
 72 74  1  0  0  0
 72 79  1  0  0  0
 73 74  2  0  0  0
 73 76  1  0  0  0
 73 77  1  0  0  0
 74 86  1  0  0  0
 75 76  2  0  0  0
 75 87  1  0  0  0
 76 88  1  0  0  0
 77 78  2  0  0  0
 77149  1  0  0  0
 78 80  1  0  0  0
 78150  1  0  0  0
 79 85  2  0  0  0
 80151  1  0  0  0
 80152  1  0  0  0
 80153  1  0  0  0
 81 87  1  0  0  0
 81154  1  0  0  0
 81155  1  0  0  0
 81156  1  0  0  0
 82 83  1  0  0  0
 82 84  1  0  0  0
 82157  1  0  0  0
 82158  1  0  0  0
 83159  1  0  0  0
 83160  1  0  0  0
 84 88  1  0  0  0
 84161  1  0  0  0
 84162  1  0  0  0
 85163  1  0  0  0
 86164  1  0  0  0
 86165  1  0  0  0
M  ISO  4   1 100  68 101  79 100  83 101
M  END
> <chiral flag>
0

> <version>
0

> <s_m_source_file>
/data/baiqing/PycharmProjects/Reinvent-master-3.2/result/LINK_invent/BTK/process_docking_weight1_custom_product_contain_oxygen_bond_distance_aromatic_linkinvent_7_9_3/rearranged_h_0110.sdf

> <i_m_source_file_index>
47

> <r_mmod_Potential_Energy-OPLS-2005>
337.775360107422

> <r_mmod_Stretch_Energy-OPLS-2005>
92.2884902954102

> <r_mmod_Bend_Energy-OPLS-2005>
162.645660400391

> <r_mmod_Torsional_Energy-OPLS-2005>
283.032012939453

> <r_mmod_Improper_Torsional_Energy-OPLS-2005>
6.23582220077515

> <r_mmod_Van_der_Waal_Energy-OPLS-2005>
166.219421386719

> <r_mmod_Electrostatic_Energy-OPLS-2005>
-211.730514526367

> <r_mmod_Solvation_Energy-OPLS-2005>
-197.793182373047

> <b_mmod_Minimization_Converged-OPLS-2005>
0

> <r_mmod_RMS_Derivative-OPLS-2005>
1.14351010322571

$$$$
48
                    3D
 Structure written by MMmdl.
167176  0  0  1  0            999 V2000
  -30.6221  -15.0823   20.3068 C   0  0  0  0  0  0
  -30.4118  -12.7078   19.4368 C   0  0  0  0  0  0
  -29.4818  -12.5149   18.2260 C   0  0  0  0  0  0
  -28.0397  -12.2695   18.6954 C   0  0  0  0  0  0
  -27.6031  -13.2406   19.8194 C   0  0  2  0  0  0
  -28.6782  -13.4479   20.9059 C   0  0  0  0  0  0
  -25.2354  -13.7967   20.5870 C   0  0  0  0  0  0
  -24.1665  -13.0232   20.9293 C   0  0  0  0  0  0
  -24.6351  -11.6766   20.8832 C   0  0  0  0  0  0
  -23.9031  -10.4188   21.0445 C   0  0  0  0  0  0
  -24.3586   -9.4114   21.9215 C   0  0  0  0  0  0
  -23.6273   -8.2150   22.0758 C   0  0  0  0  0  0
  -22.4258   -8.0211   21.3535 C   0  0  0  0  0  0
  -21.9884   -9.0183   20.4636 C   0  0  0  0  0  0
  -22.7209  -10.2065   20.3076 C   0  0  0  0  0  0
  -21.6833   -6.0705   22.5297 C   0  0  0  0  0  0
  -21.3987   -6.5616   23.8222 C   0  0  0  0  0  0
  -21.3668   -5.6785   24.9193 C   0  0  0  0  0  0
  -21.6055   -4.3053   24.7255 C   0  0  0  0  0  0
  -21.8825   -3.8135   23.4383 C   0  0  0  0  0  0
  -21.9190   -4.6941   22.3429 C   0  0  0  0  0  0
  -22.7698  -13.5062   21.1917 C   0  0  0  0  0  0
  -22.1666   -4.2125   21.1006 F   0  0  0  0  0  0
  -21.5652   -3.4541   25.7776 F   0  0  0  0  0  0
  -29.8888  -13.8909   20.1916 N   0  0  0  0  0  0
  -26.2824  -12.9283   20.3435 N   0  0  0  0  0  0
  -25.9304  -11.6418   20.5891 N   0  0  0  0  0  0
  -22.0349  -12.8074   22.0501 N   0  0  0  0  0  0
  -25.3884  -15.1614   20.4369 N   0  0  0  0  0  0
  -31.8329  -14.8707   20.4447 O   0  0  0  0  0  0
  -21.6601   -6.8831   21.4250 O   0  0  0  0  0  0
  -22.3397  -14.5368   20.6750 O   0  0  0  0  0  0
  -24.6468  -31.8414   23.1832 C   0  0  0  0  0  0
  -25.9218  -32.4687   23.8246 C   0  0  1  0  0  0
  -27.2276  -27.1095   20.1427 C   0  0  0  0  0  0
  -25.5939  -33.8491   24.2172 N   0  0  0  0  0  0
  -23.4524  -30.4573   21.5332 C   0  0  2  0  0  0
  -24.9028  -28.8742   20.1144 C   0  0  0  0  0  0
  -22.7584  -29.4521   22.4872 C   0  0  0  0  0  0
  -18.0290  -28.1407   22.8471 C   0  0  0  0  0  0
  -24.1487  -36.7255   23.2646 C   0  0  0  0  0  0
  -26.0101  -30.7050   21.3864 C   0  0  0  0  0  0
  -26.0829  -29.3134   20.7283 C   0  0  0  0  0  0
  -27.2461  -28.4481   20.7206 C   0  0  0  0  0  0
  -26.0186  -26.7763   19.4966 C   0  0  0  0  0  0
  -24.8850  -27.6215   19.4843 C   0  0  0  0  0  0
  -23.6801  -29.7807   20.1554 C   0  0  0  0  0  0
  -25.4126  -36.3036   24.0324 C   0  0  1  0  0  0
  -20.5908  -28.3731   23.1241 C   0  0  2  0  0  0
  -20.6778  -26.9433   22.5420 C   0  0  0  0  0  0
  -19.5759  -26.6386   21.5221 C   0  0  0  0  0  0
  -18.1935  -26.7933   22.1627 C   0  0  0  0  0  0
  -19.1555  -28.8891   23.2832 C   0  0  0  0  0  0
  -18.9481  -30.1484   23.8862 C   0  0  0  0  0  0
  -17.6479  -30.6599   24.0558 C   0  0  0  0  0  0
  -25.9089  -34.9411   23.5071 C   0  0  0  0  0  0
  -16.5363  -29.9101   23.6329 C   0  0  0  0  0  0
  -16.7275  -28.6520   23.0346 C   0  0  0  0  0  0
  -26.4505  -31.6559   25.0703 C   0  0  0  0  0  0
  -25.3662  -31.3779   26.1384 C   0  0  0  0  0  0
  -27.0387  -30.2947   24.6327 C   0  0  0  0  0  0
  -27.6029  -32.4336   25.7490 C   0  0  0  0  0  0
  -27.5581  -37.1774   24.8466 C   0  0  0  0  0  0
  -21.4272  -29.3049   22.3620 N   0  0  0  0  0  0
  -26.4279  -37.3760   23.9420 N   0  0  0  0  0  0
  -24.7234  -31.0234   22.0892 N   0  0  0  0  0  0
  -23.4198  -28.8065   23.3043 O   0  0  0  0  0  0
  -28.2973  -26.1307   20.1379 O   0  0  0  0  0  0
  -26.5692  -34.8905   22.4664 O   0  0  0  0  0  0
  -23.5587  -32.1316   23.7037 O   0  0  0  0  0  0
  -26.7866  -17.8353   20.2396 C   0  0  0  0  0  0
  -28.2942  -19.0896   21.6707 C   0  0  0  0  0  0
  -27.8943  -17.2513   19.5870 C   0  0  0  0  0  0
  -29.2747  -18.9001   20.6739 C   0  0  0  0  0  0
  -26.9941  -18.6266   21.3859 C   0  0  0  0  0  0
  -29.1894  -17.4930   20.1031 C   0  0  0  0  0  0
  -30.2247  -22.0618   21.3636 C   0  0  0  0  0  0
  -30.9288  -17.8771   17.9119 C   0  0  0  0  0  0
  -31.1548  -16.8883   18.7995 C   0  0  0  0  0  0
  -30.9498  -23.3766   21.1215 C   0  0  0  0  0  0
  -30.4413  -23.7956   19.7497 C   0  0  0  0  0  0
  -29.0067  -23.2733   19.7695 C   0  0  2  0  0  0
  -27.6928  -16.4960   18.2816 C   0  0  0  0  0  0
  -29.2881  -20.3625   19.8598 C   0  0  0  0  0  0
  -28.0951  -24.5853   20.3820 C   0  0  0  0  0  0
  -29.2332  -21.8470   20.4758 N   0  0  0  0  0  0
  -25.9121  -19.0600   22.1467 N   0  0  0  0  0  0
  -30.2518  -16.4091   19.7878 N   0  0  0  0  0  0
  -30.6430  -21.2523   22.1944 O   0  0  0  0  0  0
  -31.4287  -12.8617   19.0719 H   0  0  0  0  0  0
  -30.4465  -11.8154   20.0637 H   0  0  0  0  0  0
  -29.8180  -11.6794   17.6120 H   0  0  0  0  0  0
  -29.5256  -13.4042   17.5947 H   0  0  0  0  0  0
  -27.9840  -11.2428   19.0584 H   0  0  0  0  0  0
  -27.3494  -12.3315   17.8534 H   0  0  0  0  0  0
  -27.4901  -14.1904   19.3172 H   0  0  0  0  0  0
  -28.8535  -12.5354   21.4791 H   0  0  0  0  0  0
  -28.3650  -14.2183   21.6128 H   0  0  0  0  0  0
  -25.2716   -9.5615   22.4800 H   0  0  0  0  0  0
  -23.9988   -7.4537   22.7475 H   0  0  0  0  0  0
  -21.0824   -8.8704   19.8930 H   0  0  0  0  0  0
  -22.3658  -10.9619   19.6214 H   0  0  0  0  0  0
  -21.1935   -7.6126   23.9702 H   0  0  0  0  0  0
  -21.1487   -6.0532   25.9089 H   0  0  0  0  0  0
  -22.0593   -2.7590   23.2908 H   0  0  0  0  0  0
  -22.3967  -11.9715   22.4853 H   0  0  0  0  0  0
  -21.0962  -13.1088   22.2724 H   0  0  0  0  0  0
  -24.6170  -15.8064   20.5590 H   0  0  0  0  0  0
  -26.2677  -15.6232   20.2406 H   0  0  0  0  0  0
  -26.7285  -32.5273   23.0971 H   0  0  0  0  0  0
  -24.9982  -33.9590   25.0244 H   0  0  0  0  0  0
  -22.7558  -31.2827   21.3755 H   0  0  0  0  0  0
  -23.3767  -35.9565   23.3300 H   0  0  0  0  0  0
  -24.3558  -36.8907   22.2060 H   0  0  0  0  0  0
  -23.7216  -37.6436   23.6695 H   0  0  0  0  0  0
  -26.1726  -31.4591   20.6160 H   0  0  0  0  0  0
  -26.8753  -30.7533   22.0362 H   0  0  0  0  0  0
  -28.1511  -28.7880   21.2066 H   0  0  0  0  0  0
  -25.9325  -25.8260   18.9916 H   0  0  0  0  0  0
  -23.9867  -27.2835   18.9870 H   0  0  0  0  0  0
  -23.8168  -30.5539   19.3984 H   0  0  0  0  0  0
  -22.7918  -29.2248   19.8448 H   0  0  0  0  0  0
  -25.1306  -36.1870   25.0816 H   0  0  0  0  0  0
  -20.9975  -28.3336   24.1373 H   0  0  0  0  0  0
  -20.5703  -26.2344   23.3644 H   0  0  0  0  0  0
  -21.6639  -26.7451   22.1209 H   0  0  0  0  0  0
  -19.6935  -25.6298   21.1267 H   0  0  0  0  0  0
  -19.6698  -27.3175   20.6744 H   0  0  0  0  0  0
  -17.4204  -26.6659   21.4032 H   0  0  0  0  0  0
  -18.0334  -26.0078   22.9044 H   0  0  0  0  0  0
  -19.7971  -30.7296   24.2214 H   0  0  0  0  0  0
  -17.5046  -31.6272   24.5185 H   0  0  0  0  0  0
  -15.5376  -30.3003   23.7689 H   0  0  0  0  0  0
  -15.8660  -28.0843   22.7081 H   0  0  0  0  0  0
  -24.5826  -30.7159   25.7688 H   0  0  0  0  0  0
  -24.8860  -32.2972   26.4743 H   0  0  0  0  0  0
  -25.7891  -30.8971   27.0217 H   0  0  0  0  0  0
  -26.3036  -29.6647   24.1314 H   0  0  0  0  0  0
  -27.3960  -29.7271   25.4937 H   0  0  0  0  0  0
  -27.8950  -30.4180   23.9694 H   0  0  0  0  0  0
  -27.2618  -33.3668   26.1991 H   0  0  0  0  0  0
  -28.3854  -32.6855   25.0319 H   0  0  0  0  0  0
  -28.0670  -31.8511   26.5460 H   0  0  0  0  0  0
  -28.2583  -38.0086   24.7528 H   0  0  0  0  0  0
  -28.1087  -36.2614   24.6272 H   0  0  0  0  0  0
  -27.2294  -37.1403   25.8865 H   0  0  0  0  0  0
  -20.9520  -29.8752   21.6765 H   0  0  0  0  0  0
  -26.0163  -38.2839   24.1408 H   0  0  0  0  0  0
  -25.7838  -17.6496   19.8837 H   0  0  0  0  0  0
  -28.3810  -19.9116   22.3668 H   0  0  0  0  0  0
  -29.9946  -18.4144   17.8451 H   0  0  0  0  0  0
  -31.6999  -18.1624   17.2108 H   0  0  0  0  0  0
  -32.1212  -16.4021   18.7618 H   0  0  0  0  0  0
  -32.0326  -23.2591   21.1337 H   0  0  0  0  0  0
  -30.6649  -24.0954   21.8894 H   0  0  0  0  0  0
  -31.0176  -23.3038   18.9636 H   0  0  0  0  0  0
  -30.5170  -24.8695   19.5794 H   0  0  0  0  0  0
  -28.6854  -23.1024   18.7408 H   0  0  0  0  0  0
  -28.4464  -15.7287   18.1040 H   0  0  0  0  0  0
  -27.7710  -17.2008   17.4531 H   0  0  0  0  0  0
  -26.7041  -16.0433   18.2216 H   0  0  0  0  0  0
  -28.4365  -20.3176   19.1806 H   0  0  0  0  0  0
  -30.1576  -20.3398   19.2035 H   0  0  0  0  0  0
  -28.1462  -24.4988   21.4679 H   0  0  0  0  0  0
  -27.0569  -24.3472   20.1567 H   0  0  0  0  0  0
  -24.9572  -18.8762   21.8563 H   0  0  0  0  0  0
  -26.0104  -19.7726   22.8640 H   0  0  0  0  0  0
  1 25  1  0  0  0
  1 30  2  0  0  0
  1 88  1  0  0  0
  2  3  1  0  0  0
  2 25  1  0  0  0
  2 90  1  0  0  0
  2 91  1  0  0  0
  3  4  1  0  0  0
  3 92  1  0  0  0
  3 93  1  0  0  0
  4  5  1  0  0  0
  4 94  1  0  0  0
  4 95  1  0  0  0
  5  6  1  0  0  0
  5 26  1  0  0  0
  5 96  1  0  0  0
  6 25  1  0  0  0
  6 97  1  0  0  0
  6 98  1  0  0  0
  7  8  2  0  0  0
  7 26  1  0  0  0
  7 29  1  0  0  0
  8  9  1  0  0  0
  8 22  1  0  0  0
  9 10  1  0  0  0
  9 27  2  0  0  0
 10 11  2  0  0  0
 10 15  1  0  0  0
 11 12  1  0  0  0
 11 99  1  0  0  0
 12 13  2  0  0  0
 12100  1  0  0  0
 13 14  1  0  0  0
 13 31  1  0  0  0
 14 15  2  0  0  0
 14101  1  0  0  0
 15102  1  0  0  0
 16 17  2  0  0  0
 16 21  1  0  0  0
 16 31  1  0  0  0
 17 18  1  0  0  0
 17103  1  0  0  0
 18 19  2  0  0  0
 18104  1  0  0  0
 19 20  1  0  0  0
 19 24  1  0  0  0
 20 21  2  0  0  0
 20105  1  0  0  0
 21 23  1  0  0  0
 22 28  1  0  0  0
 22 32  2  0  0  0
 26 27  1  0  0  0
 28106  1  0  0  0
 28107  1  0  0  0
 29108  1  0  0  0
 29109  1  0  0  0
 33 34  1  0  0  0
 33 66  1  0  0  0
 33 70  2  0  0  0
 34 36  1  0  0  0
 34 59  1  0  0  0
 34110  1  0  0  0
 35 44  2  0  0  0
 35 45  1  0  0  0
 35 68  1  0  0  0
 36 56  1  0  0  0
 36111  1  0  0  0
 37 39  1  0  0  0
 37 47  1  0  0  0
 37 66  1  0  0  0
 37112  1  0  0  0
 38 43  2  0  0  0
 38 46  1  0  0  0
 38 47  1  0  0  0
 39 64  1  0  0  0
 39 67  2  0  0  0
 40 52  1  0  0  0
 40 53  2  0  0  0
 40 58  1  0  0  0
 41113  1  0  0  0
 41114  1  0  0  0
 41115  1  0  0  0
 41 48  1  0  0  0
 42 43  1  0  0  0
 42 66  1  0  0  0
 42116  1  0  0  0
 42117  1  0  0  0
 43 44  1  0  0  0
 44118  1  0  0  0
 45 46  2  0  0  0
 45119  1  0  0  0
 46120  1  0  0  0
 47121  1  0  0  0
 47122  1  0  0  0
 48 56  1  0  0  0
 48 65  1  0  0  0
 48123  1  0  0  0
 49 50  1  0  0  0
 49 53  1  0  0  0
 49 64  1  0  0  0
 49124  1  0  0  0
 50 51  1  0  0  0
 50125  1  0  0  0
 50126  1  0  0  0
 51 52  1  0  0  0
 51127  1  0  0  0
 51128  1  0  0  0
 52129  1  0  0  0
 52130  1  0  0  0
 53 54  1  0  0  0
 54 55  2  0  0  0
 54131  1  0  0  0
 55 57  1  0  0  0
 55132  1  0  0  0
 56 69  2  0  0  0
 57 58  2  0  0  0
 57133  1  0  0  0
 58134  1  0  0  0
 59 60  1  0  0  0
 59 61  1  0  0  0
 59 62  1  0  0  0
 60135  1  0  0  0
 60136  1  0  0  0
 60137  1  0  0  0
 61138  1  0  0  0
 61139  1  0  0  0
 61140  1  0  0  0
 62141  1  0  0  0
 62142  1  0  0  0
 62143  1  0  0  0
 63 65  1  0  0  0
 63144  1  0  0  0
 63145  1  0  0  0
 63146  1  0  0  0
 64147  1  0  0  0
 65148  1  0  0  0
 68 85  1  0  0  0
 71 73  2  0  0  0
 71 75  1  0  0  0
 71149  1  0  0  0
 72 74  1  0  0  0
 72 75  2  0  0  0
 72150  1  0  0  0
 73 76  1  0  0  0
 73 83  1  0  0  0
 74 76  2  0  0  0
 74 84  1  0  0  0
 75 87  1  0  0  0
 76 88  1  0  0  0
 77 80  1  0  0  0
 77 86  1  0  0  0
 77 89  2  0  0  0
 78 79  2  0  0  0
 78151  1  0  0  0
 78152  1  0  0  0
 79 88  1  0  0  0
 79153  1  0  0  0
 80 81  1  0  0  0
 80154  1  0  0  0
 80155  1  0  0  0
 81 82  1  0  0  0
 81156  1  0  0  0
 81157  1  0  0  0
 82 85  1  0  0  0
 82 86  1  0  0  0
 82158  1  0  0  0
 83159  1  0  0  0
 83160  1  0  0  0
 83161  1  0  0  0
 84 86  1  0  0  0
 84162  1  0  0  0
 84163  1  0  0  0
 85164  1  0  0  0
 85165  1  0  0  0
 87166  1  0  0  0
 87167  1  0  0  0
M  ISO  4   1 100  68 101  85 101  88 100
M  END
> <chiral flag>
0

> <version>
0

> <s_m_source_file>
/data/baiqing/PycharmProjects/Reinvent-master-3.2/result/LINK_invent/BTK/process_docking_weight1_custom_product_contain_oxygen_bond_distance_aromatic_linkinvent_7_9_3/rearranged_h_0110.sdf

> <i_m_source_file_index>
48

> <r_mmod_Potential_Energy-OPLS-2005>
1256.19934082031

> <r_mmod_Stretch_Energy-OPLS-2005>
354.330108642578

> <r_mmod_Bend_Energy-OPLS-2005>
426.700805664062

> <r_mmod_Torsional_Energy-OPLS-2005>
585.136169433594

> <r_mmod_Improper_Torsional_Energy-OPLS-2005>
47.3698348999023

> <r_mmod_Van_der_Waal_Energy-OPLS-2005>
151.599746704102

> <r_mmod_Electrostatic_Energy-OPLS-2005>
-374.8671875

> <r_mmod_Solvation_Energy-OPLS-2005>
-217.596908569336

> <b_mmod_Minimization_Converged-OPLS-2005>
0

> <r_mmod_RMS_Derivative-OPLS-2005>
3.19658493995667

$$$$
49
                    3D
 Structure written by MMmdl.
162171  0  0  1  0            999 V2000
  -30.6829  -14.5047   20.4723 C   0  0  0  0  0  0
  -30.4211  -12.2981   19.4311 C   0  0  0  0  0  0
  -29.4931  -12.4719   18.2099 C   0  0  0  0  0  0
  -28.0152  -12.3332   18.6292 C   0  0  0  0  0  0
  -27.6523  -13.1974   19.8676 C   0  0  2  0  0  0
  -28.7037  -13.0405   20.9911 C   0  0  0  0  0  0
  -25.2573  -13.8132   20.5715 C   0  0  0  0  0  0
  -24.1818  -13.0428   20.9198 C   0  0  0  0  0  0
  -24.6362  -11.6886   20.8769 C   0  0  0  0  0  0
  -23.9032  -10.4281   21.0426 C   0  0  0  0  0  0
  -24.3594   -9.4193   21.9199 C   0  0  0  0  0  0
  -23.6275   -8.2228   22.0760 C   0  0  0  0  0  0
  -22.4263   -8.0267   21.3543 C   0  0  0  0  0  0
  -21.9891   -9.0242   20.4648 C   0  0  0  0  0  0
  -22.7213  -10.2123   20.3068 C   0  0  0  0  0  0
  -21.6839   -6.0728   22.5280 C   0  0  0  0  0  0
  -21.4003   -6.5633   23.8214 C   0  0  0  0  0  0
  -21.3660   -5.6787   24.9179 C   0  0  0  0  0  0
  -21.6049   -4.3052   24.7231 C   0  0  0  0  0  0
  -21.8819   -3.8142   23.4351 C   0  0  0  0  0  0
  -21.9188   -4.6957   22.3406 C   0  0  0  0  0  0
  -22.7846  -13.5238   21.1861 C   0  0  0  0  0  0
  -22.1660   -4.2145   21.0982 F   0  0  0  0  0  0
  -21.5640   -3.4540   25.7745 F   0  0  0  0  0  0
  -30.0273  -13.3153   20.4133 N   0  0  0  0  0  0
  -26.2985  -12.9270   20.3382 N   0  0  0  0  0  0
  -25.9288  -11.6446   20.5814 N   0  0  0  0  0  0
  -22.0478  -12.8224   22.0407 N   0  0  0  0  0  0
  -25.4323  -15.1852   20.4148 N   0  0  0  0  0  0
  -31.8864  -14.6220   20.2218 O   0  0  0  0  0  0
  -21.6630   -6.8866   21.4238 O   0  0  0  0  0  0
  -22.3544  -14.5555   20.6718 O   0  0  0  0  0  0
  -24.6113  -31.8696   23.2126 C   0  0  0  0  0  0
  -25.9021  -32.4831   23.8414 C   0  0  1  0  0  0
  -27.2384  -27.4539   20.1045 C   0  0  0  0  0  0
  -25.5900  -33.8631   24.2354 N   0  0  0  0  0  0
  -23.3995  -30.4919   21.5517 C   0  0  2  0  0  0
  -24.8508  -28.9607   20.1166 C   0  0  0  0  0  0
  -22.7396  -29.4657   22.4999 C   0  0  0  0  0  0
  -18.0262  -28.1376   22.8492 C   0  0  0  0  0  0
  -24.1493  -36.7322   23.2637 C   0  0  0  0  0  0
  -25.9252  -30.8415   21.3647 C   0  0  0  0  0  0
  -26.0061  -29.4743   20.7205 C   0  0  0  0  0  0
  -27.2037  -28.7243   20.7235 C   0  0  0  0  0  0
  -26.0755  -26.9562   19.4853 C   0  0  0  0  0  0
  -24.8781  -27.6974   19.4988 C   0  0  0  0  0  0
  -23.6094  -29.8231   20.1662 C   0  0  0  0  0  0
  -25.4112  -36.3121   24.0339 C   0  0  1  0  0  0
  -20.5852  -28.3665   23.1328 C   0  0  2  0  0  0
  -20.6756  -26.9405   22.5425 C   0  0  0  0  0  0
  -19.5740  -26.6383   21.5216 C   0  0  0  0  0  0
  -18.1911  -26.7924   22.1616 C   0  0  0  0  0  0
  -19.1512  -28.8834   23.2907 C   0  0  0  0  0  0
  -18.9443  -30.1435   23.8927 C   0  0  0  0  0  0
  -17.6452  -30.6591   24.0566 C   0  0  0  0  0  0
  -25.9030  -34.9480   23.5142 C   0  0  0  0  0  0
  -16.5342  -29.9100   23.6318 C   0  0  0  0  0  0
  -16.7254  -28.6508   23.0350 C   0  0  0  0  0  0
  -26.4476  -31.6594   25.0719 C   0  0  0  0  0  0
  -25.3755  -31.3671   26.1471 C   0  0  0  0  0  0
  -27.0315  -30.3048   24.6063 C   0  0  0  0  0  0
  -27.6067  -32.4304   25.7473 C   0  0  0  0  0  0
  -27.5591  -37.1812   24.8462 C   0  0  0  0  0  0
  -21.4125  -29.3036   22.3743 N   0  0  0  0  0  0
  -26.4305  -37.3799   23.9401 N   0  0  0  0  0  0
  -24.6632  -31.0815   22.1020 N   0  0  0  0  0  0
  -23.4178  -28.8185   23.3022 O   0  0  0  0  0  0
  -28.3694  -26.6735   20.0632 O   0  0  0  0  0  0
  -26.5591  -34.8924   22.4700 O   0  0  0  0  0  0
  -23.5309  -32.1439   23.7528 O   0  0  0  0  0  0
  -29.4674  -19.3001   20.9333 C   0  0  0  0  0  0
  -29.3970  -18.6025   18.1712 C   0  0  0  0  0  0
  -29.6422  -17.9625   20.5083 C   0  0  0  0  0  0
  -29.5981  -17.6372   19.1687 C   0  0  0  0  0  0
  -29.2286  -20.2969   19.9416 C   0  0  0  0  0  0
  -29.1978  -19.9514   18.5634 C   0  0  0  0  0  0
  -29.2430  -22.4524   21.2515 C   0  0  0  0  0  0
  -29.8404  -16.6974   21.3241 C   0  0  0  0  0  0
  -29.7513  -16.1581   18.9819 C   0  0  0  0  0  0
  -28.9956  -20.6860   16.2784 C   0  0  0  0  0  0
  -28.6171  -23.8592   21.2395 C   0  0  0  0  0  0
  -29.6411  -25.0151   21.3064 C   0  0  0  0  0  0
  -28.9894  -26.4154   21.3217 C   0  0  0  0  0  0
  -29.8714  -15.5814   20.3431 N   0  0  0  0  0  0
  -28.9037  -21.6548   20.2275 N   0  0  0  0  0  0
  -30.0038  -22.1177   22.1630 O   0  0  0  0  0  0
  -28.9516  -20.9753   17.6699 O   0  0  0  0  0  0
  -31.4676  -12.3901   19.1325 H   0  0  0  0  0  0
  -30.3139  -11.3003   19.8590 H   0  0  0  0  0  0
  -29.7349  -11.7326   17.4452 H   0  0  0  0  0  0
  -29.6568  -13.4474   17.7501 H   0  0  0  0  0  0
  -27.8358  -11.2803   18.8512 H   0  0  0  0  0  0
  -27.3612  -12.5806   17.7925 H   0  0  0  0  0  0
  -27.6635  -14.2319   19.5355 H   0  0  0  0  0  0
  -28.6813  -12.0308   21.4033 H   0  0  0  0  0  0
  -28.4884  -13.7169   21.8201 H   0  0  0  0  0  0
  -25.2742   -9.5679   22.4765 H   0  0  0  0  0  0
  -23.9992   -7.4623   22.7472 H   0  0  0  0  0  0
  -21.0830   -8.8756   19.8948 H   0  0  0  0  0  0
  -22.3674  -10.9669   19.6177 H   0  0  0  0  0  0
  -21.1980   -7.6138   23.9717 H   0  0  0  0  0  0
  -21.1489   -6.0519   25.9083 H   0  0  0  0  0  0
  -22.0596   -2.7605   23.2859 H   0  0  0  0  0  0
  -22.4082  -11.9870   22.4775 H   0  0  0  0  0  0
  -21.1106  -13.1261   22.2641 H   0  0  0  0  0  0
  -24.6730  -15.8452   20.5421 H   0  0  0  0  0  0
  -26.2944  -15.6258   20.1190 H   0  0  0  0  0  0
  -26.7096  -32.5571   23.1188 H   0  0  0  0  0  0
  -25.0072  -33.9802   25.0517 H   0  0  0  0  0  0
  -22.6859  -31.3068   21.4125 H   0  0  0  0  0  0
  -23.3752  -35.9658   23.3302 H   0  0  0  0  0  0
  -24.3590  -36.8932   22.2050 H   0  0  0  0  0  0
  -23.7249  -37.6529   23.6649 H   0  0  0  0  0  0
  -26.0310  -31.6043   20.5920 H   0  0  0  0  0  0
  -26.8153  -30.9017   21.9791 H   0  0  0  0  0  0
  -28.0949  -29.1210   21.1897 H   0  0  0  0  0  0
  -26.0959  -25.9872   19.0063 H   0  0  0  0  0  0
  -23.9906  -27.2961   19.0291 H   0  0  0  0  0  0
  -23.7124  -30.5979   19.4055 H   0  0  0  0  0  0
  -22.7357  -29.2386   19.8733 H   0  0  0  0  0  0
  -25.1286  -36.1999   25.0831 H   0  0  0  0  0  0
  -20.9936  -28.3234   24.1452 H   0  0  0  0  0  0
  -20.5664  -26.2272   23.3606 H   0  0  0  0  0  0
  -21.6627  -26.7451   22.1223 H   0  0  0  0  0  0
  -19.6907  -25.6296   21.1238 H   0  0  0  0  0  0
  -19.6690  -27.3194   20.6745 H   0  0  0  0  0  0
  -17.4189  -26.6679   21.4010 H   0  0  0  0  0  0
  -18.0302  -26.0062   22.9001 H   0  0  0  0  0  0
  -19.7921  -30.7227   24.2333 H   0  0  0  0  0  0
  -17.5013  -31.6275   24.5157 H   0  0  0  0  0  0
  -15.5347  -30.3021   23.7620 H   0  0  0  0  0  0
  -15.8643  -28.0836   22.7071 H   0  0  0  0  0  0
  -24.5943  -30.7004   25.7803 H   0  0  0  0  0  0
  -24.8919  -32.2806   26.4940 H   0  0  0  0  0  0
  -25.8112  -30.8831   27.0218 H   0  0  0  0  0  0
  -26.2846  -29.6788   24.1161 H   0  0  0  0  0  0
  -27.4161  -29.7298   25.4496 H   0  0  0  0  0  0
  -27.8646  -30.4390   23.9156 H   0  0  0  0  0  0
  -27.2714  -33.3600   26.2087 H   0  0  0  0  0  0
  -28.3857  -32.6866   25.0280 H   0  0  0  0  0  0
  -28.0761  -31.8399   26.5355 H   0  0  0  0  0  0
  -28.2607  -38.0115   24.7526 H   0  0  0  0  0  0
  -28.1093  -36.2645   24.6272 H   0  0  0  0  0  0
  -27.2304  -37.1446   25.8866 H   0  0  0  0  0  0
  -20.9276  -29.8792   21.7004 H   0  0  0  0  0  0
  -26.0199  -38.2878   24.1408 H   0  0  0  0  0  0
  -29.4736  -19.5443   21.9865 H   0  0  0  0  0  0
  -29.3712  -18.2904   17.1378 H   0  0  0  0  0  0
  -29.0075  -16.5628   22.0152 H   0  0  0  0  0  0
  -30.7632  -16.7566   21.9031 H   0  0  0  0  0  0
  -30.6246  -15.9604   18.3565 H   0  0  0  0  0  0
  -28.8781  -15.7629   18.4647 H   0  0  0  0  0  0
  -28.8474  -21.6083   15.7168 H   0  0  0  0  0  0
  -28.2036  -19.9945   15.9871 H   0  0  0  0  0  0
  -29.9620  -20.2761   15.9820 H   0  0  0  0  0  0
  -27.9364  -23.9278   22.0885 H   0  0  0  0  0  0
  -27.9985  -23.9791   20.3491 H   0  0  0  0  0  0
  -30.3331  -24.9475   20.4662 H   0  0  0  0  0  0
  -30.2459  -24.9031   22.2075 H   0  0  0  0  0  0
  -29.7468  -27.1792   21.5018 H   0  0  0  0  0  0
  -28.2736  -26.4775   22.1452 H   0  0  0  0  0  0
  -28.3898  -22.1109   19.4856 H   0  0  0  0  0  0
  1 25  1  0  0  0
  1 30  2  0  0  0
  1 84  1  0  0  0
  2  3  1  0  0  0
  2 25  1  0  0  0
  2 88  1  0  0  0
  2 89  1  0  0  0
  3  4  1  0  0  0
  3 90  1  0  0  0
  3 91  1  0  0  0
  4  5  1  0  0  0
  4 92  1  0  0  0
  4 93  1  0  0  0
  5  6  1  0  0  0
  5 26  1  0  0  0
  5 94  1  0  0  0
  6 25  1  0  0  0
  6 95  1  0  0  0
  6 96  1  0  0  0
  7  8  2  0  0  0
  7 26  1  0  0  0
  7 29  1  0  0  0
  8  9  1  0  0  0
  8 22  1  0  0  0
  9 10  1  0  0  0
  9 27  2  0  0  0
 10 11  2  0  0  0
 10 15  1  0  0  0
 11 12  1  0  0  0
 11 97  1  0  0  0
 12 13  2  0  0  0
 12 98  1  0  0  0
 13 14  1  0  0  0
 13 31  1  0  0  0
 14 15  2  0  0  0
 14 99  1  0  0  0
 15100  1  0  0  0
 16 17  2  0  0  0
 16 21  1  0  0  0
 16 31  1  0  0  0
 17 18  1  0  0  0
 17101  1  0  0  0
 18 19  2  0  0  0
 18102  1  0  0  0
 19 20  1  0  0  0
 19 24  1  0  0  0
 20 21  2  0  0  0
 20103  1  0  0  0
 21 23  1  0  0  0
 22 28  1  0  0  0
 22 32  2  0  0  0
 26 27  1  0  0  0
 28104  1  0  0  0
 28105  1  0  0  0
 29106  1  0  0  0
 29107  1  0  0  0
 33 34  1  0  0  0
 33 66  1  0  0  0
 33 70  2  0  0  0
 34 36  1  0  0  0
 34 59  1  0  0  0
 34108  1  0  0  0
 35 44  2  0  0  0
 35 45  1  0  0  0
 35 68  1  0  0  0
 36 56  1  0  0  0
 36109  1  0  0  0
 37 39  1  0  0  0
 37 47  1  0  0  0
 37 66  1  0  0  0
 37110  1  0  0  0
 38 43  2  0  0  0
 38 46  1  0  0  0
 38 47  1  0  0  0
 39 64  1  0  0  0
 39 67  2  0  0  0
 40 52  1  0  0  0
 40 53  2  0  0  0
 40 58  1  0  0  0
 41111  1  0  0  0
 41112  1  0  0  0
 41113  1  0  0  0
 41 48  1  0  0  0
 42 43  1  0  0  0
 42 66  1  0  0  0
 42114  1  0  0  0
 42115  1  0  0  0
 43 44  1  0  0  0
 44116  1  0  0  0
 45 46  2  0  0  0
 45117  1  0  0  0
 46118  1  0  0  0
 47119  1  0  0  0
 47120  1  0  0  0
 48 56  1  0  0  0
 48 65  1  0  0  0
 48121  1  0  0  0
 49 50  1  0  0  0
 49 53  1  0  0  0
 49 64  1  0  0  0
 49122  1  0  0  0
 50 51  1  0  0  0
 50123  1  0  0  0
 50124  1  0  0  0
 51 52  1  0  0  0
 51125  1  0  0  0
 51126  1  0  0  0
 52127  1  0  0  0
 52128  1  0  0  0
 53 54  1  0  0  0
 54 55  2  0  0  0
 54129  1  0  0  0
 55 57  1  0  0  0
 55130  1  0  0  0
 56 69  2  0  0  0
 57 58  2  0  0  0
 57131  1  0  0  0
 58132  1  0  0  0
 59 60  1  0  0  0
 59 61  1  0  0  0
 59 62  1  0  0  0
 60133  1  0  0  0
 60134  1  0  0  0
 60135  1  0  0  0
 61136  1  0  0  0
 61137  1  0  0  0
 61138  1  0  0  0
 62139  1  0  0  0
 62140  1  0  0  0
 62141  1  0  0  0
 63 65  1  0  0  0
 63142  1  0  0  0
 63143  1  0  0  0
 63144  1  0  0  0
 64145  1  0  0  0
 65146  1  0  0  0
 68 83  1  0  0  0
 71 73  2  0  0  0
 71 75  1  0  0  0
 71147  1  0  0  0
 72 74  2  0  0  0
 72 76  1  0  0  0
 72148  1  0  0  0
 73 74  1  0  0  0
 73 78  1  0  0  0
 74 79  1  0  0  0
 75 76  2  0  0  0
 75 85  1  0  0  0
 76 87  1  0  0  0
 77 81  1  0  0  0
 77 85  1  0  0  0
 77 86  2  0  0  0
 78 84  1  0  0  0
 78149  1  0  0  0
 78150  1  0  0  0
 79 84  1  0  0  0
 79151  1  0  0  0
 79152  1  0  0  0
 80 87  1  0  0  0
 80153  1  0  0  0
 80154  1  0  0  0
 80155  1  0  0  0
 81 82  1  0  0  0
 81156  1  0  0  0
 81157  1  0  0  0
 82 83  1  0  0  0
 82158  1  0  0  0
 82159  1  0  0  0
 83160  1  0  0  0
 83161  1  0  0  0
 85162  1  0  0  0
M  ISO  4   1 100  68 101  83 101  84 100
M  END
> <chiral flag>
0

> <version>
0

> <s_m_source_file>
/data/baiqing/PycharmProjects/Reinvent-master-3.2/result/LINK_invent/BTK/process_docking_weight1_custom_product_contain_oxygen_bond_distance_aromatic_linkinvent_7_9_3/rearranged_h_0110.sdf

> <i_m_source_file_index>
49

> <r_mmod_Potential_Energy-OPLS-2005>
29.4762535095215

> <r_mmod_Stretch_Energy-OPLS-2005>
40.1945953369141

> <r_mmod_Bend_Energy-OPLS-2005>
152.131927490234

> <r_mmod_Torsional_Energy-OPLS-2005>
307.614013671875

> <r_mmod_Improper_Torsional_Energy-OPLS-2005>
18.275318145752

> <r_mmod_Van_der_Waal_Energy-OPLS-2005>
145.7978515625

> <r_mmod_Electrostatic_Energy-OPLS-2005>
-434.289123535156

> <r_mmod_Solvation_Energy-OPLS-2005>
-220.976104736328

> <b_mmod_Minimization_Converged-OPLS-2005>
0

> <r_mmod_RMS_Derivative-OPLS-2005>
1.32628047466278

$$$$
50
                    3D
 Structure written by MMmdl.
175184  0  0  1  0            999 V2000
  -30.6142  -14.6495   20.5166 C   0  0  0  0  0  0
  -30.4423  -12.4038   19.4483 C   0  0  0  0  0  0
  -29.5091  -12.5184   18.2219 C   0  0  0  0  0  0
  -28.0313  -12.3523   18.6328 C   0  0  0  0  0  0
  -27.6539  -13.2179   19.8639 C   0  0  2  0  0  0
  -28.6983  -13.0656   20.9916 C   0  0  0  0  0  0
  -25.2565  -13.8178   20.5658 C   0  0  0  0  0  0
  -24.1832  -13.0445   20.9177 C   0  0  0  0  0  0
  -24.6397  -11.6913   20.8723 C   0  0  0  0  0  0
  -23.9061  -10.4294   21.0396 C   0  0  0  0  0  0
  -24.3617   -9.4209   21.9173 C   0  0  0  0  0  0
  -23.6299   -8.2239   22.0746 C   0  0  0  0  0  0
  -22.4278   -8.0278   21.3539 C   0  0  0  0  0  0
  -21.9909   -9.0245   20.4637 C   0  0  0  0  0  0
  -22.7235  -10.2127   20.3044 C   0  0  0  0  0  0
  -21.6848   -6.0732   22.5275 C   0  0  0  0  0  0
  -21.4008   -6.5633   23.8210 C   0  0  0  0  0  0
  -21.3668   -5.6787   24.9172 C   0  0  0  0  0  0
  -21.6047   -4.3047   24.7220 C   0  0  0  0  0  0
  -21.8825   -3.8140   23.4338 C   0  0  0  0  0  0
  -21.9191   -4.6958   22.3397 C   0  0  0  0  0  0
  -22.7852  -13.5228   21.1854 C   0  0  0  0  0  0
  -22.1659   -4.2143   21.0977 F   0  0  0  0  0  0
  -21.5640   -3.4537   25.7734 F   0  0  0  0  0  0
  -30.0135  -13.4185   20.4325 N   0  0  0  0  0  0
  -26.2993  -12.9356   20.3305 N   0  0  0  0  0  0
  -25.9325  -11.6510   20.5741 N   0  0  0  0  0  0
  -22.0488  -12.8217   22.0412 N   0  0  0  0  0  0
  -25.4294  -15.1897   20.4057 N   0  0  0  0  0  0
  -31.7703  -14.8297   20.1213 O   0  0  0  0  0  0
  -21.6640   -6.8876   21.4235 O   0  0  0  0  0  0
  -22.3526  -14.5531   20.6704 O   0  0  0  0  0  0
  -24.6261  -31.8600   23.2035 C   0  0  0  0  0  0
  -25.9108  -32.4785   23.8364 C   0  0  1  0  0  0
  -27.2226  -27.3120   20.1195 C   0  0  0  0  0  0
  -25.5923  -33.8586   24.2289 N   0  0  0  0  0  0
  -23.4199  -30.4826   21.5478 C   0  0  2  0  0  0
  -24.8669  -28.9357   20.1141 C   0  0  0  0  0  0
  -22.7470  -29.4617   22.4954 C   0  0  0  0  0  0
  -18.0277  -28.1375   22.8482 C   0  0  0  0  0  0
  -24.1492  -36.7283   23.2643 C   0  0  0  0  0  0
  -25.9622  -30.7870   21.3764 C   0  0  0  0  0  0
  -26.0372  -29.4132   20.7193 C   0  0  0  0  0  0
  -27.2194  -28.6133   20.7123 C   0  0  0  0  0  0
  -26.0349  -26.8963   19.4770 C   0  0  0  0  0  0
  -24.8679  -27.6825   19.4840 C   0  0  0  0  0  0
  -23.6356  -29.8180   20.1633 C   0  0  0  0  0  0
  -25.4115  -36.3087   24.0341 C   0  0  1  0  0  0
  -20.5878  -28.3678   23.1288 C   0  0  2  0  0  0
  -20.6762  -26.9405   22.5411 C   0  0  0  0  0  0
  -19.5743  -26.6378   21.5206 C   0  0  0  0  0  0
  -18.1920  -26.7921   22.1616 C   0  0  0  0  0  0
  -19.1527  -28.8842   23.2882 C   0  0  0  0  0  0
  -18.9454  -30.1442   23.8904 C   0  0  0  0  0  0
  -17.6459  -30.6589   24.0553 C   0  0  0  0  0  0
  -25.9057  -34.9455   23.5117 C   0  0  0  0  0  0
  -16.5349  -29.9088   23.6330 C   0  0  0  0  0  0
  -16.7261  -28.6495   23.0363 C   0  0  0  0  0  0
  -26.4491  -31.6597   25.0735 C   0  0  0  0  0  0
  -25.3719  -31.3741   26.1461 C   0  0  0  0  0  0
  -27.0338  -30.3023   24.6189 C   0  0  0  0  0  0
  -27.6052  -32.4331   25.7510 C   0  0  0  0  0  0
  -27.5585  -37.1797   24.8464 C   0  0  0  0  0  0
  -21.4181  -29.3041   22.3696 N   0  0  0  0  0  0
  -26.4289  -37.3782   23.9426 N   0  0  0  0  0  0
  -24.6883  -31.0594   22.0997 N   0  0  0  0  0  0
  -23.4192  -28.8149   23.3027 O   0  0  0  0  0  0
  -28.3299  -26.4483   20.1405 O   0  0  0  0  0  0
  -26.5630  -34.8921   22.4687 O   0  0  0  0  0  0
  -23.5426  -32.1407   23.7358 O   0  0  0  0  0  0
  -30.5661  -18.0132   21.5312 C   0  0  0  0  0  0
  -28.9966  -19.1121   19.5081 C   0  0  0  0  0  0
  -30.5009  -19.4363   21.3699 C   0  0  0  0  0  0
  -29.6966  -20.0261   20.3431 C   0  0  0  0  0  0
  -29.8708  -17.1118   20.6849 C   0  0  0  0  0  0
  -29.0595  -17.6876   19.6737 C   0  0  0  0  0  0
  -29.0074  -23.8439   20.0796 C   0  0  0  0  0  0
  -28.8900  -22.5222   20.4946 C   0  0  0  0  0  0
  -30.0913  -24.1558   19.1139 C   0  0  0  0  0  0
  -31.1969  -23.1122   18.9436 C   0  0  0  0  0  0
  -30.6351  -21.6819   18.9224 C   0  0  0  0  0  0
  -27.8171  -22.1263   21.5001 C   0  0  0  0  0  0
  -33.5083  -20.0040   21.0033 C   0  0  0  0  0  0
  -30.7028  -20.2771   23.7424 C   0  0  0  0  0  0
  -27.6665  -17.2970   17.7550 C   0  0  0  0  0  0
  -28.0872  -25.0382   20.5644 C   0  0  0  0  0  0
  -32.8104  -19.9344   22.3698 C   0  0  0  0  0  0
  -31.3121  -20.3095   22.3324 C   0  0  1  0  0  0
  -29.7090  -21.4376   20.0295 N   0  0  0  0  0  0
  -29.8116  -15.6748   20.9394 N   0  0  0  0  0  0
  -30.1612  -25.1944   18.4506 O   0  0  0  0  0  0
  -28.3503  -16.7958   18.8944 O   0  0  0  0  0  0
  -31.4819  -12.5411   19.1453 H   0  0  0  0  0  0
  -30.3868  -11.4051   19.8846 H   0  0  0  0  0  0
  -29.7758  -11.7706   17.4737 H   0  0  0  0  0  0
  -29.6467  -13.4893   17.7437 H   0  0  0  0  0  0
  -27.8664  -11.2986   18.8599 H   0  0  0  0  0  0
  -27.3771  -12.5873   17.7928 H   0  0  0  0  0  0
  -27.6734  -14.2538   19.5268 H   0  0  0  0  0  0
  -28.7127  -12.0408   21.3647 H   0  0  0  0  0  0
  -28.4400  -13.6870   21.8505 H   0  0  0  0  0  0
  -25.2765   -9.5685   22.4741 H   0  0  0  0  0  0
  -24.0013   -7.4623   22.7459 H   0  0  0  0  0  0
  -21.0840   -8.8755   19.8941 H   0  0  0  0  0  0
  -22.3692  -10.9658   19.6146 H   0  0  0  0  0  0
  -21.1995   -7.6140   23.9710 H   0  0  0  0  0  0
  -21.1491   -6.0516   25.9080 H   0  0  0  0  0  0
  -22.0599   -2.7600   23.2831 H   0  0  0  0  0  0
  -22.4112  -11.9889   22.4823 H   0  0  0  0  0  0
  -21.1097  -13.1230   22.2598 H   0  0  0  0  0  0
  -24.6630  -15.8451   20.5142 H   0  0  0  0  0  0
  -26.2785  -15.6252   20.0661 H   0  0  0  0  0  0
  -26.7173  -32.5450   23.1112 H   0  0  0  0  0  0
  -25.0054  -33.9741   25.0424 H   0  0  0  0  0  0
  -22.7132  -31.3031   21.4064 H   0  0  0  0  0  0
  -23.3771  -35.9596   23.3286 H   0  0  0  0  0  0
  -24.3592  -36.8917   22.2061 H   0  0  0  0  0  0
  -23.7217  -37.6470   23.6669 H   0  0  0  0  0  0
  -26.0932  -31.5488   20.6069 H   0  0  0  0  0  0
  -26.8426  -30.8371   22.0054 H   0  0  0  0  0  0
  -28.1171  -28.9752   21.1940 H   0  0  0  0  0  0
  -25.9947  -25.9482   18.9607 H   0  0  0  0  0  0
  -23.9738  -27.3149   18.9984 H   0  0  0  0  0  0
  -23.7562  -30.5967   19.4089 H   0  0  0  0  0  0
  -22.7539  -29.2502   19.8598 H   0  0  0  0  0  0
  -25.1292  -36.1937   25.0833 H   0  0  0  0  0  0
  -20.9956  -28.3240   24.1415 H   0  0  0  0  0  0
  -20.5639  -26.2292   23.3608 H   0  0  0  0  0  0
  -21.6632  -26.7429   22.1218 H   0  0  0  0  0  0
  -19.6908  -25.6285   21.1241 H   0  0  0  0  0  0
  -19.6686  -27.3177   20.6726 H   0  0  0  0  0  0
  -17.4192  -26.6655   21.4020 H   0  0  0  0  0  0
  -18.0335  -26.0063   22.9013 H   0  0  0  0  0  0
  -19.7938  -30.7241   24.2288 H   0  0  0  0  0  0
  -17.5027  -31.6276   24.5139 H   0  0  0  0  0  0
  -15.5352  -30.2998   23.7659 H   0  0  0  0  0  0
  -15.8654  -28.0814   22.7104 H   0  0  0  0  0  0
  -24.5891  -30.7096   25.7783 H   0  0  0  0  0  0
  -24.8916  -32.2913   26.4881 H   0  0  0  0  0  0
  -25.8037  -30.8916   27.0239 H   0  0  0  0  0  0
  -26.2918  -29.6778   24.1200 H   0  0  0  0  0  0
  -27.4026  -29.7272   25.4692 H   0  0  0  0  0  0
  -27.8787  -30.4316   23.9421 H   0  0  0  0  0  0
  -27.2662  -33.3627   26.2091 H   0  0  0  0  0  0
  -28.3862  -32.6898   25.0342 H   0  0  0  0  0  0
  -28.0718  -31.8453   26.5425 H   0  0  0  0  0  0
  -28.2585  -38.0114   24.7555 H   0  0  0  0  0  0
  -28.1103  -36.2655   24.6233 H   0  0  0  0  0  0
  -27.2320  -37.1367   25.8869 H   0  0  0  0  0  0
  -20.9354  -29.8785   21.6929 H   0  0  0  0  0  0
  -26.0171  -38.2852   24.1446 H   0  0  0  0  0  0
  -31.1539  -17.6027   22.3383 H   0  0  0  0  0  0
  -28.3979  -19.5415   18.7198 H   0  0  0  0  0  0
  -31.8911  -23.2235   19.7763 H   0  0  0  0  0  0
  -31.7593  -23.3096   18.0309 H   0  0  0  0  0  0
  -31.4657  -20.9745   18.9477 H   0  0  0  0  0  0
  -30.1117  -21.5078   17.9811 H   0  0  0  0  0  0
  -27.8987  -22.7369   22.3998 H   0  0  0  0  0  0
  -27.8739  -21.0856   21.8175 H   0  0  0  0  0  0
  -26.8259  -22.2852   21.0735 H   0  0  0  0  0  0
  -34.5588  -19.7266   21.0939 H   0  0  0  0  0  0
  -33.4667  -21.0108   20.5869 H   0  0  0  0  0  0
  -33.0530  -19.3231   20.2842 H   0  0  0  0  0  0
  -29.6650  -20.6109   23.7272 H   0  0  0  0  0  0
  -31.2472  -20.9329   24.4225 H   0  0  0  0  0  0
  -30.7237  -19.2731   24.1671 H   0  0  0  0  0  0
  -26.8549  -17.9676   18.0393 H   0  0  0  0  0  0
  -27.2295  -16.4656   17.2017 H   0  0  0  0  0  0
  -28.3488  -17.8183   17.0817 H   0  0  0  0  0  0
  -28.1481  -25.0471   21.6528 H   0  0  0  0  0  0
  -27.0684  -24.7222   20.3509 H   0  0  0  0  0  0
  -33.3294  -20.6016   23.0592 H   0  0  0  0  0  0
  -32.9378  -18.9328   22.7813 H   0  0  0  0  0  0
  -31.2625  -21.3464   22.0004 H   0  0  0  0  0  0
  -28.8894  -15.3458   21.1777 H   0  0  0  0  0  0
  1 25  1  0  0  0
  1 30  2  0  0  0
  1 90  1  0  0  0
  2  3  1  0  0  0
  2 25  1  0  0  0
  2 93  1  0  0  0
  2 94  1  0  0  0
  3  4  1  0  0  0
  3 95  1  0  0  0
  3 96  1  0  0  0
  4  5  1  0  0  0
  4 97  1  0  0  0
  4 98  1  0  0  0
  5  6  1  0  0  0
  5 26  1  0  0  0
  5 99  1  0  0  0
  6 25  1  0  0  0
  6100  1  0  0  0
  6101  1  0  0  0
  7  8  2  0  0  0
  7 26  1  0  0  0
  7 29  1  0  0  0
  8  9  1  0  0  0
  8 22  1  0  0  0
  9 10  1  0  0  0
  9 27  2  0  0  0
 10 11  2  0  0  0
 10 15  1  0  0  0
 11 12  1  0  0  0
 11102  1  0  0  0
 12 13  2  0  0  0
 12103  1  0  0  0
 13 14  1  0  0  0
 13 31  1  0  0  0
 14 15  2  0  0  0
 14104  1  0  0  0
 15105  1  0  0  0
 16 17  2  0  0  0
 16 21  1  0  0  0
 16 31  1  0  0  0
 17 18  1  0  0  0
 17106  1  0  0  0
 18 19  2  0  0  0
 18107  1  0  0  0
 19 20  1  0  0  0
 19 24  1  0  0  0
 20 21  2  0  0  0
 20108  1  0  0  0
 21 23  1  0  0  0
 22 28  1  0  0  0
 22 32  2  0  0  0
 26 27  1  0  0  0
 28109  1  0  0  0
 28110  1  0  0  0
 29111  1  0  0  0
 29112  1  0  0  0
 33 34  1  0  0  0
 33 66  1  0  0  0
 33 70  2  0  0  0
 34 36  1  0  0  0
 34 59  1  0  0  0
 34113  1  0  0  0
 35 44  2  0  0  0
 35 45  1  0  0  0
 35 68  1  0  0  0
 36 56  1  0  0  0
 36114  1  0  0  0
 37 39  1  0  0  0
 37 47  1  0  0  0
 37 66  1  0  0  0
 37115  1  0  0  0
 38 43  2  0  0  0
 38 46  1  0  0  0
 38 47  1  0  0  0
 39 64  1  0  0  0
 39 67  2  0  0  0
 40 52  1  0  0  0
 40 53  2  0  0  0
 40 58  1  0  0  0
 41116  1  0  0  0
 41117  1  0  0  0
 41118  1  0  0  0
 41 48  1  0  0  0
 42 43  1  0  0  0
 42 66  1  0  0  0
 42119  1  0  0  0
 42120  1  0  0  0
 43 44  1  0  0  0
 44121  1  0  0  0
 45 46  2  0  0  0
 45122  1  0  0  0
 46123  1  0  0  0
 47124  1  0  0  0
 47125  1  0  0  0
 48 56  1  0  0  0
 48 65  1  0  0  0
 48126  1  0  0  0
 49 50  1  0  0  0
 49 53  1  0  0  0
 49 64  1  0  0  0
 49127  1  0  0  0
 50 51  1  0  0  0
 50128  1  0  0  0
 50129  1  0  0  0
 51 52  1  0  0  0
 51130  1  0  0  0
 51131  1  0  0  0
 52132  1  0  0  0
 52133  1  0  0  0
 53 54  1  0  0  0
 54 55  2  0  0  0
 54134  1  0  0  0
 55 57  1  0  0  0
 55135  1  0  0  0
 56 69  2  0  0  0
 57 58  2  0  0  0
 57136  1  0  0  0
 58137  1  0  0  0
 59 60  1  0  0  0
 59 61  1  0  0  0
 59 62  1  0  0  0
 60138  1  0  0  0
 60139  1  0  0  0
 60140  1  0  0  0
 61141  1  0  0  0
 61142  1  0  0  0
 61143  1  0  0  0
 62144  1  0  0  0
 62145  1  0  0  0
 62146  1  0  0  0
 63 65  1  0  0  0
 63147  1  0  0  0
 63148  1  0  0  0
 63149  1  0  0  0
 64150  1  0  0  0
 65151  1  0  0  0
 68 86  1  0  0  0
 71 73  2  0  0  0
 71 75  1  0  0  0
 71152  1  0  0  0
 72 74  2  0  0  0
 72 76  1  0  0  0
 72153  1  0  0  0
 73 74  1  0  0  0
 73 88  1  0  0  0
 74 89  1  0  0  0
 75 76  2  0  0  0
 75 90  1  0  0  0
 76 92  1  0  0  0
 77 78  2  0  0  0
 77 79  1  0  0  0
 77 86  1  0  0  0
 78 82  1  0  0  0
 78 89  1  0  0  0
 79 80  1  0  0  0
 79 91  2  0  0  0
 80 81  1  0  0  0
 80154  1  0  0  0
 80155  1  0  0  0
 81 89  1  0  0  0
 81156  1  0  0  0
 81157  1  0  0  0
 82158  1  0  0  0
 82159  1  0  0  0
 82160  1  0  0  0
 83 87  1  0  0  0
 83161  1  0  0  0
 83162  1  0  0  0
 83163  1  0  0  0
 84164  1  0  0  0
 84165  1  0  0  0
 84166  1  0  0  0
 84 88  1  0  0  0
 85 92  1  0  0  0
 85167  1  0  0  0
 85168  1  0  0  0
 85169  1  0  0  0
 86170  1  0  0  0
 86171  1  0  0  0
 87 88  1  0  0  0
 87172  1  0  0  0
 87173  1  0  0  0
 88174  1  0  0  0
 90175  1  0  0  0
M  ISO  4   1 100  68 101  86 101  90 100
M  END
> <chiral flag>
0

> <version>
0

> <s_m_source_file>
/data/baiqing/PycharmProjects/Reinvent-master-3.2/result/LINK_invent/BTK/process_docking_weight1_custom_product_contain_oxygen_bond_distance_aromatic_linkinvent_7_9_3/rearranged_h_0110.sdf

> <i_m_source_file_index>
50

> <r_mmod_Potential_Energy-OPLS-2005>
85.9490509033203

> <r_mmod_Stretch_Energy-OPLS-2005>
91.2120742797852

> <r_mmod_Bend_Energy-OPLS-2005>
143.551666259766

> <r_mmod_Torsional_Energy-OPLS-2005>
270.771514892578

> <r_mmod_Improper_Torsional_Energy-OPLS-2005>
6.20353174209595

> <r_mmod_Van_der_Waal_Energy-OPLS-2005>
149.807891845703

> <r_mmod_Electrostatic_Energy-OPLS-2005>
-410.483001708984

> <r_mmod_Solvation_Energy-OPLS-2005>
-216.464813232422

> <b_mmod_Minimization_Converged-OPLS-2005>
0

> <r_mmod_RMS_Derivative-OPLS-2005>
1.31686091423035

$$$$
51
                    3D
 Structure written by MMmdl.
155163  0  0  1  0            999 V2000
  -30.6727  -14.6338   20.3805 C   0  0  0  0  0  0
  -30.4020  -12.3618   19.4451 C   0  0  0  0  0  0
  -29.4889  -12.4814   18.2074 C   0  0  0  0  0  0
  -28.0143  -12.3298   18.6264 C   0  0  0  0  0  0
  -27.6369  -13.2281   19.8335 C   0  0  2  0  0  0
  -28.6954  -13.1419   20.9603 C   0  0  0  0  0  0
  -25.2365  -13.8113   20.5462 C   0  0  0  0  0  0
  -24.1738  -13.0361   20.9168 C   0  0  0  0  0  0
  -24.6386  -11.6867   20.8786 C   0  0  0  0  0  0
  -23.9064  -10.4256   21.0414 C   0  0  0  0  0  0
  -24.3616   -9.4191   21.9195 C   0  0  0  0  0  0
  -23.6295   -8.2223   22.0764 C   0  0  0  0  0  0
  -22.4278   -8.0249   21.3544 C   0  0  0  0  0  0
  -21.9898   -9.0232   20.4648 C   0  0  0  0  0  0
  -22.7231  -10.2106   20.3065 C   0  0  0  0  0  0
  -21.6843   -6.0733   22.5284 C   0  0  0  0  0  0
  -21.4000   -6.5634   23.8218 C   0  0  0  0  0  0
  -21.3652   -5.6787   24.9176 C   0  0  0  0  0  0
  -21.6037   -4.3049   24.7224 C   0  0  0  0  0  0
  -21.8829   -3.8146   23.4342 C   0  0  0  0  0  0
  -21.9186   -4.6961   22.3401 C   0  0  0  0  0  0
  -22.7771  -13.5161   21.1882 C   0  0  0  0  0  0
  -22.1663   -4.2140   21.0984 F   0  0  0  0  0  0
  -21.5626   -3.4537   25.7743 F   0  0  0  0  0  0
  -30.0023  -13.4400   20.3692 N   0  0  0  0  0  0
  -26.2916  -12.9407   20.3221 N   0  0  0  0  0  0
  -25.9332  -11.6547   20.5807 N   0  0  0  0  0  0
  -22.0422  -12.8167   22.0452 N   0  0  0  0  0  0
  -25.3694  -15.1791   20.3527 N   0  0  0  0  0  0
  -31.8757  -14.6626   20.1175 O   0  0  0  0  0  0
  -21.6620   -6.8867   21.4246 O   0  0  0  0  0  0
  -22.3460  -14.5499   20.6757 O   0  0  0  0  0  0
  -24.6260  -31.8609   23.2029 C   0  0  0  0  0  0
  -25.9106  -32.4781   23.8324 C   0  0  1  0  0  0
  -27.2480  -27.3630   20.0897 C   0  0  0  0  0  0
  -25.5947  -33.8565   24.2271 N   0  0  0  0  0  0
  -23.4201  -30.4859   21.5391 C   0  0  2  0  0  0
  -24.8696  -28.9400   20.1072 C   0  0  0  0  0  0
  -22.7461  -29.4670   22.4873 C   0  0  0  0  0  0
  -18.0271  -28.1307   22.8454 C   0  0  0  0  0  0
  -24.1493  -36.7279   23.2632 C   0  0  0  0  0  0
  -25.9607  -30.7962   21.3781 C   0  0  0  0  0  0
  -26.0359  -29.4298   20.7106 C   0  0  0  0  0  0
  -27.2245  -28.6476   20.6992 C   0  0  0  0  0  0
  -26.0571  -26.9016   19.4853 C   0  0  0  0  0  0
  -24.8785  -27.6745   19.4934 C   0  0  0  0  0  0
  -23.6409  -29.8216   20.1553 C   0  0  0  0  0  0
  -25.4116  -36.3050   24.0324 C   0  0  1  0  0  0
  -20.5880  -28.3712   23.1126 C   0  0  2  0  0  0
  -20.6800  -26.9471   22.5179 C   0  0  0  0  0  0
  -19.5666  -26.6293   21.5166 C   0  0  0  0  0  0
  -18.1915  -26.7784   22.1733 C   0  0  0  0  0  0
  -19.1524  -28.8835   23.2784 C   0  0  0  0  0  0
  -18.9395  -30.1420   23.8829 C   0  0  0  0  0  0
  -17.6366  -30.6473   24.0549 C   0  0  0  0  0  0
  -25.9062  -34.9433   23.5086 C   0  0  0  0  0  0
  -16.5281  -29.8941   23.6303 C   0  0  0  0  0  0
  -16.7226  -28.6374   23.0313 C   0  0  0  0  0  0
  -26.4525  -31.6569   25.0689 C   0  0  0  0  0  0
  -25.3755  -31.3717   26.1420 C   0  0  0  0  0  0
  -27.0422  -30.2983   24.6195 C   0  0  0  0  0  0
  -27.6083  -32.4337   25.7483 C   0  0  0  0  0  0
  -27.5578  -37.1800   24.8463 C   0  0  0  0  0  0
  -21.4174  -29.3115   22.3589 N   0  0  0  0  0  0
  -26.4275  -37.3767   23.9426 N   0  0  0  0  0  0
  -24.6842  -31.0628   22.0966 N   0  0  0  0  0  0
  -23.4161  -28.8204   23.2966 O   0  0  0  0  0  0
  -28.3563  -26.5224   20.1761 O   0  0  0  0  0  0
  -26.5627  -34.8927   22.4650 O   0  0  0  0  0  0
  -23.5429  -32.1380   23.7394 O   0  0  0  0  0  0
  -27.5077  -19.3215   21.8694 C   0  0  0  0  0  0
  -27.8470  -20.6022   21.4070 C   0  0  0  0  0  0
  -29.6591  -19.6018   20.1369 C   0  0  0  0  0  0
  -29.3522  -18.2738   20.6147 C   0  0  0  0  0  0
  -28.2109  -18.1632   21.4683 C   0  0  0  0  0  0
  -28.9195  -20.7800   20.5088 C   0  0  0  0  0  0
  -28.6680  -25.6674   19.1265 C   0  0  0  0  0  0
  -30.3036  -17.0901   20.3077 C   0  0  0  0  0  0
  -28.8658  -24.3055   19.0996 C   0  0  0  0  0  0
  -28.7169  -23.3415   20.2201 C   0  0  0  0  0  0
  -27.6798  -16.8527   22.0182 C   0  0  0  0  0  0
  -29.2162  -22.0900   19.9409 N   0  0  0  0  0  0
  -29.9191  -15.7800   20.4775 N   0  0  0  0  0  0
  -31.4264  -17.3959   19.8871 O   0  0  0  0  0  0
  -28.2066  -23.6249   21.3060 O   0  0  0  0  0  0
  -29.1837  -23.7929   17.9024 O   0  0  0  0  0  0
  -31.4568  -12.4062   19.1669 H   0  0  0  0  0  0
  -30.2638  -11.3927   19.9265 H   0  0  0  0  0  0
  -29.7507  -11.7166   17.4738 H   0  0  0  0  0  0
  -29.6367  -13.4427   17.7117 H   0  0  0  0  0  0
  -27.8558  -11.2824   18.8824 H   0  0  0  0  0  0
  -27.3612  -12.5364   17.7778 H   0  0  0  0  0  0
  -27.6311  -14.2495   19.4483 H   0  0  0  0  0  0
  -28.7098  -12.1407   21.3943 H   0  0  0  0  0  0
  -28.4670  -13.8242   21.7808 H   0  0  0  0  0  0
  -25.2747   -9.5658   22.4778 H   0  0  0  0  0  0
  -23.9974   -7.4616   22.7476 H   0  0  0  0  0  0
  -21.0836   -8.8757   19.8965 H   0  0  0  0  0  0
  -22.3687  -10.9647   19.6179 H   0  0  0  0  0  0
  -21.1988   -7.6138   23.9714 H   0  0  0  0  0  0
  -21.1464   -6.0512   25.9071 H   0  0  0  0  0  0
  -22.0610   -2.7608   23.2853 H   0  0  0  0  0  0
  -22.4034  -11.9830   22.4877 H   0  0  0  0  0  0
  -21.1047  -13.1212   22.2640 H   0  0  0  0  0  0
  -24.5616  -15.7840   20.4302 H   0  0  0  0  0  0
  -26.1537  -15.6323   19.9060 H   0  0  0  0  0  0
  -26.7192  -32.5469   23.1091 H   0  0  0  0  0  0
  -25.0132  -33.9714   25.0436 H   0  0  0  0  0  0
  -22.7143  -31.3077   21.3953 H   0  0  0  0  0  0
  -23.3752  -35.9615   23.3297 H   0  0  0  0  0  0
  -24.3575  -36.8909   22.2047 H   0  0  0  0  0  0
  -23.7277  -37.6485   23.6670 H   0  0  0  0  0  0
  -26.1035  -31.5684   20.6216 H   0  0  0  0  0  0
  -26.8305  -30.8288   22.0221 H   0  0  0  0  0  0
  -28.1179  -29.0114   21.1832 H   0  0  0  0  0  0
  -26.0269  -25.9214   19.0338 H   0  0  0  0  0  0
  -23.9788  -27.2876   19.0333 H   0  0  0  0  0  0
  -23.7833  -30.6022   19.4061 H   0  0  0  0  0  0
  -22.7592  -29.2692   19.8322 H   0  0  0  0  0  0
  -25.1303  -36.1876   25.0818 H   0  0  0  0  0  0
  -20.9999  -28.3213   24.1255 H   0  0  0  0  0  0
  -20.6045  -26.2358   23.3389 H   0  0  0  0  0  0
  -21.6608  -26.7645   22.0742 H   0  0  0  0  0  0
  -19.6914  -25.6206   21.1240 H   0  0  0  0  0  0
  -19.6436  -27.3021   20.6573 H   0  0  0  0  0  0
  -17.4064  -26.6271   21.4303 H   0  0  0  0  0  0
  -18.0507  -26.0060   22.9322 H   0  0  0  0  0  0
  -19.7821  -30.7289   24.2182 H   0  0  0  0  0  0
  -17.4853  -31.6134   24.5188 H   0  0  0  0  0  0
  -15.5244  -30.2768   23.7655 H   0  0  0  0  0  0
  -15.8630  -28.0646   22.7060 H   0  0  0  0  0  0
  -24.5887  -30.7143   25.7709 H   0  0  0  0  0  0
  -24.9014  -32.2910   26.4867 H   0  0  0  0  0  0
  -25.8046  -30.8829   27.0165 H   0  0  0  0  0  0
  -26.3015  -29.6692   24.1263 H   0  0  0  0  0  0
  -27.4145  -29.7300   25.4719 H   0  0  0  0  0  0
  -27.8857  -30.4261   23.9418 H   0  0  0  0  0  0
  -27.2631  -33.3591   26.2106 H   0  0  0  0  0  0
  -28.3855  -32.6987   25.0300 H   0  0  0  0  0  0
  -28.0799  -31.8452   26.5364 H   0  0  0  0  0  0
  -28.2579  -38.0111   24.7507 H   0  0  0  0  0  0
  -28.1093  -36.2644   24.6280 H   0  0  0  0  0  0
  -27.2299  -37.1432   25.8863 H   0  0  0  0  0  0
  -20.9350  -29.8786   21.6751 H   0  0  0  0  0  0
  -26.0143  -38.2824   24.1462 H   0  0  0  0  0  0
  -26.6717  -19.2312   22.5491 H   0  0  0  0  0  0
  -27.2378  -21.4300   21.7363 H   0  0  0  0  0  0
  -30.5021  -19.7104   19.4642 H   0  0  0  0  0  0
  -28.7821  -26.2408   18.2141 H   0  0  0  0  0  0
  -27.5924  -16.1058   21.2387 H   0  0  0  0  0  0
  -26.6697  -16.9688   22.4090 H   0  0  0  0  0  0
  -28.3209  -16.4805   22.8173 H   0  0  0  0  0  0
  -29.8910  -22.0765   19.1893 H   0  0  0  0  0  0
  -28.9497  -15.6434   20.7061 H   0  0  0  0  0  0
  -29.0722  -22.8523   17.9614 H   0  0  0  0  0  0
  1 25  1  0  0  0
  1 30  2  0  0  0
  1 83  1  0  0  0
  2  3  1  0  0  0
  2 25  1  0  0  0
  2 87  1  0  0  0
  2 88  1  0  0  0
  3  4  1  0  0  0
  3 89  1  0  0  0
  3 90  1  0  0  0
  4  5  1  0  0  0
  4 91  1  0  0  0
  4 92  1  0  0  0
  5  6  1  0  0  0
  5 26  1  0  0  0
  5 93  1  0  0  0
  6 25  1  0  0  0
  6 94  1  0  0  0
  6 95  1  0  0  0
  7  8  2  0  0  0
  7 26  1  0  0  0
  7 29  1  0  0  0
  8  9  1  0  0  0
  8 22  1  0  0  0
  9 10  1  0  0  0
  9 27  2  0  0  0
 10 11  2  0  0  0
 10 15  1  0  0  0
 11 12  1  0  0  0
 11 96  1  0  0  0
 12 13  2  0  0  0
 12 97  1  0  0  0
 13 14  1  0  0  0
 13 31  1  0  0  0
 14 15  2  0  0  0
 14 98  1  0  0  0
 15 99  1  0  0  0
 16 17  2  0  0  0
 16 21  1  0  0  0
 16 31  1  0  0  0
 17 18  1  0  0  0
 17100  1  0  0  0
 18 19  2  0  0  0
 18101  1  0  0  0
 19 20  1  0  0  0
 19 24  1  0  0  0
 20 21  2  0  0  0
 20102  1  0  0  0
 21 23  1  0  0  0
 22 28  1  0  0  0
 22 32  2  0  0  0
 26 27  1  0  0  0
 28103  1  0  0  0
 28104  1  0  0  0
 29105  1  0  0  0
 29106  1  0  0  0
 33 34  1  0  0  0
 33 66  1  0  0  0
 33 70  2  0  0  0
 34 36  1  0  0  0
 34 59  1  0  0  0
 34107  1  0  0  0
 35 44  2  0  0  0
 35 45  1  0  0  0
 35 68  1  0  0  0
 36 56  1  0  0  0
 36108  1  0  0  0
 37 39  1  0  0  0
 37 47  1  0  0  0
 37 66  1  0  0  0
 37109  1  0  0  0
 38 43  2  0  0  0
 38 46  1  0  0  0
 38 47  1  0  0  0
 39 64  1  0  0  0
 39 67  2  0  0  0
 40 52  1  0  0  0
 40 53  2  0  0  0
 40 58  1  0  0  0
 41110  1  0  0  0
 41111  1  0  0  0
 41112  1  0  0  0
 41 48  1  0  0  0
 42 43  1  0  0  0
 42 66  1  0  0  0
 42113  1  0  0  0
 42114  1  0  0  0
 43 44  1  0  0  0
 44115  1  0  0  0
 45 46  2  0  0  0
 45116  1  0  0  0
 46117  1  0  0  0
 47118  1  0  0  0
 47119  1  0  0  0
 48 56  1  0  0  0
 48 65  1  0  0  0
 48120  1  0  0  0
 49 50  1  0  0  0
 49 53  1  0  0  0
 49 64  1  0  0  0
 49121  1  0  0  0
 50 51  1  0  0  0
 50122  1  0  0  0
 50123  1  0  0  0
 51 52  1  0  0  0
 51124  1  0  0  0
 51125  1  0  0  0
 52126  1  0  0  0
 52127  1  0  0  0
 53 54  1  0  0  0
 54 55  2  0  0  0
 54128  1  0  0  0
 55 57  1  0  0  0
 55129  1  0  0  0
 56 69  2  0  0  0
 57 58  2  0  0  0
 57130  1  0  0  0
 58131  1  0  0  0
 59 60  1  0  0  0
 59 61  1  0  0  0
 59 62  1  0  0  0
 60132  1  0  0  0
 60133  1  0  0  0
 60134  1  0  0  0
 61135  1  0  0  0
 61136  1  0  0  0
 61137  1  0  0  0
 62138  1  0  0  0
 62139  1  0  0  0
 62140  1  0  0  0
 63 65  1  0  0  0
 63141  1  0  0  0
 63142  1  0  0  0
 63143  1  0  0  0
 64144  1  0  0  0
 65145  1  0  0  0
 68 77  1  0  0  0
 71 72  2  0  0  0
 71 75  1  0  0  0
 71146  1  0  0  0
 72 76  1  0  0  0
 72147  1  0  0  0
 73 74  1  0  0  0
 73 76  2  0  0  0
 73148  1  0  0  0
 74 75  2  0  0  0
 74 78  1  0  0  0
 75 81  1  0  0  0
 76 82  1  0  0  0
 77 79  2  0  0  0
 77149  1  0  0  0
 78 83  1  0  0  0
 78 84  2  0  0  0
 79 80  1  0  0  0
 79 86  1  0  0  0
 80 82  1  0  0  0
 80 85  2  0  0  0
 81150  1  0  0  0
 81151  1  0  0  0
 81152  1  0  0  0
 82153  1  0  0  0
 83154  1  0  0  0
 86155  1  0  0  0
M  ISO  4   1 100  68 101  77 101  83 100
M  END
> <chiral flag>
0

> <version>
0

> <s_m_source_file>
/data/baiqing/PycharmProjects/Reinvent-master-3.2/result/LINK_invent/BTK/process_docking_weight1_custom_product_contain_oxygen_bond_distance_aromatic_linkinvent_7_9_3/rearranged_h_0110.sdf

> <i_m_source_file_index>
51

> <r_mmod_Potential_Energy-OPLS-2005>
-11.5171060562134

> <r_mmod_Stretch_Energy-OPLS-2005>
71.96630859375

> <r_mmod_Bend_Energy-OPLS-2005>
148.294967651367

> <r_mmod_Torsional_Energy-OPLS-2005>
244.986389160156

> <r_mmod_Improper_Torsional_Energy-OPLS-2005>
6.50547075271606

> <r_mmod_Van_der_Waal_Energy-OPLS-2005>
165.986129760742

> <r_mmod_Electrostatic_Energy-OPLS-2005>
-444.172393798828

> <r_mmod_Solvation_Energy-OPLS-2005>
-256.548278808594

> <b_mmod_Minimization_Converged-OPLS-2005>
0

> <r_mmod_RMS_Derivative-OPLS-2005>
6.65052700042725

$$$$
52
                    3D
 Structure written by MMmdl.
163172  0  0  1  0            999 V2000
  -30.4998  -14.8966   20.4673 C   0  0  0  0  0  0
  -30.4566  -12.5578   19.4911 C   0  0  0  0  0  0
  -29.5300  -12.5642   18.2468 C   0  0  0  0  0  0
  -28.0488  -12.3565   18.6371 C   0  0  0  0  0  0
  -27.6445  -13.2221   19.8598 C   0  0  2  0  0  0
  -28.6918  -13.0991   20.9851 C   0  0  0  0  0  0
  -25.2574  -13.8118   20.5741 C   0  0  0  0  0  0
  -24.1816  -13.0397   20.9098 C   0  0  0  0  0  0
  -24.6410  -11.6867   20.8661 C   0  0  0  0  0  0
  -23.9072  -10.4274   21.0349 C   0  0  0  0  0  0
  -24.3640   -9.4215   21.9143 C   0  0  0  0  0  0
  -23.6311   -8.2261   22.0756 C   0  0  0  0  0  0
  -22.4294   -8.0285   21.3555 C   0  0  0  0  0  0
  -21.9919   -9.0235   20.4649 C   0  0  0  0  0  0
  -22.7240  -10.2110   20.3013 C   0  0  0  0  0  0
  -21.6866   -6.0742   22.5283 C   0  0  0  0  0  0
  -21.4027   -6.5650   23.8212 C   0  0  0  0  0  0
  -21.3662   -5.6804   24.9171 C   0  0  0  0  0  0
  -21.6041   -4.3059   24.7224 C   0  0  0  0  0  0
  -21.8825   -3.8159   23.4344 C   0  0  0  0  0  0
  -21.9212   -4.6975   22.3407 C   0  0  0  0  0  0
  -22.7856  -13.5184   21.1779 C   0  0  0  0  0  0
  -22.1679   -4.2168   21.0983 F   0  0  0  0  0  0
  -21.5617   -3.4539   25.7739 F   0  0  0  0  0  0
  -29.9668  -13.6000   20.4386 N   0  0  0  0  0  0
  -26.2970  -12.9305   20.3290 N   0  0  0  0  0  0
  -25.9349  -11.6452   20.5694 N   0  0  0  0  0  0
  -22.0535  -12.8178   22.0338 N   0  0  0  0  0  0
  -25.4376  -15.1855   20.4465 N   0  0  0  0  0  0
  -31.6643  -15.0455   20.0719 O   0  0  0  0  0  0
  -21.6652   -6.8891   21.4259 O   0  0  0  0  0  0
  -22.3558  -14.5520   20.6667 O   0  0  0  0  0  0
  -24.6373  -31.8515   23.1955 C   0  0  0  0  0  0
  -25.9191  -32.4706   23.8321 C   0  0  1  0  0  0
  -27.2076  -27.1956   20.1216 C   0  0  0  0  0  0
  -25.5968  -33.8515   24.2217 N   0  0  0  0  0  0
  -23.4330  -30.4762   21.5435 C   0  0  2  0  0  0
  -24.8749  -28.9167   20.1072 C   0  0  0  0  0  0
  -22.7521  -29.4583   22.4924 C   0  0  0  0  0  0
  -18.0290  -28.1376   22.8468 C   0  0  0  0  0  0
  -24.1497  -36.7242   23.2646 C   0  0  0  0  0  0
  -25.9885  -30.7409   21.3880 C   0  0  0  0  0  0
  -26.0527  -29.3621   20.7198 C   0  0  0  0  0  0
  -27.2151  -28.5163   20.7126 C   0  0  0  0  0  0
  -25.9997  -26.8380   19.4753 C   0  0  0  0  0  0
  -24.8582  -27.6663   19.4744 C   0  0  0  0  0  0
  -23.6502  -29.8137   20.1577 C   0  0  0  0  0  0
  -25.4131  -36.3026   24.0316 C   0  0  1  0  0  0
  -20.5897  -28.3691   23.1255 C   0  0  2  0  0  0
  -20.6772  -26.9408   22.5409 C   0  0  0  0  0  0
  -19.5746  -26.6369   21.5205 C   0  0  0  0  0  0
  -18.1921  -26.7920   22.1614 C   0  0  0  0  0  0
  -19.1549  -28.8853   23.2844 C   0  0  0  0  0  0
  -18.9477  -30.1456   23.8849 C   0  0  0  0  0  0
  -17.6473  -30.6570   24.0554 C   0  0  0  0  0  0
  -25.9091  -34.9404   23.5068 C   0  0  0  0  0  0
  -16.5355  -29.9060   23.6345 C   0  0  0  0  0  0
  -16.7278  -28.6487   23.0348 C   0  0  0  0  0  0
  -26.4543  -31.6556   25.0738 C   0  0  0  0  0  0
  -25.3750  -31.3722   26.1450 C   0  0  0  0  0  0
  -27.0422  -30.2952   24.6310 C   0  0  0  0  0  0
  -27.6063  -32.4351   25.7508 C   0  0  0  0  0  0
  -27.5577  -37.1771   24.8462 C   0  0  0  0  0  0
  -21.4234  -29.3019   22.3655 N   0  0  0  0  0  0
  -26.4276  -37.3747   23.9417 N   0  0  0  0  0  0
  -24.7065  -31.0422   22.0970 N   0  0  0  0  0  0
  -23.4207  -28.8129   23.3045 O   0  0  0  0  0  0
  -28.3002  -26.2751   20.2084 O   0  0  0  0  0  0
  -26.5661  -34.8889   22.4639 O   0  0  0  0  0  0
  -23.5501  -32.1404   23.7192 O   0  0  0  0  0  0
  -29.4154  -20.1627   21.4561 C   0  0  0  0  0  0
  -29.1733  -19.7593   19.1398 C   0  0  0  0  0  0
  -29.7294  -17.7624   20.6056 C   0  0  0  0  0  0
  -29.7353  -18.7670   21.6545 C   0  0  0  0  0  0
  -29.0427  -20.7179   20.2021 C   0  0  0  0  0  0
  -29.5013  -18.3462   19.3121 C   0  0  0  0  0  0
  -26.9856  -21.8984   20.0059 C   0  0  0  0  0  0
  -29.5626  -16.1939   20.9170 C   0  0  0  0  0  0
  -26.2684  -22.8266   20.9783 C   0  0  0  0  0  0
  -27.4253  -23.5092   21.7036 C   0  0  0  0  0  0
  -28.5425  -23.4655   20.6569 C   0  0  2  0  0  0
  -29.9915  -18.3672   23.0979 C   0  0  0  0  0  0
  -29.3838  -17.9839   16.9331 C   0  0  0  0  0  0
  -28.2881  -24.8159   19.7211 C   0  0  0  0  0  0
  -28.5273  -15.9859   21.6181 N   0  0  0  0  0  0
  -28.3289  -22.0497   20.0353 N   0  0  0  0  0  0
  -26.3602  -21.0937   19.3086 O   0  0  0  0  0  0
  -29.5183  -17.4641   18.2505 O   0  0  0  0  0  0
  -31.4923  -12.7270   19.1928 H   0  0  0  0  0  0
  -30.4534  -11.5727   19.9625 H   0  0  0  0  0  0
  -29.8432  -11.8004   17.5328 H   0  0  0  0  0  0
  -29.6320  -13.5207   17.7305 H   0  0  0  0  0  0
  -27.9049  -11.2979   18.8596 H   0  0  0  0  0  0
  -27.4003  -12.5768   17.7864 H   0  0  0  0  0  0
  -27.6380  -14.2529   19.5035 H   0  0  0  0  0  0
  -28.7857  -12.0557   21.2865 H   0  0  0  0  0  0
  -28.3829  -13.5896   21.9036 H   0  0  0  0  0  0
  -25.2804   -9.5696   22.4684 H   0  0  0  0  0  0
  -24.0032   -7.4666   22.7494 H   0  0  0  0  0  0
  -21.0839   -8.8724   19.8971 H   0  0  0  0  0  0
  -22.3683  -10.9623   19.6096 H   0  0  0  0  0  0
  -21.2015   -7.6159   23.9716 H   0  0  0  0  0  0
  -21.1473   -6.0533   25.9075 H   0  0  0  0  0  0
  -22.0607   -2.7627   23.2829 H   0  0  0  0  0  0
  -22.4236  -11.9833   22.4667 H   0  0  0  0  0  0
  -21.1170  -13.1182   22.2645 H   0  0  0  0  0  0
  -24.6984  -15.8291   20.6990 H   0  0  0  0  0  0
  -26.3531  -15.6231   20.4274 H   0  0  0  0  0  0
  -26.7236  -32.5299   23.1037 H   0  0  0  0  0  0
  -25.0136  -33.9650   25.0368 H   0  0  0  0  0  0
  -22.7333  -31.3007   21.3998 H   0  0  0  0  0  0
  -23.3761  -35.9561   23.3273 H   0  0  0  0  0  0
  -24.3589  -36.8915   22.2066 H   0  0  0  0  0  0
  -23.7230  -37.6423   23.6708 H   0  0  0  0  0  0
  -26.1492  -31.5057   20.6269 H   0  0  0  0  0  0
  -26.8560  -30.7732   22.0362 H   0  0  0  0  0  0
  -28.1139  -28.8552   21.2080 H   0  0  0  0  0  0
  -25.8711  -25.8954   18.9738 H   0  0  0  0  0  0
  -23.9560  -27.3241   18.9855 H   0  0  0  0  0  0
  -23.7737  -30.5964   19.4082 H   0  0  0  0  0  0
  -22.7636  -29.2552   19.8527 H   0  0  0  0  0  0
  -25.1306  -36.1860   25.0800 H   0  0  0  0  0  0
  -20.9964  -28.3249   24.1380 H   0  0  0  0  0  0
  -20.5664  -26.2296   23.3620 H   0  0  0  0  0  0
  -21.6646  -26.7417   22.1212 H   0  0  0  0  0  0
  -19.6929  -25.6279   21.1229 H   0  0  0  0  0  0
  -19.6679  -27.3181   20.6737 H   0  0  0  0  0  0
  -17.4209  -26.6661   21.3999 H   0  0  0  0  0  0
  -18.0310  -26.0060   22.9012 H   0  0  0  0  0  0
  -19.7962  -30.7288   24.2176 H   0  0  0  0  0  0
  -17.5030  -31.6248   24.5168 H   0  0  0  0  0  0
  -15.5357  -30.2940   23.7709 H   0  0  0  0  0  0
  -15.8683  -28.0798   22.7074 H   0  0  0  0  0  0
  -24.5931  -30.7060   25.7786 H   0  0  0  0  0  0
  -24.8938  -32.2890   26.4873 H   0  0  0  0  0  0
  -25.8071  -30.8922   27.0239 H   0  0  0  0  0  0
  -26.3055  -29.6658   24.1315 H   0  0  0  0  0  0
  -27.4033  -29.7268   25.4888 H   0  0  0  0  0  0
  -27.8946  -30.4187   23.9628 H   0  0  0  0  0  0
  -27.2652  -33.3676   26.2012 H   0  0  0  0  0  0
  -28.3901  -32.6886   25.0356 H   0  0  0  0  0  0
  -28.0710  -31.8546   26.5495 H   0  0  0  0  0  0
  -28.2562  -38.0107   24.7552 H   0  0  0  0  0  0
  -28.1107  -36.2635   24.6229 H   0  0  0  0  0  0
  -27.2292  -37.1335   25.8864 H   0  0  0  0  0  0
  -20.9440  -29.8749   21.6855 H   0  0  0  0  0  0
  -26.0135  -38.2799   24.1462 H   0  0  0  0  0  0
  -29.3460  -20.7988   22.3283 H   0  0  0  0  0  0
  -28.9080  -20.1269   18.1612 H   0  0  0  0  0  0
  -25.6287  -22.2662   21.6616 H   0  0  0  0  0  0
  -25.6560  -23.5407   20.4290 H   0  0  0  0  0  0
  -27.7060  -22.9404   22.5908 H   0  0  0  0  0  0
  -27.1717  -24.5220   22.0228 H   0  0  0  0  0  0
  -29.5199  -23.5166   21.1363 H   0  0  0  0  0  0
  -30.4788  -19.1749   23.6452 H   0  0  0  0  0  0
  -30.6376  -17.4935   23.1680 H   0  0  0  0  0  0
  -29.0450  -18.1509   23.5923 H   0  0  0  0  0  0
  -29.5267  -17.1825   16.2099 H   0  0  0  0  0  0
  -30.1324  -18.7488   16.7281 H   0  0  0  0  0  0
  -28.3865  -18.3975   16.7713 H   0  0  0  0  0  0
  -27.3867  -24.6161   19.1537 H   0  0  0  0  0  0
  -29.0543  -24.7881   18.9475 H   0  0  0  0  0  0
  -28.4147  -15.0008   21.8149 H   0  0  0  0  0  0
  1 25  1  0  0  0
  1 30  2  0  0  0
  1 78  1  0  0  0
  2  3  1  0  0  0
  2 25  1  0  0  0
  2 89  1  0  0  0
  2 90  1  0  0  0
  3  4  1  0  0  0
  3 91  1  0  0  0
  3 92  1  0  0  0
  4  5  1  0  0  0
  4 93  1  0  0  0
  4 94  1  0  0  0
  5  6  1  0  0  0
  5 26  1  0  0  0
  5 95  1  0  0  0
  6 25  1  0  0  0
  6 96  1  0  0  0
  6 97  1  0  0  0
  7  8  2  0  0  0
  7 26  1  0  0  0
  7 29  1  0  0  0
  8  9  1  0  0  0
  8 22  1  0  0  0
  9 10  1  0  0  0
  9 27  2  0  0  0
 10 11  2  0  0  0
 10 15  1  0  0  0
 11 12  1  0  0  0
 11 98  1  0  0  0
 12 13  2  0  0  0
 12 99  1  0  0  0
 13 14  1  0  0  0
 13 31  1  0  0  0
 14 15  2  0  0  0
 14100  1  0  0  0
 15101  1  0  0  0
 16 17  2  0  0  0
 16 21  1  0  0  0
 16 31  1  0  0  0
 17 18  1  0  0  0
 17102  1  0  0  0
 18 19  2  0  0  0
 18103  1  0  0  0
 19 20  1  0  0  0
 19 24  1  0  0  0
 20 21  2  0  0  0
 20104  1  0  0  0
 21 23  1  0  0  0
 22 28  1  0  0  0
 22 32  2  0  0  0
 26 27  1  0  0  0
 28105  1  0  0  0
 28106  1  0  0  0
 29107  1  0  0  0
 29108  1  0  0  0
 33 34  1  0  0  0
 33 66  1  0  0  0
 33 70  2  0  0  0
 34 36  1  0  0  0
 34 59  1  0  0  0
 34109  1  0  0  0
 35 44  2  0  0  0
 35 45  1  0  0  0
 35 68  1  0  0  0
 36 56  1  0  0  0
 36110  1  0  0  0
 37 39  1  0  0  0
 37 47  1  0  0  0
 37 66  1  0  0  0
 37111  1  0  0  0
 38 43  2  0  0  0
 38 46  1  0  0  0
 38 47  1  0  0  0
 39 64  1  0  0  0
 39 67  2  0  0  0
 40 52  1  0  0  0
 40 53  2  0  0  0
 40 58  1  0  0  0
 41112  1  0  0  0
 41113  1  0  0  0
 41114  1  0  0  0
 41 48  1  0  0  0
 42 43  1  0  0  0
 42 66  1  0  0  0
 42115  1  0  0  0
 42116  1  0  0  0
 43 44  1  0  0  0
 44117  1  0  0  0
 45 46  2  0  0  0
 45118  1  0  0  0
 46119  1  0  0  0
 47120  1  0  0  0
 47121  1  0  0  0
 48 56  1  0  0  0
 48 65  1  0  0  0
 48122  1  0  0  0
 49 50  1  0  0  0
 49 53  1  0  0  0
 49 64  1  0  0  0
 49123  1  0  0  0
 50 51  1  0  0  0
 50124  1  0  0  0
 50125  1  0  0  0
 51 52  1  0  0  0
 51126  1  0  0  0
 51127  1  0  0  0
 52128  1  0  0  0
 52129  1  0  0  0
 53 54  1  0  0  0
 54 55  2  0  0  0
 54130  1  0  0  0
 55 57  1  0  0  0
 55131  1  0  0  0
 56 69  2  0  0  0
 57 58  2  0  0  0
 57132  1  0  0  0
 58133  1  0  0  0
 59 60  1  0  0  0
 59 61  1  0  0  0
 59 62  1  0  0  0
 60134  1  0  0  0
 60135  1  0  0  0
 60136  1  0  0  0
 61137  1  0  0  0
 61138  1  0  0  0
 61139  1  0  0  0
 62140  1  0  0  0
 62141  1  0  0  0
 62142  1  0  0  0
 63 65  1  0  0  0
 63143  1  0  0  0
 63144  1  0  0  0
 63145  1  0  0  0
 64146  1  0  0  0
 65147  1  0  0  0
 68 84  1  0  0  0
 71 74  2  0  0  0
 71 75  1  0  0  0
 71148  1  0  0  0
 72 75  2  0  0  0
 72 76  1  0  0  0
 72149  1  0  0  0
 73 74  1  0  0  0
 73 76  2  0  0  0
 73 78  1  0  0  0
 74 82  1  0  0  0
 75 86  1  0  0  0
 76 88  1  0  0  0
 77 79  1  0  0  0
 77 86  1  0  0  0
 77 87  2  0  0  0
 78 85  2  0  0  0
 79 80  1  0  0  0
 79150  1  0  0  0
 79151  1  0  0  0
 80 81  1  0  0  0
 80152  1  0  0  0
 80153  1  0  0  0
 81 84  1  0  0  0
 81 86  1  0  0  0
 81154  1  0  0  0
 82155  1  0  0  0
 82156  1  0  0  0
 82157  1  0  0  0
 83 88  1  0  0  0
 83158  1  0  0  0
 83159  1  0  0  0
 83160  1  0  0  0
 84161  1  0  0  0
 84162  1  0  0  0
 85163  1  0  0  0
M  ISO  4   1 100  68 101  78 100  84 101
M  END
> <chiral flag>
0

> <version>
0

> <s_m_source_file>
/data/baiqing/PycharmProjects/Reinvent-master-3.2/result/LINK_invent/BTK/process_docking_weight1_custom_product_contain_oxygen_bond_distance_aromatic_linkinvent_7_9_3/rearranged_h_0110.sdf

> <i_m_source_file_index>
52

> <r_mmod_Potential_Energy-OPLS-2005>
742.8779296875

> <r_mmod_Stretch_Energy-OPLS-2005>
223.020080566406

> <r_mmod_Bend_Energy-OPLS-2005>
304.741149902344

> <r_mmod_Torsional_Energy-OPLS-2005>
314.550964355469

> <r_mmod_Improper_Torsional_Energy-OPLS-2005>
11.4637126922607

> <r_mmod_Van_der_Waal_Energy-OPLS-2005>
150.681457519531

> <r_mmod_Electrostatic_Energy-OPLS-2005>
-194.111892700195

> <r_mmod_Solvation_Energy-OPLS-2005>
-211.206192016602

> <b_mmod_Minimization_Converged-OPLS-2005>
0

> <r_mmod_RMS_Derivative-OPLS-2005>
3.88971877098083

$$$$
53
                    3D
 Structure written by MMmdl.
163172  0  0  1  0            999 V2000
  -30.5978  -14.6622   20.4756 C   0  0  0  0  0  0
  -30.4389  -12.4024   19.4485 C   0  0  0  0  0  0
  -29.5075  -12.5178   18.2200 C   0  0  0  0  0  0
  -28.0264  -12.3612   18.6243 C   0  0  0  0  0  0
  -27.6506  -13.2187   19.8627 C   0  0  2  0  0  0
  -28.6967  -13.0689   20.9910 C   0  0  0  0  0  0
  -25.2546  -13.8186   20.5699 C   0  0  0  0  0  0
  -24.1815  -13.0444   20.9194 C   0  0  0  0  0  0
  -24.6378  -11.6908   20.8721 C   0  0  0  0  0  0
  -23.9048  -10.4284   21.0394 C   0  0  0  0  0  0
  -24.3595   -9.4204   21.9171 C   0  0  0  0  0  0
  -23.6270   -8.2244   22.0752 C   0  0  0  0  0  0
  -22.4249   -8.0273   21.3547 C   0  0  0  0  0  0
  -21.9887   -9.0251   20.4655 C   0  0  0  0  0  0
  -22.7216  -10.2126   20.3056 C   0  0  0  0  0  0
  -21.6858   -6.0722   22.5267 C   0  0  0  0  0  0
  -21.4019   -6.5631   23.8202 C   0  0  0  0  0  0
  -21.3663   -5.6782   24.9162 C   0  0  0  0  0  0
  -21.6043   -4.3042   24.7217 C   0  0  0  0  0  0
  -21.8819   -3.8139   23.4335 C   0  0  0  0  0  0
  -21.9193   -4.6955   22.3392 C   0  0  0  0  0  0
  -22.7836  -13.5236   21.1852 C   0  0  0  0  0  0
  -22.1659   -4.2143   21.0967 F   0  0  0  0  0  0
  -21.5633   -3.4521   25.7728 F   0  0  0  0  0  0
  -30.0108  -13.4221   20.4281 N   0  0  0  0  0  0
  -26.2966  -12.9363   20.3303 N   0  0  0  0  0  0
  -25.9304  -11.6515   20.5727 N   0  0  0  0  0  0
  -22.0472  -12.8252   22.0420 N   0  0  0  0  0  0
  -25.4271  -15.1906   20.4128 N   0  0  0  0  0  0
  -31.7561  -14.8364   20.0858 O   0  0  0  0  0  0
  -21.6631   -6.8859   21.4228 O   0  0  0  0  0  0
  -22.3526  -14.5531   20.6677 O   0  0  0  0  0  0
  -24.6269  -31.8582   23.2022 C   0  0  0  0  0  0
  -25.9111  -32.4767   23.8350 C   0  0  1  0  0  0
  -27.2233  -27.3252   20.1044 C   0  0  0  0  0  0
  -25.5922  -33.8570   24.2277 N   0  0  0  0  0  0
  -23.4215  -30.4823   21.5451 C   0  0  2  0  0  0
  -24.8662  -28.9373   20.1099 C   0  0  0  0  0  0
  -22.7482  -29.4610   22.4931 C   0  0  0  0  0  0
  -18.0314  -28.1381   22.8468 C   0  0  0  0  0  0
  -24.1486  -36.7285   23.2641 C   0  0  0  0  0  0
  -25.9625  -30.7924   21.3701 C   0  0  0  0  0  0
  -26.0367  -29.4198   20.7115 C   0  0  0  0  0  0
  -27.2223  -28.6264   20.6936 C   0  0  0  0  0  0
  -26.0310  -26.8907   19.4902 C   0  0  0  0  0  0
  -24.8644  -27.6792   19.4888 C   0  0  0  0  0  0
  -23.6357  -29.8187   20.1598 C   0  0  0  0  0  0
  -25.4117  -36.3080   24.0334 C   0  0  1  0  0  0
  -20.5910  -28.3678   23.1290 C   0  0  2  0  0  0
  -20.6794  -26.9393   22.5438 C   0  0  0  0  0  0
  -19.5803  -26.6357   21.5223 C   0  0  0  0  0  0
  -18.1972  -26.7930   22.1592 C   0  0  0  0  0  0
  -19.1555  -28.8843   23.2883 C   0  0  0  0  0  0
  -18.9473  -30.1434   23.8911 C   0  0  0  0  0  0
  -17.6478  -30.6577   24.0556 C   0  0  0  0  0  0
  -25.9050  -34.9442   23.5100 C   0  0  0  0  0  0
  -16.5376  -29.9068   23.6328 C   0  0  0  0  0  0
  -16.7299  -28.6494   23.0344 C   0  0  0  0  0  0
  -26.4495  -31.6586   25.0721 C   0  0  0  0  0  0
  -25.3722  -31.3729   26.1445 C   0  0  0  0  0  0
  -27.0337  -30.3008   24.6177 C   0  0  0  0  0  0
  -27.6064  -32.4318   25.7494 C   0  0  0  0  0  0
  -27.5575  -37.1809   24.8463 C   0  0  0  0  0  0
  -21.4191  -29.3053   22.3694 N   0  0  0  0  0  0
  -26.4284  -37.3783   23.9412 N   0  0  0  0  0  0
  -24.6898  -31.0601   22.0981 N   0  0  0  0  0  0
  -23.4208  -28.8117   23.2979 O   0  0  0  0  0  0
  -28.3380  -26.4757   20.0876 O   0  0  0  0  0  0
  -26.5617  -34.8913   22.4663 O   0  0  0  0  0  0
  -23.5422  -32.1388   23.7339 O   0  0  0  0  0  0
  -30.4485  -19.2076   19.3867 C   0  0  0  0  0  0
  -30.6070  -17.8151   19.6610 C   0  0  0  0  0  0
  -28.7756  -17.9528   21.2024 C   0  0  0  0  0  0
  -29.4491  -20.0276   19.9969 C   0  0  0  0  0  0
  -29.7617  -17.1394   20.5757 C   0  0  0  0  0  0
  -28.6056  -19.3558   20.9316 C   0  0  0  0  0  0
  -28.5290  -23.8081   19.8112 C   0  0  0  0  0  0
  -28.9892  -22.6078   20.3415 C   0  0  0  0  0  0
  -28.2310  -23.8381   18.3569 C   0  0  0  0  0  0
  -28.1508  -22.4975   17.6265 C   0  0  0  0  0  0
  -29.2245  -21.5154   18.1206 C   0  0  0  0  0  0
  -29.3240  -22.5127   21.8239 C   0  0  0  0  0  0
  -26.9294  -19.5742   22.6442 C   0  0  0  0  0  0
  -28.1533  -25.1090   20.6378 C   0  0  0  0  0  0
  -29.2526  -21.4095   19.5845 N   0  0  0  0  0  0
  -29.7742  -15.6949   20.8499 N   0  0  0  0  0  0
  -28.0222  -24.8671   17.7080 O   0  0  0  0  0  0
  -27.5954  -20.1009   21.5057 O   0  0  0  0  0  0
  -31.4809  -12.5290   19.1475 H   0  0  0  0  0  0
  -30.3762  -11.4050   19.8857 H   0  0  0  0  0  0
  -29.7677  -11.7646   17.4751 H   0  0  0  0  0  0
  -29.6563  -13.4862   17.7361 H   0  0  0  0  0  0
  -27.8494  -11.3052   18.8349 H   0  0  0  0  0  0
  -27.3761  -12.6139   17.7851 H   0  0  0  0  0  0
  -27.6682  -14.2559   19.5297 H   0  0  0  0  0  0
  -28.7120  -12.0445   21.3663 H   0  0  0  0  0  0
  -28.4374  -13.6916   21.8489 H   0  0  0  0  0  0
  -25.2741   -9.5681   22.4741 H   0  0  0  0  0  0
  -23.9978   -7.4640   22.7477 H   0  0  0  0  0  0
  -21.0824   -8.8771   19.8966 H   0  0  0  0  0  0
  -22.3673  -10.9662   19.6169 H   0  0  0  0  0  0
  -21.2013   -7.6139   23.9703 H   0  0  0  0  0  0
  -21.1492   -6.0508   25.9066 H   0  0  0  0  0  0
  -22.0598   -2.7604   23.2832 H   0  0  0  0  0  0
  -22.4077  -11.9921   22.4827 H   0  0  0  0  0  0
  -21.1101  -13.1324   22.2620 H   0  0  0  0  0  0
  -24.6547  -15.8403   20.5038 H   0  0  0  0  0  0
  -26.2635  -15.6237   20.0447 H   0  0  0  0  0  0
  -26.7182  -32.5456   23.1107 H   0  0  0  0  0  0
  -25.0090  -33.9732   25.0441 H   0  0  0  0  0  0
  -22.7147  -31.3013   21.4008 H   0  0  0  0  0  0
  -23.3740  -35.9620   23.3309 H   0  0  0  0  0  0
  -24.3573  -36.8891   22.2045 H   0  0  0  0  0  0
  -23.7226  -37.6491   23.6652 H   0  0  0  0  0  0
  -26.0921  -31.5599   20.6057 H   0  0  0  0  0  0
  -26.8435  -30.8396   21.9988 H   0  0  0  0  0  0
  -28.1263  -28.9975   21.1567 H   0  0  0  0  0  0
  -25.9946  -25.9265   19.0051 H   0  0  0  0  0  0
  -23.9700  -27.3110   19.0054 H   0  0  0  0  0  0
  -23.7538  -30.5948   19.4018 H   0  0  0  0  0  0
  -22.7569  -29.2463   19.8588 H   0  0  0  0  0  0
  -25.1288  -36.1939   25.0822 H   0  0  0  0  0  0
  -21.0029  -28.3222   24.1401 H   0  0  0  0  0  0
  -20.5666  -26.2280   23.3643 H   0  0  0  0  0  0
  -21.6663  -26.7414   22.1244 H   0  0  0  0  0  0
  -19.6810  -27.3129   20.6728 H   0  0  0  0  0  0
  -19.6947  -25.6251   21.1285 H   0  0  0  0  0  0
  -17.4276  -26.6725   21.3943 H   0  0  0  0  0  0
  -18.0325  -26.0037   22.8932 H   0  0  0  0  0  0
  -19.7939  -30.7244   24.2293 H   0  0  0  0  0  0
  -17.5047  -31.6255   24.5159 H   0  0  0  0  0  0
  -15.5376  -30.2968   23.7655 H   0  0  0  0  0  0
  -15.8711  -28.0800   22.7062 H   0  0  0  0  0  0
  -24.5919  -30.7045   25.7770 H   0  0  0  0  0  0
  -24.8885  -32.2895   26.4837 H   0  0  0  0  0  0
  -25.8046  -30.8937   27.0237 H   0  0  0  0  0  0
  -26.2922  -29.6766   24.1173 H   0  0  0  0  0  0
  -27.3994  -29.7248   25.4684 H   0  0  0  0  0  0
  -27.8801  -30.4278   23.9423 H   0  0  0  0  0  0
  -27.2694  -33.3631   26.2065 H   0  0  0  0  0  0
  -28.3894  -32.6867   25.0329 H   0  0  0  0  0  0
  -28.0715  -31.8435   26.5417 H   0  0  0  0  0  0
  -28.2606  -38.0095   24.7503 H   0  0  0  0  0  0
  -28.1060  -36.2624   24.6306 H   0  0  0  0  0  0
  -27.2286  -37.1477   25.8864 H   0  0  0  0  0  0
  -20.9363  -29.8847   21.6962 H   0  0  0  0  0  0
  -26.0159  -38.2856   24.1411 H   0  0  0  0  0  0
  -31.1179  -19.6485   18.6622 H   0  0  0  0  0  0
  -31.3713  -17.2673   19.1274 H   0  0  0  0  0  0
  -28.1078  -17.4608   21.8919 H   0  0  0  0  0  0
  -28.2533  -22.6556   16.5520 H   0  0  0  0  0  0
  -27.1578  -22.0791   17.7936 H   0  0  0  0  0  0
  -30.2057  -21.8409   17.7732 H   0  0  0  0  0  0
  -29.0321  -20.5493   17.6495 H   0  0  0  0  0  0
  -28.4146  -22.5898   22.4204 H   0  0  0  0  0  0
  -29.9954  -23.3216   22.1134 H   0  0  0  0  0  0
  -29.8279  -21.5857   22.0920 H   0  0  0  0  0  0
  -26.2860  -20.3432   23.0686 H   0  0  0  0  0  0
  -27.6353  -19.2766   23.4221 H   0  0  0  0  0  0
  -26.2997  -18.7230   22.3802 H   0  0  0  0  0  0
  -28.7176  -25.1019   21.5687 H   0  0  0  0  0  0
  -27.1194  -24.9704   20.9530 H   0  0  0  0  0  0
  -28.9280  -15.3526   21.2779 H   0  0  0  0  0  0
  1 25  1  0  0  0
  1 30  2  0  0  0
  1 86  1  0  0  0
  2  3  1  0  0  0
  2 25  1  0  0  0
  2 89  1  0  0  0
  2 90  1  0  0  0
  3  4  1  0  0  0
  3 91  1  0  0  0
  3 92  1  0  0  0
  4  5  1  0  0  0
  4 93  1  0  0  0
  4 94  1  0  0  0
  5  6  1  0  0  0
  5 26  1  0  0  0
  5 95  1  0  0  0
  6 25  1  0  0  0
  6 96  1  0  0  0
  6 97  1  0  0  0
  7  8  2  0  0  0
  7 26  1  0  0  0
  7 29  1  0  0  0
  8  9  1  0  0  0
  8 22  1  0  0  0
  9 10  1  0  0  0
  9 27  2  0  0  0
 10 11  2  0  0  0
 10 15  1  0  0  0
 11 12  1  0  0  0
 11 98  1  0  0  0
 12 13  2  0  0  0
 12 99  1  0  0  0
 13 14  1  0  0  0
 13 31  1  0  0  0
 14 15  2  0  0  0
 14100  1  0  0  0
 15101  1  0  0  0
 16 17  2  0  0  0
 16 21  1  0  0  0
 16 31  1  0  0  0
 17 18  1  0  0  0
 17102  1  0  0  0
 18 19  2  0  0  0
 18103  1  0  0  0
 19 20  1  0  0  0
 19 24  1  0  0  0
 20 21  2  0  0  0
 20104  1  0  0  0
 21 23  1  0  0  0
 22 28  1  0  0  0
 22 32  2  0  0  0
 26 27  1  0  0  0
 28105  1  0  0  0
 28106  1  0  0  0
 29107  1  0  0  0
 29108  1  0  0  0
 33 34  1  0  0  0
 33 66  1  0  0  0
 33 70  2  0  0  0
 34 36  1  0  0  0
 34 59  1  0  0  0
 34109  1  0  0  0
 35 44  2  0  0  0
 35 45  1  0  0  0
 35 68  1  0  0  0
 36 56  1  0  0  0
 36110  1  0  0  0
 37 39  1  0  0  0
 37 47  1  0  0  0
 37 66  1  0  0  0
 37111  1  0  0  0
 38 43  2  0  0  0
 38 46  1  0  0  0
 38 47  1  0  0  0
 39 64  1  0  0  0
 39 67  2  0  0  0
 40 52  1  0  0  0
 40 53  2  0  0  0
 40 58  1  0  0  0
 41112  1  0  0  0
 41113  1  0  0  0
 41114  1  0  0  0
 41 48  1  0  0  0
 42 43  1  0  0  0
 42 66  1  0  0  0
 42115  1  0  0  0
 42116  1  0  0  0
 43 44  1  0  0  0
 44117  1  0  0  0
 45 46  2  0  0  0
 45118  1  0  0  0
 46119  1  0  0  0
 47120  1  0  0  0
 47121  1  0  0  0
 48 56  1  0  0  0
 48 65  1  0  0  0
 48122  1  0  0  0
 49 50  1  0  0  0
 49 53  1  0  0  0
 49 64  1  0  0  0
 49123  1  0  0  0
 50 51  1  0  0  0
 50124  1  0  0  0
 50125  1  0  0  0
 51 52  1  0  0  0
 51126  1  0  0  0
 51127  1  0  0  0
 52128  1  0  0  0
 52129  1  0  0  0
 53 54  1  0  0  0
 54 55  2  0  0  0
 54130  1  0  0  0
 55 57  1  0  0  0
 55131  1  0  0  0
 56 69  2  0  0  0
 57 58  2  0  0  0
 57132  1  0  0  0
 58133  1  0  0  0
 59 60  1  0  0  0
 59 61  1  0  0  0
 59 62  1  0  0  0
 60134  1  0  0  0
 60135  1  0  0  0
 60136  1  0  0  0
 61137  1  0  0  0
 61138  1  0  0  0
 61139  1  0  0  0
 62140  1  0  0  0
 62141  1  0  0  0
 62142  1  0  0  0
 63 65  1  0  0  0
 63143  1  0  0  0
 63144  1  0  0  0
 63145  1  0  0  0
 64146  1  0  0  0
 65147  1  0  0  0
 68 84  1  0  0  0
 71 72  2  0  0  0
 71 74  1  0  0  0
 71148  1  0  0  0
 72 75  1  0  0  0
 72149  1  0  0  0
 73 75  2  0  0  0
 73 76  1  0  0  0
 73150  1  0  0  0
 74 76  2  0  0  0
 74 85  1  0  0  0
 75 86  1  0  0  0
 76 88  1  0  0  0
 77 78  2  0  0  0
 77 79  1  0  0  0
 77 84  1  0  0  0
 78 82  1  0  0  0
 78 85  1  0  0  0
 79 80  1  0  0  0
 79 87  2  0  0  0
 80 81  1  0  0  0
 80151  1  0  0  0
 80152  1  0  0  0
 81 85  1  0  0  0
 81153  1  0  0  0
 81154  1  0  0  0
 82155  1  0  0  0
 82156  1  0  0  0
 82157  1  0  0  0
 83 88  1  0  0  0
 83158  1  0  0  0
 83159  1  0  0  0
 83160  1  0  0  0
 84161  1  0  0  0
 84162  1  0  0  0
 86163  1  0  0  0
M  ISO  4   1 100  68 101  84 101  86 100
M  END
> <chiral flag>
0

> <version>
0

> <s_m_source_file>
/data/baiqing/PycharmProjects/Reinvent-master-3.2/result/LINK_invent/BTK/process_docking_weight1_custom_product_contain_oxygen_bond_distance_aromatic_linkinvent_7_9_3/rearranged_h_0110.sdf

> <i_m_source_file_index>
53

> <r_mmod_Potential_Energy-OPLS-2005>
119.226974487305

> <r_mmod_Stretch_Energy-OPLS-2005>
94.8572387695312

> <r_mmod_Bend_Energy-OPLS-2005>
149.645355224609

> <r_mmod_Torsional_Energy-OPLS-2005>
230.443298339844

> <r_mmod_Improper_Torsional_Energy-OPLS-2005>
4.69148731231689

> <r_mmod_Van_der_Waal_Energy-OPLS-2005>
163.116012573242

> <r_mmod_Electrostatic_Energy-OPLS-2005>
-344.587371826172

> <r_mmod_Solvation_Energy-OPLS-2005>
-229.496719360352

> <b_mmod_Minimization_Converged-OPLS-2005>
0

> <r_mmod_RMS_Derivative-OPLS-2005>
2.58623886108398

$$$$
54
                    3D
 Structure written by MMmdl.
159168  0  0  1  0            999 V2000
  -30.5304  -14.9308   20.3592 C   0  0  0  0  0  0
  -30.4461  -12.5619   19.4740 C   0  0  0  0  0  0
  -29.5176  -12.5260   18.2395 C   0  0  0  0  0  0
  -28.0491  -12.3233   18.6598 C   0  0  0  0  0  0
  -27.6314  -13.2468   19.8372 C   0  0  2  0  0  0
  -28.6882  -13.2491   20.9635 C   0  0  0  0  0  0
  -25.2392  -13.8090   20.5773 C   0  0  0  0  0  0
  -24.1732  -13.0305   20.9232 C   0  0  0  0  0  0
  -24.6402  -11.6828   20.8744 C   0  0  0  0  0  0
  -23.9103  -10.4205   21.0387 C   0  0  0  0  0  0
  -24.3640   -9.4136   21.9177 C   0  0  0  0  0  0
  -23.6300   -8.2185   22.0751 C   0  0  0  0  0  0
  -22.4276   -8.0237   21.3546 C   0  0  0  0  0  0
  -21.9917   -9.0207   20.4642 C   0  0  0  0  0  0
  -22.7261  -10.2074   20.3036 C   0  0  0  0  0  0
  -21.6841   -6.0735   22.5291 C   0  0  0  0  0  0
  -21.4004   -6.5630   23.8227 C   0  0  0  0  0  0
  -21.3673   -5.6770   24.9186 C   0  0  0  0  0  0
  -21.6064   -4.3037   24.7239 C   0  0  0  0  0  0
  -21.8810   -3.8147   23.4351 C   0  0  0  0  0  0
  -21.9188   -4.6967   22.3406 C   0  0  0  0  0  0
  -22.7754  -13.5094   21.1894 C   0  0  0  0  0  0
  -22.1650   -4.2157   21.0979 F   0  0  0  0  0  0
  -21.5648   -3.4510   25.7747 F   0  0  0  0  0  0
  -29.9671  -13.6555   20.3601 N   0  0  0  0  0  0
  -26.2905  -12.9402   20.3328 N   0  0  0  0  0  0
  -25.9347  -11.6526   20.5778 N   0  0  0  0  0  0
  -22.0425  -12.8099   22.0481 N   0  0  0  0  0  0
  -25.3755  -15.1805   20.4348 N   0  0  0  0  0  0
  -31.7375  -15.0356   20.1200 O   0  0  0  0  0  0
  -21.6619   -6.8859   21.4247 O   0  0  0  0  0  0
  -22.3411  -14.5395   20.6737 O   0  0  0  0  0  0
  -24.6379  -31.8477   23.1848 C   0  0  0  0  0  0
  -25.9176  -32.4703   23.8248 C   0  0  1  0  0  0
  -27.2375  -27.1854   20.1288 C   0  0  0  0  0  0
  -25.5929  -33.8508   24.2168 N   0  0  0  0  0  0
  -23.4400  -30.4627   21.5299 C   0  0  2  0  0  0
  -24.8936  -28.8910   20.1057 C   0  0  0  0  0  0
  -22.7540  -29.4561   22.4851 C   0  0  0  0  0  0
  -18.0315  -28.1381   22.8471 C   0  0  0  0  0  0
  -24.1505  -36.7243   23.2640 C   0  0  0  0  0  0
  -25.9919  -30.7311   21.3820 C   0  0  0  0  0  0
  -26.0650  -29.3470   20.7218 C   0  0  0  0  0  0
  -27.2309  -28.5030   20.7270 C   0  0  0  0  0  0
  -26.0434  -26.8142   19.4780 C   0  0  0  0  0  0
  -24.8902  -27.6323   19.4775 C   0  0  0  0  0  0
  -23.6634  -29.7821   20.1515 C   0  0  0  0  0  0
  -25.4137  -36.3027   24.0303 C   0  0  1  0  0  0
  -20.5914  -28.3713   23.1223 C   0  0  2  0  0  0
  -20.6784  -26.9412   22.5393 C   0  0  0  0  0  0
  -19.5759  -26.6365   21.5202 C   0  0  0  0  0  0
  -18.1946  -26.7917   22.1614 C   0  0  0  0  0  0
  -19.1568  -28.8871   23.2843 C   0  0  0  0  0  0
  -18.9476  -30.1458   23.8873 C   0  0  0  0  0  0
  -17.6478  -30.6580   24.0554 C   0  0  0  0  0  0
  -25.9082  -34.9407   23.5043 C   0  0  0  0  0  0
  -16.5364  -29.9060   23.6335 C   0  0  0  0  0  0
  -16.7298  -28.6485   23.0364 C   0  0  0  0  0  0
  -26.4505  -31.6559   25.0675 C   0  0  0  0  0  0
  -25.3675  -31.3749   26.1352 C   0  0  0  0  0  0
  -27.0387  -30.2950   24.6273 C   0  0  0  0  0  0
  -27.6037  -32.4340   25.7451 C   0  0  0  0  0  0
  -27.5589  -37.1770   24.8458 C   0  0  0  0  0  0
  -21.4235  -29.3040   22.3595 N   0  0  0  0  0  0
  -26.4308  -37.3730   23.9394 N   0  0  0  0  0  0
  -24.7082  -31.0365   22.0860 N   0  0  0  0  0  0
  -23.4196  -28.8135   23.3014 O   0  0  0  0  0  0
  -28.3321  -26.2693   20.2433 O   0  0  0  0  0  0
  -26.5682  -34.8915   22.4631 O   0  0  0  0  0  0
  -23.5503  -32.1356   23.7072 O   0  0  0  0  0  0
  -28.0805  -19.5868   19.9554 C   0  0  0  0  0  0
  -30.6540  -18.5681   20.1513 C   0  0  0  0  0  0
  -29.0885  -20.6047   19.8782 C   0  0  0  0  0  0
  -28.3347  -18.1702   20.0736 C   0  0  0  0  0  0
  -30.4000  -20.0048   19.9692 C   0  0  0  0  0  0
  -29.6221  -17.5641   20.2115 C   0  0  0  0  0  0
  -27.9859  -22.0559   18.3279 C   0  0  0  0  0  0
  -26.6291  -22.7105   18.5807 C   0  0  0  0  0  0
  -26.7340  -23.1370   20.0515 C   0  0  0  0  0  0
  -28.2406  -23.3277   20.2065 C   0  0  2  0  0  0
  -28.5054  -24.8816   19.5952 C   0  0  0  0  0  0
  -28.7510  -22.0474   19.4372 N   0  0  0  0  0  0
  -27.2504  -17.3112   19.9663 N   0  0  0  0  0  0
  -31.4974  -20.8519   19.8389 N   0  0  0  0  0  0
  -29.6600  -16.0420   20.4187 N   0  0  0  0  0  0
  -28.2828  -21.5508   17.2414 O   0  0  0  0  0  0
  -31.4793  -12.7175   19.1618 H   0  0  0  0  0  0
  -30.4320  -11.6042   19.9972 H   0  0  0  0  0  0
  -29.8302  -11.7331   17.5582 H   0  0  0  0  0  0
  -29.6152  -13.4612   17.6861 H   0  0  0  0  0  0
  -27.9350  -11.2787   18.9523 H   0  0  0  0  0  0
  -27.3840  -12.4722   17.8063 H   0  0  0  0  0  0
  -27.5886  -14.2554   19.4230 H   0  0  0  0  0  0
  -28.7673  -12.2626   21.4219 H   0  0  0  0  0  0
  -28.3995  -13.9340   21.7623 H   0  0  0  0  0  0
  -25.2781   -9.5599   22.4749 H   0  0  0  0  0  0
  -24.0026   -7.4551   22.7415 H   0  0  0  0  0  0
  -21.0892   -8.8717   19.8904 H   0  0  0  0  0  0
  -22.3754  -10.9618   19.6135 H   0  0  0  0  0  0
  -21.1966   -7.6126   23.9743 H   0  0  0  0  0  0
  -21.1527   -6.0496   25.9095 H   0  0  0  0  0  0
  -22.0587   -2.7619   23.2846 H   0  0  0  0  0  0
  -22.4076  -11.9805   22.4911 H   0  0  0  0  0  0
  -21.1028  -13.1086   22.2654 H   0  0  0  0  0  0
  -24.5781  -15.7934   20.5482 H   0  0  0  0  0  0
  -26.2447  -15.7072   20.3382 H   0  0  0  0  0  0
  -26.7227  -32.5334   23.0979 H   0  0  0  0  0  0
  -25.0023  -33.9632   25.0278 H   0  0  0  0  0  0
  -22.7449  -31.2868   21.3692 H   0  0  0  0  0  0
  -23.3780  -35.9558   23.3274 H   0  0  0  0  0  0
  -24.3593  -36.8909   22.2057 H   0  0  0  0  0  0
  -23.7252  -37.6424   23.6704 H   0  0  0  0  0  0
  -26.1591  -31.4926   20.6184 H   0  0  0  0  0  0
  -26.8566  -30.7712   22.0321 H   0  0  0  0  0  0
  -28.1220  -28.8423   21.2375 H   0  0  0  0  0  0
  -25.9708  -25.8504   18.9983 H   0  0  0  0  0  0
  -23.9915  -27.2681   19.0012 H   0  0  0  0  0  0
  -23.7850  -30.5479   19.3851 H   0  0  0  0  0  0
  -22.7835  -29.2081   19.8563 H   0  0  0  0  0  0
  -25.1340  -36.1836   25.0791 H   0  0  0  0  0  0
  -21.0046  -28.3297   24.1328 H   0  0  0  0  0  0
  -20.5657  -26.2330   23.3615 H   0  0  0  0  0  0
  -21.6649  -26.7385   22.1210 H   0  0  0  0  0  0
  -19.6912  -25.6268   21.1252 H   0  0  0  0  0  0
  -19.6698  -27.3161   20.6715 H   0  0  0  0  0  0
  -17.4213  -26.6674   21.4015 H   0  0  0  0  0  0
  -18.0333  -26.0064   22.9015 H   0  0  0  0  0  0
  -19.7956  -30.7275   24.2230 H   0  0  0  0  0  0
  -17.5029  -31.6264   24.5137 H   0  0  0  0  0  0
  -15.5365  -30.2957   23.7665 H   0  0  0  0  0  0
  -15.8700  -28.0783   22.7096 H   0  0  0  0  0  0
  -24.5832  -30.7151   25.7622 H   0  0  0  0  0  0
  -24.8898  -32.2942   26.4747 H   0  0  0  0  0  0
  -25.7915  -30.8892   27.0147 H   0  0  0  0  0  0
  -26.3008  -29.6640   24.1301 H   0  0  0  0  0  0
  -27.4019  -29.7282   25.4860 H   0  0  0  0  0  0
  -27.8910  -30.4178   23.9584 H   0  0  0  0  0  0
  -27.2612  -33.3642   26.1994 H   0  0  0  0  0  0
  -28.3840  -32.6900   25.0271 H   0  0  0  0  0  0
  -28.0716  -31.8498   26.5387 H   0  0  0  0  0  0
  -28.2576  -38.0098   24.7536 H   0  0  0  0  0  0
  -28.1125  -36.2626   24.6259 H   0  0  0  0  0  0
  -27.2305  -37.1372   25.8863 H   0  0  0  0  0  0
  -20.9442  -29.8735   21.6764 H   0  0  0  0  0  0
  -26.0168  -38.2795   24.1405 H   0  0  0  0  0  0
  -27.0550  -19.8958   19.8198 H   0  0  0  0  0  0
  -31.6777  -18.2304   20.2224 H   0  0  0  0  0  0
  -25.8111  -22.0094   18.4196 H   0  0  0  0  0  0
  -26.4872  -23.5501   17.9001 H   0  0  0  0  0  0
  -26.3763  -22.3445   20.7118 H   0  0  0  0  0  0
  -26.1630  -24.0328   20.2901 H   0  0  0  0  0  0
  -28.5433  -23.2759   21.2518 H   0  0  0  0  0  0
  -28.0424  -24.9694   18.6132 H   0  0  0  0  0  0
  -29.5676  -24.8884   19.3507 H   0  0  0  0  0  0
  -26.3591  -17.7906   19.9132 H   0  0  0  0  0  0
  -27.3335  -16.7234   19.1433 H   0  0  0  0  0  0
  -32.3765  -20.4479   19.5350 H   0  0  0  0  0  0
  -31.3330  -21.7609   19.4196 H   0  0  0  0  0  0
  -28.7171  -15.7188   20.5686 H   0  0  0  0  0  0
  1 25  1  0  0  0
  1 30  2  0  0  0
  1 85  1  0  0  0
  2  3  1  0  0  0
  2 25  1  0  0  0
  2 87  1  0  0  0
  2 88  1  0  0  0
  3  4  1  0  0  0
  3 89  1  0  0  0
  3 90  1  0  0  0
  4  5  1  0  0  0
  4 91  1  0  0  0
  4 92  1  0  0  0
  5  6  1  0  0  0
  5 26  1  0  0  0
  5 93  1  0  0  0
  6 25  1  0  0  0
  6 94  1  0  0  0
  6 95  1  0  0  0
  7  8  2  0  0  0
  7 26  1  0  0  0
  7 29  1  0  0  0
  8  9  1  0  0  0
  8 22  1  0  0  0
  9 10  1  0  0  0
  9 27  2  0  0  0
 10 11  2  0  0  0
 10 15  1  0  0  0
 11 12  1  0  0  0
 11 96  1  0  0  0
 12 13  2  0  0  0
 12 97  1  0  0  0
 13 14  1  0  0  0
 13 31  1  0  0  0
 14 15  2  0  0  0
 14 98  1  0  0  0
 15 99  1  0  0  0
 16 17  2  0  0  0
 16 21  1  0  0  0
 16 31  1  0  0  0
 17 18  1  0  0  0
 17100  1  0  0  0
 18 19  2  0  0  0
 18101  1  0  0  0
 19 20  1  0  0  0
 19 24  1  0  0  0
 20 21  2  0  0  0
 20102  1  0  0  0
 21 23  1  0  0  0
 22 28  1  0  0  0
 22 32  2  0  0  0
 26 27  1  0  0  0
 28103  1  0  0  0
 28104  1  0  0  0
 29105  1  0  0  0
 29106  1  0  0  0
 33 34  1  0  0  0
 33 66  1  0  0  0
 33 70  2  0  0  0
 34 36  1  0  0  0
 34 59  1  0  0  0
 34107  1  0  0  0
 35 44  2  0  0  0
 35 45  1  0  0  0
 35 68  1  0  0  0
 36 56  1  0  0  0
 36108  1  0  0  0
 37 39  1  0  0  0
 37 47  1  0  0  0
 37 66  1  0  0  0
 37109  1  0  0  0
 38 43  2  0  0  0
 38 46  1  0  0  0
 38 47  1  0  0  0
 39 64  1  0  0  0
 39 67  2  0  0  0
 40 52  1  0  0  0
 40 53  2  0  0  0
 40 58  1  0  0  0
 41110  1  0  0  0
 41111  1  0  0  0
 41112  1  0  0  0
 41 48  1  0  0  0
 42 43  1  0  0  0
 42 66  1  0  0  0
 42113  1  0  0  0
 42114  1  0  0  0
 43 44  1  0  0  0
 44115  1  0  0  0
 45 46  2  0  0  0
 45116  1  0  0  0
 46117  1  0  0  0
 47118  1  0  0  0
 47119  1  0  0  0
 48 56  1  0  0  0
 48 65  1  0  0  0
 48120  1  0  0  0
 49 50  1  0  0  0
 49 53  1  0  0  0
 49 64  1  0  0  0
 49121  1  0  0  0
 50 51  1  0  0  0
 50122  1  0  0  0
 50123  1  0  0  0
 51 52  1  0  0  0
 51124  1  0  0  0
 51125  1  0  0  0
 52126  1  0  0  0
 52127  1  0  0  0
 53 54  1  0  0  0
 54 55  2  0  0  0
 54128  1  0  0  0
 55 57  1  0  0  0
 55129  1  0  0  0
 56 69  2  0  0  0
 57 58  2  0  0  0
 57130  1  0  0  0
 58131  1  0  0  0
 59 60  1  0  0  0
 59 61  1  0  0  0
 59 62  1  0  0  0
 60132  1  0  0  0
 60133  1  0  0  0
 60134  1  0  0  0
 61135  1  0  0  0
 61136  1  0  0  0
 61137  1  0  0  0
 62138  1  0  0  0
 62139  1  0  0  0
 62140  1  0  0  0
 63 65  1  0  0  0
 63141  1  0  0  0
 63142  1  0  0  0
 63143  1  0  0  0
 64144  1  0  0  0
 65145  1  0  0  0
 68 81  1  0  0  0
 71 73  2  0  0  0
 71 74  1  0  0  0
 71146  1  0  0  0
 72 75  2  0  0  0
 72 76  1  0  0  0
 72147  1  0  0  0
 73 75  1  0  0  0
 73 82  1  0  0  0
 74 76  2  0  0  0
 74 83  1  0  0  0
 75 84  1  0  0  0
 76 85  1  0  0  0
 77 78  1  0  0  0
 77 82  1  0  0  0
 77 86  2  0  0  0
 78 79  1  0  0  0
 78148  1  0  0  0
 78149  1  0  0  0
 79 80  1  0  0  0
 79150  1  0  0  0
 79151  1  0  0  0
 80 81  1  0  0  0
 80 82  1  0  0  0
 80152  1  0  0  0
 81153  1  0  0  0
 81154  1  0  0  0
 83155  1  0  0  0
 83156  1  0  0  0
 84157  1  0  0  0
 84158  1  0  0  0
 85159  1  0  0  0
M  ISO  4   1 100  68 101  81 101  85 100
M  END
> <chiral flag>
0

> <version>
0

> <s_m_source_file>
/data/baiqing/PycharmProjects/Reinvent-master-3.2/result/LINK_invent/BTK/process_docking_weight1_custom_product_contain_oxygen_bond_distance_aromatic_linkinvent_7_9_3/rearranged_h_0110.sdf

> <i_m_source_file_index>
54

> <r_mmod_Potential_Energy-OPLS-2005>
488.009887695312

> <r_mmod_Stretch_Energy-OPLS-2005>
226.244491577148

> <r_mmod_Bend_Energy-OPLS-2005>
351.359985351562

> <r_mmod_Torsional_Energy-OPLS-2005>
346.169769287109

> <r_mmod_Improper_Torsional_Energy-OPLS-2005>
20.0588760375977

> <r_mmod_Van_der_Waal_Energy-OPLS-2005>
141.06510925293

> <r_mmod_Electrostatic_Energy-OPLS-2005>
-527.976318359375

> <r_mmod_Solvation_Energy-OPLS-2005>
-236.849609375

> <b_mmod_Minimization_Converged-OPLS-2005>
0

> <r_mmod_RMS_Derivative-OPLS-2005>
3.91147255897522

$$$$
55
                    3D
 Structure written by MMmdl.
158166  0  0  1  0            999 V2000
  -30.6597  -14.7848   20.4804 C   0  0  0  0  0  0
  -30.4237  -12.4989   19.4557 C   0  0  0  0  0  0
  -29.5023  -12.5123   18.2204 C   0  0  0  0  0  0
  -28.0323  -12.3295   18.6449 C   0  0  0  0  0  0
  -27.6310  -13.2460   19.8337 C   0  0  2  0  0  0
  -28.6846  -13.2380   20.9598 C   0  0  0  0  0  0
  -25.2463  -13.8220   20.5708 C   0  0  0  0  0  0
  -24.1782  -13.0437   20.9217 C   0  0  0  0  0  0
  -24.6411  -11.6928   20.8757 C   0  0  0  0  0  0
  -23.9091  -10.4295   21.0403 C   0  0  0  0  0  0
  -24.3640   -9.4205   21.9176 C   0  0  0  0  0  0
  -23.6319   -8.2233   22.0748 C   0  0  0  0  0  0
  -22.4294   -8.0266   21.3535 C   0  0  0  0  0  0
  -21.9925   -9.0236   20.4638 C   0  0  0  0  0  0
  -22.7259  -10.2121   20.3054 C   0  0  0  0  0  0
  -21.6853   -6.0729   22.5281 C   0  0  0  0  0  0
  -21.4010   -6.5635   23.8210 C   0  0  0  0  0  0
  -21.3672   -5.6792   24.9178 C   0  0  0  0  0  0
  -21.6048   -4.3054   24.7231 C   0  0  0  0  0  0
  -21.8813   -3.8142   23.4348 C   0  0  0  0  0  0
  -21.9191   -4.6955   22.3405 C   0  0  0  0  0  0
  -22.7806  -13.5190   21.1899 C   0  0  0  0  0  0
  -22.1656   -4.2134   21.0982 F   0  0  0  0  0  0
  -21.5637   -3.4537   25.7747 F   0  0  0  0  0  0
  -29.9675  -13.5959   20.3426 N   0  0  0  0  0  0
  -26.2898  -12.9459   20.3260 N   0  0  0  0  0  0
  -25.9340  -11.6582   20.5751 N   0  0  0  0  0  0
  -22.0470  -12.8175   22.0472 N   0  0  0  0  0  0
  -25.4134  -15.1948   20.4100 N   0  0  0  0  0  0
  -31.8767  -14.7729   20.2824 O   0  0  0  0  0  0
  -21.6649   -6.8866   21.4238 O   0  0  0  0  0  0
  -22.3484  -14.5492   20.6754 O   0  0  0  0  0  0
  -24.6412  -31.8515   23.1977 C   0  0  0  0  0  0
  -25.9214  -32.4728   23.8329 C   0  0  1  0  0  0
  -27.2007  -27.1882   20.1121 C   0  0  0  0  0  0
  -25.6011  -33.8536   24.2247 N   0  0  0  0  0  0
  -23.4401  -30.4802   21.5428 C   0  0  2  0  0  0
  -24.8798  -28.9299   20.1051 C   0  0  0  0  0  0
  -22.7564  -29.4605   22.4880 C   0  0  0  0  0  0
  -18.0323  -28.1402   22.8480 C   0  0  0  0  0  0
  -24.1482  -36.7238   23.2631 C   0  0  0  0  0  0
  -25.9966  -30.7361   21.3951 C   0  0  0  0  0  0
  -26.0603  -29.3570   20.7269 C   0  0  0  0  0  0
  -27.2186  -28.4997   20.7252 C   0  0  0  0  0  0
  -25.9963  -26.8822   19.4331 C   0  0  0  0  0  0
  -24.8583  -27.6985   19.4465 C   0  0  0  0  0  0
  -23.6602  -29.8263   20.1552 C   0  0  0  0  0  0
  -25.4112  -36.3045   24.0320 C   0  0  1  0  0  0
  -20.5936  -28.3725   23.1229 C   0  0  2  0  0  0
  -20.6807  -26.9437   22.5379 C   0  0  0  0  0  0
  -19.5771  -26.6390   21.5207 C   0  0  0  0  0  0
  -18.1962  -26.7946   22.1627 C   0  0  0  0  0  0
  -19.1580  -28.8884   23.2843 C   0  0  0  0  0  0
  -18.9489  -30.1481   23.8875 C   0  0  0  0  0  0
  -17.6478  -30.6591   24.0568 C   0  0  0  0  0  0
  -25.9082  -34.9430   23.5067 C   0  0  0  0  0  0
  -16.5371  -29.9088   23.6340 C   0  0  0  0  0  0
  -16.7308  -28.6503   23.0370 C   0  0  0  0  0  0
  -26.4535  -31.6594   25.0762 C   0  0  0  0  0  0
  -25.3719  -31.3751   26.1448 C   0  0  0  0  0  0
  -27.0376  -30.3003   24.6295 C   0  0  0  0  0  0
  -27.6095  -32.4333   25.7520 C   0  0  0  0  0  0
  -27.5567  -37.1769   24.8467 C   0  0  0  0  0  0
  -21.4268  -29.3070   22.3617 N   0  0  0  0  0  0
  -26.4269  -37.3763   23.9423 N   0  0  0  0  0  0
  -24.7131  -31.0415   22.0997 N   0  0  0  0  0  0
  -23.4229  -28.8141   23.3007 O   0  0  0  0  0  0
  -28.2492  -26.2035   20.1863 O   0  0  0  0  0  0
  -26.5613  -34.8921   22.4618 O   0  0  0  0  0  0
  -23.5549  -32.1382   23.7223 O   0  0  0  0  0  0
  -30.2948  -18.6604   20.4161 C   0  0  0  0  0  0
  -31.3994  -19.2363   19.8027 C   0  0  0  0  0  0
  -29.6706  -20.9971   20.2944 C   0  0  0  0  0  0
  -30.4845  -17.2079   21.0343 C   0  0  0  0  0  0
  -29.1301  -23.5964   20.3434 C   0  0  0  0  0  0
  -27.7071  -24.4390   18.4883 C   0  0  0  0  0  0
  -26.7505  -24.3261   20.9156 C   0  0  0  0  0  0
  -32.6901  -18.5549   19.4249 C   0  0  0  0  0  0
  -27.9660  -24.6874   20.0049 C   0  0  0  0  0  0
  -29.3182  -19.7142   20.6863 N   0  0  0  0  0  0
  -28.8312  -22.2253   20.3679 N   0  0  0  0  0  0
  -29.9861  -16.0114   20.5233 N   0  0  0  0  0  0
  -33.6328  -18.4522   20.5525 N   0  3  0  0  0  0
  -31.2792  -17.1589   21.9813 O   0  0  0  0  0  0
  -30.2733  -24.0051   20.5606 O   0  0  0  0  0  0
  -31.2545  -20.9756   19.5362 S   0  0  0  0  0  0
  -31.4630  -12.6138   19.1466 H   0  0  0  0  0  0
  -30.3670  -11.5368   19.9650 H   0  0  0  0  0  0
  -29.7915  -11.7278   17.5197 H   0  0  0  0  0  0
  -29.6186  -13.4571   17.6890 H   0  0  0  0  0  0
  -27.9041  -11.2832   18.9231 H   0  0  0  0  0  0
  -27.3699  -12.4980   17.7959 H   0  0  0  0  0  0
  -27.6035  -14.2587   19.4308 H   0  0  0  0  0  0
  -28.7411  -12.2586   21.4399 H   0  0  0  0  0  0
  -28.4173  -13.9557   21.7379 H   0  0  0  0  0  0
  -25.2779   -9.5675   22.4750 H   0  0  0  0  0  0
  -24.0017   -7.4619   22.7472 H   0  0  0  0  0  0
  -21.0837   -8.8755   19.8955 H   0  0  0  0  0  0
  -22.3704  -10.9649   19.6156 H   0  0  0  0  0  0
  -21.1996   -7.6137   23.9715 H   0  0  0  0  0  0
  -21.1509   -6.0522   25.9084 H   0  0  0  0  0  0
  -22.0586   -2.7600   23.2864 H   0  0  0  0  0  0
  -22.4127  -11.9826   22.4816 H   0  0  0  0  0  0
  -21.1079  -13.1174   22.2698 H   0  0  0  0  0  0
  -24.6435  -15.8483   20.5076 H   0  0  0  0  0  0
  -26.2627  -15.6337   20.0790 H   0  0  0  0  0  0
  -26.7281  -32.5334   23.1065 H   0  0  0  0  0  0
  -25.0264  -33.9664   25.0469 H   0  0  0  0  0  0
  -22.7401  -31.3052   21.3987 H   0  0  0  0  0  0
  -23.3768  -35.9543   23.3287 H   0  0  0  0  0  0
  -24.3581  -36.8863   22.2044 H   0  0  0  0  0  0
  -23.7212  -37.6427   23.6662 H   0  0  0  0  0  0
  -26.1555  -31.4951   20.6285 H   0  0  0  0  0  0
  -26.8677  -30.7724   22.0365 H   0  0  0  0  0  0
  -28.1097  -28.8188   21.2460 H   0  0  0  0  0  0
  -25.8596  -25.9650   18.8917 H   0  0  0  0  0  0
  -23.9644  -27.3679   18.9349 H   0  0  0  0  0  0
  -23.7998  -30.6084   19.4083 H   0  0  0  0  0  0
  -22.7756  -29.2710   19.8387 H   0  0  0  0  0  0
  -25.1303  -36.1854   25.0812 H   0  0  0  0  0  0
  -21.0031  -28.3297   24.1350 H   0  0  0  0  0  0
  -20.5729  -26.2344   23.3604 H   0  0  0  0  0  0
  -21.6671  -26.7467   22.1163 H   0  0  0  0  0  0
  -19.6933  -25.6298   21.1262 H   0  0  0  0  0  0
  -19.6706  -27.3180   20.6725 H   0  0  0  0  0  0
  -17.4235  -26.6703   21.4032 H   0  0  0  0  0  0
  -18.0349  -26.0109   22.9038 H   0  0  0  0  0  0
  -19.7964  -30.7308   24.2236 H   0  0  0  0  0  0
  -17.5039  -31.6284   24.5152 H   0  0  0  0  0  0
  -15.5376  -30.2969   23.7687 H   0  0  0  0  0  0
  -15.8716  -28.0802   22.7096 H   0  0  0  0  0  0
  -24.5931  -30.7075   25.7743 H   0  0  0  0  0  0
  -24.8874  -32.2921   26.4825 H   0  0  0  0  0  0
  -25.8020  -30.8956   27.0253 H   0  0  0  0  0  0
  -26.2967  -29.6743   24.1312 H   0  0  0  0  0  0
  -27.4030  -29.7274   25.4823 H   0  0  0  0  0  0
  -27.8877  -30.4264   23.9584 H   0  0  0  0  0  0
  -27.2744  -33.3666   26.2038 H   0  0  0  0  0  0
  -28.3929  -32.6818   25.0353 H   0  0  0  0  0  0
  -28.0738  -31.8494   26.5467 H   0  0  0  0  0  0
  -28.2568  -38.0081   24.7560 H   0  0  0  0  0  0
  -28.1085  -36.2629   24.6246 H   0  0  0  0  0  0
  -27.2306  -37.1345   25.8872 H   0  0  0  0  0  0
  -20.9473  -29.8796   21.6805 H   0  0  0  0  0  0
  -26.0130  -38.2815   24.1480 H   0  0  0  0  0  0
  -26.7494  -23.9464   18.3120 H   0  0  0  0  0  0
  -28.4606  -23.8085   18.0082 H   0  0  0  0  0  0
  -27.7248  -25.3652   17.9132 H   0  0  0  0  0  0
  -26.7272  -23.2899   21.2488 H   0  0  0  0  0  0
  -25.7866  -24.4715   20.4326 H   0  0  0  0  0  0
  -26.7541  -24.9379   21.8179 H   0  0  0  0  0  0
  -33.1756  -19.0964   18.6114 H   0  0  0  0  0  0
  -32.4912  -17.5564   19.0342 H   0  0  0  0  0  0
  -27.8416  -22.0347   20.3258 H   0  0  0  0  0  0
  -29.0946  -16.0591   20.0615 H   0  0  0  0  0  0
  -33.9243  -19.3608   20.8644 H   0  0  0  0  0  0
  -34.4506  -17.9450   20.2639 H   0  0  0  0  0  0
  -33.2156  -17.9623   21.3253 H   0  0  0  0  0  0
  1 25  1  0  0  0
  1 30  2  0  0  0
  1 82  1  0  0  0
  2  3  1  0  0  0
  2 25  1  0  0  0
  2 87  1  0  0  0
  2 88  1  0  0  0
  3  4  1  0  0  0
  3 89  1  0  0  0
  3 90  1  0  0  0
  4  5  1  0  0  0
  4 91  1  0  0  0
  4 92  1  0  0  0
  5  6  1  0  0  0
  5 26  1  0  0  0
  5 93  1  0  0  0
  6 25  1  0  0  0
  6 94  1  0  0  0
  6 95  1  0  0  0
  7  8  2  0  0  0
  7 26  1  0  0  0
  7 29  1  0  0  0
  8  9  1  0  0  0
  8 22  1  0  0  0
  9 10  1  0  0  0
  9 27  2  0  0  0
 10 11  2  0  0  0
 10 15  1  0  0  0
 11 12  1  0  0  0
 11 96  1  0  0  0
 12 13  2  0  0  0
 12 97  1  0  0  0
 13 14  1  0  0  0
 13 31  1  0  0  0
 14 15  2  0  0  0
 14 98  1  0  0  0
 15 99  1  0  0  0
 16 17  2  0  0  0
 16 21  1  0  0  0
 16 31  1  0  0  0
 17 18  1  0  0  0
 17100  1  0  0  0
 18 19  2  0  0  0
 18101  1  0  0  0
 19 20  1  0  0  0
 19 24  1  0  0  0
 20 21  2  0  0  0
 20102  1  0  0  0
 21 23  1  0  0  0
 22 28  1  0  0  0
 22 32  2  0  0  0
 26 27  1  0  0  0
 28103  1  0  0  0
 28104  1  0  0  0
 29105  1  0  0  0
 29106  1  0  0  0
 33 34  1  0  0  0
 33 66  1  0  0  0
 33 70  2  0  0  0
 34 36  1  0  0  0
 34 59  1  0  0  0
 34107  1  0  0  0
 35 44  2  0  0  0
 35 45  1  0  0  0
 35 68  1  0  0  0
 36 56  1  0  0  0
 36108  1  0  0  0
 37 39  1  0  0  0
 37 47  1  0  0  0
 37 66  1  0  0  0
 37109  1  0  0  0
 38 43  2  0  0  0
 38 46  1  0  0  0
 38 47  1  0  0  0
 39 64  1  0  0  0
 39 67  2  0  0  0
 40 52  1  0  0  0
 40 53  2  0  0  0
 40 58  1  0  0  0
 41110  1  0  0  0
 41111  1  0  0  0
 41112  1  0  0  0
 41 48  1  0  0  0
 42 43  1  0  0  0
 42 66  1  0  0  0
 42113  1  0  0  0
 42114  1  0  0  0
 43 44  1  0  0  0
 44115  1  0  0  0
 45 46  2  0  0  0
 45116  1  0  0  0
 46117  1  0  0  0
 47118  1  0  0  0
 47119  1  0  0  0
 48 56  1  0  0  0
 48 65  1  0  0  0
 48120  1  0  0  0
 49 50  1  0  0  0
 49 53  1  0  0  0
 49 64  1  0  0  0
 49121  1  0  0  0
 50 51  1  0  0  0
 50122  1  0  0  0
 50123  1  0  0  0
 51 52  1  0  0  0
 51124  1  0  0  0
 51125  1  0  0  0
 52126  1  0  0  0
 52127  1  0  0  0
 53 54  1  0  0  0
 54 55  2  0  0  0
 54128  1  0  0  0
 55 57  1  0  0  0
 55129  1  0  0  0
 56 69  2  0  0  0
 57 58  2  0  0  0
 57130  1  0  0  0
 58131  1  0  0  0
 59 60  1  0  0  0
 59 61  1  0  0  0
 59 62  1  0  0  0
 60132  1  0  0  0
 60133  1  0  0  0
 60134  1  0  0  0
 61135  1  0  0  0
 61136  1  0  0  0
 61137  1  0  0  0
 62138  1  0  0  0
 62139  1  0  0  0
 62140  1  0  0  0
 63 65  1  0  0  0
 63141  1  0  0  0
 63142  1  0  0  0
 63143  1  0  0  0
 64144  1  0  0  0
 65145  1  0  0  0
 68 79  1  0  0  0
 71 72  2  0  0  0
 71 74  1  0  0  0
 71 80  1  0  0  0
 72 78  1  0  0  0
 72 86  1  0  0  0
 73 80  2  0  0  0
 73 81  1  0  0  0
 73 86  1  0  0  0
 74 82  1  0  0  0
 74 84  2  0  0  0
 75 79  1  0  0  0
 75 81  1  0  0  0
 75 85  2  0  0  0
 76146  1  0  0  0
 76147  1  0  0  0
 76148  1  0  0  0
 76 79  1  0  0  0
 77 79  1  0  0  0
 77149  1  0  0  0
 77150  1  0  0  0
 77151  1  0  0  0
 78 83  1  0  0  0
 78152  1  0  0  0
 78153  1  0  0  0
 81154  1  0  0  0
 82155  1  0  0  0
 83156  1  0  0  0
 83157  1  0  0  0
 83158  1  0  0  0
M  CHG  1  83   1
M  ISO  4   1 100  68 101  79 101  82 100
M  END
> <chiral flag>
0

> <version>
0

> <s_m_source_file>
/data/baiqing/PycharmProjects/Reinvent-master-3.2/result/LINK_invent/BTK/process_docking_weight1_custom_product_contain_oxygen_bond_distance_aromatic_linkinvent_7_9_3/rearranged_h_0110.sdf

> <i_m_source_file_index>
55

> <r_mmod_Potential_Energy-OPLS-2005>
-107.651893615723

> <r_mmod_Stretch_Energy-OPLS-2005>
167.500549316406

> <r_mmod_Bend_Energy-OPLS-2005>
212.055877685547

> <r_mmod_Torsional_Energy-OPLS-2005>
312.712158203125

> <r_mmod_Improper_Torsional_Energy-OPLS-2005>
13.9299669265747

> <r_mmod_Van_der_Waal_Energy-OPLS-2005>
142.748641967773

> <r_mmod_Electrostatic_Energy-OPLS-2005>
-583.651428222656

> <r_mmod_Solvation_Energy-OPLS-2005>
-503.827911376953

> <b_mmod_Minimization_Converged-OPLS-2005>
0

> <r_mmod_RMS_Derivative-OPLS-2005>
3.10380864143372

$$$$
56
                    3D
 Structure written by MMmdl.
166174  0  0  1  0            999 V2000
  -30.6854  -14.4882   20.5386 C   0  0  0  0  0  0
  -30.4219  -12.3052   19.4407 C   0  0  0  0  0  0
  -29.4936  -12.4905   18.2219 C   0  0  0  0  0  0
  -28.0132  -12.3540   18.6316 C   0  0  0  0  0  0
  -27.6531  -13.2114   19.8756 C   0  0  2  0  0  0
  -28.6965  -13.0204   21.0016 C   0  0  0  0  0  0
  -25.2525  -13.8237   20.5764 C   0  0  0  0  0  0
  -24.1780  -13.0503   20.9196 C   0  0  0  0  0  0
  -24.6352  -11.6962   20.8758 C   0  0  0  0  0  0
  -23.9059  -10.4332   21.0416 C   0  0  0  0  0  0
  -24.3608   -9.4243   21.9180 C   0  0  0  0  0  0
  -23.6296   -8.2269   22.0750 C   0  0  0  0  0  0
  -22.4278   -8.0305   21.3545 C   0  0  0  0  0  0
  -21.9917   -9.0280   20.4655 C   0  0  0  0  0  0
  -22.7227  -10.2164   20.3066 C   0  0  0  0  0  0
  -21.6851   -6.0766   22.5287 C   0  0  0  0  0  0
  -21.4007   -6.5661   23.8229 C   0  0  0  0  0  0
  -21.3678   -5.6801   24.9203 C   0  0  0  0  0  0
  -21.6043   -4.3056   24.7227 C   0  0  0  0  0  0
  -21.8812   -3.8170   23.4335 C   0  0  0  0  0  0
  -21.9188   -4.6996   22.3409 C   0  0  0  0  0  0
  -22.7797  -13.5261   21.1850 C   0  0  0  0  0  0
  -22.1645   -4.2206   21.0975 F   0  0  0  0  0  0
  -21.5652   -3.4519   25.7732 F   0  0  0  0  0  0
  -30.0200  -13.3102   20.4368 N   0  0  0  0  0  0
  -26.2962  -12.9402   20.3433 N   0  0  0  0  0  0
  -25.9266  -11.6559   20.5788 N   0  0  0  0  0  0
  -22.0487  -12.8260   22.0427 N   0  0  0  0  0  0
  -25.4320  -15.1971   20.4262 N   0  0  0  0  0  0
  -31.8557  -14.6284   20.1830 O   0  0  0  0  0  0
  -21.6634   -6.8909   21.4241 O   0  0  0  0  0  0
  -22.3441  -14.5531   20.6647 O   0  0  0  0  0  0
  -24.6135  -31.8725   23.2159 C   0  0  0  0  0  0
  -25.9034  -32.4855   23.8450 C   0  0  1  0  0  0
  -27.2124  -27.4156   20.1006 C   0  0  0  0  0  0
  -25.5925  -33.8660   24.2388 N   0  0  0  0  0  0
  -23.4004  -30.4992   21.5591 C   0  0  2  0  0  0
  -24.8408  -28.9711   20.1126 C   0  0  0  0  0  0
  -22.7418  -29.4685   22.5027 C   0  0  0  0  0  0
  -18.0292  -28.1381   22.8524 C   0  0  0  0  0  0
  -24.1486  -36.7303   23.2631 C   0  0  0  0  0  0
  -25.9312  -30.8292   21.3755 C   0  0  0  0  0  0
  -26.0046  -29.4651   20.7147 C   0  0  0  0  0  0
  -27.1926  -28.6950   20.7082 C   0  0  0  0  0  0
  -26.0319  -26.9531   19.4726 C   0  0  0  0  0  0
  -24.8514  -27.7151   19.4865 C   0  0  0  0  0  0
  -23.6062  -29.8417   20.1706 C   0  0  0  0  0  0
  -25.4110  -36.3127   24.0343 C   0  0  1  0  0  0
  -20.5876  -28.3681   23.1342 C   0  0  2  0  0  0
  -20.6805  -26.9428   22.5422 C   0  0  0  0  0  0
  -19.5763  -26.6405   21.5250 C   0  0  0  0  0  0
  -18.1942  -26.7940   22.1651 C   0  0  0  0  0  0
  -19.1535  -28.8854   23.2935 C   0  0  0  0  0  0
  -18.9441  -30.1470   23.8932 C   0  0  0  0  0  0
  -17.6434  -30.6584   24.0580 C   0  0  0  0  0  0
  -25.9044  -34.9492   23.5149 C   0  0  0  0  0  0
  -16.5342  -29.9070   23.6339 C   0  0  0  0  0  0
  -16.7279  -28.6490   23.0370 C   0  0  0  0  0  0
  -26.4481  -31.6608   25.0755 C   0  0  0  0  0  0
  -25.3763  -31.3677   26.1513 C   0  0  0  0  0  0
  -27.0276  -30.3049   24.6081 C   0  0  0  0  0  0
  -27.6099  -32.4313   25.7464 C   0  0  0  0  0  0
  -27.5593  -37.1797   24.8473 C   0  0  0  0  0  0
  -21.4149  -29.3040   22.3743 N   0  0  0  0  0  0
  -26.4301  -37.3804   23.9427 N   0  0  0  0  0  0
  -24.6665  -31.0794   22.1084 N   0  0  0  0  0  0
  -23.4181  -28.8258   23.3094 O   0  0  0  0  0  0
  -28.3584  -26.6396   20.1434 O   0  0  0  0  0  0
  -26.5567  -34.8919   22.4694 O   0  0  0  0  0  0
  -23.5326  -32.1505   23.7543 O   0  0  0  0  0  0
  -28.3579  -18.5784   22.1703 C   0  0  0  0  0  0
  -30.2339  -19.9915   20.6824 C   0  0  0  0  0  0
  -28.2736  -19.9927   22.1285 C   0  0  0  0  0  0
  -29.3773  -17.8533   21.5155 C   0  0  0  0  0  0
  -29.2576  -20.7228   21.3983 C   0  0  0  0  0  0
  -30.3130  -18.5731   20.7267 C   0  0  0  0  0  0
  -29.1558  -22.8796   20.4858 C   0  0  0  0  0  0
  -26.6414  -22.0251   22.6370 C   0  0  0  0  0  0
  -30.6433  -24.7627   19.7020 C   0  0  0  0  0  0
  -32.2123  -18.5649   19.2352 C   0  0  0  0  0  0
  -27.1331  -20.6045   22.9584 C   0  0  0  0  0  0
  -29.4631  -16.3251   21.7368 C   0  0  0  0  0  0
  -28.1713  -25.2092   20.0351 C   0  0  0  0  0  0
  -29.3956  -24.3987   20.5173 C   0  0  1  0  0  0
  -29.3977  -22.1194   21.4853 N   0  0  0  0  0  0
  -29.9013  -15.5809   20.5544 N   0  0  0  0  0  0
  -31.2848  -17.8612   20.0532 O   0  0  0  0  0  0
  -31.4688  -12.4000   19.1416 H   0  0  0  0  0  0
  -30.3260  -11.3044   19.8612 H   0  0  0  0  0  0
  -29.7332  -11.7579   17.4493 H   0  0  0  0  0  0
  -29.6640  -13.4755   17.7838 H   0  0  0  0  0  0
  -27.8248  -11.3025   18.8411 H   0  0  0  0  0  0
  -27.3660  -12.6172   17.7950 H   0  0  0  0  0  0
  -27.6889  -14.2518   19.5529 H   0  0  0  0  0  0
  -28.6796  -12.0007   21.3853 H   0  0  0  0  0  0
  -28.4750  -13.6612   21.8551 H   0  0  0  0  0  0
  -25.2784   -9.5728   22.4707 H   0  0  0  0  0  0
  -24.0052   -7.4618   22.7419 H   0  0  0  0  0  0
  -21.0874   -8.8760   19.8910 H   0  0  0  0  0  0
  -22.3692  -10.9668   19.6144 H   0  0  0  0  0  0
  -21.1961   -7.6168   23.9761 H   0  0  0  0  0  0
  -21.1507   -6.0531   25.9109 H   0  0  0  0  0  0
  -22.0557   -2.7633   23.2796 H   0  0  0  0  0  0
  -22.4111  -11.9930   22.4805 H   0  0  0  0  0  0
  -21.1096  -13.1263   22.2642 H   0  0  0  0  0  0
  -24.6812  -15.8699   20.5387 H   0  0  0  0  0  0
  -26.3203  -15.6286   20.2044 H   0  0  0  0  0  0
  -26.7093  -32.5549   23.1207 H   0  0  0  0  0  0
  -25.0186  -33.9863   25.0601 H   0  0  0  0  0  0
  -22.6871  -31.3157   21.4298 H   0  0  0  0  0  0
  -23.3784  -35.9594   23.3259 H   0  0  0  0  0  0
  -24.3609  -36.8950   22.2056 H   0  0  0  0  0  0
  -23.7181  -37.6472   23.6666 H   0  0  0  0  0  0
  -26.0467  -31.5991   20.6116 H   0  0  0  0  0  0
  -26.8184  -30.8779   21.9959 H   0  0  0  0  0  0
  -28.0831  -29.0666   21.1953 H   0  0  0  0  0  0
  -25.9954  -26.0008   18.9629 H   0  0  0  0  0  0
  -23.9587  -27.3314   19.0125 H   0  0  0  0  0  0
  -23.7121  -30.6251   19.4188 H   0  0  0  0  0  0
  -22.7272  -29.2666   19.8748 H   0  0  0  0  0  0
  -25.1272  -36.2016   25.0830 H   0  0  0  0  0  0
  -20.9972  -28.3252   24.1464 H   0  0  0  0  0  0
  -20.5820  -26.2277   23.3603 H   0  0  0  0  0  0
  -21.6660  -26.7551   22.1147 H   0  0  0  0  0  0
  -19.6934  -25.6331   21.1257 H   0  0  0  0  0  0
  -19.6688  -27.3242   20.6803 H   0  0  0  0  0  0
  -17.4234  -26.6753   21.4026 H   0  0  0  0  0  0
  -18.0297  -26.0061   22.9012 H   0  0  0  0  0  0
  -19.7910  -30.7309   24.2291 H   0  0  0  0  0  0
  -17.4973  -31.6267   24.5185 H   0  0  0  0  0  0
  -15.5337  -30.2968   23.7637 H   0  0  0  0  0  0
  -15.8697  -28.0808   22.7057 H   0  0  0  0  0  0
  -24.5941  -30.7032   25.7841 H   0  0  0  0  0  0
  -24.8943  -32.2797   26.5032 H   0  0  0  0  0  0
  -25.8127  -30.8795   27.0233 H   0  0  0  0  0  0
  -26.2757  -29.6831   24.1207 H   0  0  0  0  0  0
  -27.4136  -29.7287   25.4499 H   0  0  0  0  0  0
  -27.8581  -30.4397   23.9150 H   0  0  0  0  0  0
  -27.2808  -33.3685   26.1972 H   0  0  0  0  0  0
  -28.3901  -32.6756   25.0241 H   0  0  0  0  0  0
  -28.0758  -31.8467   26.5404 H   0  0  0  0  0  0
  -28.2594  -38.0112   24.7559 H   0  0  0  0  0  0
  -28.1100  -36.2642   24.6253 H   0  0  0  0  0  0
  -27.2311  -37.1389   25.8874 H   0  0  0  0  0  0
  -20.9323  -29.8682   21.6891 H   0  0  0  0  0  0
  -26.0196  -38.2884   24.1437 H   0  0  0  0  0  0
  -27.6323  -18.0343   22.7599 H   0  0  0  0  0  0
  -30.9694  -20.5583   20.1323 H   0  0  0  0  0  0
  -28.7671  -22.4965   19.5369 H   0  0  0  0  0  0
  -26.3434  -22.1275   21.5921 H   0  0  0  0  0  0
  -27.3873  -22.7837   22.8696 H   0  0  0  0  0  0
  -25.7745  -22.2697   23.2503 H   0  0  0  0  0  0
  -31.5273  -24.2384   20.0684 H   0  0  0  0  0  0
  -30.8455  -25.8317   19.7613 H   0  0  0  0  0  0
  -30.5143  -24.5099   18.6471 H   0  0  0  0  0  0
  -32.7849  -17.8451   18.6506 H   0  0  0  0  0  0
  -32.9101  -19.1449   19.8439 H   0  0  0  0  0  0
  -31.7223  -19.2269   18.5184 H   0  0  0  0  0  0
  -27.4162  -20.5444   24.0094 H   0  0  0  0  0  0
  -26.2703  -19.9455   22.8444 H   0  0  0  0  0  0
  -28.4915  -15.9456   22.0579 H   0  0  0  0  0  0
  -30.1518  -16.1426   22.5655 H   0  0  0  0  0  0
  -27.3112  -24.9034   20.6373 H   0  0  0  0  0  0
  -27.9570  -24.9475   18.9988 H   0  0  0  0  0  0
  -29.5851  -24.6748   21.5548 H   0  0  0  0  0  0
  -30.3259  -16.2637   19.9416 H   0  0  0  0  0  0
  1 25  1  0  0  0
  1 30  2  0  0  0
  1 86  1  0  0  0
  2  3  1  0  0  0
  2 25  1  0  0  0
  2 88  1  0  0  0
  2 89  1  0  0  0
  3  4  1  0  0  0
  3 90  1  0  0  0
  3 91  1  0  0  0
  4  5  1  0  0  0
  4 92  1  0  0  0
  4 93  1  0  0  0
  5  6  1  0  0  0
  5 26  1  0  0  0
  5 94  1  0  0  0
  6 25  1  0  0  0
  6 95  1  0  0  0
  6 96  1  0  0  0
  7  8  2  0  0  0
  7 26  1  0  0  0
  7 29  1  0  0  0
  8  9  1  0  0  0
  8 22  1  0  0  0
  9 10  1  0  0  0
  9 27  2  0  0  0
 10 11  2  0  0  0
 10 15  1  0  0  0
 11 12  1  0  0  0
 11 97  1  0  0  0
 12 13  2  0  0  0
 12 98  1  0  0  0
 13 14  1  0  0  0
 13 31  1  0  0  0
 14 15  2  0  0  0
 14 99  1  0  0  0
 15100  1  0  0  0
 16 17  2  0  0  0
 16 21  1  0  0  0
 16 31  1  0  0  0
 17 18  1  0  0  0
 17101  1  0  0  0
 18 19  2  0  0  0
 18102  1  0  0  0
 19 20  1  0  0  0
 19 24  1  0  0  0
 20 21  2  0  0  0
 20103  1  0  0  0
 21 23  1  0  0  0
 22 28  1  0  0  0
 22 32  2  0  0  0
 26 27  1  0  0  0
 28104  1  0  0  0
 28105  1  0  0  0
 29106  1  0  0  0
 29107  1  0  0  0
 33 34  1  0  0  0
 33 66  1  0  0  0
 33 70  2  0  0  0
 34 36  1  0  0  0
 34 59  1  0  0  0
 34108  1  0  0  0
 35 44  2  0  0  0
 35 45  1  0  0  0
 35 68  1  0  0  0
 36 56  1  0  0  0
 36109  1  0  0  0
 37 39  1  0  0  0
 37 47  1  0  0  0
 37 66  1  0  0  0
 37110  1  0  0  0
 38 43  2  0  0  0
 38 46  1  0  0  0
 38 47  1  0  0  0
 39 64  1  0  0  0
 39 67  2  0  0  0
 40 52  1  0  0  0
 40 53  2  0  0  0
 40 58  1  0  0  0
 41111  1  0  0  0
 41112  1  0  0  0
 41113  1  0  0  0
 41 48  1  0  0  0
 42 43  1  0  0  0
 42 66  1  0  0  0
 42114  1  0  0  0
 42115  1  0  0  0
 43 44  1  0  0  0
 44116  1  0  0  0
 45 46  2  0  0  0
 45117  1  0  0  0
 46118  1  0  0  0
 47119  1  0  0  0
 47120  1  0  0  0
 48 56  1  0  0  0
 48 65  1  0  0  0
 48121  1  0  0  0
 49 50  1  0  0  0
 49 53  1  0  0  0
 49 64  1  0  0  0
 49122  1  0  0  0
 50 51  1  0  0  0
 50123  1  0  0  0
 50124  1  0  0  0
 51 52  1  0  0  0
 51125  1  0  0  0
 51126  1  0  0  0
 52127  1  0  0  0
 52128  1  0  0  0
 53 54  1  0  0  0
 54 55  2  0  0  0
 54129  1  0  0  0
 55 57  1  0  0  0
 55130  1  0  0  0
 56 69  2  0  0  0
 57 58  2  0  0  0
 57131  1  0  0  0
 58132  1  0  0  0
 59 60  1  0  0  0
 59 61  1  0  0  0
 59 62  1  0  0  0
 60133  1  0  0  0
 60134  1  0  0  0
 60135  1  0  0  0
 61136  1  0  0  0
 61137  1  0  0  0
 61138  1  0  0  0
 62139  1  0  0  0
 62140  1  0  0  0
 62141  1  0  0  0
 63 65  1  0  0  0
 63142  1  0  0  0
 63143  1  0  0  0
 63144  1  0  0  0
 64145  1  0  0  0
 65146  1  0  0  0
 68 83  1  0  0  0
 71 73  2  0  0  0
 71 74  1  0  0  0
 71147  1  0  0  0
 72 75  2  0  0  0
 72 76  1  0  0  0
 72148  1  0  0  0
 73 75  1  0  0  0
 73 81  1  0  0  0
 74 76  2  0  0  0
 74 82  1  0  0  0
 75 85  1  0  0  0
 76 87  1  0  0  0
 77 84  1  0  0  0
 77 85  2  0  0  0
 77149  1  0  0  0
 78 81  1  0  0  0
 78150  1  0  0  0
 78151  1  0  0  0
 78152  1  0  0  0
 79153  1  0  0  0
 79154  1  0  0  0
 79155  1  0  0  0
 79 84  1  0  0  0
 80 87  1  0  0  0
 80156  1  0  0  0
 80157  1  0  0  0
 80158  1  0  0  0
 81159  1  0  0  0
 81160  1  0  0  0
 82 86  1  0  0  0
 82161  1  0  0  0
 82162  1  0  0  0
 83 84  1  0  0  0
 83163  1  0  0  0
 83164  1  0  0  0
 84165  1  0  0  0
 86166  1  0  0  0
M  ISO  4   1 100  68 101  83 101  86 100
M  END
> <chiral flag>
0

> <version>
0

> <s_m_source_file>
/data/baiqing/PycharmProjects/Reinvent-master-3.2/result/LINK_invent/BTK/process_docking_weight1_custom_product_contain_oxygen_bond_distance_aromatic_linkinvent_7_9_3/rearranged_h_0110.sdf

> <i_m_source_file_index>
56

> <r_mmod_Potential_Energy-OPLS-2005>
21.7442436218262

> <r_mmod_Stretch_Energy-OPLS-2005>
42.3045806884766

> <r_mmod_Bend_Energy-OPLS-2005>
130.335205078125

> <r_mmod_Torsional_Energy-OPLS-2005>
280.363464355469

> <r_mmod_Improper_Torsional_Energy-OPLS-2005>
21.5464019775391

> <r_mmod_Van_der_Waal_Energy-OPLS-2005>
165.585388183594

> <r_mmod_Electrostatic_Energy-OPLS-2005>
-434.501403808594

> <r_mmod_Solvation_Energy-OPLS-2005>
-204.23063659668

> <b_mmod_Minimization_Converged-OPLS-2005>
0

> <r_mmod_RMS_Derivative-OPLS-2005>
4.48666000366211

$$$$
57
                    3D
 Structure written by MMmdl.
155163  0  0  1  0            999 V2000
  -30.6293  -14.6395   20.4830 C   0  0  0  0  0  0
  -30.4426  -12.3831   19.4507 C   0  0  0  0  0  0
  -29.5110  -12.4891   18.2223 C   0  0  0  0  0  0
  -28.0344  -12.3288   18.6381 C   0  0  0  0  0  0
  -27.6557  -13.2114   19.8570 C   0  0  2  0  0  0
  -28.7025  -13.0714   20.9869 C   0  0  0  0  0  0
  -25.2558  -13.8144   20.5610 C   0  0  0  0  0  0
  -24.1842  -13.0434   20.9205 C   0  0  0  0  0  0
  -24.6397  -11.6905   20.8758 C   0  0  0  0  0  0
  -23.9049  -10.4291   21.0416 C   0  0  0  0  0  0
  -24.3607   -9.4206   21.9181 C   0  0  0  0  0  0
  -23.6294   -8.2238   22.0744 C   0  0  0  0  0  0
  -22.4271   -8.0274   21.3539 C   0  0  0  0  0  0
  -21.9892   -9.0258   20.4657 C   0  0  0  0  0  0
  -22.7211  -10.2147   20.3071 C   0  0  0  0  0  0
  -21.6850   -6.0730   22.5281 C   0  0  0  0  0  0
  -21.4002   -6.5634   23.8214 C   0  0  0  0  0  0
  -21.3661   -5.6785   24.9179 C   0  0  0  0  0  0
  -21.6051   -4.3047   24.7224 C   0  0  0  0  0  0
  -21.8820   -3.8140   23.4346 C   0  0  0  0  0  0
  -21.9189   -4.6956   22.3406 C   0  0  0  0  0  0
  -22.7866  -13.5243   21.1864 C   0  0  0  0  0  0
  -22.1663   -4.2140   21.0987 F   0  0  0  0  0  0
  -21.5632   -3.4530   25.7736 F   0  0  0  0  0  0
  -30.0216  -13.4111   20.4250 N   0  0  0  0  0  0
  -26.2997  -12.9333   20.3265 N   0  0  0  0  0  0
  -25.9322  -11.6494   20.5765 N   0  0  0  0  0  0
  -22.0498  -12.8271   22.0431 N   0  0  0  0  0  0
  -25.4220  -15.1850   20.3869 N   0  0  0  0  0  0
  -31.7891  -14.7967   20.0871 O   0  0  0  0  0  0
  -21.6637   -6.8872   21.4240 O   0  0  0  0  0  0
  -22.3563  -14.5550   20.6686 O   0  0  0  0  0  0
  -24.6279  -31.8629   23.2029 C   0  0  0  0  0  0
  -25.9133  -32.4784   23.8361 C   0  0  1  0  0  0
  -27.2161  -27.3130   20.1231 C   0  0  0  0  0  0
  -25.5977  -33.8581   24.2317 N   0  0  0  0  0  0
  -23.4203  -30.4899   21.5454 C   0  0  2  0  0  0
  -24.8641  -28.9448   20.1127 C   0  0  0  0  0  0
  -22.7486  -29.4661   22.4908 C   0  0  0  0  0  0
  -18.0310  -28.1405   22.8478 C   0  0  0  0  0  0
  -24.1503  -36.7266   23.2632 C   0  0  0  0  0  0
  -25.9630  -30.7910   21.3751 C   0  0  0  0  0  0
  -26.0355  -29.4184   20.7181 C   0  0  0  0  0  0
  -27.2137  -28.6141   20.7146 C   0  0  0  0  0  0
  -26.0224  -26.8983   19.4846 C   0  0  0  0  0  0
  -24.8601  -27.6904   19.4870 C   0  0  0  0  0  0
  -23.6360  -29.8292   20.1593 C   0  0  0  0  0  0
  -25.4126  -36.3078   24.0339 C   0  0  1  0  0  0
  -20.5910  -28.3710   23.1261 C   0  0  2  0  0  0
  -20.6798  -26.9434   22.5398 C   0  0  0  0  0  0
  -19.5778  -26.6409   21.5202 C   0  0  0  0  0  0
  -18.1962  -26.7944   22.1624 C   0  0  0  0  0  0
  -19.1564  -28.8874   23.2869 C   0  0  0  0  0  0
  -18.9482  -30.1473   23.8888 C   0  0  0  0  0  0
  -17.6482  -30.6598   24.0575 C   0  0  0  0  0  0
  -25.9065  -34.9449   23.5121 C   0  0  0  0  0  0
  -16.5371  -29.9094   23.6338 C   0  0  0  0  0  0
  -16.7299  -28.6519   23.0344 C   0  0  0  0  0  0
  -26.4512  -31.6566   25.0710 C   0  0  0  0  0  0
  -25.3791  -31.3859   26.1528 C   0  0  0  0  0  0
  -27.0182  -30.2926   24.6146 C   0  0  0  0  0  0
  -27.6245  -32.4153   25.7341 C   0  0  0  0  0  0
  -27.5592  -37.1792   24.8479 C   0  0  0  0  0  0
  -21.4207  -29.3057   22.3642 N   0  0  0  0  0  0
  -26.4311  -37.3772   23.9414 N   0  0  0  0  0  0
  -24.6900  -31.0646   22.0979 N   0  0  0  0  0  0
  -23.4205  -28.8210   23.3000 O   0  0  0  0  0  0
  -28.3243  -26.4495   20.1847 O   0  0  0  0  0  0
  -26.5594  -34.8910   22.4659 O   0  0  0  0  0  0
  -23.5443  -32.1432   23.7358 O   0  0  0  0  0  0
  -30.6917  -19.1783   19.8476 C   0  0  0  0  0  0
  -28.8531  -17.9100   21.3314 C   0  0  0  0  0  0
  -29.6848  -19.9640   20.4989 C   0  0  0  0  0  0
  -29.8748  -17.1277   20.7012 C   0  0  0  0  0  0
  -28.8074  -22.4075   20.6152 C   0  0  0  0  0  0
  -31.7348  -19.8276   18.9544 C   0  0  0  0  0  0
  -27.7717  -17.2667   22.1864 C   0  0  0  0  0  0
  -29.2106  -23.9386   20.5041 C   0  0  0  0  0  0
  -28.0497  -24.9887   20.1904 C   0  0  0  0  0  0
  -28.7670  -19.2756   21.2366 N   0  0  0  0  0  0
  -30.7845  -17.8113   19.9498 N   0  0  0  0  0  0
  -29.7382  -21.4261   20.3796 N   0  0  0  0  0  0
  -29.8285  -15.6761   20.8768 N   0  0  0  0  0  0
  -27.6418  -22.1334   20.9126 O   0  0  0  0  0  0
  -31.4840  -12.5021   19.1441 H   0  0  0  0  0  0
  -30.3769  -11.3898   19.8966 H   0  0  0  0  0  0
  -29.7754  -11.7297   17.4837 H   0  0  0  0  0  0
  -29.6536  -13.4520   17.7296 H   0  0  0  0  0  0
  -27.8752  -11.2788   18.8866 H   0  0  0  0  0  0
  -27.3773  -12.5411   17.7951 H   0  0  0  0  0  0
  -27.6746  -14.2440   19.5076 H   0  0  0  0  0  0
  -28.7128  -12.0503   21.3712 H   0  0  0  0  0  0
  -28.4465  -13.7042   21.8382 H   0  0  0  0  0  0
  -25.2773   -9.5684   22.4728 H   0  0  0  0  0  0
  -24.0025   -7.4618   22.7443 H   0  0  0  0  0  0
  -21.0823   -8.8780   19.8968 H   0  0  0  0  0  0
  -22.3667  -10.9684   19.6186 H   0  0  0  0  0  0
  -21.1985   -7.6139   23.9715 H   0  0  0  0  0  0
  -21.1485   -6.0514   25.9085 H   0  0  0  0  0  0
  -22.0593   -2.7597   23.2844 H   0  0  0  0  0  0
  -22.4104  -11.9962   22.4881 H   0  0  0  0  0  0
  -21.1120  -13.1330   22.2631 H   0  0  0  0  0  0
  -24.6282  -15.8134   20.4452 H   0  0  0  0  0  0
  -26.2190  -15.5967   19.9186 H   0  0  0  0  0  0
  -26.7193  -32.5451   23.1098 H   0  0  0  0  0  0
  -25.0204  -33.9734   25.0519 H   0  0  0  0  0  0
  -22.7155  -31.3119   21.4052 H   0  0  0  0  0  0
  -23.3817  -35.9538   23.3201 H   0  0  0  0  0  0
  -24.3634  -36.8969   22.2068 H   0  0  0  0  0  0
  -23.7175  -37.6409   23.6699 H   0  0  0  0  0  0
  -26.0995  -31.5524   20.6059 H   0  0  0  0  0  0
  -26.8426  -30.8379   22.0043 H   0  0  0  0  0  0
  -28.1100  -28.9689   21.2055 H   0  0  0  0  0  0
  -25.9512  -25.9468   18.9802 H   0  0  0  0  0  0
  -23.9624  -27.3253   19.0065 H   0  0  0  0  0  0
  -23.7624  -30.6069   19.4058 H   0  0  0  0  0  0
  -22.7520  -29.2659   19.8545 H   0  0  0  0  0  0
  -25.1312  -36.1926   25.0835 H   0  0  0  0  0  0
  -21.0038  -28.3297   24.1367 H   0  0  0  0  0  0
  -20.5709  -26.2328   23.3606 H   0  0  0  0  0  0
  -21.6670  -26.7472   22.1197 H   0  0  0  0  0  0
  -19.6939  -25.6318   21.1248 H   0  0  0  0  0  0
  -19.6711  -27.3203   20.6718 H   0  0  0  0  0  0
  -17.4234  -26.6673   21.4029 H   0  0  0  0  0  0
  -18.0380  -26.0097   22.9041 H   0  0  0  0  0  0
  -19.7958  -30.7295   24.2243 H   0  0  0  0  0  0
  -17.5042  -31.6270   24.5187 H   0  0  0  0  0  0
  -15.5371  -30.2994   23.7675 H   0  0  0  0  0  0
  -15.8707  -28.0852   22.7029 H   0  0  0  0  0  0
  -24.5680  -30.7553   25.7887 H   0  0  0  0  0  0
  -24.9349  -32.3117   26.5194 H   0  0  0  0  0  0
  -25.8077  -30.8758   27.0161 H   0  0  0  0  0  0
  -26.2620  -29.6710   24.1335 H   0  0  0  0  0  0
  -27.3985  -29.7200   25.4613 H   0  0  0  0  0  0
  -27.8523  -30.4109   23.9225 H   0  0  0  0  0  0
  -27.3174  -33.3669   26.1685 H   0  0  0  0  0  0
  -28.4140  -32.6276   25.0116 H   0  0  0  0  0  0
  -28.0746  -31.8300   26.5373 H   0  0  0  0  0  0
  -28.2700  -38.0003   24.7440 H   0  0  0  0  0  0
  -28.0997  -36.2540   24.6412 H   0  0  0  0  0  0
  -27.2305  -37.1582   25.8884 H   0  0  0  0  0  0
  -20.9380  -29.8752   21.6832 H   0  0  0  0  0  0
  -26.0197  -38.2862   24.1370 H   0  0  0  0  0  0
  -32.3254  -20.5556   19.5096 H   0  0  0  0  0  0
  -31.2526  -20.3355   18.1185 H   0  0  0  0  0  0
  -32.4234  -19.0910   18.5395 H   0  0  0  0  0  0
  -27.5479  -16.2473   21.8765 H   0  0  0  0  0  0
  -26.8380  -17.8256   22.1192 H   0  0  0  0  0  0
  -28.0809  -17.2402   23.2314 H   0  0  0  0  0  0
  -29.9973  -24.0376   19.7544 H   0  0  0  0  0  0
  -29.6727  -24.2107   21.4547 H   0  0  0  0  0  0
  -27.2426  -24.8170   20.9073 H   0  0  0  0  0  0
  -27.6498  -24.7057   19.2161 H   0  0  0  0  0  0
  -30.6330  -21.7761   20.0693 H   0  0  0  0  0  0
  -28.9646  -15.3496   21.2765 H   0  0  0  0  0  0
  1 25  1  0  0  0
  1 30  2  0  0  0
  1 83  1  0  0  0
  2  3  1  0  0  0
  2 25  1  0  0  0
  2 85  1  0  0  0
  2 86  1  0  0  0
  3  4  1  0  0  0
  3 87  1  0  0  0
  3 88  1  0  0  0
  4  5  1  0  0  0
  4 89  1  0  0  0
  4 90  1  0  0  0
  5  6  1  0  0  0
  5 26  1  0  0  0
  5 91  1  0  0  0
  6 25  1  0  0  0
  6 92  1  0  0  0
  6 93  1  0  0  0
  7  8  2  0  0  0
  7 26  1  0  0  0
  7 29  1  0  0  0
  8  9  1  0  0  0
  8 22  1  0  0  0
  9 10  1  0  0  0
  9 27  2  0  0  0
 10 11  2  0  0  0
 10 15  1  0  0  0
 11 12  1  0  0  0
 11 94  1  0  0  0
 12 13  2  0  0  0
 12 95  1  0  0  0
 13 14  1  0  0  0
 13 31  1  0  0  0
 14 15  2  0  0  0
 14 96  1  0  0  0
 15 97  1  0  0  0
 16 17  2  0  0  0
 16 21  1  0  0  0
 16 31  1  0  0  0
 17 18  1  0  0  0
 17 98  1  0  0  0
 18 19  2  0  0  0
 18 99  1  0  0  0
 19 20  1  0  0  0
 19 24  1  0  0  0
 20 21  2  0  0  0
 20100  1  0  0  0
 21 23  1  0  0  0
 22 28  1  0  0  0
 22 32  2  0  0  0
 26 27  1  0  0  0
 28101  1  0  0  0
 28102  1  0  0  0
 29103  1  0  0  0
 29104  1  0  0  0
 33 34  1  0  0  0
 33 66  1  0  0  0
 33 70  2  0  0  0
 34 36  1  0  0  0
 34 59  1  0  0  0
 34105  1  0  0  0
 35 44  2  0  0  0
 35 45  1  0  0  0
 35 68  1  0  0  0
 36 56  1  0  0  0
 36106  1  0  0  0
 37 39  1  0  0  0
 37 47  1  0  0  0
 37 66  1  0  0  0
 37107  1  0  0  0
 38 43  2  0  0  0
 38 46  1  0  0  0
 38 47  1  0  0  0
 39 64  1  0  0  0
 39 67  2  0  0  0
 40 52  1  0  0  0
 40 53  2  0  0  0
 40 58  1  0  0  0
 41108  1  0  0  0
 41109  1  0  0  0
 41110  1  0  0  0
 41 48  1  0  0  0
 42 43  1  0  0  0
 42 66  1  0  0  0
 42111  1  0  0  0
 42112  1  0  0  0
 43 44  1  0  0  0
 44113  1  0  0  0
 45 46  2  0  0  0
 45114  1  0  0  0
 46115  1  0  0  0
 47116  1  0  0  0
 47117  1  0  0  0
 48 56  1  0  0  0
 48 65  1  0  0  0
 48118  1  0  0  0
 49 50  1  0  0  0
 49 53  1  0  0  0
 49 64  1  0  0  0
 49119  1  0  0  0
 50 51  1  0  0  0
 50120  1  0  0  0
 50121  1  0  0  0
 51 52  1  0  0  0
 51122  1  0  0  0
 51123  1  0  0  0
 52124  1  0  0  0
 52125  1  0  0  0
 53 54  1  0  0  0
 54 55  2  0  0  0
 54126  1  0  0  0
 55 57  1  0  0  0
 55127  1  0  0  0
 56 69  2  0  0  0
 57 58  2  0  0  0
 57128  1  0  0  0
 58129  1  0  0  0
 59 60  1  0  0  0
 59 61  1  0  0  0
 59 62  1  0  0  0
 60130  1  0  0  0
 60131  1  0  0  0
 60132  1  0  0  0
 61133  1  0  0  0
 61134  1  0  0  0
 61135  1  0  0  0
 62136  1  0  0  0
 62137  1  0  0  0
 62138  1  0  0  0
 63 65  1  0  0  0
 63139  1  0  0  0
 63140  1  0  0  0
 63141  1  0  0  0
 64142  1  0  0  0
 65143  1  0  0  0
 68 79  1  0  0  0
 71 73  2  0  0  0
 71 76  1  0  0  0
 71 81  1  0  0  0
 72 74  1  0  0  0
 72 77  1  0  0  0
 72 80  2  0  0  0
 73 80  1  0  0  0
 73 82  1  0  0  0
 74 81  2  0  0  0
 74 83  1  0  0  0
 75 78  1  0  0  0
 75 82  1  0  0  0
 75 84  2  0  0  0
 76144  1  0  0  0
 76145  1  0  0  0
 76146  1  0  0  0
 77147  1  0  0  0
 77148  1  0  0  0
 77149  1  0  0  0
 78 79  1  0  0  0
 78150  1  0  0  0
 78151  1  0  0  0
 79152  1  0  0  0
 79153  1  0  0  0
 82154  1  0  0  0
 83155  1  0  0  0
M  ISO  4   1 100  68 101  79 101  83 100
M  END
> <chiral flag>
0

> <version>
0

> <s_m_source_file>
/data/baiqing/PycharmProjects/Reinvent-master-3.2/result/LINK_invent/BTK/process_docking_weight1_custom_product_contain_oxygen_bond_distance_aromatic_linkinvent_7_9_3/rearranged_h_0110.sdf

> <i_m_source_file_index>
57

> <r_mmod_Potential_Energy-OPLS-2005>
-59.9751815795898

> <r_mmod_Stretch_Energy-OPLS-2005>
85.1202392578125

> <r_mmod_Bend_Energy-OPLS-2005>
141.767913818359

> <r_mmod_Torsional_Energy-OPLS-2005>
206.897842407227

> <r_mmod_Improper_Torsional_Energy-OPLS-2005>
4.41021537780762

> <r_mmod_Van_der_Waal_Energy-OPLS-2005>
149.536499023438

> <r_mmod_Electrostatic_Energy-OPLS-2005>
-434.199951171875

> <r_mmod_Solvation_Energy-OPLS-2005>
-265.373718261719

> <b_mmod_Minimization_Converged-OPLS-2005>
0

> <r_mmod_RMS_Derivative-OPLS-2005>
2.68871665000916

$$$$
58
                    3D
 Structure written by MMmdl.
153161  0  0  1  0            999 V2000
  -30.6232  -14.7104   20.3489 C   0  0  0  0  0  0
  -30.4428  -12.4090   19.4427 C   0  0  0  0  0  0
  -29.5015  -12.4211   18.2182 C   0  0  0  0  0  0
  -28.0213  -12.2871   18.6393 C   0  0  0  0  0  0
  -27.6289  -13.1905   19.8402 C   0  0  2  0  0  0
  -28.6969  -13.1673   20.9537 C   0  0  0  0  0  0
  -25.2535  -13.8064   20.5753 C   0  0  0  0  0  0
  -24.1781  -13.0366   20.9243 C   0  0  0  0  0  0
  -24.6327  -11.6837   20.8807 C   0  0  0  0  0  0
  -23.9008  -10.4245   21.0433 C   0  0  0  0  0  0
  -24.3586   -9.4164   21.9192 C   0  0  0  0  0  0
  -23.6269   -8.2198   22.0749 C   0  0  0  0  0  0
  -22.4253   -8.0257   21.3533 C   0  0  0  0  0  0
  -21.9877   -9.0234   20.4642 C   0  0  0  0  0  0
  -22.7196  -10.2117   20.3062 C   0  0  0  0  0  0
  -21.6842   -6.0722   22.5269 C   0  0  0  0  0  0
  -21.4001   -6.5626   23.8206 C   0  0  0  0  0  0
  -21.3657   -5.6777   24.9169 C   0  0  0  0  0  0
  -21.6053   -4.3041   24.7215 C   0  0  0  0  0  0
  -21.8828   -3.8137   23.4333 C   0  0  0  0  0  0
  -21.9190   -4.6951   22.3392 C   0  0  0  0  0  0
  -22.7821  -13.5213   21.1874 C   0  0  0  0  0  0
  -22.1661   -4.2149   21.0963 F   0  0  0  0  0  0
  -21.5637   -3.4521   25.7722 F   0  0  0  0  0  0
  -30.0020  -13.4824   20.3523 N   0  0  0  0  0  0
  -26.2900  -12.9159   20.3368 N   0  0  0  0  0  0
  -25.9245  -11.6361   20.5849 N   0  0  0  0  0  0
  -22.0433  -12.8233   22.0426 N   0  0  0  0  0  0
  -25.4230  -15.1780   20.4149 N   0  0  0  0  0  0
  -31.8530  -14.7968   20.3191 O   0  0  0  0  0  0
  -21.6620   -6.8859   21.4232 O   0  0  0  0  0  0
  -22.3530  -14.5508   20.6690 O   0  0  0  0  0  0
  -24.6226  -31.8587   23.1985 C   0  0  0  0  0  0
  -25.9079  -32.4776   23.8310 C   0  0  1  0  0  0
  -27.2398  -27.3451   20.1355 C   0  0  0  0  0  0
  -25.5923  -33.8577   24.2268 N   0  0  0  0  0  0
  -23.4156  -30.4772   21.5397 C   0  0  2  0  0  0
  -24.8660  -28.9216   20.1202 C   0  0  0  0  0  0
  -22.7444  -29.4607   22.4938 C   0  0  0  0  0  0
  -18.0273  -28.1383   22.8482 C   0  0  0  0  0  0
  -24.1491  -36.7297   23.2633 C   0  0  0  0  0  0
  -25.9493  -30.8022   21.3570 C   0  0  0  0  0  0
  -26.0299  -29.4250   20.7154 C   0  0  0  0  0  0
  -27.2207  -28.6499   20.7071 C   0  0  0  0  0  0
  -26.0567  -26.8710   19.5338 C   0  0  0  0  0  0
  -24.8793  -27.6482   19.5227 C   0  0  0  0  0  0
  -23.6316  -29.7989   20.1597 C   0  0  0  0  0  0
  -25.4102  -36.3077   24.0323 C   0  0  1  0  0  0
  -20.5868  -28.3666   23.1300 C   0  0  2  0  0  0
  -20.6765  -26.9394   22.5415 C   0  0  0  0  0  0
  -19.5746  -26.6385   21.5204 C   0  0  0  0  0  0
  -18.1923  -26.7923   22.1618 C   0  0  0  0  0  0
  -19.1526  -28.8842   23.2892 C   0  0  0  0  0  0
  -18.9453  -30.1452   23.8901 C   0  0  0  0  0  0
  -17.6454  -30.6589   24.0565 C   0  0  0  0  0  0
  -25.9039  -34.9452   23.5091 C   0  0  0  0  0  0
  -16.5343  -29.9086   23.6340 C   0  0  0  0  0  0
  -16.7263  -28.6508   23.0349 C   0  0  0  0  0  0
  -26.4498  -31.6559   25.0655 C   0  0  0  0  0  0
  -25.3753  -31.3684   26.1396 C   0  0  0  0  0  0
  -27.0304  -30.2982   24.6034 C   0  0  0  0  0  0
  -27.6063  -32.4269   25.7445 C   0  0  0  0  0  0
  -27.5571  -37.1786   24.8464 C   0  0  0  0  0  0
  -21.4157  -29.3027   22.3697 N   0  0  0  0  0  0
  -26.4283  -37.3770   23.9418 N   0  0  0  0  0  0
  -24.6817  -31.0622   22.0906 N   0  0  0  0  0  0
  -23.4176  -28.8152   23.3014 O   0  0  0  0  0  0
  -28.3987  -26.5727   20.1024 O   0  0  0  0  0  0
  -26.5603  -34.8926   22.4654 O   0  0  0  0  0  0
  -23.5398  -32.1367   23.7337 O   0  0  0  0  0  0
  -30.1859  -19.7737   19.6274 C   0  0  0  0  0  0
  -28.4607  -19.1694   21.1782 C   0  0  0  0  0  0
  -29.8092  -17.3503   20.1407 C   0  0  0  0  0  0
  -29.0931  -20.1967   20.4322 C   0  0  0  0  0  0
  -30.5308  -18.3939   19.4661 C   0  0  0  0  0  0
  -28.8067  -17.7912   21.0468 C   0  0  0  0  0  0
  -29.1020  -22.6308   20.1688 C   0  0  0  0  0  0
  -29.8157  -15.8889   19.6678 C   0  0  0  0  0  0
  -28.4031  -23.9757   19.7349 C   0  0  0  0  0  0
  -28.4107  -25.2272   20.7015 C   0  0  0  0  0  0
  -29.2141  -15.6880   18.5672 N   0  0  0  0  0  0
  -28.4960  -21.5065   20.3875 N   0  0  0  0  0  0
  -31.5374  -18.1066   18.5339 N   0  0  0  0  0  0
  -28.0713  -16.8749   21.7237 F   0  0  0  0  0  0
  -31.4734  -12.5557   19.1158 H   0  0  0  0  0  0
  -30.4173  -11.4427   19.9478 H   0  0  0  0  0  0
  -29.7649  -11.6079   17.5406 H   0  0  0  0  0  0
  -29.6463  -13.3306   17.6392 H   0  0  0  0  0  0
  -27.8546  -11.2418   18.8979 H   0  0  0  0  0  0
  -27.3710  -12.4925   17.7882 H   0  0  0  0  0  0
  -27.5601  -14.1938   19.4490 H   0  0  0  0  0  0
  -28.7304  -12.1906   21.4379 H   0  0  0  0  0  0
  -28.4507  -13.8893   21.7342 H   0  0  0  0  0  0
  -25.2734   -9.5652   22.4767 H   0  0  0  0  0  0
  -23.9988   -7.4585   22.7456 H   0  0  0  0  0  0
  -21.0813   -8.8758   19.8948 H   0  0  0  0  0  0
  -22.3654  -10.9672   19.6187 H   0  0  0  0  0  0
  -21.1979   -7.6134   23.9712 H   0  0  0  0  0  0
  -21.1475   -6.0501   25.9078 H   0  0  0  0  0  0
  -22.0613   -2.7602   23.2824 H   0  0  0  0  0  0
  -22.4026  -11.9921   22.4878 H   0  0  0  0  0  0
  -21.1045  -13.1288   22.2556 H   0  0  0  0  0  0
  -24.6648  -15.8379   20.5505 H   0  0  0  0  0  0
  -26.2982  -15.6215   20.1655 H   0  0  0  0  0  0
  -26.7140  -32.5473   23.1060 H   0  0  0  0  0  0
  -25.0097  -33.9728   25.0432 H   0  0  0  0  0  0
  -22.7070  -31.2939   21.3896 H   0  0  0  0  0  0
  -23.3747  -35.9638   23.3291 H   0  0  0  0  0  0
  -24.3583  -36.8919   22.2048 H   0  0  0  0  0  0
  -23.7258  -37.6502   23.6658 H   0  0  0  0  0  0
  -26.0569  -31.5561   20.5752 H   0  0  0  0  0  0
  -26.8383  -30.8688   21.9730 H   0  0  0  0  0  0
  -28.1219  -29.0409   21.1580 H   0  0  0  0  0  0
  -26.0450  -25.8963   19.0668 H   0  0  0  0  0  0
  -23.9867  -27.2547   19.0558 H   0  0  0  0  0  0
  -23.7478  -30.5678   19.3947 H   0  0  0  0  0  0
  -22.7549  -29.2187   19.8641 H   0  0  0  0  0  0
  -25.1284  -36.1911   25.0813 H   0  0  0  0  0  0
  -20.9964  -28.3245   24.1417 H   0  0  0  0  0  0
  -20.5657  -26.2271   23.3607 H   0  0  0  0  0  0
  -21.6634  -26.7427   22.1210 H   0  0  0  0  0  0
  -19.6910  -25.6297   21.1229 H   0  0  0  0  0  0
  -19.6703  -27.3209   20.6744 H   0  0  0  0  0  0
  -17.4197  -26.6674   21.4026 H   0  0  0  0  0  0
  -18.0333  -26.0066   22.9015 H   0  0  0  0  0  0
  -19.7930  -30.7271   24.2266 H   0  0  0  0  0  0
  -17.5008  -31.6265   24.5163 H   0  0  0  0  0  0
  -15.5348  -30.2990   23.7648 H   0  0  0  0  0  0
  -15.8663  -28.0830   22.7046 H   0  0  0  0  0  0
  -24.5951  -30.7000   25.7741 H   0  0  0  0  0  0
  -24.8932  -32.2856   26.4788 H   0  0  0  0  0  0
  -25.8103  -30.8901   27.0180 H   0  0  0  0  0  0
  -26.2829  -29.6763   24.1095 H   0  0  0  0  0  0
  -27.4073  -29.7191   25.4477 H   0  0  0  0  0  0
  -27.8680  -30.4276   23.9170 H   0  0  0  0  0  0
  -27.2666  -33.3561   26.2025 H   0  0  0  0  0  0
  -28.3891  -32.6817   25.0291 H   0  0  0  0  0  0
  -28.0710  -31.8377   26.5365 H   0  0  0  0  0  0
  -28.2580  -38.0091   24.7500 H   0  0  0  0  0  0
  -28.1069  -36.2615   24.6290 H   0  0  0  0  0  0
  -27.2290  -37.1430   25.8868 H   0  0  0  0  0  0
  -20.9316  -29.8753   21.6920 H   0  0  0  0  0  0
  -26.0161  -38.2840   24.1427 H   0  0  0  0  0  0
  -30.7091  -20.5115   19.0348 H   0  0  0  0  0  0
  -27.6218  -19.4221   21.8112 H   0  0  0  0  0  0
  -30.1933  -22.7006   20.1998 H   0  0  0  0  0  0
  -27.3731  -23.7584   19.4505 H   0  0  0  0  0  0
  -28.8919  -24.2782   18.8090 H   0  0  0  0  0  0
  -29.3307  -25.1901   21.2852 H   0  0  0  0  0  0
  -27.6080  -25.1355   21.4344 H   0  0  0  0  0  0
  -28.7871  -16.5358   18.2153 H   0  0  0  0  0  0
  -31.5325  -17.1907   18.0936 H   0  0  0  0  0  0
  -31.8065  -18.8381   17.8832 H   0  0  0  0  0  0
  1 25  1  0  0  0
  1 30  2  0  0  0
  1 78  1  0  0  0
  2  3  1  0  0  0
  2 25  1  0  0  0
  2 85  1  0  0  0
  2 86  1  0  0  0
  3  4  1  0  0  0
  3 87  1  0  0  0
  3 88  1  0  0  0
  4  5  1  0  0  0
  4 89  1  0  0  0
  4 90  1  0  0  0
  5  6  1  0  0  0
  5 26  1  0  0  0
  5 91  1  0  0  0
  6 25  1  0  0  0
  6 92  1  0  0  0
  6 93  1  0  0  0
  7  8  2  0  0  0
  7 26  1  0  0  0
  7 29  1  0  0  0
  8  9  1  0  0  0
  8 22  1  0  0  0
  9 10  1  0  0  0
  9 27  2  0  0  0
 10 11  2  0  0  0
 10 15  1  0  0  0
 11 12  1  0  0  0
 11 94  1  0  0  0
 12 13  2  0  0  0
 12 95  1  0  0  0
 13 14  1  0  0  0
 13 31  1  0  0  0
 14 15  2  0  0  0
 14 96  1  0  0  0
 15 97  1  0  0  0
 16 17  2  0  0  0
 16 21  1  0  0  0
 16 31  1  0  0  0
 17 18  1  0  0  0
 17 98  1  0  0  0
 18 19  2  0  0  0
 18 99  1  0  0  0
 19 20  1  0  0  0
 19 24  1  0  0  0
 20 21  2  0  0  0
 20100  1  0  0  0
 21 23  1  0  0  0
 22 28  1  0  0  0
 22 32  2  0  0  0
 26 27  1  0  0  0
 28101  1  0  0  0
 28102  1  0  0  0
 29103  1  0  0  0
 29104  1  0  0  0
 33 34  1  0  0  0
 33 66  1  0  0  0
 33 70  2  0  0  0
 34 36  1  0  0  0
 34 59  1  0  0  0
 34105  1  0  0  0
 35 44  2  0  0  0
 35 45  1  0  0  0
 35 68  1  0  0  0
 36 56  1  0  0  0
 36106  1  0  0  0
 37 39  1  0  0  0
 37 47  1  0  0  0
 37 66  1  0  0  0
 37107  1  0  0  0
 38 43  2  0  0  0
 38 46  1  0  0  0
 38 47  1  0  0  0
 39 64  1  0  0  0
 39 67  2  0  0  0
 40 52  1  0  0  0
 40 53  2  0  0  0
 40 58  1  0  0  0
 41108  1  0  0  0
 41109  1  0  0  0
 41110  1  0  0  0
 41 48  1  0  0  0
 42 43  1  0  0  0
 42 66  1  0  0  0
 42111  1  0  0  0
 42112  1  0  0  0
 43 44  1  0  0  0
 44113  1  0  0  0
 45 46  2  0  0  0
 45114  1  0  0  0
 46115  1  0  0  0
 47116  1  0  0  0
 47117  1  0  0  0
 48 56  1  0  0  0
 48 65  1  0  0  0
 48118  1  0  0  0
 49 50  1  0  0  0
 49 53  1  0  0  0
 49 64  1  0  0  0
 49119  1  0  0  0
 50 51  1  0  0  0
 50120  1  0  0  0
 50121  1  0  0  0
 51 52  1  0  0  0
 51122  1  0  0  0
 51123  1  0  0  0
 52124  1  0  0  0
 52125  1  0  0  0
 53 54  1  0  0  0
 54 55  2  0  0  0
 54126  1  0  0  0
 55 57  1  0  0  0
 55127  1  0  0  0
 56 69  2  0  0  0
 57 58  2  0  0  0
 57128  1  0  0  0
 58129  1  0  0  0
 59 60  1  0  0  0
 59 61  1  0  0  0
 59 62  1  0  0  0
 60130  1  0  0  0
 60131  1  0  0  0
 60132  1  0  0  0
 61133  1  0  0  0
 61134  1  0  0  0
 61135  1  0  0  0
 62136  1  0  0  0
 62137  1  0  0  0
 62138  1  0  0  0
 63 65  1  0  0  0
 63139  1  0  0  0
 63140  1  0  0  0
 63141  1  0  0  0
 64142  1  0  0  0
 65143  1  0  0  0
 68 80  1  0  0  0
 71 74  2  0  0  0
 71 75  1  0  0  0
 71144  1  0  0  0
 72 74  1  0  0  0
 72 76  2  0  0  0
 72145  1  0  0  0
 73 75  2  0  0  0
 73 76  1  0  0  0
 73 78  1  0  0  0
 74 82  1  0  0  0
 75 83  1  0  0  0
 76 84  1  0  0  0
 77 79  1  0  0  0
 77 82  2  0  0  0
 77146  1  0  0  0
 78 81  2  0  0  0
 79 80  1  0  0  0
 79147  1  0  0  0
 79148  1  0  0  0
 80149  1  0  0  0
 80150  1  0  0  0
 81151  1  0  0  0
 83152  1  0  0  0
 83153  1  0  0  0
M  ISO  4   1 100  68 101  78 100  80 101
M  END
> <chiral flag>
0

> <version>
0

> <s_m_source_file>
/data/baiqing/PycharmProjects/Reinvent-master-3.2/result/LINK_invent/BTK/process_docking_weight1_custom_product_contain_oxygen_bond_distance_aromatic_linkinvent_7_9_3/rearranged_h_0110.sdf

> <i_m_source_file_index>
58

> <r_mmod_Potential_Energy-OPLS-2005>
423.819122314453

> <r_mmod_Stretch_Energy-OPLS-2005>
82.4107360839844

> <r_mmod_Bend_Energy-OPLS-2005>
153.928588867188

> <r_mmod_Torsional_Energy-OPLS-2005>
309.8056640625

> <r_mmod_Improper_Torsional_Energy-OPLS-2005>
31.954158782959

> <r_mmod_Van_der_Waal_Energy-OPLS-2005>
140.686614990234

> <r_mmod_Electrostatic_Energy-OPLS-2005>
-158.00666809082

> <r_mmod_Solvation_Energy-OPLS-2005>
-206.539779663086

> <b_mmod_Minimization_Converged-OPLS-2005>
0

> <r_mmod_RMS_Derivative-OPLS-2005>
2.32096314430237

$$$$
59
                    3D
 Structure written by MMmdl.
166174  0  0  1  0            999 V2000
  -30.8377  -14.2632   20.8015 C   0  0  0  0  0  0
  -30.4070  -12.2966   19.3694 C   0  0  0  0  0  0
  -29.4628  -12.5412   18.1817 C   0  0  0  0  0  0
  -27.9959  -12.3846   18.6164 C   0  0  0  0  0  0
  -27.6690  -13.1958   19.8962 C   0  0  2  0  0  0
  -28.7132  -12.9340   21.0073 C   0  0  0  0  0  0
  -25.2614  -13.8153   20.5721 C   0  0  0  0  0  0
  -24.1835  -13.0459   20.9165 C   0  0  0  0  0  0
  -24.6346  -11.6902   20.8726 C   0  0  0  0  0  0
  -23.9011  -10.4327   21.0415 C   0  0  0  0  0  0
  -24.3566   -9.4253   21.9192 C   0  0  0  0  0  0
  -23.6269   -8.2271   22.0781 C   0  0  0  0  0  0
  -22.4269   -8.0279   21.3561 C   0  0  0  0  0  0
  -21.9886   -9.0251   20.4652 C   0  0  0  0  0  0
  -22.7191  -10.2150   20.3060 C   0  0  0  0  0  0
  -21.6828   -6.0739   22.5302 C   0  0  0  0  0  0
  -21.4004   -6.5647   23.8244 C   0  0  0  0  0  0
  -21.3658   -5.6822   24.9203 C   0  0  0  0  0  0
  -21.5999   -4.3081   24.7250 C   0  0  0  0  0  0
  -21.8778   -3.8174   23.4385 C   0  0  0  0  0  0
  -21.9167   -4.6983   22.3430 C   0  0  0  0  0  0
  -22.7870  -13.5310   21.1833 C   0  0  0  0  0  0
  -22.1636   -4.2150   21.1022 F   0  0  0  0  0  0
  -21.5601   -3.4584   25.7779 F   0  0  0  0  0  0
  -30.0527  -13.2104   20.4610 N   0  0  0  0  0  0
  -26.3052  -12.9318   20.3520 N   0  0  0  0  0  0
  -25.9279  -11.6480   20.5833 N   0  0  0  0  0  0
  -22.0487  -12.8295   22.0379 N   0  0  0  0  0  0
  -25.4388  -15.1887   20.4107 N   0  0  0  0  0  0
  -31.7313  -14.6724   20.0496 O   0  0  0  0  0  0
  -21.6618   -6.8883   21.4269 O   0  0  0  0  0  0
  -22.3572  -14.5658   20.6743 O   0  0  0  0  0  0
  -24.6125  -31.8691   23.2110 C   0  0  0  0  0  0
  -25.9031  -32.4821   23.8406 C   0  0  1  0  0  0
  -27.2469  -27.4598   20.0953 C   0  0  0  0  0  0
  -25.5915  -33.8630   24.2350 N   0  0  0  0  0  0
  -23.3976  -30.4851   21.5559 C   0  0  2  0  0  0
  -24.8438  -28.9522   20.1221 C   0  0  0  0  0  0
  -22.7389  -29.4653   22.5098 C   0  0  0  0  0  0
  -18.0258  -28.1374   22.8524 C   0  0  0  0  0  0
  -24.1489  -36.7306   23.2640 C   0  0  0  0  0  0
  -25.9219  -30.8398   21.3609 C   0  0  0  0  0  0
  -26.0007  -29.4748   20.7119 C   0  0  0  0  0  0
  -27.2011  -28.7361   20.6930 C   0  0  0  0  0  0
  -26.0669  -26.9386   19.5112 C   0  0  0  0  0  0
  -24.8710  -27.6829   19.5189 C   0  0  0  0  0  0
  -23.5980  -29.8064   20.1736 C   0  0  0  0  0  0
  -25.4116  -36.3107   24.0340 C   0  0  1  0  0  0
  -20.5843  -28.3634   23.1351 C   0  0  2  0  0  0
  -20.6732  -26.9370   22.5431 C   0  0  0  0  0  0
  -19.5696  -26.6360   21.5250 C   0  0  0  0  0  0
  -18.1869  -26.7946   22.1615 C   0  0  0  0  0  0
  -19.1521  -28.8840   23.2920 C   0  0  0  0  0  0
  -18.9448  -30.1481   23.8882 C   0  0  0  0  0  0
  -17.6430  -30.6586   24.0576 C   0  0  0  0  0  0
  -25.9034  -34.9477   23.5140 C   0  0  0  0  0  0
  -16.5326  -29.9072   23.6372 C   0  0  0  0  0  0
  -16.7245  -28.6498   23.0382 C   0  0  0  0  0  0
  -26.4465  -31.6611   25.0735 C   0  0  0  0  0  0
  -25.3766  -31.3733   26.1521 C   0  0  0  0  0  0
  -27.0294  -30.3047   24.6128 C   0  0  0  0  0  0
  -27.6050  -32.4347   25.7478 C   0  0  0  0  0  0
  -27.5633  -37.1765   24.8442 C   0  0  0  0  0  0
  -21.4125  -29.3036   22.3822 N   0  0  0  0  0  0
  -26.4290  -37.3797   23.9464 N   0  0  0  0  0  0
  -24.6612  -31.0785   22.1011 N   0  0  0  0  0  0
  -23.4166  -28.8203   23.3141 O   0  0  0  0  0  0
  -28.4590  -26.8036   20.0928 O   0  0  0  0  0  0
  -26.5595  -34.8923   22.4707 O   0  0  0  0  0  0
  -23.5327  -32.1477   23.7500 O   0  0  0  0  0  0
  -33.2653  -17.3501   21.3633 C   0  0  0  0  0  0
  -30.9798  -17.9297   21.9692 C   0  0  0  0  0  0
  -33.4236  -18.6066   20.7417 C   0  0  0  0  0  0
  -31.1353  -19.1791   21.3511 C   0  0  0  0  0  0
  -32.0489  -17.0085   22.0077 C   0  0  0  0  0  0
  -32.3502  -19.5256   20.7270 C   0  0  0  0  0  0
  -31.5631  -21.3969   19.3881 C   0  0  0  0  0  0
  -31.6331  -16.0987   24.2700 C   0  0  0  0  0  0
  -30.7026  -14.8272   22.2348 C   0  0  0  0  0  0
  -31.5210  -22.9248   19.3384 C   0  0  0  0  0  0
  -30.0854  -23.4276   19.6140 C   0  0  0  0  0  0
  -29.9594  -24.9435   19.8246 C   0  0  0  0  0  0
  -28.4917  -25.4054   19.8422 C   0  0  0  0  0  0
  -31.8796  -15.6939   22.7915 C   0  0  1  0  0  0
  -32.6776  -16.6195   24.9093 N   0  0  0  0  0  0
  -32.4937  -20.8146   20.1575 N   0  0  0  0  0  0
  -30.7476  -20.7498   18.7262 O   0  0  0  0  0  0
  -30.5512  -15.9421   24.8343 O   0  0  0  0  0  0
  -33.0722  -14.9167   22.8292 O   0  0  0  0  0  0
  -31.4473  -12.3968   19.0588 H   0  0  0  0  0  0
  -30.3086  -11.2676   19.7161 H   0  0  0  0  0  0
  -29.6887  -11.8457   17.3714 H   0  0  0  0  0  0
  -29.6235  -13.5452   17.7836 H   0  0  0  0  0  0
  -27.8067  -11.3237   18.7891 H   0  0  0  0  0  0
  -27.3359  -12.6907   17.8037 H   0  0  0  0  0  0
  -27.7372  -14.2512   19.6331 H   0  0  0  0  0  0
  -28.6734  -11.8954   21.3358 H   0  0  0  0  0  0
  -28.4735  -13.5302   21.8871 H   0  0  0  0  0  0
  -25.2698   -9.5712   22.4785 H   0  0  0  0  0  0
  -23.9946   -7.4671   22.7546 H   0  0  0  0  0  0
  -21.0792   -8.8739   19.8979 H   0  0  0  0  0  0
  -22.3637  -10.9663   19.6159 H   0  0  0  0  0  0
  -21.2022   -7.6160   23.9733 H   0  0  0  0  0  0
  -21.1474   -6.0576   25.9090 H   0  0  0  0  0  0
  -22.0522   -2.7627   23.2913 H   0  0  0  0  0  0
  -22.4052  -11.9875   22.4650 H   0  0  0  0  0  0
  -21.1138  -13.1387   22.2712 H   0  0  0  0  0  0
  -24.6751  -15.8500   20.4968 H   0  0  0  0  0  0
  -26.3002  -15.6169   20.0960 H   0  0  0  0  0  0
  -26.7130  -32.5519   23.1184 H   0  0  0  0  0  0
  -25.0173  -33.9814   25.0562 H   0  0  0  0  0  0
  -22.6855  -31.2992   21.4132 H   0  0  0  0  0  0
  -23.3809  -35.9565   23.3132 H   0  0  0  0  0  0
  -24.3652  -36.9105   22.2102 H   0  0  0  0  0  0
  -23.7081  -37.6390   23.6758 H   0  0  0  0  0  0
  -26.0353  -31.6039   20.5906 H   0  0  0  0  0  0
  -26.8095  -30.8918   21.9793 H   0  0  0  0  0  0
  -28.0988  -29.1426   21.1361 H   0  0  0  0  0  0
  -26.0474  -25.9711   19.0345 H   0  0  0  0  0  0
  -23.9805  -27.2736   19.0632 H   0  0  0  0  0  0
  -23.6790  -30.5728   19.4013 H   0  0  0  0  0  0
  -22.7297  -29.2031   19.8979 H   0  0  0  0  0  0
  -25.1293  -36.1980   25.0815 H   0  0  0  0  0  0
  -20.9924  -28.3183   24.1483 H   0  0  0  0  0  0
  -20.5669  -26.2253   23.3636 H   0  0  0  0  0  0
  -21.6594  -26.7412   22.1202 H   0  0  0  0  0  0
  -19.6812  -25.6253   21.1319 H   0  0  0  0  0  0
  -19.6658  -27.3186   20.6803 H   0  0  0  0  0  0
  -17.4170  -26.6857   21.3953 H   0  0  0  0  0  0
  -18.0130  -26.0038   22.8931 H   0  0  0  0  0  0
  -19.7895  -30.7388   24.2161 H   0  0  0  0  0  0
  -17.4941  -31.6292   24.5141 H   0  0  0  0  0  0
  -15.5316  -30.2972   23.7675 H   0  0  0  0  0  0
  -15.8656  -28.0825   22.7074 H   0  0  0  0  0  0
  -24.5869  -30.7155   25.7872 H   0  0  0  0  0  0
  -24.9048  -32.2910   26.5073 H   0  0  0  0  0  0
  -25.8129  -30.8808   27.0237 H   0  0  0  0  0  0
  -26.2816  -29.6771   24.1258 H   0  0  0  0  0  0
  -27.4147  -29.7312   25.4580 H   0  0  0  0  0  0
  -27.8628  -30.4357   23.9207 H   0  0  0  0  0  0
  -27.2702  -33.3710   26.1970 H   0  0  0  0  0  0
  -28.3896  -32.6838   25.0310 H   0  0  0  0  0  0
  -28.0688  -31.8542   26.5465 H   0  0  0  0  0  0
  -28.2492  -38.0215   24.7725 H   0  0  0  0  0  0
  -28.1290  -36.2772   24.5970 H   0  0  0  0  0  0
  -27.2405  -37.1037   25.8838 H   0  0  0  0  0  0
  -20.9284  -29.8838   21.7118 H   0  0  0  0  0  0
  -26.0186  -38.2851   24.1589 H   0  0  0  0  0  0
  -34.0923  -16.6520   21.3600 H   0  0  0  0  0  0
  -30.0379  -17.7026   22.4508 H   0  0  0  0  0  0
  -34.3645  -18.8577   20.2724 H   0  0  0  0  0  0
  -30.3112  -19.8785   21.3792 H   0  0  0  0  0  0
  -29.7735  -15.3945   22.2813 H   0  0  0  0  0  0
  -30.5527  -13.9769   22.9021 H   0  0  0  0  0  0
  -31.8576  -23.2518   18.3528 H   0  0  0  0  0  0
  -32.2196  -23.3417   20.0669 H   0  0  0  0  0  0
  -29.6784  -22.9205   20.4904 H   0  0  0  0  0  0
  -29.4474  -23.1377   18.7786 H   0  0  0  0  0  0
  -30.4869  -25.4686   19.0282 H   0  0  0  0  0  0
  -30.4499  -25.2247   20.7569 H   0  0  0  0  0  0
  -27.9321  -24.8839   20.6213 H   0  0  0  0  0  0
  -28.0394  -25.1705   18.8795 H   0  0  0  0  0  0
  -33.5310  -16.7284   24.3766 H   0  0  0  0  0  0
  -32.6256  -16.9324   25.8667 H   0  0  0  0  0  0
  -33.2536  -21.3873   20.5034 H   0  0  0  0  0  0
  -32.9966  -14.3484   23.5890 H   0  0  0  0  0  0
  1 25  1  0  0  0
  1 30  2  0  0  0
  1 79  1  0  0  0
  2  3  1  0  0  0
  2 25  1  0  0  0
  2 90  1  0  0  0
  2 91  1  0  0  0
  3  4  1  0  0  0
  3 92  1  0  0  0
  3 93  1  0  0  0
  4  5  1  0  0  0
  4 94  1  0  0  0
  4 95  1  0  0  0
  5  6  1  0  0  0
  5 26  1  0  0  0
  5 96  1  0  0  0
  6 25  1  0  0  0
  6 97  1  0  0  0
  6 98  1  0  0  0
  7  8  2  0  0  0
  7 26  1  0  0  0
  7 29  1  0  0  0
  8  9  1  0  0  0
  8 22  1  0  0  0
  9 10  1  0  0  0
  9 27  2  0  0  0
 10 11  2  0  0  0
 10 15  1  0  0  0
 11 12  1  0  0  0
 11 99  1  0  0  0
 12 13  2  0  0  0
 12100  1  0  0  0
 13 14  1  0  0  0
 13 31  1  0  0  0
 14 15  2  0  0  0
 14101  1  0  0  0
 15102  1  0  0  0
 16 17  2  0  0  0
 16 21  1  0  0  0
 16 31  1  0  0  0
 17 18  1  0  0  0
 17103  1  0  0  0
 18 19  2  0  0  0
 18104  1  0  0  0
 19 20  1  0  0  0
 19 24  1  0  0  0
 20 21  2  0  0  0
 20105  1  0  0  0
 21 23  1  0  0  0
 22 28  1  0  0  0
 22 32  2  0  0  0
 26 27  1  0  0  0
 28106  1  0  0  0
 28107  1  0  0  0
 29108  1  0  0  0
 29109  1  0  0  0
 33 34  1  0  0  0
 33 66  1  0  0  0
 33 70  2  0  0  0
 34 36  1  0  0  0
 34 59  1  0  0  0
 34110  1  0  0  0
 35 44  2  0  0  0
 35 45  1  0  0  0
 35 68  1  0  0  0
 36 56  1  0  0  0
 36111  1  0  0  0
 37 39  1  0  0  0
 37 47  1  0  0  0
 37 66  1  0  0  0
 37112  1  0  0  0
 38 43  2  0  0  0
 38 46  1  0  0  0
 38 47  1  0  0  0
 39 64  1  0  0  0
 39 67  2  0  0  0
 40 52  1  0  0  0
 40 53  2  0  0  0
 40 58  1  0  0  0
 41113  1  0  0  0
 41114  1  0  0  0
 41115  1  0  0  0
 41 48  1  0  0  0
 42 43  1  0  0  0
 42 66  1  0  0  0
 42116  1  0  0  0
 42117  1  0  0  0
 43 44  1  0  0  0
 44118  1  0  0  0
 45 46  2  0  0  0
 45119  1  0  0  0
 46120  1  0  0  0
 47121  1  0  0  0
 47122  1  0  0  0
 48 56  1  0  0  0
 48 65  1  0  0  0
 48123  1  0  0  0
 49 50  1  0  0  0
 49 53  1  0  0  0
 49 64  1  0  0  0
 49124  1  0  0  0
 50 51  1  0  0  0
 50125  1  0  0  0
 50126  1  0  0  0
 51 52  1  0  0  0
 51127  1  0  0  0
 51128  1  0  0  0
 52129  1  0  0  0
 52130  1  0  0  0
 53 54  1  0  0  0
 54 55  2  0  0  0
 54131  1  0  0  0
 55 57  1  0  0  0
 55132  1  0  0  0
 56 69  2  0  0  0
 57 58  2  0  0  0
 57133  1  0  0  0
 58134  1  0  0  0
 59 60  1  0  0  0
 59 61  1  0  0  0
 59 62  1  0  0  0
 60135  1  0  0  0
 60136  1  0  0  0
 60137  1  0  0  0
 61138  1  0  0  0
 61139  1  0  0  0
 61140  1  0  0  0
 62141  1  0  0  0
 62142  1  0  0  0
 62143  1  0  0  0
 63 65  1  0  0  0
 63144  1  0  0  0
 63145  1  0  0  0
 63146  1  0  0  0
 64147  1  0  0  0
 65148  1  0  0  0
 68 83  1  0  0  0
 71 73  2  0  0  0
 71 75  1  0  0  0
 71149  1  0  0  0
 72 74  1  0  0  0
 72 75  2  0  0  0
 72150  1  0  0  0
 73 76  1  0  0  0
 73151  1  0  0  0
 74 76  2  0  0  0
 74152  1  0  0  0
 75 84  1  0  0  0
 76 86  1  0  0  0
 77 80  1  0  0  0
 77 86  1  0  0  0
 77 87  2  0  0  0
 78 85  1  0  0  0
 78 88  2  0  0  0
 78 84  1  0  0  0
 79 84  1  0  0  0
 79153  1  0  0  0
 79154  1  0  0  0
 80 81  1  0  0  0
 80155  1  0  0  0
 80156  1  0  0  0
 81 82  1  0  0  0
 81157  1  0  0  0
 81158  1  0  0  0
 82 83  1  0  0  0
 82159  1  0  0  0
 82160  1  0  0  0
 83161  1  0  0  0
 83162  1  0  0  0
 84 89  1  0  0  0
 85163  1  0  0  0
 85164  1  0  0  0
 86165  1  0  0  0
 89166  1  0  0  0
M  ISO  4   1 100  68 101  79 100  83 101
M  END
> <chiral flag>
0

> <version>
0

> <s_m_source_file>
/data/baiqing/PycharmProjects/Reinvent-master-3.2/result/LINK_invent/BTK/process_docking_weight1_custom_product_contain_oxygen_bond_distance_aromatic_linkinvent_7_9_3/rearranged_h_0110.sdf

> <i_m_source_file_index>
59

> <r_mmod_Potential_Energy-OPLS-2005>
-221.761901855469

> <r_mmod_Stretch_Energy-OPLS-2005>
35.9657173156738

> <r_mmod_Bend_Energy-OPLS-2005>
97.5179595947266

> <r_mmod_Torsional_Energy-OPLS-2005>
216.919357299805

> <r_mmod_Improper_Torsional_Energy-OPLS-2005>
3.44883275032043

> <r_mmod_Van_der_Waal_Energy-OPLS-2005>
169.892105102539

> <r_mmod_Electrostatic_Energy-OPLS-2005>
-494.618927001953

> <r_mmod_Solvation_Energy-OPLS-2005>
-262.757049560547

> <b_mmod_Minimization_Converged-OPLS-2005>
0

> <r_mmod_RMS_Derivative-OPLS-2005>
5.23356771469116

$$$$
60
                    3D
 Structure written by MMmdl.
163172  0  0  1  0            999 V2000
  -30.7282  -14.5180   20.5484 C   0  0  0  0  0  0
  -30.4102  -12.3282   19.4467 C   0  0  0  0  0  0
  -29.4940  -12.4987   18.2189 C   0  0  0  0  0  0
  -28.0170  -12.3568   18.6299 C   0  0  0  0  0  0
  -27.6546  -13.2204   19.8691 C   0  0  2  0  0  0
  -28.6979  -13.0644   21.0001 C   0  0  0  0  0  0
  -25.2556  -13.8192   20.5703 C   0  0  0  0  0  0
  -24.1819  -13.0448   20.9191 C   0  0  0  0  0  0
  -24.6390  -11.6920   20.8739 C   0  0  0  0  0  0
  -23.9063  -10.4295   21.0397 C   0  0  0  0  0  0
  -24.3620   -9.4213   21.9174 C   0  0  0  0  0  0
  -23.6297   -8.2248   22.0747 C   0  0  0  0  0  0
  -22.4278   -8.0279   21.3542 C   0  0  0  0  0  0
  -21.9908   -9.0249   20.4645 C   0  0  0  0  0  0
  -22.7232  -10.2132   20.3050 C   0  0  0  0  0  0
  -21.6854   -6.0735   22.5279 C   0  0  0  0  0  0
  -21.4014   -6.5641   23.8211 C   0  0  0  0  0  0
  -21.3660   -5.6791   24.9171 C   0  0  0  0  0  0
  -21.6043   -4.3052   24.7223 C   0  0  0  0  0  0
  -21.8820   -3.8144   23.4344 C   0  0  0  0  0  0
  -21.9195   -4.6963   22.3403 C   0  0  0  0  0  0
  -22.7841  -13.5236   21.1853 C   0  0  0  0  0  0
  -22.1661   -4.2147   21.0982 F   0  0  0  0  0  0
  -21.5629   -3.4537   25.7735 F   0  0  0  0  0  0
  -30.0249  -13.3533   20.4363 N   0  0  0  0  0  0
  -26.2994  -12.9385   20.3362 N   0  0  0  0  0  0
  -25.9324  -11.6534   20.5783 N   0  0  0  0  0  0
  -22.0489  -12.8221   22.0409 N   0  0  0  0  0  0
  -25.4277  -15.1912   20.4116 N   0  0  0  0  0  0
  -31.8587  -14.6172   20.0679 O   0  0  0  0  0  0
  -21.6643   -6.8876   21.4240 O   0  0  0  0  0  0
  -22.3523  -14.5542   20.6705 O   0  0  0  0  0  0
  -24.6195  -31.8660   23.2101 C   0  0  0  0  0  0
  -25.9073  -32.4811   23.8404 C   0  0  1  0  0  0
  -27.2193  -27.3984   20.1048 C   0  0  0  0  0  0
  -25.5928  -33.8613   24.2336 N   0  0  0  0  0  0
  -23.4097  -30.4927   21.5495 C   0  0  2  0  0  0
  -24.8569  -28.9657   20.1035 C   0  0  0  0  0  0
  -22.7441  -29.4659   22.4955 C   0  0  0  0  0  0
  -18.0276  -28.1390   22.8489 C   0  0  0  0  0  0
  -24.1481  -36.7300   23.2626 C   0  0  0  0  0  0
  -25.9441  -30.8217   21.3706 C   0  0  0  0  0  0
  -26.0212  -29.4576   20.7102 C   0  0  0  0  0  0
  -27.2099  -28.6813   20.7098 C   0  0  0  0  0  0
  -26.0452  -26.9505   19.4580 C   0  0  0  0  0  0
  -24.8661  -27.7139   19.4692 C   0  0  0  0  0  0
  -23.6193  -29.8330   20.1613 C   0  0  0  0  0  0
  -25.4093  -36.3102   24.0345 C   0  0  1  0  0  0
  -20.5874  -28.3691   23.1294 C   0  0  2  0  0  0
  -20.6770  -26.9420   22.5408 C   0  0  0  0  0  0
  -19.5746  -26.6389   21.5213 C   0  0  0  0  0  0
  -18.1926  -26.7935   22.1624 C   0  0  0  0  0  0
  -19.1530  -28.8855   23.2891 C   0  0  0  0  0  0
  -18.9452  -30.1456   23.8911 C   0  0  0  0  0  0
  -17.6452  -30.6595   24.0566 C   0  0  0  0  0  0
  -25.9041  -34.9473   23.5136 C   0  0  0  0  0  0
  -16.5341  -29.9092   23.6333 C   0  0  0  0  0  0
  -16.7264  -28.6507   23.0358 C   0  0  0  0  0  0
  -26.4492  -31.6597   25.0740 C   0  0  0  0  0  0
  -25.3757  -31.3710   26.1490 C   0  0  0  0  0  0
  -27.0313  -30.3027   24.6142 C   0  0  0  0  0  0
  -27.6077  -32.4317   25.7483 C   0  0  0  0  0  0
  -27.5607  -37.1752   24.8430 C   0  0  0  0  0  0
  -21.4164  -29.3049   22.3693 N   0  0  0  0  0  0
  -26.4259  -37.3814   23.9466 N   0  0  0  0  0  0
  -24.6761  -31.0741   22.1012 N   0  0  0  0  0  0
  -23.4195  -28.8195   23.3008 O   0  0  0  0  0  0
  -28.2974  -26.5305   20.1932 O   0  0  0  0  0  0
  -26.5595  -34.8934   22.4691 O   0  0  0  0  0  0
  -23.5380  -32.1422   23.7470 O   0  0  0  0  0  0
  -31.5378  -19.6286   21.5649 C   0  0  0  0  0  0
  -29.6772  -18.0720   21.2850 C   0  0  0  0  0  0
  -31.9647  -17.2430   21.3092 C   0  0  0  0  0  0
  -30.1475  -19.4114   21.4712 C   0  0  0  0  0  0
  -32.4403  -18.5573   21.4748 C   0  0  0  0  0  0
  -30.5766  -16.9632   21.1980 C   0  0  0  0  0  0
  -28.6033  -24.0935   20.5428 C   0  0  0  0  0  0
  -27.9613  -25.2784   20.7034 C   0  0  0  0  0  0
  -29.9209  -23.8350   19.8647 C   0  0  0  0  0  0
  -30.3585  -22.4792   20.4558 C   0  0  0  0  0  0
  -28.0793  -22.7498   21.0634 C   0  0  1  0  0  0
  -26.7056  -22.3958   20.4658 C   0  0  0  0  0  0
  -29.1948  -20.6017   21.7412 C   0  0  0  0  0  0
  -33.8092  -18.8000   21.5746 N   0  0  0  0  0  0
  -30.0813  -15.6030   21.0581 N   0  0  0  0  0  0
  -29.1134  -21.7181   20.7341 N   0  3  2  0  0  0
  -31.4573  -12.3963   19.1473 H   0  0  0  0  0  0
  -30.2958  -11.3313   19.8757 H   0  0  0  0  0  0
  -29.7419  -11.7589   17.4564 H   0  0  0  0  0  0
  -29.6589  -13.4771   17.7643 H   0  0  0  0  0  0
  -27.8370  -11.3029   18.8464 H   0  0  0  0  0  0
  -27.3654  -12.6084   17.7922 H   0  0  0  0  0  0
  -27.6802  -14.2594   19.5399 H   0  0  0  0  0  0
  -28.6805  -12.0496   21.4009 H   0  0  0  0  0  0
  -28.4599  -13.7190   21.8397 H   0  0  0  0  0  0
  -25.2768   -9.5694   22.4745 H   0  0  0  0  0  0
  -24.0009   -7.4643   22.7463 H   0  0  0  0  0  0
  -21.0838   -8.8761   19.8953 H   0  0  0  0  0  0
  -22.3682  -10.9667   19.6161 H   0  0  0  0  0  0
  -21.2002   -7.6150   23.9715 H   0  0  0  0  0  0
  -21.1481   -6.0519   25.9075 H   0  0  0  0  0  0
  -22.0600   -2.7604   23.2840 H   0  0  0  0  0  0
  -22.4111  -11.9880   22.4790 H   0  0  0  0  0  0
  -21.1109  -13.1240   22.2627 H   0  0  0  0  0  0
  -24.6628  -15.8486   20.5207 H   0  0  0  0  0  0
  -26.2794  -15.6280   20.0817 H   0  0  0  0  0  0
  -26.7141  -32.5511   23.1165 H   0  0  0  0  0  0
  -25.0116  -33.9775   25.0507 H   0  0  0  0  0  0
  -22.7007  -31.3119   21.4120 H   0  0  0  0  0  0
  -23.3783  -35.9586   23.3199 H   0  0  0  0  0  0
  -24.3615  -36.9002   22.2061 H   0  0  0  0  0  0
  -23.7165  -37.6451   23.6688 H   0  0  0  0  0  0
  -26.0657  -31.5905   20.6061 H   0  0  0  0  0  0
  -26.8289  -30.8694   21.9936 H   0  0  0  0  0  0
  -28.1006  -29.0411   21.2053 H   0  0  0  0  0  0
  -26.0299  -25.9837   18.9746 H   0  0  0  0  0  0
  -23.9738  -27.3323   18.9914 H   0  0  0  0  0  0
  -23.7271  -30.6123   19.4060 H   0  0  0  0  0  0
  -22.7425  -29.2551   19.8625 H   0  0  0  0  0  0
  -25.1247  -36.1943   25.0829 H   0  0  0  0  0  0
  -20.9969  -28.3259   24.1415 H   0  0  0  0  0  0
  -20.5677  -26.2302   23.3607 H   0  0  0  0  0  0
  -21.6639  -26.7460   22.1195 H   0  0  0  0  0  0
  -19.6908  -25.6301   21.1242 H   0  0  0  0  0  0
  -19.6686  -27.3202   20.6748 H   0  0  0  0  0  0
  -17.4197  -26.6693   21.4024 H   0  0  0  0  0  0
  -18.0317  -26.0071   22.9011 H   0  0  0  0  0  0
  -19.7928  -30.7265   24.2294 H   0  0  0  0  0  0
  -17.5007  -31.6281   24.5159 H   0  0  0  0  0  0
  -15.5344  -30.3000   23.7653 H   0  0  0  0  0  0
  -15.8662  -28.0827   22.7080 H   0  0  0  0  0  0
  -24.5933  -30.7053   25.7831 H   0  0  0  0  0  0
  -24.8947  -32.2863   26.4948 H   0  0  0  0  0  0
  -25.8114  -30.8876   27.0242 H   0  0  0  0  0  0
  -26.2856  -29.6782   24.1206 H   0  0  0  0  0  0
  -27.4069  -29.7279   25.4616 H   0  0  0  0  0  0
  -27.8707  -30.4327   23.9308 H   0  0  0  0  0  0
  -27.2718  -33.3622   26.2075 H   0  0  0  0  0  0
  -28.3871  -32.6870   25.0288 H   0  0  0  0  0  0
  -28.0765  -31.8429   26.5378 H   0  0  0  0  0  0
  -28.2476  -38.0196   24.7722 H   0  0  0  0  0  0
  -28.1252  -36.2754   24.5929 H   0  0  0  0  0  0
  -27.2382  -37.0998   25.8829 H   0  0  0  0  0  0
  -20.9329  -29.8772   21.6914 H   0  0  0  0  0  0
  -26.0136  -38.2852   24.1627 H   0  0  0  0  0  0
  -31.9198  -20.6220   21.7488 H   0  0  0  0  0  0
  -28.6113  -17.8904   21.2466 H   0  0  0  0  0  0
  -32.6948  -16.4486   21.2919 H   0  0  0  0  0  0
  -27.0285  -25.3059   21.2547 H   0  0  0  0  0  0
  -30.6430  -24.6321   20.0448 H   0  0  0  0  0  0
  -29.7548  -23.7517   18.7899 H   0  0  0  0  0  0
  -30.8857  -22.6591   21.3939 H   0  0  0  0  0  0
  -31.0325  -21.9364   19.7923 H   0  0  0  0  0  0
  -27.9940  -22.8435   22.1481 H   0  0  0  0  0  0
  -26.7389  -22.3550   19.3764 H   0  0  0  0  0  0
  -25.9546  -23.1362   20.7418 H   0  0  0  0  0  0
  -26.3490  -21.4309   20.8258 H   0  0  0  0  0  0
  -29.4703  -21.0280   22.7070 H   0  0  0  0  0  0
  -28.1916  -20.1972   21.8810 H   0  0  0  0  0  0
  -34.1375  -19.6838   21.9525 H   0  0  0  0  0  0
  -34.4434  -18.0265   21.7520 H   0  0  0  0  0  0
  -29.1176  -15.4453   21.3108 H   0  0  0  0  0  0
  -28.8390  -21.3010   19.8580 H   0  0  0  0  0  0
  1 25  1  0  0  0
  1 30  2  0  0  0
  1 85  1  0  0  0
  2  3  1  0  0  0
  2 25  1  0  0  0
  2 87  1  0  0  0
  2 88  1  0  0  0
  3  4  1  0  0  0
  3 89  1  0  0  0
  3 90  1  0  0  0
  4  5  1  0  0  0
  4 91  1  0  0  0
  4 92  1  0  0  0
  5  6  1  0  0  0
  5 26  1  0  0  0
  5 93  1  0  0  0
  6 25  1  0  0  0
  6 94  1  0  0  0
  6 95  1  0  0  0
  7  8  2  0  0  0
  7 26  1  0  0  0
  7 29  1  0  0  0
  8  9  1  0  0  0
  8 22  1  0  0  0
  9 10  1  0  0  0
  9 27  2  0  0  0
 10 11  2  0  0  0
 10 15  1  0  0  0
 11 12  1  0  0  0
 11 96  1  0  0  0
 12 13  2  0  0  0
 12 97  1  0  0  0
 13 14  1  0  0  0
 13 31  1  0  0  0
 14 15  2  0  0  0
 14 98  1  0  0  0
 15 99  1  0  0  0
 16 17  2  0  0  0
 16 21  1  0  0  0
 16 31  1  0  0  0
 17 18  1  0  0  0
 17100  1  0  0  0
 18 19  2  0  0  0
 18101  1  0  0  0
 19 20  1  0  0  0
 19 24  1  0  0  0
 20 21  2  0  0  0
 20102  1  0  0  0
 21 23  1  0  0  0
 22 28  1  0  0  0
 22 32  2  0  0  0
 26 27  1  0  0  0
 28103  1  0  0  0
 28104  1  0  0  0
 29105  1  0  0  0
 29106  1  0  0  0
 33 34  1  0  0  0
 33 66  1  0  0  0
 33 70  2  0  0  0
 34 36  1  0  0  0
 34 59  1  0  0  0
 34107  1  0  0  0
 35 44  2  0  0  0
 35 45  1  0  0  0
 35 68  1  0  0  0
 36 56  1  0  0  0
 36108  1  0  0  0
 37 39  1  0  0  0
 37 47  1  0  0  0
 37 66  1  0  0  0
 37109  1  0  0  0
 38 43  2  0  0  0
 38 46  1  0  0  0
 38 47  1  0  0  0
 39 64  1  0  0  0
 39 67  2  0  0  0
 40 52  1  0  0  0
 40 53  2  0  0  0
 40 58  1  0  0  0
 41110  1  0  0  0
 41111  1  0  0  0
 41112  1  0  0  0
 41 48  1  0  0  0
 42 43  1  0  0  0
 42 66  1  0  0  0
 42113  1  0  0  0
 42114  1  0  0  0
 43 44  1  0  0  0
 44115  1  0  0  0
 45 46  2  0  0  0
 45116  1  0  0  0
 46117  1  0  0  0
 47118  1  0  0  0
 47119  1  0  0  0
 48 56  1  0  0  0
 48 65  1  0  0  0
 48120  1  0  0  0
 49 50  1  0  0  0
 49 53  1  0  0  0
 49 64  1  0  0  0
 49121  1  0  0  0
 50 51  1  0  0  0
 50122  1  0  0  0
 50123  1  0  0  0
 51 52  1  0  0  0
 51124  1  0  0  0
 51125  1  0  0  0
 52126  1  0  0  0
 52127  1  0  0  0
 53 54  1  0  0  0
 54 55  2  0  0  0
 54128  1  0  0  0
 55 57  1  0  0  0
 55129  1  0  0  0
 56 69  2  0  0  0
 57 58  2  0  0  0
 57130  1  0  0  0
 58131  1  0  0  0
 59 60  1  0  0  0
 59 61  1  0  0  0
 59 62  1  0  0  0
 60132  1  0  0  0
 60133  1  0  0  0
 60134  1  0  0  0
 61135  1  0  0  0
 61136  1  0  0  0
 61137  1  0  0  0
 62138  1  0  0  0
 62139  1  0  0  0
 62140  1  0  0  0
 63 65  1  0  0  0
 63141  1  0  0  0
 63142  1  0  0  0
 63143  1  0  0  0
 64144  1  0  0  0
 65145  1  0  0  0
 68 78  1  0  0  0
 71 74  2  0  0  0
 71 75  1  0  0  0
 71146  1  0  0  0
 72 74  1  0  0  0
 72 76  2  0  0  0
 72147  1  0  0  0
 73 75  2  0  0  0
 73 76  1  0  0  0
 73148  1  0  0  0
 74 83  1  0  0  0
 75 84  1  0  0  0
 76 85  1  0  0  0
 77 78  2  0  0  0
 77 79  1  0  0  0
 77 81  1  0  0  0
 78149  1  0  0  0
 79 80  1  0  0  0
 79150  1  0  0  0
 79151  1  0  0  0
 80 86  1  0  0  0
 80152  1  0  0  0
 80153  1  0  0  0
 81 82  1  0  0  0
 81 86  1  0  0  0
 81154  1  0  0  0
 82155  1  0  0  0
 82156  1  0  0  0
 82157  1  0  0  0
 83158  1  0  0  0
 83159  1  0  0  0
 83 86  1  0  0  0
 84160  1  0  0  0
 84161  1  0  0  0
 85162  1  0  0  0
 86163  1  0  0  0
M  CHG  1  86   1
M  ISO  4   1 100  68 101  78 101  85 100
M  END
> <chiral flag>
0

> <version>
0

> <s_m_source_file>
/data/baiqing/PycharmProjects/Reinvent-master-3.2/result/LINK_invent/BTK/process_docking_weight1_custom_product_contain_oxygen_bond_distance_aromatic_linkinvent_7_9_3/rearranged_h_0110.sdf

> <i_m_source_file_index>
60

> <r_mmod_Potential_Energy-OPLS-2005>
-95.3740997314453

> <r_mmod_Stretch_Energy-OPLS-2005>
51.1608390808105

> <r_mmod_Bend_Energy-OPLS-2005>
140.023513793945

> <r_mmod_Torsional_Energy-OPLS-2005>
245.976623535156

> <r_mmod_Improper_Torsional_Energy-OPLS-2005>
6.69431972503662

> <r_mmod_Van_der_Waal_Energy-OPLS-2005>
153.396392822266

> <r_mmod_Electrostatic_Energy-OPLS-2005>
-270.152984619141

> <r_mmod_Solvation_Energy-OPLS-2005>
-450.25634765625

> <b_mmod_Minimization_Converged-OPLS-2005>
0

> <r_mmod_RMS_Derivative-OPLS-2005>
0.903554797172546

$$$$
61
                    3D
 Structure written by MMmdl.
169178  0  0  1  0            999 V2000
  -30.5427  -15.0694   20.4499 C   0  0  0  0  0  0
  -30.4364  -12.6789   19.5180 C   0  0  0  0  0  0
  -29.5237  -12.5446   18.2755 C   0  0  0  0  0  0
  -28.0687  -12.2739   18.6976 C   0  0  0  0  0  0
  -27.6212  -13.2229   19.8323 C   0  0  2  0  0  0
  -28.6655  -13.2984   20.9774 C   0  0  0  0  0  0
  -25.2384  -13.8123   20.5633 C   0  0  0  0  0  0
  -24.1738  -13.0382   20.9260 C   0  0  0  0  0  0
  -24.6351  -11.6871   20.8800 C   0  0  0  0  0  0
  -23.9046  -10.4258   21.0439 C   0  0  0  0  0  0
  -24.3608   -9.4181   21.9209 C   0  0  0  0  0  0
  -23.6286   -8.2215   22.0769 C   0  0  0  0  0  0
  -22.4268   -8.0258   21.3555 C   0  0  0  0  0  0
  -21.9903   -9.0231   20.4658 C   0  0  0  0  0  0
  -22.7228  -10.2110   20.3077 C   0  0  0  0  0  0
  -21.6845   -6.0726   22.5286 C   0  0  0  0  0  0
  -21.4000   -6.5635   23.8219 C   0  0  0  0  0  0
  -21.3661   -5.6792   24.9182 C   0  0  0  0  0  0
  -21.6054   -4.3057   24.7236 C   0  0  0  0  0  0
  -21.8818   -3.8144   23.4357 C   0  0  0  0  0  0
  -21.9193   -4.6956   22.3408 C   0  0  0  0  0  0
  -22.7765  -13.5169   21.1915 C   0  0  0  0  0  0
  -22.1662   -4.2139   21.0987 F   0  0  0  0  0  0
  -21.5637   -3.4541   25.7749 F   0  0  0  0  0  0
  -29.9189  -13.7986   20.3814 N   0  0  0  0  0  0
  -26.2812  -12.9319   20.3207 N   0  0  0  0  0  0
  -25.9271  -11.6486   20.5779 N   0  0  0  0  0  0
  -22.0408  -12.8164   22.0466 N   0  0  0  0  0  0
  -25.3870  -15.1841   20.3859 N   0  0  0  0  0  0
  -31.7321  -15.0270   20.1119 O   0  0  0  0  0  0
  -21.6638   -6.8860   21.4242 O   0  0  0  0  0  0
  -22.3463  -14.5483   20.6765 O   0  0  0  0  0  0
  -24.6448  -31.8424   23.1850 C   0  0  0  0  0  0
  -25.9206  -32.4688   23.8253 C   0  0  1  0  0  0
  -27.2197  -27.1128   20.1554 C   0  0  0  0  0  0
  -25.5952  -33.8492   24.2188 N   0  0  0  0  0  0
  -23.4482  -30.4604   21.5318 C   0  0  2  0  0  0
  -24.8977  -28.8779   20.1090 C   0  0  0  0  0  0
  -22.7573  -29.4545   22.4856 C   0  0  0  0  0  0
  -18.0308  -28.1388   22.8487 C   0  0  0  0  0  0
  -24.1481  -36.7256   23.2649 C   0  0  0  0  0  0
  -26.0036  -30.7094   21.3837 C   0  0  0  0  0  0
  -26.0736  -29.3166   20.7284 C   0  0  0  0  0  0
  -27.2306  -28.4485   20.7359 C   0  0  0  0  0  0
  -26.0188  -26.7779   19.4914 C   0  0  0  0  0  0
  -24.8841  -27.6238   19.4760 C   0  0  0  0  0  0
  -23.6746  -29.7839   20.1525 C   0  0  0  0  0  0
  -25.4115  -36.3038   24.0322 C   0  0  1  0  0  0
  -20.5921  -28.3734   23.1215 C   0  0  2  0  0  0
  -20.6782  -26.9432   22.5405 C   0  0  0  0  0  0
  -19.5757  -26.6375   21.5213 C   0  0  0  0  0  0
  -18.1937  -26.7922   22.1622 C   0  0  0  0  0  0
  -19.1567  -28.8874   23.2841 C   0  0  0  0  0  0
  -18.9486  -30.1465   23.8879 C   0  0  0  0  0  0
  -17.6483  -30.6589   24.0557 C   0  0  0  0  0  0
  -25.9071  -34.9406   23.5068 C   0  0  0  0  0  0
  -16.5371  -29.9090   23.6323 C   0  0  0  0  0  0
  -16.7290  -28.6498   23.0364 C   0  0  0  0  0  0
  -26.4519  -31.6555   25.0698 C   0  0  0  0  0  0
  -25.3680  -31.3723   26.1377 C   0  0  0  0  0  0
  -27.0390  -30.2964   24.6247 C   0  0  0  0  0  0
  -27.6061  -32.4319   25.7467 C   0  0  0  0  0  0
  -27.5568  -37.1784   24.8469 C   0  0  0  0  0  0
  -21.4270  -29.3051   22.3592 N   0  0  0  0  0  0
  -26.4278  -37.3752   23.9416 N   0  0  0  0  0  0
  -24.7191  -31.0255   22.0896 N   0  0  0  0  0  0
  -23.4209  -28.8113   23.3025 O   0  0  0  0  0  0
  -28.2914  -26.1475   20.2756 O   0  0  0  0  0  0
  -26.5666  -34.8907   22.4656 O   0  0  0  0  0  0
  -23.5565  -32.1317   23.7066 O   0  0  0  0  0  0
  -32.6417  -18.7492   19.9867 C   0  0  0  0  0  0
  -30.6384  -19.6672   18.9820 C   0  0  0  0  0  0
  -31.8636  -17.9270   20.8255 C   0  0  0  0  0  0
  -29.8726  -19.0983   20.0215 C   0  0  0  0  0  0
  -30.4661  -17.8162   20.5924 C   0  0  0  0  0  0
  -32.0451  -19.5213   18.9743 C   0  0  0  0  0  0
  -27.4106  -21.4658   19.5169 C   0  0  0  0  0  0
  -28.0133  -17.2183   22.0075 C   0  0  0  0  0  0
  -28.5459  -16.4016   21.0814 C   0  0  0  0  0  0
  -26.2818  -22.2994   20.1127 C   0  0  0  0  0  0
  -26.9788  -23.0733   21.2367 C   0  0  0  0  0  0
  -28.4037  -23.2072   20.7030 C   0  0  2  0  0  0
  -32.5706  -17.1609   21.9361 C   0  0  0  0  0  0
  -32.3062  -21.0014   17.0969 C   0  0  0  0  0  0
  -29.1732  -20.3994   20.7821 C   0  0  0  0  0  0
  -28.3421  -24.6526   19.7940 C   0  0  0  0  0  0
  -28.5907  -21.7340   20.1041 N   0  0  0  0  0  0
  -29.8862  -16.3692   20.6834 N   0  0  0  0  0  0
  -27.1930  -20.5461   18.7249 O   0  0  0  0  0  0
  -32.8874  -20.1987   18.1194 O   0  0  0  0  0  0
  -31.4634  -12.8404   19.1886 H   0  0  0  0  0  0
  -30.4676  -11.7428   20.0771 H   0  0  0  0  0  0
  -29.8825  -11.7443   17.6276 H   0  0  0  0  0  0
  -29.5717  -13.4626   17.6874 H   0  0  0  0  0  0
  -28.0069  -11.2392   19.0393 H   0  0  0  0  0  0
  -27.4012  -12.3559   17.8390 H   0  0  0  0  0  0
  -27.5566  -14.1807   19.3241 H   0  0  0  0  0  0
  -28.8056  -12.3172   21.4336 H   0  0  0  0  0  0
  -28.3296  -13.9341   21.7946 H   0  0  0  0  0  0
  -25.2745   -9.5667   22.4793 H   0  0  0  0  0  0
  -24.0009   -7.4601   22.7474 H   0  0  0  0  0  0
  -21.0851   -8.8750   19.8941 H   0  0  0  0  0  0
  -22.3698  -10.9662   19.6200 H   0  0  0  0  0  0
  -21.1974   -7.6139   23.9712 H   0  0  0  0  0  0
  -21.1493   -6.0527   25.9088 H   0  0  0  0  0  0
  -22.0595   -2.7602   23.2863 H   0  0  0  0  0  0
  -22.4032  -11.9834   22.4868 H   0  0  0  0  0  0
  -21.1018  -13.1189   22.2657 H   0  0  0  0  0  0
  -24.5888  -15.8038   20.4709 H   0  0  0  0  0  0
  -26.1752  -15.6237   19.9325 H   0  0  0  0  0  0
  -26.7267  -32.5283   23.0976 H   0  0  0  0  0  0
  -25.0057  -33.9592   25.0309 H   0  0  0  0  0  0
  -22.7513  -31.2870   21.3755 H   0  0  0  0  0  0
  -23.3751  -35.9577   23.3305 H   0  0  0  0  0  0
  -24.3561  -36.8909   22.2067 H   0  0  0  0  0  0
  -23.7217  -37.6442   23.6690 H   0  0  0  0  0  0
  -26.1517  -31.4623   20.6080 H   0  0  0  0  0  0
  -26.8766  -30.7675   22.0220 H   0  0  0  0  0  0
  -28.1251  -28.7802   21.2450 H   0  0  0  0  0  0
  -25.9131  -25.8167   19.0134 H   0  0  0  0  0  0
  -23.9832  -27.2830   18.9838 H   0  0  0  0  0  0
  -23.8107  -30.5571   19.3954 H   0  0  0  0  0  0
  -22.7876  -29.2273   19.8445 H   0  0  0  0  0  0
  -25.1290  -36.1879   25.0811 H   0  0  0  0  0  0
  -21.0003  -28.3338   24.1339 H   0  0  0  0  0  0
  -20.5662  -26.2363   23.3640 H   0  0  0  0  0  0
  -21.6647  -26.7423   22.1213 H   0  0  0  0  0  0
  -19.6933  -25.6278   21.1264 H   0  0  0  0  0  0
  -19.6687  -27.3161   20.6723 H   0  0  0  0  0  0
  -17.4209  -26.6686   21.4022 H   0  0  0  0  0  0
  -18.0341  -26.0054   22.9011 H   0  0  0  0  0  0
  -19.7963  -30.7280   24.2249 H   0  0  0  0  0  0
  -17.5038  -31.6260   24.5171 H   0  0  0  0  0  0
  -15.5373  -30.2990   23.7638 H   0  0  0  0  0  0
  -15.8690  -28.0796   22.7105 H   0  0  0  0  0  0
  -24.5888  -30.7046   25.7676 H   0  0  0  0  0  0
  -24.8808  -32.2886   26.4722 H   0  0  0  0  0  0
  -25.7934  -30.8943   27.0209 H   0  0  0  0  0  0
  -26.3003  -29.6683   24.1255 H   0  0  0  0  0  0
  -27.4046  -29.7253   25.4792 H   0  0  0  0  0  0
  -27.8884  -30.4242   23.9531 H   0  0  0  0  0  0
  -27.2693  -33.3679   26.1932 H   0  0  0  0  0  0
  -28.3903  -32.6796   25.0297 H   0  0  0  0  0  0
  -28.0679  -31.8505   26.5460 H   0  0  0  0  0  0
  -28.2582  -38.0087   24.7517 H   0  0  0  0  0  0
  -28.1066  -36.2615   24.6291 H   0  0  0  0  0  0
  -27.2278  -37.1418   25.8870 H   0  0  0  0  0  0
  -20.9504  -29.8799   21.6786 H   0  0  0  0  0  0
  -26.0155  -38.2819   24.1430 H   0  0  0  0  0  0
  -33.7180  -18.7540   20.0912 H   0  0  0  0  0  0
  -30.2002  -20.4633   18.4002 H   0  0  0  0  0  0
  -26.9519  -17.1863   22.2167 H   0  0  0  0  0  0
  -28.6071  -17.9230   22.5706 H   0  0  0  0  0  0
  -27.9170  -15.7367   20.5385 H   0  0  0  0  0  0
  -25.4771  -21.6692   20.4928 H   0  0  0  0  0  0
  -25.8719  -22.9605   19.3494 H   0  0  0  0  0  0
  -26.9762  -22.4874   22.1573 H   0  0  0  0  0  0
  -26.5035  -24.0300   21.4570 H   0  0  0  0  0  0
  -29.1131  -23.3418   21.5196 H   0  0  0  0  0  0
  -33.1066  -17.8572   22.5814 H   0  0  0  0  0  0
  -33.2999  -16.4582   21.5352 H   0  0  0  0  0  0
  -31.8699  -16.6166   22.5693 H   0  0  0  0  0  0
  -33.0957  -21.4310   16.4790 H   0  0  0  0  0  0
  -31.7377  -21.8336   17.5140 H   0  0  0  0  0  0
  -31.6574  -20.4125   16.4466 H   0  0  0  0  0  0
  -29.9264  -20.7526   21.4874 H   0  0  0  0  0  0
  -28.3883  -19.9924   21.4209 H   0  0  0  0  0  0
  -27.5913  -24.5287   19.0176 H   0  0  0  0  0  0
  -29.2700  -24.6372   19.2238 H   0  0  0  0  0  0
  1 25  1  0  0  0
  1 30  2  0  0  0
  1 88  1  0  0  0
  2  3  1  0  0  0
  2 25  1  0  0  0
  2 91  1  0  0  0
  2 92  1  0  0  0
  3  4  1  0  0  0
  3 93  1  0  0  0
  3 94  1  0  0  0
  4  5  1  0  0  0
  4 95  1  0  0  0
  4 96  1  0  0  0
  5  6  1  0  0  0
  5 26  1  0  0  0
  5 97  1  0  0  0
  6 25  1  0  0  0
  6 98  1  0  0  0
  6 99  1  0  0  0
  7  8  2  0  0  0
  7 26  1  0  0  0
  7 29  1  0  0  0
  8  9  1  0  0  0
  8 22  1  0  0  0
  9 10  1  0  0  0
  9 27  2  0  0  0
 10 11  2  0  0  0
 10 15  1  0  0  0
 11 12  1  0  0  0
 11100  1  0  0  0
 12 13  2  0  0  0
 12101  1  0  0  0
 13 14  1  0  0  0
 13 31  1  0  0  0
 14 15  2  0  0  0
 14102  1  0  0  0
 15103  1  0  0  0
 16 17  2  0  0  0
 16 21  1  0  0  0
 16 31  1  0  0  0
 17 18  1  0  0  0
 17104  1  0  0  0
 18 19  2  0  0  0
 18105  1  0  0  0
 19 20  1  0  0  0
 19 24  1  0  0  0
 20 21  2  0  0  0
 20106  1  0  0  0
 21 23  1  0  0  0
 22 28  1  0  0  0
 22 32  2  0  0  0
 26 27  1  0  0  0
 28107  1  0  0  0
 28108  1  0  0  0
 29109  1  0  0  0
 29110  1  0  0  0
 33 34  1  0  0  0
 33 66  1  0  0  0
 33 70  2  0  0  0
 34 36  1  0  0  0
 34 59  1  0  0  0
 34111  1  0  0  0
 35 44  2  0  0  0
 35 45  1  0  0  0
 35 68  1  0  0  0
 36 56  1  0  0  0
 36112  1  0  0  0
 37 39  1  0  0  0
 37 47  1  0  0  0
 37 66  1  0  0  0
 37113  1  0  0  0
 38 43  2  0  0  0
 38 46  1  0  0  0
 38 47  1  0  0  0
 39 64  1  0  0  0
 39 67  2  0  0  0
 40 52  1  0  0  0
 40 53  2  0  0  0
 40 58  1  0  0  0
 41114  1  0  0  0
 41115  1  0  0  0
 41116  1  0  0  0
 41 48  1  0  0  0
 42 43  1  0  0  0
 42 66  1  0  0  0
 42117  1  0  0  0
 42118  1  0  0  0
 43 44  1  0  0  0
 44119  1  0  0  0
 45 46  2  0  0  0
 45120  1  0  0  0
 46121  1  0  0  0
 47122  1  0  0  0
 47123  1  0  0  0
 48 56  1  0  0  0
 48 65  1  0  0  0
 48124  1  0  0  0
 49 50  1  0  0  0
 49 53  1  0  0  0
 49 64  1  0  0  0
 49125  1  0  0  0
 50 51  1  0  0  0
 50126  1  0  0  0
 50127  1  0  0  0
 51 52  1  0  0  0
 51128  1  0  0  0
 51129  1  0  0  0
 52130  1  0  0  0
 52131  1  0  0  0
 53 54  1  0  0  0
 54 55  2  0  0  0
 54132  1  0  0  0
 55 57  1  0  0  0
 55133  1  0  0  0
 56 69  2  0  0  0
 57 58  2  0  0  0
 57134  1  0  0  0
 58135  1  0  0  0
 59 60  1  0  0  0
 59 61  1  0  0  0
 59 62  1  0  0  0
 60136  1  0  0  0
 60137  1  0  0  0
 60138  1  0  0  0
 61139  1  0  0  0
 61140  1  0  0  0
 61141  1  0  0  0
 62142  1  0  0  0
 62143  1  0  0  0
 62144  1  0  0  0
 63 65  1  0  0  0
 63145  1  0  0  0
 63146  1  0  0  0
 63147  1  0  0  0
 64148  1  0  0  0
 65149  1  0  0  0
 68 86  1  0  0  0
 71 73  2  0  0  0
 71 76  1  0  0  0
 71150  1  0  0  0
 72 74  1  0  0  0
 72 76  2  0  0  0
 72151  1  0  0  0
 73 75  1  0  0  0
 73 83  1  0  0  0
 74 75  2  0  0  0
 74 85  1  0  0  0
 75 88  1  0  0  0
 76 90  1  0  0  0
 77 80  1  0  0  0
 77 87  1  0  0  0
 77 89  2  0  0  0
 78 79  2  0  0  0
 78152  1  0  0  0
 78153  1  0  0  0
 79 88  1  0  0  0
 79154  1  0  0  0
 80 81  1  0  0  0
 80155  1  0  0  0
 80156  1  0  0  0
 81 82  1  0  0  0
 81157  1  0  0  0
 81158  1  0  0  0
 82 86  1  0  0  0
 82 87  1  0  0  0
 82159  1  0  0  0
 83160  1  0  0  0
 83161  1  0  0  0
 83162  1  0  0  0
 84 90  1  0  0  0
 84163  1  0  0  0
 84164  1  0  0  0
 84165  1  0  0  0
 85 87  1  0  0  0
 85166  1  0  0  0
 85167  1  0  0  0
 86168  1  0  0  0
 86169  1  0  0  0
M  ISO  4   1 100  68 101  86 101  88 100
M  END
> <chiral flag>
0

> <version>
0

> <s_m_source_file>
/data/baiqing/PycharmProjects/Reinvent-master-3.2/result/LINK_invent/BTK/process_docking_weight1_custom_product_contain_oxygen_bond_distance_aromatic_linkinvent_7_9_3/rearranged_h_0110.sdf

> <i_m_source_file_index>
61

> <r_mmod_Potential_Energy-OPLS-2005>
1157.97912597656

> <r_mmod_Stretch_Energy-OPLS-2005>
353.53369140625

> <r_mmod_Bend_Energy-OPLS-2005>
404.066253662109

> <r_mmod_Torsional_Energy-OPLS-2005>
532.849304199219

> <r_mmod_Improper_Torsional_Energy-OPLS-2005>
27.60520362854

> <r_mmod_Van_der_Waal_Energy-OPLS-2005>
155.166198730469

> <r_mmod_Electrostatic_Energy-OPLS-2005>
-333.630035400391

> <r_mmod_Solvation_Energy-OPLS-2005>
-220.184677124023

> <b_mmod_Minimization_Converged-OPLS-2005>
0

> <r_mmod_RMS_Derivative-OPLS-2005>
1.93669128417969

$$$$
62
                    3D
 Structure written by MMmdl.
154162  0  0  1  0            999 V2000
  -30.6554  -14.6963   20.3604 C   0  0  0  0  0  0
  -30.4331  -12.4018   19.4491 C   0  0  0  0  0  0
  -29.4974  -12.4389   18.2208 C   0  0  0  0  0  0
  -28.0232  -12.2741   18.6482 C   0  0  0  0  0  0
  -27.6258  -13.1842   19.8397 C   0  0  2  0  0  0
  -28.6949  -13.1843   20.9554 C   0  0  0  0  0  0
  -25.2533  -13.8048   20.5769 C   0  0  0  0  0  0
  -24.1777  -13.0370   20.9265 C   0  0  0  0  0  0
  -24.6313  -11.6830   20.8823 C   0  0  0  0  0  0
  -23.8989  -10.4246   21.0460 C   0  0  0  0  0  0
  -24.3569   -9.4164   21.9218 C   0  0  0  0  0  0
  -23.6260   -8.2194   22.0761 C   0  0  0  0  0  0
  -22.4245   -8.0245   21.3545 C   0  0  0  0  0  0
  -21.9872   -9.0217   20.4648 C   0  0  0  0  0  0
  -22.7184  -10.2102   20.3083 C   0  0  0  0  0  0
  -21.6832   -6.0719   22.5281 C   0  0  0  0  0  0
  -21.3999   -6.5632   23.8213 C   0  0  0  0  0  0
  -21.3654   -5.6789   24.9179 C   0  0  0  0  0  0
  -21.6045   -4.3053   24.7230 C   0  0  0  0  0  0
  -21.8820   -3.8140   23.4354 C   0  0  0  0  0  0
  -21.9188   -4.6952   22.3408 C   0  0  0  0  0  0
  -22.7811  -13.5209   21.1890 C   0  0  0  0  0  0
  -22.1663   -4.2140   21.0986 F   0  0  0  0  0  0
  -21.5630   -3.4540   25.7743 F   0  0  0  0  0  0
  -30.0057  -13.4828   20.3545 N   0  0  0  0  0  0
  -26.2878  -12.9122   20.3367 N   0  0  0  0  0  0
  -25.9224  -11.6331   20.5860 N   0  0  0  0  0  0
  -22.0434  -12.8220   22.0439 N   0  0  0  0  0  0
  -25.4301  -15.1769   20.4167 N   0  0  0  0  0  0
  -31.8847  -14.7619   20.3083 O   0  0  0  0  0  0
  -21.6615   -6.8846   21.4236 O   0  0  0  0  0  0
  -22.3528  -14.5521   20.6718 O   0  0  0  0  0  0
  -24.6238  -31.8610   23.2037 C   0  0  0  0  0  0
  -25.9094  -32.4784   23.8363 C   0  0  1  0  0  0
  -27.2322  -27.3407   20.1185 C   0  0  0  0  0  0
  -25.5914  -33.8586   24.2290 N   0  0  0  0  0  0
  -23.4168  -30.4839   21.5457 C   0  0  2  0  0  0
  -24.8646  -28.9405   20.1108 C   0  0  0  0  0  0
  -22.7466  -29.4626   22.4947 C   0  0  0  0  0  0
  -18.0287  -28.1383   22.8490 C   0  0  0  0  0  0
  -24.1487  -36.7301   23.2639 C   0  0  0  0  0  0
  -25.9549  -30.7984   21.3714 C   0  0  0  0  0  0
  -26.0303  -29.4269   20.7154 C   0  0  0  0  0  0
  -27.2152  -28.6377   20.7107 C   0  0  0  0  0  0
  -26.0448  -26.9024   19.4860 C   0  0  0  0  0  0
  -24.8729  -27.6829   19.4872 C   0  0  0  0  0  0
  -23.6305  -29.8172   20.1607 C   0  0  0  0  0  0
  -25.4111  -36.3090   24.0333 C   0  0  1  0  0  0
  -20.5885  -28.3686   23.1291 C   0  0  2  0  0  0
  -20.6773  -26.9411   22.5412 C   0  0  0  0  0  0
  -19.5747  -26.6386   21.5215 C   0  0  0  0  0  0
  -18.1929  -26.7928   22.1628 C   0  0  0  0  0  0
  -19.1538  -28.8852   23.2886 C   0  0  0  0  0  0
  -18.9460  -30.1456   23.8898 C   0  0  0  0  0  0
  -17.6459  -30.6585   24.0567 C   0  0  0  0  0  0
  -25.9046  -34.9457   23.5113 C   0  0  0  0  0  0
  -16.5352  -29.9084   23.6327 C   0  0  0  0  0  0
  -16.7275  -28.6503   23.0349 C   0  0  0  0  0  0
  -26.4490  -31.6586   25.0722 C   0  0  0  0  0  0
  -25.3732  -31.3711   26.1454 C   0  0  0  0  0  0
  -27.0333  -30.3016   24.6153 C   0  0  0  0  0  0
  -27.6051  -32.4320   25.7490 C   0  0  0  0  0  0
  -27.5581  -37.1804   24.8465 C   0  0  0  0  0  0
  -21.4182  -29.3039   22.3685 N   0  0  0  0  0  0
  -26.4292  -37.3781   23.9409 N   0  0  0  0  0  0
  -24.6838  -31.0641   22.0975 N   0  0  0  0  0  0
  -23.4198  -28.8169   23.3024 O   0  0  0  0  0  0
  -28.3664  -26.5206   20.1821 O   0  0  0  0  0  0
  -26.5618  -34.8920   22.4682 O   0  0  0  0  0  0
  -23.5407  -32.1399   23.7377 O   0  0  0  0  0  0
  -30.3720  -18.3445   19.1692 C   0  0  0  0  0  0
  -29.7314  -19.3224   21.6790 C   0  0  0  0  0  0
  -30.0792  -17.3813   20.1761 C   0  0  0  0  0  0
  -30.3283  -19.7515   19.3847 C   0  0  0  0  0  0
  -29.9565  -20.2841   20.6520 C   0  0  0  0  0  0
  -29.7863  -17.9112   21.4573 C   0  0  0  0  0  0
  -29.2372  -22.5865   20.3341 C   0  0  0  0  0  0
  -29.8643  -15.9257   19.7588 C   0  0  0  0  0  0
  -30.7075  -20.6593   18.2251 C   0  0  0  0  0  0
  -29.3362  -24.1316   20.5991 C   0  0  0  0  0  0
  -28.2037  -25.0645   20.0074 C   0  0  0  0  0  0
  -29.1162  -15.7798   18.7452 N   0  0  0  0  0  0
  -29.9331  -21.6866   20.9611 N   0  0  0  0  0  0
  -29.4898  -17.0689   22.4772 F   0  0  0  0  0  0
  -31.4724  -12.5171   19.1356 H   0  0  0  0  0  0
  -30.3713  -11.4380   19.9562 H   0  0  0  0  0  0
  -29.7683  -11.6472   17.5206 H   0  0  0  0  0  0
  -29.6263  -13.3744   17.6766 H   0  0  0  0  0  0
  -27.8820  -11.2290   18.9259 H   0  0  0  0  0  0
  -27.3609  -12.4537   17.8006 H   0  0  0  0  0  0
  -27.5437  -14.1744   19.4258 H   0  0  0  0  0  0
  -28.7265  -12.2183   21.4609 H   0  0  0  0  0  0
  -28.4485  -13.9260   21.7174 H   0  0  0  0  0  0
  -25.2713   -9.5646   22.4792 H   0  0  0  0  0  0
  -23.9977   -7.4578   22.7468 H   0  0  0  0  0  0
  -21.0811   -8.8731   19.8943 H   0  0  0  0  0  0
  -22.3652  -10.9653   19.6199 H   0  0  0  0  0  0
  -21.1987   -7.6139   23.9716 H   0  0  0  0  0  0
  -21.1475   -6.0521   25.9083 H   0  0  0  0  0  0
  -22.0606   -2.7603   23.2857 H   0  0  0  0  0  0
  -22.4038  -11.9877   22.4829 H   0  0  0  0  0  0
  -21.1051  -13.1251   22.2638 H   0  0  0  0  0  0
  -24.6696  -15.8390   20.5232 H   0  0  0  0  0  0
  -26.2876  -15.6032   20.0865 H   0  0  0  0  0  0
  -26.7161  -32.5464   23.1116 H   0  0  0  0  0  0
  -25.0053  -33.9732   25.0429 H   0  0  0  0  0  0
  -22.7097  -31.3036   21.4034 H   0  0  0  0  0  0
  -23.3746  -35.9637   23.3302 H   0  0  0  0  0  0
  -24.3580  -36.8922   22.2053 H   0  0  0  0  0  0
  -23.7242  -37.6505   23.6660 H   0  0  0  0  0  0
  -26.0816  -31.5613   20.6018 H   0  0  0  0  0  0
  -26.8374  -30.8496   21.9975 H   0  0  0  0  0  0
  -28.1090  -29.0054   21.1952 H   0  0  0  0  0  0
  -25.9974  -25.9435   18.9915 H   0  0  0  0  0  0
  -23.9803  -27.3064   19.0065 H   0  0  0  0  0  0
  -23.7461  -30.5930   19.4031 H   0  0  0  0  0  0
  -22.7515  -29.2438   19.8605 H   0  0  0  0  0  0
  -25.1287  -36.1947   25.0825 H   0  0  0  0  0  0
  -20.9982  -28.3260   24.1410 H   0  0  0  0  0  0
  -20.5677  -26.2298   23.3611 H   0  0  0  0  0  0
  -21.6641  -26.7440   22.1204 H   0  0  0  0  0  0
  -19.6908  -25.6299   21.1238 H   0  0  0  0  0  0
  -19.6680  -27.3202   20.6750 H   0  0  0  0  0  0
  -17.4199  -26.6685   21.4027 H   0  0  0  0  0  0
  -18.0324  -26.0067   22.9020 H   0  0  0  0  0  0
  -19.7936  -30.7276   24.2264 H   0  0  0  0  0  0
  -17.5012  -31.6262   24.5175 H   0  0  0  0  0  0
  -15.5351  -30.2987   23.7644 H   0  0  0  0  0  0
  -15.8678  -28.0822   22.7059 H   0  0  0  0  0  0
  -24.5903  -30.7066   25.7780 H   0  0  0  0  0  0
  -24.8926  -32.2872   26.4895 H   0  0  0  0  0  0
  -25.8062  -30.8874   27.0219 H   0  0  0  0  0  0
  -26.2898  -29.6766   24.1189 H   0  0  0  0  0  0
  -27.4060  -29.7266   25.4641 H   0  0  0  0  0  0
  -27.8754  -30.4315   23.9351 H   0  0  0  0  0  0
  -27.2659  -33.3615   26.2076 H   0  0  0  0  0  0
  -28.3852  -32.6890   25.0312 H   0  0  0  0  0  0
  -28.0730  -31.8442   26.5398 H   0  0  0  0  0  0
  -28.2596  -38.0104   24.7514 H   0  0  0  0  0  0
  -28.1080  -36.2635   24.6287 H   0  0  0  0  0  0
  -27.2303  -37.1449   25.8870 H   0  0  0  0  0  0
  -20.9363  -29.8762   21.6893 H   0  0  0  0  0  0
  -26.0177  -38.2859   24.1406 H   0  0  0  0  0  0
  -30.6057  -17.9884   18.1751 H   0  0  0  0  0  0
  -29.4886  -19.6690   22.6729 H   0  0  0  0  0  0
  -28.5350  -22.3142   19.5410 H   0  0  0  0  0  0
  -31.2741  -20.1194   17.4658 H   0  0  0  0  0  0
  -31.3317  -21.4868   18.5625 H   0  0  0  0  0  0
  -29.8145  -21.0668   17.7512 H   0  0  0  0  0  0
  -30.2964  -24.4668   20.2070 H   0  0  0  0  0  0
  -29.3849  -24.2864   21.6766 H   0  0  0  0  0  0
  -27.2667  -24.7479   20.4678 H   0  0  0  0  0  0
  -28.1092  -24.8665   18.9388 H   0  0  0  0  0  0
  -28.7427  -16.6692   18.4383 H   0  0  0  0  0  0
  1 25  1  0  0  0
  1 30  2  0  0  0
  1 78  1  0  0  0
  2  3  1  0  0  0
  2 25  1  0  0  0
  2 85  1  0  0  0
  2 86  1  0  0  0
  3  4  1  0  0  0
  3 87  1  0  0  0
  3 88  1  0  0  0
  4  5  1  0  0  0
  4 89  1  0  0  0
  4 90  1  0  0  0
  5  6  1  0  0  0
  5 26  1  0  0  0
  5 91  1  0  0  0
  6 25  1  0  0  0
  6 92  1  0  0  0
  6 93  1  0  0  0
  7  8  2  0  0  0
  7 26  1  0  0  0
  7 29  1  0  0  0
  8  9  1  0  0  0
  8 22  1  0  0  0
  9 10  1  0  0  0
  9 27  2  0  0  0
 10 11  2  0  0  0
 10 15  1  0  0  0
 11 12  1  0  0  0
 11 94  1  0  0  0
 12 13  2  0  0  0
 12 95  1  0  0  0
 13 14  1  0  0  0
 13 31  1  0  0  0
 14 15  2  0  0  0
 14 96  1  0  0  0
 15 97  1  0  0  0
 16 17  2  0  0  0
 16 21  1  0  0  0
 16 31  1  0  0  0
 17 18  1  0  0  0
 17 98  1  0  0  0
 18 19  2  0  0  0
 18 99  1  0  0  0
 19 20  1  0  0  0
 19 24  1  0  0  0
 20 21  2  0  0  0
 20100  1  0  0  0
 21 23  1  0  0  0
 22 28  1  0  0  0
 22 32  2  0  0  0
 26 27  1  0  0  0
 28101  1  0  0  0
 28102  1  0  0  0
 29103  1  0  0  0
 29104  1  0  0  0
 33 34  1  0  0  0
 33 66  1  0  0  0
 33 70  2  0  0  0
 34 36  1  0  0  0
 34 59  1  0  0  0
 34105  1  0  0  0
 35 44  2  0  0  0
 35 45  1  0  0  0
 35 68  1  0  0  0
 36 56  1  0  0  0
 36106  1  0  0  0
 37 39  1  0  0  0
 37 47  1  0  0  0
 37 66  1  0  0  0
 37107  1  0  0  0
 38 43  2  0  0  0
 38 46  1  0  0  0
 38 47  1  0  0  0
 39 64  1  0  0  0
 39 67  2  0  0  0
 40 52  1  0  0  0
 40 53  2  0  0  0
 40 58  1  0  0  0
 41108  1  0  0  0
 41109  1  0  0  0
 41110  1  0  0  0
 41 48  1  0  0  0
 42 43  1  0  0  0
 42 66  1  0  0  0
 42111  1  0  0  0
 42112  1  0  0  0
 43 44  1  0  0  0
 44113  1  0  0  0
 45 46  2  0  0  0
 45114  1  0  0  0
 46115  1  0  0  0
 47116  1  0  0  0
 47117  1  0  0  0
 48 56  1  0  0  0
 48 65  1  0  0  0
 48118  1  0  0  0
 49 50  1  0  0  0
 49 53  1  0  0  0
 49 64  1  0  0  0
 49119  1  0  0  0
 50 51  1  0  0  0
 50120  1  0  0  0
 50121  1  0  0  0
 51 52  1  0  0  0
 51122  1  0  0  0
 51123  1  0  0  0
 52124  1  0  0  0
 52125  1  0  0  0
 53 54  1  0  0  0
 54 55  2  0  0  0
 54126  1  0  0  0
 55 57  1  0  0  0
 55127  1  0  0  0
 56 69  2  0  0  0
 57 58  2  0  0  0
 57128  1  0  0  0
 58129  1  0  0  0
 59 60  1  0  0  0
 59 61  1  0  0  0
 59 62  1  0  0  0
 60130  1  0  0  0
 60131  1  0  0  0
 60132  1  0  0  0
 61133  1  0  0  0
 61134  1  0  0  0
 61135  1  0  0  0
 62136  1  0  0  0
 62137  1  0  0  0
 62138  1  0  0  0
 63 65  1  0  0  0
 63139  1  0  0  0
 63140  1  0  0  0
 63141  1  0  0  0
 64142  1  0  0  0
 65143  1  0  0  0
 68 81  1  0  0  0
 71 73  2  0  0  0
 71 74  1  0  0  0
 71144  1  0  0  0
 72 75  1  0  0  0
 72 76  2  0  0  0
 72145  1  0  0  0
 73 76  1  0  0  0
 73 78  1  0  0  0
 74 75  2  0  0  0
 74 79  1  0  0  0
 75 83  1  0  0  0
 76 84  1  0  0  0
 77 80  1  0  0  0
 77 83  2  0  0  0
 77146  1  0  0  0
 78 82  2  0  0  0
 79147  1  0  0  0
 79148  1  0  0  0
 79149  1  0  0  0
 80 81  1  0  0  0
 80150  1  0  0  0
 80151  1  0  0  0
 81152  1  0  0  0
 81153  1  0  0  0
 82154  1  0  0  0
M  ISO  4   1 100  68 101  78 100  81 101
M  END
> <chiral flag>
0

> <version>
0

> <s_m_source_file>
/data/baiqing/PycharmProjects/Reinvent-master-3.2/result/LINK_invent/BTK/process_docking_weight1_custom_product_contain_oxygen_bond_distance_aromatic_linkinvent_7_9_3/rearranged_h_0110.sdf

> <i_m_source_file_index>
62

> <r_mmod_Potential_Energy-OPLS-2005>
259.00048828125

> <r_mmod_Stretch_Energy-OPLS-2005>
79.6580047607422

> <r_mmod_Bend_Energy-OPLS-2005>
141.662582397461

> <r_mmod_Torsional_Energy-OPLS-2005>
258.081512451172

> <r_mmod_Improper_Torsional_Energy-OPLS-2005>
23.9796733856201

> <r_mmod_Van_der_Waal_Energy-OPLS-2005>
155.935623168945

> <r_mmod_Electrostatic_Energy-OPLS-2005>
-273.821563720703

> <r_mmod_Solvation_Energy-OPLS-2005>
-197.73844909668

> <b_mmod_Minimization_Converged-OPLS-2005>
0

> <r_mmod_RMS_Derivative-OPLS-2005>
0.60130113363266

$$$$
63
                    3D
 Structure written by MMmdl.
163172  0  0  1  0            999 V2000
  -30.5781  -14.7663   20.4542 C   0  0  0  0  0  0
  -30.4466  -12.4768   19.4506 C   0  0  0  0  0  0
  -29.5122  -12.5079   18.2213 C   0  0  0  0  0  0
  -28.0377  -12.3281   18.6391 C   0  0  0  0  0  0
  -27.6374  -13.2274   19.8387 C   0  0  2  0  0  0
  -28.6880  -13.1589   20.9674 C   0  0  0  0  0  0
  -25.2517  -13.8162   20.5722 C   0  0  0  0  0  0
  -24.1797  -13.0414   20.9196 C   0  0  0  0  0  0
  -24.6366  -11.6891   20.8697 C   0  0  0  0  0  0
  -23.9035  -10.4270   21.0356 C   0  0  0  0  0  0
  -24.3584   -9.4208   21.9152 C   0  0  0  0  0  0
  -23.6256   -8.2247   22.0746 C   0  0  0  0  0  0
  -22.4247   -8.0273   21.3546 C   0  0  0  0  0  0
  -21.9860   -9.0238   20.4641 C   0  0  0  0  0  0
  -22.7188  -10.2107   20.3018 C   0  0  0  0  0  0
  -21.6859   -6.0698   22.5263 C   0  0  0  0  0  0
  -21.4036   -6.5597   23.8198 C   0  0  0  0  0  0
  -21.3656   -5.6757   24.9161 C   0  0  0  0  0  0
  -21.6039   -4.3014   24.7207 C   0  0  0  0  0  0
  -21.8829   -3.8112   23.4334 C   0  0  0  0  0  0
  -21.9196   -4.6932   22.3388 C   0  0  0  0  0  0
  -22.7814  -13.5240   21.1855 C   0  0  0  0  0  0
  -22.1675   -4.2123   21.0959 F   0  0  0  0  0  0
  -21.5606   -3.4495   25.7715 F   0  0  0  0  0  0
  -29.9807  -13.5293   20.3760 N   0  0  0  0  0  0
  -26.2920  -12.9349   20.3218 N   0  0  0  0  0  0
  -25.9290  -11.6500   20.5657 N   0  0  0  0  0  0
  -22.0426  -12.8256   22.0382 N   0  0  0  0  0  0
  -25.4162  -15.1895   20.4219 N   0  0  0  0  0  0
  -31.7846  -14.8914   20.2290 O   0  0  0  0  0  0
  -21.6644   -6.8855   21.4227 O   0  0  0  0  0  0
  -22.3527  -14.5562   20.6688 O   0  0  0  0  0  0
  -24.6344  -31.8553   23.1999 C   0  0  0  0  0  0
  -25.9170  -32.4743   23.8338 C   0  0  1  0  0  0
  -27.2175  -27.2428   20.1080 C   0  0  0  0  0  0
  -25.5963  -33.8545   24.2277 N   0  0  0  0  0  0
  -23.4307  -30.4812   21.5445 C   0  0  2  0  0  0
  -24.8773  -28.9338   20.1089 C   0  0  0  0  0  0
  -22.7502  -29.4613   22.4891 C   0  0  0  0  0  0
  -18.0311  -28.1391   22.8483 C   0  0  0  0  0  0
  -24.1500  -36.7278   23.2619 C   0  0  0  0  0  0
  -25.9823  -30.7590   21.3875 C   0  0  0  0  0  0
  -26.0538  -29.3833   20.7218 C   0  0  0  0  0  0
  -27.2275  -28.5520   20.7110 C   0  0  0  0  0  0
  -26.0177  -26.8882   19.4464 C   0  0  0  0  0  0
  -24.8667  -27.6944   19.4601 C   0  0  0  0  0  0
  -23.6489  -29.8220   20.1594 C   0  0  0  0  0  0
  -25.4118  -36.3055   24.0320 C   0  0  1  0  0  0
  -20.5906  -28.3716   23.1243 C   0  0  2  0  0  0
  -20.6796  -26.9426   22.5390 C   0  0  0  0  0  0
  -19.5779  -26.6393   21.5186 C   0  0  0  0  0  0
  -18.1962  -26.7949   22.1598 C   0  0  0  0  0  0
  -19.1561  -28.8869   23.2872 C   0  0  0  0  0  0
  -18.9471  -30.1455   23.8914 C   0  0  0  0  0  0
  -17.6471  -30.6581   24.0566 C   0  0  0  0  0  0
  -25.9065  -34.9421   23.5097 C   0  0  0  0  0  0
  -16.5365  -29.9079   23.6307 C   0  0  0  0  0  0
  -16.7301  -28.6485   23.0357 C   0  0  0  0  0  0
  -26.4526  -31.6559   25.0725 C   0  0  0  0  0  0
  -25.3727  -31.3756   26.1426 C   0  0  0  0  0  0
  -27.0340  -30.2944   24.6243 C   0  0  0  0  0  0
  -27.6081  -32.4289   25.7512 C   0  0  0  0  0  0
  -27.5603  -37.1784   24.8427 C   0  0  0  0  0  0
  -21.4207  -29.3069   22.3634 N   0  0  0  0  0  0
  -26.4288  -37.3758   23.9410 N   0  0  0  0  0  0
  -24.7015  -31.0492   22.0994 N   0  0  0  0  0  0
  -23.4193  -28.8126   23.2976 O   0  0  0  0  0  0
  -28.2929  -26.3070   20.1426 O   0  0  0  0  0  0
  -26.5610  -34.8901   22.4648 O   0  0  0  0  0  0
  -23.5484  -32.1396   23.7275 O   0  0  0  0  0  0
  -29.7486  -18.6632   23.0261 C   0  0  0  0  0  0
  -29.6236  -19.8340   22.2556 C   0  0  0  0  0  0
  -29.8455  -17.3745   22.4504 C   0  0  0  0  0  0
  -29.5737  -19.8000   20.8490 C   0  0  0  0  0  0
  -29.8375  -17.2332   21.0320 C   0  0  0  0  0  0
  -29.6901  -18.4637   20.2522 C   0  0  0  0  0  0
  -28.9366  -23.5886   20.0793 C   0  0  0  0  0  0
  -28.6971  -22.2698   20.4874 C   0  0  0  0  0  0
  -30.1124  -23.7847   19.2055 C   0  0  0  0  0  0
  -29.2235  -16.1488   24.5572 C   0  0  0  0  0  0
  -29.8193  -16.2016   23.3546 C   0  0  0  0  0  0
  -30.6174  -22.5509   18.4458 C   0  0  0  0  0  0
  -30.6727  -21.2742   19.3150 C   0  0  0  0  0  0
  -27.4139  -21.9616   21.2479 C   0  0  0  0  0  0
  -27.9340  -24.8333   20.2592 C   0  0  0  0  0  0
  -29.4865  -21.0906   20.1600 N   0  0  0  0  0  0
  -29.7268  -15.8626   20.4703 N   0  0  0  0  0  0
  -30.6715  -24.8720   19.0312 O   0  0  0  0  0  0
  -29.6066  -18.3460   18.9034 F   0  0  0  0  0  0
  -31.4784  -12.6385   19.1377 H   0  0  0  0  0  0
  -30.4269  -11.5026   19.9394 H   0  0  0  0  0  0
  -29.7964  -11.7304   17.5107 H   0  0  0  0  0  0
  -29.6318  -13.4549   17.6947 H   0  0  0  0  0  0
  -27.8966  -11.2793   18.9016 H   0  0  0  0  0  0
  -27.3844  -12.5192   17.7871 H   0  0  0  0  0  0
  -27.6235  -14.2467   19.4530 H   0  0  0  0  0  0
  -28.7347  -12.1555   21.3942 H   0  0  0  0  0  0
  -28.4208  -13.8271   21.7859 H   0  0  0  0  0  0
  -25.2705   -9.5679   22.4757 H   0  0  0  0  0  0
  -23.9945   -7.4647   22.7474 H   0  0  0  0  0  0
  -21.0783   -8.8746   19.8971 H   0  0  0  0  0  0
  -22.3631  -10.9637   19.6135 H   0  0  0  0  0  0
  -21.2064   -7.6109   23.9705 H   0  0  0  0  0  0
  -21.1468   -6.0473   25.9061 H   0  0  0  0  0  0
  -22.0614   -2.7575   23.2847 H   0  0  0  0  0  0
  -22.3983  -11.9896   22.4779 H   0  0  0  0  0  0
  -21.1048  -13.1330   22.2565 H   0  0  0  0  0  0
  -24.6445  -15.8304   20.5670 H   0  0  0  0  0  0
  -26.2429  -15.6475   20.0634 H   0  0  0  0  0  0
  -26.7225  -32.5408   23.1061 H   0  0  0  0  0  0
  -25.0130  -33.9677   25.0442 H   0  0  0  0  0  0
  -22.7291  -31.3057   21.4009 H   0  0  0  0  0  0
  -23.3773  -35.9594   23.3209 H   0  0  0  0  0  0
  -24.3616  -36.8965   22.2047 H   0  0  0  0  0  0
  -23.7232  -37.6451   23.6691 H   0  0  0  0  0  0
  -26.1286  -31.5260   20.6260 H   0  0  0  0  0  0
  -26.8556  -30.8027   22.0258 H   0  0  0  0  0  0
  -28.1266  -28.8931   21.2041 H   0  0  0  0  0  0
  -25.9219  -25.9748   18.8830 H   0  0  0  0  0  0
  -23.9725  -27.3540   18.9571 H   0  0  0  0  0  0
  -23.7762  -30.6030   19.4090 H   0  0  0  0  0  0
  -22.7654  -29.2598   19.8495 H   0  0  0  0  0  0
  -25.1289  -36.1896   25.0809 H   0  0  0  0  0  0
  -21.0024  -28.3308   24.1349 H   0  0  0  0  0  0
  -20.5673  -26.2318   23.3592 H   0  0  0  0  0  0
  -21.6673  -26.7444   22.1201 H   0  0  0  0  0  0
  -19.6940  -25.6301   21.1215 H   0  0  0  0  0  0
  -19.6714  -27.3195   20.6710 H   0  0  0  0  0  0
  -17.4224  -26.6696   21.4006 H   0  0  0  0  0  0
  -18.0367  -26.0082   22.8981 H   0  0  0  0  0  0
  -19.7941  -30.7269   24.2296 H   0  0  0  0  0  0
  -17.5014  -31.6254   24.5175 H   0  0  0  0  0  0
  -15.5369  -30.2975   23.7614 H   0  0  0  0  0  0
  -15.8702  -28.0786   22.7099 H   0  0  0  0  0  0
  -24.5930  -30.7059   25.7772 H   0  0  0  0  0  0
  -24.8896  -32.2948   26.4747 H   0  0  0  0  0  0
  -25.8021  -30.9014   27.0257 H   0  0  0  0  0  0
  -26.2916  -29.6705   24.1244 H   0  0  0  0  0  0
  -27.3942  -29.7193   25.4783 H   0  0  0  0  0  0
  -27.8842  -30.4152   23.9526 H   0  0  0  0  0  0
  -27.2705  -33.3599   26.2077 H   0  0  0  0  0  0
  -28.3918  -32.6823   25.0362 H   0  0  0  0  0  0
  -28.0713  -31.8415   26.5448 H   0  0  0  0  0  0
  -28.2524  -38.0174   24.7574 H   0  0  0  0  0  0
  -28.1205  -36.2709   24.6116 H   0  0  0  0  0  0
  -27.2345  -37.1246   25.8831 H   0  0  0  0  0  0
  -20.9375  -29.8786   21.6844 H   0  0  0  0  0  0
  -26.0160  -38.2818   24.1469 H   0  0  0  0  0  0
  -29.7583  -18.7741   24.1002 H   0  0  0  0  0  0
  -29.5658  -20.7820   22.7704 H   0  0  0  0  0  0
  -29.2680  -15.2477   25.1543 H   0  0  0  0  0  0
  -28.6765  -16.9855   24.9703 H   0  0  0  0  0  0
  -30.3444  -15.3144   23.0388 H   0  0  0  0  0  0
  -31.5919  -22.7531   17.9999 H   0  0  0  0  0  0
  -29.9247  -22.3819   17.6216 H   0  0  0  0  0  0
  -31.5589  -21.3061   19.9523 H   0  0  0  0  0  0
  -30.8030  -20.4165   18.6539 H   0  0  0  0  0  0
  -26.5593  -22.4022   20.7339 H   0  0  0  0  0  0
  -27.4606  -22.3822   22.2533 H   0  0  0  0  0  0
  -27.2030  -20.8958   21.3324 H   0  0  0  0  0  0
  -27.4014  -24.7099   21.2032 H   0  0  0  0  0  0
  -27.2143  -24.5812   19.4857 H   0  0  0  0  0  0
  -28.7708  -15.5960   20.3029 H   0  0  0  0  0  0
  1 25  1  0  0  0
  1 30  2  0  0  0
  1 87  1  0  0  0
  2  3  1  0  0  0
  2 25  1  0  0  0
  2 90  1  0  0  0
  2 91  1  0  0  0
  3  4  1  0  0  0
  3 92  1  0  0  0
  3 93  1  0  0  0
  4  5  1  0  0  0
  4 94  1  0  0  0
  4 95  1  0  0  0
  5  6  1  0  0  0
  5 26  1  0  0  0
  5 96  1  0  0  0
  6 25  1  0  0  0
  6 97  1  0  0  0
  6 98  1  0  0  0
  7  8  2  0  0  0
  7 26  1  0  0  0
  7 29  1  0  0  0
  8  9  1  0  0  0
  8 22  1  0  0  0
  9 10  1  0  0  0
  9 27  2  0  0  0
 10 11  2  0  0  0
 10 15  1  0  0  0
 11 12  1  0  0  0
 11 99  1  0  0  0
 12 13  2  0  0  0
 12100  1  0  0  0
 13 14  1  0  0  0
 13 31  1  0  0  0
 14 15  2  0  0  0
 14101  1  0  0  0
 15102  1  0  0  0
 16 17  2  0  0  0
 16 21  1  0  0  0
 16 31  1  0  0  0
 17 18  1  0  0  0
 17103  1  0  0  0
 18 19  2  0  0  0
 18104  1  0  0  0
 19 20  1  0  0  0
 19 24  1  0  0  0
 20 21  2  0  0  0
 20105  1  0  0  0
 21 23  1  0  0  0
 22 28  1  0  0  0
 22 32  2  0  0  0
 26 27  1  0  0  0
 28106  1  0  0  0
 28107  1  0  0  0
 29108  1  0  0  0
 29109  1  0  0  0
 33 34  1  0  0  0
 33 66  1  0  0  0
 33 70  2  0  0  0
 34 36  1  0  0  0
 34 59  1  0  0  0
 34110  1  0  0  0
 35 44  2  0  0  0
 35 45  1  0  0  0
 35 68  1  0  0  0
 36 56  1  0  0  0
 36111  1  0  0  0
 37 39  1  0  0  0
 37 47  1  0  0  0
 37 66  1  0  0  0
 37112  1  0  0  0
 38 43  2  0  0  0
 38 46  1  0  0  0
 38 47  1  0  0  0
 39 64  1  0  0  0
 39 67  2  0  0  0
 40 52  1  0  0  0
 40 53  2  0  0  0
 40 58  1  0  0  0
 41113  1  0  0  0
 41114  1  0  0  0
 41115  1  0  0  0
 41 48  1  0  0  0
 42 43  1  0  0  0
 42 66  1  0  0  0
 42116  1  0  0  0
 42117  1  0  0  0
 43 44  1  0  0  0
 44118  1  0  0  0
 45 46  2  0  0  0
 45119  1  0  0  0
 46120  1  0  0  0
 47121  1  0  0  0
 47122  1  0  0  0
 48 56  1  0  0  0
 48 65  1  0  0  0
 48123  1  0  0  0
 49 50  1  0  0  0
 49 53  1  0  0  0
 49 64  1  0  0  0
 49124  1  0  0  0
 50 51  1  0  0  0
 50125  1  0  0  0
 50126  1  0  0  0
 51 52  1  0  0  0
 51127  1  0  0  0
 51128  1  0  0  0
 52129  1  0  0  0
 52130  1  0  0  0
 53 54  1  0  0  0
 54 55  2  0  0  0
 54131  1  0  0  0
 55 57  1  0  0  0
 55132  1  0  0  0
 56 69  2  0  0  0
 57 58  2  0  0  0
 57133  1  0  0  0
 58134  1  0  0  0
 59 60  1  0  0  0
 59 61  1  0  0  0
 59 62  1  0  0  0
 60135  1  0  0  0
 60136  1  0  0  0
 60137  1  0  0  0
 61138  1  0  0  0
 61139  1  0  0  0
 61140  1  0  0  0
 62141  1  0  0  0
 62142  1  0  0  0
 62143  1  0  0  0
 63 65  1  0  0  0
 63144  1  0  0  0
 63145  1  0  0  0
 63146  1  0  0  0
 64147  1  0  0  0
 65148  1  0  0  0
 68 85  1  0  0  0
 71 72  2  0  0  0
 71 73  1  0  0  0
 71149  1  0  0  0
 72 74  1  0  0  0
 72150  1  0  0  0
 73 75  2  0  0  0
 73 81  1  0  0  0
 74 76  2  0  0  0
 74 86  1  0  0  0
 75 76  1  0  0  0
 75 87  1  0  0  0
 76 89  1  0  0  0
 77 78  2  0  0  0
 77 79  1  0  0  0
 77 85  1  0  0  0
 78 84  1  0  0  0
 78 86  1  0  0  0
 79 82  1  0  0  0
 79 88  2  0  0  0
 80 81  2  0  0  0
 80151  1  0  0  0
 80152  1  0  0  0
 81153  1  0  0  0
 82 83  1  0  0  0
 82154  1  0  0  0
 82155  1  0  0  0
 83 86  1  0  0  0
 83156  1  0  0  0
 83157  1  0  0  0
 84158  1  0  0  0
 84159  1  0  0  0
 84160  1  0  0  0
 85161  1  0  0  0
 85162  1  0  0  0
 87163  1  0  0  0
M  ISO  4   1 100  68 101  85 101  87 100
M  END
> <chiral flag>
0

> <version>
0

> <s_m_source_file>
/data/baiqing/PycharmProjects/Reinvent-master-3.2/result/LINK_invent/BTK/process_docking_weight1_custom_product_contain_oxygen_bond_distance_aromatic_linkinvent_7_9_3/rearranged_h_0110.sdf

> <i_m_source_file_index>
63

> <r_mmod_Potential_Energy-OPLS-2005>
283.529602050781

> <r_mmod_Stretch_Energy-OPLS-2005>
143.039169311523

> <r_mmod_Bend_Energy-OPLS-2005>
170.88850402832

> <r_mmod_Torsional_Energy-OPLS-2005>
268.832794189453

> <r_mmod_Improper_Torsional_Energy-OPLS-2005>
12.5183792114258

> <r_mmod_Van_der_Waal_Energy-OPLS-2005>
159.337127685547

> <r_mmod_Electrostatic_Energy-OPLS-2005>
-349.516143798828

> <r_mmod_Solvation_Energy-OPLS-2005>
-222.817413330078

> <b_mmod_Minimization_Converged-OPLS-2005>
0

> <r_mmod_RMS_Derivative-OPLS-2005>
3.35656046867371

$$$$
64
                    3D
 Structure written by MMmdl.
165173  0  0  1  0            999 V2000
  -30.7454  -14.8632   20.3687 C   0  0  0  0  0  0
  -30.3894  -12.5820   19.4263 C   0  0  0  0  0  0
  -29.4679  -12.4765   18.2052 C   0  0  0  0  0  0
  -28.0215  -12.2528   18.6715 C   0  0  0  0  0  0
  -27.6055  -13.2185   19.8118 C   0  0  2  0  0  0
  -28.6818  -13.3882   20.9082 C   0  0  0  0  0  0
  -25.2486  -13.8073   20.5932 C   0  0  0  0  0  0
  -24.1748  -13.0343   20.9308 C   0  0  0  0  0  0
  -24.6338  -11.6827   20.8807 C   0  0  0  0  0  0
  -23.9024  -10.4230   21.0427 C   0  0  0  0  0  0
  -24.3582   -9.4156   21.9206 C   0  0  0  0  0  0
  -23.6266   -8.2189   22.0759 C   0  0  0  0  0  0
  -22.4250   -8.0241   21.3544 C   0  0  0  0  0  0
  -21.9875   -9.0213   20.4651 C   0  0  0  0  0  0
  -22.7198  -10.2094   20.3070 C   0  0  0  0  0  0
  -21.6836   -6.0719   22.5285 C   0  0  0  0  0  0
  -21.3991   -6.5629   23.8217 C   0  0  0  0  0  0
  -21.3653   -5.6787   24.9184 C   0  0  0  0  0  0
  -21.6050   -4.3052   24.7233 C   0  0  0  0  0  0
  -21.8825   -3.8139   23.4356 C   0  0  0  0  0  0
  -21.9191   -4.6950   22.3411 C   0  0  0  0  0  0
  -22.7783  -13.5168   21.1906 C   0  0  0  0  0  0
  -22.1665   -4.2140   21.0986 F   0  0  0  0  0  0
  -21.5632   -3.4536   25.7746 F   0  0  0  0  0  0
  -29.9188  -13.7610   20.2071 N   0  0  0  0  0  0
  -26.2837  -12.9256   20.3367 N   0  0  0  0  0  0
  -25.9263  -11.6419   20.5824 N   0  0  0  0  0  0
  -22.0399  -12.8183   22.0455 N   0  0  0  0  0  0
  -25.4188  -15.1793   20.4601 N   0  0  0  0  0  0
  -31.9392  -14.5736   20.4713 O   0  0  0  0  0  0
  -21.6610   -6.8851   21.4245 O   0  0  0  0  0  0
  -22.3520  -14.5486   20.6734 O   0  0  0  0  0  0
  -24.6356  -31.8518   23.1964 C   0  0  0  0  0  0
  -25.9174  -32.4726   23.8317 C   0  0  1  0  0  0
  -27.2058  -27.2241   20.1190 C   0  0  0  0  0  0
  -25.5948  -33.8530   24.2239 N   0  0  0  0  0  0
  -23.4321  -30.4755   21.5418 C   0  0  2  0  0  0
  -24.8746  -28.9201   20.1064 C   0  0  0  0  0  0
  -22.7507  -29.4587   22.4899 C   0  0  0  0  0  0
  -18.0286  -28.1384   22.8483 C   0  0  0  0  0  0
  -24.1485  -36.7261   23.2639 C   0  0  0  0  0  0
  -25.9815  -30.7514   21.3817 C   0  0  0  0  0  0
  -26.0496  -29.3724   20.7193 C   0  0  0  0  0  0
  -27.2165  -28.5364   20.7153 C   0  0  0  0  0  0
  -26.0021  -26.8473   19.4814 C   0  0  0  0  0  0
  -24.8582  -27.6673   19.4772 C   0  0  0  0  0  0
  -23.6489  -29.8126   20.1568 C   0  0  0  0  0  0
  -25.4113  -36.3045   24.0323 C   0  0  1  0  0  0
  -20.5893  -28.3699   23.1252 C   0  0  2  0  0  0
  -20.6768  -26.9412   22.5397 C   0  0  0  0  0  0
  -19.5747  -26.6391   21.5194 C   0  0  0  0  0  0
  -18.1931  -26.7930   22.1613 C   0  0  0  0  0  0
  -19.1542  -28.8857   23.2867 C   0  0  0  0  0  0
  -18.9458  -30.1451   23.8899 C   0  0  0  0  0  0
  -17.6460  -30.6590   24.0555 C   0  0  0  0  0  0
  -25.9057  -34.9419   23.5082 C   0  0  0  0  0  0
  -16.5350  -29.9086   23.6333 C   0  0  0  0  0  0
  -16.7274  -28.6498   23.0370 C   0  0  0  0  0  0
  -26.4529  -31.6564   25.0728 C   0  0  0  0  0  0
  -25.3744  -31.3730   26.1446 C   0  0  0  0  0  0
  -27.0366  -30.2964   24.6245 C   0  0  0  0  0  0
  -27.6075  -32.4313   25.7511 C   0  0  0  0  0  0
  -27.5570  -37.1787   24.8466 C   0  0  0  0  0  0
  -21.4210  -29.3043   22.3634 N   0  0  0  0  0  0
  -26.4281  -37.3749   23.9409 N   0  0  0  0  0  0
  -24.7032  -31.0446   22.0957 N   0  0  0  0  0  0
  -23.4189  -28.8135   23.3020 O   0  0  0  0  0  0
  -28.2832  -26.3010   20.1985 O   0  0  0  0  0  0
  -26.5636  -34.8907   22.4652 O   0  0  0  0  0  0
  -23.5505  -32.1359   23.7240 O   0  0  0  0  0  0
  -28.1723  -16.9812   19.3759 C   0  0  0  0  0  0
  -29.5789  -18.6726   20.3801 C   0  0  0  0  0  0
  -27.1993  -17.9816   19.1448 C   0  0  0  0  0  0
  -29.3832  -17.2529   20.0347 C   0  0  0  0  0  0
  -28.6368  -19.7588   20.0970 C   0  0  0  0  0  0
  -27.4018  -19.3319   19.5393 C   0  0  0  0  0  0
  -28.1859  -24.9343   19.7557 C   0  0  0  0  0  0
  -28.5867  -23.7549   20.3949 C   0  0  0  0  0  0
  -28.4525  -22.3824   19.7324 C   0  0  0  0  0  0
  -25.9398  -17.6078   18.3813 C   0  0  0  0  0  0
  -30.6940  -23.9718   21.7877 C   0  0  0  0  0  0
  -31.7070  -16.8971   19.4772 C   0  0  0  0  0  0
  -25.3352  -20.1461   20.3096 C   0  0  0  0  0  0
  -29.1669  -23.8313   21.7999 C   0  0  0  0  0  0
  -28.8546  -21.2199   20.4075 N   0  0  0  0  0  0
  -30.4874  -16.2324   20.0046 N   0  0  0  0  0  0
  -28.0488  -22.2905   18.5706 O   0  0  0  0  0  0
  -26.3862  -20.2360   19.3561 O   0  0  0  0  0  0
  -31.4185  -12.6805   19.0762 H   0  0  0  0  0  0
  -30.3623  -11.6697   20.0248 H   0  0  0  0  0  0
  -29.7867  -11.6595   17.5566 H   0  0  0  0  0  0
  -29.5313  -13.3890   17.6090 H   0  0  0  0  0  0
  -27.9476  -11.2222   19.0198 H   0  0  0  0  0  0
  -27.3368  -12.3378   17.8275 H   0  0  0  0  0  0
  -27.4975  -14.1625   19.3038 H   0  0  0  0  0  0
  -28.8138  -12.4736   21.4874 H   0  0  0  0  0  0
  -28.3946  -14.1756   21.6079 H   0  0  0  0  0  0
  -25.2729   -9.5624   22.4792 H   0  0  0  0  0  0
  -23.9985   -7.4562   22.7450 H   0  0  0  0  0  0
  -21.0821   -8.8713   19.8948 H   0  0  0  0  0  0
  -22.3655  -10.9638   19.6188 H   0  0  0  0  0  0
  -21.1960   -7.6136   23.9709 H   0  0  0  0  0  0
  -21.1478   -6.0523   25.9085 H   0  0  0  0  0  0
  -22.0612   -2.7602   23.2857 H   0  0  0  0  0  0
  -22.3995  -11.9866   22.4895 H   0  0  0  0  0  0
  -21.1008  -13.1217   22.2609 H   0  0  0  0  0  0
  -24.6551  -15.8240   20.6259 H   0  0  0  0  0  0
  -26.2918  -15.6418   20.2460 H   0  0  0  0  0  0
  -26.7239  -32.5349   23.1049 H   0  0  0  0  0  0
  -25.0067  -33.9647   25.0371 H   0  0  0  0  0  0
  -22.7299  -31.2991   21.3978 H   0  0  0  0  0  0
  -23.3753  -35.9589   23.3303 H   0  0  0  0  0  0
  -24.3565  -36.8880   22.2049 H   0  0  0  0  0  0
  -23.7234  -37.6459   23.6670 H   0  0  0  0  0  0
  -26.1270  -31.5122   20.6139 H   0  0  0  0  0  0
  -26.8569  -30.7962   22.0179 H   0  0  0  0  0  0
  -28.1168  -28.8734   21.2105 H   0  0  0  0  0  0
  -25.9014  -25.8844   19.0058 H   0  0  0  0  0  0
  -23.9569  -27.3129   18.9970 H   0  0  0  0  0  0
  -23.7714  -30.5922   19.4036 H   0  0  0  0  0  0
  -22.7647  -29.2482   19.8542 H   0  0  0  0  0  0
  -25.1298  -36.1888   25.0817 H   0  0  0  0  0  0
  -20.9982  -28.3297   24.1374 H   0  0  0  0  0  0
  -20.5624  -26.2323   23.3613 H   0  0  0  0  0  0
  -21.6641  -26.7411   22.1207 H   0  0  0  0  0  0
  -19.6904  -25.6304   21.1221 H   0  0  0  0  0  0
  -19.6683  -27.3202   20.6726 H   0  0  0  0  0  0
  -17.4183  -26.6660   21.4035 H   0  0  0  0  0  0
  -18.0355  -26.0073   22.9011 H   0  0  0  0  0  0
  -19.7932  -30.7251   24.2299 H   0  0  0  0  0  0
  -17.5015  -31.6273   24.5140 H   0  0  0  0  0  0
  -15.5350  -30.2982   23.7662 H   0  0  0  0  0  0
  -15.8675  -28.0800   22.7122 H   0  0  0  0  0  0
  -24.5938  -30.7052   25.7783 H   0  0  0  0  0  0
  -24.8917  -32.2899   26.4834 H   0  0  0  0  0  0
  -25.8058  -30.8941   27.0246 H   0  0  0  0  0  0
  -26.2950  -29.6718   24.1244 H   0  0  0  0  0  0
  -27.3995  -29.7230   25.4785 H   0  0  0  0  0  0
  -27.8864  -30.4204   23.9530 H   0  0  0  0  0  0
  -27.2679  -33.3623   26.2063 H   0  0  0  0  0  0
  -28.3908  -32.6851   25.0358 H   0  0  0  0  0  0
  -28.0730  -31.8453   26.5444 H   0  0  0  0  0  0
  -28.2592  -38.0079   24.7499 H   0  0  0  0  0  0
  -28.1064  -36.2610   24.6318 H   0  0  0  0  0  0
  -27.2283  -37.1450   25.8868 H   0  0  0  0  0  0
  -20.9407  -29.8760   21.6824 H   0  0  0  0  0  0
  -26.0163  -38.2820   24.1427 H   0  0  0  0  0  0
  -28.0296  -16.0186   18.9299 H   0  0  0  0  0  0
  -30.5258  -18.9565   20.8160 H   0  0  0  0  0  0
  -27.7684  -24.8869   18.7604 H   0  0  0  0  0  0
  -26.0502  -16.6540   17.8642 H   0  0  0  0  0  0
  -25.7060  -18.3619   17.6295 H   0  0  0  0  0  0
  -25.0883  -17.5256   19.0563 H   0  0  0  0  0  0
  -31.0844  -24.0772   22.8008 H   0  0  0  0  0  0
  -30.9995  -24.8542   21.2246 H   0  0  0  0  0  0
  -31.1729  -23.1052   21.3312 H   0  0  0  0  0  0
  -32.2340  -16.2721   18.7521 H   0  0  0  0  0  0
  -32.3982  -17.1426   20.2849 H   0  0  0  0  0  0
  -31.5034  -17.8147   18.9251 H   0  0  0  0  0  0
  -25.0819  -21.1452   20.6641 H   0  0  0  0  0  0
  -25.5903  -19.5398   21.1813 H   0  0  0  0  0  0
  -24.4418  -19.7257   19.8476 H   0  0  0  0  0  0
  -28.8600  -22.9668   22.3898 H   0  0  0  0  0  0
  -28.7317  -24.6942   22.3072 H   0  0  0  0  0  0
  -29.3646  -21.4038   21.2590 H   0  0  0  0  0  0
  1 25  1  0  0  0
  1 30  2  0  0  0
  1 86  1  0  0  0
  2  3  1  0  0  0
  2 25  1  0  0  0
  2 89  1  0  0  0
  2 90  1  0  0  0
  3  4  1  0  0  0
  3 91  1  0  0  0
  3 92  1  0  0  0
  4  5  1  0  0  0
  4 93  1  0  0  0
  4 94  1  0  0  0
  5  6  1  0  0  0
  5 26  1  0  0  0
  5 95  1  0  0  0
  6 25  1  0  0  0
  6 96  1  0  0  0
  6 97  1  0  0  0
  7  8  2  0  0  0
  7 26  1  0  0  0
  7 29  1  0  0  0
  8  9  1  0  0  0
  8 22  1  0  0  0
  9 10  1  0  0  0
  9 27  2  0  0  0
 10 11  2  0  0  0
 10 15  1  0  0  0
 11 12  1  0  0  0
 11 98  1  0  0  0
 12 13  2  0  0  0
 12 99  1  0  0  0
 13 14  1  0  0  0
 13 31  1  0  0  0
 14 15  2  0  0  0
 14100  1  0  0  0
 15101  1  0  0  0
 16 17  2  0  0  0
 16 21  1  0  0  0
 16 31  1  0  0  0
 17 18  1  0  0  0
 17102  1  0  0  0
 18 19  2  0  0  0
 18103  1  0  0  0
 19 20  1  0  0  0
 19 24  1  0  0  0
 20 21  2  0  0  0
 20104  1  0  0  0
 21 23  1  0  0  0
 22 28  1  0  0  0
 22 32  2  0  0  0
 26 27  1  0  0  0
 28105  1  0  0  0
 28106  1  0  0  0
 29107  1  0  0  0
 29108  1  0  0  0
 33 34  1  0  0  0
 33 66  1  0  0  0
 33 70  2  0  0  0
 34 36  1  0  0  0
 34 59  1  0  0  0
 34109  1  0  0  0
 35 44  2  0  0  0
 35 45  1  0  0  0
 35 68  1  0  0  0
 36 56  1  0  0  0
 36110  1  0  0  0
 37 39  1  0  0  0
 37 47  1  0  0  0
 37 66  1  0  0  0
 37111  1  0  0  0
 38 43  2  0  0  0
 38 46  1  0  0  0
 38 47  1  0  0  0
 39 64  1  0  0  0
 39 67  2  0  0  0
 40 52  1  0  0  0
 40 53  2  0  0  0
 40 58  1  0  0  0
 41112  1  0  0  0
 41113  1  0  0  0
 41114  1  0  0  0
 41 48  1  0  0  0
 42 43  1  0  0  0
 42 66  1  0  0  0
 42115  1  0  0  0
 42116  1  0  0  0
 43 44  1  0  0  0
 44117  1  0  0  0
 45 46  2  0  0  0
 45118  1  0  0  0
 46119  1  0  0  0
 47120  1  0  0  0
 47121  1  0  0  0
 48 56  1  0  0  0
 48 65  1  0  0  0
 48122  1  0  0  0
 49 50  1  0  0  0
 49 53  1  0  0  0
 49 64  1  0  0  0
 49123  1  0  0  0
 50 51  1  0  0  0
 50124  1  0  0  0
 50125  1  0  0  0
 51 52  1  0  0  0
 51126  1  0  0  0
 51127  1  0  0  0
 52128  1  0  0  0
 52129  1  0  0  0
 53 54  1  0  0  0
 54 55  2  0  0  0
 54130  1  0  0  0
 55 57  1  0  0  0
 55131  1  0  0  0
 56 69  2  0  0  0
 57 58  2  0  0  0
 57132  1  0  0  0
 58133  1  0  0  0
 59 60  1  0  0  0
 59 61  1  0  0  0
 59 62  1  0  0  0
 60134  1  0  0  0
 60135  1  0  0  0
 60136  1  0  0  0
 61137  1  0  0  0
 61138  1  0  0  0
 61139  1  0  0  0
 62140  1  0  0  0
 62141  1  0  0  0
 62142  1  0  0  0
 63 65  1  0  0  0
 63143  1  0  0  0
 63144  1  0  0  0
 63145  1  0  0  0
 64146  1  0  0  0
 65147  1  0  0  0
 68 77  1  0  0  0
 71 73  2  0  0  0
 71 74  1  0  0  0
 71148  1  0  0  0
 72 74  2  0  0  0
 72 75  1  0  0  0
 72149  1  0  0  0
 73 76  1  0  0  0
 73 80  1  0  0  0
 74 86  1  0  0  0
 75 76  2  0  0  0
 75 85  1  0  0  0
 76 88  1  0  0  0
 77 78  2  0  0  0
 77150  1  0  0  0
 78 79  1  0  0  0
 78 84  1  0  0  0
 79 85  1  0  0  0
 79 87  2  0  0  0
 80151  1  0  0  0
 80152  1  0  0  0
 80153  1  0  0  0
 81 84  1  0  0  0
 81154  1  0  0  0
 81155  1  0  0  0
 81156  1  0  0  0
 82 86  1  0  0  0
 82157  1  0  0  0
 82158  1  0  0  0
 82159  1  0  0  0
 83 88  1  0  0  0
 83160  1  0  0  0
 83161  1  0  0  0
 83162  1  0  0  0
 84163  1  0  0  0
 84164  1  0  0  0
 85165  1  0  0  0
M  ISO  4   1 100  68 101  77 101  86 100
M  END
> <chiral flag>
0

> <version>
0

> <s_m_source_file>
/data/baiqing/PycharmProjects/Reinvent-master-3.2/result/LINK_invent/BTK/process_docking_weight1_custom_product_contain_oxygen_bond_distance_aromatic_linkinvent_7_9_3/rearranged_h_0110.sdf

> <i_m_source_file_index>
64

> <r_mmod_Potential_Energy-OPLS-2005>
591.616821289062

> <r_mmod_Stretch_Energy-OPLS-2005>
168.643249511719

> <r_mmod_Bend_Energy-OPLS-2005>
255.059936523438

> <r_mmod_Torsional_Energy-OPLS-2005>
343.395751953125

> <r_mmod_Improper_Torsional_Energy-OPLS-2005>
18.8262348175049

> <r_mmod_Van_der_Waal_Energy-OPLS-2005>
166.141250610352

> <r_mmod_Electrostatic_Energy-OPLS-2005>
-334.532135009766

> <r_mmod_Solvation_Energy-OPLS-2005>
-206.693099975586

> <b_mmod_Minimization_Converged-OPLS-2005>
0

> <r_mmod_RMS_Derivative-OPLS-2005>
1.96236991882324

$$$$
65
                    3D
 Structure written by MMmdl.
159167  0  0  1  0            999 V2000
  -30.6207  -14.6745   20.5523 C   0  0  0  0  0  0
  -30.4421  -12.4251   19.4616 C   0  0  0  0  0  0
  -29.5137  -12.5354   18.2317 C   0  0  0  0  0  0
  -28.0363  -12.3585   18.6395 C   0  0  0  0  0  0
  -27.6556  -13.2232   19.8713 C   0  0  2  0  0  0
  -28.6987  -13.0781   21.0010 C   0  0  0  0  0  0
  -25.2549  -13.8185   20.5685 C   0  0  0  0  0  0
  -24.1810  -13.0441   20.9164 C   0  0  0  0  0  0
  -24.6401  -11.6915   20.8738 C   0  0  0  0  0  0
  -23.9071  -10.4298   21.0407 C   0  0  0  0  0  0
  -24.3619   -9.4210   21.9185 C   0  0  0  0  0  0
  -23.6290   -8.2248   22.0752 C   0  0  0  0  0  0
  -22.4275   -8.0284   21.3538 C   0  0  0  0  0  0
  -21.9913   -9.0261   20.4645 C   0  0  0  0  0  0
  -22.7245  -10.2139   20.3053 C   0  0  0  0  0  0
  -21.6847   -6.0740   22.5280 C   0  0  0  0  0  0
  -21.4016   -6.5641   23.8218 C   0  0  0  0  0  0
  -21.3655   -5.6790   24.9176 C   0  0  0  0  0  0
  -21.6042   -4.3053   24.7226 C   0  0  0  0  0  0
  -21.8819   -3.8148   23.4347 C   0  0  0  0  0  0
  -21.9184   -4.6965   22.3403 C   0  0  0  0  0  0
  -22.7831  -13.5225   21.1831 C   0  0  0  0  0  0
  -22.1649   -4.2146   21.0984 F   0  0  0  0  0  0
  -21.5633   -3.4537   25.7744 F   0  0  0  0  0  0
  -30.0123  -13.4441   20.4449 N   0  0  0  0  0  0
  -26.2998  -12.9383   20.3357 N   0  0  0  0  0  0
  -25.9338  -11.6526   20.5768 N   0  0  0  0  0  0
  -22.0481  -12.8222   22.0405 N   0  0  0  0  0  0
  -25.4272  -15.1909   20.4124 N   0  0  0  0  0  0
  -31.7320  -14.8461   20.0462 O   0  0  0  0  0  0
  -21.6640   -6.8877   21.4237 O   0  0  0  0  0  0
  -22.3505  -14.5524   20.6680 O   0  0  0  0  0  0
  -24.6273  -31.8575   23.1998 C   0  0  0  0  0  0
  -25.9113  -32.4761   23.8335 C   0  0  1  0  0  0
  -27.2325  -27.2990   20.1263 C   0  0  0  0  0  0
  -25.5923  -33.8566   24.2264 N   0  0  0  0  0  0
  -23.4229  -30.4785   21.5426 C   0  0  2  0  0  0
  -24.8706  -28.9240   20.1158 C   0  0  0  0  0  0
  -22.7475  -29.4611   22.4936 C   0  0  0  0  0  0
  -18.0285  -28.1379   22.8483 C   0  0  0  0  0  0
  -24.1489  -36.7293   23.2637 C   0  0  0  0  0  0
  -25.9642  -30.7829   21.3712 C   0  0  0  0  0  0
  -26.0395  -29.4064   20.7167 C   0  0  0  0  0  0
  -27.2231  -28.6083   20.7059 C   0  0  0  0  0  0
  -26.0371  -26.8662   19.5105 C   0  0  0  0  0  0
  -24.8721  -27.6599   19.5034 C   0  0  0  0  0  0
  -23.6395  -29.8074   20.1602 C   0  0  0  0  0  0
  -25.4109  -36.3075   24.0326 C   0  0  1  0  0  0
  -20.5883  -28.3686   23.1280 C   0  0  2  0  0  0
  -20.6773  -26.9409   22.5407 C   0  0  0  0  0  0
  -19.5756  -26.6380   21.5206 C   0  0  0  0  0  0
  -18.1934  -26.7922   22.1613 C   0  0  0  0  0  0
  -19.1536  -28.8851   23.2875 C   0  0  0  0  0  0
  -18.9463  -30.1451   23.8893 C   0  0  0  0  0  0
  -17.6465  -30.6581   24.0559 C   0  0  0  0  0  0
  -25.9054  -34.9446   23.5099 C   0  0  0  0  0  0
  -16.5356  -29.9081   23.6328 C   0  0  0  0  0  0
  -16.7273  -28.6497   23.0351 C   0  0  0  0  0  0
  -26.4496  -31.6576   25.0715 C   0  0  0  0  0  0
  -25.3737  -31.3724   26.1450 C   0  0  0  0  0  0
  -27.0333  -30.2997   24.6176 C   0  0  0  0  0  0
  -27.6056  -32.4309   25.7486 C   0  0  0  0  0  0
  -27.5589  -37.1780   24.8446 C   0  0  0  0  0  0
  -21.4189  -29.3036   22.3671 N   0  0  0  0  0  0
  -26.4278  -37.3785   23.9430 N   0  0  0  0  0  0
  -24.6908  -31.0568   22.0948 N   0  0  0  0  0  0
  -23.4189  -28.8156   23.3027 O   0  0  0  0  0  0
  -28.3685  -26.4703   20.1477 O   0  0  0  0  0  0
  -26.5631  -34.8919   22.4671 O   0  0  0  0  0  0
  -23.5433  -32.1378   23.7315 O   0  0  0  0  0  0
  -28.9082  -17.4863   23.1262 C   0  0  0  0  0  0
  -28.5754  -19.6212   24.1811 C   0  0  0  0  0  0
  -29.3972  -18.0667   21.9195 C   0  0  0  0  0  0
  -28.4856  -18.2328   24.2299 C   0  0  0  0  0  0
  -29.0235  -20.2632   23.0176 C   0  0  0  0  0  0
  -29.3441  -19.5401   21.8162 C   0  0  0  0  0  0
  -29.9857  -16.9830   20.9806 C   0  0  0  0  0  0
  -29.1188  -21.6338   20.4960 C   0  0  0  0  0  0
  -29.9064  -22.6994   20.1471 C   0  0  0  0  0  0
  -29.5954  -24.2129   20.0029 C   0  0  0  0  0  0
  -30.4311  -22.0355   23.5892 C   0  0  0  0  0  0
  -28.2279  -24.9791   20.2048 C   0  0  0  0  0  0
  -29.8675  -15.6890   21.2027 N   0  0  0  0  0  0
  -28.0317  -17.5964   25.3843 N   0  0  0  0  0  0
  -30.5347  -24.9551   19.6868 O   0  0  0  0  0  0
  -31.1919  -22.3927   19.9053 O   0  0  0  0  0  0
  -29.6240  -20.3124   20.6598 O   0  0  0  0  0  0
  -29.1488  -21.6263   23.1306 O   0  0  0  0  0  0
  -31.4840  -12.5486   19.1591 H   0  0  0  0  0  0
  -30.3807  -11.4285   19.9007 H   0  0  0  0  0  0
  -29.7888  -11.7925   17.4819 H   0  0  0  0  0  0
  -29.6473  -13.5101   17.7593 H   0  0  0  0  0  0
  -27.8785  -11.3034   18.8649 H   0  0  0  0  0  0
  -27.3816  -12.5887   17.7990 H   0  0  0  0  0  0
  -27.6780  -14.2618   19.5394 H   0  0  0  0  0  0
  -28.7218  -12.0529   21.3746 H   0  0  0  0  0  0
  -28.4273  -13.6956   21.8578 H   0  0  0  0  0  0
  -25.2773   -9.5665   22.4750 H   0  0  0  0  0  0
  -23.9989   -7.4634   22.7472 H   0  0  0  0  0  0
  -21.0839   -8.8777   19.8960 H   0  0  0  0  0  0
  -22.3703  -10.9670   19.6152 H   0  0  0  0  0  0
  -21.2013   -7.6151   23.9724 H   0  0  0  0  0  0
  -21.1481   -6.0524   25.9080 H   0  0  0  0  0  0
  -22.0601   -2.7611   23.2855 H   0  0  0  0  0  0
  -22.4086  -11.9882   22.4799 H   0  0  0  0  0  0
  -21.1105  -13.1261   22.2624 H   0  0  0  0  0  0
  -24.6735  -15.8565   20.5458 H   0  0  0  0  0  0
  -26.3023  -15.6266   20.1518 H   0  0  0  0  0  0
  -26.7182  -32.5426   23.1084 H   0  0  0  0  0  0
  -25.0045  -33.9708   25.0390 H   0  0  0  0  0  0
  -22.7174  -31.2990   21.3953 H   0  0  0  0  0  0
  -23.3763  -35.9608   23.3245 H   0  0  0  0  0  0
  -24.3599  -36.8973   22.2062 H   0  0  0  0  0  0
  -23.7215  -37.6466   23.6696 H   0  0  0  0  0  0
  -26.0953  -31.5443   20.6012 H   0  0  0  0  0  0
  -26.8437  -30.8346   22.0010 H   0  0  0  0  0  0
  -28.1235  -28.9797   21.1747 H   0  0  0  0  0  0
  -25.9807  -25.9043   19.0243 H   0  0  0  0  0  0
  -23.9756  -27.2841   19.0293 H   0  0  0  0  0  0
  -23.7612  -30.5808   19.4009 H   0  0  0  0  0  0
  -22.7593  -29.2375   19.8579 H   0  0  0  0  0  0
  -25.1281  -36.1916   25.0817 H   0  0  0  0  0  0
  -20.9974  -28.3260   24.1400 H   0  0  0  0  0  0
  -20.5661  -26.2299   23.3610 H   0  0  0  0  0  0
  -21.6645  -26.7431   22.1210 H   0  0  0  0  0  0
  -19.6920  -25.6291   21.1238 H   0  0  0  0  0  0
  -19.6695  -27.3186   20.6729 H   0  0  0  0  0  0
  -17.4204  -26.6664   21.4016 H   0  0  0  0  0  0
  -18.0337  -26.0058   22.9009 H   0  0  0  0  0  0
  -19.7946  -30.7263   24.2259 H   0  0  0  0  0  0
  -17.5025  -31.6265   24.5158 H   0  0  0  0  0  0
  -15.5357  -30.2986   23.7655 H   0  0  0  0  0  0
  -15.8668  -28.0816   22.7070 H   0  0  0  0  0  0
  -24.5889  -30.7100   25.7784 H   0  0  0  0  0  0
  -24.8962  -32.2897   26.4903 H   0  0  0  0  0  0
  -25.8064  -30.8875   27.0209 H   0  0  0  0  0  0
  -26.2905  -29.6742   24.1213 H   0  0  0  0  0  0
  -27.4036  -29.7257   25.4680 H   0  0  0  0  0  0
  -27.8772  -30.4269   23.9393 H   0  0  0  0  0  0
  -27.2665  -33.3601   26.2072 H   0  0  0  0  0  0
  -28.3864  -32.6876   25.0318 H   0  0  0  0  0  0
  -28.0725  -31.8430   26.5397 H   0  0  0  0  0  0
  -28.2540  -38.0145   24.7591 H   0  0  0  0  0  0
  -28.1155  -36.2683   24.6135 H   0  0  0  0  0  0
  -27.2334  -37.1255   25.8852 H   0  0  0  0  0  0
  -20.9369  -29.8770   21.6887 H   0  0  0  0  0  0
  -26.0150  -38.2842   24.1494 H   0  0  0  0  0  0
  -28.8795  -16.4137   23.2557 H   0  0  0  0  0  0
  -28.3109  -20.2142   25.0451 H   0  0  0  0  0  0
  -30.5613  -17.3546   20.1270 H   0  0  0  0  0  0
  -28.0611  -21.7063   20.7124 H   0  0  0  0  0  0
  -30.5120  -23.1208   23.5382 H   0  0  0  0  0  0
  -31.2296  -21.6146   22.9761 H   0  0  0  0  0  0
  -30.5942  -21.7370   24.6253 H   0  0  0  0  0  0
  -27.8055  -24.6939   21.1686 H   0  0  0  0  0  0
  -27.5496  -24.6211   19.4330 H   0  0  0  0  0  0
  -27.7459  -16.6233   25.3335 H   0  0  0  0  0  0
  -27.5065  -18.1266   26.0741 H   0  0  0  0  0  0
  -31.2684  -21.4520   20.0030 H   0  0  0  0  0  0
  1 25  1  0  0  0
  1 30  2  0  0  0
  1 83  1  0  0  0
  2  3  1  0  0  0
  2 25  1  0  0  0
  2 89  1  0  0  0
  2 90  1  0  0  0
  3  4  1  0  0  0
  3 91  1  0  0  0
  3 92  1  0  0  0
  4  5  1  0  0  0
  4 93  1  0  0  0
  4 94  1  0  0  0
  5  6  1  0  0  0
  5 26  1  0  0  0
  5 95  1  0  0  0
  6 25  1  0  0  0
  6 96  1  0  0  0
  6 97  1  0  0  0
  7  8  2  0  0  0
  7 26  1  0  0  0
  7 29  1  0  0  0
  8  9  1  0  0  0
  8 22  1  0  0  0
  9 10  1  0  0  0
  9 27  2  0  0  0
 10 11  2  0  0  0
 10 15  1  0  0  0
 11 12  1  0  0  0
 11 98  1  0  0  0
 12 13  2  0  0  0
 12 99  1  0  0  0
 13 14  1  0  0  0
 13 31  1  0  0  0
 14 15  2  0  0  0
 14100  1  0  0  0
 15101  1  0  0  0
 16 17  2  0  0  0
 16 21  1  0  0  0
 16 31  1  0  0  0
 17 18  1  0  0  0
 17102  1  0  0  0
 18 19  2  0  0  0
 18103  1  0  0  0
 19 20  1  0  0  0
 19 24  1  0  0  0
 20 21  2  0  0  0
 20104  1  0  0  0
 21 23  1  0  0  0
 22 28  1  0  0  0
 22 32  2  0  0  0
 26 27  1  0  0  0
 28105  1  0  0  0
 28106  1  0  0  0
 29107  1  0  0  0
 29108  1  0  0  0
 33 34  1  0  0  0
 33 66  1  0  0  0
 33 70  2  0  0  0
 34 36  1  0  0  0
 34 59  1  0  0  0
 34109  1  0  0  0
 35 44  2  0  0  0
 35 45  1  0  0  0
 35 68  1  0  0  0
 36 56  1  0  0  0
 36110  1  0  0  0
 37 39  1  0  0  0
 37 47  1  0  0  0
 37 66  1  0  0  0
 37111  1  0  0  0
 38 43  2  0  0  0
 38 46  1  0  0  0
 38 47  1  0  0  0
 39 64  1  0  0  0
 39 67  2  0  0  0
 40 52  1  0  0  0
 40 53  2  0  0  0
 40 58  1  0  0  0
 41112  1  0  0  0
 41113  1  0  0  0
 41114  1  0  0  0
 41 48  1  0  0  0
 42 43  1  0  0  0
 42 66  1  0  0  0
 42115  1  0  0  0
 42116  1  0  0  0
 43 44  1  0  0  0
 44117  1  0  0  0
 45 46  2  0  0  0
 45118  1  0  0  0
 46119  1  0  0  0
 47120  1  0  0  0
 47121  1  0  0  0
 48 56  1  0  0  0
 48 65  1  0  0  0
 48122  1  0  0  0
 49 50  1  0  0  0
 49 53  1  0  0  0
 49 64  1  0  0  0
 49123  1  0  0  0
 50 51  1  0  0  0
 50124  1  0  0  0
 50125  1  0  0  0
 51 52  1  0  0  0
 51126  1  0  0  0
 51127  1  0  0  0
 52128  1  0  0  0
 52129  1  0  0  0
 53 54  1  0  0  0
 54 55  2  0  0  0
 54130  1  0  0  0
 55 57  1  0  0  0
 55131  1  0  0  0
 56 69  2  0  0  0
 57 58  2  0  0  0
 57132  1  0  0  0
 58133  1  0  0  0
 59 60  1  0  0  0
 59 61  1  0  0  0
 59 62  1  0  0  0
 60134  1  0  0  0
 60135  1  0  0  0
 60136  1  0  0  0
 61137  1  0  0  0
 61138  1  0  0  0
 61139  1  0  0  0
 62140  1  0  0  0
 62141  1  0  0  0
 62142  1  0  0  0
 63 65  1  0  0  0
 63143  1  0  0  0
 63144  1  0  0  0
 63145  1  0  0  0
 64146  1  0  0  0
 65147  1  0  0  0
 68 82  1  0  0  0
 71 73  2  0  0  0
 71 74  1  0  0  0
 71148  1  0  0  0
 72 74  2  0  0  0
 72 75  1  0  0  0
 72149  1  0  0  0
 73 76  1  0  0  0
 73 77  1  0  0  0
 74 84  1  0  0  0
 75 76  2  0  0  0
 75 88  1  0  0  0
 76 87  1  0  0  0
 77 83  2  0  0  0
 77150  1  0  0  0
 78 79  2  0  0  0
 78 87  1  0  0  0
 78151  1  0  0  0
 79 80  1  0  0  0
 79 86  1  0  0  0
 80 82  1  0  0  0
 80 85  2  0  0  0
 81 88  1  0  0  0
 81152  1  0  0  0
 81153  1  0  0  0
 81154  1  0  0  0
 82155  1  0  0  0
 82156  1  0  0  0
 84157  1  0  0  0
 84158  1  0  0  0
 86159  1  0  0  0
M  ISO  4   1 100  68 101  82 101  83 100
M  END
> <chiral flag>
0

> <version>
0

> <s_m_source_file>
/data/baiqing/PycharmProjects/Reinvent-master-3.2/result/LINK_invent/BTK/process_docking_weight1_custom_product_contain_oxygen_bond_distance_aromatic_linkinvent_7_9_3/rearranged_h_0110.sdf

> <i_m_source_file_index>
65

> <r_mmod_Potential_Energy-OPLS-2005>
195.473510742188

> <r_mmod_Stretch_Energy-OPLS-2005>
118.974662780762

> <r_mmod_Bend_Energy-OPLS-2005>
195.359420776367

> <r_mmod_Torsional_Energy-OPLS-2005>
206.072601318359

> <r_mmod_Improper_Torsional_Energy-OPLS-2005>
5.41147565841675

> <r_mmod_Van_der_Waal_Energy-OPLS-2005>
167.009262084961

> <r_mmod_Electrostatic_Energy-OPLS-2005>
-318.667083740234

> <r_mmod_Solvation_Energy-OPLS-2005>
-233.364059448242

> <b_mmod_Minimization_Converged-OPLS-2005>
0

> <r_mmod_RMS_Derivative-OPLS-2005>
1.56455433368683

$$$$
66
                    3D
 Structure written by MMmdl.
164173  0  0  1  0            999 V2000
  -30.6241  -14.6816   20.4840 C   0  0  0  0  0  0
  -30.4420  -12.4187   19.4554 C   0  0  0  0  0  0
  -29.5093  -12.5109   18.2268 C   0  0  0  0  0  0
  -28.0343  -12.3358   18.6419 C   0  0  0  0  0  0
  -27.6482  -13.2141   19.8608 C   0  0  2  0  0  0
  -28.7000  -13.1044   20.9897 C   0  0  0  0  0  0
  -25.2434  -13.7996   20.5633 C   0  0  0  0  0  0
  -24.1758  -13.0294   20.9229 C   0  0  0  0  0  0
  -24.6384  -11.6804   20.8781 C   0  0  0  0  0  0
  -23.9056  -10.4217   21.0423 C   0  0  0  0  0  0
  -24.3604   -9.4144   21.9203 C   0  0  0  0  0  0
  -23.6273   -8.2190   22.0763 C   0  0  0  0  0  0
  -22.4259   -8.0244   21.3543 C   0  0  0  0  0  0
  -21.9897   -9.0219   20.4647 C   0  0  0  0  0  0
  -22.7234  -10.2088   20.3061 C   0  0  0  0  0  0
  -21.6840   -6.0717   22.5281 C   0  0  0  0  0  0
  -21.4000   -6.5625   23.8212 C   0  0  0  0  0  0
  -21.3656   -5.6781   24.9178 C   0  0  0  0  0  0
  -21.6044   -4.3045   24.7231 C   0  0  0  0  0  0
  -21.8823   -3.8134   23.4354 C   0  0  0  0  0  0
  -21.9192   -4.6947   22.3408 C   0  0  0  0  0  0
  -22.7789  -13.5127   21.1875 C   0  0  0  0  0  0
  -22.1665   -4.2133   21.0986 F   0  0  0  0  0  0
  -21.5632   -3.4531   25.7746 F   0  0  0  0  0  0
  -30.0114  -13.4534   20.4180 N   0  0  0  0  0  0
  -26.2951  -12.9266   20.3324 N   0  0  0  0  0  0
  -25.9326  -11.6425   20.5804 N   0  0  0  0  0  0
  -22.0418  -12.8159   22.0444 N   0  0  0  0  0  0
  -25.3854  -15.1656   20.3871 N   0  0  0  0  0  0
  -31.8009  -14.8255   20.1421 O   0  0  0  0  0  0
  -21.6614   -6.8851   21.4241 O   0  0  0  0  0  0
  -22.3500  -14.5449   20.6724 O   0  0  0  0  0  0
  -24.6259  -31.8596   23.2023 C   0  0  0  0  0  0
  -25.9104  -32.4777   23.8354 C   0  0  1  0  0  0
  -27.2352  -27.3250   20.1231 C   0  0  0  0  0  0
  -25.5923  -33.8578   24.2282 N   0  0  0  0  0  0
  -23.4204  -30.4813   21.5447 C   0  0  2  0  0  0
  -24.8699  -28.9342   20.1140 C   0  0  0  0  0  0
  -22.7473  -29.4620   22.4946 C   0  0  0  0  0  0
  -18.0281  -28.1385   22.8484 C   0  0  0  0  0  0
  -24.1490  -36.7299   23.2639 C   0  0  0  0  0  0
  -25.9604  -30.7919   21.3729 C   0  0  0  0  0  0
  -26.0372  -29.4180   20.7188 C   0  0  0  0  0  0
  -27.2232  -28.6258   20.7122 C   0  0  0  0  0  0
  -26.0494  -26.8968   19.4845 C   0  0  0  0  0  0
  -24.8778  -27.6783   19.4868 C   0  0  0  0  0  0
  -23.6356  -29.8121   20.1615 C   0  0  0  0  0  0
  -25.4113  -36.3086   24.0331 C   0  0  1  0  0  0
  -20.5881  -28.3688   23.1287 C   0  0  2  0  0  0
  -20.6772  -26.9412   22.5412 C   0  0  0  0  0  0
  -19.5748  -26.6381   21.5217 C   0  0  0  0  0  0
  -18.1925  -26.7926   22.1624 C   0  0  0  0  0  0
  -19.1534  -28.8854   23.2875 C   0  0  0  0  0  0
  -18.9457  -30.1459   23.8885 C   0  0  0  0  0  0
  -17.6458  -30.6586   24.0564 C   0  0  0  0  0  0
  -25.9047  -34.9453   23.5107 C   0  0  0  0  0  0
  -16.5347  -29.9084   23.6338 C   0  0  0  0  0  0
  -16.7269  -28.6506   23.0353 C   0  0  0  0  0  0
  -26.4489  -31.6582   25.0721 C   0  0  0  0  0  0
  -25.3722  -31.3715   26.1451 C   0  0  0  0  0  0
  -27.0329  -30.3005   24.6170 C   0  0  0  0  0  0
  -27.6051  -32.4310   25.7494 C   0  0  0  0  0  0
  -27.5578  -37.1804   24.8462 C   0  0  0  0  0  0
  -21.4188  -29.3040   22.3682 N   0  0  0  0  0  0
  -26.4291  -37.3779   23.9404 N   0  0  0  0  0  0
  -24.6875  -31.0606   22.0970 N   0  0  0  0  0  0
  -23.4196  -28.8168   23.3032 O   0  0  0  0  0  0
  -28.3602  -26.4857   20.1426 O   0  0  0  0  0  0
  -26.5617  -34.8921   22.4673 O   0  0  0  0  0  0
  -23.5422  -32.1393   23.7351 O   0  0  0  0  0  0
  -28.8785  -19.4211   20.0772 C   0  0  0  0  0  0
  -31.1104  -17.9540   20.9202 C   0  0  0  0  0  0
  -28.8298  -17.9996   20.1687 C   0  0  0  0  0  0
  -30.0319  -20.1663   20.4039 C   0  0  0  0  0  0
  -29.9453  -17.2106   20.5857 C   0  0  0  0  0  0
  -31.1523  -19.3856   20.8401 C   0  0  0  0  0  0
  -29.1721  -23.9364   20.1222 C   0  0  0  0  0  0
  -29.1720  -22.6322   20.6019 C   0  0  0  0  0  0
  -30.2099  -24.2930   19.1231 C   0  0  0  0  0  0
  -31.3957  -23.3413   18.9842 C   0  0  0  0  0  0
  -30.9406  -21.8768   19.0360 C   0  0  0  0  0  0
  -27.5223  -17.3412   19.8121 C   0  0  0  0  0  0
  -28.1658  -22.2119   21.6669 C   0  0  0  0  0  0
  -28.1570  -25.0713   20.5516 C   0  0  0  0  0  0
  -30.0891  -21.5991   20.1986 N   0  0  0  0  0  0
  -32.3197  -20.0426   21.2337 N   0  0  0  0  0  0
  -29.7995  -15.7511   20.7441 N   0  0  0  0  0  0
  -30.1775  -25.2955   18.4035 O   0  0  0  0  0  0
  -31.4816  -12.5489   19.1496 H   0  0  0  0  0  0
  -30.3851  -11.4287   19.9112 H   0  0  0  0  0  0
  -29.7825  -11.7554   17.4890 H   0  0  0  0  0  0
  -29.6406  -13.4773   17.7369 H   0  0  0  0  0  0
  -27.8838  -11.2833   18.8861 H   0  0  0  0  0  0
  -27.3760  -12.5480   17.7986 H   0  0  0  0  0  0
  -27.6511  -14.2407   19.5021 H   0  0  0  0  0  0
  -28.7250  -12.0920   21.3953 H   0  0  0  0  0  0
  -28.4420  -13.7550   21.8269 H   0  0  0  0  0  0
  -25.2746   -9.5622   22.4783 H   0  0  0  0  0  0
  -23.9976   -7.4576   22.7481 H   0  0  0  0  0  0
  -21.0830   -8.8748   19.8950 H   0  0  0  0  0  0
  -22.3707  -10.9636   19.6172 H   0  0  0  0  0  0
  -21.1981   -7.6131   23.9710 H   0  0  0  0  0  0
  -21.1478   -6.0511   25.9081 H   0  0  0  0  0  0
  -22.0606   -2.7597   23.2857 H   0  0  0  0  0  0
  -22.4014  -11.9822   22.4852 H   0  0  0  0  0  0
  -21.1045  -13.1215   22.2645 H   0  0  0  0  0  0
  -24.5916  -15.7917   20.4656 H   0  0  0  0  0  0
  -26.1966  -15.6011   19.9738 H   0  0  0  0  0  0
  -26.7176  -32.5455   23.1109 H   0  0  0  0  0  0
  -25.0070  -33.9724   25.0427 H   0  0  0  0  0  0
  -22.7140  -31.3014   21.4002 H   0  0  0  0  0  0
  -23.3750  -35.9635   23.3305 H   0  0  0  0  0  0
  -24.3583  -36.8916   22.2053 H   0  0  0  0  0  0
  -23.7250  -37.6506   23.6657 H   0  0  0  0  0  0
  -26.0890  -31.5537   20.6028 H   0  0  0  0  0  0
  -26.8420  -30.8436   22.0004 H   0  0  0  0  0  0
  -28.1199  -28.9950   21.1896 H   0  0  0  0  0  0
  -26.0152  -25.9472   18.9707 H   0  0  0  0  0  0
  -23.9874  -27.3065   18.9990 H   0  0  0  0  0  0
  -23.7497  -30.5865   19.4019 H   0  0  0  0  0  0
  -22.7573  -29.2364   19.8635 H   0  0  0  0  0  0
  -25.1294  -36.1941   25.0824 H   0  0  0  0  0  0
  -20.9967  -28.3260   24.1412 H   0  0  0  0  0  0
  -20.5689  -26.2294   23.3609 H   0  0  0  0  0  0
  -21.6639  -26.7449   22.1200 H   0  0  0  0  0  0
  -19.6910  -25.6292   21.1251 H   0  0  0  0  0  0
  -19.6691  -27.3190   20.6747 H   0  0  0  0  0  0
  -17.4202  -26.6684   21.4018 H   0  0  0  0  0  0
  -18.0313  -26.0066   22.9017 H   0  0  0  0  0  0
  -19.7934  -30.7278   24.2242 H   0  0  0  0  0  0
  -17.5016  -31.6268   24.5165 H   0  0  0  0  0  0
  -15.5349  -30.2984   23.7667 H   0  0  0  0  0  0
  -15.8670  -28.0828   22.7064 H   0  0  0  0  0  0
  -24.5897  -30.7063   25.7778 H   0  0  0  0  0  0
  -24.8913  -32.2879   26.4880 H   0  0  0  0  0  0
  -25.8051  -30.8889   27.0222 H   0  0  0  0  0  0
  -26.2897  -29.6756   24.1202 H   0  0  0  0  0  0
  -27.4034  -29.7260   25.4669 H   0  0  0  0  0  0
  -27.8766  -30.4291   23.9385 H   0  0  0  0  0  0
  -27.2664  -33.3608   26.2076 H   0  0  0  0  0  0
  -28.3861  -32.6870   25.0320 H   0  0  0  0  0  0
  -28.0720  -31.8428   26.5405 H   0  0  0  0  0  0
  -28.2596  -38.0100   24.7507 H   0  0  0  0  0  0
  -28.1072  -36.2630   24.6288 H   0  0  0  0  0  0
  -27.2296  -37.1456   25.8865 H   0  0  0  0  0  0
  -20.9367  -29.8754   21.6884 H   0  0  0  0  0  0
  -26.0174  -38.2857   24.1400 H   0  0  0  0  0  0
  -28.0069  -19.9596   19.7343 H   0  0  0  0  0  0
  -31.9820  -17.4193   21.2696 H   0  0  0  0  0  0
  -32.0925  -23.5435   19.7973 H   0  0  0  0  0  0
  -31.9241  -23.5399   18.0518 H   0  0  0  0  0  0
  -31.8218  -21.2364   19.0078 H   0  0  0  0  0  0
  -30.3740  -21.6440   18.1328 H   0  0  0  0  0  0
  -26.8534  -18.0215   19.2837 H   0  0  0  0  0  0
  -27.0375  -17.0469   20.7407 H   0  0  0  0  0  0
  -27.6818  -16.4763   19.1698 H   0  0  0  0  0  0
  -28.1504  -22.9322   22.4851 H   0  0  0  0  0  0
  -28.3877  -21.2462   22.1194 H   0  0  0  0  0  0
  -27.1635  -22.1627   21.2405 H   0  0  0  0  0  0
  -28.1371  -25.0859   21.6413 H   0  0  0  0  0  0
  -27.1760  -24.7030   20.2583 H   0  0  0  0  0  0
  -32.8852  -19.5904   21.9435 H   0  0  0  0  0  0
  -32.1914  -21.0324   21.4194 H   0  0  0  0  0  0
  -28.8551  -15.4515   20.9278 H   0  0  0  0  0  0
  1 25  1  0  0  0
  1 30  2  0  0  0
  1 87  1  0  0  0
  2  3  1  0  0  0
  2 25  1  0  0  0
  2 89  1  0  0  0
  2 90  1  0  0  0
  3  4  1  0  0  0
  3 91  1  0  0  0
  3 92  1  0  0  0
  4  5  1  0  0  0
  4 93  1  0  0  0
  4 94  1  0  0  0
  5  6  1  0  0  0
  5 26  1  0  0  0
  5 95  1  0  0  0
  6 25  1  0  0  0
  6 96  1  0  0  0
  6 97  1  0  0  0
  7  8  2  0  0  0
  7 26  1  0  0  0
  7 29  1  0  0  0
  8  9  1  0  0  0
  8 22  1  0  0  0
  9 10  1  0  0  0
  9 27  2  0  0  0
 10 11  2  0  0  0
 10 15  1  0  0  0
 11 12  1  0  0  0
 11 98  1  0  0  0
 12 13  2  0  0  0
 12 99  1  0  0  0
 13 14  1  0  0  0
 13 31  1  0  0  0
 14 15  2  0  0  0
 14100  1  0  0  0
 15101  1  0  0  0
 16 17  2  0  0  0
 16 21  1  0  0  0
 16 31  1  0  0  0
 17 18  1  0  0  0
 17102  1  0  0  0
 18 19  2  0  0  0
 18103  1  0  0  0
 19 20  1  0  0  0
 19 24  1  0  0  0
 20 21  2  0  0  0
 20104  1  0  0  0
 21 23  1  0  0  0
 22 28  1  0  0  0
 22 32  2  0  0  0
 26 27  1  0  0  0
 28105  1  0  0  0
 28106  1  0  0  0
 29107  1  0  0  0
 29108  1  0  0  0
 33 34  1  0  0  0
 33 66  1  0  0  0
 33 70  2  0  0  0
 34 36  1  0  0  0
 34 59  1  0  0  0
 34109  1  0  0  0
 35 44  2  0  0  0
 35 45  1  0  0  0
 35 68  1  0  0  0
 36 56  1  0  0  0
 36110  1  0  0  0
 37 39  1  0  0  0
 37 47  1  0  0  0
 37 66  1  0  0  0
 37111  1  0  0  0
 38 43  2  0  0  0
 38 46  1  0  0  0
 38 47  1  0  0  0
 39 64  1  0  0  0
 39 67  2  0  0  0
 40 52  1  0  0  0
 40 53  2  0  0  0
 40 58  1  0  0  0
 41112  1  0  0  0
 41113  1  0  0  0
 41114  1  0  0  0
 41 48  1  0  0  0
 42 43  1  0  0  0
 42 66  1  0  0  0
 42115  1  0  0  0
 42116  1  0  0  0
 43 44  1  0  0  0
 44117  1  0  0  0
 45 46  2  0  0  0
 45118  1  0  0  0
 46119  1  0  0  0
 47120  1  0  0  0
 47121  1  0  0  0
 48 56  1  0  0  0
 48 65  1  0  0  0
 48122  1  0  0  0
 49 50  1  0  0  0
 49 53  1  0  0  0
 49 64  1  0  0  0
 49123  1  0  0  0
 50 51  1  0  0  0
 50124  1  0  0  0
 50125  1  0  0  0
 51 52  1  0  0  0
 51126  1  0  0  0
 51127  1  0  0  0
 52128  1  0  0  0
 52129  1  0  0  0
 53 54  1  0  0  0
 54 55  2  0  0  0
 54130  1  0  0  0
 55 57  1  0  0  0
 55131  1  0  0  0
 56 69  2  0  0  0
 57 58  2  0  0  0
 57132  1  0  0  0
 58133  1  0  0  0
 59 60  1  0  0  0
 59 61  1  0  0  0
 59 62  1  0  0  0
 60134  1  0  0  0
 60135  1  0  0  0
 60136  1  0  0  0
 61137  1  0  0  0
 61138  1  0  0  0
 61139  1  0  0  0
 62140  1  0  0  0
 62141  1  0  0  0
 62142  1  0  0  0
 63 65  1  0  0  0
 63143  1  0  0  0
 63144  1  0  0  0
 63145  1  0  0  0
 64146  1  0  0  0
 65147  1  0  0  0
 68 84  1  0  0  0
 71 73  2  0  0  0
 71 74  1  0  0  0
 71148  1  0  0  0
 72 75  2  0  0  0
 72 76  1  0  0  0
 72149  1  0  0  0
 73 75  1  0  0  0
 73 82  1  0  0  0
 74 76  2  0  0  0
 74 85  1  0  0  0
 75 87  1  0  0  0
 76 86  1  0  0  0
 77 78  2  0  0  0
 77 79  1  0  0  0
 77 84  1  0  0  0
 78 83  1  0  0  0
 78 85  1  0  0  0
 79 80  1  0  0  0
 79 88  2  0  0  0
 80 81  1  0  0  0
 80150  1  0  0  0
 80151  1  0  0  0
 81 85  1  0  0  0
 81152  1  0  0  0
 81153  1  0  0  0
 82154  1  0  0  0
 82155  1  0  0  0
 82156  1  0  0  0
 83157  1  0  0  0
 83158  1  0  0  0
 83159  1  0  0  0
 84160  1  0  0  0
 84161  1  0  0  0
 86162  1  0  0  0
 86163  1  0  0  0
 87164  1  0  0  0
M  ISO  4   1 100  68 101  84 101  87 100
M  END
> <chiral flag>
0

> <version>
0

> <s_m_source_file>
/data/baiqing/PycharmProjects/Reinvent-master-3.2/result/LINK_invent/BTK/process_docking_weight1_custom_product_contain_oxygen_bond_distance_aromatic_linkinvent_7_9_3/rearranged_h_0110.sdf

> <i_m_source_file_index>
66

> <r_mmod_Potential_Energy-OPLS-2005>
94.5844039916992

> <r_mmod_Stretch_Energy-OPLS-2005>
92.1343612670898

> <r_mmod_Bend_Energy-OPLS-2005>
139.819671630859

> <r_mmod_Torsional_Energy-OPLS-2005>
242.235961914062

> <r_mmod_Improper_Torsional_Energy-OPLS-2005>
11.9441890716553

> <r_mmod_Van_der_Waal_Energy-OPLS-2005>
165.013229370117

> <r_mmod_Electrostatic_Energy-OPLS-2005>
-382.227508544922

> <r_mmod_Solvation_Energy-OPLS-2005>
-228.974273681641

> <b_mmod_Minimization_Converged-OPLS-2005>
0

> <r_mmod_RMS_Derivative-OPLS-2005>
0.734346568584442

$$$$
67
                    3D
 Structure written by MMmdl.
167176  0  0  1  0            999 V2000
  -30.5804  -14.7603   20.4688 C   0  0  0  0  0  0
  -30.4261  -12.4585   19.4989 C   0  0  0  0  0  0
  -29.5156  -12.5165   18.2528 C   0  0  0  0  0  0
  -28.0374  -12.3470   18.6500 C   0  0  0  0  0  0
  -27.6411  -13.2321   19.8605 C   0  0  2  0  0  0
  -28.6763  -13.1580   21.0045 C   0  0  0  0  0  0
  -25.2501  -13.8183   20.5714 C   0  0  0  0  0  0
  -24.1783  -13.0425   20.9186 C   0  0  0  0  0  0
  -24.6369  -11.6902   20.8738 C   0  0  0  0  0  0
  -23.9045  -10.4272   21.0408 C   0  0  0  0  0  0
  -24.3602   -9.4192   21.9189 C   0  0  0  0  0  0
  -23.6277   -8.2229   22.0756 C   0  0  0  0  0  0
  -22.4258   -8.0261   21.3544 C   0  0  0  0  0  0
  -21.9886   -9.0238   20.4652 C   0  0  0  0  0  0
  -22.7207  -10.2121   20.3067 C   0  0  0  0  0  0
  -21.6850   -6.0724   22.5269 C   0  0  0  0  0  0
  -21.4023   -6.5640   23.8198 C   0  0  0  0  0  0
  -21.3662   -5.6801   24.9166 C   0  0  0  0  0  0
  -21.6041   -4.3057   24.7220 C   0  0  0  0  0  0
  -21.8819   -3.8134   23.4340 C   0  0  0  0  0  0
  -21.9195   -4.6951   22.3391 C   0  0  0  0  0  0
  -22.7813  -13.5220   21.1864 C   0  0  0  0  0  0
  -22.1658   -4.2125   21.0976 F   0  0  0  0  0  0
  -21.5620   -3.4550   25.7740 F   0  0  0  0  0  0
  -29.9809  -13.5171   20.4389 N   0  0  0  0  0  0
  -26.2919  -12.9385   20.3296 N   0  0  0  0  0  0
  -25.9311  -11.6531   20.5765 N   0  0  0  0  0  0
  -22.0467  -12.8217   22.0427 N   0  0  0  0  0  0
  -25.4180  -15.1913   20.4153 N   0  0  0  0  0  0
  -31.7439  -14.8792   20.0750 O   0  0  0  0  0  0
  -21.6630   -6.8853   21.4229 O   0  0  0  0  0  0
  -22.3507  -14.5524   20.6695 O   0  0  0  0  0  0
  -24.6347  -31.8497   23.1952 C   0  0  0  0  0  0
  -25.9150  -32.4709   23.8302 C   0  0  1  0  0  0
  -27.2224  -27.2162   20.1332 C   0  0  0  0  0  0
  -25.5924  -33.8509   24.2224 N   0  0  0  0  0  0
  -23.4333  -30.4735   21.5379 C   0  0  2  0  0  0
  -24.8831  -28.9169   20.1097 C   0  0  0  0  0  0
  -22.7532  -29.4567   22.4870 C   0  0  0  0  0  0
  -18.0304  -28.1363   22.8461 C   0  0  0  0  0  0
  -24.1510  -36.7279   23.2640 C   0  0  0  0  0  0
  -25.9851  -30.7511   21.3830 C   0  0  0  0  0  0
  -26.0602  -29.3725   20.7203 C   0  0  0  0  0  0
  -27.2328  -28.5380   20.7145 C   0  0  0  0  0  0
  -26.0159  -26.8453   19.4964 C   0  0  0  0  0  0
  -24.8703  -27.6646   19.4841 C   0  0  0  0  0  0
  -23.6557  -29.8087   20.1553 C   0  0  0  0  0  0
  -25.4132  -36.3022   24.0315 C   0  0  1  0  0  0
  -20.5917  -28.3681   23.1240 C   0  0  2  0  0  0
  -20.6788  -26.9389   22.5391 C   0  0  0  0  0  0
  -19.5769  -26.6360   21.5193 C   0  0  0  0  0  0
  -18.1949  -26.7904   22.1608 C   0  0  0  0  0  0
  -19.1556  -28.8837   23.2841 C   0  0  0  0  0  0
  -18.9476  -30.1443   23.8856 C   0  0  0  0  0  0
  -17.6469  -30.6556   24.0551 C   0  0  0  0  0  0
  -25.9066  -34.9401   23.5065 C   0  0  0  0  0  0
  -16.5367  -29.9049   23.6314 C   0  0  0  0  0  0
  -16.7286  -28.6468   23.0332 C   0  0  0  0  0  0
  -26.4516  -31.6539   25.0697 C   0  0  0  0  0  0
  -25.3731  -31.3725   26.1418 C   0  0  0  0  0  0
  -27.0340  -30.2919   24.6223 C   0  0  0  0  0  0
  -27.6049  -32.4301   25.7474 C   0  0  0  0  0  0
  -27.5585  -37.1791   24.8452 C   0  0  0  0  0  0
  -21.4234  -29.3023   22.3614 N   0  0  0  0  0  0
  -26.4297  -37.3723   23.9399 N   0  0  0  0  0  0
  -24.7033  -31.0446   22.0941 N   0  0  0  0  0  0
  -23.4216  -28.8102   23.2980 O   0  0  0  0  0  0
  -28.3081  -26.2892   20.1895 O   0  0  0  0  0  0
  -26.5645  -34.8882   22.4636 O   0  0  0  0  0  0
  -23.5483  -32.1340   23.7233 O   0  0  0  0  0  0
  -29.5888  -18.5098   20.9868 C   0  0  0  0  0  0
  -30.1650  -17.4497   18.8972 C   0  0  0  0  0  0
  -29.6546  -19.8794   20.4362 C   0  0  0  0  0  0
  -29.8841  -17.2761   20.2645 C   0  0  0  0  0  0
  -29.9915  -19.9227   19.0473 C   0  0  0  0  0  0
  -30.2026  -18.7292   18.3097 C   0  0  0  0  0  0
  -31.2411  -25.1117   21.9391 C   0  0  0  0  0  0
  -29.5072  -21.1277   21.3724 C   0  0  0  0  0  0
  -31.2134  -25.1828   20.4056 C   0  0  0  0  0  0
  -30.9055  -23.8033   22.6541 C   0  0  0  0  0  0
  -30.5442  -24.0227   19.6273 C   0  0  0  0  0  0
  -29.4341  -23.3855   22.4765 C   0  0  0  0  0  0
  -29.1348  -23.5462   20.0672 C   0  0  2  0  0  0
  -28.0370  -24.7895   20.0988 C   0  0  0  0  0  0
  -29.2621  -22.5463   21.2480 N   0  0  0  0  0  0
  -30.1690  -21.0971   18.3123 N   0  0  0  0  0  0
  -29.8194  -15.8819   20.8044 N   0  0  0  0  0  0
  -29.7258  -20.7410   22.6359 N   0  3  0  0  0  0
  -31.5722  -26.1053   22.5897 O   0  0  0  0  0  0
  -30.4808  -18.8212   16.9846 F   0  0  0  0  0  0
  -31.4716  -12.5769   19.2081 H   0  0  0  0  0  0
  -30.3588  -11.4781   19.9725 H   0  0  0  0  0  0
  -29.7962  -11.7396   17.5417 H   0  0  0  0  0  0
  -29.6561  -13.4687   17.7403 H   0  0  0  0  0  0
  -27.8839  -11.2967   18.8979 H   0  0  0  0  0  0
  -27.3895  -12.5551   17.7976 H   0  0  0  0  0  0
  -27.6370  -14.2568   19.4907 H   0  0  0  0  0  0
  -28.7110  -12.1594   21.4443 H   0  0  0  0  0  0
  -28.3984  -13.8365   21.8138 H   0  0  0  0  0  0
  -25.2751   -9.5659   22.4772 H   0  0  0  0  0  0
  -23.9957   -7.4637   22.7503 H   0  0  0  0  0  0
  -21.0793   -8.8758   19.9000 H   0  0  0  0  0  0
  -22.3629  -10.9671   19.6185 H   0  0  0  0  0  0
  -21.2022   -7.6151   23.9685 H   0  0  0  0  0  0
  -21.1494   -6.0543   25.9068 H   0  0  0  0  0  0
  -22.0593   -2.7598   23.2858 H   0  0  0  0  0  0
  -22.4080  -11.9868   22.4788 H   0  0  0  0  0  0
  -21.1122  -13.1281   22.2697 H   0  0  0  0  0  0
  -24.6414  -15.8352   20.5121 H   0  0  0  0  0  0
  -26.2589  -15.6372   20.0702 H   0  0  0  0  0  0
  -26.7201  -32.5347   23.1030 H   0  0  0  0  0  0
  -25.0035  -33.9620   25.0345 H   0  0  0  0  0  0
  -22.7288  -31.2944   21.3903 H   0  0  0  0  0  0
  -23.3742  -35.9631   23.3276 H   0  0  0  0  0  0
  -24.3619  -36.8937   22.2058 H   0  0  0  0  0  0
  -23.7298  -37.6489   23.6695 H   0  0  0  0  0  0
  -26.1369  -31.5136   20.6184 H   0  0  0  0  0  0
  -26.8573  -30.7947   22.0227 H   0  0  0  0  0  0
  -28.1314  -28.8819   21.2069 H   0  0  0  0  0  0
  -25.9058  -25.8944   19.0036 H   0  0  0  0  0  0
  -23.9735  -27.3096   18.9950 H   0  0  0  0  0  0
  -23.7810  -30.5855   19.4006 H   0  0  0  0  0  0
  -22.7734  -29.2432   19.8470 H   0  0  0  0  0  0
  -25.1321  -36.1859   25.0806 H   0  0  0  0  0  0
  -21.0015  -28.3259   24.1365 H   0  0  0  0  0  0
  -20.5681  -26.2279   23.3598 H   0  0  0  0  0  0
  -21.6650  -26.7382   22.1196 H   0  0  0  0  0  0
  -19.6947  -25.6271   21.1212 H   0  0  0  0  0  0
  -19.6731  -27.3164   20.6723 H   0  0  0  0  0  0
  -17.4223  -26.6622   21.4014 H   0  0  0  0  0  0
  -18.0377  -26.0050   22.9008 H   0  0  0  0  0  0
  -19.7947  -30.7260   24.2226 H   0  0  0  0  0  0
  -17.5015  -31.6237   24.5144 H   0  0  0  0  0  0
  -15.5361  -30.2945   23.7641 H   0  0  0  0  0  0
  -15.8689  -28.0776   22.7081 H   0  0  0  0  0  0
  -24.5875  -30.7102   25.7764 H   0  0  0  0  0  0
  -24.8962  -32.2906   26.4850 H   0  0  0  0  0  0
  -25.8038  -30.8888   27.0192 H   0  0  0  0  0  0
  -26.2897  -29.6672   24.1247 H   0  0  0  0  0  0
  -27.3980  -29.7192   25.4774 H   0  0  0  0  0  0
  -27.8822  -30.4163   23.9481 H   0  0  0  0  0  0
  -27.2632  -33.3624   26.2002 H   0  0  0  0  0  0
  -28.3882  -32.6836   25.0308 H   0  0  0  0  0  0
  -28.0679  -31.8447   26.5443 H   0  0  0  0  0  0
  -28.2560  -38.0122   24.7473 H   0  0  0  0  0  0
  -28.1122  -36.2637   24.6296 H   0  0  0  0  0  0
  -27.2294  -37.1441   25.8851 H   0  0  0  0  0  0
  -20.9431  -29.8742   21.6813 H   0  0  0  0  0  0
  -26.0163  -38.2784   24.1403 H   0  0  0  0  0  0
  -29.3347  -18.3784   22.0270 H   0  0  0  0  0  0
  -30.3468  -16.5946   18.2662 H   0  0  0  0  0  0
  -32.2451  -25.2783   20.0623 H   0  0  0  0  0  0
  -30.7318  -26.1220   20.1410 H   0  0  0  0  0  0
  -31.1182  -23.9332   23.7156 H   0  0  0  0  0  0
  -31.5788  -23.0226   22.2963 H   0  0  0  0  0  0
  -31.2394  -23.1850   19.6536 H   0  0  0  0  0  0
  -30.4832  -24.3084   18.5767 H   0  0  0  0  0  0
  -28.8226  -24.2853   22.4319 H   0  0  0  0  0  0
  -29.0583  -22.9036   23.3802 H   0  0  0  0  0  0
  -28.7530  -22.9112   19.2700 H   0  0  0  0  0  0
  -27.5325  -24.6534   19.1440 H   0  0  0  0  0  0
  -27.2756  -24.5516   20.8416 H   0  0  0  0  0  0
  -30.7071  -21.8248   18.7628 H   0  0  0  0  0  0
  -30.5334  -20.9132   17.3808 H   0  0  0  0  0  0
  -28.9754  -15.6671   21.3160 H   0  0  0  0  0  0
  -30.0129  -19.7896   22.7991 H   0  0  0  0  0  0
  -29.6157  -21.3499   23.4272 H   0  0  0  0  0  0
  1 25  1  0  0  0
  1 30  2  0  0  0
  1 87  1  0  0  0
  2  3  1  0  0  0
  2 25  1  0  0  0
  2 91  1  0  0  0
  2 92  1  0  0  0
  3  4  1  0  0  0
  3 93  1  0  0  0
  3 94  1  0  0  0
  4  5  1  0  0  0
  4 95  1  0  0  0
  4 96  1  0  0  0
  5  6  1  0  0  0
  5 26  1  0  0  0
  5 97  1  0  0  0
  6 25  1  0  0  0
  6 98  1  0  0  0
  6 99  1  0  0  0
  7  8  2  0  0  0
  7 26  1  0  0  0
  7 29  1  0  0  0
  8  9  1  0  0  0
  8 22  1  0  0  0
  9 10  1  0  0  0
  9 27  2  0  0  0
 10 11  2  0  0  0
 10 15  1  0  0  0
 11 12  1  0  0  0
 11100  1  0  0  0
 12 13  2  0  0  0
 12101  1  0  0  0
 13 14  1  0  0  0
 13 31  1  0  0  0
 14 15  2  0  0  0
 14102  1  0  0  0
 15103  1  0  0  0
 16 17  2  0  0  0
 16 21  1  0  0  0
 16 31  1  0  0  0
 17 18  1  0  0  0
 17104  1  0  0  0
 18 19  2  0  0  0
 18105  1  0  0  0
 19 20  1  0  0  0
 19 24  1  0  0  0
 20 21  2  0  0  0
 20106  1  0  0  0
 21 23  1  0  0  0
 22 28  1  0  0  0
 22 32  2  0  0  0
 26 27  1  0  0  0
 28107  1  0  0  0
 28108  1  0  0  0
 29109  1  0  0  0
 29110  1  0  0  0
 33 34  1  0  0  0
 33 66  1  0  0  0
 33 70  2  0  0  0
 34 36  1  0  0  0
 34 59  1  0  0  0
 34111  1  0  0  0
 35 44  2  0  0  0
 35 45  1  0  0  0
 35 68  1  0  0  0
 36 56  1  0  0  0
 36112  1  0  0  0
 37 39  1  0  0  0
 37 47  1  0  0  0
 37 66  1  0  0  0
 37113  1  0  0  0
 38 43  2  0  0  0
 38 46  1  0  0  0
 38 47  1  0  0  0
 39 64  1  0  0  0
 39 67  2  0  0  0
 40 52  1  0  0  0
 40 53  2  0  0  0
 40 58  1  0  0  0
 41114  1  0  0  0
 41115  1  0  0  0
 41116  1  0  0  0
 41 48  1  0  0  0
 42 43  1  0  0  0
 42 66  1  0  0  0
 42117  1  0  0  0
 42118  1  0  0  0
 43 44  1  0  0  0
 44119  1  0  0  0
 45 46  2  0  0  0
 45120  1  0  0  0
 46121  1  0  0  0
 47122  1  0  0  0
 47123  1  0  0  0
 48 56  1  0  0  0
 48 65  1  0  0  0
 48124  1  0  0  0
 49 50  1  0  0  0
 49 53  1  0  0  0
 49 64  1  0  0  0
 49125  1  0  0  0
 50 51  1  0  0  0
 50126  1  0  0  0
 50127  1  0  0  0
 51 52  1  0  0  0
 51128  1  0  0  0
 51129  1  0  0  0
 52130  1  0  0  0
 52131  1  0  0  0
 53 54  1  0  0  0
 54 55  2  0  0  0
 54132  1  0  0  0
 55 57  1  0  0  0
 55133  1  0  0  0
 56 69  2  0  0  0
 57 58  2  0  0  0
 57134  1  0  0  0
 58135  1  0  0  0
 59 60  1  0  0  0
 59 61  1  0  0  0
 59 62  1  0  0  0
 60136  1  0  0  0
 60137  1  0  0  0
 60138  1  0  0  0
 61139  1  0  0  0
 61140  1  0  0  0
 61141  1  0  0  0
 62142  1  0  0  0
 62143  1  0  0  0
 62144  1  0  0  0
 63 65  1  0  0  0
 63145  1  0  0  0
 63146  1  0  0  0
 63147  1  0  0  0
 64148  1  0  0  0
 65149  1  0  0  0
 68 84  1  0  0  0
 71 73  2  0  0  0
 71 74  1  0  0  0
 71150  1  0  0  0
 72 74  2  0  0  0
 72 76  1  0  0  0
 72151  1  0  0  0
 73 75  1  0  0  0
 73 78  1  0  0  0
 74 87  1  0  0  0
 75 76  2  0  0  0
 75 86  1  0  0  0
 76 90  1  0  0  0
 77 79  1  0  0  0
 77 80  1  0  0  0
 77 89  2  0  0  0
 78 85  1  0  0  0
 78 88  2  0  0  0
 79 81  1  0  0  0
 79152  1  0  0  0
 79153  1  0  0  0
 80 82  1  0  0  0
 80154  1  0  0  0
 80155  1  0  0  0
 81 83  1  0  0  0
 81156  1  0  0  0
 81157  1  0  0  0
 82 85  1  0  0  0
 82158  1  0  0  0
 82159  1  0  0  0
 83 84  1  0  0  0
 83 85  1  0  0  0
 83160  1  0  0  0
 84161  1  0  0  0
 84162  1  0  0  0
 86163  1  0  0  0
 86164  1  0  0  0
 87165  1  0  0  0
 88166  1  0  0  0
 88167  1  0  0  0
M  CHG  1  88   1
M  ISO  4   1 100  68 101  84 101  87 100
M  END
> <chiral flag>
0

> <version>
0

> <s_m_source_file>
/data/baiqing/PycharmProjects/Reinvent-master-3.2/result/LINK_invent/BTK/process_docking_weight1_custom_product_contain_oxygen_bond_distance_aromatic_linkinvent_7_9_3/rearranged_h_0110.sdf

> <i_m_source_file_index>
67

> <r_mmod_Potential_Energy-OPLS-2005>
267.539337158203

> <r_mmod_Stretch_Energy-OPLS-2005>
184.057922363281

> <r_mmod_Bend_Energy-OPLS-2005>
267.698425292969

> <r_mmod_Torsional_Energy-OPLS-2005>
273.404174804688

> <r_mmod_Improper_Torsional_Energy-OPLS-2005>
10.9432029724121

> <r_mmod_Van_der_Waal_Energy-OPLS-2005>
170.826232910156

> <r_mmod_Electrostatic_Energy-OPLS-2005>
-287.250762939453

> <r_mmod_Solvation_Energy-OPLS-2005>
-453.291534423828

> <b_mmod_Minimization_Converged-OPLS-2005>
0

> <r_mmod_RMS_Derivative-OPLS-2005>
3.82973957061768

$$$$
68
                    3D
 Structure written by MMmdl.
163172  0  0  1  0            999 V2000
  -30.6179  -14.6528   20.4946 C   0  0  0  0  0  0
  -30.4412  -12.4009   19.4485 C   0  0  0  0  0  0
  -29.5083  -12.5109   18.2216 C   0  0  0  0  0  0
  -28.0313  -12.3447   18.6334 C   0  0  0  0  0  0
  -27.6518  -13.2165   19.8598 C   0  0  2  0  0  0
  -28.6991  -13.0796   20.9876 C   0  0  0  0  0  0
  -25.2568  -13.8154   20.5717 C   0  0  0  0  0  0
  -24.1827  -13.0422   20.9188 C   0  0  0  0  0  0
  -24.6393  -11.6893   20.8721 C   0  0  0  0  0  0
  -23.9065  -10.4278   21.0379 C   0  0  0  0  0  0
  -24.3615   -9.4206   21.9171 C   0  0  0  0  0  0
  -23.6288   -8.2245   22.0756 C   0  0  0  0  0  0
  -22.4274   -8.0269   21.3545 C   0  0  0  0  0  0
  -21.9907   -9.0238   20.4649 C   0  0  0  0  0  0
  -22.7228  -10.2119   20.3048 C   0  0  0  0  0  0
  -21.6854   -6.0729   22.5278 C   0  0  0  0  0  0
  -21.4011   -6.5640   23.8207 C   0  0  0  0  0  0
  -21.3668   -5.6797   24.9173 C   0  0  0  0  0  0
  -21.6044   -4.3059   24.7228 C   0  0  0  0  0  0
  -21.8817   -3.8151   23.4352 C   0  0  0  0  0  0
  -21.9194   -4.6959   22.3405 C   0  0  0  0  0  0
  -22.7848  -13.5217   21.1838 C   0  0  0  0  0  0
  -22.1660   -4.2149   21.0983 F   0  0  0  0  0  0
  -21.5638   -3.4549   25.7744 F   0  0  0  0  0  0
  -30.0117  -13.4248   20.4196 N   0  0  0  0  0  0
  -26.2987  -12.9334   20.3315 N   0  0  0  0  0  0
  -25.9326  -11.6487   20.5738 N   0  0  0  0  0  0
  -22.0490  -12.8216   22.0399 N   0  0  0  0  0  0
  -25.4279  -15.1879   20.4210 N   0  0  0  0  0  0
  -31.7957  -14.8125   20.1602 O   0  0  0  0  0  0
  -21.6643   -6.8868   21.4237 O   0  0  0  0  0  0
  -22.3534  -14.5522   20.6681 O   0  0  0  0  0  0
  -24.6296  -31.8603   23.2041 C   0  0  0  0  0  0
  -25.9140  -32.4781   23.8372 C   0  0  1  0  0  0
  -27.2212  -27.3083   20.1112 C   0  0  0  0  0  0
  -25.5951  -33.8581   24.2299 N   0  0  0  0  0  0
  -23.4224  -30.4867   21.5479 C   0  0  2  0  0  0
  -24.8666  -28.9456   20.1128 C   0  0  0  0  0  0
  -22.7490  -29.4638   22.4947 C   0  0  0  0  0  0
  -18.0291  -28.1383   22.8500 C   0  0  0  0  0  0
  -24.1484  -36.7289   23.2639 C   0  0  0  0  0  0
  -25.9673  -30.7875   21.3774 C   0  0  0  0  0  0
  -26.0394  -29.4163   20.7157 C   0  0  0  0  0  0
  -27.2203  -28.6116   20.7028 C   0  0  0  0  0  0
  -26.0154  -26.8970   19.4895 C   0  0  0  0  0  0
  -24.8577  -27.6915   19.4912 C   0  0  0  0  0  0
  -23.6364  -29.8265   20.1624 C   0  0  0  0  0  0
  -25.4113  -36.3091   24.0335 C   0  0  1  0  0  0
  -20.5894  -28.3698   23.1278 C   0  0  2  0  0  0
  -20.6782  -26.9422   22.5407 C   0  0  0  0  0  0
  -19.5749  -26.6383   21.5219 C   0  0  0  0  0  0
  -18.1931  -26.7932   22.1629 C   0  0  0  0  0  0
  -19.1546  -28.8862   23.2883 C   0  0  0  0  0  0
  -18.9464  -30.1464   23.8900 C   0  0  0  0  0  0
  -17.6463  -30.6589   24.0564 C   0  0  0  0  0  0
  -25.9056  -34.9457   23.5113 C   0  0  0  0  0  0
  -16.5354  -29.9084   23.6333 C   0  0  0  0  0  0
  -16.7277  -28.6495   23.0368 C   0  0  0  0  0  0
  -26.4505  -31.6591   25.0748 C   0  0  0  0  0  0
  -25.3726  -31.3721   26.1462 C   0  0  0  0  0  0
  -27.0352  -30.3018   24.6216 C   0  0  0  0  0  0
  -27.6063  -32.4327   25.7520 C   0  0  0  0  0  0
  -27.5587  -37.1799   24.8468 C   0  0  0  0  0  0
  -21.4207  -29.3051   22.3677 N   0  0  0  0  0  0
  -26.4293  -37.3789   23.9418 N   0  0  0  0  0  0
  -24.6921  -31.0613   22.0995 N   0  0  0  0  0  0
  -23.4205  -28.8170   23.3027 O   0  0  0  0  0  0
  -28.3320  -26.4396   20.1580 O   0  0  0  0  0  0
  -26.5616  -34.8924   22.4676 O   0  0  0  0  0  0
  -23.5455  -32.1408   23.7363 O   0  0  0  0  0  0
  -31.0283  -19.3182   21.1076 C   0  0  0  0  0  0
  -31.0101  -17.8923   21.1443 C   0  0  0  0  0  0
  -28.9022  -19.3444   20.0107 C   0  0  0  0  0  0
  -29.9798  -20.1070   20.5384 C   0  0  0  0  0  0
  -29.9197  -17.1523   20.6284 C   0  0  0  0  0  0
  -28.8548  -17.9069   20.0602 C   0  0  0  0  0  0
  -29.1963  -23.8880   20.0519 C   0  0  0  0  0  0
  -29.0289  -22.5698   20.4658 C   0  0  0  0  0  0
  -30.5124  -24.2737   19.4897 C   0  0  0  0  0  0
  -31.5019  -23.1554   19.1806 C   0  0  0  0  0  0
  -31.4325  -22.0208   20.2102 C   0  0  0  0  0  0
  -27.6954  -22.1179   21.0502 C   0  0  0  0  0  0
  -26.8125  -17.8503   18.7961 C   0  0  0  0  0  0
  -28.0658  -24.9884   19.9492 C   0  0  0  0  0  0
  -30.0567  -21.5589   20.4476 N   0  0  0  0  0  0
  -29.7759  -15.7021   20.7473 N   0  0  0  0  0  0
  -30.8402  -25.4321   19.2180 O   0  0  0  0  0  0
  -27.7995  -17.1695   19.5612 O   0  0  0  0  0  0
  -31.4815  -12.5324   19.1453 H   0  0  0  0  0  0
  -30.3814  -11.4061   19.8937 H   0  0  0  0  0  0
  -29.7764  -11.7635   17.4742 H   0  0  0  0  0  0
  -29.6463  -13.4818   17.7430 H   0  0  0  0  0  0
  -27.8705  -11.2905   18.8649 H   0  0  0  0  0  0
  -27.3778  -12.5744   17.7906 H   0  0  0  0  0  0
  -27.6627  -14.2497   19.5129 H   0  0  0  0  0  0
  -28.7130  -12.0598   21.3751 H   0  0  0  0  0  0
  -28.4468  -13.7189   21.8349 H   0  0  0  0  0  0
  -25.2746   -9.5692   22.4759 H   0  0  0  0  0  0
  -23.9996   -7.4645   22.7484 H   0  0  0  0  0  0
  -21.0844   -8.8740   19.8954 H   0  0  0  0  0  0
  -22.3663  -10.9659   19.6168 H   0  0  0  0  0  0
  -21.1992   -7.6147   23.9708 H   0  0  0  0  0  0
  -21.1499   -6.0536   25.9078 H   0  0  0  0  0  0
  -22.0592   -2.7617   23.2857 H   0  0  0  0  0  0
  -22.4108  -11.9881   22.4790 H   0  0  0  0  0  0
  -21.1109  -13.1235   22.2601 H   0  0  0  0  0  0
  -24.6611  -15.8376   20.5525 H   0  0  0  0  0  0
  -26.2829  -15.6403   20.1193 H   0  0  0  0  0  0
  -26.7212  -32.5439   23.1121 H   0  0  0  0  0  0
  -25.0122  -33.9723   25.0458 H   0  0  0  0  0  0
  -22.7174  -31.3088   21.4068 H   0  0  0  0  0  0
  -23.3761  -35.9605   23.3286 H   0  0  0  0  0  0
  -24.3580  -36.8924   22.2059 H   0  0  0  0  0  0
  -23.7210  -37.6476   23.6660 H   0  0  0  0  0  0
  -26.1031  -31.5535   20.6128 H   0  0  0  0  0  0
  -26.8462  -30.8323   22.0087 H   0  0  0  0  0  0
  -28.1205  -28.9715   21.1808 H   0  0  0  0  0  0
  -25.9158  -25.9408   19.0014 H   0  0  0  0  0  0
  -23.9579  -27.3244   19.0168 H   0  0  0  0  0  0
  -23.7578  -30.6048   19.4084 H   0  0  0  0  0  0
  -22.7554  -29.2592   19.8576 H   0  0  0  0  0  0
  -25.1285  -36.1950   25.0828 H   0  0  0  0  0  0
  -20.9987  -28.3274   24.1396 H   0  0  0  0  0  0
  -20.5698  -26.2313   23.3612 H   0  0  0  0  0  0
  -21.6646  -26.7457   22.1183 H   0  0  0  0  0  0
  -19.6905  -25.6289   21.1258 H   0  0  0  0  0  0
  -19.6679  -27.3188   20.6744 H   0  0  0  0  0  0
  -17.4204  -26.6712   21.4022 H   0  0  0  0  0  0
  -18.0311  -26.0059   22.9009 H   0  0  0  0  0  0
  -19.7938  -30.7293   24.2265 H   0  0  0  0  0  0
  -17.5004  -31.6271   24.5161 H   0  0  0  0  0  0
  -15.5350  -30.2979   23.7650 H   0  0  0  0  0  0
  -15.8679  -28.0801   22.7091 H   0  0  0  0  0  0
  -24.5905  -30.7072   25.7775 H   0  0  0  0  0  0
  -24.8908  -32.2881   26.4896 H   0  0  0  0  0  0
  -25.8036  -30.8884   27.0238 H   0  0  0  0  0  0
  -26.2940  -29.6765   24.1230 H   0  0  0  0  0  0
  -27.4035  -29.7278   25.4729 H   0  0  0  0  0  0
  -27.8810  -30.4310   23.9460 H   0  0  0  0  0  0
  -27.2683  -33.3629   26.2100 H   0  0  0  0  0  0
  -28.3870  -32.6891   25.0345 H   0  0  0  0  0  0
  -28.0735  -31.8453   26.5435 H   0  0  0  0  0  0
  -28.2591  -38.0112   24.7548 H   0  0  0  0  0  0
  -28.1099  -36.2647   24.6251 H   0  0  0  0  0  0
  -27.2310  -37.1399   25.8873 H   0  0  0  0  0  0
  -20.9395  -29.8790   21.6893 H   0  0  0  0  0  0
  -26.0177  -38.2865   24.1426 H   0  0  0  0  0  0
  -31.8870  -19.8046   21.5467 H   0  0  0  0  0  0
  -31.8372  -17.3704   21.6050 H   0  0  0  0  0  0
  -28.0981  -19.8955   19.5505 H   0  0  0  0  0  0
  -32.5120  -23.5611   19.1310 H   0  0  0  0  0  0
  -31.2680  -22.7678   18.1898 H   0  0  0  0  0  0
  -31.8673  -22.3483   21.1564 H   0  0  0  0  0  0
  -32.0712  -21.2223   19.8322 H   0  0  0  0  0  0
  -27.3462  -22.8297   21.7983 H   0  0  0  0  0  0
  -27.7514  -21.1611   21.5667 H   0  0  0  0  0  0
  -26.9360  -22.0465   20.2707 H   0  0  0  0  0  0
  -26.1293  -17.1224   18.3592 H   0  0  0  0  0  0
  -27.2564  -18.4097   17.9711 H   0  0  0  0  0  0
  -26.2259  -18.5275   19.4191 H   0  0  0  0  0  0
  -27.2372  -24.7037   20.5960 H   0  0  0  0  0  0
  -27.7171  -24.8717   18.9237 H   0  0  0  0  0  0
  -28.8191  -15.4019   20.8438 H   0  0  0  0  0  0
  1 25  1  0  0  0
  1 30  2  0  0  0
  1 86  1  0  0  0
  2  3  1  0  0  0
  2 25  1  0  0  0
  2 89  1  0  0  0
  2 90  1  0  0  0
  3  4  1  0  0  0
  3 91  1  0  0  0
  3 92  1  0  0  0
  4  5  1  0  0  0
  4 93  1  0  0  0
  4 94  1  0  0  0
  5  6  1  0  0  0
  5 26  1  0  0  0
  5 95  1  0  0  0
  6 25  1  0  0  0
  6 96  1  0  0  0
  6 97  1  0  0  0
  7  8  2  0  0  0
  7 26  1  0  0  0
  7 29  1  0  0  0
  8  9  1  0  0  0
  8 22  1  0  0  0
  9 10  1  0  0  0
  9 27  2  0  0  0
 10 11  2  0  0  0
 10 15  1  0  0  0
 11 12  1  0  0  0
 11 98  1  0  0  0
 12 13  2  0  0  0
 12 99  1  0  0  0
 13 14  1  0  0  0
 13 31  1  0  0  0
 14 15  2  0  0  0
 14100  1  0  0  0
 15101  1  0  0  0
 16 17  2  0  0  0
 16 21  1  0  0  0
 16 31  1  0  0  0
 17 18  1  0  0  0
 17102  1  0  0  0
 18 19  2  0  0  0
 18103  1  0  0  0
 19 20  1  0  0  0
 19 24  1  0  0  0
 20 21  2  0  0  0
 20104  1  0  0  0
 21 23  1  0  0  0
 22 28  1  0  0  0
 22 32  2  0  0  0
 26 27  1  0  0  0
 28105  1  0  0  0
 28106  1  0  0  0
 29107  1  0  0  0
 29108  1  0  0  0
 33 34  1  0  0  0
 33 66  1  0  0  0
 33 70  2  0  0  0
 34 36  1  0  0  0
 34 59  1  0  0  0
 34109  1  0  0  0
 35 44  2  0  0  0
 35 45  1  0  0  0
 35 68  1  0  0  0
 36 56  1  0  0  0
 36110  1  0  0  0
 37 39  1  0  0  0
 37 47  1  0  0  0
 37 66  1  0  0  0
 37111  1  0  0  0
 38 43  2  0  0  0
 38 46  1  0  0  0
 38 47  1  0  0  0
 39 64  1  0  0  0
 39 67  2  0  0  0
 40 52  1  0  0  0
 40 53  2  0  0  0
 40 58  1  0  0  0
 41112  1  0  0  0
 41113  1  0  0  0
 41114  1  0  0  0
 41 48  1  0  0  0
 42 43  1  0  0  0
 42 66  1  0  0  0
 42115  1  0  0  0
 42116  1  0  0  0
 43 44  1  0  0  0
 44117  1  0  0  0
 45 46  2  0  0  0
 45118  1  0  0  0
 46119  1  0  0  0
 47120  1  0  0  0
 47121  1  0  0  0
 48 56  1  0  0  0
 48 65  1  0  0  0
 48122  1  0  0  0
 49 50  1  0  0  0
 49 53  1  0  0  0
 49 64  1  0  0  0
 49123  1  0  0  0
 50 51  1  0  0  0
 50124  1  0  0  0
 50125  1  0  0  0
 51 52  1  0  0  0
 51126  1  0  0  0
 51127  1  0  0  0
 52128  1  0  0  0
 52129  1  0  0  0
 53 54  1  0  0  0
 54 55  2  0  0  0
 54130  1  0  0  0
 55 57  1  0  0  0
 55131  1  0  0  0
 56 69  2  0  0  0
 57 58  2  0  0  0
 57132  1  0  0  0
 58133  1  0  0  0
 59 60  1  0  0  0
 59 61  1  0  0  0
 59 62  1  0  0  0
 60134  1  0  0  0
 60135  1  0  0  0
 60136  1  0  0  0
 61137  1  0  0  0
 61138  1  0  0  0
 61139  1  0  0  0
 62140  1  0  0  0
 62141  1  0  0  0
 62142  1  0  0  0
 63 65  1  0  0  0
 63143  1  0  0  0
 63144  1  0  0  0
 63145  1  0  0  0
 64146  1  0  0  0
 65147  1  0  0  0
 68 84  1  0  0  0
 71 72  2  0  0  0
 71 74  1  0  0  0
 71148  1  0  0  0
 72 75  1  0  0  0
 72149  1  0  0  0
 73 74  2  0  0  0
 73 76  1  0  0  0
 73150  1  0  0  0
 74 85  1  0  0  0
 75 76  2  0  0  0
 75 86  1  0  0  0
 76 88  1  0  0  0
 77 78  2  0  0  0
 77 79  1  0  0  0
 77 84  1  0  0  0
 78 82  1  0  0  0
 78 85  1  0  0  0
 79 80  1  0  0  0
 79 87  2  0  0  0
 80 81  1  0  0  0
 80151  1  0  0  0
 80152  1  0  0  0
 81 85  1  0  0  0
 81153  1  0  0  0
 81154  1  0  0  0
 82155  1  0  0  0
 82156  1  0  0  0
 82157  1  0  0  0
 83 88  1  0  0  0
 83158  1  0  0  0
 83159  1  0  0  0
 83160  1  0  0  0
 84161  1  0  0  0
 84162  1  0  0  0
 86163  1  0  0  0
M  ISO  4   1 100  68 101  84 101  86 100
M  END
> <chiral flag>
0

> <version>
0

> <s_m_source_file>
/data/baiqing/PycharmProjects/Reinvent-master-3.2/result/LINK_invent/BTK/process_docking_weight1_custom_product_contain_oxygen_bond_distance_aromatic_linkinvent_7_9_3/rearranged_h_0110.sdf

> <i_m_source_file_index>
68

> <r_mmod_Potential_Energy-OPLS-2005>
56.2410507202148

> <r_mmod_Stretch_Energy-OPLS-2005>
94.6576156616211

> <r_mmod_Bend_Energy-OPLS-2005>
150.662536621094

> <r_mmod_Torsional_Energy-OPLS-2005>
207.363906860352

> <r_mmod_Improper_Torsional_Energy-OPLS-2005>
6.15997982025146

> <r_mmod_Van_der_Waal_Energy-OPLS-2005>
174.644180297852

> <r_mmod_Electrostatic_Energy-OPLS-2005>
-409.085174560547

> <r_mmod_Solvation_Energy-OPLS-2005>
-222.714233398438

> <b_mmod_Minimization_Converged-OPLS-2005>
0

> <r_mmod_RMS_Derivative-OPLS-2005>
1.35259580612183

$$$$
69
                    3D
 Structure written by MMmdl.
171180  0  0  1  0            999 V2000
  -30.6716  -14.4818   20.5530 C   0  0  0  0  0  0
  -30.4247  -12.3048   19.4215 C   0  0  0  0  0  0
  -29.4947  -12.5075   18.2056 C   0  0  0  0  0  0
  -28.0152  -12.3657   18.6167 C   0  0  0  0  0  0
  -27.6617  -13.2014   19.8766 C   0  0  2  0  0  0
  -28.7022  -12.9680   20.9962 C   0  0  0  0  0  0
  -25.2590  -13.8135   20.5660 C   0  0  0  0  0  0
  -24.1843  -13.0424   20.9172 C   0  0  0  0  0  0
  -24.6387  -11.6886   20.8721 C   0  0  0  0  0  0
  -23.9052  -10.4284   21.0406 C   0  0  0  0  0  0
  -24.3614   -9.4199   21.9178 C   0  0  0  0  0  0
  -23.6291   -8.2234   22.0752 C   0  0  0  0  0  0
  -22.4270   -8.0279   21.3549 C   0  0  0  0  0  0
  -21.9907   -9.0242   20.4642 C   0  0  0  0  0  0
  -22.7230  -10.2120   20.3053 C   0  0  0  0  0  0
  -21.6854   -6.0735   22.5276 C   0  0  0  0  0  0
  -21.4015   -6.5641   23.8206 C   0  0  0  0  0  0
  -21.3662   -5.6793   24.9168 C   0  0  0  0  0  0
  -21.6040   -4.3053   24.7218 C   0  0  0  0  0  0
  -21.8822   -3.8146   23.4340 C   0  0  0  0  0  0
  -21.9192   -4.6965   22.3397 C   0  0  0  0  0  0
  -22.7870  -13.5233   21.1837 C   0  0  0  0  0  0
  -22.1662   -4.2152   21.0973 F   0  0  0  0  0  0
  -21.5628   -3.4536   25.7729 F   0  0  0  0  0  0
  -30.0351  -13.2826   20.4500 N   0  0  0  0  0  0
  -26.3024  -12.9291   20.3358 N   0  0  0  0  0  0
  -25.9311  -11.6462   20.5759 N   0  0  0  0  0  0
  -22.0517  -12.8223   22.0395 N   0  0  0  0  0  0
  -25.4305  -15.1849   20.4028 N   0  0  0  0  0  0
  -31.8023  -14.6744   20.0962 O   0  0  0  0  0  0
  -21.6641   -6.8873   21.4237 O   0  0  0  0  0  0
  -22.3552  -14.5543   20.6693 O   0  0  0  0  0  0
  -24.6165  -31.8657   23.2081 C   0  0  0  0  0  0
  -25.9046  -32.4823   23.8366 C   0  0  1  0  0  0
  -27.2439  -27.4238   20.1011 C   0  0  0  0  0  0
  -25.5885  -33.8617   24.2311 N   0  0  0  0  0  0
  -23.4069  -30.4895   21.5472 C   0  0  2  0  0  0
  -24.8589  -28.9533   20.1189 C   0  0  0  0  0  0
  -22.7434  -29.4653   22.4953 C   0  0  0  0  0  0
  -18.0287  -28.1363   22.8496 C   0  0  0  0  0  0
  -24.1500  -36.7304   23.2642 C   0  0  0  0  0  0
  -25.9381  -30.8263   21.3692 C   0  0  0  0  0  0
  -26.0178  -29.4568   20.7246 C   0  0  0  0  0  0
  -27.2150  -28.6971   20.7226 C   0  0  0  0  0  0
  -26.0719  -26.9452   19.4815 C   0  0  0  0  0  0
  -24.8803  -27.6941   19.4958 C   0  0  0  0  0  0
  -23.6190  -29.8194   20.1635 C   0  0  0  0  0  0
  -25.4114  -36.3109   24.0351 C   0  0  1  0  0  0
  -20.5881  -28.3649   23.1299 C   0  0  2  0  0  0
  -20.6790  -26.9377   22.5402 C   0  0  0  0  0  0
  -19.5770  -26.6357   21.5217 C   0  0  0  0  0  0
  -18.1948  -26.7907   22.1622 C   0  0  0  0  0  0
  -19.1539  -28.8821   23.2902 C   0  0  0  0  0  0
  -18.9470  -30.1435   23.8900 C   0  0  0  0  0  0
  -17.6468  -30.6571   24.0568 C   0  0  0  0  0  0
  -25.9033  -34.9481   23.5131 C   0  0  0  0  0  0
  -16.5361  -29.9063   23.6336 C   0  0  0  0  0  0
  -16.7272  -28.6483   23.0349 C   0  0  0  0  0  0
  -26.4448  -31.6606   25.0707 C   0  0  0  0  0  0
  -25.3696  -31.3743   26.1446 C   0  0  0  0  0  0
  -27.0292  -30.3061   24.6083 C   0  0  0  0  0  0
  -27.6015  -32.4308   25.7482 C   0  0  0  0  0  0
  -27.5597  -37.1799   24.8470 C   0  0  0  0  0  0
  -21.4154  -29.3020   22.3706 N   0  0  0  0  0  0
  -26.4306  -37.3790   23.9418 N   0  0  0  0  0  0
  -24.6724  -31.0737   22.1005 N   0  0  0  0  0  0
  -23.4201  -28.8216   23.3015 O   0  0  0  0  0  0
  -28.3753  -26.6355   20.0155 O   0  0  0  0  0  0
  -26.5587  -34.8928   22.4686 O   0  0  0  0  0  0
  -23.5342  -32.1387   23.7451 O   0  0  0  0  0  0
  -28.6990  -17.5707   20.9159 C   0  0  0  0  0  0
  -31.0636  -17.6034   20.4019 C   0  0  0  0  0  0
  -28.6007  -18.9527   20.6192 C   0  0  0  0  0  0
  -29.7499  -19.6881   20.2133 C   0  0  0  0  0  0
  -29.9188  -16.8708   20.7952 C   0  0  0  0  0  0
  -30.9868  -18.9880   20.1086 C   0  0  0  0  0  0
  -29.1986  -24.6718   21.4355 C   0  0  0  0  0  0
  -29.0277  -23.6459   20.5381 C   0  0  0  0  0  0
  -29.6674  -24.3514   22.8107 C   0  0  0  0  0  0
  -29.6809  -22.8942   23.2506 C   0  0  0  0  0  0
  -30.1174  -21.9866   22.0991 C   0  0  0  0  0  0
  -27.2310  -19.6102   20.7366 C   0  0  0  0  0  0
  -29.6603  -24.1307   18.1098 C   0  0  0  0  0  0
  -29.6295  -21.1856   19.8213 C   0  0  0  0  0  0
  -28.9828  -26.2012   21.2389 C   0  0  0  0  0  0
  -28.5280  -23.8090   19.0990 C   0  0  0  0  0  0
  -32.1648  -19.6204   19.7026 N   0  0  0  0  0  0
  -29.9173  -15.4661   21.0882 N   0  0  0  0  0  0
  -29.2446  -22.1571   20.9075 N   0  3  2  0  0  0
  -30.0322  -25.2042   23.6250 O   0  0  0  0  0  0
  -31.4698  -12.4059   19.1233 H   0  0  0  0  0  0
  -30.3247  -11.2900   19.8112 H   0  0  0  0  0  0
  -29.7349  -11.7854   17.4239 H   0  0  0  0  0  0
  -29.6600  -13.4949   17.7715 H   0  0  0  0  0  0
  -27.8272  -11.3084   18.8086 H   0  0  0  0  0  0
  -27.3645  -12.6429   17.7857 H   0  0  0  0  0  0
  -27.7096  -14.2514   19.5871 H   0  0  0  0  0  0
  -28.6772  -11.9272   21.3229 H   0  0  0  0  0  0
  -28.4597  -13.5521   21.8852 H   0  0  0  0  0  0
  -25.2771   -9.5669   22.4746 H   0  0  0  0  0  0
  -24.0000   -7.4627   22.7471 H   0  0  0  0  0  0
  -21.0843   -8.8749   19.8948 H   0  0  0  0  0  0
  -22.3690  -10.9655   19.6157 H   0  0  0  0  0  0
  -21.2015   -7.6150   23.9709 H   0  0  0  0  0  0
  -21.1481   -6.0524   25.9069 H   0  0  0  0  0  0
  -22.0603   -2.7610   23.2831 H   0  0  0  0  0  0
  -22.4158  -11.9890   22.4780 H   0  0  0  0  0  0
  -21.1128  -13.1223   22.2606 H   0  0  0  0  0  0
  -24.6526  -15.8306   20.4845 H   0  0  0  0  0  0
  -26.2661  -15.6145   20.0276 H   0  0  0  0  0  0
  -26.7129  -32.5522   23.1125 H   0  0  0  0  0  0
  -25.0094  -33.9777   25.0502 H   0  0  0  0  0  0
  -22.6972  -31.3084   21.4057 H   0  0  0  0  0  0
  -23.3776  -35.9629   23.3302 H   0  0  0  0  0  0
  -24.3610  -36.8902   22.2063 H   0  0  0  0  0  0
  -23.7246  -37.6513   23.6635 H   0  0  0  0  0  0
  -26.0522  -31.5895   20.5972 H   0  0  0  0  0  0
  -26.8257  -30.8829   21.9871 H   0  0  0  0  0  0
  -28.1116  -29.0934   21.1797 H   0  0  0  0  0  0
  -26.0752  -25.9870   18.9833 H   0  0  0  0  0  0
  -23.9948  -27.2985   19.0181 H   0  0  0  0  0  0
  -23.7195  -30.5906   19.3990 H   0  0  0  0  0  0
  -22.7471  -29.2324   19.8705 H   0  0  0  0  0  0
  -25.1302  -36.1975   25.0852 H   0  0  0  0  0  0
  -20.9989  -28.3184   24.1416 H   0  0  0  0  0  0
  -20.5723  -26.2239   23.3578 H   0  0  0  0  0  0
  -21.6656  -26.7418   22.1192 H   0  0  0  0  0  0
  -19.6935  -25.6278   21.1224 H   0  0  0  0  0  0
  -19.6727  -27.3195   20.6779 H   0  0  0  0  0  0
  -17.4231  -26.6681   21.4007 H   0  0  0  0  0  0
  -18.0331  -26.0032   22.8994 H   0  0  0  0  0  0
  -19.7958  -30.7263   24.2247 H   0  0  0  0  0  0
  -17.5028  -31.6265   24.5151 H   0  0  0  0  0  0
  -15.5366  -30.2973   23.7657 H   0  0  0  0  0  0
  -15.8678  -28.0814   22.7032 H   0  0  0  0  0  0
  -24.5866  -30.7096   25.7776 H   0  0  0  0  0  0
  -24.8891  -32.2935   26.4828 H   0  0  0  0  0  0
  -25.8010  -30.8946   27.0246 H   0  0  0  0  0  0
  -26.2859  -29.6834   24.1090 H   0  0  0  0  0  0
  -27.4071  -29.7274   25.4526 H   0  0  0  0  0  0
  -27.8683  -30.4438   23.9252 H   0  0  0  0  0  0
  -27.2636  -33.3609   26.2065 H   0  0  0  0  0  0
  -28.3819  -32.6844   25.0295 H   0  0  0  0  0  0
  -28.0681  -31.8423   26.5391 H   0  0  0  0  0  0
  -28.2591  -38.0114   24.7521 H   0  0  0  0  0  0
  -28.1105  -36.2636   24.6282 H   0  0  0  0  0  0
  -27.2307  -37.1445   25.8871 H   0  0  0  0  0  0
  -20.9301  -29.8716   21.6917 H   0  0  0  0  0  0
  -26.0200  -38.2881   24.1388 H   0  0  0  0  0  0
  -27.8100  -17.0344   21.2213 H   0  0  0  0  0  0
  -32.0169  -17.1040   20.3095 H   0  0  0  0  0  0
  -28.6850  -22.6238   23.6022 H   0  0  0  0  0  0
  -30.3598  -22.7769   24.0956 H   0  0  0  0  0  0
  -30.1049  -20.9577   22.4568 H   0  0  0  0  0  0
  -31.1536  -22.2004   21.8294 H   0  0  0  0  0  0
  -26.4399  -18.8622   20.7999 H   0  0  0  0  0  0
  -27.0014  -20.2333   19.8720 H   0  0  0  0  0  0
  -27.1707  -20.2175   21.6399 H   0  0  0  0  0  0
  -29.2702  -24.2357   17.0972 H   0  0  0  0  0  0
  -30.4234  -23.3550   18.0768 H   0  0  0  0  0  0
  -30.1594  -25.0650   18.3702 H   0  0  0  0  0  0
  -28.9117  -21.1839   19.0057 H   0  0  0  0  0  0
  -30.5568  -21.5330   19.3753 H   0  0  0  0  0  0
  -29.9578  -26.6870   21.2972 H   0  0  0  0  0  0
  -28.4058  -26.5798   22.0870 H   0  0  0  0  0  0
  -27.7988  -24.6071   19.0670 H   0  0  0  0  0  0
  -27.9329  -22.9645   18.7601 H   0  0  0  0  0  0
  -32.9553  -19.0248   19.4727 H   0  0  0  0  0  0
  -32.1196  -20.4186   19.0773 H   0  0  0  0  0  0
  -29.0583  -15.1196   21.4878 H   0  0  0  0  0  0
  -28.3470  -21.8074   21.2092 H   0  0  0  0  0  0
  1 25  1  0  0  0
  1 30  2  0  0  0
  1 88  1  0  0  0
  2  3  1  0  0  0
  2 25  1  0  0  0
  2 91  1  0  0  0
  2 92  1  0  0  0
  3  4  1  0  0  0
  3 93  1  0  0  0
  3 94  1  0  0  0
  4  5  1  0  0  0
  4 95  1  0  0  0
  4 96  1  0  0  0
  5  6  1  0  0  0
  5 26  1  0  0  0
  5 97  1  0  0  0
  6 25  1  0  0  0
  6 98  1  0  0  0
  6 99  1  0  0  0
  7  8  2  0  0  0
  7 26  1  0  0  0
  7 29  1  0  0  0
  8  9  1  0  0  0
  8 22  1  0  0  0
  9 10  1  0  0  0
  9 27  2  0  0  0
 10 11  2  0  0  0
 10 15  1  0  0  0
 11 12  1  0  0  0
 11100  1  0  0  0
 12 13  2  0  0  0
 12101  1  0  0  0
 13 14  1  0  0  0
 13 31  1  0  0  0
 14 15  2  0  0  0
 14102  1  0  0  0
 15103  1  0  0  0
 16 17  2  0  0  0
 16 21  1  0  0  0
 16 31  1  0  0  0
 17 18  1  0  0  0
 17104  1  0  0  0
 18 19  2  0  0  0
 18105  1  0  0  0
 19 20  1  0  0  0
 19 24  1  0  0  0
 20 21  2  0  0  0
 20106  1  0  0  0
 21 23  1  0  0  0
 22 28  1  0  0  0
 22 32  2  0  0  0
 26 27  1  0  0  0
 28107  1  0  0  0
 28108  1  0  0  0
 29109  1  0  0  0
 29110  1  0  0  0
 33 34  1  0  0  0
 33 66  1  0  0  0
 33 70  2  0  0  0
 34 36  1  0  0  0
 34 59  1  0  0  0
 34111  1  0  0  0
 35 44  2  0  0  0
 35 45  1  0  0  0
 35 68  1  0  0  0
 36 56  1  0  0  0
 36112  1  0  0  0
 37 39  1  0  0  0
 37 47  1  0  0  0
 37 66  1  0  0  0
 37113  1  0  0  0
 38 43  2  0  0  0
 38 46  1  0  0  0
 38 47  1  0  0  0
 39 64  1  0  0  0
 39 67  2  0  0  0
 40 52  1  0  0  0
 40 53  2  0  0  0
 40 58  1  0  0  0
 41114  1  0  0  0
 41115  1  0  0  0
 41116  1  0  0  0
 41 48  1  0  0  0
 42 43  1  0  0  0
 42 66  1  0  0  0
 42117  1  0  0  0
 42118  1  0  0  0
 43 44  1  0  0  0
 44119  1  0  0  0
 45 46  2  0  0  0
 45120  1  0  0  0
 46121  1  0  0  0
 47122  1  0  0  0
 47123  1  0  0  0
 48 56  1  0  0  0
 48 65  1  0  0  0
 48124  1  0  0  0
 49 50  1  0  0  0
 49 53  1  0  0  0
 49 64  1  0  0  0
 49125  1  0  0  0
 50 51  1  0  0  0
 50126  1  0  0  0
 50127  1  0  0  0
 51 52  1  0  0  0
 51128  1  0  0  0
 51129  1  0  0  0
 52130  1  0  0  0
 52131  1  0  0  0
 53 54  1  0  0  0
 54 55  2  0  0  0
 54132  1  0  0  0
 55 57  1  0  0  0
 55133  1  0  0  0
 56 69  2  0  0  0
 57 58  2  0  0  0
 57134  1  0  0  0
 58135  1  0  0  0
 59 60  1  0  0  0
 59 61  1  0  0  0
 59 62  1  0  0  0
 60136  1  0  0  0
 60137  1  0  0  0
 60138  1  0  0  0
 61139  1  0  0  0
 61140  1  0  0  0
 61141  1  0  0  0
 62142  1  0  0  0
 62143  1  0  0  0
 62144  1  0  0  0
 63 65  1  0  0  0
 63145  1  0  0  0
 63146  1  0  0  0
 63147  1  0  0  0
 64148  1  0  0  0
 65149  1  0  0  0
 68 85  1  0  0  0
 71 73  2  0  0  0
 71 75  1  0  0  0
 71150  1  0  0  0
 72 75  2  0  0  0
 72 76  1  0  0  0
 72151  1  0  0  0
 73 74  1  0  0  0
 73 82  1  0  0  0
 74 76  2  0  0  0
 74 84  1  0  0  0
 75 88  1  0  0  0
 76 87  1  0  0  0
 77 78  2  0  0  0
 77 79  1  0  0  0
 77 85  1  0  0  0
 78 86  1  0  0  0
 78 89  1  0  0  0
 79 80  1  0  0  0
 79 90  2  0  0  0
 80 81  1  0  0  0
 80152  1  0  0  0
 80153  1  0  0  0
 81 89  1  0  0  0
 81154  1  0  0  0
 81155  1  0  0  0
 82156  1  0  0  0
 82157  1  0  0  0
 82158  1  0  0  0
 83 86  1  0  0  0
 83159  1  0  0  0
 83160  1  0  0  0
 83161  1  0  0  0
 84162  1  0  0  0
 84163  1  0  0  0
 84 89  1  0  0  0
 85164  1  0  0  0
 85165  1  0  0  0
 86166  1  0  0  0
 86167  1  0  0  0
 87168  1  0  0  0
 87169  1  0  0  0
 88170  1  0  0  0
 89171  1  0  0  0
M  CHG  1  89   1
M  ISO  4   1 100  68 101  85 101  88 100
M  END
> <chiral flag>
0

> <version>
0

> <s_m_source_file>
/data/baiqing/PycharmProjects/Reinvent-master-3.2/result/LINK_invent/BTK/process_docking_weight1_custom_product_contain_oxygen_bond_distance_aromatic_linkinvent_7_9_3/rearranged_h_0110.sdf

> <i_m_source_file_index>
69

> <r_mmod_Potential_Energy-OPLS-2005>
-156.512161254883

> <r_mmod_Stretch_Energy-OPLS-2005>
56.4318656921387

> <r_mmod_Bend_Energy-OPLS-2005>
127.982757568359

> <r_mmod_Torsional_Energy-OPLS-2005>
219.138198852539

> <r_mmod_Improper_Torsional_Energy-OPLS-2005>
8.35552597045898

> <r_mmod_Van_der_Waal_Energy-OPLS-2005>
170.796157836914

> <r_mmod_Electrostatic_Energy-OPLS-2005>
-294.772521972656

> <r_mmod_Solvation_Energy-OPLS-2005>
-457.9921875

> <b_mmod_Minimization_Converged-OPLS-2005>
0

> <r_mmod_RMS_Derivative-OPLS-2005>
2.68032097816467

$$$$
70
                    3D
 Structure written by MMmdl.
159167  0  0  1  0            999 V2000
  -30.5675  -14.7997   20.4758 C   0  0  0  0  0  0
  -30.4420  -12.4979   19.4857 C   0  0  0  0  0  0
  -29.5147  -12.5148   18.2456 C   0  0  0  0  0  0
  -28.0424  -12.3460   18.6613 C   0  0  0  0  0  0
  -27.6511  -13.2331   19.8741 C   0  0  2  0  0  0
  -28.6913  -13.1623   21.0160 C   0  0  0  0  0  0
  -25.2562  -13.8191   20.5693 C   0  0  0  0  0  0
  -24.1843  -13.0467   20.9205 C   0  0  0  0  0  0
  -24.6430  -11.6935   20.8778 C   0  0  0  0  0  0
  -23.9103  -10.4322   21.0449 C   0  0  0  0  0  0
  -24.3676   -9.4226   21.9192 C   0  0  0  0  0  0
  -23.6337   -8.2280   22.0760 C   0  0  0  0  0  0
  -22.4320   -8.0325   21.3560 C   0  0  0  0  0  0
  -21.9972   -9.0305   20.4658 C   0  0  0  0  0  0
  -22.7307  -10.2173   20.3062 C   0  0  0  0  0  0
  -21.6864   -6.0784   22.5284 C   0  0  0  0  0  0
  -21.4022   -6.5663   23.8228 C   0  0  0  0  0  0
  -21.3658   -5.6807   24.9193 C   0  0  0  0  0  0
  -21.6031   -4.3066   24.7232 C   0  0  0  0  0  0
  -21.8823   -3.8171   23.4349 C   0  0  0  0  0  0
  -21.9206   -4.7006   22.3416 C   0  0  0  0  0  0
  -22.7872  -13.5269   21.1861 C   0  0  0  0  0  0
  -22.1660   -4.2187   21.0999 F   0  0  0  0  0  0
  -21.5640   -3.4540   25.7742 F   0  0  0  0  0  0
  -29.9875  -13.5457   20.4395 N   0  0  0  0  0  0
  -26.3013  -12.9388   20.3422 N   0  0  0  0  0  0
  -25.9383  -11.6549   20.5849 N   0  0  0  0  0  0
  -22.0529  -12.8269   22.0421 N   0  0  0  0  0  0
  -25.4229  -15.1921   20.3981 N   0  0  0  0  0  0
  -31.7292  -14.9294   20.0629 O   0  0  0  0  0  0
  -21.6660   -6.8940   21.4255 O   0  0  0  0  0  0
  -22.3596  -14.5620   20.6736 O   0  0  0  0  0  0
  -24.6312  -31.8526   23.1940 C   0  0  0  0  0  0
  -25.9127  -32.4716   23.8300 C   0  0  1  0  0  0
  -27.2279  -27.2051   20.2075 C   0  0  0  0  0  0
  -25.5920  -33.8534   24.2246 N   0  0  0  0  0  0
  -23.4287  -30.4708   21.5364 C   0  0  2  0  0  0
  -24.8843  -28.8899   20.1321 C   0  0  0  0  0  0
  -22.7479  -29.4626   22.4941 C   0  0  0  0  0  0
  -18.0284  -28.1400   22.8437 C   0  0  0  0  0  0
  -24.1491  -36.7271   23.2652 C   0  0  0  0  0  0
  -25.9755  -30.7389   21.3852 C   0  0  0  0  0  0
  -26.0497  -29.3486   20.7615 C   0  0  0  0  0  0
  -27.2186  -28.5196   20.7912 C   0  0  0  0  0  0
  -26.0377  -26.8037   19.5643 C   0  0  0  0  0  0
  -24.8829  -27.6242   19.5220 C   0  0  0  0  0  0
  -23.6576  -29.7886   20.1553 C   0  0  0  0  0  0
  -25.4126  -36.3073   24.0355 C   0  0  1  0  0  0
  -20.5878  -28.3704   23.1222 C   0  0  2  0  0  0
  -20.6811  -26.9430   22.5362 C   0  0  0  0  0  0
  -19.5773  -26.6399   21.5152 C   0  0  0  0  0  0
  -18.1957  -26.7921   22.1561 C   0  0  0  0  0  0
  -19.1542  -28.8880   23.2783 C   0  0  0  0  0  0
  -18.9501  -30.1473   23.8830 C   0  0  0  0  0  0
  -17.6510  -30.6591   24.0565 C   0  0  0  0  0  0
  -25.9062  -34.9416   23.5122 C   0  0  0  0  0  0
  -16.5392  -29.9116   23.6341 C   0  0  0  0  0  0
  -16.7273  -28.6503   23.0403 C   0  0  0  0  0  0
  -26.4465  -31.6560   25.0718 C   0  0  0  0  0  0
  -25.3662  -31.3682   26.1425 C   0  0  0  0  0  0
  -27.0346  -30.3003   24.6220 C   0  0  0  0  0  0
  -27.6043  -32.4308   25.7460 C   0  0  0  0  0  0
  -27.5590  -37.1795   24.8480 C   0  0  0  0  0  0
  -21.4203  -29.3038   22.3639 N   0  0  0  0  0  0
  -26.4307  -37.3777   23.9428 N   0  0  0  0  0  0
  -24.6973  -31.0458   22.0911 N   0  0  0  0  0  0
  -23.4178  -28.8225   23.3092 O   0  0  0  0  0  0
  -28.3585  -26.3499   20.1165 O   0  0  0  0  0  0
  -26.5642  -34.8930   22.4695 O   0  0  0  0  0  0
  -23.5445  -32.1422   23.7205 O   0  0  0  0  0  0
  -29.3676  -18.4136   20.9549 C   0  0  0  0  0  0
  -29.7908  -17.4823   18.7751 C   0  0  0  0  0  0
  -29.7128  -17.2738   20.2344 C   0  0  0  0  0  0
  -29.8180  -18.7469   18.2775 C   0  0  0  0  0  0
  -29.6855  -19.9589   19.1183 C   0  0  0  0  0  0
  -28.5550  -25.1070   20.8203 C   0  0  0  0  0  0
  -28.6900  -23.8053   20.3138 C   0  0  0  0  0  0
  -29.2295  -22.5337   21.0825 C   0  0  0  0  0  0
  -29.6828  -16.2968   17.8065 C   0  0  0  0  0  0
  -28.1082  -20.6730   22.5193 C   0  0  0  0  0  0
  -28.5750  -21.0076   21.0822 C   0  0  2  0  0  0
  -29.2718  -19.7765   20.4058 N   0  0  0  0  0  0
  -29.8432  -19.0216   16.9160 N   0  0  0  0  0  0
  -29.7760  -15.9114   20.7974 N   0  0  0  0  0  0
  -29.8131  -21.0886   18.6316 O   0  0  0  0  0  0
  -30.2414  -22.6866   21.7741 O   0  0  0  0  0  0
  -28.4811  -23.5985   19.0105 O   0  0  0  0  0  0
  -31.4814  -12.6372   19.1830 H   0  0  0  0  0  0
  -30.4031  -11.5240   19.9748 H   0  0  0  0  0  0
  -29.7960  -11.7122   17.5643 H   0  0  0  0  0  0
  -29.6284  -13.4425   17.6844 H   0  0  0  0  0  0
  -27.8955  -11.2905   18.9096 H   0  0  0  0  0  0
  -27.3682  -12.5476   17.8257 H   0  0  0  0  0  0
  -27.6517  -14.2613   19.5122 H   0  0  0  0  0  0
  -28.7427  -12.1562   21.4383 H   0  0  0  0  0  0
  -28.4184  -13.8199   21.8447 H   0  0  0  0  0  0
  -25.2835   -9.5707   22.4757 H   0  0  0  0  0  0
  -24.0039   -7.4693   22.7493 H   0  0  0  0  0  0
  -21.0897   -8.8892   19.8952 H   0  0  0  0  0  0
  -22.3815  -10.9759   19.6185 H   0  0  0  0  0  0
  -21.1977   -7.6158   23.9757 H   0  0  0  0  0  0
  -21.1464   -6.0521   25.9107 H   0  0  0  0  0  0
  -22.0580   -2.7627   23.2842 H   0  0  0  0  0  0
  -22.4152  -11.9900   22.4744 H   0  0  0  0  0  0
  -21.1143  -13.1306   22.2603 H   0  0  0  0  0  0
  -24.6552  -15.8462   20.5123 H   0  0  0  0  0  0
  -26.2635  -15.6251   20.0400 H   0  0  0  0  0  0
  -26.7215  -32.5399   23.1045 H   0  0  0  0  0  0
  -25.0050  -33.9615   25.0384 H   0  0  0  0  0  0
  -22.7268  -31.2933   21.3805 H   0  0  0  0  0  0
  -23.3772  -35.9571   23.3308 H   0  0  0  0  0  0
  -24.3564  -36.8899   22.2053 H   0  0  0  0  0  0
  -23.7189  -37.6472   23.6659 H   0  0  0  0  0  0
  -26.1149  -31.4672   20.5896 H   0  0  0  0  0  0
  -26.8518  -30.8087   22.0158 H   0  0  0  0  0  0
  -28.1077  -28.8610   21.3010 H   0  0  0  0  0  0
  -26.0016  -25.8304   19.0933 H   0  0  0  0  0  0
  -23.9952  -27.2599   19.0249 H   0  0  0  0  0  0
  -23.7914  -30.5562   19.3898 H   0  0  0  0  0  0
  -22.7727  -29.2232   19.8493 H   0  0  0  0  0  0
  -25.1276  -36.1937   25.0847 H   0  0  0  0  0  0
  -20.9925  -28.3297   24.1371 H   0  0  0  0  0  0
  -20.5624  -26.2288   23.3498 H   0  0  0  0  0  0
  -21.6703  -26.7452   22.1208 H   0  0  0  0  0  0
  -19.6944  -25.6337   21.1170 H   0  0  0  0  0  0
  -19.6644  -27.3207   20.6679 H   0  0  0  0  0  0
  -17.4200  -26.6535   21.3997 H   0  0  0  0  0  0
  -18.0388  -26.0083   22.8980 H   0  0  0  0  0  0
  -19.8018  -30.7257   24.2151 H   0  0  0  0  0  0
  -17.5127  -31.6236   24.5235 H   0  0  0  0  0  0
  -15.5396  -30.3025   23.7772 H   0  0  0  0  0  0
  -15.8649  -28.0828   22.7184 H   0  0  0  0  0  0
  -24.5873  -30.7004   25.7730 H   0  0  0  0  0  0
  -24.8784  -32.2821   26.4836 H   0  0  0  0  0  0
  -25.7951  -30.8865   27.0225 H   0  0  0  0  0  0
  -26.2951  -29.6740   24.1235 H   0  0  0  0  0  0
  -27.4056  -29.7276   25.4729 H   0  0  0  0  0  0
  -27.8803  -30.4350   23.9482 H   0  0  0  0  0  0
  -27.2695  -33.3663   26.1970 H   0  0  0  0  0  0
  -28.3829  -32.6791   25.0224 H   0  0  0  0  0  0
  -28.0733  -31.8469   26.5394 H   0  0  0  0  0  0
  -28.2620  -38.0084   24.7536 H   0  0  0  0  0  0
  -28.1077  -36.2616   24.6296 H   0  0  0  0  0  0
  -27.2306  -37.1440   25.8886 H   0  0  0  0  0  0
  -20.9469  -29.8713   21.6743 H   0  0  0  0  0  0
  -26.0199  -38.2880   24.1396 H   0  0  0  0  0  0
  -29.1867  -18.3726   22.0169 H   0  0  0  0  0  0
  -28.7171  -25.3111   21.8692 H   0  0  0  0  0  0
  -29.4642  -16.5501   16.7674 H   0  0  0  0  0  0
  -28.8692  -15.6418   18.1155 H   0  0  0  0  0  0
  -30.5969  -15.7079   17.7995 H   0  0  0  0  0  0
  -28.9367  -20.4307   23.1882 H   0  0  0  0  0  0
  -27.3874  -19.8508   22.5203 H   0  0  0  0  0  0
  -27.6005  -21.5377   22.9556 H   0  0  0  0  0  0
  -27.6406  -21.1047   20.5333 H   0  0  0  0  0  0
  -29.6330  -19.9859   16.6843 H   0  0  0  0  0  0
  -29.3622  -18.3763   16.3022 H   0  0  0  0  0  0
  -28.9679  -15.6796   21.3542 H   0  0  0  0  0  0
  -28.9683  -22.8143   18.7708 H   0  0  0  0  0  0
  1 25  1  0  0  0
  1 30  2  0  0  0
  1 84  1  0  0  0
  2  3  1  0  0  0
  2 25  1  0  0  0
  2 88  1  0  0  0
  2 89  1  0  0  0
  3  4  1  0  0  0
  3 90  1  0  0  0
  3 91  1  0  0  0
  4  5  1  0  0  0
  4 92  1  0  0  0
  4 93  1  0  0  0
  5  6  1  0  0  0
  5 26  1  0  0  0
  5 94  1  0  0  0
  6 25  1  0  0  0
  6 95  1  0  0  0
  6 96  1  0  0  0
  7  8  2  0  0  0
  7 26  1  0  0  0
  7 29  1  0  0  0
  8  9  1  0  0  0
  8 22  1  0  0  0
  9 10  1  0  0  0
  9 27  2  0  0  0
 10 11  2  0  0  0
 10 15  1  0  0  0
 11 12  1  0  0  0
 11 97  1  0  0  0
 12 13  2  0  0  0
 12 98  1  0  0  0
 13 14  1  0  0  0
 13 31  1  0  0  0
 14 15  2  0  0  0
 14 99  1  0  0  0
 15100  1  0  0  0
 16 17  2  0  0  0
 16 21  1  0  0  0
 16 31  1  0  0  0
 17 18  1  0  0  0
 17101  1  0  0  0
 18 19  2  0  0  0
 18102  1  0  0  0
 19 20  1  0  0  0
 19 24  1  0  0  0
 20 21  2  0  0  0
 20103  1  0  0  0
 21 23  1  0  0  0
 22 28  1  0  0  0
 22 32  2  0  0  0
 26 27  1  0  0  0
 28104  1  0  0  0
 28105  1  0  0  0
 29106  1  0  0  0
 29107  1  0  0  0
 33 34  1  0  0  0
 33 66  1  0  0  0
 33 70  2  0  0  0
 34 36  1  0  0  0
 34 59  1  0  0  0
 34108  1  0  0  0
 35 44  2  0  0  0
 35 45  1  0  0  0
 35 68  1  0  0  0
 36 56  1  0  0  0
 36109  1  0  0  0
 37 39  1  0  0  0
 37 47  1  0  0  0
 37 66  1  0  0  0
 37110  1  0  0  0
 38 43  2  0  0  0
 38 46  1  0  0  0
 38 47  1  0  0  0
 39 64  1  0  0  0
 39 67  2  0  0  0
 40 52  1  0  0  0
 40 53  2  0  0  0
 40 58  1  0  0  0
 41111  1  0  0  0
 41112  1  0  0  0
 41113  1  0  0  0
 41 48  1  0  0  0
 42 43  1  0  0  0
 42 66  1  0  0  0
 42114  1  0  0  0
 42115  1  0  0  0
 43 44  1  0  0  0
 44116  1  0  0  0
 45 46  2  0  0  0
 45117  1  0  0  0
 46118  1  0  0  0
 47119  1  0  0  0
 47120  1  0  0  0
 48 56  1  0  0  0
 48 65  1  0  0  0
 48121  1  0  0  0
 49 50  1  0  0  0
 49 53  1  0  0  0
 49 64  1  0  0  0
 49122  1  0  0  0
 50 51  1  0  0  0
 50123  1  0  0  0
 50124  1  0  0  0
 51 52  1  0  0  0
 51125  1  0  0  0
 51126  1  0  0  0
 52127  1  0  0  0
 52128  1  0  0  0
 53 54  1  0  0  0
 54 55  2  0  0  0
 54129  1  0  0  0
 55 57  1  0  0  0
 55130  1  0  0  0
 56 69  2  0  0  0
 57 58  2  0  0  0
 57131  1  0  0  0
 58132  1  0  0  0
 59 60  1  0  0  0
 59 61  1  0  0  0
 59 62  1  0  0  0
 60133  1  0  0  0
 60134  1  0  0  0
 60135  1  0  0  0
 61136  1  0  0  0
 61137  1  0  0  0
 61138  1  0  0  0
 62139  1  0  0  0
 62140  1  0  0  0
 62141  1  0  0  0
 63 65  1  0  0  0
 63142  1  0  0  0
 63143  1  0  0  0
 63144  1  0  0  0
 64145  1  0  0  0
 65146  1  0  0  0
 68 76  1  0  0  0
 71 73  2  0  0  0
 71 82  1  0  0  0
 71147  1  0  0  0
 72 73  1  0  0  0
 72 74  2  0  0  0
 72 79  1  0  0  0
 73 84  1  0  0  0
 74 75  1  0  0  0
 74 83  1  0  0  0
 75 82  1  0  0  0
 75 85  2  0  0  0
 76 77  2  0  0  0
 76148  1  0  0  0
 77 78  1  0  0  0
 77 87  1  0  0  0
 78 81  1  0  0  0
 78 86  2  0  0  0
 79149  1  0  0  0
 79150  1  0  0  0
 79151  1  0  0  0
 80152  1  0  0  0
 80153  1  0  0  0
 80154  1  0  0  0
 80 81  1  0  0  0
 81 82  1  0  0  0
 81155  1  0  0  0
 83156  1  0  0  0
 83157  1  0  0  0
 84158  1  0  0  0
 87159  1  0  0  0
M  ISO  4   1 100  68 101  76 101  84 100
M  END
> <chiral flag>
0

> <version>
0

> <s_m_source_file>
/data/baiqing/PycharmProjects/Reinvent-master-3.2/result/LINK_invent/BTK/process_docking_weight1_custom_product_contain_oxygen_bond_distance_aromatic_linkinvent_7_9_3/rearranged_h_0110.sdf

> <i_m_source_file_index>
70

> <r_mmod_Potential_Energy-OPLS-2005>
331.012725830078

> <r_mmod_Stretch_Energy-OPLS-2005>
179.733169555664

> <r_mmod_Bend_Energy-OPLS-2005>
212.862640380859

> <r_mmod_Torsional_Energy-OPLS-2005>
306.706970214844

> <r_mmod_Improper_Torsional_Energy-OPLS-2005>
15.0805311203003

> <r_mmod_Van_der_Waal_Energy-OPLS-2005>
151.481597900391

> <r_mmod_Electrostatic_Energy-OPLS-2005>
-401.109924316406

> <r_mmod_Solvation_Energy-OPLS-2005>
-241.391143798828

> <b_mmod_Minimization_Converged-OPLS-2005>
0

> <r_mmod_RMS_Derivative-OPLS-2005>
9.33937835693359

$$$$
71
                    3D
 Structure written by MMmdl.
170179  0  0  1  0            999 V2000
  -30.7731  -14.4625   20.5860 C   0  0  0  0  0  0
  -30.4016  -12.3205   19.4170 C   0  0  0  0  0  0
  -29.4776  -12.4940   18.1989 C   0  0  0  0  0  0
  -28.0051  -12.3491   18.6229 C   0  0  0  0  0  0
  -27.6495  -13.2181   19.8600 C   0  0  2  0  0  0
  -28.6986  -13.0630   20.9834 C   0  0  0  0  0  0
  -25.2554  -13.8195   20.5722 C   0  0  0  0  0  0
  -24.1829  -13.0447   20.9222 C   0  0  0  0  0  0
  -24.6391  -11.6917   20.8782 C   0  0  0  0  0  0
  -23.9075  -10.4291   21.0420 C   0  0  0  0  0  0
  -24.3626   -9.4206   21.9188 C   0  0  0  0  0  0
  -23.6292   -8.2250   22.0754 C   0  0  0  0  0  0
  -22.4278   -8.0290   21.3536 C   0  0  0  0  0  0
  -21.9916   -9.0273   20.4649 C   0  0  0  0  0  0
  -22.7255  -10.2144   20.3060 C   0  0  0  0  0  0
  -21.6837   -6.0745   22.5284 C   0  0  0  0  0  0
  -21.4006   -6.5650   23.8219 C   0  0  0  0  0  0
  -21.3663   -5.6803   24.9180 C   0  0  0  0  0  0
  -21.6045   -4.3064   24.7232 C   0  0  0  0  0  0
  -21.8815   -3.8158   23.4352 C   0  0  0  0  0  0
  -21.9191   -4.6975   22.3408 C   0  0  0  0  0  0
  -22.7853  -13.5237   21.1880 C   0  0  0  0  0  0
  -22.1658   -4.2160   21.0986 F   0  0  0  0  0  0
  -21.5625   -3.4548   25.7745 F   0  0  0  0  0  0
  -30.0189  -13.3446   20.4013 N   0  0  0  0  0  0
  -26.2980  -12.9376   20.3346 N   0  0  0  0  0  0
  -25.9318  -11.6527   20.5800 N   0  0  0  0  0  0
  -22.0496  -12.8209   22.0424 N   0  0  0  0  0  0
  -25.4275  -15.1922   20.4126 N   0  0  0  0  0  0
  -31.9231  -14.5372   20.1431 O   0  0  0  0  0  0
  -21.6634   -6.8891   21.4240 O   0  0  0  0  0  0
  -22.3543  -14.5539   20.6720 O   0  0  0  0  0  0
  -24.6214  -31.8676   23.2104 C   0  0  0  0  0  0
  -25.9094  -32.4811   23.8396 C   0  0  1  0  0  0
  -27.2140  -27.4036   20.0781 C   0  0  0  0  0  0
  -25.5927  -33.8606   24.2334 N   0  0  0  0  0  0
  -23.4078  -30.4980   21.5553 C   0  0  2  0  0  0
  -24.8458  -28.9746   20.1111 C   0  0  0  0  0  0
  -22.7438  -29.4682   22.4982 C   0  0  0  0  0  0
  -18.0284  -28.1380   22.8493 C   0  0  0  0  0  0
  -24.1497  -36.7311   23.2639 C   0  0  0  0  0  0
  -25.9460  -30.8242   21.3711 C   0  0  0  0  0  0
  -26.0157  -29.4628   20.7067 C   0  0  0  0  0  0
  -27.2046  -28.6873   20.6845 C   0  0  0  0  0  0
  -26.0120  -26.9516   19.4727 C   0  0  0  0  0  0
  -24.8416  -27.7214   19.4899 C   0  0  0  0  0  0
  -23.6116  -29.8435   20.1668 C   0  0  0  0  0  0
  -25.4114  -36.3098   24.0350 C   0  0  1  0  0  0
  -20.5885  -28.3683   23.1303 C   0  0  2  0  0  0
  -20.6784  -26.9415   22.5410 C   0  0  0  0  0  0
  -19.5754  -26.6390   21.5216 C   0  0  0  0  0  0
  -18.1932  -26.7928   22.1629 C   0  0  0  0  0  0
  -19.1532  -28.8848   23.2898 C   0  0  0  0  0  0
  -18.9453  -30.1454   23.8909 C   0  0  0  0  0  0
  -17.6454  -30.6586   24.0567 C   0  0  0  0  0  0
  -25.9050  -34.9461   23.5143 C   0  0  0  0  0  0
  -16.5348  -29.9087   23.6325 C   0  0  0  0  0  0
  -16.7272  -28.6503   23.0349 C   0  0  0  0  0  0
  -26.4479  -31.6568   25.0731 C   0  0  0  0  0  0
  -25.3710  -31.3707   26.1460 C   0  0  0  0  0  0
  -27.0309  -30.2986   24.6143 C   0  0  0  0  0  0
  -27.6062  -32.4280   25.7482 C   0  0  0  0  0  0
  -27.5588  -37.1815   24.8465 C   0  0  0  0  0  0
  -21.4159  -29.3045   22.3697 N   0  0  0  0  0  0
  -26.4297  -37.3785   23.9414 N   0  0  0  0  0  0
  -24.6771  -31.0790   22.1011 N   0  0  0  0  0  0
  -23.4192  -28.8212   23.3026 O   0  0  0  0  0  0
  -28.3618  -26.6163   20.0950 O   0  0  0  0  0  0
  -26.5600  -34.8923   22.4698 O   0  0  0  0  0  0
  -23.5412  -32.1431   23.7482 O   0  0  0  0  0  0
  -29.3515  -20.1455   21.4911 C   0  0  0  0  0  0
  -31.4459  -20.1410   20.3193 C   0  0  0  0  0  0
  -29.4163  -18.7328   21.6740 C   0  0  0  0  0  0
  -30.5606  -18.0175   21.2088 C   0  0  0  0  0  0
  -30.3923  -20.8984   20.8879 C   0  0  0  0  0  0
  -31.5318  -18.7364   20.4476 C   0  0  0  0  0  0
  -29.3834  -24.3013   19.8577 C   0  0  0  0  0  0
  -29.3907  -23.2580   20.7451 C   0  0  0  0  0  0
  -32.4783  -23.4792   19.9445 C   0  0  0  0  0  0
  -27.4338  -18.6202   23.2405 C   0  0  0  0  0  0
  -28.3392  -18.0476   22.4298 C   0  0  0  0  0  0
  -30.8570  -16.5849   21.6353 C   0  0  0  0  0  0
  -30.4737  -24.6227   18.8263 C   0  0  0  0  0  0
  -31.6526  -23.6463   18.6726 C   0  0  0  0  0  0
  -31.7819  -22.8706   21.1613 C   0  0  0  0  0  0
  -28.3021  -23.1317   21.8031 C   0  0  0  0  0  0
  -28.1796  -25.2407   19.6840 C   0  0  0  0  0  0
  -30.4440  -22.3329   20.8724 N   0  0  0  0  0  0
  -32.6152  -18.1113   19.8113 N   0  0  0  0  0  0
  -30.1661  -15.5574   21.0927 N   0  0  0  0  0  0
  -33.6654  -23.8084   19.9797 O   0  0  0  0  0  0
  -31.7791  -16.3955   22.4410 O   0  0  0  0  0  0
  -31.4448  -12.3897   19.1061 H   0  0  0  0  0  0
  -30.2867  -11.3255   19.8496 H   0  0  0  0  0  0
  -29.7220  -11.7535   17.4358 H   0  0  0  0  0  0
  -29.6380  -13.4722   17.7437 H   0  0  0  0  0  0
  -27.8305  -11.2955   18.8476 H   0  0  0  0  0  0
  -27.3459  -12.5918   17.7901 H   0  0  0  0  0  0
  -27.6726  -14.2565   19.5284 H   0  0  0  0  0  0
  -28.6801  -12.0482   21.3826 H   0  0  0  0  0  0
  -28.4682  -13.7208   21.8220 H   0  0  0  0  0  0
  -25.2763   -9.5680   22.4761 H   0  0  0  0  0  0
  -24.0005   -7.4632   22.7461 H   0  0  0  0  0  0
  -21.0846   -8.8802   19.8942 H   0  0  0  0  0  0
  -22.3720  -10.9692   19.6177 H   0  0  0  0  0  0
  -21.1993   -7.6156   23.9722 H   0  0  0  0  0  0
  -21.1483   -6.0534   25.9083 H   0  0  0  0  0  0
  -22.0588   -2.7620   23.2855 H   0  0  0  0  0  0
  -22.4101  -11.9873   22.4812 H   0  0  0  0  0  0
  -21.1111  -13.1221   22.2619 H   0  0  0  0  0  0
  -24.6611  -15.8460   20.5306 H   0  0  0  0  0  0
  -26.2752  -15.6327   20.0796 H   0  0  0  0  0  0
  -26.7171  -32.5478   23.1162 H   0  0  0  0  0  0
  -25.0056  -33.9754   25.0462 H   0  0  0  0  0  0
  -22.7001  -31.3192   21.4252 H   0  0  0  0  0  0
  -23.3746  -35.9660   23.3309 H   0  0  0  0  0  0
  -24.3596  -36.8906   22.2051 H   0  0  0  0  0  0
  -23.7279  -37.6538   23.6638 H   0  0  0  0  0  0
  -26.0803  -31.5988   20.6142 H   0  0  0  0  0  0
  -26.8264  -30.8585   22.0004 H   0  0  0  0  0  0
  -28.1088  -29.0653   21.1418 H   0  0  0  0  0  0
  -25.9222  -25.9967   18.9771 H   0  0  0  0  0  0
  -23.9440  -27.3408   19.0227 H   0  0  0  0  0  0
  -23.7179  -30.6244   19.4119 H   0  0  0  0  0  0
  -22.7323  -29.2675   19.8710 H   0  0  0  0  0  0
  -25.1296  -36.1962   25.0849 H   0  0  0  0  0  0
  -20.9992  -28.3246   24.1417 H   0  0  0  0  0  0
  -20.5709  -26.2286   23.3598 H   0  0  0  0  0  0
  -21.6650  -26.7473   22.1176 H   0  0  0  0  0  0
  -19.6921  -25.6300   21.1235 H   0  0  0  0  0  0
  -19.6686  -27.3208   20.6745 H   0  0  0  0  0  0
  -17.4206  -26.6680   21.4023 H   0  0  0  0  0  0
  -18.0329  -26.0070   22.9022 H   0  0  0  0  0  0
  -19.7927  -30.7268   24.2279 H   0  0  0  0  0  0
  -17.5009  -31.6266   24.5159 H   0  0  0  0  0  0
  -15.5347  -30.2994   23.7642 H   0  0  0  0  0  0
  -15.8672  -28.0829   22.7062 H   0  0  0  0  0  0
  -24.5860  -30.7108   25.7755 H   0  0  0  0  0  0
  -24.8930  -32.2882   26.4895 H   0  0  0  0  0  0
  -25.8013  -30.8837   27.0214 H   0  0  0  0  0  0
  -26.2882  -29.6740   24.1166 H   0  0  0  0  0  0
  -27.4027  -29.7236   25.4631 H   0  0  0  0  0  0
  -27.8741  -30.4296   23.9361 H   0  0  0  0  0  0
  -27.2686  -33.3568   26.2087 H   0  0  0  0  0  0
  -28.3829  -32.6843   25.0267 H   0  0  0  0  0  0
  -28.0774  -31.8383   26.5353 H   0  0  0  0  0  0
  -28.2606  -38.0104   24.7500 H   0  0  0  0  0  0
  -28.1090  -36.2643   24.6306 H   0  0  0  0  0  0
  -27.2314  -37.1486   25.8867 H   0  0  0  0  0  0
  -20.9329  -29.8748   21.6897 H   0  0  0  0  0  0
  -26.0187  -38.2876   24.1365 H   0  0  0  0  0  0
  -28.4873  -20.6535   21.8730 H   0  0  0  0  0  0
  -32.2314  -20.6469   19.7782 H   0  0  0  0  0  0
  -26.6841  -18.0130   23.7266 H   0  0  0  0  0  0
  -27.4097  -19.6794   23.4507 H   0  0  0  0  0  0
  -28.2473  -16.9798   22.3058 H   0  0  0  0  0  0
  -30.8532  -25.6217   19.0468 H   0  0  0  0  0  0
  -29.9948  -24.7001   17.8498 H   0  0  0  0  0  0
  -31.2868  -22.6687   18.3616 H   0  0  0  0  0  0
  -32.3087  -23.9953   17.8753 H   0  0  0  0  0  0
  -31.6899  -23.6532   21.9141 H   0  0  0  0  0  0
  -32.4343  -22.1190   21.6052 H   0  0  0  0  0  0
  -28.0030  -24.1128   22.1726 H   0  0  0  0  0  0
  -28.6495  -22.5948   22.6864 H   0  0  0  0  0  0
  -27.4168  -22.6400   21.3995 H   0  0  0  0  0  0
  -27.3120  -24.8055   20.1786 H   0  0  0  0  0  0
  -27.9433  -25.2345   18.6187 H   0  0  0  0  0  0
  -32.5980  -17.1086   19.6473 H   0  0  0  0  0  0
  -33.1097  -18.6063   19.0749 H   0  0  0  0  0  0
  -29.1926  -15.6851   20.8739 H   0  0  0  0  0  0
  1 25  1  0  0  0
  1 30  2  0  0  0
  1 90  1  0  0  0
  2  3  1  0  0  0
  2 25  1  0  0  0
  2 93  1  0  0  0
  2 94  1  0  0  0
  3  4  1  0  0  0
  3 95  1  0  0  0
  3 96  1  0  0  0
  4  5  1  0  0  0
  4 97  1  0  0  0
  4 98  1  0  0  0
  5  6  1  0  0  0
  5 26  1  0  0  0
  5 99  1  0  0  0
  6 25  1  0  0  0
  6100  1  0  0  0
  6101  1  0  0  0
  7  8  2  0  0  0
  7 26  1  0  0  0
  7 29  1  0  0  0
  8  9  1  0  0  0
  8 22  1  0  0  0
  9 10  1  0  0  0
  9 27  2  0  0  0
 10 11  2  0  0  0
 10 15  1  0  0  0
 11 12  1  0  0  0
 11102  1  0  0  0
 12 13  2  0  0  0
 12103  1  0  0  0
 13 14  1  0  0  0
 13 31  1  0  0  0
 14 15  2  0  0  0
 14104  1  0  0  0
 15105  1  0  0  0
 16 17  2  0  0  0
 16 21  1  0  0  0
 16 31  1  0  0  0
 17 18  1  0  0  0
 17106  1  0  0  0
 18 19  2  0  0  0
 18107  1  0  0  0
 19 20  1  0  0  0
 19 24  1  0  0  0
 20 21  2  0  0  0
 20108  1  0  0  0
 21 23  1  0  0  0
 22 28  1  0  0  0
 22 32  2  0  0  0
 26 27  1  0  0  0
 28109  1  0  0  0
 28110  1  0  0  0
 29111  1  0  0  0
 29112  1  0  0  0
 33 34  1  0  0  0
 33 66  1  0  0  0
 33 70  2  0  0  0
 34 36  1  0  0  0
 34 59  1  0  0  0
 34113  1  0  0  0
 35 44  2  0  0  0
 35 45  1  0  0  0
 35 68  1  0  0  0
 36 56  1  0  0  0
 36114  1  0  0  0
 37 39  1  0  0  0
 37 47  1  0  0  0
 37 66  1  0  0  0
 37115  1  0  0  0
 38 43  2  0  0  0
 38 46  1  0  0  0
 38 47  1  0  0  0
 39 64  1  0  0  0
 39 67  2  0  0  0
 40 52  1  0  0  0
 40 53  2  0  0  0
 40 58  1  0  0  0
 41116  1  0  0  0
 41117  1  0  0  0
 41118  1  0  0  0
 41 48  1  0  0  0
 42 43  1  0  0  0
 42 66  1  0  0  0
 42119  1  0  0  0
 42120  1  0  0  0
 43 44  1  0  0  0
 44121  1  0  0  0
 45 46  2  0  0  0
 45122  1  0  0  0
 46123  1  0  0  0
 47124  1  0  0  0
 47125  1  0  0  0
 48 56  1  0  0  0
 48 65  1  0  0  0
 48126  1  0  0  0
 49 50  1  0  0  0
 49 53  1  0  0  0
 49 64  1  0  0  0
 49127  1  0  0  0
 50 51  1  0  0  0
 50128  1  0  0  0
 50129  1  0  0  0
 51 52  1  0  0  0
 51130  1  0  0  0
 51131  1  0  0  0
 52132  1  0  0  0
 52133  1  0  0  0
 53 54  1  0  0  0
 54 55  2  0  0  0
 54134  1  0  0  0
 55 57  1  0  0  0
 55135  1  0  0  0
 56 69  2  0  0  0
 57 58  2  0  0  0
 57136  1  0  0  0
 58137  1  0  0  0
 59 60  1  0  0  0
 59 61  1  0  0  0
 59 62  1  0  0  0
 60138  1  0  0  0
 60139  1  0  0  0
 60140  1  0  0  0
 61141  1  0  0  0
 61142  1  0  0  0
 61143  1  0  0  0
 62144  1  0  0  0
 62145  1  0  0  0
 62146  1  0  0  0
 63 65  1  0  0  0
 63147  1  0  0  0
 63148  1  0  0  0
 63149  1  0  0  0
 64150  1  0  0  0
 65151  1  0  0  0
 68 87  1  0  0  0
 71 73  2  0  0  0
 71 75  1  0  0  0
 71152  1  0  0  0
 72 75  2  0  0  0
 72 76  1  0  0  0
 72153  1  0  0  0
 73 74  1  0  0  0
 73 81  1  0  0  0
 74 76  2  0  0  0
 74 82  1  0  0  0
 75 88  1  0  0  0
 76 89  1  0  0  0
 77 78  2  0  0  0
 77 83  1  0  0  0
 77 87  1  0  0  0
 78 86  1  0  0  0
 78 88  1  0  0  0
 79 84  1  0  0  0
 79 85  1  0  0  0
 79 91  2  0  0  0
 80 81  2  0  0  0
 80154  1  0  0  0
 80155  1  0  0  0
 81156  1  0  0  0
 82 90  1  0  0  0
 82 92  2  0  0  0
 83 84  1  0  0  0
 83157  1  0  0  0
 83158  1  0  0  0
 84159  1  0  0  0
 84160  1  0  0  0
 85 88  1  0  0  0
 85161  1  0  0  0
 85162  1  0  0  0
 86163  1  0  0  0
 86164  1  0  0  0
 86165  1  0  0  0
 87166  1  0  0  0
 87167  1  0  0  0
 89168  1  0  0  0
 89169  1  0  0  0
 90170  1  0  0  0
M  ISO  4   1 100  68 101  87 101  90 100
M  END
> <chiral flag>
0

> <version>
0

> <s_m_source_file>
/data/baiqing/PycharmProjects/Reinvent-master-3.2/result/LINK_invent/BTK/process_docking_weight1_custom_product_contain_oxygen_bond_distance_aromatic_linkinvent_7_9_3/rearranged_h_0110.sdf

> <i_m_source_file_index>
71

> <r_mmod_Potential_Energy-OPLS-2005>
235.666213989258

> <r_mmod_Stretch_Energy-OPLS-2005>
53.784740447998

> <r_mmod_Bend_Energy-OPLS-2005>
128.851303100586

> <r_mmod_Torsional_Energy-OPLS-2005>
331.237365722656

> <r_mmod_Improper_Torsional_Energy-OPLS-2005>
8.57967185974121

> <r_mmod_Van_der_Waal_Energy-OPLS-2005>
197.626586914062

> <r_mmod_Electrostatic_Energy-OPLS-2005>
-268.499145507812

> <r_mmod_Solvation_Energy-OPLS-2005>
-238.795211791992

> <b_mmod_Minimization_Converged-OPLS-2005>
0

> <r_mmod_RMS_Derivative-OPLS-2005>
2.88125658035278

$$$$
72
                    3D
 Structure written by MMmdl.
159167  0  0  1  0            999 V2000
  -30.7004  -14.5882   20.5940 C   0  0  0  0  0  0
  -30.4300  -12.3844   19.4612 C   0  0  0  0  0  0
  -29.5078  -12.5271   18.2313 C   0  0  0  0  0  0
  -28.0303  -12.3633   18.6349 C   0  0  0  0  0  0
  -27.6602  -13.2187   19.8752 C   0  0  2  0  0  0
  -28.6981  -13.0413   21.0048 C   0  0  0  0  0  0
  -25.2570  -13.8185   20.5662 C   0  0  0  0  0  0
  -24.1833  -13.0441   20.9110 C   0  0  0  0  0  0
  -24.6403  -11.6907   20.8694 C   0  0  0  0  0  0
  -23.9071  -10.4287   21.0380 C   0  0  0  0  0  0
  -24.3618   -9.4208   21.9171 C   0  0  0  0  0  0
  -23.6289   -8.2245   22.0748 C   0  0  0  0  0  0
  -22.4270   -8.0278   21.3541 C   0  0  0  0  0  0
  -21.9906   -9.0249   20.4642 C   0  0  0  0  0  0
  -22.7234  -10.2126   20.3041 C   0  0  0  0  0  0
  -21.6860   -6.0732   22.5266 C   0  0  0  0  0  0
  -21.4027   -6.5633   23.8201 C   0  0  0  0  0  0
  -21.3660   -5.6784   24.9162 C   0  0  0  0  0  0
  -21.6035   -4.3045   24.7215 C   0  0  0  0  0  0
  -21.8823   -3.8141   23.4337 C   0  0  0  0  0  0
  -21.9196   -4.6960   22.3394 C   0  0  0  0  0  0
  -22.7854  -13.5222   21.1804 C   0  0  0  0  0  0
  -22.1666   -4.2142   21.0976 F   0  0  0  0  0  0
  -21.5612   -3.4530   25.7731 F   0  0  0  0  0  0
  -30.0265  -13.3914   20.4692 N   0  0  0  0  0  0
  -26.3035  -12.9378   20.3388 N   0  0  0  0  0  0
  -25.9344  -11.6519   20.5763 N   0  0  0  0  0  0
  -22.0531  -12.8213   22.0386 N   0  0  0  0  0  0
  -25.4233  -15.1918   20.4152 N   0  0  0  0  0  0
  -31.7641  -14.7847   19.9964 O   0  0  0  0  0  0
  -21.6639   -6.8872   21.4228 O   0  0  0  0  0  0
  -22.3515  -14.5525   20.6665 O   0  0  0  0  0  0
  -24.6259  -31.8625   23.2047 C   0  0  0  0  0  0
  -25.9113  -32.4791   23.8372 C   0  0  1  0  0  0
  -27.2195  -27.3269   20.1104 C   0  0  0  0  0  0
  -25.5948  -33.8588   24.2308 N   0  0  0  0  0  0
  -23.4188  -30.4864   21.5481 C   0  0  2  0  0  0
  -24.8634  -28.9453   20.1099 C   0  0  0  0  0  0
  -22.7475  -29.4638   22.4951 C   0  0  0  0  0  0
  -18.0278  -28.1404   22.8476 C   0  0  0  0  0  0
  -24.1483  -36.7305   23.2636 C   0  0  0  0  0  0
  -25.9601  -30.7910   21.3776 C   0  0  0  0  0  0
  -26.0314  -29.4190   20.7213 C   0  0  0  0  0  0
  -27.2135  -28.6212   20.7139 C   0  0  0  0  0  0
  -26.0358  -26.9188   19.4533 C   0  0  0  0  0  0
  -24.8687  -27.7019   19.4635 C   0  0  0  0  0  0
  -23.6318  -29.8261   20.1612 C   0  0  0  0  0  0
  -25.4112  -36.3091   24.0329 C   0  0  1  0  0  0
  -20.5880  -28.3687   23.1283 C   0  0  2  0  0  0
  -20.6779  -26.9416   22.5390 C   0  0  0  0  0  0
  -19.5735  -26.6388   21.5209 C   0  0  0  0  0  0
  -18.1916  -26.7942   22.1619 C   0  0  0  0  0  0
  -19.1534  -28.8859   23.2874 C   0  0  0  0  0  0
  -18.9472  -30.1461   23.8892 C   0  0  0  0  0  0
  -17.6477  -30.6600   24.0564 C   0  0  0  0  0  0
  -25.9057  -34.9457   23.5114 C   0  0  0  0  0  0
  -16.5362  -29.9110   23.6332 C   0  0  0  0  0  0
  -16.7267  -28.6535   23.0337 C   0  0  0  0  0  0
  -26.4493  -31.6589   25.0737 C   0  0  0  0  0  0
  -25.3732  -31.3721   26.1465 C   0  0  0  0  0  0
  -27.0332  -30.3011   24.6181 C   0  0  0  0  0  0
  -27.6060  -32.4321   25.7498 C   0  0  0  0  0  0
  -27.5579  -37.1810   24.8466 C   0  0  0  0  0  0
  -21.4188  -29.3063   22.3707 N   0  0  0  0  0  0
  -26.4288  -37.3787   23.9416 N   0  0  0  0  0  0
  -24.6871  -31.0639   22.1002 N   0  0  0  0  0  0
  -23.4204  -28.8176   23.3025 O   0  0  0  0  0  0
  -28.3309  -26.4730   20.1417 O   0  0  0  0  0  0
  -26.5616  -34.8915   22.4675 O   0  0  0  0  0  0
  -23.5426  -32.1422   23.7375 O   0  0  0  0  0  0
  -31.0211  -17.9168   20.5744 C   0  0  0  0  0  0
  -29.9482  -17.1407   21.0728 C   0  0  0  0  0  0
  -28.5637  -19.2531   20.9332 C   0  0  0  0  0  0
  -30.8918  -19.3043   20.2949 C   0  0  0  0  0  0
  -28.7076  -17.8446   21.2215 C   0  0  0  0  0  0
  -29.6859  -20.0324   20.4925 C   0  0  0  0  0  0
  -30.1585  -15.6913   21.5586 C   0  0  0  0  0  0
  -27.1900  -19.9049   21.0971 C   0  0  0  0  0  0
  -29.1776  -23.9506   20.1941 C   0  0  0  0  0  0
  -28.0694  -25.0501   20.4639 C   0  0  0  0  0  0
  -28.7743  -22.4483   20.5359 C   0  0  0  0  0  0
  -29.9298  -15.4131   22.7792 N   0  0  0  0  0  0
  -32.0052  -19.9976   19.8231 N   0  0  0  0  0  0
  -27.5896  -17.1410   21.6864 N   0  0  0  0  0  0
  -29.7656  -21.4240   20.2080 O   0  0  0  0  0  0
  -31.4730  -12.4904   19.1591 H   0  0  0  0  0  0
  -30.3526  -11.3805   19.8840 H   0  0  0  0  0  0
  -29.7744  -11.7879   17.4746 H   0  0  0  0  0  0
  -29.6585  -13.5059   17.7741 H   0  0  0  0  0  0
  -27.8602  -11.3073   18.8496 H   0  0  0  0  0  0
  -27.3790  -12.6107   17.7963 H   0  0  0  0  0  0
  -27.6900  -14.2621   19.5601 H   0  0  0  0  0  0
  -28.7058  -12.0092   21.3603 H   0  0  0  0  0  0
  -28.4019  -13.6346   21.8663 H   0  0  0  0  0  0
  -25.2764   -9.5681   22.4743 H   0  0  0  0  0  0
  -23.9985   -7.4640   22.7473 H   0  0  0  0  0  0
  -21.0835   -8.8768   19.8955 H   0  0  0  0  0  0
  -22.3688  -10.9656   19.6143 H   0  0  0  0  0  0
  -21.2035   -7.6145   23.9705 H   0  0  0  0  0  0
  -21.1481   -6.0517   25.9065 H   0  0  0  0  0  0
  -22.0610   -2.7602   23.2835 H   0  0  0  0  0  0
  -22.4167  -11.9877   22.4759 H   0  0  0  0  0  0
  -21.1156  -13.1224   22.2617 H   0  0  0  0  0  0
  -24.6637  -15.8396   20.5927 H   0  0  0  0  0  0
  -26.3207  -15.6636   20.3390 H   0  0  0  0  0  0
  -26.7194  -32.5450   23.1131 H   0  0  0  0  0  0
  -25.0096  -33.9739   25.0447 H   0  0  0  0  0  0
  -22.7128  -31.3067   21.4082 H   0  0  0  0  0  0
  -23.3735  -35.9647   23.3296 H   0  0  0  0  0  0
  -24.3560  -36.8924   22.2048 H   0  0  0  0  0  0
  -23.7235  -37.6512   23.6649 H   0  0  0  0  0  0
  -26.0908  -31.5513   20.6066 H   0  0  0  0  0  0
  -26.8427  -30.8412   22.0034 H   0  0  0  0  0  0
  -28.1080  -28.9784   21.2043 H   0  0  0  0  0  0
  -25.9897  -25.9877   18.9088 H   0  0  0  0  0  0
  -23.9834  -27.3442   18.9565 H   0  0  0  0  0  0
  -23.7546  -30.6060   19.4093 H   0  0  0  0  0  0
  -22.7488  -29.2606   19.8558 H   0  0  0  0  0  0
  -25.1275  -36.1953   25.0818 H   0  0  0  0  0  0
  -20.9926  -28.3265   24.1424 H   0  0  0  0  0  0
  -20.5711  -26.2276   23.3578 H   0  0  0  0  0  0
  -21.6636  -26.7456   22.1155 H   0  0  0  0  0  0
  -19.6874  -25.6293   21.1264 H   0  0  0  0  0  0
  -19.6663  -27.3176   20.6719 H   0  0  0  0  0  0
  -17.4202  -26.6688   21.4007 H   0  0  0  0  0  0
  -18.0296  -26.0065   22.8988 H   0  0  0  0  0  0
  -19.7944  -30.7280   24.2267 H   0  0  0  0  0  0
  -17.5037  -31.6274   24.5182 H   0  0  0  0  0  0
  -15.5367  -30.3023   23.7677 H   0  0  0  0  0  0
  -15.8654  -28.0868   22.7042 H   0  0  0  0  0  0
  -24.5915  -30.7060   25.7794 H   0  0  0  0  0  0
  -24.8907  -32.2878   26.4890 H   0  0  0  0  0  0
  -25.8053  -30.8902   27.0242 H   0  0  0  0  0  0
  -26.2903  -29.6773   24.1197 H   0  0  0  0  0  0
  -27.4025  -29.7247   25.4673 H   0  0  0  0  0  0
  -27.8768  -30.4293   23.9394 H   0  0  0  0  0  0
  -27.2687  -33.3625   26.2074 H   0  0  0  0  0  0
  -28.3860  -32.6891   25.0319 H   0  0  0  0  0  0
  -28.0749  -31.8459   26.5412 H   0  0  0  0  0  0
  -28.2602  -38.0105   24.7504 H   0  0  0  0  0  0
  -28.1071  -36.2634   24.6293 H   0  0  0  0  0  0
  -27.2294  -37.1453   25.8869 H   0  0  0  0  0  0
  -20.9355  -29.8800   21.6938 H   0  0  0  0  0  0
  -26.0169  -38.2861   24.1414 H   0  0  0  0  0  0
  -31.9817  -17.4414   20.4460 H   0  0  0  0  0  0
  -26.3770  -19.2149   21.3106 H   0  0  0  0  0  0
  -26.8917  -20.3932   20.1729 H   0  0  0  0  0  0
  -27.2009  -20.6264   21.9118 H   0  0  0  0  0  0
  -30.0821  -24.2125   20.7430 H   0  0  0  0  0  0
  -29.4426  -23.9965   19.1379 H   0  0  0  0  0  0
  -27.8121  -25.0128   21.5231 H   0  0  0  0  0  0
  -27.1849  -24.6827   19.9501 H   0  0  0  0  0  0
  -27.8650  -22.2464   19.9766 H   0  0  0  0  0  0
  -28.5376  -22.3860   21.5974 H   0  0  0  0  0  0
  -29.6209  -16.2339   23.2851 H   0  0  0  0  0  0
  -32.9266  -19.6456   20.0590 H   0  0  0  0  0  0
  -31.9407  -21.0094   19.8901 H   0  0  0  0  0  0
  -26.8235  -17.6902   22.0579 H   0  0  0  0  0  0
  -27.7450  -16.2982   22.2293 H   0  0  0  0  0  0
  1 25  1  0  0  0
  1 30  2  0  0  0
  1 77  1  0  0  0
  2  3  1  0  0  0
  2 25  1  0  0  0
  2 86  1  0  0  0
  2 87  1  0  0  0
  3  4  1  0  0  0
  3 88  1  0  0  0
  3 89  1  0  0  0
  4  5  1  0  0  0
  4 90  1  0  0  0
  4 91  1  0  0  0
  5  6  1  0  0  0
  5 26  1  0  0  0
  5 92  1  0  0  0
  6 25  1  0  0  0
  6 93  1  0  0  0
  6 94  1  0  0  0
  7  8  2  0  0  0
  7 26  1  0  0  0
  7 29  1  0  0  0
  8  9  1  0  0  0
  8 22  1  0  0  0
  9 10  1  0  0  0
  9 27  2  0  0  0
 10 11  2  0  0  0
 10 15  1  0  0  0
 11 12  1  0  0  0
 11 95  1  0  0  0
 12 13  2  0  0  0
 12 96  1  0  0  0
 13 14  1  0  0  0
 13 31  1  0  0  0
 14 15  2  0  0  0
 14 97  1  0  0  0
 15 98  1  0  0  0
 16 17  2  0  0  0
 16 21  1  0  0  0
 16 31  1  0  0  0
 17 18  1  0  0  0
 17 99  1  0  0  0
 18 19  2  0  0  0
 18100  1  0  0  0
 19 20  1  0  0  0
 19 24  1  0  0  0
 20 21  2  0  0  0
 20101  1  0  0  0
 21 23  1  0  0  0
 22 28  1  0  0  0
 22 32  2  0  0  0
 26 27  1  0  0  0
 28102  1  0  0  0
 28103  1  0  0  0
 29104  1  0  0  0
 29105  1  0  0  0
 33 34  1  0  0  0
 33 66  1  0  0  0
 33 70  2  0  0  0
 34 36  1  0  0  0
 34 59  1  0  0  0
 34106  1  0  0  0
 35 44  2  0  0  0
 35 45  1  0  0  0
 35 68  1  0  0  0
 36 56  1  0  0  0
 36107  1  0  0  0
 37 39  1  0  0  0
 37 47  1  0  0  0
 37 66  1  0  0  0
 37108  1  0  0  0
 38 43  2  0  0  0
 38 46  1  0  0  0
 38 47  1  0  0  0
 39 64  1  0  0  0
 39 67  2  0  0  0
 40 52  1  0  0  0
 40 53  2  0  0  0
 40 58  1  0  0  0
 41109  1  0  0  0
 41110  1  0  0  0
 41111  1  0  0  0
 41 48  1  0  0  0
 42 43  1  0  0  0
 42 66  1  0  0  0
 42112  1  0  0  0
 42113  1  0  0  0
 43 44  1  0  0  0
 44114  1  0  0  0
 45 46  2  0  0  0
 45115  1  0  0  0
 46116  1  0  0  0
 47117  1  0  0  0
 47118  1  0  0  0
 48 56  1  0  0  0
 48 65  1  0  0  0
 48119  1  0  0  0
 49 50  1  0  0  0
 49 53  1  0  0  0
 49 64  1  0  0  0
 49120  1  0  0  0
 50 51  1  0  0  0
 50121  1  0  0  0
 50122  1  0  0  0
 51 52  1  0  0  0
 51123  1  0  0  0
 51124  1  0  0  0
 52125  1  0  0  0
 52126  1  0  0  0
 53 54  1  0  0  0
 54 55  2  0  0  0
 54127  1  0  0  0
 55 57  1  0  0  0
 55128  1  0  0  0
 56 69  2  0  0  0
 57 58  2  0  0  0
 57129  1  0  0  0
 58130  1  0  0  0
 59 60  1  0  0  0
 59 61  1  0  0  0
 59 62  1  0  0  0
 60131  1  0  0  0
 60132  1  0  0  0
 60133  1  0  0  0
 61134  1  0  0  0
 61135  1  0  0  0
 61136  1  0  0  0
 62137  1  0  0  0
 62138  1  0  0  0
 62139  1  0  0  0
 63 65  1  0  0  0
 63140  1  0  0  0
 63141  1  0  0  0
 63142  1  0  0  0
 64143  1  0  0  0
 65144  1  0  0  0
 68 80  1  0  0  0
 71 72  2  0  0  0
 71 74  1  0  0  0
 71145  1  0  0  0
 72 75  1  0  0  0
 72 77  1  0  0  0
 73 75  2  0  0  0
 73 76  1  0  0  0
 73 78  1  0  0  0
 74 76  2  0  0  0
 74 83  1  0  0  0
 75 84  1  0  0  0
 76 85  1  0  0  0
 77 82  2  0  0  0
 78146  1  0  0  0
 78147  1  0  0  0
 78148  1  0  0  0
 79 80  1  0  0  0
 79 81  1  0  0  0
 79149  1  0  0  0
 79150  1  0  0  0
 80151  1  0  0  0
 80152  1  0  0  0
 81 85  1  0  0  0
 81153  1  0  0  0
 81154  1  0  0  0
 82155  1  0  0  0
 83156  1  0  0  0
 83157  1  0  0  0
 84158  1  0  0  0
 84159  1  0  0  0
M  ISO  4   1 100  68 101  77 100  80 101
M  END
> <chiral flag>
0

> <version>
0

> <s_m_source_file>
/data/baiqing/PycharmProjects/Reinvent-master-3.2/result/LINK_invent/BTK/process_docking_weight1_custom_product_contain_oxygen_bond_distance_aromatic_linkinvent_7_9_3/rearranged_h_0110.sdf

> <i_m_source_file_index>
72

> <r_mmod_Potential_Energy-OPLS-2005>
206.893890380859

> <r_mmod_Stretch_Energy-OPLS-2005>
90.0083618164062

> <r_mmod_Bend_Energy-OPLS-2005>
166.258575439453

> <r_mmod_Torsional_Energy-OPLS-2005>
233.252685546875

> <r_mmod_Improper_Torsional_Energy-OPLS-2005>
10.7293901443481

> <r_mmod_Van_der_Waal_Energy-OPLS-2005>
166.223770141602

> <r_mmod_Electrostatic_Energy-OPLS-2005>
-289.765563964844

> <r_mmod_Solvation_Energy-OPLS-2005>
-208.631942749023

> <b_mmod_Minimization_Converged-OPLS-2005>
0

> <r_mmod_RMS_Derivative-OPLS-2005>
2.02956914901733

$$$$
73
                    3D
 Structure written by MMmdl.
151159  0  0  1  0            999 V2000
  -30.5252  -15.0771   20.3994 C   0  0  0  0  0  0
  -30.4410  -12.6717   19.5279 C   0  0  0  0  0  0
  -29.5326  -12.5761   18.2791 C   0  0  0  0  0  0
  -28.0736  -12.3242   18.6911 C   0  0  0  0  0  0
  -27.6302  -13.2658   19.8405 C   0  0  2  0  0  0
  -28.6656  -13.3655   20.9853 C   0  0  0  0  0  0
  -25.2464  -13.8250   20.5643 C   0  0  0  0  0  0
  -24.1783  -13.0448   20.9197 C   0  0  0  0  0  0
  -24.6436  -11.6951   20.8751 C   0  0  0  0  0  0
  -23.9113  -10.4323   21.0414 C   0  0  0  0  0  0
  -24.3652   -9.4235   21.9198 C   0  0  0  0  0  0
  -23.6321   -8.2259   22.0746 C   0  0  0  0  0  0
  -22.4308   -8.0310   21.3525 C   0  0  0  0  0  0
  -21.9952   -9.0293   20.4627 C   0  0  0  0  0  0
  -22.7287  -10.2172   20.3048 C   0  0  0  0  0  0
  -21.6865   -6.0768   22.5296 C   0  0  0  0  0  0
  -21.4036   -6.5654   23.8232 C   0  0  0  0  0  0
  -21.3659   -5.6795   24.9176 C   0  0  0  0  0  0
  -21.6038   -4.3059   24.7219 C   0  0  0  0  0  0
  -21.8818   -3.8158   23.4333 C   0  0  0  0  0  0
  -21.9192   -4.6991   22.3395 C   0  0  0  0  0  0
  -22.7811  -13.5220   21.1873 C   0  0  0  0  0  0
  -22.1647   -4.2174   21.0974 F   0  0  0  0  0  0
  -21.5622   -3.4532   25.7720 F   0  0  0  0  0  0
  -29.9449  -13.7924   20.3944 N   0  0  0  0  0  0
  -26.2910  -12.9495   20.3237 N   0  0  0  0  0  0
  -25.9382  -11.6612   20.5749 N   0  0  0  0  0  0
  -22.0446  -12.8217   22.0421 N   0  0  0  0  0  0
  -25.4090  -15.1965   20.4027 N   0  0  0  0  0  0
  -31.7128  -15.1254   20.0556 O   0  0  0  0  0  0
  -21.6645   -6.8921   21.4257 O   0  0  0  0  0  0
  -22.3485  -14.5499   20.6705 O   0  0  0  0  0  0
  -24.6571  -31.8311   23.1754 C   0  0  0  0  0  0
  -25.9288  -32.4613   23.8177 C   0  0  1  0  0  0
  -27.2446  -27.0559   20.1709 C   0  0  0  0  0  0
  -25.6006  -33.8424   24.2092 N   0  0  0  0  0  0
  -23.4651  -30.4434   21.5265 C   0  0  2  0  0  0
  -24.9182  -28.8423   20.1239 C   0  0  0  0  0  0
  -22.7645  -29.4461   22.4866 C   0  0  0  0  0  0
  -18.0316  -28.1394   22.8499 C   0  0  0  0  0  0
  -24.1514  -36.7257   23.2633 C   0  0  0  0  0  0
  -26.0289  -30.6807   21.3818 C   0  0  0  0  0  0
  -26.1030  -29.2803   20.7314 C   0  0  0  0  0  0
  -27.2663  -28.4115   20.7218 C   0  0  0  0  0  0
  -26.0270  -26.7310   19.5296 C   0  0  0  0  0  0
  -24.8957  -27.5811   19.5090 C   0  0  0  0  0  0
  -23.7020  -29.7593   20.1542 C   0  0  0  0  0  0
  -25.4141  -36.2958   24.0294 C   0  0  1  0  0  0
  -20.5934  -28.3729   23.1261 C   0  0  2  0  0  0
  -20.6803  -26.9433   22.5436 C   0  0  0  0  0  0
  -19.5776  -26.6368   21.5246 C   0  0  0  0  0  0
  -18.1948  -26.7933   22.1644 C   0  0  0  0  0  0
  -19.1570  -28.8888   23.2857 C   0  0  0  0  0  0
  -18.9460  -30.1484   23.8873 C   0  0  0  0  0  0
  -17.6447  -30.6588   24.0553 C   0  0  0  0  0  0
  -25.9101  -34.9352   23.4993 C   0  0  0  0  0  0
  -16.5348  -29.9070   23.6340 C   0  0  0  0  0  0
  -16.7291  -28.6498   23.0355 C   0  0  0  0  0  0
  -26.4547  -31.6522   25.0670 C   0  0  0  0  0  0
  -25.3694  -31.3816   26.1358 C   0  0  0  0  0  0
  -27.0366  -30.2884   24.6303 C   0  0  0  0  0  0
  -27.6050  -32.4303   25.7491 C   0  0  0  0  0  0
  -27.5588  -37.1787   24.8450 C   0  0  0  0  0  0
  -21.4316  -29.3024   22.3619 N   0  0  0  0  0  0
  -26.4291  -37.3691   23.9389 N   0  0  0  0  0  0
  -24.7374  -31.0085   22.0818 N   0  0  0  0  0  0
  -23.4278  -28.8012   23.3023 O   0  0  0  0  0  0
  -28.3014  -26.0448   20.1795 O   0  0  0  0  0  0
  -26.5676  -34.8872   22.4562 O   0  0  0  0  0  0
  -23.5672  -32.1188   23.6954 O   0  0  0  0  0  0
  -29.1320  -19.0059   20.9290 C   0  0  0  0  0  0
  -30.5580  -18.4310   19.3577 C   0  0  0  0  0  0
  -29.8476  -17.8180   20.3607 C   0  0  0  0  0  0
  -29.4129  -20.2849   20.3296 C   0  0  0  0  0  0
  -28.8767  -21.7673   20.5789 C   0  0  0  0  0  0
  -28.8400  -23.1204   20.0695 C   0  0  0  0  0  0
  -30.9727  -20.6676   18.3167 C   0  0  0  0  0  0
  -31.4035  -20.0536   16.9840 C   0  0  0  0  0  0
  -28.0717  -24.5270   20.5999 C   0  0  0  0  0  0
  -30.3180  -19.8432   19.3201 N   0  0  0  0  0  0
  -29.7738  -16.2796   20.6853 N   0  0  0  0  0  0
  -31.1947  -21.8601   18.5507 O   0  0  0  0  0  0
  -31.4730  -12.8307   19.2157 H   0  0  0  0  0  0
  -30.4421  -11.7290   20.0770 H   0  0  0  0  0  0
  -29.8841  -11.7872   17.6144 H   0  0  0  0  0  0
  -29.5939  -13.5086   17.7146 H   0  0  0  0  0  0
  -28.0035  -11.2844   19.0105 H   0  0  0  0  0  0
  -27.4056  -12.4285   17.8338 H   0  0  0  0  0  0
  -27.5766  -14.2575   19.3915 H   0  0  0  0  0  0
  -28.7666  -12.4296   21.5339 H   0  0  0  0  0  0
  -28.3305  -14.1105   21.7075 H   0  0  0  0  0  0
  -25.2796   -9.5700   22.4767 H   0  0  0  0  0  0
  -24.0037   -7.4647   22.7463 H   0  0  0  0  0  0
  -21.0870   -8.8810   19.8935 H   0  0  0  0  0  0
  -22.3756  -10.9703   19.6128 H   0  0  0  0  0  0
  -21.2051   -7.6170   23.9737 H   0  0  0  0  0  0
  -21.1473   -6.0518   25.9079 H   0  0  0  0  0  0
  -22.0597   -2.7628   23.2806 H   0  0  0  0  0  0
  -22.4039  -11.9906   22.4857 H   0  0  0  0  0  0
  -21.1043  -13.1230   22.2573 H   0  0  0  0  0  0
  -24.6298  -15.8399   20.4837 H   0  0  0  0  0  0
  -26.2555  -15.6453   20.0698 H   0  0  0  0  0  0
  -26.7375  -32.5156   23.0923 H   0  0  0  0  0  0
  -25.0144  -33.9498   25.0237 H   0  0  0  0  0  0
  -22.7704  -31.2687   21.3567 H   0  0  0  0  0  0
  -23.3723  -35.9637   23.3244 H   0  0  0  0  0  0
  -24.3620  -36.8936   22.2054 H   0  0  0  0  0  0
  -23.7333  -37.6474   23.6702 H   0  0  0  0  0  0
  -26.1883  -31.4195   20.5954 H   0  0  0  0  0  0
  -26.8990  -30.7363   22.0245 H   0  0  0  0  0  0
  -28.1773  -28.7601   21.1875 H   0  0  0  0  0  0
  -25.9326  -25.7689   19.0469 H   0  0  0  0  0  0
  -23.9910  -27.2260   19.0356 H   0  0  0  0  0  0
  -23.8673  -30.5221   19.3935 H   0  0  0  0  0  0
  -22.8121  -29.2171   19.8325 H   0  0  0  0  0  0
  -25.1329  -36.1743   25.0787 H   0  0  0  0  0  0
  -21.0022  -28.3273   24.1380 H   0  0  0  0  0  0
  -20.5718  -26.2318   23.3636 H   0  0  0  0  0  0
  -21.6655  -26.7437   22.1195 H   0  0  0  0  0  0
  -19.6922  -25.6264   21.1293 H   0  0  0  0  0  0
  -19.6710  -27.3165   20.6760 H   0  0  0  0  0  0
  -17.4237  -26.6714   21.4010 H   0  0  0  0  0  0
  -18.0306  -26.0070   22.9027 H   0  0  0  0  0  0
  -19.7914  -30.7327   24.2242 H   0  0  0  0  0  0
  -17.4968  -31.6267   24.5148 H   0  0  0  0  0  0
  -15.5336  -30.2939   23.7676 H   0  0  0  0  0  0
  -15.8696  -28.0796   22.7080 H   0  0  0  0  0  0
  -24.5882  -30.7140   25.7718 H   0  0  0  0  0  0
  -24.8884  -32.3039   26.4636 H   0  0  0  0  0  0
  -25.7949  -30.9114   27.0233 H   0  0  0  0  0  0
  -26.2959  -29.6627   24.1317 H   0  0  0  0  0  0
  -27.3912  -29.7203   25.4908 H   0  0  0  0  0  0
  -27.8897  -30.4047   23.9622 H   0  0  0  0  0  0
  -27.2599  -33.3619   26.2009 H   0  0  0  0  0  0
  -28.3924  -32.6861   25.0376 H   0  0  0  0  0  0
  -28.0644  -31.8466   26.5487 H   0  0  0  0  0  0
  -28.2557  -38.0122   24.7467 H   0  0  0  0  0  0
  -28.1125  -36.2641   24.6272 H   0  0  0  0  0  0
  -27.2319  -37.1439   25.8859 H   0  0  0  0  0  0
  -20.9572  -29.8776   21.6796 H   0  0  0  0  0  0
  -26.0114  -38.2751   24.1349 H   0  0  0  0  0  0
  -28.4238  -18.9148   21.7413 H   0  0  0  0  0  0
  -31.2269  -17.9688   18.6447 H   0  0  0  0  0  0
  -28.3173  -21.7500   21.5056 H   0  0  0  0  0  0
  -29.3652  -23.2929   19.1453 H   0  0  0  0  0  0
  -31.2171  -20.7695   16.1818 H   0  0  0  0  0  0
  -30.8333  -19.1528   16.7560 H   0  0  0  0  0  0
  -32.4661  -19.8091   16.9995 H   0  0  0  0  0  0
  -28.2515  -24.5263   21.6733 H   0  0  0  0  0  0
  -27.0073  -24.3155   20.5179 H   0  0  0  0  0  0
  -28.9566  -16.0339   21.2255 H   0  0  0  0  0  0
  1 25  1  0  0  0
  1 30  2  0  0  0
  1 81  1  0  0  0
  2  3  1  0  0  0
  2 25  1  0  0  0
  2 83  1  0  0  0
  2 84  1  0  0  0
  3  4  1  0  0  0
  3 85  1  0  0  0
  3 86  1  0  0  0
  4  5  1  0  0  0
  4 87  1  0  0  0
  4 88  1  0  0  0
  5  6  1  0  0  0
  5 26  1  0  0  0
  5 89  1  0  0  0
  6 25  1  0  0  0
  6 90  1  0  0  0
  6 91  1  0  0  0
  7  8  2  0  0  0
  7 26  1  0  0  0
  7 29  1  0  0  0
  8  9  1  0  0  0
  8 22  1  0  0  0
  9 10  1  0  0  0
  9 27  2  0  0  0
 10 11  2  0  0  0
 10 15  1  0  0  0
 11 12  1  0  0  0
 11 92  1  0  0  0
 12 13  2  0  0  0
 12 93  1  0  0  0
 13 14  1  0  0  0
 13 31  1  0  0  0
 14 15  2  0  0  0
 14 94  1  0  0  0
 15 95  1  0  0  0
 16 17  2  0  0  0
 16 21  1  0  0  0
 16 31  1  0  0  0
 17 18  1  0  0  0
 17 96  1  0  0  0
 18 19  2  0  0  0
 18 97  1  0  0  0
 19 20  1  0  0  0
 19 24  1  0  0  0
 20 21  2  0  0  0
 20 98  1  0  0  0
 21 23  1  0  0  0
 22 28  1  0  0  0
 22 32  2  0  0  0
 26 27  1  0  0  0
 28 99  1  0  0  0
 28100  1  0  0  0
 29101  1  0  0  0
 29102  1  0  0  0
 33 34  1  0  0  0
 33 66  1  0  0  0
 33 70  2  0  0  0
 34 36  1  0  0  0
 34 59  1  0  0  0
 34103  1  0  0  0
 35 44  2  0  0  0
 35 45  1  0  0  0
 35 68  1  0  0  0
 36 56  1  0  0  0
 36104  1  0  0  0
 37 39  1  0  0  0
 37 47  1  0  0  0
 37 66  1  0  0  0
 37105  1  0  0  0
 38 43  2  0  0  0
 38 46  1  0  0  0
 38 47  1  0  0  0
 39 64  1  0  0  0
 39 67  2  0  0  0
 40 52  1  0  0  0
 40 53  2  0  0  0
 40 58  1  0  0  0
 41106  1  0  0  0
 41107  1  0  0  0
 41108  1  0  0  0
 41 48  1  0  0  0
 42 43  1  0  0  0
 42 66  1  0  0  0
 42109  1  0  0  0
 42110  1  0  0  0
 43 44  1  0  0  0
 44111  1  0  0  0
 45 46  2  0  0  0
 45112  1  0  0  0
 46113  1  0  0  0
 47114  1  0  0  0
 47115  1  0  0  0
 48 56  1  0  0  0
 48 65  1  0  0  0
 48116  1  0  0  0
 49 50  1  0  0  0
 49 53  1  0  0  0
 49 64  1  0  0  0
 49117  1  0  0  0
 50 51  1  0  0  0
 50118  1  0  0  0
 50119  1  0  0  0
 51 52  1  0  0  0
 51120  1  0  0  0
 51121  1  0  0  0
 52122  1  0  0  0
 52123  1  0  0  0
 53 54  1  0  0  0
 54 55  2  0  0  0
 54124  1  0  0  0
 55 57  1  0  0  0
 55125  1  0  0  0
 56 69  2  0  0  0
 57 58  2  0  0  0
 57126  1  0  0  0
 58127  1  0  0  0
 59 60  1  0  0  0
 59 61  1  0  0  0
 59 62  1  0  0  0
 60128  1  0  0  0
 60129  1  0  0  0
 60130  1  0  0  0
 61131  1  0  0  0
 61132  1  0  0  0
 61133  1  0  0  0
 62134  1  0  0  0
 62135  1  0  0  0
 62136  1  0  0  0
 63 65  1  0  0  0
 63137  1  0  0  0
 63138  1  0  0  0
 63139  1  0  0  0
 64140  1  0  0  0
 65141  1  0  0  0
 68 79  1  0  0  0
 71 73  1  0  0  0
 71 74  2  0  0  0
 71142  1  0  0  0
 72 73  2  0  0  0
 72 80  1  0  0  0
 72143  1  0  0  0
 73 81  1  0  0  0
 74 75  1  0  0  0
 74 80  1  0  0  0
 75 76  2  0  0  0
 75144  1  0  0  0
 76 79  1  0  0  0
 76145  1  0  0  0
 77 78  1  0  0  0
 77 80  1  0  0  0
 77 82  2  0  0  0
 78146  1  0  0  0
 78147  1  0  0  0
 78148  1  0  0  0
 79149  1  0  0  0
 79150  1  0  0  0
 81151  1  0  0  0
M  ISO  4   1 100  68 101  79 101  81 100
M  END
> <chiral flag>
0

> <version>
0

> <s_m_source_file>
/data/baiqing/PycharmProjects/Reinvent-master-3.2/result/LINK_invent/BTK/process_docking_weight1_custom_product_contain_oxygen_bond_distance_aromatic_linkinvent_7_9_3/rearranged_h_0110.sdf

> <i_m_source_file_index>
73

> <r_mmod_Potential_Energy-OPLS-2005>
730.994506835938

> <r_mmod_Stretch_Energy-OPLS-2005>
342.110321044922

> <r_mmod_Bend_Energy-OPLS-2005>
310.915893554688

> <r_mmod_Torsional_Energy-OPLS-2005>
251.647369384766

> <r_mmod_Improper_Torsional_Energy-OPLS-2005>
2.94154524803162

> <r_mmod_Van_der_Waal_Energy-OPLS-2005>
114.279418945312

> <r_mmod_Electrostatic_Energy-OPLS-2005>
-346.597808837891

> <r_mmod_Solvation_Energy-OPLS-2005>
-223.471725463867

> <b_mmod_Minimization_Converged-OPLS-2005>
0

> <r_mmod_RMS_Derivative-OPLS-2005>
5.63850784301758

$$$$
74
                    3D
 Structure written by MMmdl.
157166  0  0  1  0            999 V2000
  -30.5485  -15.0095   20.4100 C   0  0  0  0  0  0
  -30.4371  -12.6258   19.4975 C   0  0  0  0  0  0
  -29.5214  -12.5353   18.2551 C   0  0  0  0  0  0
  -28.0565  -12.3189   18.6784 C   0  0  0  0  0  0
  -27.6276  -13.2576   19.8368 C   0  0  2  0  0  0
  -28.6731  -13.3214   20.9684 C   0  0  0  0  0  0
  -25.2457  -13.8241   20.5746 C   0  0  0  0  0  0
  -24.1786  -13.0435   20.9261 C   0  0  0  0  0  0
  -24.6424  -11.6916   20.8751 C   0  0  0  0  0  0
  -23.9085  -10.4280   21.0388 C   0  0  0  0  0  0
  -24.3632   -9.4191   21.9166 C   0  0  0  0  0  0
  -23.6312   -8.2219   22.0725 C   0  0  0  0  0  0
  -22.4288   -8.0260   21.3527 C   0  0  0  0  0  0
  -21.9929   -9.0221   20.4610 C   0  0  0  0  0  0
  -22.7256  -10.2108   20.3027 C   0  0  0  0  0  0
  -21.6856   -6.0722   22.5273 C   0  0  0  0  0  0
  -21.4026   -6.5629   23.8208 C   0  0  0  0  0  0
  -21.3673   -5.6781   24.9166 C   0  0  0  0  0  0
  -21.6061   -4.3038   24.7216 C   0  0  0  0  0  0
  -21.8820   -3.8136   23.4330 C   0  0  0  0  0  0
  -21.9198   -4.6954   22.3394 C   0  0  0  0  0  0
  -22.7801  -13.5165   21.1908 C   0  0  0  0  0  0
  -22.1672   -4.2152   21.0966 F   0  0  0  0  0  0
  -21.5621   -3.4517   25.7717 F   0  0  0  0  0  0
  -29.9405  -13.7458   20.3557 N   0  0  0  0  0  0
  -26.2900  -12.9481   20.3289 N   0  0  0  0  0  0
  -25.9366  -11.6594   20.5772 N   0  0  0  0  0  0
  -22.0469  -12.8119   22.0456 N   0  0  0  0  0  0
  -25.4119  -15.1969   20.4188 N   0  0  0  0  0  0
  -31.7633  -15.0327   20.1798 O   0  0  0  0  0  0
  -21.6650   -6.8855   21.4226 O   0  0  0  0  0  0
  -22.3435  -14.5440   20.6696 O   0  0  0  0  0  0
  -24.6475  -31.8405   23.1823 C   0  0  0  0  0  0
  -25.9209  -32.4692   23.8258 C   0  0  1  0  0  0
  -27.2330  -27.0785   20.1579 C   0  0  0  0  0  0
  -25.5955  -33.8504   24.2165 N   0  0  0  0  0  0
  -23.4576  -30.4495   21.5316 C   0  0  2  0  0  0
  -24.9097  -28.8637   20.1105 C   0  0  0  0  0  0
  -22.7616  -29.4454   22.4867 C   0  0  0  0  0  0
  -18.0309  -28.1363   22.8477 C   0  0  0  0  0  0
  -24.1486  -36.7217   23.2645 C   0  0  0  0  0  0
  -26.0159  -30.6891   21.3954 C   0  0  0  0  0  0
  -26.0867  -29.2953   20.7357 C   0  0  0  0  0  0
  -27.2408  -28.4194   20.7402 C   0  0  0  0  0  0
  -26.0237  -26.7541   19.5032 C   0  0  0  0  0  0
  -24.8958  -27.6088   19.4806 C   0  0  0  0  0  0
  -23.6876  -29.7715   20.1531 C   0  0  0  0  0  0
  -25.4144  -36.3038   24.0294 C   0  0  1  0  0  0
  -20.5927  -28.3665   23.1252 C   0  0  2  0  0  0
  -20.6778  -26.9358   22.5418 C   0  0  0  0  0  0
  -19.5758  -26.6341   21.5220 C   0  0  0  0  0  0
  -18.1932  -26.7899   22.1610 C   0  0  0  0  0  0
  -19.1567  -28.8839   23.2848 C   0  0  0  0  0  0
  -18.9490  -30.1455   23.8848 C   0  0  0  0  0  0
  -17.6463  -30.6554   24.0552 C   0  0  0  0  0  0
  -25.9097  -34.9409   23.5044 C   0  0  0  0  0  0
  -16.5355  -29.9022   23.6351 C   0  0  0  0  0  0
  -16.7296  -28.6462   23.0349 C   0  0  0  0  0  0
  -26.4532  -31.6610   25.0743 C   0  0  0  0  0  0
  -25.3675  -31.3764   26.1398 C   0  0  0  0  0  0
  -27.0413  -30.3013   24.6373 C   0  0  0  0  0  0
  -27.6091  -32.4378   25.7496 C   0  0  0  0  0  0
  -27.5578  -37.1764   24.8470 C   0  0  0  0  0  0
  -21.4292  -29.2989   22.3636 N   0  0  0  0  0  0
  -26.4305  -37.3758   23.9396 N   0  0  0  0  0  0
  -24.7266  -31.0175   22.0910 N   0  0  0  0  0  0
  -23.4242  -28.8029   23.3047 O   0  0  0  0  0  0
  -28.3046  -26.0977   20.2680 O   0  0  0  0  0  0
  -26.5682  -34.8892   22.4625 O   0  0  0  0  0  0
  -23.5570  -32.1316   23.6980 O   0  0  0  0  0  0
  -30.8168  -20.6167   20.6065 C   0  0  0  0  0  0
  -31.4067  -18.1922   20.7201 C   0  0  0  0  0  0
  -29.4510  -20.3719   20.3457 C   0  0  0  0  0  0
  -31.7558  -19.5686   20.7882 C   0  0  0  0  0  0
  -30.0835  -17.7515   20.4865 C   0  0  0  0  0  0
  -29.1257  -18.8930   20.3169 C   0  0  0  0  0  0
  -27.2749  -21.3935   19.6955 C   0  0  0  0  0  0
  -26.2664  -22.2843   20.4033 C   0  0  0  0  0  0
  -27.1297  -23.0737   21.3914 C   0  0  0  0  0  0
  -28.4964  -23.1284   20.6927 C   0  0  2  0  0  0
  -28.3559  -24.5875   19.7852 C   0  0  0  0  0  0
  -28.5290  -21.6186   20.1191 N   0  0  0  0  0  0
  -33.0832  -19.9135   21.0432 N   0  0  0  0  0  0
  -29.7766  -16.2211   20.4843 N   0  0  0  0  0  0
  -26.9381  -20.6076   18.8058 O   0  0  0  0  0  0
  -27.8364  -18.5190   20.1639 F   0  0  0  0  0  0
  -31.4707  -12.7779   19.1830 H   0  0  0  0  0  0
  -30.4308  -11.6832   20.0465 H   0  0  0  0  0  0
  -29.8396  -11.7182   17.6069 H   0  0  0  0  0  0
  -29.6104  -13.4511   17.6676 H   0  0  0  0  0  0
  -27.9605  -11.2786   18.9910 H   0  0  0  0  0  0
  -27.3870  -12.4443   17.8268 H   0  0  0  0  0  0
  -27.5806  -14.2563   19.4015 H   0  0  0  0  0  0
  -28.7754  -12.3577   21.4682 H   0  0  0  0  0  0
  -28.3664  -14.0362   21.7346 H   0  0  0  0  0  0
  -25.2764   -9.5660   22.4750 H   0  0  0  0  0  0
  -24.0020   -7.4591   22.7423 H   0  0  0  0  0  0
  -21.0874   -8.8704   19.8911 H   0  0  0  0  0  0
  -22.3698  -10.9620   19.6123 H   0  0  0  0  0  0
  -21.2036   -7.6143   23.9716 H   0  0  0  0  0  0
  -21.1513   -6.0504   25.9074 H   0  0  0  0  0  0
  -22.0611   -2.7600   23.2819 H   0  0  0  0  0  0
  -22.4145  -11.9825   22.4882 H   0  0  0  0  0  0
  -21.1053  -13.1028   22.2630 H   0  0  0  0  0  0
  -24.6341  -15.8393   20.5060 H   0  0  0  0  0  0
  -26.2562  -15.6457   20.0850 H   0  0  0  0  0  0
  -26.7269  -32.5251   23.0975 H   0  0  0  0  0  0
  -25.0112  -33.9661   25.0317 H   0  0  0  0  0  0
  -22.7595  -31.2741   21.3722 H   0  0  0  0  0  0
  -23.3802  -35.9500   23.3326 H   0  0  0  0  0  0
  -24.3574  -36.8852   22.2065 H   0  0  0  0  0  0
  -23.7172  -37.6372   23.6692 H   0  0  0  0  0  0
  -26.1832  -31.4382   20.6213 H   0  0  0  0  0  0
  -26.8818  -30.7404   22.0451 H   0  0  0  0  0  0
  -28.1348  -28.7476   21.2508 H   0  0  0  0  0  0
  -25.9101  -25.7889   19.0358 H   0  0  0  0  0  0
  -23.9927  -27.2699   18.9906 H   0  0  0  0  0  0
  -23.8195  -30.5428   19.3941 H   0  0  0  0  0  0
  -22.8034  -29.2090   19.8466 H   0  0  0  0  0  0
  -25.1338  -36.1890   25.0786 H   0  0  0  0  0  0
  -21.0014  -28.3205   24.1380 H   0  0  0  0  0  0
  -20.5665  -26.2230   23.3618 H   0  0  0  0  0  0
  -21.6640  -26.7307   22.1226 H   0  0  0  0  0  0
  -19.6881  -25.6252   21.1243 H   0  0  0  0  0  0
  -19.6721  -27.3140   20.6759 H   0  0  0  0  0  0
  -17.4213  -26.6680   21.4007 H   0  0  0  0  0  0
  -18.0296  -26.0043   22.9016 H   0  0  0  0  0  0
  -19.7961  -30.7308   24.2164 H   0  0  0  0  0  0
  -17.5012  -31.6232   24.5148 H   0  0  0  0  0  0
  -15.5357  -30.2897   23.7726 H   0  0  0  0  0  0
  -15.8702  -28.0779   22.7064 H   0  0  0  0  0  0
  -24.5896  -30.7118   25.7628 H   0  0  0  0  0  0
  -24.8821  -32.2917   26.4781 H   0  0  0  0  0  0
  -25.7925  -30.8920   27.0195 H   0  0  0  0  0  0
  -26.3047  -29.6733   24.1363 H   0  0  0  0  0  0
  -27.3979  -29.7347   25.4979 H   0  0  0  0  0  0
  -27.8975  -30.4266   23.9750 H   0  0  0  0  0  0
  -27.2757  -33.3723   26.2005 H   0  0  0  0  0  0
  -28.3918  -32.6863   25.0319 H   0  0  0  0  0  0
  -28.0747  -31.8547   26.5444 H   0  0  0  0  0  0
  -28.2594  -38.0063   24.7557 H   0  0  0  0  0  0
  -28.1072  -36.2593   24.6289 H   0  0  0  0  0  0
  -27.2276  -37.1391   25.8865 H   0  0  0  0  0  0
  -20.9501  -29.8733   21.6846 H   0  0  0  0  0  0
  -26.0174  -38.2808   24.1472 H   0  0  0  0  0  0
  -31.1582  -21.6428   20.6470 H   0  0  0  0  0  0
  -32.1759  -17.4506   20.8756 H   0  0  0  0  0  0
  -25.5036  -21.6897   20.9088 H   0  0  0  0  0  0
  -25.7797  -22.9339   19.6756 H   0  0  0  0  0  0
  -27.2005  -22.5444   22.3437 H   0  0  0  0  0  0
  -26.7078  -24.0589   21.5994 H   0  0  0  0  0  0
  -29.2849  -23.2454   21.4382 H   0  0  0  0  0  0
  -27.5582  -24.4483   19.0611 H   0  0  0  0  0  0
  -29.2443  -24.5823   19.1549 H   0  0  0  0  0  0
  -33.3335  -20.8745   21.2614 H   0  0  0  0  0  0
  -33.7370  -19.2282   21.4127 H   0  0  0  0  0  0
  -28.7900  -16.0256   20.5313 H   0  0  0  0  0  0
  1 25  1  0  0  0
  1 30  2  0  0  0
  1 84  1  0  0  0
  2  3  1  0  0  0
  2 25  1  0  0  0
  2 87  1  0  0  0
  2 88  1  0  0  0
  3  4  1  0  0  0
  3 89  1  0  0  0
  3 90  1  0  0  0
  4  5  1  0  0  0
  4 91  1  0  0  0
  4 92  1  0  0  0
  5  6  1  0  0  0
  5 26  1  0  0  0
  5 93  1  0  0  0
  6 25  1  0  0  0
  6 94  1  0  0  0
  6 95  1  0  0  0
  7  8  2  0  0  0
  7 26  1  0  0  0
  7 29  1  0  0  0
  8  9  1  0  0  0
  8 22  1  0  0  0
  9 10  1  0  0  0
  9 27  2  0  0  0
 10 11  2  0  0  0
 10 15  1  0  0  0
 11 12  1  0  0  0
 11 96  1  0  0  0
 12 13  2  0  0  0
 12 97  1  0  0  0
 13 14  1  0  0  0
 13 31  1  0  0  0
 14 15  2  0  0  0
 14 98  1  0  0  0
 15 99  1  0  0  0
 16 17  2  0  0  0
 16 21  1  0  0  0
 16 31  1  0  0  0
 17 18  1  0  0  0
 17100  1  0  0  0
 18 19  2  0  0  0
 18101  1  0  0  0
 19 20  1  0  0  0
 19 24  1  0  0  0
 20 21  2  0  0  0
 20102  1  0  0  0
 21 23  1  0  0  0
 22 28  1  0  0  0
 22 32  2  0  0  0
 26 27  1  0  0  0
 28103  1  0  0  0
 28104  1  0  0  0
 29105  1  0  0  0
 29106  1  0  0  0
 33 34  1  0  0  0
 33 66  1  0  0  0
 33 70  2  0  0  0
 34 36  1  0  0  0
 34 59  1  0  0  0
 34107  1  0  0  0
 35 44  2  0  0  0
 35 45  1  0  0  0
 35 68  1  0  0  0
 36 56  1  0  0  0
 36108  1  0  0  0
 37 39  1  0  0  0
 37 47  1  0  0  0
 37 66  1  0  0  0
 37109  1  0  0  0
 38 43  2  0  0  0
 38 46  1  0  0  0
 38 47  1  0  0  0
 39 64  1  0  0  0
 39 67  2  0  0  0
 40 52  1  0  0  0
 40 53  2  0  0  0
 40 58  1  0  0  0
 41110  1  0  0  0
 41111  1  0  0  0
 41112  1  0  0  0
 41 48  1  0  0  0
 42 43  1  0  0  0
 42 66  1  0  0  0
 42113  1  0  0  0
 42114  1  0  0  0
 43 44  1  0  0  0
 44115  1  0  0  0
 45 46  2  0  0  0
 45116  1  0  0  0
 46117  1  0  0  0
 47118  1  0  0  0
 47119  1  0  0  0
 48 56  1  0  0  0
 48 65  1  0  0  0
 48120  1  0  0  0
 49 50  1  0  0  0
 49 53  1  0  0  0
 49 64  1  0  0  0
 49121  1  0  0  0
 50 51  1  0  0  0
 50122  1  0  0  0
 50123  1  0  0  0
 51 52  1  0  0  0
 51124  1  0  0  0
 51125  1  0  0  0
 52126  1  0  0  0
 52127  1  0  0  0
 53 54  1  0  0  0
 54 55  2  0  0  0
 54128  1  0  0  0
 55 57  1  0  0  0
 55129  1  0  0  0
 56 69  2  0  0  0
 57 58  2  0  0  0
 57130  1  0  0  0
 58131  1  0  0  0
 59 60  1  0  0  0
 59 61  1  0  0  0
 59 62  1  0  0  0
 60132  1  0  0  0
 60133  1  0  0  0
 60134  1  0  0  0
 61135  1  0  0  0
 61136  1  0  0  0
 61137  1  0  0  0
 62138  1  0  0  0
 62139  1  0  0  0
 62140  1  0  0  0
 63 65  1  0  0  0
 63141  1  0  0  0
 63142  1  0  0  0
 63143  1  0  0  0
 64144  1  0  0  0
 65145  1  0  0  0
 68 81  1  0  0  0
 71 73  2  0  0  0
 71 74  1  0  0  0
 71146  1  0  0  0
 72 74  2  0  0  0
 72 75  1  0  0  0
 72147  1  0  0  0
 73 76  1  0  0  0
 73 82  1  0  0  0
 74 83  1  0  0  0
 75 76  2  0  0  0
 75 84  1  0  0  0
 76 86  1  0  0  0
 77 78  1  0  0  0
 77 82  1  0  0  0
 77 85  2  0  0  0
 78 79  1  0  0  0
 78148  1  0  0  0
 78149  1  0  0  0
 79 80  1  0  0  0
 79150  1  0  0  0
 79151  1  0  0  0
 80 81  1  0  0  0
 80 82  1  0  0  0
 80152  1  0  0  0
 81153  1  0  0  0
 81154  1  0  0  0
 83155  1  0  0  0
 83156  1  0  0  0
 84157  1  0  0  0
M  ISO  4   1 100  68 101  81 101  84 100
M  END
> <chiral flag>
0

> <version>
0

> <s_m_source_file>
/data/baiqing/PycharmProjects/Reinvent-master-3.2/result/LINK_invent/BTK/process_docking_weight1_custom_product_contain_oxygen_bond_distance_aromatic_linkinvent_7_9_3/rearranged_h_0110.sdf

> <i_m_source_file_index>
74

> <r_mmod_Potential_Energy-OPLS-2005>
709.924743652344

> <r_mmod_Stretch_Energy-OPLS-2005>
344.104248046875

> <r_mmod_Bend_Energy-OPLS-2005>
345.750579833984

> <r_mmod_Torsional_Energy-OPLS-2005>
284.469696044922

> <r_mmod_Improper_Torsional_Energy-OPLS-2005>
7.87880802154541

> <r_mmod_Van_der_Waal_Energy-OPLS-2005>
125.989501953125

> <r_mmod_Electrostatic_Energy-OPLS-2005>
-406.012542724609

> <r_mmod_Solvation_Energy-OPLS-2005>
-229.619720458984

> <b_mmod_Minimization_Converged-OPLS-2005>
0

> <r_mmod_RMS_Derivative-OPLS-2005>
3.94200921058655

$$$$
75
                    3D
 Structure written by MMmdl.
155163  0  0  1  0            999 V2000
  -30.6169  -14.7722   20.3352 C   0  0  0  0  0  0
  -30.4511  -12.4278   19.4691 C   0  0  0  0  0  0
  -29.5178  -12.3129   18.2423 C   0  0  0  0  0  0
  -28.0264  -12.2656   18.6523 C   0  0  0  0  0  0
  -27.6321  -13.2087   19.8253 C   0  0  2  0  0  0
  -28.6964  -13.2219   20.9397 C   0  0  0  0  0  0
  -25.2484  -13.8068   20.5821 C   0  0  0  0  0  0
  -24.1751  -13.0341   20.9237 C   0  0  0  0  0  0
  -24.6349  -11.6837   20.8780 C   0  0  0  0  0  0
  -23.9035  -10.4237   21.0422 C   0  0  0  0  0  0
  -24.3594   -9.4161   21.9196 C   0  0  0  0  0  0
  -23.6268   -8.2204   22.0758 C   0  0  0  0  0  0
  -22.4251   -8.0253   21.3545 C   0  0  0  0  0  0
  -21.9884   -9.0225   20.4648 C   0  0  0  0  0  0
  -22.7215  -10.2099   20.3061 C   0  0  0  0  0  0
  -21.6838   -6.0717   22.5279 C   0  0  0  0  0  0
  -21.4005   -6.5626   23.8211 C   0  0  0  0  0  0
  -21.3659   -5.6783   24.9176 C   0  0  0  0  0  0
  -21.6045   -4.3047   24.7227 C   0  0  0  0  0  0
  -21.8821   -3.8134   23.4350 C   0  0  0  0  0  0
  -21.9190   -4.6948   22.3404 C   0  0  0  0  0  0
  -22.7783  -13.5165   21.1878 C   0  0  0  0  0  0
  -22.1660   -4.2137   21.0980 F   0  0  0  0  0  0
  -21.5631   -3.4533   25.7742 F   0  0  0  0  0  0
  -29.9770  -13.5494   20.3018 N   0  0  0  0  0  0
  -26.2912  -12.9276   20.3309 N   0  0  0  0  0  0
  -25.9280  -11.6447   20.5814 N   0  0  0  0  0  0
  -22.0412  -12.8184   22.0438 N   0  0  0  0  0  0
  -25.4074  -15.1789   20.4481 N   0  0  0  0  0  0
  -31.8495  -14.7970   20.3479 O   0  0  0  0  0  0
  -21.6615   -6.8856   21.4240 O   0  0  0  0  0  0
  -22.3493  -14.5480   20.6717 O   0  0  0  0  0  0
  -24.6270  -31.8589   23.2024 C   0  0  0  0  0  0
  -25.9114  -32.4773   23.8355 C   0  0  1  0  0  0
  -27.2324  -27.3083   20.1161 C   0  0  0  0  0  0
  -25.5924  -33.8574   24.2278 N   0  0  0  0  0  0
  -23.4216  -30.4823   21.5449 C   0  0  2  0  0  0
  -24.8694  -28.9367   20.1118 C   0  0  0  0  0  0
  -22.7480  -29.4616   22.4932 C   0  0  0  0  0  0
  -18.0286  -28.1384   22.8485 C   0  0  0  0  0  0
  -24.1488  -36.7296   23.2640 C   0  0  0  0  0  0
  -25.9640  -30.7857   21.3764 C   0  0  0  0  0  0
  -26.0380  -29.4123   20.7184 C   0  0  0  0  0  0
  -27.2178  -28.6087   20.7136 C   0  0  0  0  0  0
  -26.0327  -26.8866   19.4919 C   0  0  0  0  0  0
  -24.8690  -27.6790   19.4918 C   0  0  0  0  0  0
  -23.6379  -29.8183   20.1600 C   0  0  0  0  0  0
  -25.4111  -36.3080   24.0330 C   0  0  1  0  0  0
  -20.5886  -28.3688   23.1282 C   0  0  2  0  0  0
  -20.6774  -26.9410   22.5409 C   0  0  0  0  0  0
  -19.5750  -26.6381   21.5212 C   0  0  0  0  0  0
  -18.1929  -26.7927   22.1624 C   0  0  0  0  0  0
  -19.1538  -28.8852   23.2879 C   0  0  0  0  0  0
  -18.9462  -30.1455   23.8895 C   0  0  0  0  0  0
  -17.6461  -30.6586   24.0564 C   0  0  0  0  0  0
  -25.9050  -34.9449   23.5104 C   0  0  0  0  0  0
  -16.5352  -29.9085   23.6330 C   0  0  0  0  0  0
  -16.7272  -28.6504   23.0347 C   0  0  0  0  0  0
  -26.4493  -31.6589   25.0732 C   0  0  0  0  0  0
  -25.3728  -31.3728   26.1462 C   0  0  0  0  0  0
  -27.0340  -30.3010   24.6199 C   0  0  0  0  0  0
  -27.6050  -32.4327   25.7503 C   0  0  0  0  0  0
  -27.5576  -37.1804   24.8462 C   0  0  0  0  0  0
  -21.4191  -29.3042   22.3678 N   0  0  0  0  0  0
  -26.4288  -37.3775   23.9404 N   0  0  0  0  0  0
  -24.6897  -31.0590   22.0980 N   0  0  0  0  0  0
  -23.4200  -28.8155   23.3015 O   0  0  0  0  0  0
  -28.3667  -26.4733   20.1769 O   0  0  0  0  0  0
  -26.5623  -34.8918   22.4675 O   0  0  0  0  0  0
  -23.5431  -32.1395   23.7344 O   0  0  0  0  0  0
  -28.5382  -19.4467   20.0037 C   0  0  0  0  0  0
  -30.8120  -18.0378   20.8142 C   0  0  0  0  0  0
  -28.6213  -18.0361   19.8228 C   0  0  0  0  0  0
  -29.5890  -20.2160   20.5529 C   0  0  0  0  0  0
  -29.7891  -17.2683   20.1843 C   0  0  0  0  0  0
  -30.7143  -19.4602   20.9926 C   0  0  0  0  0  0
  -28.3059  -25.0940   19.8615 C   0  0  0  0  0  0
  -29.8976  -15.7543   18.3848 C   0  0  0  0  0  0
  -28.9520  -24.0547   20.4949 C   0  0  0  0  0  0
  -28.7923  -22.6316   20.0426 C   0  0  0  0  0  0
  -27.4066  -17.4196   19.1524 C   0  0  0  0  0  0
  -29.5331  -21.6818   20.7067 N   0  0  0  0  0  0
  -29.9616  -15.8541   19.7333 N   0  0  0  0  0  0
  -30.4864  -16.5034   17.5949 O   0  0  0  0  0  0
  -28.0463  -22.3166   19.1125 O   0  0  0  0  0  0
  -29.7428  -24.3167   21.5460 O   0  0  0  0  0  0
  -31.7482  -20.1180   21.5709 F   0  0  0  0  0  0
  -31.4841  -12.5660   19.1438 H   0  0  0  0  0  0
  -30.4383  -11.5037   20.0495 H   0  0  0  0  0  0
  -29.7575  -11.3904   17.7114 H   0  0  0  0  0  0
  -29.7167  -13.0832   17.5041 H   0  0  0  0  0  0
  -27.8311  -11.2344   18.9477 H   0  0  0  0  0  0
  -27.3883  -12.4477   17.7866 H   0  0  0  0  0  0
  -27.5886  -14.2036   19.3982 H   0  0  0  0  0  0
  -28.7477  -12.2581   21.4483 H   0  0  0  0  0  0
  -28.4461  -13.9666   21.6977 H   0  0  0  0  0  0
  -25.2740   -9.5634   22.4771 H   0  0  0  0  0  0
  -23.9974   -7.4589   22.7474 H   0  0  0  0  0  0
  -21.0816   -8.8745   19.8952 H   0  0  0  0  0  0
  -22.3681  -10.9644   19.6172 H   0  0  0  0  0  0
  -21.1993   -7.6134   23.9710 H   0  0  0  0  0  0
  -21.1481   -6.0514   25.9079 H   0  0  0  0  0  0
  -22.0603   -2.7597   23.2852 H   0  0  0  0  0  0
  -22.4006  -11.9844   22.4839 H   0  0  0  0  0  0
  -21.1038  -13.1238   22.2634 H   0  0  0  0  0  0
  -24.6412  -15.8234   20.6077 H   0  0  0  0  0  0
  -26.2862  -15.6422   20.2701 H   0  0  0  0  0  0
  -26.7182  -32.5435   23.1103 H   0  0  0  0  0  0
  -25.0055  -33.9720   25.0409 H   0  0  0  0  0  0
  -22.7162  -31.3034   21.4015 H   0  0  0  0  0  0
  -23.3744  -35.9635   23.3308 H   0  0  0  0  0  0
  -24.3578  -36.8910   22.2053 H   0  0  0  0  0  0
  -23.7252  -37.6504   23.6660 H   0  0  0  0  0  0
  -26.0983  -31.5495   20.6092 H   0  0  0  0  0  0
  -26.8434  -30.8334   22.0071 H   0  0  0  0  0  0
  -28.1136  -28.9701   21.1986 H   0  0  0  0  0  0
  -25.9462  -25.9257   19.0113 H   0  0  0  0  0  0
  -23.9716  -27.3056   19.0177 H   0  0  0  0  0  0
  -23.7608  -30.5959   19.4054 H   0  0  0  0  0  0
  -22.7572  -29.2504   19.8544 H   0  0  0  0  0  0
  -25.1291  -36.1933   25.0823 H   0  0  0  0  0  0
  -20.9976  -28.3262   24.1404 H   0  0  0  0  0  0
  -20.5668  -26.2297   23.3609 H   0  0  0  0  0  0
  -21.6644  -26.7438   22.1207 H   0  0  0  0  0  0
  -19.6911  -25.6291   21.1241 H   0  0  0  0  0  0
  -19.6683  -27.3191   20.6742 H   0  0  0  0  0  0
  -17.4196  -26.6667   21.4031 H   0  0  0  0  0  0
  -18.0333  -26.0070   22.9023 H   0  0  0  0  0  0
  -19.7939  -30.7272   24.2259 H   0  0  0  0  0  0
  -17.5016  -31.6265   24.5166 H   0  0  0  0  0  0
  -15.5352  -30.2986   23.7655 H   0  0  0  0  0  0
  -15.8672  -28.0825   22.7059 H   0  0  0  0  0  0
  -24.5895  -30.7084   25.7794 H   0  0  0  0  0  0
  -24.8929  -32.2894   26.4902 H   0  0  0  0  0  0
  -25.8054  -30.8895   27.0231 H   0  0  0  0  0  0
  -26.2923  -29.6758   24.1213 H   0  0  0  0  0  0
  -27.4020  -29.7269   25.4714 H   0  0  0  0  0  0
  -27.8800  -30.4293   23.9442 H   0  0  0  0  0  0
  -27.2655  -33.3622   26.2086 H   0  0  0  0  0  0
  -28.3857  -32.6895   25.0331 H   0  0  0  0  0  0
  -28.0724  -31.8451   26.5414 H   0  0  0  0  0  0
  -28.2597  -38.0097   24.7504 H   0  0  0  0  0  0
  -28.1069  -36.2630   24.6293 H   0  0  0  0  0  0
  -27.2296  -37.1464   25.8866 H   0  0  0  0  0  0
  -20.9367  -29.8774   21.6897 H   0  0  0  0  0  0
  -26.0170  -38.2851   24.1399 H   0  0  0  0  0  0
  -27.6343  -19.9450   19.6851 H   0  0  0  0  0  0
  -31.7293  -17.5529   21.1128 H   0  0  0  0  0  0
  -27.6911  -24.8975   18.9968 H   0  0  0  0  0  0
  -29.2157  -14.9584   18.0704 H   0  0  0  0  0  0
  -26.4852  -17.8293   19.5685 H   0  0  0  0  0  0
  -27.3727  -16.3466   19.2773 H   0  0  0  0  0  0
  -27.4157  -17.6344   18.0834 H   0  0  0  0  0  0
  -30.1813  -22.0742   21.3771 H   0  0  0  0  0  0
  -29.7144  -25.2557   21.6817 H   0  0  0  0  0  0
  1 25  1  0  0  0
  1 30  2  0  0  0
  1 83  1  0  0  0
  2  3  1  0  0  0
  2 25  1  0  0  0
  2 88  1  0  0  0
  2 89  1  0  0  0
  3  4  1  0  0  0
  3 90  1  0  0  0
  3 91  1  0  0  0
  4  5  1  0  0  0
  4 92  1  0  0  0
  4 93  1  0  0  0
  5  6  1  0  0  0
  5 26  1  0  0  0
  5 94  1  0  0  0
  6 25  1  0  0  0
  6 95  1  0  0  0
  6 96  1  0  0  0
  7  8  2  0  0  0
  7 26  1  0  0  0
  7 29  1  0  0  0
  8  9  1  0  0  0
  8 22  1  0  0  0
  9 10  1  0  0  0
  9 27  2  0  0  0
 10 11  2  0  0  0
 10 15  1  0  0  0
 11 12  1  0  0  0
 11 97  1  0  0  0
 12 13  2  0  0  0
 12 98  1  0  0  0
 13 14  1  0  0  0
 13 31  1  0  0  0
 14 15  2  0  0  0
 14 99  1  0  0  0
 15100  1  0  0  0
 16 17  2  0  0  0
 16 21  1  0  0  0
 16 31  1  0  0  0
 17 18  1  0  0  0
 17101  1  0  0  0
 18 19  2  0  0  0
 18102  1  0  0  0
 19 20  1  0  0  0
 19 24  1  0  0  0
 20 21  2  0  0  0
 20103  1  0  0  0
 21 23  1  0  0  0
 22 28  1  0  0  0
 22 32  2  0  0  0
 26 27  1  0  0  0
 28104  1  0  0  0
 28105  1  0  0  0
 29106  1  0  0  0
 29107  1  0  0  0
 33 34  1  0  0  0
 33 66  1  0  0  0
 33 70  2  0  0  0
 34 36  1  0  0  0
 34 59  1  0  0  0
 34108  1  0  0  0
 35 44  2  0  0  0
 35 45  1  0  0  0
 35 68  1  0  0  0
 36 56  1  0  0  0
 36109  1  0  0  0
 37 39  1  0  0  0
 37 47  1  0  0  0
 37 66  1  0  0  0
 37110  1  0  0  0
 38 43  2  0  0  0
 38 46  1  0  0  0
 38 47  1  0  0  0
 39 64  1  0  0  0
 39 67  2  0  0  0
 40 52  1  0  0  0
 40 53  2  0  0  0
 40 58  1  0  0  0
 41111  1  0  0  0
 41112  1  0  0  0
 41113  1  0  0  0
 41 48  1  0  0  0
 42 43  1  0  0  0
 42 66  1  0  0  0
 42114  1  0  0  0
 42115  1  0  0  0
 43 44  1  0  0  0
 44116  1  0  0  0
 45 46  2  0  0  0
 45117  1  0  0  0
 46118  1  0  0  0
 47119  1  0  0  0
 47120  1  0  0  0
 48 56  1  0  0  0
 48 65  1  0  0  0
 48121  1  0  0  0
 49 50  1  0  0  0
 49 53  1  0  0  0
 49 64  1  0  0  0
 49122  1  0  0  0
 50 51  1  0  0  0
 50123  1  0  0  0
 50124  1  0  0  0
 51 52  1  0  0  0
 51125  1  0  0  0
 51126  1  0  0  0
 52127  1  0  0  0
 52128  1  0  0  0
 53 54  1  0  0  0
 54 55  2  0  0  0
 54129  1  0  0  0
 55 57  1  0  0  0
 55130  1  0  0  0
 56 69  2  0  0  0
 57 58  2  0  0  0
 57131  1  0  0  0
 58132  1  0  0  0
 59 60  1  0  0  0
 59 61  1  0  0  0
 59 62  1  0  0  0
 60133  1  0  0  0
 60134  1  0  0  0
 60135  1  0  0  0
 61136  1  0  0  0
 61137  1  0  0  0
 61138  1  0  0  0
 62139  1  0  0  0
 62140  1  0  0  0
 62141  1  0  0  0
 63 65  1  0  0  0
 63142  1  0  0  0
 63143  1  0  0  0
 63144  1  0  0  0
 64145  1  0  0  0
 65146  1  0  0  0
 68 77  1  0  0  0
 71 73  2  0  0  0
 71 74  1  0  0  0
 71147  1  0  0  0
 72 75  2  0  0  0
 72 76  1  0  0  0
 72148  1  0  0  0
 73 75  1  0  0  0
 73 81  1  0  0  0
 74 76  2  0  0  0
 74 82  1  0  0  0
 75 83  1  0  0  0
 76 87  1  0  0  0
 77 79  2  0  0  0
 77149  1  0  0  0
 78 83  1  0  0  0
 78 84  2  0  0  0
 78150  1  0  0  0
 79 80  1  0  0  0
 79 86  1  0  0  0
 80 82  1  0  0  0
 80 85  2  0  0  0
 81151  1  0  0  0
 81152  1  0  0  0
 81153  1  0  0  0
 82154  1  0  0  0
 86155  1  0  0  0
M  ISO  4   1 100  68 101  77 101  83 100
M  END
> <chiral flag>
0

> <version>
0

> <s_m_source_file>
/data/baiqing/PycharmProjects/Reinvent-master-3.2/result/LINK_invent/BTK/process_docking_weight1_custom_product_contain_oxygen_bond_distance_aromatic_linkinvent_7_9_3/rearranged_h_0110.sdf

> <i_m_source_file_index>
75

> <r_mmod_Potential_Energy-OPLS-2005>
252.794555664062

> <r_mmod_Stretch_Energy-OPLS-2005>
99.0359649658203

> <r_mmod_Bend_Energy-OPLS-2005>
157.98127746582

> <r_mmod_Torsional_Energy-OPLS-2005>
336.292816162109

> <r_mmod_Improper_Torsional_Energy-OPLS-2005>
25.6296882629395

> <r_mmod_Van_der_Waal_Energy-OPLS-2005>
169.264236450195

> <r_mmod_Electrostatic_Energy-OPLS-2005>
-422.047637939453

> <r_mmod_Solvation_Energy-OPLS-2005>
-214.244201660156

> <b_mmod_Minimization_Converged-OPLS-2005>
0

> <r_mmod_RMS_Derivative-OPLS-2005>
0.480249643325806

$$$$
76
                    3D
 Structure written by MMmdl.
159167  0  0  1  0            999 V2000
  -30.6549  -14.4535   20.6286 C   0  0  0  0  0  0
  -30.4381  -12.3095   19.4105 C   0  0  0  0  0  0
  -29.4949  -12.4954   18.2022 C   0  0  0  0  0  0
  -28.0160  -12.3506   18.6166 C   0  0  0  0  0  0
  -27.6637  -13.1848   19.8758 C   0  0  2  0  0  0
  -28.6968  -12.9120   20.9887 C   0  0  0  0  0  0
  -25.2631  -13.8118   20.5658 C   0  0  0  0  0  0
  -24.1849  -13.0441   20.9174 C   0  0  0  0  0  0
  -24.6357  -11.6896   20.8733 C   0  0  0  0  0  0
  -23.9020  -10.4299   21.0407 C   0  0  0  0  0  0
  -24.3595   -9.4217   21.9188 C   0  0  0  0  0  0
  -23.6290   -8.2244   22.0752 C   0  0  0  0  0  0
  -22.4271   -8.0278   21.3543 C   0  0  0  0  0  0
  -21.9898   -9.0243   20.4649 C   0  0  0  0  0  0
  -22.7206  -10.2133   20.3058 C   0  0  0  0  0  0
  -21.6851   -6.0747   22.5279 C   0  0  0  0  0  0
  -21.4001   -6.5651   23.8206 C   0  0  0  0  0  0
  -21.3655   -5.6799   24.9176 C   0  0  0  0  0  0
  -21.6046   -4.3072   24.7228 C   0  0  0  0  0  0
  -21.8818   -3.8158   23.4342 C   0  0  0  0  0  0
  -21.9199   -4.6969   22.3405 C   0  0  0  0  0  0
  -22.7884  -13.5262   21.1867 C   0  0  0  0  0  0
  -22.1669   -4.2170   21.0976 F   0  0  0  0  0  0
  -21.5636   -3.4541   25.7733 F   0  0  0  0  0  0
  -30.0311  -13.2554   20.4611 N   0  0  0  0  0  0
  -26.3016  -12.9223   20.3334 N   0  0  0  0  0  0
  -25.9261  -11.6415   20.5737 N   0  0  0  0  0  0
  -22.0516  -12.8245   22.0406 N   0  0  0  0  0  0
  -25.4464  -15.1821   20.4063 N   0  0  0  0  0  0
  -31.7545  -14.7102   20.1267 O   0  0  0  0  0  0
  -21.6630   -6.8880   21.4237 O   0  0  0  0  0  0
  -22.3584  -14.5587   20.6749 O   0  0  0  0  0  0
  -24.6164  -31.8651   23.2038 C   0  0  0  0  0  0
  -25.9035  -32.4797   23.8362 C   0  0  1  0  0  0
  -27.2298  -27.4134   20.1136 C   0  0  0  0  0  0
  -25.5864  -33.8589   24.2296 N   0  0  0  0  0  0
  -23.4084  -30.4898   21.5422 C   0  0  2  0  0  0
  -24.8545  -28.9448   20.1180 C   0  0  0  0  0  0
  -22.7439  -29.4672   22.4928 C   0  0  0  0  0  0
  -18.0319  -28.1432   22.8503 C   0  0  0  0  0  0
  -24.1484  -36.7289   23.2639 C   0  0  0  0  0  0
  -25.9382  -30.8272   21.3581 C   0  0  0  0  0  0
  -26.0156  -29.4578   20.7129 C   0  0  0  0  0  0
  -27.2102  -28.7002   20.6995 C   0  0  0  0  0  0
  -26.0507  -26.9090   19.5263 C   0  0  0  0  0  0
  -24.8653  -27.6705   19.5255 C   0  0  0  0  0  0
  -23.6216  -29.8188   20.1582 C   0  0  0  0  0  0
  -25.4088  -36.3084   24.0352 C   0  0  1  0  0  0
  -20.5897  -28.3703   23.1307 C   0  0  2  0  0  0
  -20.6798  -26.9427   22.5413 C   0  0  0  0  0  0
  -19.5760  -26.6420   21.5220 C   0  0  0  0  0  0
  -18.1944  -26.7992   22.1621 C   0  0  0  0  0  0
  -19.1560  -28.8882   23.2919 C   0  0  0  0  0  0
  -18.9488  -30.1481   23.8920 C   0  0  0  0  0  0
  -17.6477  -30.6618   24.0592 C   0  0  0  0  0  0
  -25.8997  -34.9447   23.5121 C   0  0  0  0  0  0
  -16.5373  -29.9140   23.6326 C   0  0  0  0  0  0
  -16.7292  -28.6567   23.0316 C   0  0  0  0  0  0
  -26.4462  -31.6591   25.0696 C   0  0  0  0  0  0
  -25.3741  -31.3731   26.1462 C   0  0  0  0  0  0
  -27.0266  -30.3039   24.6052 C   0  0  0  0  0  0
  -27.6036  -32.4317   25.7470 C   0  0  0  0  0  0
  -27.5590  -37.1776   24.8465 C   0  0  0  0  0  0
  -21.4157  -29.3073   22.3695 N   0  0  0  0  0  0
  -26.4276  -37.3769   23.9439 N   0  0  0  0  0  0
  -24.6721  -31.0760   22.0934 N   0  0  0  0  0  0
  -23.4215  -28.8190   23.2937 O   0  0  0  0  0  0
  -28.3884  -26.6697   20.0874 O   0  0  0  0  0  0
  -26.5570  -34.8928   22.4689 O   0  0  0  0  0  0
  -23.5346  -32.1404   23.7417 O   0  0  0  0  0  0
  -29.0868  -17.4044   22.3195 C   0  0  0  0  0  0
  -30.7220  -17.5823   20.5247 C   0  0  0  0  0  0
  -28.9801  -18.8184   22.3958 C   0  0  0  0  0  0
  -29.9451  -16.7718   21.3869 C   0  0  0  0  0  0
  -30.6191  -18.9901   20.5823 C   0  0  0  0  0  0
  -29.7354  -19.6123   21.4948 C   0  0  0  0  0  0
  -27.2266  -18.9006   24.2303 C   0  0  0  0  0  0
  -28.1014  -19.4809   23.3869 C   0  0  0  0  0  0
  -28.5488  -24.1892   19.9226 C   0  0  0  0  0  0
  -29.5043  -23.0849   20.4194 C   0  0  0  0  0  0
  -28.3582  -25.4298   20.8249 C   0  0  0  0  0  0
  -28.8874  -21.6787   20.6150 C   0  0  0  0  0  0
  -31.4117  -19.7853   19.7531 N   0  0  0  0  0  0
  -29.9356  -15.3399   21.3522 N   0  0  0  0  0  0
  -27.9587  -24.0778   18.8419 O   0  0  0  0  0  0
  -29.7031  -20.9900   21.5704 O   0  0  0  0  0  0
  -31.4748  -12.4541   19.1029 H   0  0  0  0  0  0
  -30.3851  -11.2866   19.7870 H   0  0  0  0  0  0
  -29.7364  -11.7641   17.4278 H   0  0  0  0  0  0
  -29.6556  -13.4785   17.7579 H   0  0  0  0  0  0
  -27.8329  -11.2932   18.8130 H   0  0  0  0  0  0
  -27.3622  -12.6200   17.7859 H   0  0  0  0  0  0
  -27.7280  -14.2376   19.5985 H   0  0  0  0  0  0
  -28.6741  -11.8561   21.2660 H   0  0  0  0  0  0
  -28.4348  -13.4422   21.9051 H   0  0  0  0  0  0
  -25.2734   -9.5708   22.4770 H   0  0  0  0  0  0
  -24.0027   -7.4616   22.7443 H   0  0  0  0  0  0
  -21.0857   -8.8743   19.8925 H   0  0  0  0  0  0
  -22.3664  -10.9678   19.6177 H   0  0  0  0  0  0
  -21.1962   -7.6156   23.9728 H   0  0  0  0  0  0
  -21.1486   -6.0527   25.9090 H   0  0  0  0  0  0
  -22.0600   -2.7621   23.2828 H   0  0  0  0  0  0
  -22.4123  -11.9885   22.4761 H   0  0  0  0  0  0
  -21.1130  -13.1264   22.2607 H   0  0  0  0  0  0
  -24.6956  -15.8538   20.5225 H   0  0  0  0  0  0
  -26.3118  -15.6065   20.0942 H   0  0  0  0  0  0
  -26.7088  -32.5503   23.1107 H   0  0  0  0  0  0
  -25.0046  -33.9768   25.0468 H   0  0  0  0  0  0
  -22.6990  -31.3071   21.3929 H   0  0  0  0  0  0
  -23.3752  -35.9609   23.3253 H   0  0  0  0  0  0
  -24.3604  -36.8938   22.2065 H   0  0  0  0  0  0
  -23.7248  -37.6487   23.6669 H   0  0  0  0  0  0
  -26.0447  -31.5871   20.5819 H   0  0  0  0  0  0
  -26.8291  -30.8875   21.9709 H   0  0  0  0  0  0
  -28.1138  -29.0934   21.1430 H   0  0  0  0  0  0
  -26.0485  -25.9308   19.0672 H   0  0  0  0  0  0
  -23.9680  -27.2643   19.0759 H   0  0  0  0  0  0
  -23.7487  -30.5923   19.3996 H   0  0  0  0  0  0
  -22.7467  -29.2468   19.8481 H   0  0  0  0  0  0
  -25.1270  -36.1901   25.0843 H   0  0  0  0  0  0
  -20.9996  -28.3259   24.1426 H   0  0  0  0  0  0
  -20.5715  -26.2292   23.3601 H   0  0  0  0  0  0
  -21.6663  -26.7502   22.1153 H   0  0  0  0  0  0
  -19.6906  -25.6331   21.1248 H   0  0  0  0  0  0
  -19.6706  -27.3254   20.6764 H   0  0  0  0  0  0
  -17.4210  -26.6752   21.4039 H   0  0  0  0  0  0
  -18.0320  -26.0189   22.9052 H   0  0  0  0  0  0
  -19.7958  -30.7321   24.2280 H   0  0  0  0  0  0
  -17.5040  -31.6302   24.5201 H   0  0  0  0  0  0
  -15.5353  -30.3041   23.7683 H   0  0  0  0  0  0
  -15.8701  -28.0922   22.6954 H   0  0  0  0  0  0
  -24.5891  -30.7086   25.7830 H   0  0  0  0  0  0
  -24.8961  -32.2910   26.4900 H   0  0  0  0  0  0
  -25.8113  -30.8930   27.0228 H   0  0  0  0  0  0
  -26.2802  -29.6827   24.1095 H   0  0  0  0  0  0
  -27.4061  -29.7229   25.4465 H   0  0  0  0  0  0
  -27.8617  -30.4365   23.9166 H   0  0  0  0  0  0
  -27.2628  -33.3610   26.2056 H   0  0  0  0  0  0
  -28.3846  -32.6894   25.0290 H   0  0  0  0  0  0
  -28.0692  -31.8436   26.5394 H   0  0  0  0  0  0
  -28.2520  -38.0148   24.7552 H   0  0  0  0  0  0
  -28.1165  -36.2683   24.6191 H   0  0  0  0  0  0
  -27.2333  -37.1294   25.8871 H   0  0  0  0  0  0
  -20.9291  -29.8804   21.6951 H   0  0  0  0  0  0
  -26.0145  -38.2821   24.1507 H   0  0  0  0  0  0
  -28.5059  -16.7906   22.9921 H   0  0  0  0  0  0
  -31.3933  -17.1367   19.8050 H   0  0  0  0  0  0
  -26.6459  -19.5136   24.9070 H   0  0  0  0  0  0
  -27.0528  -17.8345   24.2775 H   0  0  0  0  0  0
  -28.1807  -20.5574   23.4454 H   0  0  0  0  0  0
  -29.9197  -23.4129   21.3712 H   0  0  0  0  0  0
  -30.3460  -23.0171   19.7298 H   0  0  0  0  0  0
  -29.1610  -25.4540   21.5613 H   0  0  0  0  0  0
  -27.4304  -25.3174   21.3876 H   0  0  0  0  0  0
  -28.8342  -21.1493   19.6610 H   0  0  0  0  0  0
  -27.8704  -21.7407   21.0053 H   0  0  0  0  0  0
  -32.3247  -19.4260   19.4964 H   0  0  0  0  0  0
  -31.4545  -20.7633   20.0176 H   0  0  0  0  0  0
  -29.1355  -14.9153   21.7951 H   0  0  0  0  0  0
  1 25  1  0  0  0
  1 30  2  0  0  0
  1 84  1  0  0  0
  2  3  1  0  0  0
  2 25  1  0  0  0
  2 87  1  0  0  0
  2 88  1  0  0  0
  3  4  1  0  0  0
  3 89  1  0  0  0
  3 90  1  0  0  0
  4  5  1  0  0  0
  4 91  1  0  0  0
  4 92  1  0  0  0
  5  6  1  0  0  0
  5 26  1  0  0  0
  5 93  1  0  0  0
  6 25  1  0  0  0
  6 94  1  0  0  0
  6 95  1  0  0  0
  7  8  2  0  0  0
  7 26  1  0  0  0
  7 29  1  0  0  0
  8  9  1  0  0  0
  8 22  1  0  0  0
  9 10  1  0  0  0
  9 27  2  0  0  0
 10 11  2  0  0  0
 10 15  1  0  0  0
 11 12  1  0  0  0
 11 96  1  0  0  0
 12 13  2  0  0  0
 12 97  1  0  0  0
 13 14  1  0  0  0
 13 31  1  0  0  0
 14 15  2  0  0  0
 14 98  1  0  0  0
 15 99  1  0  0  0
 16 17  2  0  0  0
 16 21  1  0  0  0
 16 31  1  0  0  0
 17 18  1  0  0  0
 17100  1  0  0  0
 18 19  2  0  0  0
 18101  1  0  0  0
 19 20  1  0  0  0
 19 24  1  0  0  0
 20 21  2  0  0  0
 20102  1  0  0  0
 21 23  1  0  0  0
 22 28  1  0  0  0
 22 32  2  0  0  0
 26 27  1  0  0  0
 28103  1  0  0  0
 28104  1  0  0  0
 29105  1  0  0  0
 29106  1  0  0  0
 33 34  1  0  0  0
 33 66  1  0  0  0
 33 70  2  0  0  0
 34 36  1  0  0  0
 34 59  1  0  0  0
 34107  1  0  0  0
 35 44  2  0  0  0
 35 45  1  0  0  0
 35 68  1  0  0  0
 36 56  1  0  0  0
 36108  1  0  0  0
 37 39  1  0  0  0
 37 47  1  0  0  0
 37 66  1  0  0  0
 37109  1  0  0  0
 38 43  2  0  0  0
 38 46  1  0  0  0
 38 47  1  0  0  0
 39 64  1  0  0  0
 39 67  2  0  0  0
 40 52  1  0  0  0
 40 53  2  0  0  0
 40 58  1  0  0  0
 41110  1  0  0  0
 41111  1  0  0  0
 41112  1  0  0  0
 41 48  1  0  0  0
 42 43  1  0  0  0
 42 66  1  0  0  0
 42113  1  0  0  0
 42114  1  0  0  0
 43 44  1  0  0  0
 44115  1  0  0  0
 45 46  2  0  0  0
 45116  1  0  0  0
 46117  1  0  0  0
 47118  1  0  0  0
 47119  1  0  0  0
 48 56  1  0  0  0
 48 65  1  0  0  0
 48120  1  0  0  0
 49 50  1  0  0  0
 49 53  1  0  0  0
 49 64  1  0  0  0
 49121  1  0  0  0
 50 51  1  0  0  0
 50122  1  0  0  0
 50123  1  0  0  0
 51 52  1  0  0  0
 51124  1  0  0  0
 51125  1  0  0  0
 52126  1  0  0  0
 52127  1  0  0  0
 53 54  1  0  0  0
 54 55  2  0  0  0
 54128  1  0  0  0
 55 57  1  0  0  0
 55129  1  0  0  0
 56 69  2  0  0  0
 57 58  2  0  0  0
 57130  1  0  0  0
 58131  1  0  0  0
 59 60  1  0  0  0
 59 61  1  0  0  0
 59 62  1  0  0  0
 60132  1  0  0  0
 60133  1  0  0  0
 60134  1  0  0  0
 61135  1  0  0  0
 61136  1  0  0  0
 61137  1  0  0  0
 62138  1  0  0  0
 62139  1  0  0  0
 62140  1  0  0  0
 63 65  1  0  0  0
 63141  1  0  0  0
 63142  1  0  0  0
 63143  1  0  0  0
 64144  1  0  0  0
 65145  1  0  0  0
 68 81  1  0  0  0
 71 73  2  0  0  0
 71 74  1  0  0  0
 71146  1  0  0  0
 72 74  2  0  0  0
 72 75  1  0  0  0
 72147  1  0  0  0
 73 76  1  0  0  0
 73 78  1  0  0  0
 74 84  1  0  0  0
 75 76  2  0  0  0
 75 83  1  0  0  0
 76 86  1  0  0  0
 77 78  2  0  0  0
 77148  1  0  0  0
 77149  1  0  0  0
 78150  1  0  0  0
 79 80  1  0  0  0
 79 81  1  0  0  0
 79 85  2  0  0  0
 80 82  1  0  0  0
 80151  1  0  0  0
 80152  1  0  0  0
 81153  1  0  0  0
 81154  1  0  0  0
 82 86  1  0  0  0
 82155  1  0  0  0
 82156  1  0  0  0
 83157  1  0  0  0
 83158  1  0  0  0
 84159  1  0  0  0
M  ISO  4   1 100  68 101  81 101  84 100
M  END
> <chiral flag>
0

> <version>
0

> <s_m_source_file>
/data/baiqing/PycharmProjects/Reinvent-master-3.2/result/LINK_invent/BTK/process_docking_weight1_custom_product_contain_oxygen_bond_distance_aromatic_linkinvent_7_9_3/rearranged_h_0110.sdf

> <i_m_source_file_index>
76

> <r_mmod_Potential_Energy-OPLS-2005>
-2.63382363319397

> <r_mmod_Stretch_Energy-OPLS-2005>
39.8408164978027

> <r_mmod_Bend_Energy-OPLS-2005>
106.347045898438

> <r_mmod_Torsional_Energy-OPLS-2005>
279.102020263672

> <r_mmod_Improper_Torsional_Energy-OPLS-2005>
7.30520439147949

> <r_mmod_Van_der_Waal_Energy-OPLS-2005>
149.843826293945

> <r_mmod_Electrostatic_Energy-OPLS-2005>
-368.685089111328

> <r_mmod_Solvation_Energy-OPLS-2005>
-230.217224121094

> <b_mmod_Minimization_Converged-OPLS-2005>
0

> <r_mmod_RMS_Derivative-OPLS-2005>
4.15932559967041

$$$$
77
                    3D
 Structure written by MMmdl.
158166  0  0  1  0            999 V2000
  -30.6076  -14.7804   20.5567 C   0  0  0  0  0  0
  -30.4388  -12.5026   19.4760 C   0  0  0  0  0  0
  -29.5106  -12.5409   18.2398 C   0  0  0  0  0  0
  -28.0393  -12.3412   18.6489 C   0  0  0  0  0  0
  -27.6429  -13.2304   19.8535 C   0  0  2  0  0  0
  -28.6795  -13.1319   20.9880 C   0  0  0  0  0  0
  -25.2531  -13.8195   20.5687 C   0  0  0  0  0  0
  -24.1813  -13.0436   20.9182 C   0  0  0  0  0  0
  -24.6409  -11.6909   20.8720 C   0  0  0  0  0  0
  -23.9085  -10.4291   21.0395 C   0  0  0  0  0  0
  -24.3631   -9.4202   21.9173 C   0  0  0  0  0  0
  -23.6304   -8.2235   22.0746 C   0  0  0  0  0  0
  -22.4284   -8.0277   21.3535 C   0  0  0  0  0  0
  -21.9920   -9.0251   20.4629 C   0  0  0  0  0  0
  -22.7256  -10.2131   20.3040 C   0  0  0  0  0  0
  -21.6855   -6.0733   22.5284 C   0  0  0  0  0  0
  -21.4007   -6.5638   23.8214 C   0  0  0  0  0  0
  -21.3655   -5.6796   24.9178 C   0  0  0  0  0  0
  -21.6048   -4.3059   24.7231 C   0  0  0  0  0  0
  -21.8823   -3.8149   23.4349 C   0  0  0  0  0  0
  -21.9199   -4.6964   22.3406 C   0  0  0  0  0  0
  -22.7841  -13.5206   21.1865 C   0  0  0  0  0  0
  -22.1668   -4.2152   21.0985 F   0  0  0  0  0  0
  -21.5630   -3.4544   25.7737 F   0  0  0  0  0  0
  -29.9846  -13.5426   20.4398 N   0  0  0  0  0  0
  -26.2948  -12.9393   20.3266 N   0  0  0  0  0  0
  -25.9333  -11.6536   20.5717 N   0  0  0  0  0  0
  -22.0507  -12.8166   22.0416 N   0  0  0  0  0  0
  -25.4282  -15.1910   20.4132 N   0  0  0  0  0  0
  -31.7264  -14.9292   20.0517 O   0  0  0  0  0  0
  -21.6648   -6.8872   21.4241 O   0  0  0  0  0  0
  -22.3520  -14.5524   20.6746 O   0  0  0  0  0  0
  -24.6351  -31.8530   23.1942 C   0  0  0  0  0  0
  -25.9155  -32.4740   23.8314 C   0  0  1  0  0  0
  -27.2197  -27.2332   20.1479 C   0  0  0  0  0  0
  -25.5926  -33.8546   24.2235 N   0  0  0  0  0  0
  -23.4333  -30.4722   21.5392 C   0  0  2  0  0  0
  -24.8813  -28.9089   20.1149 C   0  0  0  0  0  0
  -22.7529  -29.4582   22.4922 C   0  0  0  0  0  0
  -18.0301  -28.1397   22.8487 C   0  0  0  0  0  0
  -24.1493  -36.7291   23.2640 C   0  0  0  0  0  0
  -25.9794  -30.7596   21.3736 C   0  0  0  0  0  0
  -26.0553  -29.3762   20.7213 C   0  0  0  0  0  0
  -27.2303  -28.5539   20.7189 C   0  0  0  0  0  0
  -26.0234  -26.8313   19.5198 C   0  0  0  0  0  0
  -24.8721  -27.6465   19.5002 C   0  0  0  0  0  0
  -23.6530  -29.8010   20.1585 C   0  0  0  0  0  0
  -25.4121  -36.3068   24.0322 C   0  0  1  0  0  0
  -20.5900  -28.3702   23.1280 C   0  0  2  0  0  0
  -20.6783  -26.9417   22.5421 C   0  0  0  0  0  0
  -19.5753  -26.6386   21.5228 C   0  0  0  0  0  0
  -18.1938  -26.7939   22.1635 C   0  0  0  0  0  0
  -19.1555  -28.8870   23.2874 C   0  0  0  0  0  0
  -18.9465  -30.1469   23.8891 C   0  0  0  0  0  0
  -17.6457  -30.6588   24.0564 C   0  0  0  0  0  0
  -25.9062  -34.9434   23.5090 C   0  0  0  0  0  0
  -16.5351  -29.9084   23.6326 C   0  0  0  0  0  0
  -16.7283  -28.6505   23.0351 C   0  0  0  0  0  0
  -26.4491  -31.6565   25.0715 C   0  0  0  0  0  0
  -25.3679  -31.3723   26.1408 C   0  0  0  0  0  0
  -27.0321  -30.2970   24.6212 C   0  0  0  0  0  0
  -27.6020  -32.4313   25.7496 C   0  0  0  0  0  0
  -27.5587  -37.1786   24.8462 C   0  0  0  0  0  0
  -21.4232  -29.3039   22.3662 N   0  0  0  0  0  0
  -26.4302  -37.3759   23.9407 N   0  0  0  0  0  0
  -24.7019  -31.0473   22.0924 N   0  0  0  0  0  0
  -23.4208  -28.8139   23.3054 O   0  0  0  0  0  0
  -28.3060  -26.3241   20.1523 O   0  0  0  0  0  0
  -26.5640  -34.8900   22.4662 O   0  0  0  0  0  0
  -23.5490  -32.1353   23.7225 O   0  0  0  0  0  0
  -30.9250  -18.1731   21.2792 C   0  0  0  0  0  0
  -29.9962  -17.2156   20.8727 C   0  0  0  0  0  0
  -29.4332  -19.7584   20.4409 C   0  0  0  0  0  0
  -29.8429  -15.5891   22.6232 C   0  0  0  0  0  0
  -29.1448  -16.2580   23.5711 C   0  0  0  0  0  0
  -28.6289  -23.6238   19.9765 C   0  0  0  0  0  0
  -29.2271  -15.8278   25.0246 C   0  0  0  0  0  0
  -28.2361  -17.4521   23.3450 C   0  0  0  0  0  0
  -28.1099  -24.9435   20.7523 C   0  0  0  0  0  0
  -29.0491  -22.2592   20.7465 C   0  0  0  0  0  0
  -30.6029  -19.5460   21.0636 N   0  0  0  0  0  0
  -32.1190  -17.8702   21.9339 N   0  0  0  0  0  0
  -29.9801  -15.8381   21.2314 N   0  0  0  0  0  0
  -28.6975  -23.6503   18.7420 O   0  0  0  0  0  0
  -28.8340  -20.9567   20.0259 O   0  0  0  0  0  0
  -28.7046  -18.1479   20.0250 S   0  0  0  0  0  0
  -31.4727  -12.6517   19.1607 H   0  0  0  0  0  0
  -30.4141  -11.5169   19.9445 H   0  0  0  0  0  0
  -29.8035  -11.7765   17.5196 H   0  0  0  0  0  0
  -29.6189  -13.5003   17.7316 H   0  0  0  0  0  0
  -27.9042  -11.2888   18.9068 H   0  0  0  0  0  0
  -27.3799  -12.5336   17.8014 H   0  0  0  0  0  0
  -27.6467  -14.2603   19.4948 H   0  0  0  0  0  0
  -28.7342  -12.1125   21.3722 H   0  0  0  0  0  0
  -28.3514  -13.7411   21.8271 H   0  0  0  0  0  0
  -25.2770   -9.5685   22.4752 H   0  0  0  0  0  0
  -24.0014   -7.4633   22.7466 H   0  0  0  0  0  0
  -21.0849   -8.8763   19.8941 H   0  0  0  0  0  0
  -22.3699  -10.9668   19.6153 H   0  0  0  0  0  0
  -21.1985   -7.6149   23.9708 H   0  0  0  0  0  0
  -21.1477   -6.0530   25.9080 H   0  0  0  0  0  0
  -22.0607   -2.7610   23.2851 H   0  0  0  0  0  0
  -22.4141  -11.9798   22.4752 H   0  0  0  0  0  0
  -21.1130  -13.1163   22.2661 H   0  0  0  0  0  0
  -24.6720  -15.8549   20.5357 H   0  0  0  0  0  0
  -26.2949  -15.6265   20.1265 H   0  0  0  0  0  0
  -26.7236  -32.5375   23.1071 H   0  0  0  0  0  0
  -25.0026  -33.9667   25.0351 H   0  0  0  0  0  0
  -22.7301  -31.2942   21.3916 H   0  0  0  0  0  0
  -23.3746  -35.9629   23.3299 H   0  0  0  0  0  0
  -24.3590  -36.8920   22.2055 H   0  0  0  0  0  0
  -23.7255  -37.6494   23.6670 H   0  0  0  0  0  0
  -26.1149  -31.5166   20.5991 H   0  0  0  0  0  0
  -26.8590  -30.8164   22.0045 H   0  0  0  0  0  0
  -28.1328  -28.9108   21.1955 H   0  0  0  0  0  0
  -25.9685  -25.8595   19.0509 H   0  0  0  0  0  0
  -23.9744  -27.2841   19.0182 H   0  0  0  0  0  0
  -23.7791  -30.5740   19.3997 H   0  0  0  0  0  0
  -22.7695  -29.2373   19.8540 H   0  0  0  0  0  0
  -25.1305  -36.1914   25.0812 H   0  0  0  0  0  0
  -20.9997  -28.3288   24.1402 H   0  0  0  0  0  0
  -20.5709  -26.2310   23.3627 H   0  0  0  0  0  0
  -21.6649  -26.7453   22.1200 H   0  0  0  0  0  0
  -19.6914  -25.6301   21.1258 H   0  0  0  0  0  0
  -19.6695  -27.3197   20.6757 H   0  0  0  0  0  0
  -17.4214  -26.6698   21.4029 H   0  0  0  0  0  0
  -18.0321  -26.0084   22.9030 H   0  0  0  0  0  0
  -19.7937  -30.7298   24.2257 H   0  0  0  0  0  0
  -17.5005  -31.6266   24.5180 H   0  0  0  0  0  0
  -15.5354  -30.2981   23.7649 H   0  0  0  0  0  0
  -15.8687  -28.0819   22.7063 H   0  0  0  0  0  0
  -24.5906  -30.7011   25.7744 H   0  0  0  0  0  0
  -24.8799  -32.2881   26.4748 H   0  0  0  0  0  0
  -25.7976  -30.8984   27.0243 H   0  0  0  0  0  0
  -26.2897  -29.6723   24.1230 H   0  0  0  0  0  0
  -27.3965  -29.7238   25.4752 H   0  0  0  0  0  0
  -27.8793  -30.4224   23.9462 H   0  0  0  0  0  0
  -27.2602  -33.3600   26.2074 H   0  0  0  0  0  0
  -28.3820  -32.6908   25.0325 H   0  0  0  0  0  0
  -28.0698  -31.8449   26.5412 H   0  0  0  0  0  0
  -28.2608  -38.0082   24.7509 H   0  0  0  0  0  0
  -28.1080  -36.2614   24.6289 H   0  0  0  0  0  0
  -27.2305  -37.1435   25.8865 H   0  0  0  0  0  0
  -20.9441  -29.8741   21.6831 H   0  0  0  0  0  0
  -26.0182  -38.2834   24.1401 H   0  0  0  0  0  0
  -30.4260  -14.7353   22.9502 H   0  0  0  0  0  0
  -29.8672  -14.9547   25.1576 H   0  0  0  0  0  0
  -28.2366  -15.5715   25.4028 H   0  0  0  0  0  0
  -29.6324  -16.6347   25.6366 H   0  0  0  0  0  0
  -27.6329  -17.3157   22.4501 H   0  0  0  0  0  0
  -28.8144  -18.3716   23.2666 H   0  0  0  0  0  0
  -27.5386  -17.5720   24.1740 H   0  0  0  0  0  0
  -28.5800  -24.9437   21.7360 H   0  0  0  0  0  0
  -27.0481  -24.7957   20.9486 H   0  0  0  0  0  0
  -28.5176  -22.2193   21.6971 H   0  0  0  0  0  0
  -30.1081  -22.3418   20.9904 H   0  0  0  0  0  0
  -32.4664  -16.9209   21.8595 H   0  0  0  0  0  0
  -32.8456  -18.5760   21.9787 H   0  0  0  0  0  0
  1 25  1  0  0  0
  1 30  2  0  0  0
  1 83  1  0  0  0
  2  3  1  0  0  0
  2 25  1  0  0  0
  2 87  1  0  0  0
  2 88  1  0  0  0
  3  4  1  0  0  0
  3 89  1  0  0  0
  3 90  1  0  0  0
  4  5  1  0  0  0
  4 91  1  0  0  0
  4 92  1  0  0  0
  5  6  1  0  0  0
  5 26  1  0  0  0
  5 93  1  0  0  0
  6 25  1  0  0  0
  6 94  1  0  0  0
  6 95  1  0  0  0
  7  8  2  0  0  0
  7 26  1  0  0  0
  7 29  1  0  0  0
  8  9  1  0  0  0
  8 22  1  0  0  0
  9 10  1  0  0  0
  9 27  2  0  0  0
 10 11  2  0  0  0
 10 15  1  0  0  0
 11 12  1  0  0  0
 11 96  1  0  0  0
 12 13  2  0  0  0
 12 97  1  0  0  0
 13 14  1  0  0  0
 13 31  1  0  0  0
 14 15  2  0  0  0
 14 98  1  0  0  0
 15 99  1  0  0  0
 16 17  2  0  0  0
 16 21  1  0  0  0
 16 31  1  0  0  0
 17 18  1  0  0  0
 17100  1  0  0  0
 18 19  2  0  0  0
 18101  1  0  0  0
 19 20  1  0  0  0
 19 24  1  0  0  0
 20 21  2  0  0  0
 20102  1  0  0  0
 21 23  1  0  0  0
 22 28  1  0  0  0
 22 32  2  0  0  0
 26 27  1  0  0  0
 28103  1  0  0  0
 28104  1  0  0  0
 29105  1  0  0  0
 29106  1  0  0  0
 33 34  1  0  0  0
 33 66  1  0  0  0
 33 70  2  0  0  0
 34 36  1  0  0  0
 34 59  1  0  0  0
 34107  1  0  0  0
 35 44  2  0  0  0
 35 45  1  0  0  0
 35 68  1  0  0  0
 36 56  1  0  0  0
 36108  1  0  0  0
 37 39  1  0  0  0
 37 47  1  0  0  0
 37 66  1  0  0  0
 37109  1  0  0  0
 38 43  2  0  0  0
 38 46  1  0  0  0
 38 47  1  0  0  0
 39 64  1  0  0  0
 39 67  2  0  0  0
 40 52  1  0  0  0
 40 53  2  0  0  0
 40 58  1  0  0  0
 41110  1  0  0  0
 41111  1  0  0  0
 41112  1  0  0  0
 41 48  1  0  0  0
 42 43  1  0  0  0
 42 66  1  0  0  0
 42113  1  0  0  0
 42114  1  0  0  0
 43 44  1  0  0  0
 44115  1  0  0  0
 45 46  2  0  0  0
 45116  1  0  0  0
 46117  1  0  0  0
 47118  1  0  0  0
 47119  1  0  0  0
 48 56  1  0  0  0
 48 65  1  0  0  0
 48120  1  0  0  0
 49 50  1  0  0  0
 49 53  1  0  0  0
 49 64  1  0  0  0
 49121  1  0  0  0
 50 51  1  0  0  0
 50122  1  0  0  0
 50123  1  0  0  0
 51 52  1  0  0  0
 51124  1  0  0  0
 51125  1  0  0  0
 52126  1  0  0  0
 52127  1  0  0  0
 53 54  1  0  0  0
 54 55  2  0  0  0
 54128  1  0  0  0
 55 57  1  0  0  0
 55129  1  0  0  0
 56 69  2  0  0  0
 57 58  2  0  0  0
 57130  1  0  0  0
 58131  1  0  0  0
 59 60  1  0  0  0
 59 61  1  0  0  0
 59 62  1  0  0  0
 60132  1  0  0  0
 60133  1  0  0  0
 60134  1  0  0  0
 61135  1  0  0  0
 61136  1  0  0  0
 61137  1  0  0  0
 62138  1  0  0  0
 62139  1  0  0  0
 62140  1  0  0  0
 63 65  1  0  0  0
 63141  1  0  0  0
 63142  1  0  0  0
 63143  1  0  0  0
 64144  1  0  0  0
 65145  1  0  0  0
 68 79  1  0  0  0
 71 72  2  0  0  0
 71 81  1  0  0  0
 71 82  1  0  0  0
 72 83  1  0  0  0
 72 86  1  0  0  0
 73 81  2  0  0  0
 73 85  1  0  0  0
 73 86  1  0  0  0
 74 75  2  0  0  0
 74 83  1  0  0  0
 74146  1  0  0  0
 75 77  1  0  0  0
 75 78  1  0  0  0
 76 79  1  0  0  0
 76 80  1  0  0  0
 76 84  2  0  0  0
 77147  1  0  0  0
 77148  1  0  0  0
 77149  1  0  0  0
 78150  1  0  0  0
 78151  1  0  0  0
 78152  1  0  0  0
 79153  1  0  0  0
 79154  1  0  0  0
 80 85  1  0  0  0
 80155  1  0  0  0
 80156  1  0  0  0
 82157  1  0  0  0
 82158  1  0  0  0
M  ISO  4   1 100  68 101  79 101  83 100
M  END
> <chiral flag>
0

> <version>
0

> <s_m_source_file>
/data/baiqing/PycharmProjects/Reinvent-master-3.2/result/LINK_invent/BTK/process_docking_weight1_custom_product_contain_oxygen_bond_distance_aromatic_linkinvent_7_9_3/rearranged_h_0110.sdf

> <i_m_source_file_index>
77

> <r_mmod_Potential_Energy-OPLS-2005>
231.401245117188

> <r_mmod_Stretch_Energy-OPLS-2005>
144.103240966797

> <r_mmod_Bend_Energy-OPLS-2005>
202.62629699707

> <r_mmod_Torsional_Energy-OPLS-2005>
346.669799804688

> <r_mmod_Improper_Torsional_Energy-OPLS-2005>
7.44524240493774

> <r_mmod_Van_der_Waal_Energy-OPLS-2005>
119.151123046875

> <r_mmod_Electrostatic_Energy-OPLS-2005>
-464.627105712891

> <r_mmod_Solvation_Energy-OPLS-2005>
-221.68083190918

> <b_mmod_Minimization_Converged-OPLS-2005>
0

> <r_mmod_RMS_Derivative-OPLS-2005>
2.64868354797363

$$$$
78
                    3D
 Structure written by MMmdl.
166175  0  0  1  0            999 V2000
  -29.8435  -14.1740   21.1736 C   0  0  0  0  0  0
  -30.7833  -12.6452   19.2659 C   0  0  0  0  0  0
  -29.8651  -12.5866   17.9672 C   0  0  0  0  0  0
  -28.3446  -12.3603   18.1612 C   0  0  0  0  0  0
  -28.0305  -13.0651   19.4251 C   0  0  2  0  0  0
  -28.9730  -12.2513   20.4592 C   0  0  0  0  0  0
  -25.8204  -13.7821   19.9376 C   0  0  0  0  0  0
  -24.4183  -13.2366   21.1499 C   0  0  0  0  0  0
  -24.4584  -12.0341   21.6217 C   0  0  0  0  0  0
  -23.8144  -10.6246   21.3809 C   0  0  0  0  0  0
  -24.3113   -9.5107   22.1016 C   0  0  0  0  0  0
  -23.6544   -8.2571   22.1003 C   0  0  0  0  0  0
  -22.4649   -8.0684   21.3602 C   0  0  0  0  0  0
  -22.0368   -9.1147   20.5195 C   0  0  0  0  0  0
  -22.7054  -10.3636   20.5196 C   0  0  0  0  0  0
  -21.7038   -6.0889   22.5071 C   0  0  0  0  0  0
  -21.4145   -6.5767   23.8023 C   0  0  0  0  0  0
  -21.3692   -5.6938   24.9019 C   0  0  0  0  0  0
  -21.6017   -4.3180   24.7119 C   0  0  0  0  0  0
  -21.8750   -3.8251   23.4234 C   0  0  0  0  0  0
  -21.9226   -4.7067   22.3276 C   0  0  0  0  0  0
  -22.7835  -13.5791   21.5154 C   0  0  0  0  0  0
  -22.1711   -4.2172   21.0894 F   0  0  0  0  0  0
  -21.5576   -3.4663   25.7651 F   0  0  0  0  0  0
  -30.0538  -13.0291   20.4946 N   0  0  0  0  0  0
  -26.5229  -13.2531   19.5299 N   0  0  0  0  0  0
  -25.1141  -13.1174   20.7967 N   0  0  0  0  0  0
  -22.1247  -12.8729   22.4334 N   0  0  0  0  0  0
  -26.3723  -14.9476   19.1558 N   0  0  0  0  0  0
  -30.7829  -14.9884   20.9447 O   0  0  0  0  0  0
  -21.7135   -6.9088   21.3989 O   0  0  0  0  0  0
  -22.0251  -14.3777   20.9471 O   0  0  0  0  0  0
  -24.6434  -31.8506   23.2019 C   0  0  0  0  0  0
  -25.9228  -32.4720   23.8341 C   0  0  1  0  0  0
  -27.0452  -27.0618   20.1838 C   0  0  0  0  0  0
  -25.5994  -33.8540   24.2235 N   0  0  0  0  0  0
  -23.4380  -30.4886   21.5482 C   0  0  2  0  0  0
  -24.8673  -28.9501   20.0825 C   0  0  0  0  0  0
  -22.7549  -29.4590   22.4839 C   0  0  0  0  0  0
  -18.0300  -28.1395   22.8481 C   0  0  0  0  0  0
  -24.1482  -36.7258   23.2638 C   0  0  0  0  0  0
  -26.0033  -30.6929   21.4285 C   0  0  0  0  0  0
  -26.0420  -29.3124   20.7560 C   0  0  0  0  0  0
  -27.1398  -28.3697   20.8158 C   0  0  0  0  0  0
  -25.9404  -26.9137   19.3238 C   0  0  0  0  0  0
  -24.8390  -27.7733   19.3362 C   0  0  0  0  0  0
  -23.6580  -29.8595   20.1510 C   0  0  0  0  0  0
  -25.4120  -36.3064   24.0315 C   0  0  1  0  0  0
  -20.5913  -28.3715   23.1224 C   0  0  2  0  0  0
  -20.6789  -26.9420   22.5389 C   0  0  0  0  0  0
  -19.5760  -26.6368   21.5212 C   0  0  0  0  0  0
  -18.1943  -26.7929   22.1625 C   0  0  0  0  0  0
  -19.1561  -28.8875   23.2841 C   0  0  0  0  0  0
  -18.9475  -30.1474   23.8862 C   0  0  0  0  0  0
  -17.6472  -30.6595   24.0558 C   0  0  0  0  0  0
  -25.9079  -34.9433   23.5077 C   0  0  0  0  0  0
  -16.5359  -29.9079   23.6353 C   0  0  0  0  0  0
  -16.7281  -28.6498   23.0369 C   0  0  0  0  0  0
  -26.4522  -31.6621   25.0809 C   0  0  0  0  0  0
  -25.3663  -31.3859   26.1472 C   0  0  0  0  0  0
  -27.0411  -30.2995   24.6509 C   0  0  0  0  0  0
  -27.6051  -32.4386   25.7582 C   0  0  0  0  0  0
  -27.5581  -37.1793   24.8456 C   0  0  0  0  0  0
  -21.4246  -29.3056   22.3591 N   0  0  0  0  0  0
  -26.4286  -37.3774   23.9411 N   0  0  0  0  0  0
  -24.7144  -31.0331   22.1102 N   0  0  0  0  0  0
  -23.4214  -28.8092   23.2939 O   0  0  0  0  0  0
  -27.8336  -25.8718   20.4189 O   0  0  0  0  0  0
  -26.5637  -34.8916   22.4641 O   0  0  0  0  0  0
  -23.5542  -32.1427   23.7218 O   0  0  0  0  0  0
  -25.1293  -11.4959   19.2793 C   0  0  0  0  0  0
  -26.6515  -11.5594   20.9705 C   0  0  0  0  0  0
  -24.1105  -15.1822   19.9078 C   0  0  0  0  0  0
  -25.6246  -15.3362   21.5110 C   0  0  0  0  0  0
  -23.9419  -13.2661   18.8056 C   0  0  0  0  0  0
  -27.0032  -13.6344   21.9015 C   0  0  0  0  0  0
  -28.1163  -22.0066   20.8751 C   0  0  0  0  0  0
  -27.1374  -22.9432   20.6733 C   0  0  0  0  0  0
  -27.9535  -20.4365   21.2204 C   0  0  0  0  0  0
  -25.7449  -22.2434   20.7655 C   0  0  0  0  0  0
  -25.6575  -20.6537   20.5020 C   0  0  0  0  0  0
  -25.9440  -16.9169   21.9361 C   0  0  0  0  0  0
  -27.2006  -24.4764   20.0161 C   0  0  0  0  0  0
  -26.4731  -18.1702   20.9181 C   0  0  0  0  0  0
  -23.0358  -13.1999   17.7468 N   0  0  0  0  0  0
  -28.5362  -14.2682   21.9372 N   0  0  0  0  0  0
  -26.5803  -19.7387   21.2773 N   0  3  1  0  0  0
  -31.6084  -13.3390   19.1011 H   0  0  0  0  0  0
  -31.2631  -11.6769   19.4252 H   0  0  0  0  0  0
  -30.2626  -11.8559   17.2617 H   0  0  0  0  0  0
  -29.9853  -13.5465   17.4600 H   0  0  0  0  0  0
  -28.0845  -11.3012   18.1968 H   0  0  0  0  0  0
  -27.7974  -12.7839   17.3173 H   0  0  0  0  0  0
  -28.4496  -14.0453   19.1809 H   0  0  0  0  0  0
  -29.1761  -11.2319   20.1092 H   0  0  0  0  0  0
  -28.8145  -12.0076   21.5163 H   0  0  0  0  0  0
  -25.1719   -9.6413   22.7430 H   0  0  0  0  0  0
  -24.0514   -7.4569   22.7087 H   0  0  0  0  0  0
  -21.1536   -8.9870   19.9088 H   0  0  0  0  0  0
  -22.3048  -11.1686   19.9178 H   0  0  0  0  0  0
  -21.2246   -7.6297   23.9508 H   0  0  0  0  0  0
  -21.1552   -6.0725   25.8897 H   0  0  0  0  0  0
  -22.0445   -2.7698   23.2727 H   0  0  0  0  0  0
  -22.5765  -12.1633   22.9901 H   0  0  0  0  0  0
  -21.1442  -13.0619   22.5860 H   0  0  0  0  0  0
  -26.0302  -15.8761   19.3382 H   0  0  0  0  0  0
  -27.1153  -14.9074   18.4715 H   0  0  0  0  0  0
  -26.7268  -32.5268   23.1025 H   0  0  0  0  0  0
  -25.0154  -33.9673   25.0386 H   0  0  0  0  0  0
  -22.7382  -31.3166   21.4165 H   0  0  0  0  0  0
  -23.3784  -35.9552   23.3278 H   0  0  0  0  0  0
  -24.3554  -36.8913   22.2057 H   0  0  0  0  0  0
  -23.7188  -37.6423   23.6685 H   0  0  0  0  0  0
  -26.1957  -31.4529   20.6702 H   0  0  0  0  0  0
  -26.8638  -30.7105   22.0859 H   0  0  0  0  0  0
  -27.9950  -28.5946   21.4376 H   0  0  0  0  0  0
  -25.8327  -26.0650   18.6662 H   0  0  0  0  0  0
  -23.9711  -27.5304   18.7400 H   0  0  0  0  0  0
  -23.8030  -30.6530   19.4177 H   0  0  0  0  0  0
  -22.7646  -29.3212   19.8268 H   0  0  0  0  0  0
  -25.1308  -36.1905   25.0807 H   0  0  0  0  0  0
  -20.9992  -28.3314   24.1353 H   0  0  0  0  0  0
  -20.5717  -26.2326   23.3610 H   0  0  0  0  0  0
  -21.6652  -26.7448   22.1176 H   0  0  0  0  0  0
  -19.6921  -25.6269   21.1276 H   0  0  0  0  0  0
  -19.6697  -27.3155   20.6728 H   0  0  0  0  0  0
  -17.4205  -26.6669   21.4035 H   0  0  0  0  0  0
  -18.0338  -26.0079   22.9034 H   0  0  0  0  0  0
  -19.7950  -30.7305   24.2204 H   0  0  0  0  0  0
  -17.5028  -31.6282   24.5151 H   0  0  0  0  0  0
  -15.5361  -30.2970   23.7707 H   0  0  0  0  0  0
  -15.8677  -28.0806   22.7105 H   0  0  0  0  0  0
  -24.5802  -30.7267   25.7764 H   0  0  0  0  0  0
  -24.8897  -32.3073   26.4839 H   0  0  0  0  0  0
  -25.7875  -30.9028   27.0301 H   0  0  0  0  0  0
  -26.3080  -29.6661   24.1504 H   0  0  0  0  0  0
  -27.3934  -29.7370   25.5169 H   0  0  0  0  0  0
  -27.9034  -30.4187   23.9945 H   0  0  0  0  0  0
  -27.2662  -33.3718   26.2098 H   0  0  0  0  0  0
  -28.3902  -32.6895   25.0435 H   0  0  0  0  0  0
  -28.0684  -31.8556   26.5553 H   0  0  0  0  0  0
  -28.2579  -38.0113   24.7557 H   0  0  0  0  0  0
  -28.1104  -36.2651   24.6233 H   0  0  0  0  0  0
  -27.2298  -37.1376   25.8855 H   0  0  0  0  0  0
  -20.9431  -29.8797   21.6815 H   0  0  0  0  0  0
  -26.0166  -38.2845   24.1421 H   0  0  0  0  0  0
  -24.9914  -10.5846   18.7152 H   0  0  0  0  0  0
  -27.2448  -10.6731   21.1579 H   0  0  0  0  0  0
  -23.5235  -16.0418   19.6226 H   0  0  0  0  0  0
  -29.1396  -22.3212   20.7235 H   0  0  0  0  0  0
  -28.4649  -20.2414   22.1644 H   0  0  0  0  0  0
  -28.5419  -19.9249   20.4578 H   0  0  0  0  0  0
  -25.0805  -22.7046   20.0336 H   0  0  0  0  0  0
  -25.3121  -22.4843   21.7380 H   0  0  0  0  0  0
  -25.8546  -20.4885   19.4404 H   0  0  0  0  0  0
  -24.6297  -20.3250   20.6618 H   0  0  0  0  0  0
  -26.6266  -16.8709   22.7850 H   0  0  0  0  0  0
  -25.0039  -17.2642   22.3637 H   0  0  0  0  0  0
  -26.1323  -24.6408   20.0986 H   0  0  0  0  0  0
  -27.4047  -24.3399   18.9542 H   0  0  0  0  0  0
  -25.8406  -18.1190   20.0321 H   0  0  0  0  0  0
  -27.4536  -17.8684   20.5536 H   0  0  0  0  0  0
  -23.1807  -12.4852   17.0413 H   0  0  0  0  0  0
  -22.7166  -14.0810   17.3532 H   0  0  0  0  0  0
  -28.5435  -15.1433   22.4392 H   0  0  0  0  0  0
  -26.2760  -19.8144   22.2362 H   0  0  0  0  0  0
  1 25  1  0  0  0
  1 30  2  0  0  0
  1 86  1  0  0  0
  2  3  1  0  0  0
  2 25  1  0  0  0
  2 88  1  0  0  0
  2 89  1  0  0  0
  3  4  1  0  0  0
  3 90  1  0  0  0
  3 91  1  0  0  0
  4  5  1  0  0  0
  4 92  1  0  0  0
  4 93  1  0  0  0
  5  6  1  0  0  0
  5 26  1  0  0  0
  5 94  1  0  0  0
  6 25  1  0  0  0
  6 95  1  0  0  0
  6 96  1  0  0  0
  7  8  2  0  0  0
  7 26  1  0  0  0
  7 29  1  0  0  0
  8  9  1  0  0  0
  8 22  1  0  0  0
  9 10  1  0  0  0
  9 27  2  0  0  0
 10 11  2  0  0  0
 10 15  1  0  0  0
 11 12  1  0  0  0
 11 97  1  0  0  0
 12 13  2  0  0  0
 12 98  1  0  0  0
 13 14  1  0  0  0
 13 31  1  0  0  0
 14 15  2  0  0  0
 14 99  1  0  0  0
 15100  1  0  0  0
 16 17  2  0  0  0
 16 21  1  0  0  0
 16 31  1  0  0  0
 17 18  1  0  0  0
 17101  1  0  0  0
 18 19  2  0  0  0
 18102  1  0  0  0
 19 20  1  0  0  0
 19 24  1  0  0  0
 20 21  2  0  0  0
 20103  1  0  0  0
 21 23  1  0  0  0
 22 28  1  0  0  0
 22 32  2  0  0  0
 26 27  1  0  0  0
 28104  1  0  0  0
 28105  1  0  0  0
 29106  1  0  0  0
 29107  1  0  0  0
 33 34  1  0  0  0
 33 66  1  0  0  0
 33 70  2  0  0  0
 34 36  1  0  0  0
 34 59  1  0  0  0
 34108  1  0  0  0
 35 44  2  0  0  0
 35 45  1  0  0  0
 35 68  1  0  0  0
 36 56  1  0  0  0
 36109  1  0  0  0
 37 39  1  0  0  0
 37 47  1  0  0  0
 37 66  1  0  0  0
 37110  1  0  0  0
 38 43  2  0  0  0
 38 46  1  0  0  0
 38 47  1  0  0  0
 39 64  1  0  0  0
 39 67  2  0  0  0
 40 52  1  0  0  0
 40 53  2  0  0  0
 40 58  1  0  0  0
 41111  1  0  0  0
 41112  1  0  0  0
 41113  1  0  0  0
 41 48  1  0  0  0
 42 43  1  0  0  0
 42 66  1  0  0  0
 42114  1  0  0  0
 42115  1  0  0  0
 43 44  1  0  0  0
 44116  1  0  0  0
 45 46  2  0  0  0
 45117  1  0  0  0
 46118  1  0  0  0
 47119  1  0  0  0
 47120  1  0  0  0
 48 56  1  0  0  0
 48 65  1  0  0  0
 48121  1  0  0  0
 49 50  1  0  0  0
 49 53  1  0  0  0
 49 64  1  0  0  0
 49122  1  0  0  0
 50 51  1  0  0  0
 50123  1  0  0  0
 50124  1  0  0  0
 51 52  1  0  0  0
 51125  1  0  0  0
 51126  1  0  0  0
 52127  1  0  0  0
 52128  1  0  0  0
 53 54  1  0  0  0
 54 55  2  0  0  0
 54129  1  0  0  0
 55 57  1  0  0  0
 55130  1  0  0  0
 56 69  2  0  0  0
 57 58  2  0  0  0
 57131  1  0  0  0
 58132  1  0  0  0
 59 60  1  0  0  0
 59 61  1  0  0  0
 59 62  1  0  0  0
 60133  1  0  0  0
 60134  1  0  0  0
 60135  1  0  0  0
 61136  1  0  0  0
 61137  1  0  0  0
 61138  1  0  0  0
 62139  1  0  0  0
 62140  1  0  0  0
 62141  1  0  0  0
 63 65  1  0  0  0
 63142  1  0  0  0
 63143  1  0  0  0
 63144  1  0  0  0
 64145  1  0  0  0
 65146  1  0  0  0
 68 83  1  0  0  0
 71 72  2  0  0  0
 71 75  1  0  0  0
 71147  1  0  0  0
 72 76  1  0  0  0
 72148  1  0  0  0
 73 74  1  0  0  0
 73 75  2  0  0  0
 73149  1  0  0  0
 74 76  2  0  0  0
 74 82  1  0  0  0
 75 85  1  0  0  0
 76 86  1  0  0  0
 77 78  2  0  0  0
 77 79  1  0  0  0
 77150  1  0  0  0
 78 80  1  0  0  0
 78 83  1  0  0  0
 79 87  1  0  0  0
 79151  1  0  0  0
 79152  1  0  0  0
 80 81  1  0  0  0
 80153  1  0  0  0
 80154  1  0  0  0
 81 87  1  0  0  0
 81155  1  0  0  0
 81156  1  0  0  0
 82 84  1  0  0  0
 82157  1  0  0  0
 82158  1  0  0  0
 83159  1  0  0  0
 83160  1  0  0  0
 84161  1  0  0  0
 84162  1  0  0  0
 84 87  1  0  0  0
 85163  1  0  0  0
 85164  1  0  0  0
 86165  1  0  0  0
 87166  1  0  0  0
M  CHG  1  87   1
M  ISO  4   1 100  68 101  83 101  86 100
M  END
> <chiral flag>
0

> <version>
0

> <s_m_source_file>
/data/baiqing/PycharmProjects/Reinvent-master-3.2/result/LINK_invent/BTK/process_docking_weight1_custom_product_contain_oxygen_bond_distance_aromatic_linkinvent_7_9_3/rearranged_h_0110.sdf

> <i_m_source_file_index>
78

> <r_mmod_Potential_Energy-OPLS-2005>
18440.28515625

> <r_mmod_Stretch_Energy-OPLS-2005>
10475.1884765625

> <r_mmod_Bend_Energy-OPLS-2005>
1966.28259277344

> <r_mmod_Torsional_Energy-OPLS-2005>
538.080505371094

> <r_mmod_Improper_Torsional_Energy-OPLS-2005>
86.8971252441406

> <r_mmod_Van_der_Waal_Energy-OPLS-2005>
4540.20849609375

> <r_mmod_Electrostatic_Energy-OPLS-2005>
-278.219879150391

> <r_mmod_Solvation_Energy-OPLS-2005>
-456.83984375

> <b_mmod_Minimization_Converged-OPLS-2005>
0

> <r_mmod_RMS_Derivative-OPLS-2005>
6.87418270111084

$$$$
79
                    3D
 Structure written by MMmdl.
172181  0  0  1  0            999 V2000
  -30.7522  -14.4112   20.4469 C   0  0  0  0  0  0
  -30.4025  -12.2385   19.4153 C   0  0  0  0  0  0
  -29.4834  -12.4588   18.1977 C   0  0  0  0  0  0
  -28.0042  -12.3461   18.6169 C   0  0  0  0  0  0
  -27.6554  -13.2078   19.8610 C   0  0  2  0  0  0
  -28.7089  -13.0313   20.9805 C   0  0  0  0  0  0
  -25.2590  -13.8165   20.5692 C   0  0  0  0  0  0
  -24.1857  -13.0452   20.9195 C   0  0  0  0  0  0
  -24.6406  -11.6916   20.8762 C   0  0  0  0  0  0
  -23.9070  -10.4295   21.0403 C   0  0  0  0  0  0
  -24.3612   -9.4205   21.9184 C   0  0  0  0  0  0
  -23.6290   -8.2242   22.0751 C   0  0  0  0  0  0
  -22.4277   -8.0277   21.3537 C   0  0  0  0  0  0
  -21.9909   -9.0256   20.4639 C   0  0  0  0  0  0
  -22.7235  -10.2135   20.3056 C   0  0  0  0  0  0
  -21.6850   -6.0735   22.5279 C   0  0  0  0  0  0
  -21.4012   -6.5638   23.8208 C   0  0  0  0  0  0
  -21.3663   -5.6791   24.9170 C   0  0  0  0  0  0
  -21.6044   -4.3055   24.7221 C   0  0  0  0  0  0
  -21.8817   -3.8145   23.4344 C   0  0  0  0  0  0
  -21.9194   -4.6963   22.3396 C   0  0  0  0  0  0
  -22.7864  -13.5223   21.1864 C   0  0  0  0  0  0
  -22.1657   -4.2150   21.0976 F   0  0  0  0  0  0
  -21.5630   -3.4537   25.7735 F   0  0  0  0  0  0
  -30.0423  -13.2590   20.4031 N   0  0  0  0  0  0
  -26.3013  -12.9338   20.3341 N   0  0  0  0  0  0
  -25.9332  -11.6506   20.5793 N   0  0  0  0  0  0
  -22.0515  -12.8207   22.0403 N   0  0  0  0  0  0
  -25.4315  -15.1877   20.4042 N   0  0  0  0  0  0
  -31.9621  -14.4572   20.2351 O   0  0  0  0  0  0
  -21.6635   -6.8884   21.4237 O   0  0  0  0  0  0
  -22.3531  -14.5532   20.6717 O   0  0  0  0  0  0
  -24.6122  -31.8671   23.2151 C   0  0  0  0  0  0
  -25.9023  -32.4793   23.8410 C   0  0  1  0  0  0
  -27.2224  -27.4464   20.1185 C   0  0  0  0  0  0
  -25.5862  -33.8586   24.2302 N   0  0  0  0  0  0
  -23.4010  -30.4972   21.5505 C   0  0  2  0  0  0
  -24.8474  -28.9705   20.1133 C   0  0  0  0  0  0
  -22.7399  -29.4706   22.5001 C   0  0  0  0  0  0
  -18.0268  -28.1455   22.8474 C   0  0  0  0  0  0
  -24.1499  -36.7329   23.2633 C   0  0  0  0  0  0
  -25.9256  -30.8494   21.3578 C   0  0  0  0  0  0
  -26.0041  -29.4834   20.7115 C   0  0  0  0  0  0
  -27.1972  -28.7297   20.7100 C   0  0  0  0  0  0
  -26.0616  -26.9619   19.4805 C   0  0  0  0  0  0
  -24.8717  -27.7100   19.4946 C   0  0  0  0  0  0
  -23.6060  -29.8294   20.1647 C   0  0  0  0  0  0
  -25.4107  -36.3051   24.0309 C   0  0  1  0  0  0
  -20.5842  -28.3734   23.1316 C   0  0  2  0  0  0
  -20.6766  -26.9487   22.5411 C   0  0  0  0  0  0
  -19.5748  -26.6457   21.5217 C   0  0  0  0  0  0
  -18.1919  -26.8012   22.1604 C   0  0  0  0  0  0
  -19.1514  -28.8914   23.2889 C   0  0  0  0  0  0
  -18.9463  -30.1495   23.8930 C   0  0  0  0  0  0
  -17.6471  -30.6632   24.0597 C   0  0  0  0  0  0
  -25.9050  -34.9415   23.5115 C   0  0  0  0  0  0
  -16.5356  -29.9133   23.6355 C   0  0  0  0  0  0
  -16.7260  -28.6560   23.0350 C   0  0  0  0  0  0
  -26.4455  -31.6563   25.0724 C   0  0  0  0  0  0
  -25.3730  -31.3633   26.1486 C   0  0  0  0  0  0
  -27.0272  -30.2992   24.6089 C   0  0  0  0  0  0
  -27.6069  -32.4262   25.7465 C   0  0  0  0  0  0
  -27.5558  -37.1781   24.8445 C   0  0  0  0  0  0
  -21.4129  -29.3065   22.3713 N   0  0  0  0  0  0
  -26.4263  -37.3750   23.9412 N   0  0  0  0  0  0
  -24.6647  -31.0861   22.1002 N   0  0  0  0  0  0
  -23.4157  -28.8248   23.3042 O   0  0  0  0  0  0
  -28.3646  -26.6823   20.1626 O   0  0  0  0  0  0
  -26.5658  -34.8843   22.4696 O   0  0  0  0  0  0
  -23.5319  -32.1413   23.7573 O   0  0  0  0  0  0
  -31.4488  -18.5631   19.1894 C   0  0  0  0  0  0
  -27.2691  -21.3737   20.6151 C   0  0  0  0  0  0
  -27.9494  -21.4732   22.9467 C   0  0  0  0  0  0
  -30.5857  -19.0000   20.1570 C   0  0  0  0  0  0
  -27.5692  -19.9980   20.5806 C   0  0  0  0  0  0
  -28.1547  -19.3762   21.7226 C   0  0  0  0  0  0
  -31.2964  -17.1572   19.1308 C   0  0  0  0  0  0
  -27.5045  -22.1238   21.7829 C   0  0  0  0  0  0
  -28.2475  -20.0933   22.9451 C   0  0  0  0  0  0
  -30.4029  -16.7755   20.0991 C   0  0  0  0  0  0
  -27.2472  -19.2203   19.3085 C   0  0  0  0  0  0
  -27.9681  -26.1488   22.5780 C   0  0  0  0  0  0
  -28.1904  -19.9614   25.3491 C   0  0  0  0  0  0
  -28.7513  -17.9705   21.6173 C   0  0  0  0  0  0
  -27.7410  -24.3275   20.7203 C   0  0  0  0  0  0
  -28.4128  -25.6547   21.1778 C   0  0  1  0  0  0
  -29.8642  -17.9169   20.6662 N   0  0  0  0  0  0
  -31.9535  -16.3485   18.2057 N   0  0  0  0  0  0
  -27.2853  -23.5023   21.8375 N   0  0  0  0  0  0
  -29.9989  -15.5195   20.4393 N   0  0  0  0  0  0
  -28.6543  -19.4441   24.0919 O   0  0  0  0  0  0
  -31.4514  -12.2869   19.1178 H   0  0  0  0  0  0
  -30.2555  -11.2433   19.8379 H   0  0  0  0  0  0
  -29.7085  -11.7290   17.4190 H   0  0  0  0  0  0
  -29.6650  -13.4396   17.7598 H   0  0  0  0  0  0
  -27.8024  -11.2940   18.8235 H   0  0  0  0  0  0
  -27.3554  -12.6147   17.7822 H   0  0  0  0  0  0
  -27.6860  -14.2447   19.5307 H   0  0  0  0  0  0
  -28.6642  -12.0200   21.3890 H   0  0  0  0  0  0
  -28.5138  -13.7056   21.8171 H   0  0  0  0  0  0
  -25.2758   -9.5676   22.4753 H   0  0  0  0  0  0
  -24.0002   -7.4619   22.7453 H   0  0  0  0  0  0
  -21.0853   -8.8758   19.8928 H   0  0  0  0  0  0
  -22.3690  -10.9672   19.6160 H   0  0  0  0  0  0
  -21.2003   -7.6144   23.9713 H   0  0  0  0  0  0
  -21.1489   -6.0520   25.9074 H   0  0  0  0  0  0
  -22.0604   -2.7613   23.2841 H   0  0  0  0  0  0
  -22.4136  -11.9860   22.4773 H   0  0  0  0  0  0
  -21.1128  -13.1192   22.2630 H   0  0  0  0  0  0
  -24.6563  -15.8359   20.4904 H   0  0  0  0  0  0
  -26.2591  -15.6136   20.0111 H   0  0  0  0  0  0
  -26.7090  -32.5557   23.1183 H   0  0  0  0  0  0
  -24.9885  -33.9818   25.0341 H   0  0  0  0  0  0
  -22.6942  -31.3179   21.4147 H   0  0  0  0  0  0
  -23.3719  -35.9702   23.3265 H   0  0  0  0  0  0
  -24.3583  -36.9038   22.2062 H   0  0  0  0  0  0
  -23.7310  -37.6521   23.6738 H   0  0  0  0  0  0
  -26.0217  -31.6140   20.5833 H   0  0  0  0  0  0
  -26.8220  -30.9093   21.9642 H   0  0  0  0  0  0
  -28.0857  -29.1154   21.1905 H   0  0  0  0  0  0
  -26.0674  -26.0147   18.9624 H   0  0  0  0  0  0
  -23.9832  -27.3237   19.0151 H   0  0  0  0  0  0
  -23.6965  -30.6038   19.4017 H   0  0  0  0  0  0
  -22.7324  -29.2392   19.8806 H   0  0  0  0  0  0
  -25.1249  -36.1914   25.0799 H   0  0  0  0  0  0
  -20.9935  -28.3319   24.1428 H   0  0  0  0  0  0
  -20.5767  -26.2348   23.3596 H   0  0  0  0  0  0
  -21.6642  -26.7570   22.1197 H   0  0  0  0  0  0
  -19.6941  -25.6368   21.1258 H   0  0  0  0  0  0
  -19.6722  -27.3274   20.6763 H   0  0  0  0  0  0
  -17.4212  -26.6719   21.3996 H   0  0  0  0  0  0
  -18.0348  -26.0191   22.9036 H   0  0  0  0  0  0
  -19.7937  -30.7294   24.2343 H   0  0  0  0  0  0
  -17.5020  -31.6326   24.5163 H   0  0  0  0  0  0
  -15.5351  -30.3028   23.7721 H   0  0  0  0  0  0
  -15.8659  -28.0890   22.7057 H   0  0  0  0  0  0
  -24.5983  -30.6898   25.7794 H   0  0  0  0  0  0
  -24.8849  -32.2767   26.4911 H   0  0  0  0  0  0
  -25.8116  -30.8821   27.0255 H   0  0  0  0  0  0
  -26.2794  -29.6774   24.1153 H   0  0  0  0  0  0
  -27.4009  -29.7202   25.4555 H   0  0  0  0  0  0
  -27.8638  -30.4286   23.9214 H   0  0  0  0  0  0
  -27.2779  -33.3635   26.1957 H   0  0  0  0  0  0
  -28.3910  -32.6704   25.0285 H   0  0  0  0  0  0
  -28.0668  -31.8414   26.5448 H   0  0  0  0  0  0
  -28.2493  -38.0152   24.7500 H   0  0  0  0  0  0
  -28.1121  -36.2650   24.6227 H   0  0  0  0  0  0
  -27.2271  -37.1383   25.8848 H   0  0  0  0  0  0
  -20.9361  -29.8707   21.6825 H   0  0  0  0  0  0
  -26.0116  -38.2797   24.1476 H   0  0  0  0  0  0
  -32.0894  -19.1914   18.5853 H   0  0  0  0  0  0
  -26.8563  -21.8563   19.7405 H   0  0  0  0  0  0
  -28.0975  -22.0642   23.8373 H   0  0  0  0  0  0
  -30.3817  -20.0088   20.4841 H   0  0  0  0  0  0
  -26.8984  -19.8832   18.5155 H   0  0  0  0  0  0
  -26.4481  -18.5049   19.5053 H   0  0  0  0  0  0
  -28.0994  -18.6733   18.9066 H   0  0  0  0  0  0
  -28.3065  -25.4665   23.3603 H   0  0  0  0  0  0
  -26.8848  -26.2425   22.6564 H   0  0  0  0  0  0
  -28.4016  -27.1192   22.8121 H   0  0  0  0  0  0
  -28.5358  -19.2786   26.1280 H   0  0  0  0  0  0
  -27.0944  -20.0050   25.3974 H   0  0  0  0  0  0
  -28.5966  -20.9474   25.6039 H   0  0  0  0  0  0
  -27.9759  -17.2803   21.2848 H   0  0  0  0  0  0
  -29.1085  -17.5945   22.5778 H   0  0  0  0  0  0
  -28.4479  -23.7848   20.0890 H   0  0  0  0  0  0
  -26.8663  -24.5116   20.1076 H   0  0  0  0  0  0
  -29.4742  -25.4288   21.3008 H   0  0  0  0  0  0
  -32.7664  -16.7529   17.7516 H   0  0  0  0  0  0
  -32.1665  -15.4253   18.5868 H   0  0  0  0  0  0
  -27.3916  -23.9377   22.7482 H   0  0  0  0  0  0
  -29.0315  -15.3897   20.6721 H   0  0  0  0  0  0
  1 25  1  0  0  0
  1 30  2  0  0  0
  1 90  1  0  0  0
  2  3  1  0  0  0
  2 25  1  0  0  0
  2 92  1  0  0  0
  2 93  1  0  0  0
  3  4  1  0  0  0
  3 94  1  0  0  0
  3 95  1  0  0  0
  4  5  1  0  0  0
  4 96  1  0  0  0
  4 97  1  0  0  0
  5  6  1  0  0  0
  5 26  1  0  0  0
  5 98  1  0  0  0
  6 25  1  0  0  0
  6 99  1  0  0  0
  6100  1  0  0  0
  7  8  2  0  0  0
  7 26  1  0  0  0
  7 29  1  0  0  0
  8  9  1  0  0  0
  8 22  1  0  0  0
  9 10  1  0  0  0
  9 27  2  0  0  0
 10 11  2  0  0  0
 10 15  1  0  0  0
 11 12  1  0  0  0
 11101  1  0  0  0
 12 13  2  0  0  0
 12102  1  0  0  0
 13 14  1  0  0  0
 13 31  1  0  0  0
 14 15  2  0  0  0
 14103  1  0  0  0
 15104  1  0  0  0
 16 17  2  0  0  0
 16 21  1  0  0  0
 16 31  1  0  0  0
 17 18  1  0  0  0
 17105  1  0  0  0
 18 19  2  0  0  0
 18106  1  0  0  0
 19 20  1  0  0  0
 19 24  1  0  0  0
 20 21  2  0  0  0
 20107  1  0  0  0
 21 23  1  0  0  0
 22 28  1  0  0  0
 22 32  2  0  0  0
 26 27  1  0  0  0
 28108  1  0  0  0
 28109  1  0  0  0
 29110  1  0  0  0
 29111  1  0  0  0
 33 34  1  0  0  0
 33 66  1  0  0  0
 33 70  2  0  0  0
 34 36  1  0  0  0
 34 59  1  0  0  0
 34112  1  0  0  0
 35 44  2  0  0  0
 35 45  1  0  0  0
 35 68  1  0  0  0
 36 56  1  0  0  0
 36113  1  0  0  0
 37 39  1  0  0  0
 37 47  1  0  0  0
 37 66  1  0  0  0
 37114  1  0  0  0
 38 43  2  0  0  0
 38 46  1  0  0  0
 38 47  1  0  0  0
 39 64  1  0  0  0
 39 67  2  0  0  0
 40 52  1  0  0  0
 40 53  2  0  0  0
 40 58  1  0  0  0
 41115  1  0  0  0
 41116  1  0  0  0
 41117  1  0  0  0
 41 48  1  0  0  0
 42 43  1  0  0  0
 42 66  1  0  0  0
 42118  1  0  0  0
 42119  1  0  0  0
 43 44  1  0  0  0
 44120  1  0  0  0
 45 46  2  0  0  0
 45121  1  0  0  0
 46122  1  0  0  0
 47123  1  0  0  0
 47124  1  0  0  0
 48 56  1  0  0  0
 48 65  1  0  0  0
 48125  1  0  0  0
 49 50  1  0  0  0
 49 53  1  0  0  0
 49 64  1  0  0  0
 49126  1  0  0  0
 50 51  1  0  0  0
 50127  1  0  0  0
 50128  1  0  0  0
 51 52  1  0  0  0
 51129  1  0  0  0
 51130  1  0  0  0
 52131  1  0  0  0
 52132  1  0  0  0
 53 54  1  0  0  0
 54 55  2  0  0  0
 54133  1  0  0  0
 55 57  1  0  0  0
 55134  1  0  0  0
 56 69  2  0  0  0
 57 58  2  0  0  0
 57135  1  0  0  0
 58136  1  0  0  0
 59 60  1  0  0  0
 59 61  1  0  0  0
 59 62  1  0  0  0
 60137  1  0  0  0
 60138  1  0  0  0
 60139  1  0  0  0
 61140  1  0  0  0
 61141  1  0  0  0
 61142  1  0  0  0
 62143  1  0  0  0
 62144  1  0  0  0
 62145  1  0  0  0
 63 65  1  0  0  0
 63146  1  0  0  0
 63147  1  0  0  0
 63148  1  0  0  0
 64149  1  0  0  0
 65150  1  0  0  0
 68 86  1  0  0  0
 71 74  2  0  0  0
 71 77  1  0  0  0
 71151  1  0  0  0
 72 75  2  0  0  0
 72 78  1  0  0  0
 72152  1  0  0  0
 73 78  2  0  0  0
 73 79  1  0  0  0
 73153  1  0  0  0
 74 87  1  0  0  0
 74154  1  0  0  0
 75 76  1  0  0  0
 75 81  1  0  0  0
 76 79  2  0  0  0
 76 84  1  0  0  0
 77 80  2  0  0  0
 77 88  1  0  0  0
 78 89  1  0  0  0
 79 91  1  0  0  0
 80 87  1  0  0  0
 80 90  1  0  0  0
 81155  1  0  0  0
 81156  1  0  0  0
 81157  1  0  0  0
 82158  1  0  0  0
 82159  1  0  0  0
 82160  1  0  0  0
 82 86  1  0  0  0
 83 91  1  0  0  0
 83161  1  0  0  0
 83162  1  0  0  0
 83163  1  0  0  0
 84 87  1  0  0  0
 84164  1  0  0  0
 84165  1  0  0  0
 85 86  1  0  0  0
 85 89  1  0  0  0
 85166  1  0  0  0
 85167  1  0  0  0
 86168  1  0  0  0
 88169  1  0  0  0
 88170  1  0  0  0
 89171  1  0  0  0
 90172  1  0  0  0
M  ISO  4   1 100  68 101  86 101  90 100
M  END
> <chiral flag>
0

> <version>
0

> <s_m_source_file>
/data/baiqing/PycharmProjects/Reinvent-master-3.2/result/LINK_invent/BTK/process_docking_weight1_custom_product_contain_oxygen_bond_distance_aromatic_linkinvent_7_9_3/rearranged_h_0110.sdf

> <i_m_source_file_index>
79

> <r_mmod_Potential_Energy-OPLS-2005>
-50.6175918579102

> <r_mmod_Stretch_Energy-OPLS-2005>
38.1437911987305

> <r_mmod_Bend_Energy-OPLS-2005>
122.756446838379

> <r_mmod_Torsional_Energy-OPLS-2005>
304.528259277344

> <r_mmod_Improper_Torsional_Energy-OPLS-2005>
16.2110862731934

> <r_mmod_Van_der_Waal_Energy-OPLS-2005>
172.243835449219

> <r_mmod_Electrostatic_Energy-OPLS-2005>
-508.233856201172

> <r_mmod_Solvation_Energy-OPLS-2005>
-223.4873046875

> <b_mmod_Minimization_Converged-OPLS-2005>
0

> <r_mmod_RMS_Derivative-OPLS-2005>
5.64564371109009

$$$$
80
                    3D
 Structure written by MMmdl.
148156  0  0  1  0            999 V2000
  -30.4890  -15.0395   20.4024 C   0  0  0  0  0  0
  -30.4476  -12.6467   19.5088 C   0  0  0  0  0  0
  -29.5287  -12.5416   18.2671 C   0  0  0  0  0  0
  -28.0659  -12.3065   18.6877 C   0  0  0  0  0  0
  -27.6278  -13.2508   19.8361 C   0  0  2  0  0  0
  -28.6675  -13.3078   20.9758 C   0  0  0  0  0  0
  -25.2460  -13.8214   20.5708 C   0  0  0  0  0  0
  -24.1779  -13.0444   20.9243 C   0  0  0  0  0  0
  -24.6392  -11.6928   20.8760 C   0  0  0  0  0  0
  -23.9079  -10.4297   21.0413 C   0  0  0  0  0  0
  -24.3627   -9.4209   21.9189 C   0  0  0  0  0  0
  -23.6300   -8.2243   22.0758 C   0  0  0  0  0  0
  -22.4281   -8.0281   21.3547 C   0  0  0  0  0  0
  -21.9918   -9.0256   20.4650 C   0  0  0  0  0  0
  -22.7251  -10.2137   20.3060 C   0  0  0  0  0  0
  -21.6849   -6.0737   22.5276 C   0  0  0  0  0  0
  -21.4016   -6.5642   23.8211 C   0  0  0  0  0  0
  -21.3659   -5.6793   24.9172 C   0  0  0  0  0  0
  -21.6043   -4.3057   24.7222 C   0  0  0  0  0  0
  -21.8818   -3.8151   23.4344 C   0  0  0  0  0  0
  -21.9195   -4.6966   22.3399 C   0  0  0  0  0  0
  -22.7800  -13.5213   21.1893 C   0  0  0  0  0  0
  -22.1661   -4.2152   21.0977 F   0  0  0  0  0  0
  -21.5628   -3.4539   25.7736 F   0  0  0  0  0  0
  -29.9348  -13.7515   20.3769 N   0  0  0  0  0  0
  -26.2876  -12.9446   20.3223 N   0  0  0  0  0  0
  -25.9325  -11.6576   20.5738 N   0  0  0  0  0  0
  -22.0446  -12.8192   22.0445 N   0  0  0  0  0  0
  -25.4123  -15.1941   20.4085 N   0  0  0  0  0  0
  -31.6909  -15.1235   20.1204 O   0  0  0  0  0  0
  -21.6641   -6.8881   21.4241 O   0  0  0  0  0  0
  -22.3480  -14.5510   20.6728 O   0  0  0  0  0  0
  -24.6502  -31.8377   23.1822 C   0  0  0  0  0  0
  -25.9245  -32.4663   23.8230 C   0  0  1  0  0  0
  -27.2180  -27.0701   20.1586 C   0  0  0  0  0  0
  -25.5963  -33.8469   24.2147 N   0  0  0  0  0  0
  -23.4577  -30.4557   21.5284 C   0  0  2  0  0  0
  -24.9083  -28.8704   20.1107 C   0  0  0  0  0  0
  -22.7603  -29.4520   22.4822 C   0  0  0  0  0  0
  -18.0318  -28.1404   22.8487 C   0  0  0  0  0  0
  -24.1491  -36.7236   23.2643 C   0  0  0  0  0  0
  -26.0189  -30.6902   21.3907 C   0  0  0  0  0  0
  -26.0893  -29.2949   20.7323 C   0  0  0  0  0  0
  -27.2449  -28.4134   20.7358 C   0  0  0  0  0  0
  -26.0088  -26.7649   19.4938 C   0  0  0  0  0  0
  -24.8848  -27.6218   19.4732 C   0  0  0  0  0  0
  -23.6883  -29.7812   20.1504 C   0  0  0  0  0  0
  -25.4129  -36.3007   24.0308 C   0  0  1  0  0  0
  -20.5939  -28.3736   23.1223 C   0  0  2  0  0  0
  -20.6799  -26.9429   22.5405 C   0  0  0  0  0  0
  -19.5766  -26.6387   21.5218 C   0  0  0  0  0  0
  -18.1951  -26.7945   22.1633 C   0  0  0  0  0  0
  -19.1577  -28.8888   23.2851 C   0  0  0  0  0  0
  -18.9487  -30.1486   23.8878 C   0  0  0  0  0  0
  -17.6480  -30.6598   24.0563 C   0  0  0  0  0  0
  -25.9085  -34.9387   23.5039 C   0  0  0  0  0  0
  -16.5372  -29.9088   23.6342 C   0  0  0  0  0  0
  -16.7302  -28.6505   23.0370 C   0  0  0  0  0  0
  -26.4539  -31.6559   25.0700 C   0  0  0  0  0  0
  -25.3700  -31.3787   26.1381 C   0  0  0  0  0  0
  -27.0405  -30.2940   24.6336 C   0  0  0  0  0  0
  -27.6058  -32.4339   25.7495 C   0  0  0  0  0  0
  -27.5575  -37.1777   24.8465 C   0  0  0  0  0  0
  -21.4285  -29.3053   22.3579 N   0  0  0  0  0  0
  -26.4285  -37.3731   23.9406 N   0  0  0  0  0  0
  -24.7291  -31.0178   22.0882 N   0  0  0  0  0  0
  -23.4212  -28.8074   23.3004 O   0  0  0  0  0  0
  -28.2437  -26.0349   20.2328 O   0  0  0  0  0  0
  -26.5673  -34.8898   22.4621 O   0  0  0  0  0  0
  -23.5604  -32.1282   23.7004 O   0  0  0  0  0  0
  -30.8540  -18.5754   19.9666 C   0  0  0  0  0  0
  -29.7688  -17.7471   20.4069 C   0  0  0  0  0  0
  -28.8039  -18.7726   20.6028 C   0  0  0  0  0  0
  -28.9325  -23.1883   20.3347 C   0  0  0  0  0  0
  -28.5008  -21.5614   20.2021 C   0  0  0  0  0  0
  -27.8986  -24.4945   20.0554 C   0  0  0  0  0  0
  -30.5564  -19.9112   19.8948 N   0  0  0  0  0  0
  -29.2642  -20.1317   20.3074 N   0  0  0  0  0  0
  -27.4949  -18.6012   21.0141 N   0  0  0  0  0  0
  -29.6585  -16.1999   20.5713 N   0  0  0  0  0  0
  -30.0937  -23.4468   20.6676 O   0  0  0  0  0  0
  -31.4758  -12.8270   19.1920 H   0  0  0  0  0  0
  -30.4675  -11.7040   20.0578 H   0  0  0  0  0  0
  -29.8651  -11.7359   17.6130 H   0  0  0  0  0  0
  -29.5975  -13.4604   17.6826 H   0  0  0  0  0  0
  -27.9820  -11.2696   19.0161 H   0  0  0  0  0  0
  -27.3993  -12.4098   17.8304 H   0  0  0  0  0  0
  -27.5818  -14.2451   19.3906 H   0  0  0  0  0  0
  -28.7753  -12.3368   21.4611 H   0  0  0  0  0  0
  -28.3474  -14.0061   21.7507 H   0  0  0  0  0  0
  -25.2769   -9.5679   22.4769 H   0  0  0  0  0  0
  -24.0003   -7.4632   22.7475 H   0  0  0  0  0  0
  -21.0850   -8.8777   19.8952 H   0  0  0  0  0  0
  -22.3708  -10.9676   19.6171 H   0  0  0  0  0  0
  -21.2007   -7.6150   23.9712 H   0  0  0  0  0  0
  -21.1481   -6.0526   25.9073 H   0  0  0  0  0  0
  -22.0598   -2.7614   23.2841 H   0  0  0  0  0  0
  -22.4069  -11.9858   22.4826 H   0  0  0  0  0  0
  -21.1063  -13.1216   22.2655 H   0  0  0  0  0  0
  -24.6312  -15.8359   20.4904 H   0  0  0  0  0  0
  -26.2271  -15.6175   19.9852 H   0  0  0  0  0  0
  -26.7310  -32.5246   23.0951 H   0  0  0  0  0  0
  -25.0083  -33.9566   25.0278 H   0  0  0  0  0  0
  -22.7647  -31.2844   21.3691 H   0  0  0  0  0  0
  -23.3757  -35.9561   23.3286 H   0  0  0  0  0  0
  -24.3578  -36.8890   22.2061 H   0  0  0  0  0  0
  -23.7237  -37.6423   23.6697 H   0  0  0  0  0  0
  -26.1851  -31.4414   20.6174 H   0  0  0  0  0  0
  -26.8850  -30.7417   22.0385 H   0  0  0  0  0  0
  -28.1433  -28.7357   21.2434 H   0  0  0  0  0  0
  -25.8935  -25.8117   19.0005 H   0  0  0  0  0  0
  -23.9842  -27.2942   18.9712 H   0  0  0  0  0  0
  -23.8313  -30.5527   19.3930 H   0  0  0  0  0  0
  -22.8012  -29.2273   19.8387 H   0  0  0  0  0  0
  -25.1323  -36.1824   25.0800 H   0  0  0  0  0  0
  -21.0052  -28.3331   24.1336 H   0  0  0  0  0  0
  -20.5700  -26.2343   23.3631 H   0  0  0  0  0  0
  -21.6662  -26.7427   22.1198 H   0  0  0  0  0  0
  -19.6916  -25.6290   21.1268 H   0  0  0  0  0  0
  -19.6703  -27.3185   20.6737 H   0  0  0  0  0  0
  -17.4224  -26.6710   21.4030 H   0  0  0  0  0  0
  -18.0337  -26.0089   22.9031 H   0  0  0  0  0  0
  -19.7957  -30.7318   24.2232 H   0  0  0  0  0  0
  -17.5027  -31.6275   24.5170 H   0  0  0  0  0  0
  -15.5373  -30.2981   23.7670 H   0  0  0  0  0  0
  -15.8707  -28.0810   22.7097 H   0  0  0  0  0  0
  -24.5887  -30.7122   25.7707 H   0  0  0  0  0  0
  -24.8875  -32.2982   26.4705 H   0  0  0  0  0  0
  -25.7961  -30.9031   27.0221 H   0  0  0  0  0  0
  -26.3029  -29.6656   24.1328 H   0  0  0  0  0  0
  -27.3967  -29.7258   25.4938 H   0  0  0  0  0  0
  -27.8965  -30.4146   23.9693 H   0  0  0  0  0  0
  -27.2647  -33.3676   26.1976 H   0  0  0  0  0  0
  -28.3924  -32.6841   25.0364 H   0  0  0  0  0  0
  -28.0659  -31.8520   26.5490 H   0  0  0  0  0  0
  -28.2588  -38.0080   24.7517 H   0  0  0  0  0  0
  -28.1077  -36.2609   24.6292 H   0  0  0  0  0  0
  -27.2292  -37.1425   25.8869 H   0  0  0  0  0  0
  -20.9498  -29.8747   21.6738 H   0  0  0  0  0  0
  -26.0141  -38.2792   24.1418 H   0  0  0  0  0  0
  -31.8430  -18.2576   19.6685 H   0  0  0  0  0  0
  -27.9995  -21.5241   19.2356 H   0  0  0  0  0  0
  -27.6809  -21.4788   20.9144 H   0  0  0  0  0  0
  -27.0161  -24.3045   20.6666 H   0  0  0  0  0  0
  -27.5676  -24.3718   19.0245 H   0  0  0  0  0  0
  -27.0930  -17.7101   21.2765 H   0  0  0  0  0  0
  -26.8525  -19.3739   21.1414 H   0  0  0  0  0  0
  -28.7225  -15.9200   20.8182 H   0  0  0  0  0  0
  1 25  1  0  0  0
  1 30  2  0  0  0
  1 80  1  0  0  0
  2  3  1  0  0  0
  2 25  1  0  0  0
  2 82  1  0  0  0
  2 83  1  0  0  0
  3  4  1  0  0  0
  3 84  1  0  0  0
  3 85  1  0  0  0
  4  5  1  0  0  0
  4 86  1  0  0  0
  4 87  1  0  0  0
  5  6  1  0  0  0
  5 26  1  0  0  0
  5 88  1  0  0  0
  6 25  1  0  0  0
  6 89  1  0  0  0
  6 90  1  0  0  0
  7  8  2  0  0  0
  7 26  1  0  0  0
  7 29  1  0  0  0
  8  9  1  0  0  0
  8 22  1  0  0  0
  9 10  1  0  0  0
  9 27  2  0  0  0
 10 11  2  0  0  0
 10 15  1  0  0  0
 11 12  1  0  0  0
 11 91  1  0  0  0
 12 13  2  0  0  0
 12 92  1  0  0  0
 13 14  1  0  0  0
 13 31  1  0  0  0
 14 15  2  0  0  0
 14 93  1  0  0  0
 15 94  1  0  0  0
 16 17  2  0  0  0
 16 21  1  0  0  0
 16 31  1  0  0  0
 17 18  1  0  0  0
 17 95  1  0  0  0
 18 19  2  0  0  0
 18 96  1  0  0  0
 19 20  1  0  0  0
 19 24  1  0  0  0
 20 21  2  0  0  0
 20 97  1  0  0  0
 21 23  1  0  0  0
 22 28  1  0  0  0
 22 32  2  0  0  0
 26 27  1  0  0  0
 28 98  1  0  0  0
 28 99  1  0  0  0
 29100  1  0  0  0
 29101  1  0  0  0
 33 34  1  0  0  0
 33 66  1  0  0  0
 33 70  2  0  0  0
 34 36  1  0  0  0
 34 59  1  0  0  0
 34102  1  0  0  0
 35 44  2  0  0  0
 35 45  1  0  0  0
 35 68  1  0  0  0
 36 56  1  0  0  0
 36103  1  0  0  0
 37 39  1  0  0  0
 37 47  1  0  0  0
 37 66  1  0  0  0
 37104  1  0  0  0
 38 43  2  0  0  0
 38 46  1  0  0  0
 38 47  1  0  0  0
 39 64  1  0  0  0
 39 67  2  0  0  0
 40 52  1  0  0  0
 40 53  2  0  0  0
 40 58  1  0  0  0
 41105  1  0  0  0
 41106  1  0  0  0
 41107  1  0  0  0
 41 48  1  0  0  0
 42 43  1  0  0  0
 42 66  1  0  0  0
 42108  1  0  0  0
 42109  1  0  0  0
 43 44  1  0  0  0
 44110  1  0  0  0
 45 46  2  0  0  0
 45111  1  0  0  0
 46112  1  0  0  0
 47113  1  0  0  0
 47114  1  0  0  0
 48 56  1  0  0  0
 48 65  1  0  0  0
 48115  1  0  0  0
 49 50  1  0  0  0
 49 53  1  0  0  0
 49 64  1  0  0  0
 49116  1  0  0  0
 50 51  1  0  0  0
 50117  1  0  0  0
 50118  1  0  0  0
 51 52  1  0  0  0
 51119  1  0  0  0
 51120  1  0  0  0
 52121  1  0  0  0
 52122  1  0  0  0
 53 54  1  0  0  0
 54 55  2  0  0  0
 54123  1  0  0  0
 55 57  1  0  0  0
 55124  1  0  0  0
 56 69  2  0  0  0
 57 58  2  0  0  0
 57125  1  0  0  0
 58126  1  0  0  0
 59 60  1  0  0  0
 59 61  1  0  0  0
 59 62  1  0  0  0
 60127  1  0  0  0
 60128  1  0  0  0
 60129  1  0  0  0
 61130  1  0  0  0
 61131  1  0  0  0
 61132  1  0  0  0
 62133  1  0  0  0
 62134  1  0  0  0
 62135  1  0  0  0
 63 65  1  0  0  0
 63136  1  0  0  0
 63137  1  0  0  0
 63138  1  0  0  0
 64139  1  0  0  0
 65140  1  0  0  0
 68 76  1  0  0  0
 71 72  1  0  0  0
 71 77  2  0  0  0
 71141  1  0  0  0
 72 73  2  0  0  0
 72 80  1  0  0  0
 73 78  1  0  0  0
 73 79  1  0  0  0
 74 75  1  0  0  0
 74 76  1  0  0  0
 74 81  2  0  0  0
 75 78  1  0  0  0
 75142  1  0  0  0
 75143  1  0  0  0
 76144  1  0  0  0
 76145  1  0  0  0
 77 78  1  0  0  0
 79146  1  0  0  0
 79147  1  0  0  0
 80148  1  0  0  0
M  ISO  4   1 100  68 101  76 101  80 100
M  END
> <chiral flag>
0

> <version>
0

> <s_m_source_file>
/data/baiqing/PycharmProjects/Reinvent-master-3.2/result/LINK_invent/BTK/process_docking_weight1_custom_product_contain_oxygen_bond_distance_aromatic_linkinvent_7_9_3/rearranged_h_0110.sdf

> <i_m_source_file_index>
80

> <r_mmod_Potential_Energy-OPLS-2005>
484.096527099609

> <r_mmod_Stretch_Energy-OPLS-2005>
318.499145507812

> <r_mmod_Bend_Energy-OPLS-2005>
304.620025634766

> <r_mmod_Torsional_Energy-OPLS-2005>
218.482299804688

> <r_mmod_Improper_Torsional_Energy-OPLS-2005>
5.02481651306152

> <r_mmod_Van_der_Waal_Energy-OPLS-2005>
106.01912689209

> <r_mmod_Electrostatic_Energy-OPLS-2005>
-459.047119140625

> <r_mmod_Solvation_Energy-OPLS-2005>
-272.221160888672

> <b_mmod_Minimization_Converged-OPLS-2005>
0

> <r_mmod_RMS_Derivative-OPLS-2005>
1.08496069908142

$$$$
81
                    3D
 Structure written by MMmdl.
166174  0  0  1  0            999 V2000
  -30.6915  -14.4476   20.6048 C   0  0  0  0  0  0
  -30.4307  -12.3025   19.4090 C   0  0  0  0  0  0
  -29.4950  -12.5192   18.2012 C   0  0  0  0  0  0
  -28.0153  -12.3791   18.6139 C   0  0  0  0  0  0
  -27.6677  -13.2017   19.8834 C   0  0  2  0  0  0
  -28.7079  -12.9381   20.9946 C   0  0  0  0  0  0
  -25.2600  -13.8150   20.5659 C   0  0  0  0  0  0
  -24.1842  -13.0433   20.9153 C   0  0  0  0  0  0
  -24.6392  -11.6899   20.8726 C   0  0  0  0  0  0
  -23.9054  -10.4289   21.0400 C   0  0  0  0  0  0
  -24.3609   -9.4206   21.9183 C   0  0  0  0  0  0
  -23.6284   -8.2240   22.0752 C   0  0  0  0  0  0
  -22.4267   -8.0278   21.3540 C   0  0  0  0  0  0
  -21.9903   -9.0252   20.4645 C   0  0  0  0  0  0
  -22.7229  -10.2130   20.3049 C   0  0  0  0  0  0
  -21.6850   -6.0731   22.5278 C   0  0  0  0  0  0
  -21.4011   -6.5634   23.8212 C   0  0  0  0  0  0
  -21.3658   -5.6787   24.9174 C   0  0  0  0  0  0
  -21.6045   -4.3051   24.7226 C   0  0  0  0  0  0
  -21.8819   -3.8142   23.4348 C   0  0  0  0  0  0
  -21.9191   -4.6960   22.3403 C   0  0  0  0  0  0
  -22.7865  -13.5238   21.1830 C   0  0  0  0  0  0
  -22.1662   -4.2147   21.0982 F   0  0  0  0  0  0
  -21.5629   -3.4534   25.7737 F   0  0  0  0  0  0
  -30.0436  -13.2599   20.4559 N   0  0  0  0  0  0
  -26.3054  -12.9315   20.3403 N   0  0  0  0  0  0
  -25.9322  -11.6475   20.5769 N   0  0  0  0  0  0
  -22.0502  -12.8225   22.0386 N   0  0  0  0  0  0
  -25.4311  -15.1860   20.4025 N   0  0  0  0  0  0
  -31.7886  -14.6811   20.0880 O   0  0  0  0  0  0
  -21.6634   -6.8873   21.4240 O   0  0  0  0  0  0
  -22.3547  -14.5549   20.6692 O   0  0  0  0  0  0
  -24.6125  -31.8686   23.2102 C   0  0  0  0  0  0
  -25.9026  -32.4829   23.8395 C   0  0  1  0  0  0
  -27.2386  -27.4526   20.0958 C   0  0  0  0  0  0
  -25.5888  -33.8624   24.2333 N   0  0  0  0  0  0
  -23.4003  -30.4904   21.5506 C   0  0  2  0  0  0
  -24.8492  -28.9545   20.1180 C   0  0  0  0  0  0
  -22.7397  -29.4653   22.4999 C   0  0  0  0  0  0
  -18.0268  -28.1373   22.8490 C   0  0  0  0  0  0
  -24.1483  -36.7310   23.2636 C   0  0  0  0  0  0
  -25.9265  -30.8403   21.3595 C   0  0  0  0  0  0
  -26.0077  -29.4743   20.7099 C   0  0  0  0  0  0
  -27.2088  -28.7313   20.6931 C   0  0  0  0  0  0
  -26.0663  -26.9361   19.5076 C   0  0  0  0  0  0
  -24.8717  -27.6831   19.5154 C   0  0  0  0  0  0
  -23.6094  -29.8190   20.1661 C   0  0  0  0  0  0
  -25.4103  -36.3116   24.0342 C   0  0  1  0  0  0
  -20.5856  -28.3652   23.1330 C   0  0  2  0  0  0
  -20.6756  -26.9391   22.5425 C   0  0  0  0  0  0
  -19.5745  -26.6386   21.5206 C   0  0  0  0  0  0
  -18.1920  -26.7923   22.1612 C   0  0  0  0  0  0
  -19.1516  -28.8828   23.2907 C   0  0  0  0  0  0
  -18.9448  -30.1434   23.8917 C   0  0  0  0  0  0
  -17.6453  -30.6580   24.0564 C   0  0  0  0  0  0
  -25.9031  -34.9481   23.5137 C   0  0  0  0  0  0
  -16.5343  -29.9084   23.6324 C   0  0  0  0  0  0
  -16.7258  -28.6500   23.0345 C   0  0  0  0  0  0
  -26.4466  -31.6600   25.0711 C   0  0  0  0  0  0
  -25.3745  -31.3704   26.1469 C   0  0  0  0  0  0
  -27.0287  -30.3045   24.6061 C   0  0  0  0  0  0
  -27.6053  -32.4311   25.7469 C   0  0  0  0  0  0
  -27.5588  -37.1801   24.8456 C   0  0  0  0  0  0
  -21.4127  -29.3021   22.3737 N   0  0  0  0  0  0
  -26.4285  -37.3805   23.9423 N   0  0  0  0  0  0
  -24.6647  -31.0801   22.0994 N   0  0  0  0  0  0
  -23.4177  -28.8198   23.3036 O   0  0  0  0  0  0
  -28.4016  -26.7223   20.0583 O   0  0  0  0  0  0
  -26.5592  -34.8932   22.4698 O   0  0  0  0  0  0
  -23.5322  -32.1427   23.7509 O   0  0  0  0  0  0
  -30.8076  -17.5419   20.4194 C   0  0  0  0  0  0
  -29.3698  -17.4936   22.4068 C   0  0  0  0  0  0
  -29.3823  -18.9258   22.4259 C   0  0  0  0  0  0
  -30.0830  -16.7940   21.3815 C   0  0  0  0  0  0
  -30.8475  -18.9495   20.4659 C   0  0  0  0  0  0
  -30.1265  -19.6478   21.4607 C   0  0  0  0  0  0
  -28.5952  -16.7124   23.4448 C   0  0  0  0  0  0
  -29.4253  -20.2910   24.5935 C   0  0  0  0  0  0
  -28.5735  -19.7487   23.4366 C   0  0  0  0  0  0
  -28.8586  -24.3015   20.2104 C   0  0  0  0  0  0
  -29.1749  -23.1530   21.1959 C   0  0  0  0  0  0
  -28.4338  -25.5953   20.9388 C   0  0  0  0  0  0
  -29.6293  -21.8261   20.5492 C   0  0  0  0  0  0
  -31.6296  -19.6441   19.5432 N   0  0  0  0  0  0
  -28.9050  -16.9401   24.7136 N   0  0  0  0  0  0
  -30.0099  -15.3576   21.3270 N   0  0  0  0  0  0
  -27.7687  -15.8597   23.1246 O   0  0  0  0  0  0
  -30.2046  -21.0217   21.5799 O   0  0  0  0  0  0
  -31.4734  -12.4149   19.1056 H   0  0  0  0  0  0
  -30.3403  -11.2821   19.7845 H   0  0  0  0  0  0
  -29.7308  -11.8057   17.4103 H   0  0  0  0  0  0
  -29.6654  -13.5104   17.7778 H   0  0  0  0  0  0
  -27.8205  -11.3215   18.7955 H   0  0  0  0  0  0
  -27.3648  -12.6700   17.7885 H   0  0  0  0  0  0
  -27.7248  -14.2563   19.6125 H   0  0  0  0  0  0
  -28.6821  -11.8879   21.2891 H   0  0  0  0  0  0
  -28.4592  -13.4887   21.9023 H   0  0  0  0  0  0
  -25.2754   -9.5681   22.4753 H   0  0  0  0  0  0
  -23.9996   -7.4630   22.7466 H   0  0  0  0  0  0
  -21.0834   -8.8767   19.8950 H   0  0  0  0  0  0
  -22.3691  -10.9664   19.6152 H   0  0  0  0  0  0
  -21.2001   -7.6141   23.9714 H   0  0  0  0  0  0
  -21.1480   -6.0517   25.9076 H   0  0  0  0  0  0
  -22.0598   -2.7606   23.2847 H   0  0  0  0  0  0
  -22.4105  -11.9876   22.4764 H   0  0  0  0  0  0
  -21.1123  -13.1256   22.2592 H   0  0  0  0  0  0
  -24.6772  -15.8496   20.5410 H   0  0  0  0  0  0
  -26.3107  -15.6278   20.1669 H   0  0  0  0  0  0
  -26.7094  -32.5555   23.1160 H   0  0  0  0  0  0
  -25.0046  -33.9788   25.0483 H   0  0  0  0  0  0
  -22.6872  -31.3054   21.4105 H   0  0  0  0  0  0
  -23.3756  -35.9630   23.3287 H   0  0  0  0  0  0
  -24.3582  -36.8931   22.2052 H   0  0  0  0  0  0
  -23.7216  -37.6506   23.6651 H   0  0  0  0  0  0
  -26.0325  -31.6057   20.5893 H   0  0  0  0  0  0
  -26.8165  -30.8977   21.9744 H   0  0  0  0  0  0
  -28.1080  -29.1321   21.1400 H   0  0  0  0  0  0
  -26.0816  -25.9608   19.0420 H   0  0  0  0  0  0
  -23.9802  -27.2759   19.0588 H   0  0  0  0  0  0
  -23.7155  -30.5920   19.4040 H   0  0  0  0  0  0
  -22.7348  -29.2359   19.8728 H   0  0  0  0  0  0
  -25.1273  -36.1979   25.0833 H   0  0  0  0  0  0
  -20.9948  -28.3217   24.1449 H   0  0  0  0  0  0
  -20.5649  -26.2255   23.3605 H   0  0  0  0  0  0
  -21.6630  -26.7434   22.1229 H   0  0  0  0  0  0
  -19.6908  -25.6305   21.1216 H   0  0  0  0  0  0
  -19.6699  -27.3212   20.6749 H   0  0  0  0  0  0
  -17.4197  -26.6678   21.4005 H   0  0  0  0  0  0
  -18.0318  -26.0057   22.9001 H   0  0  0  0  0  0
  -19.7925  -30.7237   24.2306 H   0  0  0  0  0  0
  -17.5011  -31.6261   24.5164 H   0  0  0  0  0  0
  -15.5345  -30.2994   23.7641 H   0  0  0  0  0  0
  -15.8654  -28.0827   22.7053 H   0  0  0  0  0  0
  -24.5910  -30.7055   25.7814 H   0  0  0  0  0  0
  -24.8943  -32.2861   26.4931 H   0  0  0  0  0  0
  -25.8107  -30.8867   27.0218 H   0  0  0  0  0  0
  -26.2815  -29.6815   24.1128 H   0  0  0  0  0  0
  -27.4085  -29.7269   25.4498 H   0  0  0  0  0  0
  -27.8640  -30.4371   23.9179 H   0  0  0  0  0  0
  -27.2681  -33.3605   26.2072 H   0  0  0  0  0  0
  -28.3848  -32.6879   25.0284 H   0  0  0  0  0  0
  -28.0735  -31.8416   26.5361 H   0  0  0  0  0  0
  -28.2585  -38.0122   24.7547 H   0  0  0  0  0  0
  -28.1105  -36.2657   24.6216 H   0  0  0  0  0  0
  -27.2318  -37.1378   25.8860 H   0  0  0  0  0  0
  -20.9282  -29.8733   21.6955 H   0  0  0  0  0  0
  -26.0175  -38.2877   24.1455 H   0  0  0  0  0  0
  -31.3485  -17.0420   19.6302 H   0  0  0  0  0  0
  -28.8125  -20.8773   25.2784 H   0  0  0  0  0  0
  -30.2211  -20.9413   24.2302 H   0  0  0  0  0  0
  -29.8893  -19.4912   25.1686 H   0  0  0  0  0  0
  -27.7212  -19.1931   23.8261 H   0  0  0  0  0  0
  -28.1159  -20.5884   22.9124 H   0  0  0  0  0  0
  -28.0741  -23.9970   19.5170 H   0  0  0  0  0  0
  -29.7430  -24.5045   19.6055 H   0  0  0  0  0  0
  -28.3057  -22.9612   21.8261 H   0  0  0  0  0  0
  -29.9622  -23.4950   21.8688 H   0  0  0  0  0  0
  -29.1563  -25.8270   21.7221 H   0  0  0  0  0  0
  -27.4797  -25.4359   21.4461 H   0  0  0  0  0  0
  -30.3792  -22.0248   19.7835 H   0  0  0  0  0  0
  -28.7873  -21.3246   20.0688 H   0  0  0  0  0  0
  -32.3995  -19.1487   19.1058 H   0  0  0  0  0  0
  -31.8749  -20.5956   19.7964 H   0  0  0  0  0  0
  -29.6178  -17.6157   24.9421 H   0  0  0  0  0  0
  -28.4389  -16.4317   25.4502 H   0  0  0  0  0  0
  -29.2144  -14.9652   21.8129 H   0  0  0  0  0  0
  1 25  1  0  0  0
  1 30  2  0  0  0
  1 86  1  0  0  0
  2  3  1  0  0  0
  2 25  1  0  0  0
  2 89  1  0  0  0
  2 90  1  0  0  0
  3  4  1  0  0  0
  3 91  1  0  0  0
  3 92  1  0  0  0
  4  5  1  0  0  0
  4 93  1  0  0  0
  4 94  1  0  0  0
  5  6  1  0  0  0
  5 26  1  0  0  0
  5 95  1  0  0  0
  6 25  1  0  0  0
  6 96  1  0  0  0
  6 97  1  0  0  0
  7  8  2  0  0  0
  7 26  1  0  0  0
  7 29  1  0  0  0
  8  9  1  0  0  0
  8 22  1  0  0  0
  9 10  1  0  0  0
  9 27  2  0  0  0
 10 11  2  0  0  0
 10 15  1  0  0  0
 11 12  1  0  0  0
 11 98  1  0  0  0
 12 13  2  0  0  0
 12 99  1  0  0  0
 13 14  1  0  0  0
 13 31  1  0  0  0
 14 15  2  0  0  0
 14100  1  0  0  0
 15101  1  0  0  0
 16 17  2  0  0  0
 16 21  1  0  0  0
 16 31  1  0  0  0
 17 18  1  0  0  0
 17102  1  0  0  0
 18 19  2  0  0  0
 18103  1  0  0  0
 19 20  1  0  0  0
 19 24  1  0  0  0
 20 21  2  0  0  0
 20104  1  0  0  0
 21 23  1  0  0  0
 22 28  1  0  0  0
 22 32  2  0  0  0
 26 27  1  0  0  0
 28105  1  0  0  0
 28106  1  0  0  0
 29107  1  0  0  0
 29108  1  0  0  0
 33 34  1  0  0  0
 33 66  1  0  0  0
 33 70  2  0  0  0
 34 36  1  0  0  0
 34 59  1  0  0  0
 34109  1  0  0  0
 35 44  2  0  0  0
 35 45  1  0  0  0
 35 68  1  0  0  0
 36 56  1  0  0  0
 36110  1  0  0  0
 37 39  1  0  0  0
 37 47  1  0  0  0
 37 66  1  0  0  0
 37111  1  0  0  0
 38 43  2  0  0  0
 38 46  1  0  0  0
 38 47  1  0  0  0
 39 64  1  0  0  0
 39 67  2  0  0  0
 40 52  1  0  0  0
 40 53  2  0  0  0
 40 58  1  0  0  0
 41112  1  0  0  0
 41113  1  0  0  0
 41114  1  0  0  0
 41 48  1  0  0  0
 42 43  1  0  0  0
 42 66  1  0  0  0
 42115  1  0  0  0
 42116  1  0  0  0
 43 44  1  0  0  0
 44117  1  0  0  0
 45 46  2  0  0  0
 45118  1  0  0  0
 46119  1  0  0  0
 47120  1  0  0  0
 47121  1  0  0  0
 48 56  1  0  0  0
 48 65  1  0  0  0
 48122  1  0  0  0
 49 50  1  0  0  0
 49 53  1  0  0  0
 49 64  1  0  0  0
 49123  1  0  0  0
 50 51  1  0  0  0
 50124  1  0  0  0
 50125  1  0  0  0
 51 52  1  0  0  0
 51126  1  0  0  0
 51127  1  0  0  0
 52128  1  0  0  0
 52129  1  0  0  0
 53 54  1  0  0  0
 54 55  2  0  0  0
 54130  1  0  0  0
 55 57  1  0  0  0
 55131  1  0  0  0
 56 69  2  0  0  0
 57 58  2  0  0  0
 57132  1  0  0  0
 58133  1  0  0  0
 59 60  1  0  0  0
 59 61  1  0  0  0
 59 62  1  0  0  0
 60134  1  0  0  0
 60135  1  0  0  0
 60136  1  0  0  0
 61137  1  0  0  0
 61138  1  0  0  0
 61139  1  0  0  0
 62140  1  0  0  0
 62141  1  0  0  0
 62142  1  0  0  0
 63 65  1  0  0  0
 63143  1  0  0  0
 63144  1  0  0  0
 63145  1  0  0  0
 64146  1  0  0  0
 65147  1  0  0  0
 68 82  1  0  0  0
 71 74  2  0  0  0
 71 75  1  0  0  0
 71148  1  0  0  0
 72 73  2  0  0  0
 72 74  1  0  0  0
 72 77  1  0  0  0
 73 76  1  0  0  0
 73 79  1  0  0  0
 74 86  1  0  0  0
 75 76  2  0  0  0
 75 84  1  0  0  0
 76 88  1  0  0  0
 77 85  1  0  0  0
 77 87  2  0  0  0
 78 79  1  0  0  0
 78149  1  0  0  0
 78150  1  0  0  0
 78151  1  0  0  0
 79152  1  0  0  0
 79153  1  0  0  0
 80 81  1  0  0  0
 80 82  1  0  0  0
 80154  1  0  0  0
 80155  1  0  0  0
 81 83  1  0  0  0
 81156  1  0  0  0
 81157  1  0  0  0
 82158  1  0  0  0
 82159  1  0  0  0
 83 88  1  0  0  0
 83160  1  0  0  0
 83161  1  0  0  0
 84162  1  0  0  0
 84163  1  0  0  0
 85164  1  0  0  0
 85165  1  0  0  0
 86166  1  0  0  0
M  ISO  4   1 100  68 101  82 101  86 100
M  END
> <chiral flag>
0

> <version>
0

> <s_m_source_file>
/data/baiqing/PycharmProjects/Reinvent-master-3.2/result/LINK_invent/BTK/process_docking_weight1_custom_product_contain_oxygen_bond_distance_aromatic_linkinvent_7_9_3/rearranged_h_0110.sdf

> <i_m_source_file_index>
81

> <r_mmod_Potential_Energy-OPLS-2005>
-96.1441879272461

> <r_mmod_Stretch_Energy-OPLS-2005>
41.5529174804688

> <r_mmod_Bend_Energy-OPLS-2005>
104.020431518555

> <r_mmod_Torsional_Energy-OPLS-2005>
287.384887695312

> <r_mmod_Improper_Torsional_Energy-OPLS-2005>
6.83686685562134

> <r_mmod_Van_der_Waal_Energy-OPLS-2005>
157.32341003418

> <r_mmod_Electrostatic_Energy-OPLS-2005>
-472.949920654297

> <r_mmod_Solvation_Energy-OPLS-2005>
-229.381912231445

> <b_mmod_Minimization_Converged-OPLS-2005>
0

> <r_mmod_RMS_Derivative-OPLS-2005>
0.65458220243454

$$$$
82
                    3D
 Structure written by MMmdl.
156164  0  0  1  0            999 V2000
  -30.6297  -14.7368   20.4675 C   0  0  0  0  0  0
  -30.4318  -12.4468   19.4902 C   0  0  0  0  0  0
  -29.5139  -12.5028   18.2488 C   0  0  0  0  0  0
  -28.0412  -12.3244   18.6613 C   0  0  0  0  0  0
  -27.6448  -13.2321   19.8558 C   0  0  2  0  0  0
  -28.6864  -13.1743   20.9968 C   0  0  0  0  0  0
  -25.2523  -13.8200   20.5701 C   0  0  0  0  0  0
  -24.1810  -13.0449   20.9195 C   0  0  0  0  0  0
  -24.6407  -11.6928   20.8754 C   0  0  0  0  0  0
  -23.9089  -10.4301   21.0413 C   0  0  0  0  0  0
  -24.3632   -9.4213   21.9190 C   0  0  0  0  0  0
  -23.6301   -8.2252   22.0761 C   0  0  0  0  0  0
  -22.4284   -8.0288   21.3548 C   0  0  0  0  0  0
  -21.9925   -9.0266   20.4652 C   0  0  0  0  0  0
  -22.7262  -10.2142   20.3061 C   0  0  0  0  0  0
  -21.6852   -6.0742   22.5280 C   0  0  0  0  0  0
  -21.4015   -6.5644   23.8213 C   0  0  0  0  0  0
  -21.3660   -5.6794   24.9171 C   0  0  0  0  0  0
  -21.6040   -4.3058   24.7219 C   0  0  0  0  0  0
  -21.8821   -3.8155   23.4342 C   0  0  0  0  0  0
  -21.9194   -4.6972   22.3399 C   0  0  0  0  0  0
  -22.7828  -13.5227   21.1855 C   0  0  0  0  0  0
  -22.1661   -4.2164   21.0973 F   0  0  0  0  0  0
  -21.5630   -3.4538   25.7729 F   0  0  0  0  0  0
  -29.9946  -13.5142   20.4226 N   0  0  0  0  0  0
  -26.2957  -12.9411   20.3306 N   0  0  0  0  0  0
  -25.9340  -11.6554   20.5776 N   0  0  0  0  0  0
  -22.0473  -12.8218   22.0410 N   0  0  0  0  0  0
  -25.4213  -15.1925   20.4133 N   0  0  0  0  0  0
  -31.8049  -14.8251   20.1032 O   0  0  0  0  0  0
  -21.6637   -6.8889   21.4244 O   0  0  0  0  0  0
  -22.3522  -14.5540   20.6707 O   0  0  0  0  0  0
  -24.6329  -31.8532   23.2013 C   0  0  0  0  0  0
  -25.9147  -32.4736   23.8342 C   0  0  1  0  0  0
  -27.2084  -27.2446   20.1241 C   0  0  0  0  0  0
  -25.5934  -33.8543   24.2261 N   0  0  0  0  0  0
  -23.4294  -30.4802   21.5466 C   0  0  2  0  0  0
  -24.8743  -28.9331   20.1060 C   0  0  0  0  0  0
  -22.7508  -29.4593   22.4922 C   0  0  0  0  0  0
  -18.0298  -28.1378   22.8496 C   0  0  0  0  0  0
  -24.1494  -36.7285   23.2636 C   0  0  0  0  0  0
  -25.9786  -30.7605   21.3856 C   0  0  0  0  0  0
  -26.0479  -29.3838   20.7244 C   0  0  0  0  0  0
  -27.2152  -28.5506   20.7282 C   0  0  0  0  0  0
  -26.0187  -26.8867   19.4462 C   0  0  0  0  0  0
  -24.8662  -27.6927   19.4555 C   0  0  0  0  0  0
  -23.6456  -29.8200   20.1602 C   0  0  0  0  0  0
  -25.4112  -36.3059   24.0328 C   0  0  1  0  0  0
  -20.5904  -28.3680   23.1281 C   0  0  2  0  0  0
  -20.6787  -26.9399   22.5414 C   0  0  0  0  0  0
  -19.5759  -26.6380   21.5222 C   0  0  0  0  0  0
  -18.1935  -26.7920   22.1630 C   0  0  0  0  0  0
  -19.1551  -28.8848   23.2877 C   0  0  0  0  0  0
  -18.9477  -30.1445   23.8892 C   0  0  0  0  0  0
  -17.6477  -30.6582   24.0557 C   0  0  0  0  0  0
  -25.9067  -34.9429   23.5099 C   0  0  0  0  0  0
  -16.5369  -29.9074   23.6335 C   0  0  0  0  0  0
  -16.7284  -28.6489   23.0370 C   0  0  0  0  0  0
  -26.4513  -31.6571   25.0744 C   0  0  0  0  0  0
  -25.3738  -31.3728   26.1467 C   0  0  0  0  0  0
  -27.0367  -30.2982   24.6259 C   0  0  0  0  0  0
  -27.6071  -32.4316   25.7517 C   0  0  0  0  0  0
  -27.5581  -37.1770   24.8447 C   0  0  0  0  0  0
  -21.4216  -29.3030   22.3666 N   0  0  0  0  0  0
  -26.4275  -37.3764   23.9422 N   0  0  0  0  0  0
  -24.6999  -31.0488   22.1000 N   0  0  0  0  0  0
  -23.4198  -28.8111   23.3013 O   0  0  0  0  0  0
  -28.2787  -26.3133   20.2187 O   0  0  0  0  0  0
  -26.5653  -34.8897   22.4680 O   0  0  0  0  0  0
  -23.5480  -32.1377   23.7295 O   0  0  0  0  0  0
  -29.8806  -18.7355   22.2337 C   0  0  0  0  0  0
  -29.3571  -21.1474   22.2085 C   0  0  0  0  0  0
  -29.7656  -18.6505   20.8336 C   0  0  0  0  0  0
  -29.2051  -21.1674   20.7999 C   0  0  0  0  0  0
  -29.6854  -19.9618   22.9084 C   0  0  0  0  0  0
  -29.4230  -19.8851   20.1353 C   0  0  0  0  0  0
  -28.8102  -23.6313   20.5309 C   0  0  0  0  0  0
  -30.4630  -20.1710   18.0685 C   0  0  0  0  0  0
  -30.1514  -17.2793   20.1143 C   0  0  0  0  0  0
  -28.0124  -24.8614   19.8808 C   0  0  0  0  0  0
  -28.7607  -22.3781   20.1079 N   0  0  0  0  0  0
  -29.8313  -20.0041   24.2944 N   0  0  0  0  0  0
  -29.8792  -15.8829   20.6825 N   0  0  0  0  0  0
  -29.2800  -19.8297   18.7747 O   0  0  0  0  0  0
  -31.4755  -12.5572   19.1914 H   0  0  0  0  0  0
  -30.3649  -11.4717   19.9753 H   0  0  0  0  0  0
  -29.7980  -11.7295   17.5338 H   0  0  0  0  0  0
  -29.6404  -13.4576   17.7366 H   0  0  0  0  0  0
  -27.9043  -11.2772   18.9333 H   0  0  0  0  0  0
  -27.3827  -12.5027   17.8106 H   0  0  0  0  0  0
  -27.6403  -14.2506   19.4679 H   0  0  0  0  0  0
  -28.7148  -12.1819   21.4487 H   0  0  0  0  0  0
  -28.4195  -13.8667   21.7966 H   0  0  0  0  0  0
  -25.2775   -9.5681   22.4766 H   0  0  0  0  0  0
  -24.0002   -7.4643   22.7481 H   0  0  0  0  0  0
  -21.0851   -8.8797   19.8955 H   0  0  0  0  0  0
  -22.3727  -10.9686   19.6167 H   0  0  0  0  0  0
  -21.2007   -7.6152   23.9722 H   0  0  0  0  0  0
  -21.1478   -6.0519   25.9073 H   0  0  0  0  0  0
  -22.0602   -2.7620   23.2830 H   0  0  0  0  0  0
  -22.4081  -11.9856   22.4762 H   0  0  0  0  0  0
  -21.1107  -13.1271   22.2649 H   0  0  0  0  0  0
  -24.6540  -15.8452   20.5265 H   0  0  0  0  0  0
  -26.2711  -15.6362   20.0901 H   0  0  0  0  0  0
  -26.7198  -32.5376   23.1069 H   0  0  0  0  0  0
  -25.0030  -33.9684   25.0363 H   0  0  0  0  0  0
  -22.7271  -31.3039   21.4025 H   0  0  0  0  0  0
  -23.3758  -35.9614   23.3269 H   0  0  0  0  0  0
  -24.3596  -36.8955   22.2058 H   0  0  0  0  0  0
  -23.7232  -37.6470   23.6689 H   0  0  0  0  0  0
  -26.1187  -31.5203   20.6155 H   0  0  0  0  0  0
  -26.8560  -30.8078   22.0188 H   0  0  0  0  0  0
  -28.1061  -28.8803   21.2428 H   0  0  0  0  0  0
  -25.9316  -25.9561   18.9054 H   0  0  0  0  0  0
  -23.9725  -27.3486   18.9511 H   0  0  0  0  0  0
  -23.7648  -30.5999   19.4070 H   0  0  0  0  0  0
  -22.7634  -29.2530   19.8566 H   0  0  0  0  0  0
  -25.1273  -36.1905   25.0817 H   0  0  0  0  0  0
  -20.9990  -28.3258   24.1403 H   0  0  0  0  0  0
  -20.5711  -26.2282   23.3616 H   0  0  0  0  0  0
  -21.6647  -26.7443   22.1188 H   0  0  0  0  0  0
  -19.6930  -25.6292   21.1240 H   0  0  0  0  0  0
  -19.6698  -27.3205   20.6769 H   0  0  0  0  0  0
  -17.4209  -26.6684   21.4024 H   0  0  0  0  0  0
  -18.0312  -26.0068   22.9028 H   0  0  0  0  0  0
  -19.7964  -30.7251   24.2266 H   0  0  0  0  0  0
  -17.5044  -31.6277   24.5133 H   0  0  0  0  0  0
  -15.5362  -30.2969   23.7681 H   0  0  0  0  0  0
  -15.8688  -28.0794   22.7106 H   0  0  0  0  0  0
  -24.5943  -30.7036   25.7810 H   0  0  0  0  0  0
  -24.8891  -32.2893   26.4847 H   0  0  0  0  0  0
  -25.8060  -30.8957   27.0273 H   0  0  0  0  0  0
  -26.2964  -29.6712   24.1278 H   0  0  0  0  0  0
  -27.4022  -29.7262   25.4799 H   0  0  0  0  0  0
  -27.8852  -30.4241   23.9531 H   0  0  0  0  0  0
  -27.2701  -33.3646   26.2042 H   0  0  0  0  0  0
  -28.3910  -32.6821   25.0359 H   0  0  0  0  0  0
  -28.0699  -31.8467   26.5475 H   0  0  0  0  0  0
  -28.2529  -38.0132   24.7587 H   0  0  0  0  0  0
  -28.1152  -36.2671   24.6159 H   0  0  0  0  0  0
  -27.2329  -37.1277   25.8854 H   0  0  0  0  0  0
  -20.9402  -29.8750   21.6876 H   0  0  0  0  0  0
  -26.0158  -38.2828   24.1489 H   0  0  0  0  0  0
  -30.1565  -17.8500   22.7887 H   0  0  0  0  0  0
  -29.1984  -22.0530   22.7759 H   0  0  0  0  0  0
  -29.3754  -23.9107   21.4242 H   0  0  0  0  0  0
  -31.2854  -19.4962   18.3141 H   0  0  0  0  0  0
  -30.7766  -21.1938   18.2811 H   0  0  0  0  0  0
  -30.2729  -20.0925   16.9983 H   0  0  0  0  0  0
  -31.2256  -17.3566   19.9371 H   0  0  0  0  0  0
  -29.7068  -17.2951   19.1198 H   0  0  0  0  0  0
  -26.9834  -24.6326   20.1541 H   0  0  0  0  0  0
  -28.0687  -24.7582   18.7974 H   0  0  0  0  0  0
  -29.8862  -19.1494   24.8403 H   0  0  0  0  0  0
  -29.5301  -20.8154   24.8267 H   0  0  0  0  0  0
  -28.9344  -15.7223   20.9971 H   0  0  0  0  0  0
  1 25  1  0  0  0
  1 30  2  0  0  0
  1 83  1  0  0  0
  2  3  1  0  0  0
  2 25  1  0  0  0
  2 85  1  0  0  0
  2 86  1  0  0  0
  3  4  1  0  0  0
  3 87  1  0  0  0
  3 88  1  0  0  0
  4  5  1  0  0  0
  4 89  1  0  0  0
  4 90  1  0  0  0
  5  6  1  0  0  0
  5 26  1  0  0  0
  5 91  1  0  0  0
  6 25  1  0  0  0
  6 92  1  0  0  0
  6 93  1  0  0  0
  7  8  2  0  0  0
  7 26  1  0  0  0
  7 29  1  0  0  0
  8  9  1  0  0  0
  8 22  1  0  0  0
  9 10  1  0  0  0
  9 27  2  0  0  0
 10 11  2  0  0  0
 10 15  1  0  0  0
 11 12  1  0  0  0
 11 94  1  0  0  0
 12 13  2  0  0  0
 12 95  1  0  0  0
 13 14  1  0  0  0
 13 31  1  0  0  0
 14 15  2  0  0  0
 14 96  1  0  0  0
 15 97  1  0  0  0
 16 17  2  0  0  0
 16 21  1  0  0  0
 16 31  1  0  0  0
 17 18  1  0  0  0
 17 98  1  0  0  0
 18 19  2  0  0  0
 18 99  1  0  0  0
 19 20  1  0  0  0
 19 24  1  0  0  0
 20 21  2  0  0  0
 20100  1  0  0  0
 21 23  1  0  0  0
 22 28  1  0  0  0
 22 32  2  0  0  0
 26 27  1  0  0  0
 28101  1  0  0  0
 28102  1  0  0  0
 29103  1  0  0  0
 29104  1  0  0  0
 33 34  1  0  0  0
 33 66  1  0  0  0
 33 70  2  0  0  0
 34 36  1  0  0  0
 34 59  1  0  0  0
 34105  1  0  0  0
 35 44  2  0  0  0
 35 45  1  0  0  0
 35 68  1  0  0  0
 36 56  1  0  0  0
 36106  1  0  0  0
 37 39  1  0  0  0
 37 47  1  0  0  0
 37 66  1  0  0  0
 37107  1  0  0  0
 38 43  2  0  0  0
 38 46  1  0  0  0
 38 47  1  0  0  0
 39 64  1  0  0  0
 39 67  2  0  0  0
 40 52  1  0  0  0
 40 53  2  0  0  0
 40 58  1  0  0  0
 41108  1  0  0  0
 41109  1  0  0  0
 41110  1  0  0  0
 41 48  1  0  0  0
 42 43  1  0  0  0
 42 66  1  0  0  0
 42111  1  0  0  0
 42112  1  0  0  0
 43 44  1  0  0  0
 44113  1  0  0  0
 45 46  2  0  0  0
 45114  1  0  0  0
 46115  1  0  0  0
 47116  1  0  0  0
 47117  1  0  0  0
 48 56  1  0  0  0
 48 65  1  0  0  0
 48118  1  0  0  0
 49 50  1  0  0  0
 49 53  1  0  0  0
 49 64  1  0  0  0
 49119  1  0  0  0
 50 51  1  0  0  0
 50120  1  0  0  0
 50121  1  0  0  0
 51 52  1  0  0  0
 51122  1  0  0  0
 51123  1  0  0  0
 52124  1  0  0  0
 52125  1  0  0  0
 53 54  1  0  0  0
 54 55  2  0  0  0
 54126  1  0  0  0
 55 57  1  0  0  0
 55127  1  0  0  0
 56 69  2  0  0  0
 57 58  2  0  0  0
 57128  1  0  0  0
 58129  1  0  0  0
 59 60  1  0  0  0
 59 61  1  0  0  0
 59 62  1  0  0  0
 60130  1  0  0  0
 60131  1  0  0  0
 60132  1  0  0  0
 61133  1  0  0  0
 61134  1  0  0  0
 61135  1  0  0  0
 62136  1  0  0  0
 62137  1  0  0  0
 62138  1  0  0  0
 63 65  1  0  0  0
 63139  1  0  0  0
 63140  1  0  0  0
 63141  1  0  0  0
 64142  1  0  0  0
 65143  1  0  0  0
 68 80  1  0  0  0
 71 73  2  0  0  0
 71 75  1  0  0  0
 71144  1  0  0  0
 72 74  1  0  0  0
 72 75  2  0  0  0
 72145  1  0  0  0
 73 76  1  0  0  0
 73 79  1  0  0  0
 74 76  2  0  0  0
 74 81  1  0  0  0
 75 82  1  0  0  0
 76 84  1  0  0  0
 77 80  1  0  0  0
 77 81  2  0  0  0
 77146  1  0  0  0
 78 84  1  0  0  0
 78147  1  0  0  0
 78148  1  0  0  0
 78149  1  0  0  0
 79 83  1  0  0  0
 79150  1  0  0  0
 79151  1  0  0  0
 80152  1  0  0  0
 80153  1  0  0  0
 82154  1  0  0  0
 82155  1  0  0  0
 83156  1  0  0  0
M  ISO  4   1 100  68 101  80 101  83 100
M  END
> <chiral flag>
0

> <version>
0

> <s_m_source_file>
/data/baiqing/PycharmProjects/Reinvent-master-3.2/result/LINK_invent/BTK/process_docking_weight1_custom_product_contain_oxygen_bond_distance_aromatic_linkinvent_7_9_3/rearranged_h_0110.sdf

> <i_m_source_file_index>
82

> <r_mmod_Potential_Energy-OPLS-2005>
145.603469848633

> <r_mmod_Stretch_Energy-OPLS-2005>
129.369918823242

> <r_mmod_Bend_Energy-OPLS-2005>
174.592803955078

> <r_mmod_Torsional_Energy-OPLS-2005>
246.262191772461

> <r_mmod_Improper_Torsional_Energy-OPLS-2005>
8.94563961029053

> <r_mmod_Van_der_Waal_Energy-OPLS-2005>
144.71728515625

> <r_mmod_Electrostatic_Energy-OPLS-2005>
-416.085998535156

> <r_mmod_Solvation_Energy-OPLS-2005>
-234.181503295898

> <b_mmod_Minimization_Converged-OPLS-2005>
0

> <r_mmod_RMS_Derivative-OPLS-2005>
1.85000085830688

$$$$
83
                    3D
 Structure written by MMmdl.
157165  0  0  1  0            999 V2000
  -30.6266  -14.7466   20.5709 C   0  0  0  0  0  0
  -30.4507  -12.4919   19.4669 C   0  0  0  0  0  0
  -29.5071  -12.5456   18.2435 C   0  0  0  0  0  0
  -28.0388  -12.3556   18.6646 C   0  0  0  0  0  0
  -27.6567  -13.2306   19.8897 C   0  0  2  0  0  0
  -28.7171  -13.0759   21.0127 C   0  0  0  0  0  0
  -25.2343  -13.8118   20.5359 C   0  0  0  0  0  0
  -24.1729  -13.0364   20.9124 C   0  0  0  0  0  0
  -24.6395  -11.6875   20.8797 C   0  0  0  0  0  0
  -23.9074  -10.4256   21.0450 C   0  0  0  0  0  0
  -24.3601   -9.4177   21.9237 C   0  0  0  0  0  0
  -23.6268   -8.2217   22.0779 C   0  0  0  0  0  0
  -22.4257   -8.0268   21.3562 C   0  0  0  0  0  0
  -21.9899   -9.0235   20.4660 C   0  0  0  0  0  0
  -22.7238  -10.2113   20.3095 C   0  0  0  0  0  0
  -21.6818   -6.0731   22.5286 C   0  0  0  0  0  0
  -21.3988   -6.5645   23.8216 C   0  0  0  0  0  0
  -21.3662   -5.6805   24.9184 C   0  0  0  0  0  0
  -21.6034   -4.3062   24.7239 C   0  0  0  0  0  0
  -21.8819   -3.8156   23.4358 C   0  0  0  0  0  0
  -21.9177   -4.6966   22.3413 C   0  0  0  0  0  0
  -22.7748  -13.5135   21.1832 C   0  0  0  0  0  0
  -22.1671   -4.2164   21.0993 F   0  0  0  0  0  0
  -21.5624   -3.4540   25.7747 F   0  0  0  0  0  0
  -30.0060  -13.5095   20.4587 N   0  0  0  0  0  0
  -26.2974  -12.9416   20.3440 N   0  0  0  0  0  0
  -25.9382  -11.6555   20.5955 N   0  0  0  0  0  0
  -22.0422  -12.8137   22.0432 N   0  0  0  0  0  0
  -25.3645  -15.1778   20.3153 N   0  0  0  0  0  0
  -31.7078  -14.9191   19.9940 O   0  0  0  0  0  0
  -21.6635   -6.8861   21.4236 O   0  0  0  0  0  0
  -22.3415  -14.5451   20.6717 O   0  0  0  0  0  0
  -24.6341  -31.8531   23.1970 C   0  0  0  0  0  0
  -25.9154  -32.4736   23.8341 C   0  0  1  0  0  0
  -27.2258  -27.2247   20.1199 C   0  0  0  0  0  0
  -25.5932  -33.8548   24.2246 N   0  0  0  0  0  0
  -23.4334  -30.4763   21.5411 C   0  0  2  0  0  0
  -24.8829  -28.9202   20.1131 C   0  0  0  0  0  0
  -22.7517  -29.4600   22.4897 C   0  0  0  0  0  0
  -18.0300  -28.1388   22.8511 C   0  0  0  0  0  0
  -24.1500  -36.7282   23.2634 C   0  0  0  0  0  0
  -25.9858  -30.7488   21.3890 C   0  0  0  0  0  0
  -26.0568  -29.3693   20.7285 C   0  0  0  0  0  0
  -27.2251  -28.5332   20.7283 C   0  0  0  0  0  0
  -26.0200  -26.8628   19.4699 C   0  0  0  0  0  0
  -24.8707  -27.6748   19.4766 C   0  0  0  0  0  0
  -23.6567  -29.8116   20.1591 C   0  0  0  0  0  0
  -25.4123  -36.3055   24.0321 C   0  0  1  0  0  0
  -20.5902  -28.3719   23.1244 C   0  0  2  0  0  0
  -20.6795  -26.9443   22.5367 C   0  0  0  0  0  0
  -19.5739  -26.6395   21.5215 C   0  0  0  0  0  0
  -18.1942  -26.7918   22.1684 C   0  0  0  0  0  0
  -19.1546  -28.8879   23.2874 C   0  0  0  0  0  0
  -18.9465  -30.1489   23.8874 C   0  0  0  0  0  0
  -17.6449  -30.6593   24.0556 C   0  0  0  0  0  0
  -25.9063  -34.9428   23.5080 C   0  0  0  0  0  0
  -16.5356  -29.9070   23.6342 C   0  0  0  0  0  0
  -16.7282  -28.6491   23.0363 C   0  0  0  0  0  0
  -26.4505  -31.6569   25.0745 C   0  0  0  0  0  0
  -25.3704  -31.3738   26.1449 C   0  0  0  0  0  0
  -27.0355  -30.2964   24.6274 C   0  0  0  0  0  0
  -27.6061  -32.4322   25.7518 C   0  0  0  0  0  0
  -27.5583  -37.1798   24.8465 C   0  0  0  0  0  0
  -21.4216  -29.3087   22.3645 N   0  0  0  0  0  0
  -26.4297  -37.3758   23.9399 N   0  0  0  0  0  0
  -24.7035  -31.0453   22.0977 N   0  0  0  0  0  0
  -23.4195  -28.8115   23.3001 O   0  0  0  0  0  0
  -28.3231  -26.3099   20.1789 O   0  0  0  0  0  0
  -26.5643  -34.8906   22.4652 O   0  0  0  0  0  0
  -23.5472  -32.1411   23.7218 O   0  0  0  0  0  0
  -27.1336  -18.3739   21.5408 C   0  0  0  0  0  0
  -27.6322  -19.5897   21.0697 C   0  0  0  0  0  0
  -29.3037  -17.2140   21.2505 C   0  0  0  0  0  0
  -27.9475  -17.2427   21.7087 C   0  0  0  0  0  0
  -28.9931  -19.7660   20.7463 C   0  0  0  0  0  0
  -29.8120  -18.5286   20.8088 C   0  0  0  0  0  0
  -28.8559  -23.7860   20.4102 C   0  0  0  0  0  0
  -28.1865  -24.8996   19.8997 C   0  0  0  0  0  0
  -30.1248  -15.8922   21.5839 C   0  0  0  0  0  0
  -27.3146  -16.1199   22.5174 C   0  0  0  0  0  0
  -31.9194  -19.5799   21.0988 C   0  0  0  0  0  0
  -28.5564  -22.2524   20.0404 C   0  0  0  0  0  0
  -30.4471  -15.7194   22.8017 N   0  0  0  0  0  0
  -31.1452  -18.5677   20.4707 O   0  0  0  0  0  0
  -29.4568  -21.1047   20.4630 O   0  0  0  0  0  0
  -31.4787  -12.6505   19.1368 H   0  0  0  0  0  0
  -30.4486  -11.4960   19.9133 H   0  0  0  0  0  0
  -29.7853  -11.7764   17.5219 H   0  0  0  0  0  0
  -29.6222  -13.5063   17.7388 H   0  0  0  0  0  0
  -27.9086  -11.3000   18.9130 H   0  0  0  0  0  0
  -27.3717  -12.5537   17.8269 H   0  0  0  0  0  0
  -27.6733  -14.2686   19.5561 H   0  0  0  0  0  0
  -28.7808  -12.0284   21.3137 H   0  0  0  0  0  0
  -28.4819  -13.5984   21.9322 H   0  0  0  0  0  0
  -25.2729   -9.5632   22.4840 H   0  0  0  0  0  0
  -23.9979   -7.4573   22.7450 H   0  0  0  0  0  0
  -21.0863   -8.8699   19.8921 H   0  0  0  0  0  0
  -22.3684  -10.9648   19.6208 H   0  0  0  0  0  0
  -21.1980   -7.6155   23.9720 H   0  0  0  0  0  0
  -21.1489   -6.0544   25.9081 H   0  0  0  0  0  0
  -22.0598   -2.7623   23.2851 H   0  0  0  0  0  0
  -22.4001  -11.9784   22.4839 H   0  0  0  0  0  0
  -21.1050  -13.1173   22.2670 H   0  0  0  0  0  0
  -24.5836  -15.8158   20.4215 H   0  0  0  0  0  0
  -26.2128  -15.6404   20.0171 H   0  0  0  0  0  0
  -26.7211  -32.5365   23.1072 H   0  0  0  0  0  0
  -25.0066  -33.9703   25.0375 H   0  0  0  0  0  0
  -22.7319  -31.2994   21.3903 H   0  0  0  0  0  0
  -23.3765  -35.9614   23.3298 H   0  0  0  0  0  0
  -24.3582  -36.8906   22.2048 H   0  0  0  0  0  0
  -23.7271  -37.6483   23.6670 H   0  0  0  0  0  0
  -26.1346  -31.5079   20.6205 H   0  0  0  0  0  0
  -26.8588  -30.7934   22.0271 H   0  0  0  0  0  0
  -28.1156  -28.8700   21.2407 H   0  0  0  0  0  0
  -25.9026  -25.9263   18.9541 H   0  0  0  0  0  0
  -23.9717  -27.3258   18.9871 H   0  0  0  0  0  0
  -23.7862  -30.5880   19.4053 H   0  0  0  0  0  0
  -22.7760  -29.2467   19.8492 H   0  0  0  0  0  0
  -25.1305  -36.1899   25.0816 H   0  0  0  0  0  0
  -21.0011  -28.3265   24.1355 H   0  0  0  0  0  0
  -20.5763  -26.2308   23.3543 H   0  0  0  0  0  0
  -21.6635  -26.7492   22.1074 H   0  0  0  0  0  0
  -19.6909  -25.6302   21.1249 H   0  0  0  0  0  0
  -19.6643  -27.3210   20.6740 H   0  0  0  0  0  0
  -17.4168  -26.6615   21.4147 H   0  0  0  0  0  0
  -18.0432  -26.0092   22.9126 H   0  0  0  0  0  0
  -19.7938  -30.7330   24.2200 H   0  0  0  0  0  0
  -17.4995  -31.6287   24.5137 H   0  0  0  0  0  0
  -15.5352  -30.2942   23.7679 H   0  0  0  0  0  0
  -15.8684  -28.0797   22.7075 H   0  0  0  0  0  0
  -24.5900  -30.7060   25.7772 H   0  0  0  0  0  0
  -24.8870  -32.2910   26.4825 H   0  0  0  0  0  0
  -25.8002  -30.8957   27.0256 H   0  0  0  0  0  0
  -26.2953  -29.6709   24.1265 H   0  0  0  0  0  0
  -27.3961  -29.7234   25.4826 H   0  0  0  0  0  0
  -27.8871  -30.4209   23.9584 H   0  0  0  0  0  0
  -27.2671  -33.3633   26.2069 H   0  0  0  0  0  0
  -28.3881  -32.6857   25.0352 H   0  0  0  0  0  0
  -28.0714  -31.8466   26.5451 H   0  0  0  0  0  0
  -28.2590  -38.0102   24.7491 H   0  0  0  0  0  0
  -28.1091  -36.2629   24.6316 H   0  0  0  0  0  0
  -27.2300  -37.1470   25.8867 H   0  0  0  0  0  0
  -20.9396  -29.8826   21.6856 H   0  0  0  0  0  0
  -26.0176  -38.2825   24.1393 H   0  0  0  0  0  0
  -26.1004  -18.3455   21.8609 H   0  0  0  0  0  0
  -26.9179  -20.3928   21.0659 H   0  0  0  0  0  0
  -29.6323  -23.9381   21.1450 H   0  0  0  0  0  0
  -27.4411  -24.7077   19.1481 H   0  0  0  0  0  0
  -27.2672  -15.2155   21.9357 H   0  0  0  0  0  0
  -26.2868  -16.3503   22.8011 H   0  0  0  0  0  0
  -27.8559  -15.9283   23.4423 H   0  0  0  0  0  0
  -31.9028  -20.5211   20.5469 H   0  0  0  0  0  0
  -32.9568  -19.2482   21.1450 H   0  0  0  0  0  0
  -31.5906  -19.7540   22.1247 H   0  0  0  0  0  0
  -28.4934  -22.1980   18.9525 H   0  0  0  0  0  0
  -27.5317  -22.1251   20.3700 H   0  0  0  0  0  0
  -30.1034  -16.4770   23.3786 H   0  0  0  0  0  0
  1 25  1  0  0  0
  1 30  2  0  0  0
  1 79  1  0  0  0
  2  3  1  0  0  0
  2 25  1  0  0  0
  2 86  1  0  0  0
  2 87  1  0  0  0
  3  4  1  0  0  0
  3 88  1  0  0  0
  3 89  1  0  0  0
  4  5  1  0  0  0
  4 90  1  0  0  0
  4 91  1  0  0  0
  5  6  1  0  0  0
  5 26  1  0  0  0
  5 92  1  0  0  0
  6 25  1  0  0  0
  6 93  1  0  0  0
  6 94  1  0  0  0
  7  8  2  0  0  0
  7 26  1  0  0  0
  7 29  1  0  0  0
  8  9  1  0  0  0
  8 22  1  0  0  0
  9 10  1  0  0  0
  9 27  2  0  0  0
 10 11  2  0  0  0
 10 15  1  0  0  0
 11 12  1  0  0  0
 11 95  1  0  0  0
 12 13  2  0  0  0
 12 96  1  0  0  0
 13 14  1  0  0  0
 13 31  1  0  0  0
 14 15  2  0  0  0
 14 97  1  0  0  0
 15 98  1  0  0  0
 16 17  2  0  0  0
 16 21  1  0  0  0
 16 31  1  0  0  0
 17 18  1  0  0  0
 17 99  1  0  0  0
 18 19  2  0  0  0
 18100  1  0  0  0
 19 20  1  0  0  0
 19 24  1  0  0  0
 20 21  2  0  0  0
 20101  1  0  0  0
 21 23  1  0  0  0
 22 28  1  0  0  0
 22 32  2  0  0  0
 26 27  1  0  0  0
 28102  1  0  0  0
 28103  1  0  0  0
 29104  1  0  0  0
 29105  1  0  0  0
 33 34  1  0  0  0
 33 66  1  0  0  0
 33 70  2  0  0  0
 34 36  1  0  0  0
 34 59  1  0  0  0
 34106  1  0  0  0
 35 44  2  0  0  0
 35 45  1  0  0  0
 35 68  1  0  0  0
 36 56  1  0  0  0
 36107  1  0  0  0
 37 39  1  0  0  0
 37 47  1  0  0  0
 37 66  1  0  0  0
 37108  1  0  0  0
 38 43  2  0  0  0
 38 46  1  0  0  0
 38 47  1  0  0  0
 39 64  1  0  0  0
 39 67  2  0  0  0
 40 52  1  0  0  0
 40 53  2  0  0  0
 40 58  1  0  0  0
 41109  1  0  0  0
 41110  1  0  0  0
 41111  1  0  0  0
 41 48  1  0  0  0
 42 43  1  0  0  0
 42 66  1  0  0  0
 42112  1  0  0  0
 42113  1  0  0  0
 43 44  1  0  0  0
 44114  1  0  0  0
 45 46  2  0  0  0
 45115  1  0  0  0
 46116  1  0  0  0
 47117  1  0  0  0
 47118  1  0  0  0
 48 56  1  0  0  0
 48 65  1  0  0  0
 48119  1  0  0  0
 49 50  1  0  0  0
 49 53  1  0  0  0
 49 64  1  0  0  0
 49120  1  0  0  0
 50 51  1  0  0  0
 50121  1  0  0  0
 50122  1  0  0  0
 51 52  1  0  0  0
 51123  1  0  0  0
 51124  1  0  0  0
 52125  1  0  0  0
 52126  1  0  0  0
 53 54  1  0  0  0
 54 55  2  0  0  0
 54127  1  0  0  0
 55 57  1  0  0  0
 55128  1  0  0  0
 56 69  2  0  0  0
 57 58  2  0  0  0
 57129  1  0  0  0
 58130  1  0  0  0
 59 60  1  0  0  0
 59 61  1  0  0  0
 59 62  1  0  0  0
 60131  1  0  0  0
 60132  1  0  0  0
 60133  1  0  0  0
 61134  1  0  0  0
 61135  1  0  0  0
 61136  1  0  0  0
 62137  1  0  0  0
 62138  1  0  0  0
 62139  1  0  0  0
 63 65  1  0  0  0
 63140  1  0  0  0
 63141  1  0  0  0
 63142  1  0  0  0
 64143  1  0  0  0
 65144  1  0  0  0
 68 78  1  0  0  0
 71 72  2  0  0  0
 71 74  1  0  0  0
 71145  1  0  0  0
 72 75  1  0  0  0
 72146  1  0  0  0
 73 74  2  0  0  0
 73 76  1  0  0  0
 73 79  1  0  0  0
 74 80  1  0  0  0
 75 76  2  0  0  0
 75 85  1  0  0  0
 76 84  1  0  0  0
 77 78  2  0  0  0
 77 82  1  0  0  0
 77147  1  0  0  0
 78148  1  0  0  0
 79 83  2  0  0  0
 80149  1  0  0  0
 80150  1  0  0  0
 80151  1  0  0  0
 81 84  1  0  0  0
 81152  1  0  0  0
 81153  1  0  0  0
 81154  1  0  0  0
 82 85  1  0  0  0
 82155  1  0  0  0
 82156  1  0  0  0
 83157  1  0  0  0
M  ISO  4   1 100  68 101  78 101  79 100
M  END
> <chiral flag>
0

> <version>
0

> <s_m_source_file>
/data/baiqing/PycharmProjects/Reinvent-master-3.2/result/LINK_invent/BTK/process_docking_weight1_custom_product_contain_oxygen_bond_distance_aromatic_linkinvent_7_9_3/rearranged_h_0110.sdf

> <i_m_source_file_index>
83

> <r_mmod_Potential_Energy-OPLS-2005>
533.74658203125

> <r_mmod_Stretch_Energy-OPLS-2005>
179.386581420898

> <r_mmod_Bend_Energy-OPLS-2005>
229.734909057617

> <r_mmod_Torsional_Energy-OPLS-2005>
264.480682373047

> <r_mmod_Improper_Torsional_Energy-OPLS-2005>
7.1251106262207

> <r_mmod_Van_der_Waal_Energy-OPLS-2005>
159.702224731445

> <r_mmod_Electrostatic_Energy-OPLS-2005>
-197.218826293945

> <r_mmod_Solvation_Energy-OPLS-2005>
-203.529525756836

> <b_mmod_Minimization_Converged-OPLS-2005>
0

> <r_mmod_RMS_Derivative-OPLS-2005>
3.10771918296814

$$$$
84
                    3D
 Structure written by MMmdl.
162170  0  0  1  0            999 V2000
  -30.6557  -14.5819   20.6496 C   0  0  0  0  0  0
  -30.4463  -12.4088   19.4230 C   0  0  0  0  0  0
  -29.4948  -12.5310   18.2083 C   0  0  0  0  0  0
  -28.0167  -12.3679   18.6070 C   0  0  0  0  0  0
  -27.6581  -13.1919   19.8730 C   0  0  2  0  0  0
  -28.6995  -12.8878   20.9636 C   0  0  0  0  0  0
  -25.2584  -13.8126   20.5674 C   0  0  0  0  0  0
  -24.1808  -13.0437   20.9164 C   0  0  0  0  0  0
  -24.6352  -11.6893   20.8727 C   0  0  0  0  0  0
  -23.9041  -10.4298   21.0442 C   0  0  0  0  0  0
  -24.3596   -9.4219   21.9223 C   0  0  0  0  0  0
  -23.6265   -8.2264   22.0779 C   0  0  0  0  0  0
  -22.4245   -8.0308   21.3584 C   0  0  0  0  0  0
  -21.9899   -9.0280   20.4690 C   0  0  0  0  0  0
  -22.7226  -10.2157   20.3082 C   0  0  0  0  0  0
  -21.6836   -6.0752   22.5286 C   0  0  0  0  0  0
  -21.4003   -6.5669   23.8228 C   0  0  0  0  0  0
  -21.3644   -5.6831   24.9197 C   0  0  0  0  0  0
  -21.6036   -4.3090   24.7261 C   0  0  0  0  0  0
  -21.8811   -3.8166   23.4380 C   0  0  0  0  0  0
  -21.9199   -4.6975   22.3421 C   0  0  0  0  0  0
  -22.7846  -13.5272   21.1866 C   0  0  0  0  0  0
  -22.1649   -4.2150   21.1005 F   0  0  0  0  0  0
  -21.5646   -3.4562   25.7779 F   0  0  0  0  0  0
  -30.0044  -13.3711   20.4658 N   0  0  0  0  0  0
  -26.2980  -12.9261   20.3314 N   0  0  0  0  0  0
  -25.9255  -11.6433   20.5697 N   0  0  0  0  0  0
  -22.0466  -12.8231   22.0396 N   0  0  0  0  0  0
  -25.4404  -15.1830   20.4173 N   0  0  0  0  0  0
  -31.7739  -14.7286   20.1343 O   0  0  0  0  0  0
  -21.6635   -6.8877   21.4247 O   0  0  0  0  0  0
  -22.3552  -14.5631   20.6804 O   0  0  0  0  0  0
  -24.6195  -31.8630   23.2056 C   0  0  0  0  0  0
  -25.9053  -32.4806   23.8381 C   0  0  1  0  0  0
  -27.2333  -27.3729   20.1138 C   0  0  0  0  0  0
  -25.5880  -33.8602   24.2323 N   0  0  0  0  0  0
  -23.4120  -30.4829   21.5497 C   0  0  2  0  0  0
  -24.8591  -28.9333   20.1235 C   0  0  0  0  0  0
  -22.7430  -29.4664   22.5006 C   0  0  0  0  0  0
  -18.0271  -28.1359   22.8476 C   0  0  0  0  0  0
  -24.1479  -36.7312   23.2631 C   0  0  0  0  0  0
  -25.9485  -30.8096   21.3671 C   0  0  0  0  0  0
  -26.0245  -29.4388   20.7143 C   0  0  0  0  0  0
  -27.2170  -28.6692   20.6984 C   0  0  0  0  0  0
  -26.0474  -26.8960   19.5182 C   0  0  0  0  0  0
  -24.8679  -27.6656   19.5172 C   0  0  0  0  0  0
  -23.6255  -29.8112   20.1686 C   0  0  0  0  0  0
  -25.4090  -36.3115   24.0347 C   0  0  1  0  0  0
  -20.5852  -28.3679   23.1337 C   0  0  2  0  0  0
  -20.6819  -26.9383   22.5477 C   0  0  0  0  0  0
  -19.5824  -26.6389   21.5220 C   0  0  0  0  0  0
  -18.1992  -26.7926   22.1611 C   0  0  0  0  0  0
  -19.1496  -28.8827   23.2904 C   0  0  0  0  0  0
  -18.9385  -30.1443   23.8881 C   0  0  0  0  0  0
  -17.6400  -30.6576   24.0543 C   0  0  0  0  0  0
  -25.9008  -34.9471   23.5133 C   0  0  0  0  0  0
  -16.5291  -29.9006   23.6374 C   0  0  0  0  0  0
  -16.7242  -28.6446   23.0318 C   0  0  0  0  0  0
  -26.4453  -31.6605   25.0747 C   0  0  0  0  0  0
  -25.3730  -31.3720   26.1493 C   0  0  0  0  0  0
  -27.0308  -30.3055   24.6189 C   0  0  0  0  0  0
  -27.6050  -32.4301   25.7499 C   0  0  0  0  0  0
  -27.5574  -37.1818   24.8472 C   0  0  0  0  0  0
  -21.4151  -29.3068   22.3735 N   0  0  0  0  0  0
  -26.4298  -37.3801   23.9396 N   0  0  0  0  0  0
  -24.6795  -31.0690   22.0982 N   0  0  0  0  0  0
  -23.4168  -28.8212   23.3077 O   0  0  0  0  0  0
  -28.3795  -26.5932   20.0877 O   0  0  0  0  0  0
  -26.5609  -34.8936   22.4713 O   0  0  0  0  0  0
  -23.5389  -32.1374   23.7435 O   0  0  0  0  0  0
  -32.1972  -18.6598   22.0422 C   0  0  0  0  0  0
  -31.7223  -17.3377   21.9587 C   0  0  0  0  0  0
  -29.9541  -18.0927   20.4682 C   0  0  0  0  0  0
  -31.5589  -19.7093   21.3509 C   0  0  0  0  0  0
  -30.5978  -17.0196   21.1638 C   0  0  0  0  0  0
  -30.4049  -19.4484   20.5662 C   0  0  0  0  0  0
  -28.5405  -24.0837   19.7014 C   0  0  0  0  0  0
  -32.1749  -21.0954   21.4431 C   0  0  0  0  0  0
  -28.6412  -16.7836   23.1404 C   0  0  0  0  0  0
  -29.6474  -23.0196   19.9966 C   0  0  0  0  0  0
  -28.2983  -25.2659   20.6910 C   0  0  0  0  0  0
  -28.9587  -15.5535   22.2622 C   0  0  0  0  0  0
  -29.2068  -21.6077   20.5409 C   0  0  0  0  0  0
  -30.0338  -15.6788   21.2477 N   0  0  0  0  0  0
  -27.8608  -23.9873   18.6772 O   0  0  0  0  0  0
  -29.7662  -20.4586   19.8468 O   0  0  0  0  0  0
  -31.4736  -12.5816   19.0957 H   0  0  0  0  0  0
  -30.4537  -11.3884   19.8097 H   0  0  0  0  0  0
  -29.7597  -11.7928   17.4486 H   0  0  0  0  0  0
  -29.6293  -13.5045   17.7344 H   0  0  0  0  0  0
  -27.8408  -11.3073   18.7946 H   0  0  0  0  0  0
  -27.3620  -12.6451   17.7773 H   0  0  0  0  0  0
  -27.7236  -14.2479   19.6077 H   0  0  0  0  0  0
  -28.7421  -11.8054   21.0974 H   0  0  0  0  0  0
  -28.3909  -13.1924   21.9515 H   0  0  0  0  0  0
  -25.2739   -9.5708   22.4807 H   0  0  0  0  0  0
  -24.0011   -7.4646   22.7477 H   0  0  0  0  0  0
  -21.0849   -8.8783   19.8972 H   0  0  0  0  0  0
  -22.3690  -10.9698   19.6202 H   0  0  0  0  0  0
  -21.1958   -7.6166   23.9710 H   0  0  0  0  0  0
  -21.1459   -6.0578   25.9105 H   0  0  0  0  0  0
  -22.0587   -2.7607   23.2888 H   0  0  0  0  0  0
  -22.4071  -11.9873   22.4747 H   0  0  0  0  0  0
  -21.1115  -13.1293   22.2664 H   0  0  0  0  0  0
  -24.6991  -15.8567   20.5890 H   0  0  0  0  0  0
  -26.3170  -15.6103   20.1496 H   0  0  0  0  0  0
  -26.7149  -32.5507   23.1141 H   0  0  0  0  0  0
  -25.0053  -33.9779   25.0479 H   0  0  0  0  0  0
  -22.7041  -31.3001   21.4049 H   0  0  0  0  0  0
  -23.3750  -35.9645   23.3313 H   0  0  0  0  0  0
  -24.3578  -36.8900   22.2052 H   0  0  0  0  0  0
  -23.7232  -37.6510   23.6636 H   0  0  0  0  0  0
  -26.0748  -31.5708   20.5942 H   0  0  0  0  0  0
  -26.8277  -30.8621   21.9947 H   0  0  0  0  0  0
  -28.1168  -29.0545   21.1554 H   0  0  0  0  0  0
  -26.0366  -25.9222   19.0500 H   0  0  0  0  0  0
  -23.9695  -27.2664   19.0632 H   0  0  0  0  0  0
  -23.7545  -30.5806   19.4085 H   0  0  0  0  0  0
  -22.7472  -29.2406   19.8631 H   0  0  0  0  0  0
  -25.1277  -36.1961   25.0859 H   0  0  0  0  0  0
  -20.9956  -28.3278   24.1437 H   0  0  0  0  0  0
  -20.5680  -26.2212   23.3641 H   0  0  0  0  0  0
  -21.6748  -26.7535   22.1334 H   0  0  0  0  0  0
  -19.7049  -25.6296   21.1208 H   0  0  0  0  0  0
  -19.6850  -27.3184   20.6718 H   0  0  0  0  0  0
  -17.4292  -26.6745   21.3999 H   0  0  0  0  0  0
  -18.0360  -26.0059   22.9002 H   0  0  0  0  0  0
  -19.7814  -30.7293   24.2263 H   0  0  0  0  0  0
  -17.4985  -31.6287   24.5114 H   0  0  0  0  0  0
  -15.5289  -30.2919   23.7798 H   0  0  0  0  0  0
  -15.8654  -28.0755   22.6961 H   0  0  0  0  0  0
  -24.5903  -30.7059   25.7821 H   0  0  0  0  0  0
  -24.8927  -32.2903   26.4934 H   0  0  0  0  0  0
  -25.8079  -30.8894   27.0259 H   0  0  0  0  0  0
  -26.2907  -29.6787   24.1221 H   0  0  0  0  0  0
  -27.4020  -29.7319   25.4688 H   0  0  0  0  0  0
  -27.8751  -30.4351   23.9410 H   0  0  0  0  0  0
  -27.2692  -33.3596   26.2101 H   0  0  0  0  0  0
  -28.3832  -32.6844   25.0296 H   0  0  0  0  0  0
  -28.0738  -31.8409   26.5379 H   0  0  0  0  0  0
  -28.2630  -38.0090   24.7507 H   0  0  0  0  0  0
  -28.1056  -36.2629   24.6315 H   0  0  0  0  0  0
  -27.2327  -37.1485   25.8896 H   0  0  0  0  0  0
  -20.9293  -29.8743   21.6933 H   0  0  0  0  0  0
  -26.0180  -38.2879   24.1385 H   0  0  0  0  0  0
  -33.0657  -18.8677   22.6526 H   0  0  0  0  0  0
  -32.2168  -16.5671   22.5327 H   0  0  0  0  0  0
  -29.0690  -17.8791   19.8884 H   0  0  0  0  0  0
  -33.2403  -21.0350   21.6725 H   0  0  0  0  0  0
  -31.6913  -21.6810   22.2261 H   0  0  0  0  0  0
  -32.0874  -21.6331   20.4983 H   0  0  0  0  0  0
  -27.8592  -16.5317   23.8569 H   0  0  0  0  0  0
  -28.2717  -17.6280   22.5612 H   0  0  0  0  0  0
  -29.5130  -17.1070   23.7090 H   0  0  0  0  0  0
  -30.3871  -23.4633   20.6660 H   0  0  0  0  0  0
  -30.1713  -22.8753   19.0477 H   0  0  0  0  0  0
  -29.0299  -25.1988   21.4934 H   0  0  0  0  0  0
  -27.3224  -25.1225   21.1547 H   0  0  0  0  0  0
  -28.0264  -15.2873   21.7712 H   0  0  0  0  0  0
  -29.2392  -14.7691   22.9643 H   0  0  0  0  0  0
  -28.1236  -21.5149   20.4643 H   0  0  0  0  0  0
  -29.4185  -21.5528   21.6065 H   0  0  0  0  0  0
  1 25  1  0  0  0
  1 30  2  0  0  0
  1 84  1  0  0  0
  2  3  1  0  0  0
  2 25  1  0  0  0
  2 87  1  0  0  0
  2 88  1  0  0  0
  3  4  1  0  0  0
  3 89  1  0  0  0
  3 90  1  0  0  0
  4  5  1  0  0  0
  4 91  1  0  0  0
  4 92  1  0  0  0
  5  6  1  0  0  0
  5 26  1  0  0  0
  5 93  1  0  0  0
  6 25  1  0  0  0
  6 94  1  0  0  0
  6 95  1  0  0  0
  7  8  2  0  0  0
  7 26  1  0  0  0
  7 29  1  0  0  0
  8  9  1  0  0  0
  8 22  1  0  0  0
  9 10  1  0  0  0
  9 27  2  0  0  0
 10 11  2  0  0  0
 10 15  1  0  0  0
 11 12  1  0  0  0
 11 96  1  0  0  0
 12 13  2  0  0  0
 12 97  1  0  0  0
 13 14  1  0  0  0
 13 31  1  0  0  0
 14 15  2  0  0  0
 14 98  1  0  0  0
 15 99  1  0  0  0
 16 17  2  0  0  0
 16 21  1  0  0  0
 16 31  1  0  0  0
 17 18  1  0  0  0
 17100  1  0  0  0
 18 19  2  0  0  0
 18101  1  0  0  0
 19 20  1  0  0  0
 19 24  1  0  0  0
 20 21  2  0  0  0
 20102  1  0  0  0
 21 23  1  0  0  0
 22 28  1  0  0  0
 22 32  2  0  0  0
 26 27  1  0  0  0
 28103  1  0  0  0
 28104  1  0  0  0
 29105  1  0  0  0
 29106  1  0  0  0
 33 34  1  0  0  0
 33 66  1  0  0  0
 33 70  2  0  0  0
 34 36  1  0  0  0
 34 59  1  0  0  0
 34107  1  0  0  0
 35 44  2  0  0  0
 35 45  1  0  0  0
 35 68  1  0  0  0
 36 56  1  0  0  0
 36108  1  0  0  0
 37 39  1  0  0  0
 37 47  1  0  0  0
 37 66  1  0  0  0
 37109  1  0  0  0
 38 43  2  0  0  0
 38 46  1  0  0  0
 38 47  1  0  0  0
 39 64  1  0  0  0
 39 67  2  0  0  0
 40 52  1  0  0  0
 40 53  2  0  0  0
 40 58  1  0  0  0
 41110  1  0  0  0
 41111  1  0  0  0
 41112  1  0  0  0
 41 48  1  0  0  0
 42 43  1  0  0  0
 42 66  1  0  0  0
 42113  1  0  0  0
 42114  1  0  0  0
 43 44  1  0  0  0
 44115  1  0  0  0
 45 46  2  0  0  0
 45116  1  0  0  0
 46117  1  0  0  0
 47118  1  0  0  0
 47119  1  0  0  0
 48 56  1  0  0  0
 48 65  1  0  0  0
 48120  1  0  0  0
 49 50  1  0  0  0
 49 53  1  0  0  0
 49 64  1  0  0  0
 49121  1  0  0  0
 50 51  1  0  0  0
 50122  1  0  0  0
 50123  1  0  0  0
 51 52  1  0  0  0
 51124  1  0  0  0
 51125  1  0  0  0
 52126  1  0  0  0
 52127  1  0  0  0
 53 54  1  0  0  0
 54 55  2  0  0  0
 54128  1  0  0  0
 55 57  1  0  0  0
 55129  1  0  0  0
 56 69  2  0  0  0
 57 58  2  0  0  0
 57130  1  0  0  0
 58131  1  0  0  0
 59 60  1  0  0  0
 59 61  1  0  0  0
 59 62  1  0  0  0
 60132  1  0  0  0
 60133  1  0  0  0
 60134  1  0  0  0
 61135  1  0  0  0
 61136  1  0  0  0
 61137  1  0  0  0
 62138  1  0  0  0
 62139  1  0  0  0
 62140  1  0  0  0
 63 65  1  0  0  0
 63141  1  0  0  0
 63142  1  0  0  0
 63143  1  0  0  0
 64144  1  0  0  0
 65145  1  0  0  0
 68 81  1  0  0  0
 71 72  2  0  0  0
 71 74  1  0  0  0
 71146  1  0  0  0
 72 75  1  0  0  0
 72147  1  0  0  0
 73 75  2  0  0  0
 73 76  1  0  0  0
 73148  1  0  0  0
 74 76  2  0  0  0
 74 78  1  0  0  0
 75 84  1  0  0  0
 76 86  1  0  0  0
 77 80  1  0  0  0
 77 81  1  0  0  0
 77 85  2  0  0  0
 78149  1  0  0  0
 78150  1  0  0  0
 78151  1  0  0  0
 79 82  1  0  0  0
 79152  1  0  0  0
 79153  1  0  0  0
 79154  1  0  0  0
 80 83  1  0  0  0
 80155  1  0  0  0
 80156  1  0  0  0
 81157  1  0  0  0
 81158  1  0  0  0
 82 84  1  0  0  0
 82159  1  0  0  0
 82160  1  0  0  0
 83 86  1  0  0  0
 83161  1  0  0  0
 83162  1  0  0  0
M  ISO  4   1 100  68 101  81 101  84 100
M  END
> <chiral flag>
0

> <version>
0

> <s_m_source_file>
/data/baiqing/PycharmProjects/Reinvent-master-3.2/result/LINK_invent/BTK/process_docking_weight1_custom_product_contain_oxygen_bond_distance_aromatic_linkinvent_7_9_3/rearranged_h_0110.sdf

> <i_m_source_file_index>
84

> <r_mmod_Potential_Energy-OPLS-2005>
277.207550048828

> <r_mmod_Stretch_Energy-OPLS-2005>
71.9548416137695

> <r_mmod_Bend_Energy-OPLS-2005>
152.303100585938

> <r_mmod_Torsional_Energy-OPLS-2005>
349.022064208984

> <r_mmod_Improper_Torsional_Energy-OPLS-2005>
4.95208501815796

> <r_mmod_Van_der_Waal_Energy-OPLS-2005>
161.995040893555

> <r_mmod_Electrostatic_Energy-OPLS-2005>
-277.895141601562

> <r_mmod_Solvation_Energy-OPLS-2005>
-212.315490722656

> <b_mmod_Minimization_Converged-OPLS-2005>
0

> <r_mmod_RMS_Derivative-OPLS-2005>
6.34527158737183

$$$$
85
                    3D
 Structure written by MMmdl.
172181  0  0  1  0            999 V2000
  -30.6847  -14.5623   20.4762 C   0  0  0  0  0  0
  -30.4243  -12.3304   19.4579 C   0  0  0  0  0  0
  -29.5072  -12.4812   18.2255 C   0  0  0  0  0  0
  -28.0274  -12.3355   18.6310 C   0  0  0  0  0  0
  -27.6540  -13.2172   19.8533 C   0  0  2  0  0  0
  -28.6955  -13.0839   20.9846 C   0  0  0  0  0  0
  -25.2583  -13.8169   20.5646 C   0  0  0  0  0  0
  -24.1834  -13.0444   20.9152 C   0  0  0  0  0  0
  -24.6405  -11.6917   20.8723 C   0  0  0  0  0  0
  -23.9073  -10.4296   21.0406 C   0  0  0  0  0  0
  -24.3626   -9.4205   21.9181 C   0  0  0  0  0  0
  -23.6297   -8.2247   22.0754 C   0  0  0  0  0  0
  -22.4280   -8.0286   21.3546 C   0  0  0  0  0  0
  -21.9917   -9.0258   20.4650 C   0  0  0  0  0  0
  -22.7249  -10.2135   20.3052 C   0  0  0  0  0  0
  -21.6855   -6.0732   22.5278 C   0  0  0  0  0  0
  -21.4010   -6.5637   23.8208 C   0  0  0  0  0  0
  -21.3651   -5.6791   24.9171 C   0  0  0  0  0  0
  -21.6043   -4.3056   24.7228 C   0  0  0  0  0  0
  -21.8824   -3.8145   23.4353 C   0  0  0  0  0  0
  -21.9195   -4.6958   22.3407 C   0  0  0  0  0  0
  -22.7863  -13.5251   21.1816 C   0  0  0  0  0  0
  -22.1669   -4.2142   21.0986 F   0  0  0  0  0  0
  -21.5623   -3.4544   25.7744 F   0  0  0  0  0  0
  -30.0273  -13.3654   20.4295 N   0  0  0  0  0  0
  -26.3004  -12.9360   20.3279 N   0  0  0  0  0  0
  -25.9331  -11.6513   20.5734 N   0  0  0  0  0  0
  -22.0504  -12.8241   22.0372 N   0  0  0  0  0  0
  -25.4340  -15.1884   20.4065 N   0  0  0  0  0  0
  -31.8753  -14.6184   20.1582 O   0  0  0  0  0  0
  -21.6649   -6.8879   21.4239 O   0  0  0  0  0  0
  -22.3561  -14.5566   20.6673 O   0  0  0  0  0  0
  -24.6211  -31.8642   23.2072 C   0  0  0  0  0  0
  -25.9090  -32.4799   23.8379 C   0  0  1  0  0  0
  -27.2283  -27.3872   20.0888 C   0  0  0  0  0  0
  -25.5930  -33.8596   24.2324 N   0  0  0  0  0  0
  -23.4113  -30.4867   21.5510 C   0  0  2  0  0  0
  -24.8558  -28.9511   20.1131 C   0  0  0  0  0  0
  -22.7464  -29.4620   22.4993 C   0  0  0  0  0  0
  -18.0274  -28.1370   22.8490 C   0  0  0  0  0  0
  -24.1477  -36.7292   23.2637 C   0  0  0  0  0  0
  -25.9456  -30.8144   21.3659 C   0  0  0  0  0  0
  -26.0218  -29.4446   20.7131 C   0  0  0  0  0  0
  -27.2120  -28.6693   20.7011 C   0  0  0  0  0  0
  -26.0334  -26.9171   19.4968 C   0  0  0  0  0  0
  -24.8583  -27.6874   19.5019 C   0  0  0  0  0  0
  -23.6208  -29.8223   20.1647 C   0  0  0  0  0  0
  -25.4092  -36.3092   24.0354 C   0  0  1  0  0  0
  -20.5873  -28.3647   23.1320 C   0  0  2  0  0  0
  -20.6752  -26.9375   22.5415 C   0  0  0  0  0  0
  -19.5732  -26.6380   21.5205 C   0  0  0  0  0  0
  -18.1920  -26.7916   22.1622 C   0  0  0  0  0  0
  -19.1527  -28.8830   23.2895 C   0  0  0  0  0  0
  -18.9442  -30.1445   23.8889 C   0  0  0  0  0  0
  -17.6439  -30.6577   24.0553 C   0  0  0  0  0  0
  -25.9033  -34.9462   23.5132 C   0  0  0  0  0  0
  -16.5333  -29.9064   23.6327 C   0  0  0  0  0  0
  -16.7268  -28.6491   23.0340 C   0  0  0  0  0  0
  -26.4492  -31.6583   25.0719 C   0  0  0  0  0  0
  -25.3774  -31.3761   26.1504 C   0  0  0  0  0  0
  -27.0258  -30.3000   24.6104 C   0  0  0  0  0  0
  -27.6089  -32.4278   25.7468 C   0  0  0  0  0  0
  -27.5583  -37.1786   24.8465 C   0  0  0  0  0  0
  -21.4183  -29.3018   22.3748 N   0  0  0  0  0  0
  -26.4275  -37.3779   23.9434 N   0  0  0  0  0  0
  -24.6783  -31.0713   22.0985 N   0  0  0  0  0  0
  -23.4225  -28.8152   23.3033 O   0  0  0  0  0  0
  -28.3540  -26.5717   20.0976 O   0  0  0  0  0  0
  -26.5581  -34.8930   22.4684 O   0  0  0  0  0  0
  -23.5398  -32.1403   23.7444 O   0  0  0  0  0  0
  -30.5110  -19.3567   21.2152 C   0  0  0  0  0  0
  -30.1188  -20.6739   20.8582 C   0  0  0  0  0  0
  -28.8634  -18.4460   19.7102 C   0  0  0  0  0  0
  -29.9137  -18.2145   20.6255 C   0  0  0  0  0  0
  -28.4752  -19.7581   19.3206 C   0  0  0  0  0  0
  -29.1236  -20.9019   19.8762 C   0  0  0  0  0  0
  -23.7044  -19.8573   18.6227 C   0  0  0  0  0  0
  -30.4659  -16.8309   20.8573 C   0  0  0  0  0  0
  -28.5941  -25.8325   18.9542 C   0  0  0  0  0  0
  -28.8149  -24.4935   18.7971 C   0  0  0  0  0  0
  -28.8901  -23.4683   19.8647 C   0  0  0  0  0  0
  -24.0750  -19.0507   19.8458 C   0  0  0  0  0  0
  -25.6038  -19.0769   19.8235 C   0  0  0  0  0  0
  -24.9534  -20.2457   17.8242 C   0  0  1  0  0  0
  -24.0276  -21.7395   15.9238 C   0  0  0  0  0  0
  -27.3794  -19.8821   18.2596 C   0  0  0  0  0  0
  -24.8667  -21.6687   17.2123 C   0  0  0  0  0  0
  -29.8712  -15.6960   20.6759 N   0  0  0  0  0  0
  -28.8857  -22.2179   19.3296 N   0  0  0  0  0  0
  -26.0286  -20.1086   18.8397 N   0  3  2  0  0  0
  -22.5333  -20.1411   18.3554 O   0  0  0  0  0  0
  -28.9220  -23.6818   21.0776 O   0  0  0  0  0  0
  -28.9692  -24.0646   17.5298 O   0  0  0  0  0  0
  -31.4717  -12.4033   19.1591 H   0  0  0  0  0  0
  -30.3126  -11.3401   19.9016 H   0  0  0  0  0  0
  -29.7615  -11.7325   17.4745 H   0  0  0  0  0  0
  -29.6692  -13.4535   17.7580 H   0  0  0  0  0  0
  -27.8562  -11.2843   18.8676 H   0  0  0  0  0  0
  -27.3781  -12.5650   17.7851 H   0  0  0  0  0  0
  -27.6746  -14.2510   19.5065 H   0  0  0  0  0  0
  -28.6763  -12.0784   21.4069 H   0  0  0  0  0  0
  -28.4581  -13.7633   21.8050 H   0  0  0  0  0  0
  -25.2777   -9.5681   22.4743 H   0  0  0  0  0  0
  -24.0003   -7.4641   22.7474 H   0  0  0  0  0  0
  -21.0844   -8.8779   19.8960 H   0  0  0  0  0  0
  -22.3708  -10.9667   19.6151 H   0  0  0  0  0  0
  -21.1999   -7.6143   23.9702 H   0  0  0  0  0  0
  -21.1464   -6.0526   25.9068 H   0  0  0  0  0  0
  -22.0605   -2.7612   23.2859 H   0  0  0  0  0  0
  -22.4114  -11.9886   22.4738 H   0  0  0  0  0  0
  -21.1122  -13.1267   22.2579 H   0  0  0  0  0  0
  -24.6826  -15.8525   20.5437 H   0  0  0  0  0  0
  -26.3219  -15.6098   20.1659 H   0  0  0  0  0  0
  -26.7159  -32.5496   23.1136 H   0  0  0  0  0  0
  -25.0138  -33.9721   25.0518 H   0  0  0  0  0  0
  -22.7005  -31.3037   21.4128 H   0  0  0  0  0  0
  -23.3752  -35.9605   23.3253 H   0  0  0  0  0  0
  -24.3587  -36.8936   22.2060 H   0  0  0  0  0  0
  -23.7203  -37.6484   23.6654 H   0  0  0  0  0  0
  -26.0620  -31.5740   20.5917 H   0  0  0  0  0  0
  -26.8330  -30.8708   21.9837 H   0  0  0  0  0  0
  -28.1136  -29.0420   21.1664 H   0  0  0  0  0  0
  -25.9955  -25.9380   19.0410 H   0  0  0  0  0  0
  -23.9601  -27.2947   19.0444 H   0  0  0  0  0  0
  -23.7322  -30.5960   19.4046 H   0  0  0  0  0  0
  -22.7431  -29.2451   19.8702 H   0  0  0  0  0  0
  -25.1251  -36.1946   25.0844 H   0  0  0  0  0  0
  -20.9945  -28.3181   24.1447 H   0  0  0  0  0  0
  -20.5637  -26.2238   23.3593 H   0  0  0  0  0  0
  -21.6620  -26.7403   22.1211 H   0  0  0  0  0  0
  -19.6874  -25.6300   21.1212 H   0  0  0  0  0  0
  -19.6676  -27.3201   20.6744 H   0  0  0  0  0  0
  -17.4184  -26.6663   21.4029 H   0  0  0  0  0  0
  -18.0314  -26.0070   22.9029 H   0  0  0  0  0  0
  -19.7921  -30.7261   24.2254 H   0  0  0  0  0  0
  -17.4993  -31.6253   24.5156 H   0  0  0  0  0  0
  -15.5321  -30.2940   23.7689 H   0  0  0  0  0  0
  -15.8669  -28.0812   22.7027 H   0  0  0  0  0  0
  -24.5837  -30.7225   25.7883 H   0  0  0  0  0  0
  -24.9109  -32.2958   26.5043 H   0  0  0  0  0  0
  -25.8126  -30.8847   27.0214 H   0  0  0  0  0  0
  -26.2758  -29.6809   24.1167 H   0  0  0  0  0  0
  -27.4009  -29.7212   25.4555 H   0  0  0  0  0  0
  -27.8627  -30.4283   23.9233 H   0  0  0  0  0  0
  -27.2747  -33.3622   26.1991 H   0  0  0  0  0  0
  -28.3924  -32.6749   25.0291 H   0  0  0  0  0  0
  -28.0704  -31.8414   26.5425 H   0  0  0  0  0  0
  -28.2581  -38.0101   24.7521 H   0  0  0  0  0  0
  -28.1078  -36.2626   24.6227 H   0  0  0  0  0  0
  -27.2316  -37.1403   25.8874 H   0  0  0  0  0  0
  -20.9355  -29.8777   21.6995 H   0  0  0  0  0  0
  -26.0161  -38.2857   24.1427 H   0  0  0  0  0  0
  -31.3225  -19.2296   21.9190 H   0  0  0  0  0  0
  -30.6469  -21.5111   21.2955 H   0  0  0  0  0  0
  -28.3967  -17.5898   19.2434 H   0  0  0  0  0  0
  -31.5146  -16.8498   21.1715 H   0  0  0  0  0  0
  -28.5683  -26.4904   18.0955 H   0  0  0  0  0  0
  -23.6798  -18.0370   19.7842 H   0  0  0  0  0  0
  -23.6745  -19.5316   20.7382 H   0  0  0  0  0  0
  -25.9648  -18.0937   19.5182 H   0  0  0  0  0  0
  -26.0179  -19.2836   20.8113 H   0  0  0  0  0  0
  -25.1100  -19.5047   17.0395 H   0  0  0  0  0  0
  -24.0269  -22.7502   15.5141 H   0  0  0  0  0  0
  -22.9881  -21.4608   16.0987 H   0  0  0  0  0  0
  -24.4248  -21.0746   15.1555 H   0  0  0  0  0  0
  -27.3654  -18.9737   17.6553 H   0  0  0  0  0  0
  -27.6349  -20.6811   17.5638 H   0  0  0  0  0  0
  -25.8653  -22.0337   16.9730 H   0  0  0  0  0  0
  -24.4650  -22.3716   17.9445 H   0  0  0  0  0  0
  -28.8055  -22.2789   18.3218 H   0  0  0  0  0  0
  -26.0556  -20.9800   19.3469 H   0  0  0  0  0  0
  -28.8982  -24.8199   16.9599 H   0  0  0  0  0  0
  1 25  1  0  0  0
  1 30  2  0  0  0
  1 88  1  0  0  0
  2  3  1  0  0  0
  2 25  1  0  0  0
  2 94  1  0  0  0
  2 95  1  0  0  0
  3  4  1  0  0  0
  3 96  1  0  0  0
  3 97  1  0  0  0
  4  5  1  0  0  0
  4 98  1  0  0  0
  4 99  1  0  0  0
  5  6  1  0  0  0
  5 26  1  0  0  0
  5100  1  0  0  0
  6 25  1  0  0  0
  6101  1  0  0  0
  6102  1  0  0  0
  7  8  2  0  0  0
  7 26  1  0  0  0
  7 29  1  0  0  0
  8  9  1  0  0  0
  8 22  1  0  0  0
  9 10  1  0  0  0
  9 27  2  0  0  0
 10 11  2  0  0  0
 10 15  1  0  0  0
 11 12  1  0  0  0
 11103  1  0  0  0
 12 13  2  0  0  0
 12104  1  0  0  0
 13 14  1  0  0  0
 13 31  1  0  0  0
 14 15  2  0  0  0
 14105  1  0  0  0
 15106  1  0  0  0
 16 17  2  0  0  0
 16 21  1  0  0  0
 16 31  1  0  0  0
 17 18  1  0  0  0
 17107  1  0  0  0
 18 19  2  0  0  0
 18108  1  0  0  0
 19 20  1  0  0  0
 19 24  1  0  0  0
 20 21  2  0  0  0
 20109  1  0  0  0
 21 23  1  0  0  0
 22 28  1  0  0  0
 22 32  2  0  0  0
 26 27  1  0  0  0
 28110  1  0  0  0
 28111  1  0  0  0
 29112  1  0  0  0
 29113  1  0  0  0
 33 34  1  0  0  0
 33 66  1  0  0  0
 33 70  2  0  0  0
 34 36  1  0  0  0
 34 59  1  0  0  0
 34114  1  0  0  0
 35 44  2  0  0  0
 35 45  1  0  0  0
 35 68  1  0  0  0
 36 56  1  0  0  0
 36115  1  0  0  0
 37 39  1  0  0  0
 37 47  1  0  0  0
 37 66  1  0  0  0
 37116  1  0  0  0
 38 43  2  0  0  0
 38 46  1  0  0  0
 38 47  1  0  0  0
 39 64  1  0  0  0
 39 67  2  0  0  0
 40 52  1  0  0  0
 40 53  2  0  0  0
 40 58  1  0  0  0
 41117  1  0  0  0
 41118  1  0  0  0
 41119  1  0  0  0
 41 48  1  0  0  0
 42 43  1  0  0  0
 42 66  1  0  0  0
 42120  1  0  0  0
 42121  1  0  0  0
 43 44  1  0  0  0
 44122  1  0  0  0
 45 46  2  0  0  0
 45123  1  0  0  0
 46124  1  0  0  0
 47125  1  0  0  0
 47126  1  0  0  0
 48 56  1  0  0  0
 48 65  1  0  0  0
 48127  1  0  0  0
 49 50  1  0  0  0
 49 53  1  0  0  0
 49 64  1  0  0  0
 49128  1  0  0  0
 50 51  1  0  0  0
 50129  1  0  0  0
 50130  1  0  0  0
 51 52  1  0  0  0
 51131  1  0  0  0
 51132  1  0  0  0
 52133  1  0  0  0
 52134  1  0  0  0
 53 54  1  0  0  0
 54 55  2  0  0  0
 54135  1  0  0  0
 55 57  1  0  0  0
 55136  1  0  0  0
 56 69  2  0  0  0
 57 58  2  0  0  0
 57137  1  0  0  0
 58138  1  0  0  0
 59 60  1  0  0  0
 59 61  1  0  0  0
 59 62  1  0  0  0
 60139  1  0  0  0
 60140  1  0  0  0
 60141  1  0  0  0
 61142  1  0  0  0
 61143  1  0  0  0
 61144  1  0  0  0
 62145  1  0  0  0
 62146  1  0  0  0
 62147  1  0  0  0
 63 65  1  0  0  0
 63148  1  0  0  0
 63149  1  0  0  0
 63150  1  0  0  0
 64151  1  0  0  0
 65152  1  0  0  0
 68 79  1  0  0  0
 71 72  2  0  0  0
 71 74  1  0  0  0
 71153  1  0  0  0
 72 76  1  0  0  0
 72154  1  0  0  0
 73 74  2  0  0  0
 73 75  1  0  0  0
 73155  1  0  0  0
 74 78  1  0  0  0
 75 76  2  0  0  0
 75 86  1  0  0  0
 76 89  1  0  0  0
 77 82  1  0  0  0
 77 84  1  0  0  0
 77 91  2  0  0  0
 78 88  2  0  0  0
 78156  1  0  0  0
 79 80  2  0  0  0
 79157  1  0  0  0
 80 81  1  0  0  0
 80 93  1  0  0  0
 81 89  1  0  0  0
 81 92  2  0  0  0
 82 83  1  0  0  0
 82158  1  0  0  0
 82159  1  0  0  0
 83 90  1  0  0  0
 83160  1  0  0  0
 83161  1  0  0  0
 84 87  1  0  0  0
 84 90  1  0  0  0
 84162  1  0  0  0
 85 87  1  0  0  0
 85163  1  0  0  0
 85164  1  0  0  0
 85165  1  0  0  0
 86166  1  0  0  0
 86167  1  0  0  0
 86 90  1  0  0  0
 87168  1  0  0  0
 87169  1  0  0  0
 89170  1  0  0  0
 90171  1  0  0  0
 93172  1  0  0  0
M  CHG  1  90   1
M  ISO  4   1 100  68 101  79 101  88 100
M  END
> <chiral flag>
0

> <version>
0

> <s_m_source_file>
/data/baiqing/PycharmProjects/Reinvent-master-3.2/result/LINK_invent/BTK/process_docking_weight1_custom_product_contain_oxygen_bond_distance_aromatic_linkinvent_7_9_3/rearranged_h_0110.sdf

> <i_m_source_file_index>
85

> <r_mmod_Potential_Energy-OPLS-2005>
-187.747085571289

> <r_mmod_Stretch_Energy-OPLS-2005>
56.5194396972656

> <r_mmod_Bend_Energy-OPLS-2005>
147.516693115234

> <r_mmod_Torsional_Energy-OPLS-2005>
221.4755859375

> <r_mmod_Improper_Torsional_Energy-OPLS-2005>
6.81740522384644

> <r_mmod_Van_der_Waal_Energy-OPLS-2005>
153.216934204102

> <r_mmod_Electrostatic_Energy-OPLS-2005>
-311.840423583984

> <r_mmod_Solvation_Energy-OPLS-2005>
-492.218933105469

> <b_mmod_Minimization_Converged-OPLS-2005>
0

> <r_mmod_RMS_Derivative-OPLS-2005>
2.00907063484192

$$$$
86
                    3D
 Structure written by MMmdl.
154162  0  0  1  0            999 V2000
  -30.6558  -14.6375   20.4916 C   0  0  0  0  0  0
  -30.4190  -12.3808   19.4712 C   0  0  0  0  0  0
  -29.5050  -12.5031   18.2338 C   0  0  0  0  0  0
  -28.0257  -12.3484   18.6369 C   0  0  0  0  0  0
  -27.6454  -13.2302   19.8562 C   0  0  2  0  0  0
  -28.6854  -13.1180   20.9895 C   0  0  0  0  0  0
  -25.2523  -13.8199   20.5691 C   0  0  0  0  0  0
  -24.1807  -13.0445   20.9177 C   0  0  0  0  0  0
  -24.6387  -11.6919   20.8718 C   0  0  0  0  0  0
  -23.9058  -10.4298   21.0401 C   0  0  0  0  0  0
  -24.3610   -9.4208   21.9178 C   0  0  0  0  0  0
  -23.6278   -8.2251   22.0757 C   0  0  0  0  0  0
  -22.4262   -8.0277   21.3545 C   0  0  0  0  0  0
  -21.9902   -9.0253   20.4646 C   0  0  0  0  0  0
  -22.7235  -10.2128   20.3048 C   0  0  0  0  0  0
  -21.6862   -6.0736   22.5270 C   0  0  0  0  0  0
  -21.4027   -6.5637   23.8208 C   0  0  0  0  0  0
  -21.3662   -5.6789   24.9171 C   0  0  0  0  0  0
  -21.6047   -4.3054   24.7228 C   0  0  0  0  0  0
  -21.8822   -3.8150   23.4347 C   0  0  0  0  0  0
  -21.9196   -4.6965   22.3397 C   0  0  0  0  0  0
  -22.7820  -13.5205   21.1839 C   0  0  0  0  0  0
  -22.1657   -4.2144   21.0977 F   0  0  0  0  0  0
  -21.5630   -3.4538   25.7747 F   0  0  0  0  0  0
  -30.0069  -13.4290   20.4297 N   0  0  0  0  0  0
  -26.2952  -12.9411   20.3293 N   0  0  0  0  0  0
  -25.9323  -11.6541   20.5738 N   0  0  0  0  0  0
  -22.0492  -12.8191   22.0408 N   0  0  0  0  0  0
  -25.4230  -15.1930   20.4162 N   0  0  0  0  0  0
  -31.8334  -14.6868   20.1240 O   0  0  0  0  0  0
  -21.6633   -6.8867   21.4229 O   0  0  0  0  0  0
  -22.3487  -14.5510   20.6690 O   0  0  0  0  0  0
  -24.6289  -31.8614   23.2066 C   0  0  0  0  0  0
  -25.9123  -32.4801   23.8398 C   0  0  1  0  0  0
  -27.1994  -27.2932   20.1045 C   0  0  0  0  0  0
  -25.5924  -33.8606   24.2307 N   0  0  0  0  0  0
  -23.4231  -30.4899   21.5518 C   0  0  2  0  0  0
  -24.8659  -28.9607   20.1066 C   0  0  0  0  0  0
  -22.7506  -29.4626   22.4937 C   0  0  0  0  0  0
  -18.0286  -28.1398   22.8508 C   0  0  0  0  0  0
  -24.1482  -36.7303   23.2635 C   0  0  0  0  0  0
  -25.9722  -30.7821   21.3873 C   0  0  0  0  0  0
  -26.0415  -29.4127   20.7193 C   0  0  0  0  0  0
  -27.2132  -28.5907   20.7131 C   0  0  0  0  0  0
  -25.9986  -26.9247   19.4439 C   0  0  0  0  0  0
  -24.8481  -27.7239   19.4583 C   0  0  0  0  0  0
  -23.6376  -29.8429   20.1624 C   0  0  0  0  0  0
  -25.4107  -36.3107   24.0321 C   0  0  1  0  0  0
  -20.5899  -28.3710   23.1282 C   0  0  2  0  0  0
  -20.6777  -26.9426   22.5420 C   0  0  0  0  0  0
  -19.5732  -26.6393   21.5244 C   0  0  0  0  0  0
  -18.1913  -26.7944   22.1643 C   0  0  0  0  0  0
  -19.1547  -28.8874   23.2888 C   0  0  0  0  0  0
  -18.9466  -30.1486   23.8886 C   0  0  0  0  0  0
  -17.6455  -30.6599   24.0575 C   0  0  0  0  0  0
  -25.9044  -34.9469   23.5116 C   0  0  0  0  0  0
  -16.5341  -29.9097   23.6336 C   0  0  0  0  0  0
  -16.7276  -28.6522   23.0352 C   0  0  0  0  0  0
  -26.4487  -31.6620   25.0784 C   0  0  0  0  0  0
  -25.3701  -31.3753   26.1501 C   0  0  0  0  0  0
  -27.0356  -30.3048   24.6264 C   0  0  0  0  0  0
  -27.6043  -32.4370   25.7538 C   0  0  0  0  0  0
  -27.5582  -37.1795   24.8453 C   0  0  0  0  0  0
  -21.4222  -29.3058   22.3686 N   0  0  0  0  0  0
  -26.4287  -37.3803   23.9408 N   0  0  0  0  0  0
  -24.6940  -31.0607   22.1042 N   0  0  0  0  0  0
  -23.4229  -28.8132   23.2989 O   0  0  0  0  0  0
  -28.2680  -26.3705   20.1764 O   0  0  0  0  0  0
  -26.5609  -34.8921   22.4680 O   0  0  0  0  0  0
  -23.5435  -32.1431   23.7358 O   0  0  0  0  0  0
  -28.2981  -20.2180   21.3972 C   0  0  0  0  0  0
  -29.8686  -20.7921   19.6874 C   0  0  0  0  0  0
  -29.7339  -18.4003   20.4665 C   0  0  0  0  0  0
  -28.8590  -21.2335   20.5740 C   0  0  0  0  0  0
  -28.7190  -18.8508   21.3702 C   0  0  0  0  0  0
  -30.2709  -19.4150   19.5988 C   0  0  0  0  0  0
  -30.2803  -16.9503   20.3539 C   0  0  0  0  0  0
  -28.7949  -23.6998   20.2545 C   0  0  0  0  0  0
  -31.2825  -19.7686   17.4373 C   0  0  0  0  0  0
  -27.8771  -24.9460   19.9540 C   0  0  0  0  0  0
  -28.2703  -22.5486   20.5704 N   0  0  0  0  0  0
  -29.8690  -15.7878   20.8071 N   0  0  0  0  0  0
  -28.0957  -17.9656   22.2587 N   0  0  0  0  0  0
  -31.1871  -19.0151   18.6445 O   0  0  0  0  0  0
  -31.4651  -12.4621   19.1739 H   0  0  0  0  0  0
  -30.3168  -11.3931   19.9236 H   0  0  0  0  0  0
  -29.7678  -11.7480   17.4915 H   0  0  0  0  0  0
  -29.6583  -13.4734   17.7583 H   0  0  0  0  0  0
  -27.8572  -11.2970   18.8706 H   0  0  0  0  0  0
  -27.3762  -12.5769   17.7915 H   0  0  0  0  0  0
  -27.6561  -14.2627   19.5062 H   0  0  0  0  0  0
  -28.6833  -12.1127   21.4152 H   0  0  0  0  0  0
  -28.4363  -13.7969   21.8066 H   0  0  0  0  0  0
  -25.2755   -9.5695   22.4751 H   0  0  0  0  0  0
  -24.0000   -7.4649   22.7479 H   0  0  0  0  0  0
  -21.0845   -8.8767   19.8941 H   0  0  0  0  0  0
  -22.3688  -10.9668   19.6157 H   0  0  0  0  0  0
  -21.2023   -7.6146   23.9712 H   0  0  0  0  0  0
  -21.1476   -6.0521   25.9072 H   0  0  0  0  0  0
  -22.0597   -2.7607   23.2857 H   0  0  0  0  0  0
  -22.4113  -11.9843   22.4776 H   0  0  0  0  0  0
  -21.1115  -13.1215   22.2644 H   0  0  0  0  0  0
  -24.6688  -15.8553   20.5601 H   0  0  0  0  0  0
  -26.2965  -15.6340   20.1550 H   0  0  0  0  0  0
  -26.7196  -32.5453   23.1142 H   0  0  0  0  0  0
  -25.0051  -33.9763   25.0444 H   0  0  0  0  0  0
  -22.7167  -31.3114   21.4169 H   0  0  0  0  0  0
  -23.3766  -35.9620   23.3293 H   0  0  0  0  0  0
  -24.3568  -36.8941   22.2052 H   0  0  0  0  0  0
  -23.7203  -37.6474   23.6687 H   0  0  0  0  0  0
  -26.1117  -31.5460   20.6211 H   0  0  0  0  0  0
  -26.8491  -30.8261   22.0224 H   0  0  0  0  0  0
  -28.1101  -28.9253   21.2157 H   0  0  0  0  0  0
  -25.8863  -25.9949   18.9102 H   0  0  0  0  0  0
  -23.9514  -27.3777   18.9622 H   0  0  0  0  0  0
  -23.7587  -30.6297   19.4162 H   0  0  0  0  0  0
  -22.7556  -29.2790   19.8560 H   0  0  0  0  0  0
  -25.1288  -36.1965   25.0816 H   0  0  0  0  0  0
  -20.9990  -28.3305   24.1399 H   0  0  0  0  0  0
  -20.5729  -26.2311   23.3624 H   0  0  0  0  0  0
  -21.6635  -26.7464   22.1176 H   0  0  0  0  0  0
  -19.6873  -25.6319   21.1252 H   0  0  0  0  0  0
  -19.6658  -27.3229   20.6794 H   0  0  0  0  0  0
  -17.4186  -26.6732   21.4029 H   0  0  0  0  0  0
  -18.0260  -26.0098   22.9042 H   0  0  0  0  0  0
  -19.7939  -30.7332   24.2221 H   0  0  0  0  0  0
  -17.4997  -31.6267   24.5215 H   0  0  0  0  0  0
  -15.5342  -30.2970   23.7686 H   0  0  0  0  0  0
  -15.8682  -28.0848   22.7026 H   0  0  0  0  0  0
  -24.5898  -30.7074   25.7822 H   0  0  0  0  0  0
  -24.8843  -32.2914   26.4879 H   0  0  0  0  0  0
  -25.7995  -30.8964   27.0316 H   0  0  0  0  0  0
  -26.2968  -29.6772   24.1261 H   0  0  0  0  0  0
  -27.4030  -29.7318   25.4784 H   0  0  0  0  0  0
  -27.8852  -30.4338   23.9552 H   0  0  0  0  0  0
  -27.2688  -33.3715   26.2051 H   0  0  0  0  0  0
  -28.3881  -32.6847   25.0371 H   0  0  0  0  0  0
  -28.0704  -31.8538   26.5494 H   0  0  0  0  0  0
  -28.2573  -38.0121   24.7572 H   0  0  0  0  0  0
  -28.1108  -36.2646   24.6230 H   0  0  0  0  0  0
  -27.2301  -37.1403   25.8855 H   0  0  0  0  0  0
  -20.9388  -29.8835   21.6956 H   0  0  0  0  0  0
  -26.0174  -38.2866   24.1472 H   0  0  0  0  0  0
  -27.4989  -20.5033   22.0667 H   0  0  0  0  0  0
  -30.3112  -21.5231   19.0281 H   0  0  0  0  0  0
  -31.2019  -16.9542   19.7680 H   0  0  0  0  0  0
  -29.8678  -23.8476   20.1039 H   0  0  0  0  0  0
  -31.5284  -19.0952   16.6153 H   0  0  0  0  0  0
  -32.0762  -20.5125   17.5126 H   0  0  0  0  0  0
  -30.3509  -20.2652   17.1582 H   0  0  0  0  0  0
  -26.9559  -24.7604   20.5113 H   0  0  0  0  0  0
  -27.6355  -24.8429   18.8956 H   0  0  0  0  0  0
  -27.1659  -18.1855   22.6032 H   0  0  0  0  0  0
  -28.2429  -16.9690   22.1125 H   0  0  0  0  0  0
  1 25  1  0  0  0
  1 30  2  0  0  0
  1 82  1  0  0  0
  2  3  1  0  0  0
  2 25  1  0  0  0
  2 85  1  0  0  0
  2 86  1  0  0  0
  3  4  1  0  0  0
  3 87  1  0  0  0
  3 88  1  0  0  0
  4  5  1  0  0  0
  4 89  1  0  0  0
  4 90  1  0  0  0
  5  6  1  0  0  0
  5 26  1  0  0  0
  5 91  1  0  0  0
  6 25  1  0  0  0
  6 92  1  0  0  0
  6 93  1  0  0  0
  7  8  2  0  0  0
  7 26  1  0  0  0
  7 29  1  0  0  0
  8  9  1  0  0  0
  8 22  1  0  0  0
  9 10  1  0  0  0
  9 27  2  0  0  0
 10 11  2  0  0  0
 10 15  1  0  0  0
 11 12  1  0  0  0
 11 94  1  0  0  0
 12 13  2  0  0  0
 12 95  1  0  0  0
 13 14  1  0  0  0
 13 31  1  0  0  0
 14 15  2  0  0  0
 14 96  1  0  0  0
 15 97  1  0  0  0
 16 17  2  0  0  0
 16 21  1  0  0  0
 16 31  1  0  0  0
 17 18  1  0  0  0
 17 98  1  0  0  0
 18 19  2  0  0  0
 18 99  1  0  0  0
 19 20  1  0  0  0
 19 24  1  0  0  0
 20 21  2  0  0  0
 20100  1  0  0  0
 21 23  1  0  0  0
 22 28  1  0  0  0
 22 32  2  0  0  0
 26 27  1  0  0  0
 28101  1  0  0  0
 28102  1  0  0  0
 29103  1  0  0  0
 29104  1  0  0  0
 33 34  1  0  0  0
 33 66  1  0  0  0
 33 70  2  0  0  0
 34 36  1  0  0  0
 34 59  1  0  0  0
 34105  1  0  0  0
 35 44  2  0  0  0
 35 45  1  0  0  0
 35 68  1  0  0  0
 36 56  1  0  0  0
 36106  1  0  0  0
 37 39  1  0  0  0
 37 47  1  0  0  0
 37 66  1  0  0  0
 37107  1  0  0  0
 38 43  2  0  0  0
 38 46  1  0  0  0
 38 47  1  0  0  0
 39 64  1  0  0  0
 39 67  2  0  0  0
 40 52  1  0  0  0
 40 53  2  0  0  0
 40 58  1  0  0  0
 41108  1  0  0  0
 41109  1  0  0  0
 41110  1  0  0  0
 41 48  1  0  0  0
 42 43  1  0  0  0
 42 66  1  0  0  0
 42111  1  0  0  0
 42112  1  0  0  0
 43 44  1  0  0  0
 44113  1  0  0  0
 45 46  2  0  0  0
 45114  1  0  0  0
 46115  1  0  0  0
 47116  1  0  0  0
 47117  1  0  0  0
 48 56  1  0  0  0
 48 65  1  0  0  0
 48118  1  0  0  0
 49 50  1  0  0  0
 49 53  1  0  0  0
 49 64  1  0  0  0
 49119  1  0  0  0
 50 51  1  0  0  0
 50120  1  0  0  0
 50121  1  0  0  0
 51 52  1  0  0  0
 51122  1  0  0  0
 51123  1  0  0  0
 52124  1  0  0  0
 52125  1  0  0  0
 53 54  1  0  0  0
 54 55  2  0  0  0
 54126  1  0  0  0
 55 57  1  0  0  0
 55127  1  0  0  0
 56 69  2  0  0  0
 57 58  2  0  0  0
 57128  1  0  0  0
 58129  1  0  0  0
 59 60  1  0  0  0
 59 61  1  0  0  0
 59 62  1  0  0  0
 60130  1  0  0  0
 60131  1  0  0  0
 60132  1  0  0  0
 61133  1  0  0  0
 61134  1  0  0  0
 61135  1  0  0  0
 62136  1  0  0  0
 62137  1  0  0  0
 62138  1  0  0  0
 63 65  1  0  0  0
 63139  1  0  0  0
 63140  1  0  0  0
 63141  1  0  0  0
 64142  1  0  0  0
 65143  1  0  0  0
 68 80  1  0  0  0
 71 74  2  0  0  0
 71 75  1  0  0  0
 71144  1  0  0  0
 72 74  1  0  0  0
 72 76  2  0  0  0
 72145  1  0  0  0
 73 75  2  0  0  0
 73 76  1  0  0  0
 73 77  1  0  0  0
 74 81  1  0  0  0
 75 83  1  0  0  0
 76 84  1  0  0  0
 77 82  2  0  0  0
 77146  1  0  0  0
 78 80  1  0  0  0
 78 81  2  0  0  0
 78147  1  0  0  0
 79 84  1  0  0  0
 79148  1  0  0  0
 79149  1  0  0  0
 79150  1  0  0  0
 80151  1  0  0  0
 80152  1  0  0  0
 83153  1  0  0  0
 83154  1  0  0  0
M  ISO  4   1 100  68 101  80 101  82 100
M  END
> <chiral flag>
0

> <version>
0

> <s_m_source_file>
/data/baiqing/PycharmProjects/Reinvent-master-3.2/result/LINK_invent/BTK/process_docking_weight1_custom_product_contain_oxygen_bond_distance_aromatic_linkinvent_7_9_3/rearranged_h_0110.sdf

> <i_m_source_file_index>
86

> <r_mmod_Potential_Energy-OPLS-2005>
285.683654785156

> <r_mmod_Stretch_Energy-OPLS-2005>
98.7233276367188

> <r_mmod_Bend_Energy-OPLS-2005>
172.498031616211

> <r_mmod_Torsional_Energy-OPLS-2005>
189.269912719727

> <r_mmod_Improper_Torsional_Energy-OPLS-2005>
8.33809280395508

> <r_mmod_Van_der_Waal_Energy-OPLS-2005>
179.935394287109

> <r_mmod_Electrostatic_Energy-OPLS-2005>
-226.754959106445

> <r_mmod_Solvation_Energy-OPLS-2005>
-197.215682983398

> <b_mmod_Minimization_Converged-OPLS-2005>
0

> <r_mmod_RMS_Derivative-OPLS-2005>
2.54065108299255

$$$$
87
                    3D
 Structure written by MMmdl.
165173  0  0  1  0            999 V2000
  -30.7926  -14.5406   20.2732 C   0  0  0  0  0  0
  -30.3932  -12.2893   19.4383 C   0  0  0  0  0  0
  -29.4715  -12.3866   18.2054 C   0  0  0  0  0  0
  -28.0048  -12.2777   18.6499 C   0  0  0  0  0  0
  -27.6469  -13.2184   19.8330 C   0  0  2  0  0  0
  -28.7225  -13.2105   20.9432 C   0  0  0  0  0  0
  -25.2632  -13.8174   20.5749 C   0  0  0  0  0  0
  -24.1875  -13.0462   20.9190 C   0  0  0  0  0  0
  -24.6420  -11.6925   20.8755 C   0  0  0  0  0  0
  -23.9084  -10.4309   21.0397 C   0  0  0  0  0  0
  -24.3634   -9.4223   21.9177 C   0  0  0  0  0  0
  -23.6310   -8.2259   22.0751 C   0  0  0  0  0  0
  -22.4290   -8.0299   21.3550 C   0  0  0  0  0  0
  -21.9918   -9.0267   20.4647 C   0  0  0  0  0  0
  -22.7243  -10.2153   20.3053 C   0  0  0  0  0  0
  -21.6866   -6.0746   22.5280 C   0  0  0  0  0  0
  -21.4027   -6.5653   23.8213 C   0  0  0  0  0  0
  -21.3656   -5.6793   24.9161 C   0  0  0  0  0  0
  -21.6042   -4.3056   24.7191 C   0  0  0  0  0  0
  -21.8835   -3.8158   23.4309 C   0  0  0  0  0  0
  -21.9193   -4.6983   22.3387 C   0  0  0  0  0  0
  -22.7900  -13.5259   21.1807 C   0  0  0  0  0  0
  -22.1685   -4.2185   21.0962 F   0  0  0  0  0  0
  -21.5600   -3.4523   25.7692 F   0  0  0  0  0  0
  -30.0226  -13.4174   20.2889 N   0  0  0  0  0  0
  -26.3042  -12.9372   20.3342 N   0  0  0  0  0  0
  -25.9363  -11.6530   20.5839 N   0  0  0  0  0  0
  -22.0552  -12.8283   22.0388 N   0  0  0  0  0  0
  -25.4402  -15.1876   20.4233 N   0  0  0  0  0  0
  -31.9811  -14.4924   20.5663 O   0  0  0  0  0  0
  -21.6664   -6.8895   21.4245 O   0  0  0  0  0  0
  -22.3604  -14.5558   20.6622 O   0  0  0  0  0  0
  -24.6141  -31.8682   23.2099 C   0  0  0  0  0  0
  -25.9046  -32.4808   23.8383 C   0  0  1  0  0  0
  -27.2173  -27.4150   20.0854 C   0  0  0  0  0  0
  -25.5918  -33.8607   24.2315 N   0  0  0  0  0  0
  -23.4003  -30.4947   21.5516 C   0  0  2  0  0  0
  -24.8411  -28.9603   20.1108 C   0  0  0  0  0  0
  -22.7399  -29.4672   22.4986 C   0  0  0  0  0  0
  -18.0266  -28.1380   22.8488 C   0  0  0  0  0  0
  -24.1495  -36.7299   23.2635 C   0  0  0  0  0  0
  -25.9330  -30.8226   21.3693 C   0  0  0  0  0  0
  -26.0032  -29.4581   20.7123 C   0  0  0  0  0  0
  -27.1913  -28.6904   20.7014 C   0  0  0  0  0  0
  -26.0339  -26.9394   19.4746 C   0  0  0  0  0  0
  -24.8523  -27.7002   19.4917 C   0  0  0  0  0  0
  -23.6055  -29.8301   20.1647 C   0  0  0  0  0  0
  -25.4111  -36.3098   24.0338 C   0  0  1  0  0  0
  -20.5857  -28.3661   23.1323 C   0  0  2  0  0  0
  -20.6756  -26.9403   22.5419 C   0  0  0  0  0  0
  -19.5742  -26.6384   21.5213 C   0  0  0  0  0  0
  -18.1920  -26.7936   22.1609 C   0  0  0  0  0  0
  -19.1512  -28.8835   23.2906 C   0  0  0  0  0  0
  -18.9443  -30.1445   23.8907 C   0  0  0  0  0  0
  -17.6452  -30.6589   24.0562 C   0  0  0  0  0  0
  -25.9045  -34.9466   23.5115 C   0  0  0  0  0  0
  -16.5343  -29.9087   23.6332 C   0  0  0  0  0  0
  -16.7259  -28.6506   23.0346 C   0  0  0  0  0  0
  -26.4459  -31.6593   25.0718 C   0  0  0  0  0  0
  -25.3704  -31.3732   26.1455 C   0  0  0  0  0  0
  -27.0270  -30.3016   24.6129 C   0  0  0  0  0  0
  -27.6057  -32.4297   25.7454 C   0  0  0  0  0  0
  -27.5592  -37.1797   24.8452 C   0  0  0  0  0  0
  -21.4134  -29.3028   22.3725 N   0  0  0  0  0  0
  -26.4290  -37.3791   23.9417 N   0  0  0  0  0  0
  -24.6676  -31.0770   22.1006 N   0  0  0  0  0  0
  -23.4174  -28.8211   23.3019 O   0  0  0  0  0  0
  -28.3886  -26.6789   20.1121 O   0  0  0  0  0  0
  -26.5609  -34.8925   22.4680 O   0  0  0  0  0  0
  -23.5343  -32.1451   23.7496 O   0  0  0  0  0  0
  -28.3522  -18.7801   19.6309 C   0  0  0  0  0  0
  -30.1590  -17.3133   21.1935 C   0  0  0  0  0  0
  -28.7134  -17.4654   19.2292 C   0  0  0  0  0  0
  -28.9077  -19.3786   20.7827 C   0  0  0  0  0  0
  -29.6964  -16.7337   19.9828 C   0  0  0  0  0  0
  -29.7652  -18.6080   21.5873 C   0  0  0  0  0  0
  -31.1788  -15.8510   18.3419 C   0  0  0  0  0  0
  -28.3508  -21.8255   20.4866 C   0  0  0  0  0  0
  -32.1450  -14.8355   17.7013 C   0  0  0  0  0  0
  -26.6621  -17.2951   17.6472 C   0  0  0  0  0  0
  -28.1345  -16.9357   17.9120 C   0  0  0  0  0  0
  -28.3563  -23.1555   21.2700 C   0  0  0  0  0  0
  -27.5804  -24.3570   20.6550 C   0  0  0  0  0  0
  -28.3847  -25.2930   19.7064 C   0  0  0  0  0  0
  -28.6551  -20.7227   21.2044 N   0  0  0  0  0  0
  -30.3955  -15.5698   19.4489 N   0  0  0  0  0  0
  -31.1836  -16.9559   17.7861 O   0  0  0  0  0  0
  -28.0755  -21.8128   19.2864 O   0  0  0  0  0  0
  -30.2723  -19.1418   22.7242 F   0  0  0  0  0  0
  -31.4498  -12.3020   19.1661 H   0  0  0  0  0  0
  -30.2411  -11.3481   19.9723 H   0  0  0  0  0  0
  -29.7074  -11.5920   17.4976 H   0  0  0  0  0  0
  -29.6009  -13.3249   17.6696 H   0  0  0  0  0  0
  -27.8431  -11.2371   18.9373 H   0  0  0  0  0  0
  -27.3372  -12.4641   17.8088 H   0  0  0  0  0  0
  -27.6345  -14.2260   19.4221 H   0  0  0  0  0  0
  -28.7206  -12.2724   21.5006 H   0  0  0  0  0  0
  -28.5203  -14.0070   21.6640 H   0  0  0  0  0  0
  -25.2763   -9.5710   22.4759 H   0  0  0  0  0  0
  -24.0027   -7.4655   22.7469 H   0  0  0  0  0  0
  -21.0846   -8.8775   19.8957 H   0  0  0  0  0  0
  -22.3671  -10.9703   19.6182 H   0  0  0  0  0  0
  -21.2057   -7.6161   23.9722 H   0  0  0  0  0  0
  -21.1455   -6.0513   25.9068 H   0  0  0  0  0  0
  -22.0603   -2.7620   23.2771 H   0  0  0  0  0  0
  -22.4169  -11.9906   22.4706 H   0  0  0  0  0  0
  -21.1199  -13.1356   22.2668 H   0  0  0  0  0  0
  -24.6721  -15.8387   20.5390 H   0  0  0  0  0  0
  -26.2997  -15.6275   20.1215 H   0  0  0  0  0  0
  -26.7103  -32.5507   23.1134 H   0  0  0  0  0  0
  -25.0067  -33.9762   25.0455 H   0  0  0  0  0  0
  -22.6904  -31.3138   21.4170 H   0  0  0  0  0  0
  -23.3773  -35.9616   23.3263 H   0  0  0  0  0  0
  -24.3601  -36.8945   22.2058 H   0  0  0  0  0  0
  -23.7224  -37.6483   23.6667 H   0  0  0  0  0  0
  -26.0568  -31.5903   20.6040 H   0  0  0  0  0  0
  -26.8174  -30.8659   21.9940 H   0  0  0  0  0  0
  -28.0853  -29.0680   21.1782 H   0  0  0  0  0  0
  -25.9966  -25.9811   18.9791 H   0  0  0  0  0  0
  -23.9587  -27.3144   19.0203 H   0  0  0  0  0  0
  -23.7135  -30.6073   19.4069 H   0  0  0  0  0  0
  -22.7268  -29.2531   19.8682 H   0  0  0  0  0  0
  -25.1289  -36.1953   25.0834 H   0  0  0  0  0  0
  -20.9954  -28.3226   24.1440 H   0  0  0  0  0  0
  -20.5652  -26.2272   23.3596 H   0  0  0  0  0  0
  -21.6631  -26.7458   22.1213 H   0  0  0  0  0  0
  -19.6908  -25.6301   21.1223 H   0  0  0  0  0  0
  -19.6699  -27.3197   20.6750 H   0  0  0  0  0  0
  -17.4208  -26.6705   21.4002 H   0  0  0  0  0  0
  -18.0314  -26.0072   22.8986 H   0  0  0  0  0  0
  -19.7919  -30.7260   24.2279 H   0  0  0  0  0  0
  -17.5003  -31.6269   24.5158 H   0  0  0  0  0  0
  -15.5339  -30.2981   23.7661 H   0  0  0  0  0  0
  -15.8657  -28.0828   22.7043 H   0  0  0  0  0  0
  -24.5902  -30.7047   25.7791 H   0  0  0  0  0  0
  -24.8861  -32.2901   26.4835 H   0  0  0  0  0  0
  -25.8034  -30.8950   27.0253 H   0  0  0  0  0  0
  -26.2820  -29.6789   24.1162 H   0  0  0  0  0  0
  -27.3982  -29.7248   25.4611 H   0  0  0  0  0  0
  -27.8692  -30.4294   23.9323 H   0  0  0  0  0  0
  -27.2713  -33.3611   26.2040 H   0  0  0  0  0  0
  -28.3853  -32.6829   25.0251 H   0  0  0  0  0  0
  -28.0742  -31.8405   26.5352 H   0  0  0  0  0  0
  -28.2591  -38.0113   24.7539 H   0  0  0  0  0  0
  -28.1116  -36.2656   24.6224 H   0  0  0  0  0  0
  -27.2335  -37.1371   25.8859 H   0  0  0  0  0  0
  -20.9279  -29.8759   21.6965 H   0  0  0  0  0  0
  -26.0182  -38.2869   24.1433 H   0  0  0  0  0  0
  -27.6751  -19.3576   19.0224 H   0  0  0  0  0  0
  -30.9053  -16.8226   21.7991 H   0  0  0  0  0  0
  -31.7361  -13.8366   17.6053 H   0  0  0  0  0  0
  -33.0769  -14.7836   18.2662 H   0  0  0  0  0  0
  -32.4059  -15.1550   16.6915 H   0  0  0  0  0  0
  -26.3207  -16.8319   16.7219 H   0  0  0  0  0  0
  -26.5036  -18.3668   17.5315 H   0  0  0  0  0  0
  -26.0157  -16.9453   18.4484 H   0  0  0  0  0  0
  -28.2381  -15.8532   17.8719 H   0  0  0  0  0  0
  -28.7339  -17.3296   17.0892 H   0  0  0  0  0  0
  -29.3895  -23.4400   21.4703 H   0  0  0  0  0  0
  -27.9159  -22.9477   22.2456 H   0  0  0  0  0  0
  -27.1968  -24.9548   21.4832 H   0  0  0  0  0  0
  -26.6895  -23.9944   20.1409 H   0  0  0  0  0  0
  -28.0455  -25.1929   18.6747 H   0  0  0  0  0  0
  -29.4281  -24.9759   19.6831 H   0  0  0  0  0  0
  -28.8970  -20.8990   22.1694 H   0  0  0  0  0  0
  1 25  1  0  0  0
  1 30  2  0  0  0
  1 86  1  0  0  0
  2  3  1  0  0  0
  2 25  1  0  0  0
  2 90  1  0  0  0
  2 91  1  0  0  0
  3  4  1  0  0  0
  3 92  1  0  0  0
  3 93  1  0  0  0
  4  5  1  0  0  0
  4 94  1  0  0  0
  4 95  1  0  0  0
  5  6  1  0  0  0
  5 26  1  0  0  0
  5 96  1  0  0  0
  6 25  1  0  0  0
  6 97  1  0  0  0
  6 98  1  0  0  0
  7  8  2  0  0  0
  7 26  1  0  0  0
  7 29  1  0  0  0
  8  9  1  0  0  0
  8 22  1  0  0  0
  9 10  1  0  0  0
  9 27  2  0  0  0
 10 11  2  0  0  0
 10 15  1  0  0  0
 11 12  1  0  0  0
 11 99  1  0  0  0
 12 13  2  0  0  0
 12100  1  0  0  0
 13 14  1  0  0  0
 13 31  1  0  0  0
 14 15  2  0  0  0
 14101  1  0  0  0
 15102  1  0  0  0
 16 17  2  0  0  0
 16 21  1  0  0  0
 16 31  1  0  0  0
 17 18  1  0  0  0
 17103  1  0  0  0
 18 19  2  0  0  0
 18104  1  0  0  0
 19 20  1  0  0  0
 19 24  1  0  0  0
 20 21  2  0  0  0
 20105  1  0  0  0
 21 23  1  0  0  0
 22 28  1  0  0  0
 22 32  2  0  0  0
 26 27  1  0  0  0
 28106  1  0  0  0
 28107  1  0  0  0
 29108  1  0  0  0
 29109  1  0  0  0
 33 34  1  0  0  0
 33 66  1  0  0  0
 33 70  2  0  0  0
 34 36  1  0  0  0
 34 59  1  0  0  0
 34110  1  0  0  0
 35 44  2  0  0  0
 35 45  1  0  0  0
 35 68  1  0  0  0
 36 56  1  0  0  0
 36111  1  0  0  0
 37 39  1  0  0  0
 37 47  1  0  0  0
 37 66  1  0  0  0
 37112  1  0  0  0
 38 43  2  0  0  0
 38 46  1  0  0  0
 38 47  1  0  0  0
 39 64  1  0  0  0
 39 67  2  0  0  0
 40 52  1  0  0  0
 40 53  2  0  0  0
 40 58  1  0  0  0
 41113  1  0  0  0
 41114  1  0  0  0
 41115  1  0  0  0
 41 48  1  0  0  0
 42 43  1  0  0  0
 42 66  1  0  0  0
 42116  1  0  0  0
 42117  1  0  0  0
 43 44  1  0  0  0
 44118  1  0  0  0
 45 46  2  0  0  0
 45119  1  0  0  0
 46120  1  0  0  0
 47121  1  0  0  0
 47122  1  0  0  0
 48 56  1  0  0  0
 48 65  1  0  0  0
 48123  1  0  0  0
 49 50  1  0  0  0
 49 53  1  0  0  0
 49 64  1  0  0  0
 49124  1  0  0  0
 50 51  1  0  0  0
 50125  1  0  0  0
 50126  1  0  0  0
 51 52  1  0  0  0
 51127  1  0  0  0
 51128  1  0  0  0
 52129  1  0  0  0
 52130  1  0  0  0
 53 54  1  0  0  0
 54 55  2  0  0  0
 54131  1  0  0  0
 55 57  1  0  0  0
 55132  1  0  0  0
 56 69  2  0  0  0
 57 58  2  0  0  0
 57133  1  0  0  0
 58134  1  0  0  0
 59 60  1  0  0  0
 59 61  1  0  0  0
 59 62  1  0  0  0
 60135  1  0  0  0
 60136  1  0  0  0
 60137  1  0  0  0
 61138  1  0  0  0
 61139  1  0  0  0
 61140  1  0  0  0
 62141  1  0  0  0
 62142  1  0  0  0
 62143  1  0  0  0
 63 65  1  0  0  0
 63144  1  0  0  0
 63145  1  0  0  0
 63146  1  0  0  0
 64147  1  0  0  0
 65148  1  0  0  0
 68 84  1  0  0  0
 71 73  2  0  0  0
 71 74  1  0  0  0
 71149  1  0  0  0
 72 75  2  0  0  0
 72 76  1  0  0  0
 72150  1  0  0  0
 73 75  1  0  0  0
 73 81  1  0  0  0
 74 76  2  0  0  0
 74 85  1  0  0  0
 75 86  1  0  0  0
 76 89  1  0  0  0
 77 79  1  0  0  0
 77 86  1  0  0  0
 77 87  2  0  0  0
 78 82  1  0  0  0
 78 85  1  0  0  0
 78 88  2  0  0  0
 79151  1  0  0  0
 79152  1  0  0  0
 79153  1  0  0  0
 80 81  1  0  0  0
 80154  1  0  0  0
 80155  1  0  0  0
 80156  1  0  0  0
 81157  1  0  0  0
 81158  1  0  0  0
 82 83  1  0  0  0
 82159  1  0  0  0
 82160  1  0  0  0
 83 84  1  0  0  0
 83161  1  0  0  0
 83162  1  0  0  0
 84163  1  0  0  0
 84164  1  0  0  0
 85165  1  0  0  0
M  ISO  4   1 100  68 101  84 101  86 100
M  END
> <chiral flag>
0

> <version>
0

> <s_m_source_file>
/data/baiqing/PycharmProjects/Reinvent-master-3.2/result/LINK_invent/BTK/process_docking_weight1_custom_product_contain_oxygen_bond_distance_aromatic_linkinvent_7_9_3/rearranged_h_0110.sdf

> <i_m_source_file_index>
87

> <r_mmod_Potential_Energy-OPLS-2005>
172.044021606445

> <r_mmod_Stretch_Energy-OPLS-2005>
54.6695213317871

> <r_mmod_Bend_Energy-OPLS-2005>
139.964767456055

> <r_mmod_Torsional_Energy-OPLS-2005>
344.403656005859

> <r_mmod_Improper_Torsional_Energy-OPLS-2005>
20.9444637298584

> <r_mmod_Van_der_Waal_Energy-OPLS-2005>
175.534103393555

> <r_mmod_Electrostatic_Energy-OPLS-2005>
-443.343872070312

> <r_mmod_Solvation_Energy-OPLS-2005>
-201.309432983398

> <b_mmod_Minimization_Converged-OPLS-2005>
0

> <r_mmod_RMS_Derivative-OPLS-2005>
2.95979690551758

$$$$
88
                    3D
 Structure written by MMmdl.
164172  0  0  1  0            999 V2000
  -30.6674  -14.6988   20.5388 C   0  0  0  0  0  0
  -30.4192  -12.4476   19.4667 C   0  0  0  0  0  0
  -29.5007  -12.5300   18.2287 C   0  0  0  0  0  0
  -28.0276  -12.3507   18.6368 C   0  0  0  0  0  0
  -27.6401  -13.2322   19.8534 C   0  0  2  0  0  0
  -28.6814  -13.1346   20.9873 C   0  0  0  0  0  0
  -25.2434  -13.8132   20.5546 C   0  0  0  0  0  0
  -24.1771  -13.0410   20.9219 C   0  0  0  0  0  0
  -24.6386  -11.6900   20.8777 C   0  0  0  0  0  0
  -23.9069  -10.4291   21.0428 C   0  0  0  0  0  0
  -24.3625   -9.4198   21.9198 C   0  0  0  0  0  0
  -23.6298   -8.2235   22.0767 C   0  0  0  0  0  0
  -22.4279   -8.0279   21.3555 C   0  0  0  0  0  0
  -21.9914   -9.0252   20.4653 C   0  0  0  0  0  0
  -22.7244  -10.2132   20.3066 C   0  0  0  0  0  0
  -21.6847   -6.0737   22.5281 C   0  0  0  0  0  0
  -21.4012   -6.5639   23.8215 C   0  0  0  0  0  0
  -21.3664   -5.6793   24.9179 C   0  0  0  0  0  0
  -21.6045   -4.3057   24.7230 C   0  0  0  0  0  0
  -21.8814   -3.8150   23.4349 C   0  0  0  0  0  0
  -21.9189   -4.6967   22.3405 C   0  0  0  0  0  0
  -22.7801  -13.5211   21.1884 C   0  0  0  0  0  0
  -22.1648   -4.2148   21.0984 F   0  0  0  0  0  0
  -21.5634   -3.4540   25.7746 F   0  0  0  0  0  0
  -29.9934  -13.4963   20.4281 N   0  0  0  0  0  0
  -26.2913  -12.9374   20.3269 N   0  0  0  0  0  0
  -25.9323  -11.6524   20.5788 N   0  0  0  0  0  0
  -22.0446  -12.8211   22.0441 N   0  0  0  0  0  0
  -25.3959  -15.1810   20.3600 N   0  0  0  0  0  0
  -31.8014  -14.7807   20.0635 O   0  0  0  0  0  0
  -21.6631   -6.8878   21.4246 O   0  0  0  0  0  0
  -22.3505  -14.5532   20.6738 O   0  0  0  0  0  0
  -24.6297  -31.8556   23.1993 C   0  0  0  0  0  0
  -25.9115  -32.4759   23.8347 C   0  0  1  0  0  0
  -27.2355  -27.2820   20.1068 C   0  0  0  0  0  0
  -25.5905  -33.8567   24.2266 N   0  0  0  0  0  0
  -23.4255  -30.4755   21.5438 C   0  0  2  0  0  0
  -24.8732  -28.9243   20.1113 C   0  0  0  0  0  0
  -22.7493  -29.4587   22.4937 C   0  0  0  0  0  0
  -18.0271  -28.1385   22.8481 C   0  0  0  0  0  0
  -24.1474  -36.7271   23.2644 C   0  0  0  0  0  0
  -25.9689  -30.7756   21.3734 C   0  0  0  0  0  0
  -26.0440  -29.3985   20.7143 C   0  0  0  0  0  0
  -27.2224  -28.5886   20.7021 C   0  0  0  0  0  0
  -26.0323  -26.8635   19.4949 C   0  0  0  0  0  0
  -24.8726  -27.6643   19.4942 C   0  0  0  0  0  0
  -23.6409  -29.8057   20.1605 C   0  0  0  0  0  0
  -25.4104  -36.3073   24.0334 C   0  0  1  0  0  0
  -20.5874  -28.3680   23.1271 C   0  0  2  0  0  0
  -20.6746  -26.9394   22.5418 C   0  0  0  0  0  0
  -19.5727  -26.6382   21.5206 C   0  0  0  0  0  0
  -18.1911  -26.7923   22.1623 C   0  0  0  0  0  0
  -19.1529  -28.8852   23.2871 C   0  0  0  0  0  0
  -18.9455  -30.1453   23.8890 C   0  0  0  0  0  0
  -17.6456  -30.6591   24.0554 C   0  0  0  0  0  0
  -25.9056  -34.9442   23.5106 C   0  0  0  0  0  0
  -16.5345  -29.9087   23.6329 C   0  0  0  0  0  0
  -16.7259  -28.6505   23.0351 C   0  0  0  0  0  0
  -26.4501  -31.6578   25.0732 C   0  0  0  0  0  0
  -25.3739  -31.3697   26.1457 C   0  0  0  0  0  0
  -27.0350  -30.3001   24.6202 C   0  0  0  0  0  0
  -27.6079  -32.4304   25.7486 C   0  0  0  0  0  0
  -27.5560  -37.1789   24.8475 C   0  0  0  0  0  0
  -21.4203  -29.3029   22.3673 N   0  0  0  0  0  0
  -26.4276  -37.3772   23.9415 N   0  0  0  0  0  0
  -24.6938  -31.0533   22.0955 N   0  0  0  0  0  0
  -23.4194  -28.8131   23.3045 O   0  0  0  0  0  0
  -28.3655  -26.4370   20.1844 O   0  0  0  0  0  0
  -26.5656  -34.8914   22.4695 O   0  0  0  0  0  0
  -23.5451  -32.1365   23.7304 O   0  0  0  0  0  0
  -28.6256  -19.3934   20.5774 C   0  0  0  0  0  0
  -30.7533  -19.2605   19.5300 C   0  0  0  0  0  0
  -28.7503  -18.0146   21.0019 C   0  0  0  0  0  0
  -29.6139  -20.0596   19.8141 C   0  0  0  0  0  0
  -29.9025  -17.1997   20.6773 C   0  0  0  0  0  0
  -30.9070  -17.9007   19.9393 C   0  0  0  0  0  0
  -23.6605  -20.2906   22.3349 C   0  0  0  0  0  0
  -24.4077  -19.3392   21.7479 C   0  0  0  0  0  0
  -29.0676  -22.5335   19.1346 C   0  0  0  0  0  0
  -25.6553  -18.8951   22.3438 C   0  0  0  0  0  0
  -30.0754  -15.6693   22.6431 C   0  0  0  0  0  0
  -27.5964  -17.4151   21.8099 C   0  0  0  0  0  0
  -28.6999  -23.6721   20.1739 C   0  0  0  0  0  0
  -28.5029  -25.1274   19.4707 C   0  0  0  0  0  0
  -29.4316  -21.2688   19.0433 N   0  0  0  0  0  0
  -26.2905  -18.0212   21.5568 N   0  0  0  0  0  0
  -30.0705  -15.7895   21.1747 N   0  0  0  0  0  0
  -26.1108  -19.2752   23.4244 O   0  0  0  0  0  0
  -32.0720  -17.2987   19.6119 F   0  0  0  0  0  0
  -31.4614  -12.5557   19.1626 H   0  0  0  0  0  0
  -30.3479  -11.4615   19.9285 H   0  0  0  0  0  0
  -29.7827  -11.7720   17.4956 H   0  0  0  0  0  0
  -29.6303  -13.4950   17.7382 H   0  0  0  0  0  0
  -27.8768  -11.2974   18.8790 H   0  0  0  0  0  0
  -27.3736  -12.5621   17.7908 H   0  0  0  0  0  0
  -27.6423  -14.2640   19.5004 H   0  0  0  0  0  0
  -28.7075  -12.1236   21.3981 H   0  0  0  0  0  0
  -28.3847  -13.7785   21.8110 H   0  0  0  0  0  0
  -25.2764   -9.5674   22.4786 H   0  0  0  0  0  0
  -23.9996   -7.4622   22.7487 H   0  0  0  0  0  0
  -21.0847   -8.8791   19.8955 H   0  0  0  0  0  0
  -22.3708  -10.9688   19.6193 H   0  0  0  0  0  0
  -21.1996   -7.6146   23.9722 H   0  0  0  0  0  0
  -21.1492   -6.0521   25.9083 H   0  0  0  0  0  0
  -22.0588   -2.7612   23.2854 H   0  0  0  0  0  0
  -22.4032  -11.9859   22.4836 H   0  0  0  0  0  0
  -21.1085  -13.1282   22.2665 H   0  0  0  0  0  0
  -24.5658  -15.7604   20.3243 H   0  0  0  0  0  0
  -26.1662  -15.5496   19.8198 H   0  0  0  0  0  0
  -26.7182  -32.5413   23.1096 H   0  0  0  0  0  0
  -24.9963  -33.9714   25.0345 H   0  0  0  0  0  0
  -22.7207  -31.2961   21.3968 H   0  0  0  0  0  0
  -23.3743  -35.9596   23.3334 H   0  0  0  0  0  0
  -24.3539  -36.8877   22.2051 H   0  0  0  0  0  0
  -23.7231  -37.6480   23.6656 H   0  0  0  0  0  0
  -26.0985  -31.5378   20.6041 H   0  0  0  0  0  0
  -26.8502  -30.8288   22.0015 H   0  0  0  0  0  0
  -28.1218  -28.9490   21.1814 H   0  0  0  0  0  0
  -25.9380  -25.8922   19.0379 H   0  0  0  0  0  0
  -23.9724  -27.2906   19.0260 H   0  0  0  0  0  0
  -23.7539  -30.5793   19.4005 H   0  0  0  0  0  0
  -22.7618  -29.2316   19.8626 H   0  0  0  0  0  0
  -25.1282  -36.1923   25.0827 H   0  0  0  0  0  0
  -20.9959  -28.3261   24.1388 H   0  0  0  0  0  0
  -20.5592  -26.2297   23.3629 H   0  0  0  0  0  0
  -21.6615  -26.7380   22.1240 H   0  0  0  0  0  0
  -19.6886  -25.6297   21.1226 H   0  0  0  0  0  0
  -19.6667  -27.3195   20.6741 H   0  0  0  0  0  0
  -17.4169  -26.6654   21.4046 H   0  0  0  0  0  0
  -18.0324  -26.0071   22.9029 H   0  0  0  0  0  0
  -19.7936  -30.7264   24.2262 H   0  0  0  0  0  0
  -17.5012  -31.6265   24.5162 H   0  0  0  0  0  0
  -15.5345  -30.2986   23.7665 H   0  0  0  0  0  0
  -15.8654  -28.0826   22.7068 H   0  0  0  0  0  0
  -24.5940  -30.7020   25.7772 H   0  0  0  0  0  0
  -24.8896  -32.2842   26.4886 H   0  0  0  0  0  0
  -25.8076  -30.8876   27.0232 H   0  0  0  0  0  0
  -26.2937  -29.6749   24.1210 H   0  0  0  0  0  0
  -27.4015  -29.7252   25.4724 H   0  0  0  0  0  0
  -27.8817  -30.4278   23.9457 H   0  0  0  0  0  0
  -27.2726  -33.3611   26.2064 H   0  0  0  0  0  0
  -28.3881  -32.6845   25.0299 H   0  0  0  0  0  0
  -28.0755  -31.8424   26.5394 H   0  0  0  0  0  0
  -28.2610  -38.0053   24.7471 H   0  0  0  0  0  0
  -28.1025  -36.2584   24.6363 H   0  0  0  0  0  0
  -27.2268  -37.1510   25.8878 H   0  0  0  0  0  0
  -20.9394  -29.8751   21.6868 H   0  0  0  0  0  0
  -26.0161  -38.2845   24.1428 H   0  0  0  0  0  0
  -27.7210  -19.9462   20.7825 H   0  0  0  0  0  0
  -31.5401  -19.6855   18.9227 H   0  0  0  0  0  0
  -22.7329  -20.6183   21.8858 H   0  0  0  0  0  0
  -23.9532  -20.7597   23.2636 H   0  0  0  0  0  0
  -24.0663  -18.9062   20.8173 H   0  0  0  0  0  0
  -29.0269  -23.0148   18.1548 H   0  0  0  0  0  0
  -29.0853  -15.4540   23.0398 H   0  0  0  0  0  0
  -30.4195  -16.5959   23.1024 H   0  0  0  0  0  0
  -30.7408  -14.8843   23.0103 H   0  0  0  0  0  0
  -27.8450  -17.4701   22.8704 H   0  0  0  0  0  0
  -27.5040  -16.3572   21.5718 H   0  0  0  0  0  0
  -27.7934  -23.3837   20.7055 H   0  0  0  0  0  0
  -29.4972  -23.7290   20.9130 H   0  0  0  0  0  0
  -29.4232  -25.2869   18.9060 H   0  0  0  0  0  0
  -27.7619  -25.0282   18.6818 H   0  0  0  0  0  0
  -25.8290  -17.7489   20.7018 H   0  0  0  0  0  0
  1 25  1  0  0  0
  1 30  2  0  0  0
  1 87  1  0  0  0
  2  3  1  0  0  0
  2 25  1  0  0  0
  2 90  1  0  0  0
  2 91  1  0  0  0
  3  4  1  0  0  0
  3 92  1  0  0  0
  3 93  1  0  0  0
  4  5  1  0  0  0
  4 94  1  0  0  0
  4 95  1  0  0  0
  5  6  1  0  0  0
  5 26  1  0  0  0
  5 96  1  0  0  0
  6 25  1  0  0  0
  6 97  1  0  0  0
  6 98  1  0  0  0
  7  8  2  0  0  0
  7 26  1  0  0  0
  7 29  1  0  0  0
  8  9  1  0  0  0
  8 22  1  0  0  0
  9 10  1  0  0  0
  9 27  2  0  0  0
 10 11  2  0  0  0
 10 15  1  0  0  0
 11 12  1  0  0  0
 11 99  1  0  0  0
 12 13  2  0  0  0
 12100  1  0  0  0
 13 14  1  0  0  0
 13 31  1  0  0  0
 14 15  2  0  0  0
 14101  1  0  0  0
 15102  1  0  0  0
 16 17  2  0  0  0
 16 21  1  0  0  0
 16 31  1  0  0  0
 17 18  1  0  0  0
 17103  1  0  0  0
 18 19  2  0  0  0
 18104  1  0  0  0
 19 20  1  0  0  0
 19 24  1  0  0  0
 20 21  2  0  0  0
 20105  1  0  0  0
 21 23  1  0  0  0
 22 28  1  0  0  0
 22 32  2  0  0  0
 26 27  1  0  0  0
 28106  1  0  0  0
 28107  1  0  0  0
 29108  1  0  0  0
 29109  1  0  0  0
 33 34  1  0  0  0
 33 66  1  0  0  0
 33 70  2  0  0  0
 34 36  1  0  0  0
 34 59  1  0  0  0
 34110  1  0  0  0
 35 44  2  0  0  0
 35 45  1  0  0  0
 35 68  1  0  0  0
 36 56  1  0  0  0
 36111  1  0  0  0
 37 39  1  0  0  0
 37 47  1  0  0  0
 37 66  1  0  0  0
 37112  1  0  0  0
 38 43  2  0  0  0
 38 46  1  0  0  0
 38 47  1  0  0  0
 39 64  1  0  0  0
 39 67  2  0  0  0
 40 52  1  0  0  0
 40 53  2  0  0  0
 40 58  1  0  0  0
 41113  1  0  0  0
 41114  1  0  0  0
 41115  1  0  0  0
 41 48  1  0  0  0
 42 43  1  0  0  0
 42 66  1  0  0  0
 42116  1  0  0  0
 42117  1  0  0  0
 43 44  1  0  0  0
 44118  1  0  0  0
 45 46  2  0  0  0
 45119  1  0  0  0
 46120  1  0  0  0
 47121  1  0  0  0
 47122  1  0  0  0
 48 56  1  0  0  0
 48 65  1  0  0  0
 48123  1  0  0  0
 49 50  1  0  0  0
 49 53  1  0  0  0
 49 64  1  0  0  0
 49124  1  0  0  0
 50 51  1  0  0  0
 50125  1  0  0  0
 50126  1  0  0  0
 51 52  1  0  0  0
 51127  1  0  0  0
 51128  1  0  0  0
 52129  1  0  0  0
 52130  1  0  0  0
 53 54  1  0  0  0
 54 55  2  0  0  0
 54131  1  0  0  0
 55 57  1  0  0  0
 55132  1  0  0  0
 56 69  2  0  0  0
 57 58  2  0  0  0
 57133  1  0  0  0
 58134  1  0  0  0
 59 60  1  0  0  0
 59 61  1  0  0  0
 59 62  1  0  0  0
 60135  1  0  0  0
 60136  1  0  0  0
 60137  1  0  0  0
 61138  1  0  0  0
 61139  1  0  0  0
 61140  1  0  0  0
 62141  1  0  0  0
 62142  1  0  0  0
 62143  1  0  0  0
 63 65  1  0  0  0
 63144  1  0  0  0
 63145  1  0  0  0
 63146  1  0  0  0
 64147  1  0  0  0
 65148  1  0  0  0
 68 84  1  0  0  0
 71 73  2  0  0  0
 71 74  1  0  0  0
 71149  1  0  0  0
 72 74  2  0  0  0
 72 76  1  0  0  0
 72150  1  0  0  0
 73 75  1  0  0  0
 73 82  1  0  0  0
 74 85  1  0  0  0
 75 76  2  0  0  0
 75 87  1  0  0  0
 76 89  1  0  0  0
 77 78  2  0  0  0
 77151  1  0  0  0
 77152  1  0  0  0
 78 80  1  0  0  0
 78153  1  0  0  0
 79 83  1  0  0  0
 79 85  2  0  0  0
 79154  1  0  0  0
 80 86  1  0  0  0
 80 88  2  0  0  0
 81 87  1  0  0  0
 81155  1  0  0  0
 81156  1  0  0  0
 81157  1  0  0  0
 82 86  1  0  0  0
 82158  1  0  0  0
 82159  1  0  0  0
 83 84  1  0  0  0
 83160  1  0  0  0
 83161  1  0  0  0
 84162  1  0  0  0
 84163  1  0  0  0
 86164  1  0  0  0
M  ISO  4   1 100  68 101  84 101  87 100
M  END
> <chiral flag>
0

> <version>
0

> <s_m_source_file>
/data/baiqing/PycharmProjects/Reinvent-master-3.2/result/LINK_invent/BTK/process_docking_weight1_custom_product_contain_oxygen_bond_distance_aromatic_linkinvent_7_9_3/rearranged_h_0110.sdf

> <i_m_source_file_index>
88

> <r_mmod_Potential_Energy-OPLS-2005>
301.427307128906

> <r_mmod_Stretch_Energy-OPLS-2005>
123.315727233887

> <r_mmod_Bend_Energy-OPLS-2005>
290.016937255859

> <r_mmod_Torsional_Energy-OPLS-2005>
311.189666748047

> <r_mmod_Improper_Torsional_Energy-OPLS-2005>
9.02121734619141

> <r_mmod_Van_der_Waal_Energy-OPLS-2005>
151.115814208984

> <r_mmod_Electrostatic_Energy-OPLS-2005>
-418.227600097656

> <r_mmod_Solvation_Energy-OPLS-2005>
-229.497802734375

> <b_mmod_Minimization_Converged-OPLS-2005>
0

> <r_mmod_RMS_Derivative-OPLS-2005>
2.14224696159363

$$$$
89
                    3D
 Structure written by MMmdl.
165174  0  0  1  0            999 V2000
  -30.6418  -14.7063   20.3043 C   0  0  0  0  0  0
  -30.4172  -12.4082   19.4231 C   0  0  0  0  0  0
  -29.4719  -12.4231   18.2041 C   0  0  0  0  0  0
  -28.0018  -12.2975   18.6486 C   0  0  0  0  0  0
  -27.6324  -13.2097   19.8494 C   0  0  2  0  0  0
  -28.7048  -13.1858   20.9533 C   0  0  0  0  0  0
  -25.2551  -13.8122   20.5985 C   0  0  0  0  0  0
  -24.1804  -13.0380   20.9365 C   0  0  0  0  0  0
  -24.6355  -11.6853   20.8847 C   0  0  0  0  0  0
  -23.9039  -10.4229   21.0423 C   0  0  0  0  0  0
  -24.3585   -9.4153   21.9196 C   0  0  0  0  0  0
  -23.6261   -8.2194   22.0756 C   0  0  0  0  0  0
  -22.4244   -8.0252   21.3527 C   0  0  0  0  0  0
  -21.9872   -9.0232   20.4639 C   0  0  0  0  0  0
  -22.7218  -10.2100   20.3069 C   0  0  0  0  0  0
  -21.6853   -6.0742   22.5299 C   0  0  0  0  0  0
  -21.3998   -6.5648   23.8225 C   0  0  0  0  0  0
  -21.3642   -5.6792   24.9175 C   0  0  0  0  0  0
  -21.6047   -4.3062   24.7252 C   0  0  0  0  0  0
  -21.8809   -3.8158   23.4382 C   0  0  0  0  0  0
  -21.9188   -4.6966   22.3428 C   0  0  0  0  0  0
  -22.7823  -13.5202   21.1951 C   0  0  0  0  0  0
  -22.1647   -4.2137   21.1003 F   0  0  0  0  0  0
  -21.5610   -3.4545   25.7767 F   0  0  0  0  0  0
  -29.9849  -13.5010   20.3091 N   0  0  0  0  0  0
  -26.2919  -12.9294   20.3462 N   0  0  0  0  0  0
  -25.9270  -11.6443   20.5868 N   0  0  0  0  0  0
  -22.0384  -12.8187   22.0457 N   0  0  0  0  0  0
  -25.4188  -15.1838   20.4651 N   0  0  0  0  0  0
  -31.8722  -14.7150   20.3999 O   0  0  0  0  0  0
  -21.6616   -6.8855   21.4244 O   0  0  0  0  0  0
  -22.3535  -14.5485   20.6740 O   0  0  0  0  0  0
  -24.6285  -31.8589   23.2008 C   0  0  0  0  0  0
  -25.9155  -32.4765   23.8340 C   0  0  1  0  0  0
  -27.2239  -27.3004   20.1225 C   0  0  0  0  0  0
  -25.6028  -33.8557   24.2291 N   0  0  0  0  0  0
  -23.4186  -30.4836   21.5383 C   0  0  2  0  0  0
  -24.8623  -28.9325   20.1077 C   0  0  0  0  0  0
  -22.7453  -29.4639   22.4865 C   0  0  0  0  0  0
  -18.0292  -28.1377   22.8509 C   0  0  0  0  0  0
  -24.1456  -36.7192   23.2626 C   0  0  0  0  0  0
  -25.9619  -30.7822   21.3755 C   0  0  0  0  0  0
  -26.0286  -29.4083   20.7182 C   0  0  0  0  0  0
  -27.2047  -28.6035   20.7128 C   0  0  0  0  0  0
  -26.0324  -26.8765   19.4872 C   0  0  0  0  0  0
  -24.8679  -27.6743   19.4842 C   0  0  0  0  0  0
  -23.6348  -29.8199   20.1526 C   0  0  0  0  0  0
  -25.4098  -36.3065   24.0334 C   0  0  1  0  0  0
  -20.5913  -28.3684   23.1250 C   0  0  2  0  0  0
  -20.6775  -26.9399   22.5397 C   0  0  0  0  0  0
  -19.5748  -26.6381   21.5209 C   0  0  0  0  0  0
  -18.1925  -26.7926   22.1627 C   0  0  0  0  0  0
  -19.1560  -28.8851   23.2891 C   0  0  0  0  0  0
  -18.9498  -30.1467   23.8893 C   0  0  0  0  0  0
  -17.6500  -30.6593   24.0568 C   0  0  0  0  0  0
  -25.9067  -34.9439   23.5078 C   0  0  0  0  0  0
  -16.5379  -29.9087   23.6361 C   0  0  0  0  0  0
  -16.7280  -28.6503   23.0373 C   0  0  0  0  0  0
  -26.4542  -31.6546   25.0686 C   0  0  0  0  0  0
  -25.3757  -31.3673   26.1391 C   0  0  0  0  0  0
  -27.0370  -30.2957   24.6142 C   0  0  0  0  0  0
  -27.6129  -32.4227   25.7473 C   0  0  0  0  0  0
  -27.5551  -37.1747   24.8491 C   0  0  0  0  0  0
  -21.4180  -29.3041   22.3591 N   0  0  0  0  0  0
  -26.4259  -37.3787   23.9447 N   0  0  0  0  0  0
  -24.6865  -31.0627   22.0932 N   0  0  0  0  0  0
  -23.4170  -28.8184   23.2939 O   0  0  0  0  0  0
  -28.3882  -26.5100   20.2280 O   0  0  0  0  0  0
  -26.5571  -34.8920   22.4598 O   0  0  0  0  0  0
  -23.5452  -32.1397   23.7348 O   0  0  0  0  0  0
  -27.8556  -18.7709   19.1972 C   0  0  0  0  0  0
  -29.7373  -19.3697   20.5187 C   0  0  0  0  0  0
  -28.3105  -17.4196   19.0942 C   0  0  0  0  0  0
  -28.5556  -19.8336   19.8557 C   0  0  0  0  0  0
  -29.4959  -16.9842   19.7662 C   0  0  0  0  0  0
  -30.1892  -18.0054   20.4833 C   0  0  0  0  0  0
  -26.8627  -23.7937   21.1034 C   0  0  0  0  0  0
  -28.0208  -23.7423   20.3827 C   0  0  0  0  0  0
  -26.0968  -22.6320   21.5831 C   0  0  0  0  0  0
  -28.7585  -22.4213   20.1769 C   0  0  0  0  0  0
  -26.2689  -16.6036   17.8157 C   0  0  0  0  0  0
  -27.5371  -16.4787   18.2462 C   0  0  0  0  0  0
  -25.6737  -21.5888   20.5475 C   0  0  0  0  0  0
  -26.6626  -21.5011   19.3691 C   0  0  0  0  0  0
  -30.8027  -15.7314   18.1615 C   0  0  0  0  0  0
  -28.6351  -25.0876   19.8110 C   0  0  0  0  0  0
  -28.0494  -21.2590   19.8408 N   0  0  0  0  0  0
  -30.0901  -15.6640   19.4594 N   0  0  0  0  0  0
  -25.7521  -22.5007   22.7595 O   0  0  0  0  0  0
  -29.9846  -22.3834   20.2967 O   0  0  0  0  0  0
  -31.3595  -17.7032   21.0955 F   0  0  0  0  0  0
  -31.4494  -12.5350   19.0880 H   0  0  0  0  0  0
  -30.3736  -11.4520   19.9429 H   0  0  0  0  0  0
  -29.7203  -11.5991   17.5343 H   0  0  0  0  0  0
  -29.5973  -13.3318   17.6176 H   0  0  0  0  0  0
  -27.8363  -11.2541   18.9210 H   0  0  0  0  0  0
  -27.3331  -12.4940   17.8083 H   0  0  0  0  0  0
  -27.6062  -14.2202   19.4690 H   0  0  0  0  0  0
  -28.7495  -12.2160   21.4492 H   0  0  0  0  0  0
  -28.4818  -13.9272   21.7227 H   0  0  0  0  0  0
  -25.2689   -9.5622   22.4832 H   0  0  0  0  0  0
  -23.9943   -7.4588   22.7487 H   0  0  0  0  0  0
  -21.0798   -8.8771   19.8965 H   0  0  0  0  0  0
  -22.3668  -10.9661   19.6228 H   0  0  0  0  0  0
  -21.1961   -7.6149   23.9719 H   0  0  0  0  0  0
  -21.1468   -6.0527   25.9079 H   0  0  0  0  0  0
  -22.0590   -2.7625   23.2894 H   0  0  0  0  0  0
  -22.3928  -11.9810   22.4846 H   0  0  0  0  0  0
  -21.1018  -13.1272   22.2637 H   0  0  0  0  0  0
  -24.6361  -15.8209   20.5607 H   0  0  0  0  0  0
  -26.2289  -15.6215   20.0439 H   0  0  0  0  0  0
  -26.7161  -32.5409   23.1041 H   0  0  0  0  0  0
  -25.0438  -33.9695   25.0610 H   0  0  0  0  0  0
  -22.7154  -31.3041   21.3911 H   0  0  0  0  0  0
  -23.3803  -35.9459   23.3325 H   0  0  0  0  0  0
  -24.3501  -36.8753   22.2036 H   0  0  0  0  0  0
  -23.7142  -37.6360   23.6599 H   0  0  0  0  0  0
  -26.1080  -31.5537   20.6186 H   0  0  0  0  0  0
  -26.8372  -30.8184   22.0113 H   0  0  0  0  0  0
  -28.0987  -28.9730   21.1971 H   0  0  0  0  0  0
  -25.9522  -25.9191   18.9990 H   0  0  0  0  0  0
  -23.9712  -27.3076   19.0005 H   0  0  0  0  0  0
  -23.7543  -30.5979   19.3969 H   0  0  0  0  0  0
  -22.7542  -29.2494   19.8505 H   0  0  0  0  0  0
  -25.1274  -36.1910   25.0837 H   0  0  0  0  0  0
  -21.0071  -28.3308   24.1343 H   0  0  0  0  0  0
  -20.5681  -26.2322   23.3613 H   0  0  0  0  0  0
  -21.6631  -26.7377   22.1183 H   0  0  0  0  0  0
  -19.6907  -25.6289   21.1243 H   0  0  0  0  0  0
  -19.6702  -27.3199   20.6742 H   0  0  0  0  0  0
  -17.4195  -26.6755   21.4012 H   0  0  0  0  0  0
  -18.0287  -26.0041   22.9002 H   0  0  0  0  0  0
  -19.7974  -30.7307   24.2244 H   0  0  0  0  0  0
  -17.5038  -31.6273   24.5165 H   0  0  0  0  0  0
  -15.5377  -30.2993   23.7656 H   0  0  0  0  0  0
  -15.8687  -28.0802   22.7081 H   0  0  0  0  0  0
  -24.6073  -30.6869   25.7704 H   0  0  0  0  0  0
  -24.8810  -32.2827   26.4659 H   0  0  0  0  0  0
  -25.8108  -30.9004   27.0252 H   0  0  0  0  0  0
  -26.2926  -29.6708   24.1209 H   0  0  0  0  0  0
  -27.4100  -29.7216   25.4639 H   0  0  0  0  0  0
  -27.8800  -30.4171   23.9333 H   0  0  0  0  0  0
  -27.2806  -33.3604   26.1935 H   0  0  0  0  0  0
  -28.4054  -32.6630   25.0365 H   0  0  0  0  0  0
  -28.0673  -31.8398   26.5504 H   0  0  0  0  0  0
  -28.2612  -38.0003   24.7561 H   0  0  0  0  0  0
  -28.1010  -36.2549   24.6329 H   0  0  0  0  0  0
  -27.2235  -37.1386   25.8878 H   0  0  0  0  0  0
  -20.9322  -29.8746   21.6806 H   0  0  0  0  0  0
  -26.0150  -38.2851   24.1531 H   0  0  0  0  0  0
  -26.9450  -18.9767   18.6716 H   0  0  0  0  0  0
  -30.3504  -20.0691   21.0667 H   0  0  0  0  0  0
  -26.4025  -24.7527   21.2872 H   0  0  0  0  0  0
  -25.8302  -15.8370   17.1893 H   0  0  0  0  0  0
  -25.6366  -17.4415   18.0730 H   0  0  0  0  0  0
  -28.0553  -15.5924   17.9104 H   0  0  0  0  0  0
  -24.6824  -21.8442   20.1751 H   0  0  0  0  0  0
  -25.5801  -20.6198   21.0349 H   0  0  0  0  0  0
  -26.6094  -22.4133   18.7671 H   0  0  0  0  0  0
  -26.2871  -20.8012   18.6330 H   0  0  0  0  0  0
  -30.1348  -15.9603   17.3333 H   0  0  0  0  0  0
  -31.3145  -14.8066   17.8807 H   0  0  0  0  0  0
  -31.5648  -16.5106   18.1949 H   0  0  0  0  0  0
  -28.8447  -25.1139   20.8819 H   0  0  0  0  0  0
  -27.7704  -25.0655   19.1675 H   0  0  0  0  0  0
  1 25  1  0  0  0
  1 30  2  0  0  0
  1 88  1  0  0  0
  2  3  1  0  0  0
  2 25  1  0  0  0
  2 92  1  0  0  0
  2 93  1  0  0  0
  3  4  1  0  0  0
  3 94  1  0  0  0
  3 95  1  0  0  0
  4  5  1  0  0  0
  4 96  1  0  0  0
  4 97  1  0  0  0
  5  6  1  0  0  0
  5 26  1  0  0  0
  5 98  1  0  0  0
  6 25  1  0  0  0
  6 99  1  0  0  0
  6100  1  0  0  0
  7  8  2  0  0  0
  7 26  1  0  0  0
  7 29  1  0  0  0
  8  9  1  0  0  0
  8 22  1  0  0  0
  9 10  1  0  0  0
  9 27  2  0  0  0
 10 11  2  0  0  0
 10 15  1  0  0  0
 11 12  1  0  0  0
 11101  1  0  0  0
 12 13  2  0  0  0
 12102  1  0  0  0
 13 14  1  0  0  0
 13 31  1  0  0  0
 14 15  2  0  0  0
 14103  1  0  0  0
 15104  1  0  0  0
 16 17  2  0  0  0
 16 21  1  0  0  0
 16 31  1  0  0  0
 17 18  1  0  0  0
 17105  1  0  0  0
 18 19  2  0  0  0
 18106  1  0  0  0
 19 20  1  0  0  0
 19 24  1  0  0  0
 20 21  2  0  0  0
 20107  1  0  0  0
 21 23  1  0  0  0
 22 28  1  0  0  0
 22 32  2  0  0  0
 26 27  1  0  0  0
 28108  1  0  0  0
 28109  1  0  0  0
 29110  1  0  0  0
 29111  1  0  0  0
 33 34  1  0  0  0
 33 66  1  0  0  0
 33 70  2  0  0  0
 34 36  1  0  0  0
 34 59  1  0  0  0
 34112  1  0  0  0
 35 44  2  0  0  0
 35 45  1  0  0  0
 35 68  1  0  0  0
 36 56  1  0  0  0
 36113  1  0  0  0
 37 39  1  0  0  0
 37 47  1  0  0  0
 37 66  1  0  0  0
 37114  1  0  0  0
 38 43  2  0  0  0
 38 46  1  0  0  0
 38 47  1  0  0  0
 39 64  1  0  0  0
 39 67  2  0  0  0
 40 52  1  0  0  0
 40 53  2  0  0  0
 40 58  1  0  0  0
 41115  1  0  0  0
 41116  1  0  0  0
 41117  1  0  0  0
 41 48  1  0  0  0
 42 43  1  0  0  0
 42 66  1  0  0  0
 42118  1  0  0  0
 42119  1  0  0  0
 43 44  1  0  0  0
 44120  1  0  0  0
 45 46  2  0  0  0
 45121  1  0  0  0
 46122  1  0  0  0
 47123  1  0  0  0
 47124  1  0  0  0
 48 56  1  0  0  0
 48 65  1  0  0  0
 48125  1  0  0  0
 49 50  1  0  0  0
 49 53  1  0  0  0
 49 64  1  0  0  0
 49126  1  0  0  0
 50 51  1  0  0  0
 50127  1  0  0  0
 50128  1  0  0  0
 51 52  1  0  0  0
 51129  1  0  0  0
 51130  1  0  0  0
 52131  1  0  0  0
 52132  1  0  0  0
 53 54  1  0  0  0
 54 55  2  0  0  0
 54133  1  0  0  0
 55 57  1  0  0  0
 55134  1  0  0  0
 56 69  2  0  0  0
 57 58  2  0  0  0
 57135  1  0  0  0
 58136  1  0  0  0
 59 60  1  0  0  0
 59 61  1  0  0  0
 59 62  1  0  0  0
 60137  1  0  0  0
 60138  1  0  0  0
 60139  1  0  0  0
 61140  1  0  0  0
 61141  1  0  0  0
 61142  1  0  0  0
 62143  1  0  0  0
 62144  1  0  0  0
 62145  1  0  0  0
 63 65  1  0  0  0
 63146  1  0  0  0
 63147  1  0  0  0
 63148  1  0  0  0
 64149  1  0  0  0
 65150  1  0  0  0
 68 86  1  0  0  0
 71 73  2  0  0  0
 71 74  1  0  0  0
 71151  1  0  0  0
 72 74  2  0  0  0
 72 76  1  0  0  0
 72152  1  0  0  0
 73 75  1  0  0  0
 73 82  1  0  0  0
 74 87  1  0  0  0
 75 76  2  0  0  0
 75 88  1  0  0  0
 76 91  1  0  0  0
 77 78  2  0  0  0
 77 79  1  0  0  0
 77153  1  0  0  0
 78 80  1  0  0  0
 78 86  1  0  0  0
 79 83  1  0  0  0
 79 89  2  0  0  0
 80 87  1  0  0  0
 80 90  2  0  0  0
 81 82  2  0  0  0
 81154  1  0  0  0
 81155  1  0  0  0
 82156  1  0  0  0
 83 84  1  0  0  0
 83157  1  0  0  0
 83158  1  0  0  0
 84 87  1  0  0  0
 84159  1  0  0  0
 84160  1  0  0  0
 85 88  1  0  0  0
 85161  1  0  0  0
 85162  1  0  0  0
 85163  1  0  0  0
 86164  1  0  0  0
 86165  1  0  0  0
M  ISO  4   1 100  68 101  86 101  88 100
M  END
> <chiral flag>
0

> <version>
0

> <s_m_source_file>
/data/baiqing/PycharmProjects/Reinvent-master-3.2/result/LINK_invent/BTK/process_docking_weight1_custom_product_contain_oxygen_bond_distance_aromatic_linkinvent_7_9_3/rearranged_h_0110.sdf

> <i_m_source_file_index>
89

> <r_mmod_Potential_Energy-OPLS-2005>
662.869018554688

> <r_mmod_Stretch_Energy-OPLS-2005>
130.311767578125

> <r_mmod_Bend_Energy-OPLS-2005>
429.356903076172

> <r_mmod_Torsional_Energy-OPLS-2005>
373.012542724609

> <r_mmod_Improper_Torsional_Energy-OPLS-2005>
37.2315940856934

> <r_mmod_Van_der_Waal_Energy-OPLS-2005>
193.169036865234

> <r_mmod_Electrostatic_Energy-OPLS-2005>
-366.898284912109

> <r_mmod_Solvation_Energy-OPLS-2005>
-222.529006958008

> <b_mmod_Minimization_Converged-OPLS-2005>
0

> <r_mmod_RMS_Derivative-OPLS-2005>
4.69379758834839

$$$$
90
                    3D
 Structure written by MMmdl.
163171  0  0  1  0            999 V2000
  -30.7584  -14.5173   20.5785 C   0  0  0  0  0  0
  -30.4107  -12.3454   19.4433 C   0  0  0  0  0  0
  -29.4923  -12.5083   18.2175 C   0  0  0  0  0  0
  -28.0187  -12.3522   18.6303 C   0  0  0  0  0  0
  -27.6544  -13.2112   19.8692 C   0  0  2  0  0  0
  -28.7029  -13.0613   20.9982 C   0  0  0  0  0  0
  -25.2589  -13.8153   20.5802 C   0  0  0  0  0  0
  -24.1822  -13.0425   20.9232 C   0  0  0  0  0  0
  -24.6380  -11.6896   20.8716 C   0  0  0  0  0  0
  -23.9039  -10.4279   21.0362 C   0  0  0  0  0  0
  -24.3585   -9.4196   21.9147 C   0  0  0  0  0  0
  -23.6258   -8.2240   22.0748 C   0  0  0  0  0  0
  -22.4247   -8.0279   21.3542 C   0  0  0  0  0  0
  -21.9872   -9.0238   20.4641 C   0  0  0  0  0  0
  -22.7200  -10.2115   20.3020 C   0  0  0  0  0  0
  -21.6835   -6.0717   22.5279 C   0  0  0  0  0  0
  -21.4017   -6.5615   23.8215 C   0  0  0  0  0  0
  -21.3671   -5.6773   24.9174 C   0  0  0  0  0  0
  -21.6037   -4.3039   24.7230 C   0  0  0  0  0  0
  -21.8812   -3.8131   23.4353 C   0  0  0  0  0  0
  -21.9188   -4.6944   22.3403 C   0  0  0  0  0  0
  -22.7836  -13.5221   21.1856 C   0  0  0  0  0  0
  -22.1654   -4.2136   21.0976 F   0  0  0  0  0  0
  -21.5624   -3.4533   25.7743 F   0  0  0  0  0  0
  -30.0283  -13.3669   20.4412 N   0  0  0  0  0  0
  -26.3001  -12.9320   20.3383 N   0  0  0  0  0  0
  -25.9310  -11.6474   20.5741 N   0  0  0  0  0  0
  -22.0463  -12.8234   22.0428 N   0  0  0  0  0  0
  -25.4356  -15.1887   20.4435 N   0  0  0  0  0  0
  -31.8582  -14.6524   20.0456 O   0  0  0  0  0  0
  -21.6616   -6.8879   21.4254 O   0  0  0  0  0  0
  -22.3552  -14.5514   20.6685 O   0  0  0  0  0  0
  -24.6186  -31.8663   23.2071 C   0  0  0  0  0  0
  -25.9080  -32.4808   23.8356 C   0  0  1  0  0  0
  -27.2264  -27.3923   20.1102 C   0  0  0  0  0  0
  -25.5937  -33.8611   24.2303 N   0  0  0  0  0  0
  -23.4063  -30.4862   21.5510 C   0  0  2  0  0  0
  -24.8522  -28.9435   20.1149 C   0  0  0  0  0  0
  -22.7423  -29.4645   22.5020 C   0  0  0  0  0  0
  -18.0287  -28.1388   22.8444 C   0  0  0  0  0  0
  -24.1487  -36.7306   23.2626 C   0  0  0  0  0  0
  -25.9373  -30.8141   21.3653 C   0  0  0  0  0  0
  -26.0138  -29.4447   20.7142 C   0  0  0  0  0  0
  -27.2066  -28.6804   20.7005 C   0  0  0  0  0  0
  -26.0489  -26.9108   19.5009 C   0  0  0  0  0  0
  -24.8672  -27.6799   19.4987 C   0  0  0  0  0  0
  -23.6155  -29.8144   20.1662 C   0  0  0  0  0  0
  -25.4124  -36.3128   24.0328 C   0  0  1  0  0  0
  -20.5861  -28.3658   23.1278 C   0  0  2  0  0  0
  -20.6741  -26.9388   22.5367 C   0  0  0  0  0  0
  -19.5747  -26.6406   21.5118 C   0  0  0  0  0  0
  -18.1920  -26.7950   22.1535 C   0  0  0  0  0  0
  -19.1534  -28.8849   23.2862 C   0  0  0  0  0  0
  -18.9467  -30.1461   23.8869 C   0  0  0  0  0  0
  -17.6469  -30.6581   24.0575 C   0  0  0  0  0  0
  -25.9065  -34.9469   23.5114 C   0  0  0  0  0  0
  -16.5358  -29.9092   23.6300 C   0  0  0  0  0  0
  -16.7273  -28.6507   23.0312 C   0  0  0  0  0  0
  -26.4492  -31.6584   25.0685 C   0  0  0  0  0  0
  -25.3740  -31.3687   26.1425 C   0  0  0  0  0  0
  -27.0296  -30.2999   24.6066 C   0  0  0  0  0  0
  -27.6084  -32.4276   25.7441 C   0  0  0  0  0  0
  -27.5593  -37.1808   24.8472 C   0  0  0  0  0  0
  -21.4167  -29.3011   22.3713 N   0  0  0  0  0  0
  -26.4308  -37.3814   23.9416 N   0  0  0  0  0  0
  -24.6726  -31.0697   22.1003 N   0  0  0  0  0  0
  -23.4182  -28.8254   23.3137 O   0  0  0  0  0  0
  -28.3783  -26.6221   20.1200 O   0  0  0  0  0  0
  -26.5608  -34.8921   22.4668 O   0  0  0  0  0  0
  -23.5366  -32.1464   23.7442 O   0  0  0  0  0  0
  -30.2536  -18.4913   20.6569 C   0  0  0  0  0  0
  -28.1376  -18.6407   21.8468 C   0  0  0  0  0  0
  -29.1776  -17.8322   21.2981 C   0  0  0  0  0  0
  -28.1675  -20.0650   21.7198 C   0  0  0  0  0  0
  -30.2604  -19.9011   20.5011 C   0  0  0  0  0  0
  -29.2061  -20.7047   20.9933 C   0  0  0  0  0  0
  -26.9521  -17.5997   23.7605 C   0  0  0  0  0  0
  -26.9724  -18.0021   22.4786 C   0  0  0  0  0  0
  -27.1092  -20.9118   22.4170 C   0  0  0  0  0  0
  -29.0907  -16.2799   21.3533 C   0  0  0  0  0  0
  -28.5473  -24.1577   19.5191 C   0  0  0  0  0  0
  -28.2469  -25.2525   20.5871 C   0  0  0  0  0  0
  -28.2835  -22.6682   19.9276 C   0  0  0  0  0  0
  -31.3227  -20.5313   19.8577 N   0  0  0  0  0  0
  -30.3479  -15.5137   21.3903 N   0  0  0  0  0  0
  -29.2635  -22.0874   20.8119 O   0  0  0  0  0  0
  -31.4565  -12.4202   19.1416 H   0  0  0  0  0  0
  -30.2993  -11.3451   19.8696 H   0  0  0  0  0  0
  -29.7465  -11.7739   17.4530 H   0  0  0  0  0  0
  -29.6449  -13.4888   17.7615 H   0  0  0  0  0  0
  -27.8461  -11.2977   18.8443 H   0  0  0  0  0  0
  -27.3667  -12.6082   17.7940 H   0  0  0  0  0  0
  -27.6670  -14.2402   19.5177 H   0  0  0  0  0  0
  -28.6943  -12.0419   21.3909 H   0  0  0  0  0  0
  -28.4593  -13.7013   21.8446 H   0  0  0  0  0  0
  -25.2736   -9.5663   22.4722 H   0  0  0  0  0  0
  -23.9967   -7.4620   22.7456 H   0  0  0  0  0  0
  -21.0808   -8.8706   19.8955 H   0  0  0  0  0  0
  -22.3627  -10.9619   19.6113 H   0  0  0  0  0  0
  -21.2019   -7.6126   23.9713 H   0  0  0  0  0  0
  -21.1506   -6.0503   25.9069 H   0  0  0  0  0  0
  -22.0594   -2.7603   23.2839 H   0  0  0  0  0  0
  -22.4049  -11.9898   22.4839 H   0  0  0  0  0  0
  -21.1075  -13.1241   22.2606 H   0  0  0  0  0  0
  -24.6930  -15.8476   20.6495 H   0  0  0  0  0  0
  -26.3178  -15.6370   20.2410 H   0  0  0  0  0  0
  -26.7139  -32.5500   23.1111 H   0  0  0  0  0  0
  -25.0160  -33.9789   25.0491 H   0  0  0  0  0  0
  -22.6953  -31.3045   21.4112 H   0  0  0  0  0  0
  -23.3769  -35.9620   23.3307 H   0  0  0  0  0  0
  -24.3557  -36.8879   22.2027 H   0  0  0  0  0  0
  -23.7193  -37.6500   23.6618 H   0  0  0  0  0  0
  -26.0501  -31.5739   20.5903 H   0  0  0  0  0  0
  -26.8266  -30.8719   21.9804 H   0  0  0  0  0  0
  -28.1029  -29.0604   21.1678 H   0  0  0  0  0  0
  -26.0410  -25.9425   19.0207 H   0  0  0  0  0  0
  -23.9768  -27.2943   19.0214 H   0  0  0  0  0  0
  -23.7252  -30.5868   19.4039 H   0  0  0  0  0  0
  -22.7379  -29.2380   19.8701 H   0  0  0  0  0  0
  -25.1284  -36.2011   25.0813 H   0  0  0  0  0  0
  -20.9948  -28.3202   24.1391 H   0  0  0  0  0  0
  -20.5645  -26.2210   23.3511 H   0  0  0  0  0  0
  -21.6600  -26.7420   22.1178 H   0  0  0  0  0  0
  -19.6885  -25.6327   21.1110 H   0  0  0  0  0  0
  -19.6721  -27.3242   20.6666 H   0  0  0  0  0  0
  -17.4219  -26.6731   21.3918 H   0  0  0  0  0  0
  -18.0289  -26.0046   22.8872 H   0  0  0  0  0  0
  -19.7951  -30.7261   24.2210 H   0  0  0  0  0  0
  -17.5050  -31.6228   24.5241 H   0  0  0  0  0  0
  -15.5370  -30.3009   23.7636 H   0  0  0  0  0  0
  -15.8675  -28.0836   22.6985 H   0  0  0  0  0  0
  -24.5978  -30.6955   25.7778 H   0  0  0  0  0  0
  -24.8862  -32.2826   26.4821 H   0  0  0  0  0  0
  -25.8096  -30.8925   27.0215 H   0  0  0  0  0  0
  -26.2811  -29.6776   24.1138 H   0  0  0  0  0  0
  -27.4071  -29.7217   25.4515 H   0  0  0  0  0  0
  -27.8656  -30.4290   23.9181 H   0  0  0  0  0  0
  -27.2749  -33.3603   26.2000 H   0  0  0  0  0  0
  -28.3897  -32.6770   25.0252 H   0  0  0  0  0  0
  -28.0741  -31.8389   26.5353 H   0  0  0  0  0  0
  -28.2642  -38.0086   24.7528 H   0  0  0  0  0  0
  -28.1062  -36.2610   24.6312 H   0  0  0  0  0  0
  -27.2289  -37.1448   25.8870 H   0  0  0  0  0  0
  -20.9422  -29.8659   21.6806 H   0  0  0  0  0  0
  -26.0206  -38.2894   24.1427 H   0  0  0  0  0  0
  -31.0691  -17.9079   20.2484 H   0  0  0  0  0  0
  -26.0802  -17.1230   24.1827 H   0  0  0  0  0  0
  -27.8061  -17.7376   24.4085 H   0  0  0  0  0  0
  -26.1009  -17.8521   21.8539 H   0  0  0  0  0  0
  -26.8212  -20.4794   23.3753 H   0  0  0  0  0  0
  -26.2155  -21.0010   21.7987 H   0  0  0  0  0  0
  -27.4807  -21.9135   22.6380 H   0  0  0  0  0  0
  -28.4976  -15.9812   20.4926 H   0  0  0  0  0  0
  -28.5481  -15.9656   22.2444 H   0  0  0  0  0  0
  -29.5721  -24.2558   19.1609 H   0  0  0  0  0  0
  -27.9261  -24.3747   18.6488 H   0  0  0  0  0  0
  -28.9567  -25.1300   21.4058 H   0  0  0  0  0  0
  -27.2639  -25.0839   21.0313 H   0  0  0  0  0  0
  -28.2714  -22.0679   19.0152 H   0  0  0  0  0  0
  -27.2810  -22.5857   20.3457 H   0  0  0  0  0  0
  -32.2348  -20.0874   19.9060 H   0  0  0  0  0  0
  -31.3735  -21.5330   20.0162 H   0  0  0  0  0  0
  -31.1259  -16.0988   21.6509 H   0  0  0  0  0  0
  1 25  1  0  0  0
  1 30  2  0  0  0
  1 85  1  0  0  0
  2  3  1  0  0  0
  2 25  1  0  0  0
  2 87  1  0  0  0
  2 88  1  0  0  0
  3  4  1  0  0  0
  3 89  1  0  0  0
  3 90  1  0  0  0
  4  5  1  0  0  0
  4 91  1  0  0  0
  4 92  1  0  0  0
  5  6  1  0  0  0
  5 26  1  0  0  0
  5 93  1  0  0  0
  6 25  1  0  0  0
  6 94  1  0  0  0
  6 95  1  0  0  0
  7  8  2  0  0  0
  7 26  1  0  0  0
  7 29  1  0  0  0
  8  9  1  0  0  0
  8 22  1  0  0  0
  9 10  1  0  0  0
  9 27  2  0  0  0
 10 11  2  0  0  0
 10 15  1  0  0  0
 11 12  1  0  0  0
 11 96  1  0  0  0
 12 13  2  0  0  0
 12 97  1  0  0  0
 13 14  1  0  0  0
 13 31  1  0  0  0
 14 15  2  0  0  0
 14 98  1  0  0  0
 15 99  1  0  0  0
 16 17  2  0  0  0
 16 21  1  0  0  0
 16 31  1  0  0  0
 17 18  1  0  0  0
 17100  1  0  0  0
 18 19  2  0  0  0
 18101  1  0  0  0
 19 20  1  0  0  0
 19 24  1  0  0  0
 20 21  2  0  0  0
 20102  1  0  0  0
 21 23  1  0  0  0
 22 28  1  0  0  0
 22 32  2  0  0  0
 26 27  1  0  0  0
 28103  1  0  0  0
 28104  1  0  0  0
 29105  1  0  0  0
 29106  1  0  0  0
 33 34  1  0  0  0
 33 66  1  0  0  0
 33 70  2  0  0  0
 34 36  1  0  0  0
 34 59  1  0  0  0
 34107  1  0  0  0
 35 44  2  0  0  0
 35 45  1  0  0  0
 35 68  1  0  0  0
 36 56  1  0  0  0
 36108  1  0  0  0
 37 39  1  0  0  0
 37 47  1  0  0  0
 37 66  1  0  0  0
 37109  1  0  0  0
 38 43  2  0  0  0
 38 46  1  0  0  0
 38 47  1  0  0  0
 39 64  1  0  0  0
 39 67  2  0  0  0
 40 52  1  0  0  0
 40 53  2  0  0  0
 40 58  1  0  0  0
 41110  1  0  0  0
 41111  1  0  0  0
 41112  1  0  0  0
 41 48  1  0  0  0
 42 43  1  0  0  0
 42 66  1  0  0  0
 42113  1  0  0  0
 42114  1  0  0  0
 43 44  1  0  0  0
 44115  1  0  0  0
 45 46  2  0  0  0
 45116  1  0  0  0
 46117  1  0  0  0
 47118  1  0  0  0
 47119  1  0  0  0
 48 56  1  0  0  0
 48 65  1  0  0  0
 48120  1  0  0  0
 49 50  1  0  0  0
 49 53  1  0  0  0
 49 64  1  0  0  0
 49121  1  0  0  0
 50 51  1  0  0  0
 50122  1  0  0  0
 50123  1  0  0  0
 51 52  1  0  0  0
 51124  1  0  0  0
 51125  1  0  0  0
 52126  1  0  0  0
 52127  1  0  0  0
 53 54  1  0  0  0
 54 55  2  0  0  0
 54128  1  0  0  0
 55 57  1  0  0  0
 55129  1  0  0  0
 56 69  2  0  0  0
 57 58  2  0  0  0
 57130  1  0  0  0
 58131  1  0  0  0
 59 60  1  0  0  0
 59 61  1  0  0  0
 59 62  1  0  0  0
 60132  1  0  0  0
 60133  1  0  0  0
 60134  1  0  0  0
 61135  1  0  0  0
 61136  1  0  0  0
 61137  1  0  0  0
 62138  1  0  0  0
 62139  1  0  0  0
 62140  1  0  0  0
 63 65  1  0  0  0
 63141  1  0  0  0
 63142  1  0  0  0
 63143  1  0  0  0
 64144  1  0  0  0
 65145  1  0  0  0
 68 82  1  0  0  0
 71 73  2  0  0  0
 71 75  1  0  0  0
 71146  1  0  0  0
 72 73  1  0  0  0
 72 74  2  0  0  0
 72 78  1  0  0  0
 73 80  1  0  0  0
 74 76  1  0  0  0
 74 79  1  0  0  0
 75 76  2  0  0  0
 75 84  1  0  0  0
 76 86  1  0  0  0
 77 78  2  0  0  0
 77147  1  0  0  0
 77148  1  0  0  0
 78149  1  0  0  0
 79150  1  0  0  0
 79151  1  0  0  0
 79152  1  0  0  0
 80 85  1  0  0  0
 80153  1  0  0  0
 80154  1  0  0  0
 81 82  1  0  0  0
 81 83  1  0  0  0
 81155  1  0  0  0
 81156  1  0  0  0
 82157  1  0  0  0
 82158  1  0  0  0
 83 86  1  0  0  0
 83159  1  0  0  0
 83160  1  0  0  0
 84161  1  0  0  0
 84162  1  0  0  0
 85163  1  0  0  0
M  ISO  4   1 100  68 101  82 101  85 100
M  END
> <chiral flag>
0

> <version>
0

> <s_m_source_file>
/data/baiqing/PycharmProjects/Reinvent-master-3.2/result/LINK_invent/BTK/process_docking_weight1_custom_product_contain_oxygen_bond_distance_aromatic_linkinvent_7_9_3/rearranged_h_0110.sdf

> <i_m_source_file_index>
90

> <r_mmod_Potential_Energy-OPLS-2005>
-21.3737125396729

> <r_mmod_Stretch_Energy-OPLS-2005>
50.6496543884277

> <r_mmod_Bend_Energy-OPLS-2005>
126.370323181152

> <r_mmod_Torsional_Energy-OPLS-2005>
324.575347900391

> <r_mmod_Improper_Torsional_Energy-OPLS-2005>
9.88278484344482

> <r_mmod_Van_der_Waal_Energy-OPLS-2005>
144.651870727539

> <r_mmod_Electrostatic_Energy-OPLS-2005>
-485.552368164062

> <r_mmod_Solvation_Energy-OPLS-2005>
-213.26513671875

> <b_mmod_Minimization_Converged-OPLS-2005>
0

> <r_mmod_RMS_Derivative-OPLS-2005>
4.30213642120361

$$$$
91
                    3D
 Structure written by MMmdl.
164172  0  0  1  0            999 V2000
  -30.6516  -14.4961   20.6509 C   0  0  0  0  0  0
  -30.4521  -12.3543   19.3971 C   0  0  0  0  0  0
  -29.4969  -12.5404   18.1955 C   0  0  0  0  0  0
  -28.0167  -12.3794   18.6100 C   0  0  0  0  0  0
  -27.6676  -13.1950   19.8809 C   0  0  2  0  0  0
  -28.7146  -12.9194   20.9851 C   0  0  0  0  0  0
  -25.2594  -13.8124   20.5679 C   0  0  0  0  0  0
  -24.1848  -13.0413   20.9192 C   0  0  0  0  0  0
  -24.6406  -11.6886   20.8758 C   0  0  0  0  0  0
  -23.9062  -10.4293   21.0420 C   0  0  0  0  0  0
  -24.3613   -9.4209   21.9187 C   0  0  0  0  0  0
  -23.6282   -8.2251   22.0758 C   0  0  0  0  0  0
  -22.4262   -8.0302   21.3549 C   0  0  0  0  0  0
  -21.9899   -9.0281   20.4646 C   0  0  0  0  0  0
  -22.7249  -10.2145   20.3060 C   0  0  0  0  0  0
  -21.6860   -6.0763   22.5281 C   0  0  0  0  0  0
  -21.4048   -6.5655   23.8220 C   0  0  0  0  0  0
  -21.3646   -5.6791   24.9164 C   0  0  0  0  0  0
  -21.6024   -4.3054   24.7200 C   0  0  0  0  0  0
  -21.8826   -3.8168   23.4322 C   0  0  0  0  0  0
  -21.9200   -4.6990   22.3391 C   0  0  0  0  0  0
  -22.7879  -13.5238   21.1837 C   0  0  0  0  0  0
  -22.1671   -4.2187   21.0963 F   0  0  0  0  0  0
  -21.5568   -3.4530   25.7708 F   0  0  0  0  0  0
  -30.0476  -13.2867   20.4599 N   0  0  0  0  0  0
  -26.3052  -12.9279   20.3394 N   0  0  0  0  0  0
  -25.9330  -11.6461   20.5777 N   0  0  0  0  0  0
  -22.0500  -12.8261   22.0389 N   0  0  0  0  0  0
  -25.4257  -15.1845   20.4055 N   0  0  0  0  0  0
  -31.6866  -14.8583   20.0771 O   0  0  0  0  0  0
  -21.6627   -6.8908   21.4248 O   0  0  0  0  0  0
  -22.3594  -14.5544   20.6673 O   0  0  0  0  0  0
  -24.6158  -31.8652   23.2064 C   0  0  0  0  0  0
  -25.9032  -32.4814   23.8387 C   0  0  1  0  0  0
  -27.2442  -27.4117   20.1005 C   0  0  0  0  0  0
  -25.5878  -33.8613   24.2326 N   0  0  0  0  0  0
  -23.4074  -30.4863   21.5467 C   0  0  2  0  0  0
  -24.8560  -28.9465   20.1172 C   0  0  0  0  0  0
  -22.7437  -29.4636   22.4969 C   0  0  0  0  0  0
  -18.0286  -28.1374   22.8498 C   0  0  0  0  0  0
  -24.1486  -36.7305   23.2644 C   0  0  0  0  0  0
  -25.9378  -30.8248   21.3632 C   0  0  0  0  0  0
  -26.0179  -29.4564   20.7102 C   0  0  0  0  0  0
  -27.2163  -28.6992   20.6926 C   0  0  0  0  0  0
  -26.0627  -26.9219   19.5023 C   0  0  0  0  0  0
  -24.8751  -27.6796   19.5090 C   0  0  0  0  0  0
  -23.6174  -29.8134   20.1638 C   0  0  0  0  0  0
  -25.4107  -36.3115   24.0347 C   0  0  1  0  0  0
  -20.5877  -28.3652   23.1314 C   0  0  2  0  0  0
  -20.6767  -26.9380   22.5417 C   0  0  0  0  0  0
  -19.5744  -26.6366   21.5215 C   0  0  0  0  0  0
  -18.1923  -26.7918   22.1629 C   0  0  0  0  0  0
  -19.1535  -28.8826   23.2907 C   0  0  0  0  0  0
  -18.9460  -30.1443   23.8904 C   0  0  0  0  0  0
  -17.6458  -30.6571   24.0565 C   0  0  0  0  0  0
  -25.9028  -34.9474   23.5138 C   0  0  0  0  0  0
  -16.5350  -29.9071   23.6326 C   0  0  0  0  0  0
  -16.7275  -28.6491   23.0342 C   0  0  0  0  0  0
  -26.4452  -31.6608   25.0723 C   0  0  0  0  0  0
  -25.3715  -31.3722   26.1470 C   0  0  0  0  0  0
  -27.0292  -30.3058   24.6107 C   0  0  0  0  0  0
  -27.6033  -32.4328   25.7481 C   0  0  0  0  0  0
  -27.5586  -37.1811   24.8471 C   0  0  0  0  0  0
  -21.4154  -29.3023   22.3717 N   0  0  0  0  0  0
  -26.4302  -37.3789   23.9414 N   0  0  0  0  0  0
  -24.6719  -31.0737   22.0972 N   0  0  0  0  0  0
  -23.4189  -28.8167   23.3013 O   0  0  0  0  0  0
  -28.4169  -26.6728   20.0630 O   0  0  0  0  0  0
  -26.5588  -34.8919   22.4697 O   0  0  0  0  0  0
  -23.5341  -32.1400   23.7440 O   0  0  0  0  0  0
  -30.9345  -18.8586   21.5828 C   0  0  0  0  0  0
  -30.8998  -20.1977   21.1303 C   0  0  0  0  0  0
  -29.5892  -19.4939   19.2171 C   0  0  0  0  0  0
  -30.1932  -17.8367   20.9356 C   0  0  0  0  0  0
  -29.5850  -18.1496   19.6855 C   0  0  0  0  0  0
  -30.1556  -20.5436   19.9815 C   0  0  0  0  0  0
  -29.7830  -16.6645   21.7719 C   0  0  0  0  0  0
  -29.4794  -22.9123   20.3575 C   0  0  0  0  0  0
  -28.8142  -17.1104   18.8868 C   0  0  0  0  0  0
  -26.9018  -18.2369   22.5517 C   0  0  0  0  0  0
  -29.3344  -24.3335   19.7465 C   0  0  0  0  0  0
  -28.3018  -18.2081   23.1792 C   0  0  0  0  0  0
  -28.3585  -25.2929   20.5053 C   0  0  0  0  0  0
  -29.9730  -21.9119   19.5861 N   0  0  0  0  0  0
  -29.9432  -15.3291   21.5842 N   0  0  0  0  0  0
  -29.0183  -16.9491   22.8557 N   0  3  0  0  0  0
  -29.1487  -22.7238   21.5314 O   0  0  0  0  0  0
  -31.4876  -12.5144   19.0892 H   0  0  0  0  0  0
  -30.4040  -11.3290   19.7658 H   0  0  0  0  0  0
  -29.7478  -11.8246   17.4108 H   0  0  0  0  0  0
  -29.6439  -13.5316   17.7605 H   0  0  0  0  0  0
  -27.8298  -11.3196   18.7865 H   0  0  0  0  0  0
  -27.3619  -12.6708   17.7876 H   0  0  0  0  0  0
  -27.7224  -14.2504   19.6162 H   0  0  0  0  0  0
  -28.7126  -11.8564   21.2419 H   0  0  0  0  0  0
  -28.4407  -13.4235   21.9118 H   0  0  0  0  0  0
  -25.2763   -9.5667   22.4738 H   0  0  0  0  0  0
  -23.9992   -7.4648   22.7486 H   0  0  0  0  0  0
  -21.0827   -8.8828   19.8954 H   0  0  0  0  0  0
  -22.3746  -10.9688   19.6152 H   0  0  0  0  0  0
  -21.2106   -7.6172   23.9735 H   0  0  0  0  0  0
  -21.1431   -6.0513   25.9060 H   0  0  0  0  0  0
  -22.0618   -2.7641   23.2793 H   0  0  0  0  0  0
  -22.4112  -11.9956   22.4827 H   0  0  0  0  0  0
  -21.1121  -13.1297   22.2565 H   0  0  0  0  0  0
  -24.6315  -15.8135   20.4760 H   0  0  0  0  0  0
  -26.2434  -15.6204   20.0042 H   0  0  0  0  0  0
  -26.7101  -32.5516   23.1156 H   0  0  0  0  0  0
  -25.0073  -33.9785   25.0502 H   0  0  0  0  0  0
  -22.6976  -31.3031   21.4033 H   0  0  0  0  0  0
  -23.3748  -35.9636   23.3322 H   0  0  0  0  0  0
  -24.3598  -36.8893   22.2058 H   0  0  0  0  0  0
  -23.7220  -37.6510   23.6636 H   0  0  0  0  0  0
  -26.0553  -31.5928   20.5955 H   0  0  0  0  0  0
  -26.8229  -30.8774   21.9853 H   0  0  0  0  0  0
  -28.1143  -29.0974   21.1442 H   0  0  0  0  0  0
  -26.0535  -25.9589   19.0130 H   0  0  0  0  0  0
  -23.9838  -27.2838   19.0415 H   0  0  0  0  0  0
  -23.7223  -30.5827   19.3976 H   0  0  0  0  0  0
  -22.7442  -29.2287   19.8727 H   0  0  0  0  0  0
  -25.1285  -36.1996   25.0838 H   0  0  0  0  0  0
  -21.0001  -28.3198   24.1426 H   0  0  0  0  0  0
  -20.5655  -26.2247   23.3603 H   0  0  0  0  0  0
  -21.6635  -26.7397   22.1217 H   0  0  0  0  0  0
  -19.6888  -25.6277   21.1239 H   0  0  0  0  0  0
  -19.6686  -27.3181   20.6749 H   0  0  0  0  0  0
  -17.4200  -26.6682   21.4028 H   0  0  0  0  0  0
  -18.0313  -26.0058   22.9022 H   0  0  0  0  0  0
  -19.7931  -30.7273   24.2255 H   0  0  0  0  0  0
  -17.5002  -31.6257   24.5167 H   0  0  0  0  0  0
  -15.5348  -30.2972   23.7631 H   0  0  0  0  0  0
  -15.8685  -28.0819   22.7030 H   0  0  0  0  0  0
  -24.5890  -30.7066   25.7814 H   0  0  0  0  0  0
  -24.8897  -32.2879   26.4915 H   0  0  0  0  0  0
  -25.8065  -30.8903   27.0237 H   0  0  0  0  0  0
  -26.2848  -29.6821   24.1140 H   0  0  0  0  0  0
  -27.4055  -29.7295   25.4571 H   0  0  0  0  0  0
  -27.8683  -30.4407   23.9273 H   0  0  0  0  0  0
  -27.2670  -33.3635   26.2070 H   0  0  0  0  0  0
  -28.3830  -32.6875   25.0288 H   0  0  0  0  0  0
  -28.0704  -31.8435   26.5386 H   0  0  0  0  0  0
  -28.2616  -38.0100   24.7512 H   0  0  0  0  0  0
  -28.1075  -36.2629   24.6310 H   0  0  0  0  0  0
  -27.2310  -37.1476   25.8878 H   0  0  0  0  0  0
  -20.9289  -29.8791   21.6995 H   0  0  0  0  0  0
  -26.0200  -38.2875   24.1391 H   0  0  0  0  0  0
  -31.4009  -18.6567   22.5364 H   0  0  0  0  0  0
  -31.3845  -20.9696   21.7129 H   0  0  0  0  0  0
  -29.0696  -19.7359   18.3012 H   0  0  0  0  0  0
  -29.4564  -16.2703   18.6219 H   0  0  0  0  0  0
  -28.4276  -17.5258   17.9547 H   0  0  0  0  0  0
  -27.9631  -16.7399   19.4556 H   0  0  0  0  0  0
  -26.2407  -17.5148   23.0312 H   0  0  0  0  0  0
  -26.9270  -18.0172   21.4832 H   0  0  0  0  0  0
  -26.4571  -19.2248   22.6653 H   0  0  0  0  0  0
  -29.0118  -24.2419   18.7095 H   0  0  0  0  0  0
  -30.3286  -24.7809   19.7226 H   0  0  0  0  0  0
  -28.2092  -18.2984   24.2629 H   0  0  0  0  0  0
  -28.8408  -19.0976   22.8621 H   0  0  0  0  0  0
  -28.6078  -25.3021   21.5683 H   0  0  0  0  0  0
  -27.3531  -24.8770   20.4500 H   0  0  0  0  0  0
  -30.1208  -22.1211   18.6082 H   0  0  0  0  0  0
  -29.2614  -14.8400   22.1319 H   0  0  0  0  0  0
  -28.9829  -16.2827   23.6162 H   0  0  0  0  0  0
  1 25  1  0  0  0
  1 30  2  0  0  0
  1 85  1  0  0  0
  2  3  1  0  0  0
  2 25  1  0  0  0
  2 88  1  0  0  0
  2 89  1  0  0  0
  3  4  1  0  0  0
  3 90  1  0  0  0
  3 91  1  0  0  0
  4  5  1  0  0  0
  4 92  1  0  0  0
  4 93  1  0  0  0
  5  6  1  0  0  0
  5 26  1  0  0  0
  5 94  1  0  0  0
  6 25  1  0  0  0
  6 95  1  0  0  0
  6 96  1  0  0  0
  7  8  2  0  0  0
  7 26  1  0  0  0
  7 29  1  0  0  0
  8  9  1  0  0  0
  8 22  1  0  0  0
  9 10  1  0  0  0
  9 27  2  0  0  0
 10 11  2  0  0  0
 10 15  1  0  0  0
 11 12  1  0  0  0
 11 97  1  0  0  0
 12 13  2  0  0  0
 12 98  1  0  0  0
 13 14  1  0  0  0
 13 31  1  0  0  0
 14 15  2  0  0  0
 14 99  1  0  0  0
 15100  1  0  0  0
 16 17  2  0  0  0
 16 21  1  0  0  0
 16 31  1  0  0  0
 17 18  1  0  0  0
 17101  1  0  0  0
 18 19  2  0  0  0
 18102  1  0  0  0
 19 20  1  0  0  0
 19 24  1  0  0  0
 20 21  2  0  0  0
 20103  1  0  0  0
 21 23  1  0  0  0
 22 28  1  0  0  0
 22 32  2  0  0  0
 26 27  1  0  0  0
 28104  1  0  0  0
 28105  1  0  0  0
 29106  1  0  0  0
 29107  1  0  0  0
 33 34  1  0  0  0
 33 66  1  0  0  0
 33 70  2  0  0  0
 34 36  1  0  0  0
 34 59  1  0  0  0
 34108  1  0  0  0
 35 44  2  0  0  0
 35 45  1  0  0  0
 35 68  1  0  0  0
 36 56  1  0  0  0
 36109  1  0  0  0
 37 39  1  0  0  0
 37 47  1  0  0  0
 37 66  1  0  0  0
 37110  1  0  0  0
 38 43  2  0  0  0
 38 46  1  0  0  0
 38 47  1  0  0  0
 39 64  1  0  0  0
 39 67  2  0  0  0
 40 52  1  0  0  0
 40 53  2  0  0  0
 40 58  1  0  0  0
 41111  1  0  0  0
 41112  1  0  0  0
 41113  1  0  0  0
 41 48  1  0  0  0
 42 43  1  0  0  0
 42 66  1  0  0  0
 42114  1  0  0  0
 42115  1  0  0  0
 43 44  1  0  0  0
 44116  1  0  0  0
 45 46  2  0  0  0
 45117  1  0  0  0
 46118  1  0  0  0
 47119  1  0  0  0
 47120  1  0  0  0
 48 56  1  0  0  0
 48 65  1  0  0  0
 48121  1  0  0  0
 49 50  1  0  0  0
 49 53  1  0  0  0
 49 64  1  0  0  0
 49122  1  0  0  0
 50 51  1  0  0  0
 50123  1  0  0  0
 50124  1  0  0  0
 51 52  1  0  0  0
 51125  1  0  0  0
 51126  1  0  0  0
 52127  1  0  0  0
 52128  1  0  0  0
 53 54  1  0  0  0
 54 55  2  0  0  0
 54129  1  0  0  0
 55 57  1  0  0  0
 55130  1  0  0  0
 56 69  2  0  0  0
 57 58  2  0  0  0
 57131  1  0  0  0
 58132  1  0  0  0
 59 60  1  0  0  0
 59 61  1  0  0  0
 59 62  1  0  0  0
 60133  1  0  0  0
 60134  1  0  0  0
 60135  1  0  0  0
 61136  1  0  0  0
 61137  1  0  0  0
 61138  1  0  0  0
 62139  1  0  0  0
 62140  1  0  0  0
 62141  1  0  0  0
 63 65  1  0  0  0
 63142  1  0  0  0
 63143  1  0  0  0
 63144  1  0  0  0
 64145  1  0  0  0
 65146  1  0  0  0
 68 83  1  0  0  0
 71 72  2  0  0  0
 71 74  1  0  0  0
 71147  1  0  0  0
 72 76  1  0  0  0
 72148  1  0  0  0
 73 75  1  0  0  0
 73 76  2  0  0  0
 73149  1  0  0  0
 74 75  2  0  0  0
 74 77  1  0  0  0
 75 79  1  0  0  0
 76 84  1  0  0  0
 77 85  1  0  0  0
 77 86  2  0  0  0
 78 81  1  0  0  0
 78 84  1  0  0  0
 78 87  2  0  0  0
 79150  1  0  0  0
 79151  1  0  0  0
 79152  1  0  0  0
 80 82  1  0  0  0
 80153  1  0  0  0
 80154  1  0  0  0
 80155  1  0  0  0
 81 83  1  0  0  0
 81156  1  0  0  0
 81157  1  0  0  0
 82 86  1  0  0  0
 82158  1  0  0  0
 82159  1  0  0  0
 83160  1  0  0  0
 83161  1  0  0  0
 84162  1  0  0  0
 85163  1  0  0  0
 86164  1  0  0  0
M  CHG  1  86   1
M  ISO  4   1 100  68 101  83 101  85 100
M  END
> <chiral flag>
0

> <version>
0

> <s_m_source_file>
/data/baiqing/PycharmProjects/Reinvent-master-3.2/result/LINK_invent/BTK/process_docking_weight1_custom_product_contain_oxygen_bond_distance_aromatic_linkinvent_7_9_3/rearranged_h_0110.sdf

> <i_m_source_file_index>
91

> <r_mmod_Potential_Energy-OPLS-2005>
-133.09880065918

> <r_mmod_Stretch_Energy-OPLS-2005>
49.0323257446289

> <r_mmod_Bend_Energy-OPLS-2005>
148.297439575195

> <r_mmod_Torsional_Energy-OPLS-2005>
292.020843505859

> <r_mmod_Improper_Torsional_Energy-OPLS-2005>
8.41729927062988

> <r_mmod_Van_der_Waal_Energy-OPLS-2005>
141.321594238281

> <r_mmod_Electrostatic_Energy-OPLS-2005>
-362.469543457031

> <r_mmod_Solvation_Energy-OPLS-2005>
-428.19775390625

> <b_mmod_Minimization_Converged-OPLS-2005>
0

> <r_mmod_RMS_Derivative-OPLS-2005>
2.69190740585327

$$$$
92
                    3D
 Structure written by MMmdl.
163171  0  0  1  0            999 V2000
  -30.6375  -14.7354   20.4125 C   0  0  0  0  0  0
  -30.4354  -12.4427   19.4514 C   0  0  0  0  0  0
  -29.5048  -12.4754   18.2195 C   0  0  0  0  0  0
  -28.0323  -12.2889   18.6387 C   0  0  0  0  0  0
  -27.6311  -13.1970   19.8277 C   0  0  2  0  0  0
  -28.6874  -13.1922   20.9520 C   0  0  0  0  0  0
  -25.2594  -13.8133   20.5729 C   0  0  0  0  0  0
  -24.1840  -13.0469   20.9236 C   0  0  0  0  0  0
  -24.6369  -11.6917   20.8802 C   0  0  0  0  0  0
  -23.9036  -10.4331   21.0470 C   0  0  0  0  0  0
  -24.3601   -9.4249   21.9239 C   0  0  0  0  0  0
  -23.6285   -8.2281   22.0784 C   0  0  0  0  0  0
  -22.4268   -8.0317   21.3564 C   0  0  0  0  0  0
  -21.9919   -9.0286   20.4658 C   0  0  0  0  0  0
  -22.7237  -10.2169   20.3079 C   0  0  0  0  0  0
  -21.6869   -6.0759   22.5289 C   0  0  0  0  0  0
  -21.4046   -6.5663   23.8228 C   0  0  0  0  0  0
  -21.3660   -5.6803   24.9180 C   0  0  0  0  0  0
  -21.6037   -4.3065   24.7216 C   0  0  0  0  0  0
  -21.8825   -3.8169   23.4332 C   0  0  0  0  0  0
  -21.9207   -4.6993   22.3393 C   0  0  0  0  0  0
  -22.7867  -13.5293   21.1831 C   0  0  0  0  0  0
  -22.1669   -4.2192   21.0969 F   0  0  0  0  0  0
  -21.5598   -3.4531   25.7708 F   0  0  0  0  0  0
  -29.9919  -13.5190   20.3615 N   0  0  0  0  0  0
  -26.2925  -12.9235   20.3266 N   0  0  0  0  0  0
  -25.9279  -11.6439   20.5795 N   0  0  0  0  0  0
  -22.0446  -12.8322   22.0351 N   0  0  0  0  0  0
  -25.4462  -15.1836   20.4110 N   0  0  0  0  0  0
  -31.8614  -14.7962   20.2774 O   0  0  0  0  0  0
  -21.6652   -6.8902   21.4247 O   0  0  0  0  0  0
  -22.3604  -14.5596   20.6635 O   0  0  0  0  0  0
  -24.6280  -31.8571   23.2054 C   0  0  0  0  0  0
  -25.9111  -32.4756   23.8381 C   0  0  1  0  0  0
  -27.2118  -27.2832   20.1066 C   0  0  0  0  0  0
  -25.5918  -33.8571   24.2274 N   0  0  0  0  0  0
  -23.4230  -30.4822   21.5490 C   0  0  2  0  0  0
  -24.8680  -28.9397   20.1088 C   0  0  0  0  0  0
  -22.7478  -29.4597   22.4944 C   0  0  0  0  0  0
  -18.0293  -28.1372   22.8518 C   0  0  0  0  0  0
  -24.1488  -36.7281   23.2643 C   0  0  0  0  0  0
  -25.9718  -30.7641   21.3961 C   0  0  0  0  0  0
  -26.0386  -29.3955   20.7262 C   0  0  0  0  0  0
  -27.2117  -28.5787   20.7182 C   0  0  0  0  0  0
  -26.0171  -26.8936   19.4548 C   0  0  0  0  0  0
  -24.8618  -27.6964   19.4631 C   0  0  0  0  0  0
  -23.6383  -29.8232   20.1638 C   0  0  0  0  0  0
  -25.4135  -36.3080   24.0308 C   0  0  1  0  0  0
  -20.5893  -28.3674   23.1318 C   0  0  2  0  0  0
  -20.6783  -26.9402   22.5432 C   0  0  0  0  0  0
  -19.5740  -26.6397   21.5243 C   0  0  0  0  0  0
  -18.1920  -26.7929   22.1644 C   0  0  0  0  0  0
  -19.1547  -28.8847   23.2898 C   0  0  0  0  0  0
  -18.9459  -30.1474   23.8878 C   0  0  0  0  0  0
  -17.6447  -30.6577   24.0569 C   0  0  0  0  0  0
  -25.9070  -34.9434   23.5090 C   0  0  0  0  0  0
  -16.5342  -29.9060   23.6352 C   0  0  0  0  0  0
  -16.7281  -28.6481   23.0375 C   0  0  0  0  0  0
  -26.4491  -31.6596   25.0782 C   0  0  0  0  0  0
  -25.3709  -31.3703   26.1496 C   0  0  0  0  0  0
  -27.0383  -30.3010   24.6312 C   0  0  0  0  0  0
  -27.6047  -32.4349   25.7527 C   0  0  0  0  0  0
  -27.5590  -37.1787   24.8463 C   0  0  0  0  0  0
  -21.4192  -29.3014   22.3677 N   0  0  0  0  0  0
  -26.4308  -37.3780   23.9398 N   0  0  0  0  0  0
  -24.6932  -31.0527   22.1045 N   0  0  0  0  0  0
  -23.4186  -28.8124   23.3017 O   0  0  0  0  0  0
  -28.3116  -26.3992   20.1530 O   0  0  0  0  0  0
  -26.5647  -34.8896   22.4665 O   0  0  0  0  0  0
  -23.5439  -32.1413   23.7335 O   0  0  0  0  0  0
  -29.7972  -18.6738   20.2329 C   0  0  0  0  0  0
  -29.8007  -18.6982   22.9929 C   0  0  0  0  0  0
  -29.9026  -17.3896   20.9040 C   0  0  0  0  0  0
  -29.9085  -17.4495   22.3255 C   0  0  0  0  0  0
  -29.6636  -19.9528   20.8943 C   0  0  0  0  0  0
  -29.6710  -19.9370   22.3102 C   0  0  0  0  0  0
  -29.7889  -16.0571   20.1130 C   0  0  0  0  0  0
  -29.1503  -15.8378   24.0268 C   0  0  0  0  0  0
  -29.5035  -14.5415   24.7441 C   0  0  0  0  0  0
  -29.3321  -21.1572   24.3626 C   0  0  0  0  0  0
  -29.1552  -23.8132   20.3139 C   0  0  0  0  0  0
  -28.0201  -24.9329   20.1487 C   0  0  0  0  0  0
  -28.6764  -22.2809   20.4462 C   0  0  0  0  0  0
  -29.0237  -16.0834   19.1045 N   0  0  0  0  0  0
  -30.0337  -16.2739   23.1162 N   0  0  0  0  0  0
  -28.0912  -16.4134   24.2815 O   0  0  0  0  0  0
  -29.6025  -21.1490   22.9664 O   0  0  0  0  0  0
  -29.6319  -21.1757   20.1708 O   0  0  0  0  0  0
  -31.4736  -12.5670   19.1369 H   0  0  0  0  0  0
  -30.3806  -11.4761   19.9534 H   0  0  0  0  0  0
  -29.7882  -11.6980   17.5084 H   0  0  0  0  0  0
  -29.6209  -13.4255   17.6959 H   0  0  0  0  0  0
  -27.8925  -11.2417   18.9063 H   0  0  0  0  0  0
  -27.3736  -12.4697   17.7893 H   0  0  0  0  0  0
  -27.5742  -14.1862   19.3993 H   0  0  0  0  0  0
  -28.7339  -12.2192   21.4430 H   0  0  0  0  0  0
  -28.4217  -13.9185   21.7203 H   0  0  0  0  0  0
  -25.2750   -9.5732   22.4816 H   0  0  0  0  0  0
  -24.0014   -7.4681   22.7505 H   0  0  0  0  0  0
  -21.0876   -8.8797   19.8937 H   0  0  0  0  0  0
  -22.3734  -10.9707   19.6164 H   0  0  0  0  0  0
  -21.2083   -7.6176   23.9738 H   0  0  0  0  0  0
  -21.1458   -6.0529   25.9080 H   0  0  0  0  0  0
  -22.0606   -2.7632   23.2806 H   0  0  0  0  0  0
  -22.3986  -11.9967   22.4773 H   0  0  0  0  0  0
  -21.1065  -13.1399   22.2458 H   0  0  0  0  0  0
  -24.6952  -15.8597   20.4926 H   0  0  0  0  0  0
  -26.3186  -15.5919   20.0956 H   0  0  0  0  0  0
  -26.7158  -32.5389   23.1104 H   0  0  0  0  0  0
  -24.9977  -33.9743   25.0352 H   0  0  0  0  0  0
  -22.7161  -31.3024   21.4102 H   0  0  0  0  0  0
  -23.3770  -35.9593   23.3306 H   0  0  0  0  0  0
  -24.3551  -36.8927   22.2059 H   0  0  0  0  0  0
  -23.7213  -37.6460   23.6685 H   0  0  0  0  0  0
  -26.1376  -31.5297   20.6374 H   0  0  0  0  0  0
  -26.8390  -30.7906   22.0457 H   0  0  0  0  0  0
  -28.1045  -28.9138   21.2271 H   0  0  0  0  0  0
  -25.9362  -25.9561   18.9254 H   0  0  0  0  0  0
  -23.9658  -27.3499   18.9665 H   0  0  0  0  0  0
  -23.7542  -30.6038   19.4120 H   0  0  0  0  0  0
  -22.7579  -29.2542   19.8618 H   0  0  0  0  0  0
  -25.1314  -36.1948   25.0799 H   0  0  0  0  0  0
  -20.9978  -28.3259   24.1449 H   0  0  0  0  0  0
  -20.5772  -26.2254   23.3610 H   0  0  0  0  0  0
  -21.6629  -26.7477   22.1166 H   0  0  0  0  0  0
  -19.6888  -25.6338   21.1211 H   0  0  0  0  0  0
  -19.6666  -27.3259   20.6811 H   0  0  0  0  0  0
  -17.4209  -26.6750   21.4019 H   0  0  0  0  0  0
  -18.0265  -26.0062   22.9020 H   0  0  0  0  0  0
  -19.7933  -30.7325   24.2187 H   0  0  0  0  0  0
  -17.4994  -31.6252   24.5172 H   0  0  0  0  0  0
  -15.5334  -30.2926   23.7698 H   0  0  0  0  0  0
  -15.8700  -28.0781   22.7081 H   0  0  0  0  0  0
  -24.5896  -30.7055   25.7799 H   0  0  0  0  0  0
  -24.8891  -32.2854   26.4954 H   0  0  0  0  0  0
  -25.8043  -30.8854   27.0256 H   0  0  0  0  0  0
  -26.3011  -29.6719   24.1322 H   0  0  0  0  0  0
  -27.4032  -29.7319   25.4874 H   0  0  0  0  0  0
  -27.8889  -30.4292   23.9611 H   0  0  0  0  0  0
  -27.2660  -33.3656   26.2094 H   0  0  0  0  0  0
  -28.3840  -32.6908   25.0331 H   0  0  0  0  0  0
  -28.0728  -31.8490   26.5451 H   0  0  0  0  0  0
  -28.2603  -38.0097   24.7561 H   0  0  0  0  0  0
  -28.1096  -36.2625   24.6256 H   0  0  0  0  0  0
  -27.2285  -37.1391   25.8858 H   0  0  0  0  0  0
  -20.9360  -29.8705   21.6877 H   0  0  0  0  0  0
  -26.0190  -38.2846   24.1447 H   0  0  0  0  0  0
  -29.7890  -18.6798   19.1533 H   0  0  0  0  0  0
  -29.8221  -18.6861   24.0717 H   0  0  0  0  0  0
  -29.5509  -13.7114   24.0391 H   0  0  0  0  0  0
  -28.7584  -14.3031   25.5024 H   0  0  0  0  0  0
  -30.4714  -14.6279   25.2382 H   0  0  0  0  0  0
  -29.1137  -22.1747   24.6884 H   0  0  0  0  0  0
  -30.1955  -20.8095   24.9291 H   0  0  0  0  0  0
  -28.4658  -20.5425   24.6097 H   0  0  0  0  0  0
  -29.7656  -24.0590   21.1826 H   0  0  0  0  0  0
  -29.8200  -23.8878   19.4529 H   0  0  0  0  0  0
  -27.2740  -24.7616   20.9254 H   0  0  0  0  0  0
  -27.5340  -24.6773   19.2081 H   0  0  0  0  0  0
  -27.8833  -22.1386   19.7126 H   0  0  0  0  0  0
  -28.1680  -22.1500   21.3989 H   0  0  0  0  0  0
  -28.5789  -16.9885   19.0151 H   0  0  0  0  0  0
  -30.8468  -15.6948   22.9603 H   0  0  0  0  0  0
  1 25  1  0  0  0
  1 30  2  0  0  0
  1 77  1  0  0  0
  2  3  1  0  0  0
  2 25  1  0  0  0
  2 89  1  0  0  0
  2 90  1  0  0  0
  3  4  1  0  0  0
  3 91  1  0  0  0
  3 92  1  0  0  0
  4  5  1  0  0  0
  4 93  1  0  0  0
  4 94  1  0  0  0
  5  6  1  0  0  0
  5 26  1  0  0  0
  5 95  1  0  0  0
  6 25  1  0  0  0
  6 96  1  0  0  0
  6 97  1  0  0  0
  7  8  2  0  0  0
  7 26  1  0  0  0
  7 29  1  0  0  0
  8  9  1  0  0  0
  8 22  1  0  0  0
  9 10  1  0  0  0
  9 27  2  0  0  0
 10 11  2  0  0  0
 10 15  1  0  0  0
 11 12  1  0  0  0
 11 98  1  0  0  0
 12 13  2  0  0  0
 12 99  1  0  0  0
 13 14  1  0  0  0
 13 31  1  0  0  0
 14 15  2  0  0  0
 14100  1  0  0  0
 15101  1  0  0  0
 16 17  2  0  0  0
 16 21  1  0  0  0
 16 31  1  0  0  0
 17 18  1  0  0  0
 17102  1  0  0  0
 18 19  2  0  0  0
 18103  1  0  0  0
 19 20  1  0  0  0
 19 24  1  0  0  0
 20 21  2  0  0  0
 20104  1  0  0  0
 21 23  1  0  0  0
 22 28  1  0  0  0
 22 32  2  0  0  0
 26 27  1  0  0  0
 28105  1  0  0  0
 28106  1  0  0  0
 29107  1  0  0  0
 29108  1  0  0  0
 33 34  1  0  0  0
 33 66  1  0  0  0
 33 70  2  0  0  0
 34 36  1  0  0  0
 34 59  1  0  0  0
 34109  1  0  0  0
 35 44  2  0  0  0
 35 45  1  0  0  0
 35 68  1  0  0  0
 36 56  1  0  0  0
 36110  1  0  0  0
 37 39  1  0  0  0
 37 47  1  0  0  0
 37 66  1  0  0  0
 37111  1  0  0  0
 38 43  2  0  0  0
 38 46  1  0  0  0
 38 47  1  0  0  0
 39 64  1  0  0  0
 39 67  2  0  0  0
 40 52  1  0  0  0
 40 53  2  0  0  0
 40 58  1  0  0  0
 41112  1  0  0  0
 41113  1  0  0  0
 41114  1  0  0  0
 41 48  1  0  0  0
 42 43  1  0  0  0
 42 66  1  0  0  0
 42115  1  0  0  0
 42116  1  0  0  0
 43 44  1  0  0  0
 44117  1  0  0  0
 45 46  2  0  0  0
 45118  1  0  0  0
 46119  1  0  0  0
 47120  1  0  0  0
 47121  1  0  0  0
 48 56  1  0  0  0
 48 65  1  0  0  0
 48122  1  0  0  0
 49 50  1  0  0  0
 49 53  1  0  0  0
 49 64  1  0  0  0
 49123  1  0  0  0
 50 51  1  0  0  0
 50124  1  0  0  0
 50125  1  0  0  0
 51 52  1  0  0  0
 51126  1  0  0  0
 51127  1  0  0  0
 52128  1  0  0  0
 52129  1  0  0  0
 53 54  1  0  0  0
 54 55  2  0  0  0
 54130  1  0  0  0
 55 57  1  0  0  0
 55131  1  0  0  0
 56 69  2  0  0  0
 57 58  2  0  0  0
 57132  1  0  0  0
 58133  1  0  0  0
 59 60  1  0  0  0
 59 61  1  0  0  0
 59 62  1  0  0  0
 60134  1  0  0  0
 60135  1  0  0  0
 60136  1  0  0  0
 61137  1  0  0  0
 61138  1  0  0  0
 61139  1  0  0  0
 62140  1  0  0  0
 62141  1  0  0  0
 62142  1  0  0  0
 63 65  1  0  0  0
 63143  1  0  0  0
 63144  1  0  0  0
 63145  1  0  0  0
 64146  1  0  0  0
 65147  1  0  0  0
 68 82  1  0  0  0
 71 73  2  0  0  0
 71 75  1  0  0  0
 71148  1  0  0  0
 72 74  2  0  0  0
 72 76  1  0  0  0
 72149  1  0  0  0
 73 74  1  0  0  0
 73 77  1  0  0  0
 74 85  1  0  0  0
 75 76  2  0  0  0
 75 88  1  0  0  0
 76 87  1  0  0  0
 77 84  2  0  0  0
 78 79  1  0  0  0
 78 85  1  0  0  0
 78 86  2  0  0  0
 79150  1  0  0  0
 79151  1  0  0  0
 79152  1  0  0  0
 80 87  1  0  0  0
 80153  1  0  0  0
 80154  1  0  0  0
 80155  1  0  0  0
 81 82  1  0  0  0
 81 83  1  0  0  0
 81156  1  0  0  0
 81157  1  0  0  0
 82158  1  0  0  0
 82159  1  0  0  0
 83 88  1  0  0  0
 83160  1  0  0  0
 83161  1  0  0  0
 84162  1  0  0  0
 85163  1  0  0  0
M  ISO  4   1 100  68 101  77 100  82 101
M  END
> <chiral flag>
0

> <version>
0

> <s_m_source_file>
/data/baiqing/PycharmProjects/Reinvent-master-3.2/result/LINK_invent/BTK/process_docking_weight1_custom_product_contain_oxygen_bond_distance_aromatic_linkinvent_7_9_3/rearranged_h_0110.sdf

> <i_m_source_file_index>
92

> <r_mmod_Potential_Energy-OPLS-2005>
311.653686523438

> <r_mmod_Stretch_Energy-OPLS-2005>
115.882843017578

> <r_mmod_Bend_Energy-OPLS-2005>
174.156295776367

> <r_mmod_Torsional_Energy-OPLS-2005>
289.743194580078

> <r_mmod_Improper_Torsional_Energy-OPLS-2005>
15.5165166854858

> <r_mmod_Van_der_Waal_Energy-OPLS-2005>
151.232070922852

> <r_mmod_Electrostatic_Energy-OPLS-2005>
-298.471923828125

> <r_mmod_Solvation_Energy-OPLS-2005>
-223.628753662109

> <b_mmod_Minimization_Converged-OPLS-2005>
0

> <r_mmod_RMS_Derivative-OPLS-2005>
3.33443808555603

$$$$
93
                    3D
 Structure written by MMmdl.
163171  0  0  1  0            999 V2000
  -29.2228  -15.8024   20.7739 C   0  0  0  0  0  0
  -30.2276  -13.3843   19.7399 C   0  0  0  0  0  0
  -29.5257  -12.7941   18.4586 C   0  0  0  0  0  0
  -28.1079  -12.2870   18.7724 C   0  0  0  0  0  0
  -27.4795  -13.2243   19.8178 C   0  0  2  0  0  0
  -28.3273  -13.4095   21.0666 C   0  0  0  0  0  0
  -25.1731  -13.7997   20.5491 C   0  0  0  0  0  0
  -24.1218  -13.0258   20.9279 C   0  0  0  0  0  0
  -24.5861  -11.6747   20.8755 C   0  0  0  0  0  0
  -23.8718  -10.4164   21.0481 C   0  0  0  0  0  0
  -24.3426   -9.4131   21.9216 C   0  0  0  0  0  0
  -23.6189   -8.2133   22.0748 C   0  0  0  0  0  0
  -22.4177   -8.0155   21.3535 C   0  0  0  0  0  0
  -21.9730   -9.0082   20.4642 C   0  0  0  0  0  0
  -22.6958  -10.1993   20.3075 C   0  0  0  0  0  0
  -21.6812   -6.0665   22.5291 C   0  0  0  0  0  0
  -21.3987   -6.5600   23.8214 C   0  0  0  0  0  0
  -21.3648   -5.6769   24.9185 C   0  0  0  0  0  0
  -21.6038   -4.3030   24.7245 C   0  0  0  0  0  0
  -21.8829   -3.8106   23.4375 C   0  0  0  0  0  0
  -21.9182   -4.6906   22.3423 C   0  0  0  0  0  0
  -22.7365  -13.5126   21.2053 C   0  0  0  0  0  0
  -22.1653   -4.2101   21.0997 F   0  0  0  0  0  0
  -21.5635   -3.4521   25.7763 F   0  0  0  0  0  0
  -29.3004  -14.3332   20.5807 N   0  0  0  0  0  0
  -26.1725  -12.9010   20.2516 N   0  0  0  0  0  0
  -25.8607  -11.6232   20.5344 N   0  0  0  0  0  0
  -22.0075  -12.8123   22.0647 N   0  0  0  0  0  0
  -25.3616  -15.1738   20.4017 N   0  0  0  0  0  0
  -30.4385  -16.0888   20.5026 O   0  0  0  0  0  0
  -21.6571   -6.8759   21.4234 O   0  0  0  0  0  0
  -22.3137  -14.5474   20.6912 O   0  0  0  0  0  0
  -24.6517  -31.9370   23.2347 C   0  0  0  0  0  0
  -25.9460  -32.5079   23.8660 C   0  0  1  0  0  0
  -26.1849  -27.2331   20.3365 C   0  0  0  0  0  0
  -25.6343  -33.8840   24.2603 N   0  0  0  0  0  0
  -23.4509  -30.5730   21.6103 C   0  0  2  0  0  0
  -24.8679  -29.3630   19.7938 C   0  0  0  0  0  0
  -23.1042  -29.4543   22.6380 C   0  0  0  0  0  0
  -18.7385  -27.4946   22.4728 C   0  0  0  0  0  0
  -24.1520  -36.7359   23.2598 C   0  0  0  0  0  0
  -25.9853  -30.8369   21.4433 C   0  0  0  0  0  0
  -25.9283  -29.5393   20.6796 C   0  0  0  0  0  0
  -26.7745  -28.4298   20.8572 C   0  0  0  0  0  0
  -25.9281  -27.3041   19.0002 C   0  0  0  0  0  0
  -25.0104  -28.3514   18.7926 C   0  0  0  0  0  0
  -23.6094  -30.1535   20.0966 C   0  0  0  0  0  0
  -25.4138  -36.3215   24.0331 C   0  0  1  0  0  0
  -21.5059  -27.8343   23.5465 C   0  0  2  0  0  0
  -22.6044  -26.1831   22.6481 C   0  0  0  0  0  0
  -20.9494  -25.1322   20.9783 C   0  0  0  0  0  0
  -19.0959  -26.1220   21.3088 C   0  0  0  0  0  0
  -19.7674  -28.2164   23.3416 C   0  0  0  0  0  0
  -19.3039  -29.4883   23.9439 C   0  0  0  0  0  0
  -17.9939  -30.0478   23.9170 C   0  0  0  0  0  0
  -25.9136  -34.9607   23.5175 C   0  0  0  0  0  0
  -16.9963  -29.3010   23.2846 C   0  0  0  0  0  0
  -17.3767  -28.0899   22.5972 C   0  0  0  0  0  0
  -26.4604  -31.6689   25.0978 C   0  0  0  0  0  0
  -25.3739  -31.3802   26.1587 C   0  0  0  0  0  0
  -27.0431  -30.3081   24.6496 C   0  0  0  0  0  0
  -27.6157  -32.4334   25.7844 C   0  0  0  0  0  0
  -27.5604  -37.1884   24.8464 C   0  0  0  0  0  0
  -21.8772  -29.1972   23.0142 N   0  0  0  0  0  0
  -26.4312  -37.3898   23.9419 N   0  0  0  0  0  0
  -24.7078  -31.1846   22.1076 N   0  0  0  0  0  0
  -23.9662  -28.7958   23.1947 O   0  0  0  0  0  0
  -24.8665  -26.9301   20.8724 O   0  0  0  0  0  0
  -26.5503  -34.8988   22.4617 O   0  0  0  0  0  0
  -23.5709  -32.2034   23.7804 O   0  0  0  0  0  0
  -25.3276  -18.4809   21.9004 C   0  0  0  0  0  0
  -26.8922  -19.8383   21.4432 C   0  0  0  0  0  0
  -26.8103  -18.2939   21.4681 C   0  0  0  0  0  0
  -24.3030  -19.6777   22.1994 C   0  0  0  0  0  0
  -25.8632  -21.0547   21.7209 C   0  0  0  0  0  0
  -24.3740  -21.2182   22.1627 C   0  0  0  0  0  0
  -29.0396  -21.1305   21.6826 C   0  0  0  0  0  0
  -28.2743  -20.2031   21.0808 C   0  0  0  0  0  0
  -21.3362  -27.3914   21.1495 C   0  0  0  0  0  0
  -25.9693  -22.9653   20.3491 C   0  0  0  0  0  0
  -20.5865  -25.5548   23.0955 C   0  0  0  0  0  0
  -23.1090  -27.1386   20.3703 C   0  0  0  0  0  0
  -21.8017  -23.6331   22.9943 C   0  0  0  0  0  0
  -23.0301  -19.2484   22.5741 N   0  0  0  0  0  0
  -27.8766  -16.7534   21.1448 N   0  0  0  0  0  0
  -20.6435  -28.2760   20.6187 O   0  0  0  0  0  0
  -26.4327  -22.2860   21.5093 O   0  0  0  0  0  0
  -23.3818  -22.6519   22.4063 O   0  0  0  0  0  0
  -31.1114  -13.9378   19.4207 H   0  0  0  0  0  0
  -30.6185  -12.5790   20.3648 H   0  0  0  0  0  0
  -30.1295  -12.0078   18.0043 H   0  0  0  0  0  0
  -29.4494  -13.5913   17.7178 H   0  0  0  0  0  0
  -28.1654  -11.2730   19.1707 H   0  0  0  0  0  0
  -27.5031  -12.2379   17.8663 H   0  0  0  0  0  0
  -27.3712  -14.1692   19.2807 H   0  0  0  0  0  0
  -28.7217  -12.4726   21.4634 H   0  0  0  0  0  0
  -27.7632  -13.8785   21.8751 H   0  0  0  0  0  0
  -25.2573   -9.5669   22.4764 H   0  0  0  0  0  0
  -23.9938   -7.4517   22.7433 H   0  0  0  0  0  0
  -21.0673   -8.8526   19.8954 H   0  0  0  0  0  0
  -22.3378  -10.9518   19.6191 H   0  0  0  0  0  0
  -21.1969   -7.6108   23.9701 H   0  0  0  0  0  0
  -21.1465   -6.0505   25.9086 H   0  0  0  0  0  0
  -22.0629   -2.7569   23.2883 H   0  0  0  0  0  0
  -22.3696  -11.9760   22.4978 H   0  0  0  0  0  0
  -21.0733  -13.1180   22.2979 H   0  0  0  0  0  0
  -24.5267  -15.7482   20.4397 H   0  0  0  0  0  0
  -26.0056  -15.5045   19.6941 H   0  0  0  0  0  0
  -26.7562  -32.5599   23.1415 H   0  0  0  0  0  0
  -25.0701  -34.0042   25.0888 H   0  0  0  0  0  0
  -22.6443  -31.3097   21.6412 H   0  0  0  0  0  0
  -23.3807  -35.9667   23.3268 H   0  0  0  0  0  0
  -24.3641  -36.8951   22.2015 H   0  0  0  0  0  0
  -23.7234  -37.6558   23.6584 H   0  0  0  0  0  0
  -26.2439  -31.6381   20.7493 H   0  0  0  0  0  0
  -26.8280  -30.7376   22.1160 H   0  0  0  0  0  0
  -27.5318  -28.4160   21.6293 H   0  0  0  0  0  0
  -25.8547  -26.4251   18.3742 H   0  0  0  0  0  0
  -24.3269  -28.2959   17.9575 H   0  0  0  0  0  0
  -23.6843  -31.0655   19.5038 H   0  0  0  0  0  0
  -22.7058  -29.6778   19.7252 H   0  0  0  0  0  0
  -25.1282  -36.2103   25.0819 H   0  0  0  0  0  0
  -21.7230  -27.8478   24.6164 H   0  0  0  0  0  0
  -22.8710  -25.5966   23.5328 H   0  0  0  0  0  0
  -23.6550  -26.2909   22.4837 H   0  0  0  0  0  0
  -20.7841  -24.0576   20.9569 H   0  0  0  0  0  0
  -21.2235  -25.2325   19.9229 H   0  0  0  0  0  0
  -18.7485  -26.4717   20.3349 H   0  0  0  0  0  0
  -18.3563  -25.3495   21.5271 H   0  0  0  0  0  0
  -20.0266  -30.0582   24.5134 H   0  0  0  0  0  0
  -17.7681  -30.9816   24.4153 H   0  0  0  0  0  0
  -15.9716  -29.6473   23.2665 H   0  0  0  0  0  0
  -16.5884  -27.5933   22.0484 H   0  0  0  0  0  0
  -24.5954  -30.7157   25.7815 H   0  0  0  0  0  0
  -24.8900  -32.2957   26.5000 H   0  0  0  0  0  0
  -25.7974  -30.8949   27.0389 H   0  0  0  0  0  0
  -26.3064  -29.6897   24.1368 H   0  0  0  0  0  0
  -27.3870  -29.7282   25.5071 H   0  0  0  0  0  0
  -27.9075  -30.4303   23.9970 H   0  0  0  0  0  0
  -27.2781  -33.3619   26.2466 H   0  0  0  0  0  0
  -28.4017  -32.6900   25.0731 H   0  0  0  0  0  0
  -28.0761  -31.8399   26.5751 H   0  0  0  0  0  0
  -28.2594  -38.0208   24.7553 H   0  0  0  0  0  0
  -28.1132  -36.2742   24.6243 H   0  0  0  0  0  0
  -27.2331  -37.1480   25.8868 H   0  0  0  0  0  0
  -21.1218  -29.7608   22.6441 H   0  0  0  0  0  0
  -26.0199  -38.2967   24.1454 H   0  0  0  0  0  0
  -24.8603  -17.5166   22.0347 H   0  0  0  0  0  0
  -30.0441  -21.3304   21.3360 H   0  0  0  0  0  0
  -28.6857  -21.6998   22.5299 H   0  0  0  0  0  0
  -28.6909  -19.6663   20.2393 H   0  0  0  0  0  0
  -25.3857  -23.8405   20.6306 H   0  0  0  0  0  0
  -25.3595  -22.3411   19.6927 H   0  0  0  0  0  0
  -26.8297  -23.3077   19.7734 H   0  0  0  0  0  0
  -19.5543  -25.2349   23.2339 H   0  0  0  0  0  0
  -20.7172  -25.8651   24.1333 H   0  0  0  0  0  0
  -22.9690  -27.6640   19.4379 H   0  0  0  0  0  0
  -23.0229  -26.1308   19.9764 H   0  0  0  0  0  0
  -21.0348  -22.8952   22.7542 H   0  0  0  0  0  0
  -21.9312  -23.4643   24.0637 H   0  0  0  0  0  0
  -22.9333  -18.3142   22.9558 H   0  0  0  0  0  0
  -22.4438  -19.9289   23.0490 H   0  0  0  0  0  0
  -27.2014  -16.0034   21.2478 H   0  0  0  0  0  0
  1 25  1  0  0  0
  1 30  2  0  0  0
  1 85  1  0  0  0
  2  3  1  0  0  0
  2 25  1  0  0  0
  2 89  1  0  0  0
  2 90  1  0  0  0
  3  4  1  0  0  0
  3 91  1  0  0  0
  3 92  1  0  0  0
  4  5  1  0  0  0
  4 93  1  0  0  0
  4 94  1  0  0  0
  5  6  1  0  0  0
  5 26  1  0  0  0
  5 95  1  0  0  0
  6 25  1  0  0  0
  6 96  1  0  0  0
  6 97  1  0  0  0
  7  8  2  0  0  0
  7 26  1  0  0  0
  7 29  1  0  0  0
  8  9  1  0  0  0
  8 22  1  0  0  0
  9 10  1  0  0  0
  9 27  2  0  0  0
 10 11  2  0  0  0
 10 15  1  0  0  0
 11 12  1  0  0  0
 11 98  1  0  0  0
 12 13  2  0  0  0
 12 99  1  0  0  0
 13 14  1  0  0  0
 13 31  1  0  0  0
 14 15  2  0  0  0
 14100  1  0  0  0
 15101  1  0  0  0
 16 17  2  0  0  0
 16 21  1  0  0  0
 16 31  1  0  0  0
 17 18  1  0  0  0
 17102  1  0  0  0
 18 19  2  0  0  0
 18103  1  0  0  0
 19 20  1  0  0  0
 19 24  1  0  0  0
 20 21  2  0  0  0
 20104  1  0  0  0
 21 23  1  0  0  0
 22 28  1  0  0  0
 22 32  2  0  0  0
 26 27  1  0  0  0
 28105  1  0  0  0
 28106  1  0  0  0
 29107  1  0  0  0
 29108  1  0  0  0
 33 34  1  0  0  0
 33 66  1  0  0  0
 33 70  2  0  0  0
 34 36  1  0  0  0
 34 59  1  0  0  0
 34109  1  0  0  0
 35 44  2  0  0  0
 35 45  1  0  0  0
 35 68  1  0  0  0
 36 56  1  0  0  0
 36110  1  0  0  0
 37 39  1  0  0  0
 37 47  1  0  0  0
 37 66  1  0  0  0
 37111  1  0  0  0
 38 43  2  0  0  0
 38 46  1  0  0  0
 38 47  1  0  0  0
 39 64  1  0  0  0
 39 67  2  0  0  0
 40 52  1  0  0  0
 40 53  2  0  0  0
 40 58  1  0  0  0
 41112  1  0  0  0
 41113  1  0  0  0
 41114  1  0  0  0
 41 48  1  0  0  0
 42 43  1  0  0  0
 42 66  1  0  0  0
 42115  1  0  0  0
 42116  1  0  0  0
 43 44  1  0  0  0
 44117  1  0  0  0
 45 46  2  0  0  0
 45118  1  0  0  0
 46119  1  0  0  0
 47120  1  0  0  0
 47121  1  0  0  0
 48 56  1  0  0  0
 48 65  1  0  0  0
 48122  1  0  0  0
 49 50  1  0  0  0
 49 53  1  0  0  0
 49 64  1  0  0  0
 49123  1  0  0  0
 50 51  1  0  0  0
 50124  1  0  0  0
 50125  1  0  0  0
 51 52  1  0  0  0
 51126  1  0  0  0
 51127  1  0  0  0
 52128  1  0  0  0
 52129  1  0  0  0
 53 54  1  0  0  0
 54 55  2  0  0  0
 54130  1  0  0  0
 55 57  1  0  0  0
 55131  1  0  0  0
 56 69  2  0  0  0
 57 58  2  0  0  0
 57132  1  0  0  0
 58133  1  0  0  0
 59 60  1  0  0  0
 59 61  1  0  0  0
 59 62  1  0  0  0
 60134  1  0  0  0
 60135  1  0  0  0
 60136  1  0  0  0
 61137  1  0  0  0
 61138  1  0  0  0
 61139  1  0  0  0
 62140  1  0  0  0
 62141  1  0  0  0
 62142  1  0  0  0
 63 65  1  0  0  0
 63143  1  0  0  0
 63144  1  0  0  0
 63145  1  0  0  0
 64146  1  0  0  0
 65147  1  0  0  0
 68 82  1  0  0  0
 71 73  2  0  0  0
 71 74  1  0  0  0
 71148  1  0  0  0
 72 73  1  0  0  0
 72 75  2  0  0  0
 72 78  1  0  0  0
 73 85  1  0  0  0
 74 76  2  0  0  0
 74 84  1  0  0  0
 75 76  1  0  0  0
 75 87  1  0  0  0
 76 88  1  0  0  0
 77 78  2  0  0  0
 77149  1  0  0  0
 77150  1  0  0  0
 78151  1  0  0  0
 79 81  1  0  0  0
 79 82  1  0  0  0
 79 86  2  0  0  0
 80 87  1  0  0  0
 80152  1  0  0  0
 80153  1  0  0  0
 80154  1  0  0  0
 81 83  1  0  0  0
 81155  1  0  0  0
 81156  1  0  0  0
 82157  1  0  0  0
 82158  1  0  0  0
 83 88  1  0  0  0
 83159  1  0  0  0
 83160  1  0  0  0
 84161  1  0  0  0
 84162  1  0  0  0
 85163  1  0  0  0
M  ISO  4   1 100  68 101  82 101  85 100
M  END
> <chiral flag>
0

> <version>
0

> <s_m_source_file>
/data/baiqing/PycharmProjects/Reinvent-master-3.2/result/LINK_invent/BTK/process_docking_weight1_custom_product_contain_oxygen_bond_distance_aromatic_linkinvent_7_9_3/rearranged_h_0110.sdf

> <i_m_source_file_index>
93

> <r_mmod_Potential_Energy-OPLS-2005>
15974.8798828125

> <r_mmod_Stretch_Energy-OPLS-2005>
7424.2568359375

> <r_mmod_Bend_Energy-OPLS-2005>
1625.91516113281

> <r_mmod_Torsional_Energy-OPLS-2005>
572.576782226562

> <r_mmod_Improper_Torsional_Energy-OPLS-2005>
44.4469337463379

> <r_mmod_Van_der_Waal_Energy-OPLS-2005>
2192.22827148438

> <r_mmod_Electrostatic_Energy-OPLS-2005>
-368.9189453125

> <r_mmod_Solvation_Energy-OPLS-2005>
-223.341751098633

> <b_mmod_Minimization_Converged-OPLS-2005>
0

> <r_mmod_RMS_Derivative-OPLS-2005>
3.95297431945801

$$$$
94
                    3D
 Structure written by MMmdl.
161170  0  0  1  0            999 V2000
  -30.5903  -14.7252   20.4859 C   0  0  0  0  0  0
  -30.4433  -12.4437   19.4720 C   0  0  0  0  0  0
  -29.5146  -12.5160   18.2374 C   0  0  0  0  0  0
  -28.0400  -12.3357   18.6489 C   0  0  0  0  0  0
  -27.6503  -13.2220   19.8611 C   0  0  2  0  0  0
  -28.6937  -13.1135   20.9959 C   0  0  0  0  0  0
  -25.2564  -13.8174   20.5707 C   0  0  0  0  0  0
  -24.1828  -13.0438   20.9195 C   0  0  0  0  0  0
  -24.6399  -11.6907   20.8748 C   0  0  0  0  0  0
  -23.9071  -10.4288   21.0409 C   0  0  0  0  0  0
  -24.3627   -9.4204   21.9176 C   0  0  0  0  0  0
  -23.6303   -8.2240   22.0747 C   0  0  0  0  0  0
  -22.4279   -8.0284   21.3550 C   0  0  0  0  0  0
  -21.9913   -9.0255   20.4646 C   0  0  0  0  0  0
  -22.7243  -10.2130   20.3052 C   0  0  0  0  0  0
  -21.6849   -6.0740   22.5281 C   0  0  0  0  0  0
  -21.4010   -6.5644   23.8216 C   0  0  0  0  0  0
  -21.3665   -5.6794   24.9180 C   0  0  0  0  0  0
  -21.6046   -4.3053   24.7229 C   0  0  0  0  0  0
  -21.8820   -3.8152   23.4344 C   0  0  0  0  0  0
  -21.9190   -4.6968   22.3404 C   0  0  0  0  0  0
  -22.7852  -13.5242   21.1864 C   0  0  0  0  0  0
  -22.1659   -4.2153   21.0977 F   0  0  0  0  0  0
  -21.5636   -3.4537   25.7740 F   0  0  0  0  0  0
  -30.0028  -13.4799   20.4332 N   0  0  0  0  0  0
  -26.2982  -12.9356   20.3317 N   0  0  0  0  0  0
  -25.9327  -11.6506   20.5750 N   0  0  0  0  0  0
  -22.0497  -12.8229   22.0419 N   0  0  0  0  0  0
  -25.4281  -15.1897   20.4161 N   0  0  0  0  0  0
  -31.7503  -14.8833   20.0926 O   0  0  0  0  0  0
  -21.6641   -6.8881   21.4242 O   0  0  0  0  0  0
  -22.3530  -14.5549   20.6713 O   0  0  0  0  0  0
  -24.6293  -31.8561   23.1980 C   0  0  0  0  0  0
  -25.9124  -32.4759   23.8332 C   0  0  1  0  0  0
  -27.2327  -27.2853   20.1203 C   0  0  0  0  0  0
  -25.5923  -33.8557   24.2257 N   0  0  0  0  0  0
  -23.4262  -30.4760   21.5413 C   0  0  2  0  0  0
  -24.8769  -28.9273   20.1038 C   0  0  0  0  0  0
  -22.7495  -29.4595   22.4921 C   0  0  0  0  0  0
  -18.0289  -28.1395   22.8487 C   0  0  0  0  0  0
  -24.1487  -36.7283   23.2637 C   0  0  0  0  0  0
  -25.9699  -30.7742   21.3764 C   0  0  0  0  0  0
  -26.0453  -29.3994   20.7162 C   0  0  0  0  0  0
  -27.2224  -28.5872   20.7209 C   0  0  0  0  0  0
  -26.0400  -26.8727   19.4842 C   0  0  0  0  0  0
  -24.8784  -27.6713   19.4773 C   0  0  0  0  0  0
  -23.6429  -29.8074   20.1573 C   0  0  0  0  0  0
  -25.4111  -36.3069   24.0332 C   0  0  1  0  0  0
  -20.5894  -28.3700   23.1278 C   0  0  2  0  0  0
  -20.6775  -26.9418   22.5421 C   0  0  0  0  0  0
  -19.5752  -26.6381   21.5226 C   0  0  0  0  0  0
  -18.1931  -26.7939   22.1624 C   0  0  0  0  0  0
  -19.1544  -28.8865   23.2877 C   0  0  0  0  0  0
  -18.9457  -30.1465   23.8892 C   0  0  0  0  0  0
  -17.6455  -30.6590   24.0564 C   0  0  0  0  0  0
  -25.9056  -34.9440   23.5100 C   0  0  0  0  0  0
  -16.5346  -29.9079   23.6338 C   0  0  0  0  0  0
  -16.7272  -28.6502   23.0350 C   0  0  0  0  0  0
  -26.4493  -31.6585   25.0718 C   0  0  0  0  0  0
  -25.3719  -31.3748   26.1443 C   0  0  0  0  0  0
  -27.0324  -30.2989   24.6212 C   0  0  0  0  0  0
  -27.6066  -32.4320   25.7467 C   0  0  0  0  0  0
  -27.5594  -37.1772   24.8448 C   0  0  0  0  0  0
  -21.4209  -29.3031   22.3662 N   0  0  0  0  0  0
  -26.4278  -37.3774   23.9436 N   0  0  0  0  0  0
  -24.6939  -31.0528   22.0956 N   0  0  0  0  0  0
  -23.4200  -28.8150   23.3029 O   0  0  0  0  0  0
  -28.3067  -26.3787   20.2433 O   0  0  0  0  0  0
  -26.5629  -34.8917   22.4669 O   0  0  0  0  0  0
  -23.5446  -32.1372   23.7282 O   0  0  0  0  0  0
  -30.5820  -19.3849   19.6199 C   0  0  0  0  0  0
  -30.7118  -17.9741   19.8493 C   0  0  0  0  0  0
  -28.7973  -18.0754   21.2725 C   0  0  0  0  0  0
  -29.5537  -20.2081   20.1852 C   0  0  0  0  0  0
  -29.7997  -17.2539   20.6663 C   0  0  0  0  0  0
  -28.6745  -19.4934   21.0552 C   0  0  0  0  0  0
  -28.8004  -23.9976   19.3580 C   0  0  0  0  0  0
  -28.5093  -25.3582   19.2949 C   0  0  0  0  0  0
  -29.9421  -23.3229   21.5516 C   0  0  0  0  0  0
  -29.0645  -23.2614   18.0622 C   0  0  0  0  0  0
  -29.7836  -21.9530   18.4196 C   0  0  0  0  0  0
  -28.9418  -22.8822   20.4661 C   0  0  2  0  0  0
  -29.7429  -22.7455   22.9448 C   0  0  0  0  0  0
  -29.3927  -21.6062   19.7802 N   0  0  0  0  0  0
  -27.6207  -20.1783   21.6600 N   0  0  0  0  0  0
  -29.7794  -15.7802   20.8696 N   0  0  0  0  0  0
  -30.8996  -24.0735   21.3411 O   0  0  0  0  0  0
  -31.4826  -12.5816   19.1705 H   0  0  0  0  0  0
  -30.3982  -11.4555   19.9330 H   0  0  0  0  0  0
  -29.7950  -11.7538   17.5096 H   0  0  0  0  0  0
  -29.6390  -13.4772   17.7367 H   0  0  0  0  0  0
  -27.8955  -11.2843   18.9011 H   0  0  0  0  0  0
  -27.3814  -12.5367   17.8037 H   0  0  0  0  0  0
  -27.6566  -14.2512   19.5010 H   0  0  0  0  0  0
  -28.7244  -12.0986   21.3955 H   0  0  0  0  0  0
  -28.4231  -13.7541   21.8371 H   0  0  0  0  0  0
  -25.2765   -9.5681   22.4754 H   0  0  0  0  0  0
  -24.0013   -7.4629   22.7461 H   0  0  0  0  0  0
  -21.0843   -8.8776   19.8952 H   0  0  0  0  0  0
  -22.3698  -10.9678   19.6173 H   0  0  0  0  0  0
  -21.1990   -7.6148   23.9724 H   0  0  0  0  0  0
  -21.1493   -6.0519   25.9084 H   0  0  0  0  0  0
  -22.0593   -2.7610   23.2838 H   0  0  0  0  0  0
  -22.4114  -11.9890   22.4804 H   0  0  0  0  0  0
  -21.1118  -13.1249   22.2639 H   0  0  0  0  0  0
  -24.6642  -15.8450   20.5349 H   0  0  0  0  0  0
  -26.2793  -15.6296   20.0910 H   0  0  0  0  0  0
  -26.7191  -32.5405   23.1082 H   0  0  0  0  0  0
  -25.0069  -33.9696   25.0399 H   0  0  0  0  0  0
  -22.7221  -31.2978   21.3946 H   0  0  0  0  0  0
  -23.3772  -35.9587   23.3238 H   0  0  0  0  0  0
  -24.3601  -36.8962   22.2065 H   0  0  0  0  0  0
  -23.7201  -37.6452   23.6696 H   0  0  0  0  0  0
  -26.1078  -31.5354   20.6068 H   0  0  0  0  0  0
  -26.8481  -30.8223   22.0097 H   0  0  0  0  0  0
  -28.1102  -28.9341   21.2305 H   0  0  0  0  0  0
  -25.9787  -25.8958   19.0266 H   0  0  0  0  0  0
  -23.9816  -27.3001   18.9991 H   0  0  0  0  0  0
  -23.7558  -30.5812   19.3976 H   0  0  0  0  0  0
  -22.7644  -29.2324   19.8595 H   0  0  0  0  0  0
  -25.1285  -36.1909   25.0821 H   0  0  0  0  0  0
  -20.9984  -28.3275   24.1401 H   0  0  0  0  0  0
  -20.5675  -26.2309   23.3627 H   0  0  0  0  0  0
  -21.6641  -26.7434   22.1215 H   0  0  0  0  0  0
  -19.6911  -25.6290   21.1258 H   0  0  0  0  0  0
  -19.6701  -27.3188   20.6755 H   0  0  0  0  0  0
  -17.4211  -26.6697   21.4018 H   0  0  0  0  0  0
  -18.0311  -26.0081   22.9013 H   0  0  0  0  0  0
  -19.7925  -30.7287   24.2256 H   0  0  0  0  0  0
  -17.5000  -31.6273   24.5159 H   0  0  0  0  0  0
  -15.5342  -30.2972   23.7672 H   0  0  0  0  0  0
  -15.8676  -28.0816   22.7073 H   0  0  0  0  0  0
  -24.5879  -30.7117   25.7766 H   0  0  0  0  0  0
  -24.8937  -32.2925   26.4874 H   0  0  0  0  0  0
  -25.8029  -30.8909   27.0217 H   0  0  0  0  0  0
  -26.2900  -29.6735   24.1239 H   0  0  0  0  0  0
  -27.3986  -29.7254   25.4739 H   0  0  0  0  0  0
  -27.8793  -30.4234   23.9462 H   0  0  0  0  0  0
  -27.2698  -33.3627   26.2037 H   0  0  0  0  0  0
  -28.3867  -32.6863   25.0281 H   0  0  0  0  0  0
  -28.0747  -31.8455   26.5379 H   0  0  0  0  0  0
  -28.2546  -38.0131   24.7593 H   0  0  0  0  0  0
  -28.1153  -36.2677   24.6132 H   0  0  0  0  0  0
  -27.2344  -37.1243   25.8850 H   0  0  0  0  0  0
  -20.9404  -29.8736   21.6850 H   0  0  0  0  0  0
  -26.0155  -38.2831   24.1500 H   0  0  0  0  0  0
  -31.3053  -19.8359   18.9584 H   0  0  0  0  0  0
  -31.5132  -17.4453   19.3519 H   0  0  0  0  0  0
  -28.0702  -17.5926   21.9108 H   0  0  0  0  0  0
  -28.4808  -25.8122   18.3128 H   0  0  0  0  0  0
  -29.6401  -23.8659   17.3611 H   0  0  0  0  0  0
  -28.1036  -23.0392   17.5955 H   0  0  0  0  0  0
  -30.8643  -22.1043   18.3879 H   0  0  0  0  0  0
  -29.5357  -21.1688   17.7028 H   0  0  0  0  0  0
  -27.9589  -22.7376   20.9135 H   0  0  0  0  0  0
  -28.6977  -22.4817   23.1053 H   0  0  0  0  0  0
  -30.0354  -23.4722   23.7024 H   0  0  0  0  0  0
  -30.3462  -21.8459   23.0674 H   0  0  0  0  0  0
  -26.8078  -19.6389   21.9346 H   0  0  0  0  0  0
  -27.3727  -21.0480   21.2054 H   0  0  0  0  0  0
  -28.9202  -15.4422   21.2774 H   0  0  0  0  0  0
  1 25  1  0  0  0
  1 30  2  0  0  0
  1 86  1  0  0  0
  2  3  1  0  0  0
  2 25  1  0  0  0
  2 88  1  0  0  0
  2 89  1  0  0  0
  3  4  1  0  0  0
  3 90  1  0  0  0
  3 91  1  0  0  0
  4  5  1  0  0  0
  4 92  1  0  0  0
  4 93  1  0  0  0
  5  6  1  0  0  0
  5 26  1  0  0  0
  5 94  1  0  0  0
  6 25  1  0  0  0
  6 95  1  0  0  0
  6 96  1  0  0  0
  7  8  2  0  0  0
  7 26  1  0  0  0
  7 29  1  0  0  0
  8  9  1  0  0  0
  8 22  1  0  0  0
  9 10  1  0  0  0
  9 27  2  0  0  0
 10 11  2  0  0  0
 10 15  1  0  0  0
 11 12  1  0  0  0
 11 97  1  0  0  0
 12 13  2  0  0  0
 12 98  1  0  0  0
 13 14  1  0  0  0
 13 31  1  0  0  0
 14 15  2  0  0  0
 14 99  1  0  0  0
 15100  1  0  0  0
 16 17  2  0  0  0
 16 21  1  0  0  0
 16 31  1  0  0  0
 17 18  1  0  0  0
 17101  1  0  0  0
 18 19  2  0  0  0
 18102  1  0  0  0
 19 20  1  0  0  0
 19 24  1  0  0  0
 20 21  2  0  0  0
 20103  1  0  0  0
 21 23  1  0  0  0
 22 28  1  0  0  0
 22 32  2  0  0  0
 26 27  1  0  0  0
 28104  1  0  0  0
 28105  1  0  0  0
 29106  1  0  0  0
 29107  1  0  0  0
 33 34  1  0  0  0
 33 66  1  0  0  0
 33 70  2  0  0  0
 34 36  1  0  0  0
 34 59  1  0  0  0
 34108  1  0  0  0
 35 44  2  0  0  0
 35 45  1  0  0  0
 35 68  1  0  0  0
 36 56  1  0  0  0
 36109  1  0  0  0
 37 39  1  0  0  0
 37 47  1  0  0  0
 37 66  1  0  0  0
 37110  1  0  0  0
 38 43  2  0  0  0
 38 46  1  0  0  0
 38 47  1  0  0  0
 39 64  1  0  0  0
 39 67  2  0  0  0
 40 52  1  0  0  0
 40 53  2  0  0  0
 40 58  1  0  0  0
 41111  1  0  0  0
 41112  1  0  0  0
 41113  1  0  0  0
 41 48  1  0  0  0
 42 43  1  0  0  0
 42 66  1  0  0  0
 42114  1  0  0  0
 42115  1  0  0  0
 43 44  1  0  0  0
 44116  1  0  0  0
 45 46  2  0  0  0
 45117  1  0  0  0
 46118  1  0  0  0
 47119  1  0  0  0
 47120  1  0  0  0
 48 56  1  0  0  0
 48 65  1  0  0  0
 48121  1  0  0  0
 49 50  1  0  0  0
 49 53  1  0  0  0
 49 64  1  0  0  0
 49122  1  0  0  0
 50 51  1  0  0  0
 50123  1  0  0  0
 50124  1  0  0  0
 51 52  1  0  0  0
 51125  1  0  0  0
 51126  1  0  0  0
 52127  1  0  0  0
 52128  1  0  0  0
 53 54  1  0  0  0
 54 55  2  0  0  0
 54129  1  0  0  0
 55 57  1  0  0  0
 55130  1  0  0  0
 56 69  2  0  0  0
 57 58  2  0  0  0
 57131  1  0  0  0
 58132  1  0  0  0
 59 60  1  0  0  0
 59 61  1  0  0  0
 59 62  1  0  0  0
 60133  1  0  0  0
 60134  1  0  0  0
 60135  1  0  0  0
 61136  1  0  0  0
 61137  1  0  0  0
 61138  1  0  0  0
 62139  1  0  0  0
 62140  1  0  0  0
 62141  1  0  0  0
 63 65  1  0  0  0
 63142  1  0  0  0
 63143  1  0  0  0
 63144  1  0  0  0
 64145  1  0  0  0
 65146  1  0  0  0
 68 78  1  0  0  0
 71 72  2  0  0  0
 71 74  1  0  0  0
 71147  1  0  0  0
 72 75  1  0  0  0
 72148  1  0  0  0
 73 75  2  0  0  0
 73 76  1  0  0  0
 73149  1  0  0  0
 74 76  2  0  0  0
 74 84  1  0  0  0
 75 86  1  0  0  0
 76 85  1  0  0  0
 77 78  2  0  0  0
 77 80  1  0  0  0
 77 82  1  0  0  0
 78150  1  0  0  0
 79 83  1  0  0  0
 79 87  2  0  0  0
 79 82  1  0  0  0
 80 81  1  0  0  0
 80151  1  0  0  0
 80152  1  0  0  0
 81 84  1  0  0  0
 81153  1  0  0  0
 81154  1  0  0  0
 82 84  1  0  0  0
 82155  1  0  0  0
 83156  1  0  0  0
 83157  1  0  0  0
 83158  1  0  0  0
 85159  1  0  0  0
 85160  1  0  0  0
 86161  1  0  0  0
M  ISO  4   1 100  68 101  78 101  86 100
M  END
> <chiral flag>
0

> <version>
0

> <s_m_source_file>
/data/baiqing/PycharmProjects/Reinvent-master-3.2/result/LINK_invent/BTK/process_docking_weight1_custom_product_contain_oxygen_bond_distance_aromatic_linkinvent_7_9_3/rearranged_h_0110.sdf

> <i_m_source_file_index>
94

> <r_mmod_Potential_Energy-OPLS-2005>
188.453643798828

> <r_mmod_Stretch_Energy-OPLS-2005>
104.713989257812

> <r_mmod_Bend_Energy-OPLS-2005>
242.279022216797

> <r_mmod_Torsional_Energy-OPLS-2005>
234.431243896484

> <r_mmod_Improper_Torsional_Energy-OPLS-2005>
8.5895528793335

> <r_mmod_Van_der_Waal_Energy-OPLS-2005>
133.24885559082

> <r_mmod_Electrostatic_Energy-OPLS-2005>
-377.614349365234

> <r_mmod_Solvation_Energy-OPLS-2005>
-235.852111816406

> <b_mmod_Minimization_Converged-OPLS-2005>
0

> <r_mmod_RMS_Derivative-OPLS-2005>
1.68137955665588

$$$$
95
                    3D
 Structure written by MMmdl.
167176  0  0  1  0            999 V2000
  -30.6230  -14.6417   20.5755 C   0  0  0  0  0  0
  -30.4522  -12.4223   19.4447 C   0  0  0  0  0  0
  -29.5111  -12.5429   18.2218 C   0  0  0  0  0  0
  -28.0292  -12.3751   18.6223 C   0  0  0  0  0  0
  -27.6596  -13.2062   19.8787 C   0  0  2  0  0  0
  -28.7039  -12.9620   20.9851 C   0  0  0  0  0  0
  -25.2577  -13.8142   20.5687 C   0  0  0  0  0  0
  -24.1826  -13.0417   20.9162 C   0  0  0  0  0  0
  -24.6387  -11.6886   20.8720 C   0  0  0  0  0  0
  -23.9052  -10.4281   21.0399 C   0  0  0  0  0  0
  -24.3604   -9.4202   21.9181 C   0  0  0  0  0  0
  -23.6279   -8.2240   22.0755 C   0  0  0  0  0  0
  -22.4261   -8.0277   21.3545 C   0  0  0  0  0  0
  -21.9895   -9.0249   20.4649 C   0  0  0  0  0  0
  -22.7228  -10.2125   20.3051 C   0  0  0  0  0  0
  -21.6845   -6.0731   22.5279 C   0  0  0  0  0  0
  -21.4012   -6.5635   23.8212 C   0  0  0  0  0  0
  -21.3658   -5.6789   24.9177 C   0  0  0  0  0  0
  -21.6044   -4.3053   24.7229 C   0  0  0  0  0  0
  -21.8818   -3.8144   23.4350 C   0  0  0  0  0  0
  -21.9190   -4.6959   22.3405 C   0  0  0  0  0  0
  -22.7856  -13.5225   21.1839 C   0  0  0  0  0  0
  -22.1658   -4.2145   21.0983 F   0  0  0  0  0  0
  -21.5629   -3.4537   25.7742 F   0  0  0  0  0  0
  -30.0152  -13.4027   20.4669 N   0  0  0  0  0  0
  -26.3012  -12.9302   20.3373 N   0  0  0  0  0  0
  -25.9309  -11.6462   20.5736 N   0  0  0  0  0  0
  -22.0501  -12.8223   22.0403 N   0  0  0  0  0  0
  -25.4285  -15.1869   20.4138 N   0  0  0  0  0  0
  -31.7280  -14.8463   20.0598 O   0  0  0  0  0  0
  -21.6630   -6.8873   21.4243 O   0  0  0  0  0  0
  -22.3545  -14.5539   20.6701 O   0  0  0  0  0  0
  -24.6269  -31.8600   23.2031 C   0  0  0  0  0  0
  -25.9118  -32.4777   23.8356 C   0  0  1  0  0  0
  -27.2249  -27.3177   20.1035 C   0  0  0  0  0  0
  -25.5933  -33.8579   24.2279 N   0  0  0  0  0  0
  -23.4202  -30.4855   21.5474 C   0  0  2  0  0  0
  -24.8659  -28.9446   20.1121 C   0  0  0  0  0  0
  -22.7479  -29.4625   22.4937 C   0  0  0  0  0  0
  -18.0286  -28.1381   22.8492 C   0  0  0  0  0  0
  -24.1486  -36.7290   23.2630 C   0  0  0  0  0  0
  -25.9642  -30.7885   21.3764 C   0  0  0  0  0  0
  -26.0380  -29.4174   20.7158 C   0  0  0  0  0  0
  -27.2203  -28.6166   20.7022 C   0  0  0  0  0  0
  -26.0222  -26.9016   19.4809 C   0  0  0  0  0  0
  -24.8603  -27.6916   19.4877 C   0  0  0  0  0  0
  -23.6344  -29.8240   20.1623 C   0  0  0  0  0  0
  -25.4109  -36.3078   24.0324 C   0  0  1  0  0  0
  -20.5889  -28.3684   23.1286 C   0  0  2  0  0  0
  -20.6780  -26.9408   22.5411 C   0  0  0  0  0  0
  -19.5752  -26.6382   21.5217 C   0  0  0  0  0  0
  -18.1926  -26.7928   22.1624 C   0  0  0  0  0  0
  -19.1541  -28.8849   23.2883 C   0  0  0  0  0  0
  -18.9464  -30.1454   23.8895 C   0  0  0  0  0  0
  -17.6464  -30.6585   24.0566 C   0  0  0  0  0  0
  -25.9056  -34.9452   23.5103 C   0  0  0  0  0  0
  -16.5356  -29.9083   23.6334 C   0  0  0  0  0  0
  -16.7275  -28.6501   23.0356 C   0  0  0  0  0  0
  -26.4502  -31.6588   25.0728 C   0  0  0  0  0  0
  -25.3730  -31.3724   26.1448 C   0  0  0  0  0  0
  -27.0355  -30.3009   24.6189 C   0  0  0  0  0  0
  -27.6061  -32.4327   25.7495 C   0  0  0  0  0  0
  -27.5596  -37.1773   24.8443 C   0  0  0  0  0  0
  -21.4192  -29.3041   22.3681 N   0  0  0  0  0  0
  -26.4273  -37.3790   23.9436 N   0  0  0  0  0  0
  -24.6895  -31.0606   22.0991 N   0  0  0  0  0  0
  -23.4204  -28.8151   23.3003 O   0  0  0  0  0  0
  -28.3427  -26.4622   20.1431 O   0  0  0  0  0  0
  -26.5628  -34.8918   22.4671 O   0  0  0  0  0  0
  -23.5429  -32.1412   23.7347 O   0  0  0  0  0  0
  -30.7655  -19.5931   21.6129 C   0  0  0  0  0  0
  -30.0936  -17.3071   20.9315 C   0  0  0  0  0  0
  -30.8029  -18.1847   21.8077 C   0  0  0  0  0  0
  -30.0319  -20.1645   20.5532 C   0  0  0  0  0  0
  -29.4468  -17.9701   19.8382 C   0  0  0  0  0  0
  -29.2348  -23.9346   20.0665 C   0  0  0  0  0  0
  -29.0247  -22.5767   20.2707 C   0  0  0  0  0  0
  -30.6336  -24.4052   19.9158 C   0  0  0  0  0  0
  -29.8757  -15.8271   21.3155 C   0  0  0  0  0  0
  -31.7474  -23.4340   20.3036 C   0  0  0  0  0  0
  -31.4131  -21.9896   19.8987 C   0  0  0  0  0  0
  -31.5806  -17.6522   23.0032 C   0  0  0  0  0  0
  -27.6054  -22.0436   20.4380 C   0  0  0  0  0  0
  -28.1372  -17.8933   17.7229 C   0  0  0  0  0  0
  -28.1004  -25.0172   19.8972 C   0  0  0  0  0  0
  -29.4293  -19.3335   19.6648 N   0  0  0  0  0  0
  -29.1019  -15.6363   22.3006 N   0  0  0  0  0  0
  -30.0675  -21.5886   20.3193 N   0  0  0  0  0  0
  -28.7209  -17.2347   18.8859 N   0  0  0  0  0  0
  -30.9507  -25.5253   19.5046 O   0  0  0  0  0  0
  -31.4865  -12.5786   19.1344 H   0  0  0  0  0  0
  -30.4271  -11.4095   19.8499 H   0  0  0  0  0  0
  -29.7793  -11.8036   17.4658 H   0  0  0  0  0  0
  -29.6512  -13.5187   17.7546 H   0  0  0  0  0  0
  -27.8558  -11.3165   18.8188 H   0  0  0  0  0  0
  -27.3787  -12.6398   17.7882 H   0  0  0  0  0  0
  -27.7014  -14.2580   19.5984 H   0  0  0  0  0  0
  -28.7412  -11.8967   21.2178 H   0  0  0  0  0  0
  -28.4032  -13.4000   21.9299 H   0  0  0  0  0  0
  -25.2749   -9.5673   22.4754 H   0  0  0  0  0  0
  -23.9984   -7.4630   22.7474 H   0  0  0  0  0  0
  -21.0827   -8.8770   19.8956 H   0  0  0  0  0  0
  -22.3691  -10.9662   19.6154 H   0  0  0  0  0  0
  -21.2007   -7.6142   23.9714 H   0  0  0  0  0  0
  -21.1482   -6.0522   25.9077 H   0  0  0  0  0  0
  -22.0600   -2.7606   23.2856 H   0  0  0  0  0  0
  -22.4102  -11.9873   22.4784 H   0  0  0  0  0  0
  -21.1129  -13.1269   22.2625 H   0  0  0  0  0  0
  -24.6683  -15.8445   20.5462 H   0  0  0  0  0  0
  -26.3028  -15.6374   20.1754 H   0  0  0  0  0  0
  -26.7181  -32.5448   23.1099 H   0  0  0  0  0  0
  -25.0077  -33.9722   25.0422 H   0  0  0  0  0  0
  -22.7144  -31.3065   21.4050 H   0  0  0  0  0  0
  -23.3767  -35.9598   23.3234 H   0  0  0  0  0  0
  -24.3595  -36.8983   22.2060 H   0  0  0  0  0  0
  -23.7210  -37.6458   23.6701 H   0  0  0  0  0  0
  -26.0979  -31.5519   20.6085 H   0  0  0  0  0  0
  -26.8438  -30.8354   22.0073 H   0  0  0  0  0  0
  -28.1197  -28.9756   21.1820 H   0  0  0  0  0  0
  -25.9334  -25.9476   18.9855 H   0  0  0  0  0  0
  -23.9618  -27.3234   19.0119 H   0  0  0  0  0  0
  -23.7537  -30.6016   19.4068 H   0  0  0  0  0  0
  -22.7537  -29.2544   19.8594 H   0  0  0  0  0  0
  -25.1275  -36.1911   25.0809 H   0  0  0  0  0  0
  -20.9983  -28.3260   24.1407 H   0  0  0  0  0  0
  -20.5692  -26.2289   23.3608 H   0  0  0  0  0  0
  -21.6646  -26.7438   22.1206 H   0  0  0  0  0  0
  -19.6915  -25.6294   21.1242 H   0  0  0  0  0  0
  -19.6691  -27.3194   20.6746 H   0  0  0  0  0  0
  -17.4205  -26.6690   21.4014 H   0  0  0  0  0  0
  -18.0314  -26.0057   22.9003 H   0  0  0  0  0  0
  -19.7939  -30.7274   24.2266 H   0  0  0  0  0  0
  -17.5016  -31.6266   24.5167 H   0  0  0  0  0  0
  -15.5357  -30.2983   23.7658 H   0  0  0  0  0  0
  -15.8678  -28.0822   22.7070 H   0  0  0  0  0  0
  -24.5918  -30.7054   25.7785 H   0  0  0  0  0  0
  -24.8892  -32.2884   26.4853 H   0  0  0  0  0  0
  -25.8050  -30.8931   27.0240 H   0  0  0  0  0  0
  -26.2938  -29.6744   24.1220 H   0  0  0  0  0  0
  -27.4066  -29.7279   25.4697 H   0  0  0  0  0  0
  -27.8793  -30.4297   23.9408 H   0  0  0  0  0  0
  -27.2685  -33.3645   26.2048 H   0  0  0  0  0  0
  -28.3883  -32.6867   25.0329 H   0  0  0  0  0  0
  -28.0711  -31.8466   26.5433 H   0  0  0  0  0  0
  -28.2524  -38.0160   24.7637 H   0  0  0  0  0  0
  -28.1192  -36.2707   24.6081 H   0  0  0  0  0  0
  -27.2343  -37.1185   25.8845 H   0  0  0  0  0  0
  -20.9366  -29.8779   21.6909 H   0  0  0  0  0  0
  -26.0143  -38.2840   24.1535 H   0  0  0  0  0  0
  -31.2898  -20.2449   22.2981 H   0  0  0  0  0  0
  -31.8866  -23.4948   21.3825 H   0  0  0  0  0  0
  -32.6851  -23.7452   19.8429 H   0  0  0  0  0  0
  -32.1813  -21.3268   20.2983 H   0  0  0  0  0  0
  -31.4684  -21.8916   18.8135 H   0  0  0  0  0  0
  -32.2393  -18.4131   23.4219 H   0  0  0  0  0  0
  -32.2034  -16.8041   22.7175 H   0  0  0  0  0  0
  -30.8994  -17.3321   23.7919 H   0  0  0  0  0  0
  -27.0004  -22.3044   19.5689 H   0  0  0  0  0  0
  -27.1382  -22.4869   21.3180 H   0  0  0  0  0  0
  -27.5421  -20.9639   20.5582 H   0  0  0  0  0  0
  -27.6420  -17.1647   17.0806 H   0  0  0  0  0  0
  -28.9069  -18.3952   17.1345 H   0  0  0  0  0  0
  -27.3965  -18.6354   18.0250 H   0  0  0  0  0  0
  -27.2606  -24.7094   20.5203 H   0  0  0  0  0  0
  -27.7860  -24.9071   18.8593 H   0  0  0  0  0  0
  -28.7235  -16.5040   22.6595 H   0  0  0  0  0  0
  -28.7667  -16.2242   18.8788 H   0  0  0  0  0  0
  1 25  1  0  0  0
  1 30  2  0  0  0
  1 79  1  0  0  0
  2  3  1  0  0  0
  2 25  1  0  0  0
  2 91  1  0  0  0
  2 92  1  0  0  0
  3  4  1  0  0  0
  3 93  1  0  0  0
  3 94  1  0  0  0
  4  5  1  0  0  0
  4 95  1  0  0  0
  4 96  1  0  0  0
  5  6  1  0  0  0
  5 26  1  0  0  0
  5 97  1  0  0  0
  6 25  1  0  0  0
  6 98  1  0  0  0
  6 99  1  0  0  0
  7  8  2  0  0  0
  7 26  1  0  0  0
  7 29  1  0  0  0
  8  9  1  0  0  0
  8 22  1  0  0  0
  9 10  1  0  0  0
  9 27  2  0  0  0
 10 11  2  0  0  0
 10 15  1  0  0  0
 11 12  1  0  0  0
 11100  1  0  0  0
 12 13  2  0  0  0
 12101  1  0  0  0
 13 14  1  0  0  0
 13 31  1  0  0  0
 14 15  2  0  0  0
 14102  1  0  0  0
 15103  1  0  0  0
 16 17  2  0  0  0
 16 21  1  0  0  0
 16 31  1  0  0  0
 17 18  1  0  0  0
 17104  1  0  0  0
 18 19  2  0  0  0
 18105  1  0  0  0
 19 20  1  0  0  0
 19 24  1  0  0  0
 20 21  2  0  0  0
 20106  1  0  0  0
 21 23  1  0  0  0
 22 28  1  0  0  0
 22 32  2  0  0  0
 26 27  1  0  0  0
 28107  1  0  0  0
 28108  1  0  0  0
 29109  1  0  0  0
 29110  1  0  0  0
 33 34  1  0  0  0
 33 66  1  0  0  0
 33 70  2  0  0  0
 34 36  1  0  0  0
 34 59  1  0  0  0
 34111  1  0  0  0
 35 44  2  0  0  0
 35 45  1  0  0  0
 35 68  1  0  0  0
 36 56  1  0  0  0
 36112  1  0  0  0
 37 39  1  0  0  0
 37 47  1  0  0  0
 37 66  1  0  0  0
 37113  1  0  0  0
 38 43  2  0  0  0
 38 46  1  0  0  0
 38 47  1  0  0  0
 39 64  1  0  0  0
 39 67  2  0  0  0
 40 52  1  0  0  0
 40 53  2  0  0  0
 40 58  1  0  0  0
 41114  1  0  0  0
 41115  1  0  0  0
 41116  1  0  0  0
 41 48  1  0  0  0
 42 43  1  0  0  0
 42 66  1  0  0  0
 42117  1  0  0  0
 42118  1  0  0  0
 43 44  1  0  0  0
 44119  1  0  0  0
 45 46  2  0  0  0
 45120  1  0  0  0
 46121  1  0  0  0
 47122  1  0  0  0
 47123  1  0  0  0
 48 56  1  0  0  0
 48 65  1  0  0  0
 48124  1  0  0  0
 49 50  1  0  0  0
 49 53  1  0  0  0
 49 64  1  0  0  0
 49125  1  0  0  0
 50 51  1  0  0  0
 50126  1  0  0  0
 50127  1  0  0  0
 51 52  1  0  0  0
 51128  1  0  0  0
 51129  1  0  0  0
 52130  1  0  0  0
 52131  1  0  0  0
 53 54  1  0  0  0
 54 55  2  0  0  0
 54132  1  0  0  0
 55 57  1  0  0  0
 55133  1  0  0  0
 56 69  2  0  0  0
 57 58  2  0  0  0
 57134  1  0  0  0
 58135  1  0  0  0
 59 60  1  0  0  0
 59 61  1  0  0  0
 59 62  1  0  0  0
 60136  1  0  0  0
 60137  1  0  0  0
 60138  1  0  0  0
 61139  1  0  0  0
 61140  1  0  0  0
 61141  1  0  0  0
 62142  1  0  0  0
 62143  1  0  0  0
 62144  1  0  0  0
 63 65  1  0  0  0
 63145  1  0  0  0
 63146  1  0  0  0
 63147  1  0  0  0
 64148  1  0  0  0
 65149  1  0  0  0
 68 85  1  0  0  0
 71 73  2  0  0  0
 71 74  1  0  0  0
 71150  1  0  0  0
 72 73  1  0  0  0
 72 75  2  0  0  0
 72 79  1  0  0  0
 73 82  1  0  0  0
 74 86  2  0  0  0
 74 88  1  0  0  0
 75 86  1  0  0  0
 75 89  1  0  0  0
 76 77  2  0  0  0
 76 78  1  0  0  0
 76 85  1  0  0  0
 77 83  1  0  0  0
 77 88  1  0  0  0
 78 80  1  0  0  0
 78 90  2  0  0  0
 79 87  2  0  0  0
 80 81  1  0  0  0
 80151  1  0  0  0
 80152  1  0  0  0
 81 88  1  0  0  0
 81153  1  0  0  0
 81154  1  0  0  0
 82155  1  0  0  0
 82156  1  0  0  0
 82157  1  0  0  0
 83158  1  0  0  0
 83159  1  0  0  0
 83160  1  0  0  0
 84 89  1  0  0  0
 84161  1  0  0  0
 84162  1  0  0  0
 84163  1  0  0  0
 85164  1  0  0  0
 85165  1  0  0  0
 87166  1  0  0  0
 89167  1  0  0  0
M  ISO  4   1 100  68 101  79 100  85 101
M  END
> <chiral flag>
0

> <version>
0

> <s_m_source_file>
/data/baiqing/PycharmProjects/Reinvent-master-3.2/result/LINK_invent/BTK/process_docking_weight1_custom_product_contain_oxygen_bond_distance_aromatic_linkinvent_7_9_3/rearranged_h_0110.sdf

> <i_m_source_file_index>
95

> <r_mmod_Potential_Energy-OPLS-2005>
107.562004089355

> <r_mmod_Stretch_Energy-OPLS-2005>
101.646308898926

> <r_mmod_Bend_Energy-OPLS-2005>
165.988693237305

> <r_mmod_Torsional_Energy-OPLS-2005>
193.635391235352

> <r_mmod_Improper_Torsional_Energy-OPLS-2005>
5.02764654159546

> <r_mmod_Van_der_Waal_Energy-OPLS-2005>
180.328186035156

> <r_mmod_Electrostatic_Energy-OPLS-2005>
-357.692932128906

> <r_mmod_Solvation_Energy-OPLS-2005>
-228.527191162109

> <b_mmod_Minimization_Converged-OPLS-2005>
0

> <r_mmod_RMS_Derivative-OPLS-2005>
0.990528464317322

$$$$
