0
                    3D
 Structure written by MMmdl.
162170  0  0  1  0            999 V2000
  -30.8371  -14.2784   20.7609 C   0  0  0  0  0  0
  -30.4066  -12.2934   19.3682 C   0  0  0  0  0  0
  -29.4688  -12.5398   18.1772 C   0  0  0  0  0  0
  -28.0014  -12.3778   18.6061 C   0  0  0  0  0  0
  -27.6642  -13.2040   19.8736 C   0  0  2  0  0  0
  -28.7029  -12.9621   20.9903 C   0  0  0  0  0  0
  -25.2600  -13.8163   20.5669 C   0  0  0  0  0  0
  -24.1842  -13.0443   20.9159 C   0  0  0  0  0  0
  -24.6390  -11.6907   20.8717 C   0  0  0  0  0  0
  -23.9053  -10.4293   21.0393 C   0  0  0  0  0  0
  -24.3610   -9.4215   21.9177 C   0  0  0  0  0  0
  -23.6286   -8.2248   22.0753 C   0  0  0  0  0  0
  -22.4269   -8.0281   21.3543 C   0  0  0  0  0  0
  -21.9901   -9.0252   20.4645 C   0  0  0  0  0  0
  -22.7223  -10.2132   20.3047 C   0  0  0  0  0  0
  -21.6855   -6.0734   22.5278 C   0  0  0  0  0  0
  -21.4014   -6.5638   23.8213 C   0  0  0  0  0  0
  -21.3658   -5.6793   24.9176 C   0  0  0  0  0  0
  -21.6042   -4.3054   24.7229 C   0  0  0  0  0  0
  -21.8820   -3.8146   23.4351 C   0  0  0  0  0  0
  -21.9191   -4.6961   22.3406 C   0  0  0  0  0  0
  -22.7865  -13.5246   21.1827 C   0  0  0  0  0  0
  -22.1662   -4.2146   21.0984 F   0  0  0  0  0  0
  -21.5627   -3.4540   25.7743 F   0  0  0  0  0  0
  -30.0517  -13.2187   20.4527 N   0  0  0  0  0  0
  -26.3036  -12.9329   20.3354 N   0  0  0  0  0  0
  -25.9315  -11.6489   20.5740 N   0  0  0  0  0  0
  -22.0509  -12.8238   22.0390 N   0  0  0  0  0  0
  -25.4334  -15.1878   20.4090 N   0  0  0  0  0  0
  -31.7600  -14.6782   20.0444 O   0  0  0  0  0  0
  -21.6636   -6.8875   21.4240 O   0  0  0  0  0  0
  -22.3549  -14.5554   20.6680 O   0  0  0  0  0  0
  -24.6128  -31.8705   23.2149 C   0  0  0  0  0  0
  -25.9037  -32.4833   23.8414 C   0  0  1  0  0  0
  -27.2282  -27.4530   20.0681 C   0  0  0  0  0  0
  -25.5906  -33.8628   24.2349 N   0  0  0  0  0  0
  -23.3975  -30.4982   21.5562 C   0  0  2  0  0  0
  -24.8382  -28.9715   20.1137 C   0  0  0  0  0  0
  -22.7396  -29.4672   22.5006 C   0  0  0  0  0  0
  -18.0272  -28.1368   22.8494 C   0  0  0  0  0  0
  -24.1485  -36.7315   23.2636 C   0  0  0  0  0  0
  -25.9262  -30.8365   21.3689 C   0  0  0  0  0  0
  -25.9985  -29.4743   20.7129 C   0  0  0  0  0  0
  -27.1908  -28.7178   20.6978 C   0  0  0  0  0  0
  -26.0429  -26.9675   19.4603 C   0  0  0  0  0  0
  -24.8534  -27.7145   19.4912 C   0  0  0  0  0  0
  -23.6021  -29.8383   20.1677 C   0  0  0  0  0  0
  -25.4107  -36.3116   24.0334 C   0  0  1  0  0  0
  -20.5862  -28.3650   23.1321 C   0  0  2  0  0  0
  -20.6769  -26.9389   22.5417 C   0  0  0  0  0  0
  -19.5746  -26.6381   21.5210 C   0  0  0  0  0  0
  -18.1921  -26.7920   22.1614 C   0  0  0  0  0  0
  -19.1522  -28.8823   23.2903 C   0  0  0  0  0  0
  -18.9456  -30.1438   23.8905 C   0  0  0  0  0  0
  -17.6460  -30.6583   24.0562 C   0  0  0  0  0  0
  -25.9026  -34.9478   23.5132 C   0  0  0  0  0  0
  -16.5350  -29.9083   23.6329 C   0  0  0  0  0  0
  -16.7262  -28.6500   23.0349 C   0  0  0  0  0  0
  -26.4476  -31.6607   25.0730 C   0  0  0  0  0  0
  -25.3749  -31.3704   26.1484 C   0  0  0  0  0  0
  -27.0320  -30.3058   24.6094 C   0  0  0  0  0  0
  -27.6057  -32.4327   25.7485 C   0  0  0  0  0  0
  -27.5580  -37.1812   24.8464 C   0  0  0  0  0  0
  -21.4128  -29.3025   22.3733 N   0  0  0  0  0  0
  -26.4301  -37.3795   23.9398 N   0  0  0  0  0  0
  -24.6640  -31.0818   22.1050 N   0  0  0  0  0  0
  -23.4188  -28.8207   23.3029 O   0  0  0  0  0  0
  -28.4196  -26.7552   20.0924 O   0  0  0  0  0  0
  -26.5587  -34.8928   22.4694 O   0  0  0  0  0  0
  -23.5330  -32.1459   23.7559 O   0  0  0  0  0  0
  -31.3018  -22.9069   19.8112 C   0  0  0  0  0  0
  -30.3140  -23.3648   21.9953 C   0  0  0  0  0  0
  -30.4626  -23.8780   19.2293 C   0  0  0  0  0  0
  -29.4822  -24.3392   21.4147 C   0  0  0  0  0  0
  -31.2109  -22.6288   21.1925 C   0  0  0  0  0  0
  -29.5404  -24.5853   20.0280 C   0  0  0  0  0  0
  -32.0311  -21.5122   21.8130 C   0  0  0  0  0  0
  -28.5206  -25.5111   19.3986 C   0  0  0  0  0  0
  -31.4163  -16.7531   23.2777 C   0  0  0  0  0  0
  -31.2560  -17.7675   22.1314 C   0  0  0  0  0  0
  -31.7510  -15.3249   22.8220 C   0  0  0  0  0  0
  -31.6699  -19.1844   22.5726 C   0  0  0  0  0  0
  -30.6978  -14.6965   22.0255 N   0  0  0  0  0  0
  -31.3910  -20.2099   21.5488 N   0  3  0  0  0  0
  -31.4477  -12.3989   19.0557 H   0  0  0  0  0  0
  -30.3080  -11.2664   19.7230 H   0  0  0  0  0  0
  -29.6999  -11.8474   17.3664 H   0  0  0  0  0  0
  -29.6294  -13.5437   17.7798 H   0  0  0  0  0  0
  -27.8214  -11.3179   18.7926 H   0  0  0  0  0  0
  -27.3386  -12.6587   17.7870 H   0  0  0  0  0  0
  -27.7197  -14.2563   19.5942 H   0  0  0  0  0  0
  -28.6514  -11.9306   21.3425 H   0  0  0  0  0  0
  -28.4542  -13.5861   21.8493 H   0  0  0  0  0  0
  -25.2758   -9.5694   22.4747 H   0  0  0  0  0  0
  -23.9999   -7.4643   22.7475 H   0  0  0  0  0  0
  -21.0832   -8.8763   19.8955 H   0  0  0  0  0  0
  -22.3679  -10.9665   19.6153 H   0  0  0  0  0  0
  -21.2008   -7.6146   23.9715 H   0  0  0  0  0  0
  -21.1476   -6.0524   25.9078 H   0  0  0  0  0  0
  -22.0600   -2.7606   23.2853 H   0  0  0  0  0  0
  -22.4122  -11.9901   22.4781 H   0  0  0  0  0  0
  -21.1125  -13.1259   22.2593 H   0  0  0  0  0  0
  -24.6730  -15.8492   20.5239 H   0  0  0  0  0  0
  -26.2976  -15.6250   20.1124 H   0  0  0  0  0  0
  -26.7103  -32.5553   23.1169 H   0  0  0  0  0  0
  -25.0069  -33.9789   25.0504 H   0  0  0  0  0  0
  -22.6861  -31.3161   21.4243 H   0  0  0  0  0  0
  -23.3743  -35.9653   23.3319 H   0  0  0  0  0  0
  -24.3581  -36.8910   22.2048 H   0  0  0  0  0  0
  -23.7243  -37.6524   23.6643 H   0  0  0  0  0  0
  -26.0382  -31.6062   20.6044 H   0  0  0  0  0  0
  -26.8141  -30.8855   21.9868 H   0  0  0  0  0  0
  -28.0864  -29.1024   21.1661 H   0  0  0  0  0  0
  -25.9888  -26.0225   18.9446 H   0  0  0  0  0  0
  -23.9600  -27.3241   19.0229 H   0  0  0  0  0  0
  -23.7095  -30.6173   19.4117 H   0  0  0  0  0  0
  -22.7242  -29.2597   19.8726 H   0  0  0  0  0  0
  -25.1286  -36.1982   25.0827 H   0  0  0  0  0  0
  -20.9955  -28.3231   24.1439 H   0  0  0  0  0  0
  -20.5686  -26.2254   23.3601 H   0  0  0  0  0  0
  -21.6639  -26.7453   22.1196 H   0  0  0  0  0  0
  -19.6908  -25.6297   21.1227 H   0  0  0  0  0  0
  -19.6691  -27.3205   20.6752 H   0  0  0  0  0  0
  -17.4194  -26.6674   21.4012 H   0  0  0  0  0  0
  -18.0306  -26.0058   22.9001 H   0  0  0  0  0  0
  -19.7938  -30.7244   24.2278 H   0  0  0  0  0  0
  -17.5020  -31.6265   24.5163 H   0  0  0  0  0  0
  -15.5350  -30.2983   23.7660 H   0  0  0  0  0  0
  -15.8659  -28.0830   22.7049 H   0  0  0  0  0  0
  -24.5928  -30.7040   25.7819 H   0  0  0  0  0  0
  -24.8932  -32.2855   26.4939 H   0  0  0  0  0  0
  -25.8110  -30.8874   27.0239 H   0  0  0  0  0  0
  -26.2861  -29.6790   24.1188 H   0  0  0  0  0  0
  -27.4145  -29.7315   25.4542 H   0  0  0  0  0  0
  -27.8671  -30.4380   23.9209 H   0  0  0  0  0  0
  -27.2680  -33.3613   26.2098 H   0  0  0  0  0  0
  -28.3846  -32.6908   25.0297 H   0  0  0  0  0  0
  -28.0743  -31.8426   26.5368 H   0  0  0  0  0  0
  -28.2613  -38.0099   24.7513 H   0  0  0  0  0  0
  -28.1070  -36.2632   24.6303 H   0  0  0  0  0  0
  -27.2297  -37.1474   25.8870 H   0  0  0  0  0  0
  -20.9279  -29.8750   21.6963 H   0  0  0  0  0  0
  -26.0195  -38.2872   24.1418 H   0  0  0  0  0  0
  -31.9889  -22.3543   19.1847 H   0  0  0  0  0  0
  -30.2372  -23.1673   23.0561 H   0  0  0  0  0  0
  -30.5049  -24.0530   18.1630 H   0  0  0  0  0  0
  -28.7682  -24.8715   22.0285 H   0  0  0  0  0  0
  -32.1054  -21.6867   22.8873 H   0  0  0  0  0  0
  -33.0502  -21.5190   21.4235 H   0  0  0  0  0  0
  -27.6081  -24.9211   19.4358 H   0  0  0  0  0  0
  -28.7527  -25.6971   18.3489 H   0  0  0  0  0  0
  -30.5230  -16.7573   23.9045 H   0  0  0  0  0  0
  -32.2298  -17.0747   23.9313 H   0  0  0  0  0  0
  -30.2222  -17.7552   21.7831 H   0  0  0  0  0  0
  -31.8704  -17.4697   21.2803 H   0  0  0  0  0  0
  -31.9029  -14.7007   23.7037 H   0  0  0  0  0  0
  -32.7083  -15.3208   22.2967 H   0  0  0  0  0  0
  -32.7376  -19.1881   22.7993 H   0  0  0  0  0  0
  -31.1518  -19.4587   23.4928 H   0  0  0  0  0  0
  -29.9287  -14.2850   22.5345 H   0  0  0  0  0  0
  -31.6974  -19.8894   20.6455 H   0  0  0  0  0  0
  -30.3965  -20.3594   21.5043 H   0  0  0  0  0  0
  1 25  1  0  0  0
  1 30  2  0  0  0
  1 83  1  0  0  0
  2  3  1  0  0  0
  2 25  1  0  0  0
  2 85  1  0  0  0
  2 86  1  0  0  0
  3  4  1  0  0  0
  3 87  1  0  0  0
  3 88  1  0  0  0
  4  5  1  0  0  0
  4 89  1  0  0  0
  4 90  1  0  0  0
  5  6  1  0  0  0
  5 26  1  0  0  0
  5 91  1  0  0  0
  6 25  1  0  0  0
  6 92  1  0  0  0
  6 93  1  0  0  0
  7  8  2  0  0  0
  7 26  1  0  0  0
  7 29  1  0  0  0
  8  9  1  0  0  0
  8 22  1  0  0  0
  9 10  1  0  0  0
  9 27  2  0  0  0
 10 11  2  0  0  0
 10 15  1  0  0  0
 11 12  1  0  0  0
 11 94  1  0  0  0
 12 13  2  0  0  0
 12 95  1  0  0  0
 13 14  1  0  0  0
 13 31  1  0  0  0
 14 15  2  0  0  0
 14 96  1  0  0  0
 15 97  1  0  0  0
 16 17  2  0  0  0
 16 21  1  0  0  0
 16 31  1  0  0  0
 17 18  1  0  0  0
 17 98  1  0  0  0
 18 19  2  0  0  0
 18 99  1  0  0  0
 19 20  1  0  0  0
 19 24  1  0  0  0
 20 21  2  0  0  0
 20100  1  0  0  0
 21 23  1  0  0  0
 22 28  1  0  0  0
 22 32  2  0  0  0
 26 27  1  0  0  0
 28101  1  0  0  0
 28102  1  0  0  0
 29103  1  0  0  0
 29104  1  0  0  0
 33 34  1  0  0  0
 33 66  1  0  0  0
 33 70  2  0  0  0
 34 36  1  0  0  0
 34 59  1  0  0  0
 34105  1  0  0  0
 35 44  2  0  0  0
 35 45  1  0  0  0
 35 68  1  0  0  0
 36 56  1  0  0  0
 36106  1  0  0  0
 37 39  1  0  0  0
 37 47  1  0  0  0
 37 66  1  0  0  0
 37107  1  0  0  0
 38 43  2  0  0  0
 38 46  1  0  0  0
 38 47  1  0  0  0
 39 64  1  0  0  0
 39 67  2  0  0  0
 40 52  1  0  0  0
 40 53  2  0  0  0
 40 58  1  0  0  0
 41108  1  0  0  0
 41109  1  0  0  0
 41110  1  0  0  0
 41 48  1  0  0  0
 42 43  1  0  0  0
 42 66  1  0  0  0
 42111  1  0  0  0
 42112  1  0  0  0
 43 44  1  0  0  0
 44113  1  0  0  0
 45 46  2  0  0  0
 45114  1  0  0  0
 46115  1  0  0  0
 47116  1  0  0  0
 47117  1  0  0  0
 48 56  1  0  0  0
 48 65  1  0  0  0
 48118  1  0  0  0
 49 50  1  0  0  0
 49 53  1  0  0  0
 49 64  1  0  0  0
 49119  1  0  0  0
 50 51  1  0  0  0
 50120  1  0  0  0
 50121  1  0  0  0
 51 52  1  0  0  0
 51122  1  0  0  0
 51123  1  0  0  0
 52124  1  0  0  0
 52125  1  0  0  0
 53 54  1  0  0  0
 54 55  2  0  0  0
 54126  1  0  0  0
 55 57  1  0  0  0
 55127  1  0  0  0
 56 69  2  0  0  0
 57 58  2  0  0  0
 57128  1  0  0  0
 58129  1  0  0  0
 59 60  1  0  0  0
 59 61  1  0  0  0
 59 62  1  0  0  0
 60130  1  0  0  0
 60131  1  0  0  0
 60132  1  0  0  0
 61133  1  0  0  0
 61134  1  0  0  0
 61135  1  0  0  0
 62136  1  0  0  0
 62137  1  0  0  0
 62138  1  0  0  0
 63 65  1  0  0  0
 63139  1  0  0  0
 63140  1  0  0  0
 63141  1  0  0  0
 64142  1  0  0  0
 65143  1  0  0  0
 68 78  1  0  0  0
 71 73  2  0  0  0
 71 75  1  0  0  0
 71144  1  0  0  0
 72 74  1  0  0  0
 72 75  2  0  0  0
 72145  1  0  0  0
 73 76  1  0  0  0
 73146  1  0  0  0
 74 76  2  0  0  0
 74147  1  0  0  0
 75 77  1  0  0  0
 76 78  1  0  0  0
 77 84  1  0  0  0
 77148  1  0  0  0
 77149  1  0  0  0
 78150  1  0  0  0
 78151  1  0  0  0
 79 80  1  0  0  0
 79 81  1  0  0  0
 79152  1  0  0  0
 79153  1  0  0  0
 80 82  1  0  0  0
 80154  1  0  0  0
 80155  1  0  0  0
 81 83  1  0  0  0
 81156  1  0  0  0
 81157  1  0  0  0
 82 84  1  0  0  0
 82158  1  0  0  0
 82159  1  0  0  0
 83160  1  0  0  0
 84161  1  0  0  0
 84162  1  0  0  0
M  CHG  1  84   1
M  ISO  4   1 100  68 101  78 101  83 100
M  END
> <chiral flag>
0

> <version>
0

> <s_m_source_file>
/data/baiqing/PycharmProjects/Reinvent-master-3.2/result/LINK_invent/BTK/process_docking_weight1_custom_product_contain_oxygen_bond_distance_aromatic_linkinvent_7_9_3/rearranged_h_0002.sdf

> <i_m_source_file_index>
1

> <r_mmod_Potential_Energy-OPLS-2005>
-258.098114013672

> <r_mmod_Stretch_Energy-OPLS-2005>
30.8251209259033

> <r_mmod_Bend_Energy-OPLS-2005>
92.1073532104492

> <r_mmod_Torsional_Energy-OPLS-2005>
213.769714355469

> <r_mmod_Improper_Torsional_Energy-OPLS-2005>
6.5607762336731

> <r_mmod_Van_der_Waal_Energy-OPLS-2005>
156.474472045898

> <r_mmod_Electrostatic_Energy-OPLS-2005>
-309.019714355469

> <r_mmod_Solvation_Energy-OPLS-2005>
-459.401794433594

> <b_mmod_Minimization_Converged-OPLS-2005>
0

> <r_mmod_RMS_Derivative-OPLS-2005>
1.19358062744141

$$$$
1
                    3D
 Structure written by MMmdl.
147155  0  0  1  0            999 V2000
  -30.4075  -15.3385   20.3686 C   0  0  0  0  0  0
  -30.4394  -12.8683   19.5103 C   0  0  0  0  0  0
  -29.5353  -12.5855   18.2833 C   0  0  0  0  0  0
  -28.0893  -12.2930   18.7211 C   0  0  0  0  0  0
  -27.6063  -13.2779   19.8137 C   0  0  2  0  0  0
  -28.6417  -13.4868   20.9380 C   0  0  0  0  0  0
  -25.2377  -13.8243   20.5753 C   0  0  0  0  0  0
  -24.1737  -13.0429   20.9269 C   0  0  0  0  0  0
  -24.6398  -11.6928   20.8766 C   0  0  0  0  0  0
  -23.9094  -10.4288   21.0407 C   0  0  0  0  0  0
  -24.3638   -9.4202   21.9186 C   0  0  0  0  0  0
  -23.6304   -8.2241   22.0755 C   0  0  0  0  0  0
  -22.4285   -8.0282   21.3545 C   0  0  0  0  0  0
  -21.9928   -9.0257   20.4645 C   0  0  0  0  0  0
  -22.7265  -10.2131   20.3055 C   0  0  0  0  0  0
  -21.6855   -6.0738   22.5279 C   0  0  0  0  0  0
  -21.4016   -6.5641   23.8213 C   0  0  0  0  0  0
  -21.3660   -5.6793   24.9174 C   0  0  0  0  0  0
  -21.6044   -4.3056   24.7225 C   0  0  0  0  0  0
  -21.8819   -3.8148   23.4346 C   0  0  0  0  0  0
  -21.9193   -4.6965   22.3402 C   0  0  0  0  0  0
  -22.7753  -13.5180   21.1913 C   0  0  0  0  0  0
  -22.1661   -4.2151   21.0979 F   0  0  0  0  0  0
  -21.5628   -3.4539   25.7737 F   0  0  0  0  0  0
  -29.8534  -14.0220   20.2918 N   0  0  0  0  0  0
  -26.2801  -12.9521   20.3202 N   0  0  0  0  0  0
  -25.9334  -11.6624   20.5711 N   0  0  0  0  0  0
  -22.0412  -12.8161   22.0465 N   0  0  0  0  0  0
  -25.3993  -15.1980   20.4188 N   0  0  0  0  0  0
  -31.6420  -15.3254   20.2462 O   0  0  0  0  0  0
  -21.6644   -6.8882   21.4242 O   0  0  0  0  0  0
  -22.3433  -14.5481   20.6751 O   0  0  0  0  0  0
  -24.6676  -31.8193   23.1665 C   0  0  0  0  0  0
  -25.9335  -32.4567   23.8148 C   0  0  1  0  0  0
  -27.2191  -26.8807   20.2005 C   0  0  0  0  0  0
  -25.5984  -33.8383   24.2051 N   0  0  0  0  0  0
  -23.4844  -30.4287   21.5177 C   0  0  2  0  0  0
  -24.9377  -28.8020   20.1222 C   0  0  0  0  0  0
  -22.7687  -29.4421   22.4778 C   0  0  0  0  0  0
  -18.0326  -28.1411   22.8465 C   0  0  0  0  0  0
  -24.1494  -36.7197   23.2648 C   0  0  0  0  0  0
  -26.0566  -30.6118   21.4026 C   0  0  0  0  0  0
  -26.1252  -29.1943   20.7534 C   0  0  0  0  0  0
  -27.2630  -28.2590   20.7592 C   0  0  0  0  0  0
  -25.9986  -26.6489   19.5275 C   0  0  0  0  0  0
  -24.9018  -27.5500   19.4879 C   0  0  0  0  0  0
  -23.7278  -29.7379   20.1478 C   0  0  0  0  0  0
  -25.4137  -36.2954   24.0296 C   0  0  1  0  0  0
  -20.5953  -28.3760   23.1180 C   0  0  2  0  0  0
  -20.6801  -26.9438   22.5402 C   0  0  0  0  0  0
  -19.5775  -26.6377   21.5215 C   0  0  0  0  0  0
  -18.1957  -26.7943   22.1622 C   0  0  0  0  0  0
  -19.1588  -28.8907   23.2808 C   0  0  0  0  0  0
  -18.9497  -30.1496   23.8845 C   0  0  0  0  0  0
  -17.6489  -30.6599   24.0554 C   0  0  0  0  0  0
  -25.9105  -34.9339   23.4997 C   0  0  0  0  0  0
  -16.5379  -29.9085   23.6345 C   0  0  0  0  0  0
  -16.7307  -28.6506   23.0363 C   0  0  0  0  0  0
  -26.4569  -31.6528   25.0695 C   0  0  0  0  0  0
  -25.3682  -31.3791   26.1341 C   0  0  0  0  0  0
  -27.0475  -30.2890   24.6459 C   0  0  0  0  0  0
  -27.6050  -32.4348   25.7505 C   0  0  0  0  0  0
  -27.5568  -37.1756   24.8467 C   0  0  0  0  0  0
  -21.4353  -29.3043   22.3525 N   0  0  0  0  0  0
  -26.4278  -37.3695   23.9408 N   0  0  0  0  0  0
  -24.7582  -30.9814   22.0825 N   0  0  0  0  0  0
  -23.4213  -28.7999   23.3043 O   0  0  0  0  0  0
  -28.2246  -25.7619   20.1857 O   0  0  0  0  0  0
  -26.5721  -34.8883   22.4598 O   0  0  0  0  0  0
  -23.5734  -32.1182   23.6731 O   0  0  0  0  0  0
  -28.9453  -21.1695   17.9988 C   0  0  0  0  0  0
  -29.2196  -19.9454   18.6761 C   0  0  0  0  0  0
  -28.6601  -22.4175   18.6269 C   0  0  0  0  0  0
  -28.9239  -21.2205   20.7003 C   0  0  0  0  0  0
  -29.2567  -19.8277   20.0822 C   0  0  0  0  0  0
  -28.6045  -22.5905   20.0271 C   0  0  0  0  0  0
  -29.8038  -18.2707   20.7308 C   0  0  0  0  0  0
  -28.0097  -24.1588   20.6024 C   0  0  0  0  0  0
  -29.6295  -16.6212   20.3858 N   0  0  0  0  0  0
  -31.4482  -13.0988   19.1653 H   0  0  0  0  0  0
  -30.5387  -11.9797   20.1359 H   0  0  0  0  0  0
  -29.9296  -11.7509   17.7022 H   0  0  0  0  0  0
  -29.5454  -13.4526   17.6211 H   0  0  0  0  0  0
  -28.0631  -11.2750   19.1117 H   0  0  0  0  0  0
  -27.4172  -12.3093   17.8623 H   0  0  0  0  0  0
  -27.5076  -14.2341   19.2984 H   0  0  0  0  0  0
  -28.8363  -12.5627   21.4844 H   0  0  0  0  0  0
  -28.2690  -14.2079   21.6672 H   0  0  0  0  0  0
  -25.2779   -9.5677   22.4767 H   0  0  0  0  0  0
  -24.0008   -7.4632   22.7477 H   0  0  0  0  0  0
  -21.0859   -8.8781   19.8951 H   0  0  0  0  0  0
  -22.3724  -10.9673   19.6167 H   0  0  0  0  0  0
  -21.2010   -7.6149   23.9716 H   0  0  0  0  0  0
  -21.1482   -6.0523   25.9077 H   0  0  0  0  0  0
  -22.0597   -2.7610   23.2845 H   0  0  0  0  0  0
  -22.4047  -11.9832   22.4857 H   0  0  0  0  0  0
  -21.1022  -13.1164   22.2666 H   0  0  0  0  0  0
  -24.6265  -15.8451   20.5329 H   0  0  0  0  0  0
  -26.2357  -15.6418   20.0643 H   0  0  0  0  0  0
  -26.7408  -32.5095   23.0864 H   0  0  0  0  0  0
  -25.0072  -33.9453   25.0163 H   0  0  0  0  0  0
  -22.8002  -31.2613   21.3415 H   0  0  0  0  0  0
  -23.3771  -35.9511   23.3272 H   0  0  0  0  0  0
  -24.3570  -36.8885   22.2070 H   0  0  0  0  0  0
  -23.7237  -37.6366   23.6734 H   0  0  0  0  0  0
  -26.2389  -31.3476   20.6182 H   0  0  0  0  0  0
  -26.9157  -30.6743   22.0585 H   0  0  0  0  0  0
  -28.1689  -28.5669   21.2622 H   0  0  0  0  0  0
  -25.8699  -25.6954   19.0348 H   0  0  0  0  0  0
  -24.0014  -27.2428   18.9738 H   0  0  0  0  0  0
  -23.8906  -30.5027   19.3876 H   0  0  0  0  0  0
  -22.8360  -29.1960   19.8281 H   0  0  0  0  0  0
  -25.1338  -36.1743   25.0787 H   0  0  0  0  0  0
  -21.0037  -28.3369   24.1305 H   0  0  0  0  0  0
  -20.5680  -26.2380   23.3646 H   0  0  0  0  0  0
  -21.6664  -26.7409   22.1210 H   0  0  0  0  0  0
  -19.6934  -25.6274   21.1279 H   0  0  0  0  0  0
  -19.6713  -27.3158   20.6722 H   0  0  0  0  0  0
  -17.4226  -26.6685   21.4027 H   0  0  0  0  0  0
  -18.0352  -26.0099   22.9032 H   0  0  0  0  0  0
  -19.7972  -30.7327   24.2191 H   0  0  0  0  0  0
  -17.5039  -31.6274   24.5166 H   0  0  0  0  0  0
  -15.5377  -30.2969   23.7699 H   0  0  0  0  0  0
  -15.8708  -28.0806   22.7109 H   0  0  0  0  0  0
  -24.5883  -30.7122   25.7647 H   0  0  0  0  0  0
  -24.8852  -32.2996   26.4628 H   0  0  0  0  0  0
  -25.7902  -30.9048   27.0211 H   0  0  0  0  0  0
  -26.3154  -29.6552   24.1444 H   0  0  0  0  0  0
  -27.3969  -29.7271   25.5132 H   0  0  0  0  0  0
  -27.9108  -30.4062   23.9907 H   0  0  0  0  0  0
  -27.2610  -33.3698   26.1940 H   0  0  0  0  0  0
  -28.3937  -32.6831   25.0390 H   0  0  0  0  0  0
  -28.0634  -31.8571   26.5540 H   0  0  0  0  0  0
  -28.2565  -38.0071   24.7512 H   0  0  0  0  0  0
  -28.1085  -36.2596   24.6297 H   0  0  0  0  0  0
  -27.2284  -37.1400   25.8869 H   0  0  0  0  0  0
  -20.9620  -29.8722   21.6636 H   0  0  0  0  0  0
  -26.0121  -38.2751   24.1416 H   0  0  0  0  0  0
  -28.9516  -21.1496   16.9175 H   0  0  0  0  0  0
  -29.4437  -19.0700   18.0814 H   0  0  0  0  0  0
  -28.4390  -23.2690   17.9978 H   0  0  0  0  0  0
  -28.9082  -21.2402   21.7811 H   0  0  0  0  0  0
  -29.5077  -18.3294   21.7784 H   0  0  0  0  0  0
  -30.8867  -18.3942   20.7676 H   0  0  0  0  0  0
  -28.2486  -24.1429   21.6657 H   0  0  0  0  0  0
  -26.9275  -24.0300   20.5824 H   0  0  0  0  0  0
  -28.6486  -16.3991   20.3052 H   0  0  0  0  0  0
  1 25  1  0  0  0
  1 30  2  0  0  0
  1 79  1  0  0  0
  2  3  1  0  0  0
  2 25  1  0  0  0
  2 80  1  0  0  0
  2 81  1  0  0  0
  3  4  1  0  0  0
  3 82  1  0  0  0
  3 83  1  0  0  0
  4  5  1  0  0  0
  4 84  1  0  0  0
  4 85  1  0  0  0
  5  6  1  0  0  0
  5 26  1  0  0  0
  5 86  1  0  0  0
  6 25  1  0  0  0
  6 87  1  0  0  0
  6 88  1  0  0  0
  7  8  2  0  0  0
  7 26  1  0  0  0
  7 29  1  0  0  0
  8  9  1  0  0  0
  8 22  1  0  0  0
  9 10  1  0  0  0
  9 27  2  0  0  0
 10 11  2  0  0  0
 10 15  1  0  0  0
 11 12  1  0  0  0
 11 89  1  0  0  0
 12 13  2  0  0  0
 12 90  1  0  0  0
 13 14  1  0  0  0
 13 31  1  0  0  0
 14 15  2  0  0  0
 14 91  1  0  0  0
 15 92  1  0  0  0
 16 17  2  0  0  0
 16 21  1  0  0  0
 16 31  1  0  0  0
 17 18  1  0  0  0
 17 93  1  0  0  0
 18 19  2  0  0  0
 18 94  1  0  0  0
 19 20  1  0  0  0
 19 24  1  0  0  0
 20 21  2  0  0  0
 20 95  1  0  0  0
 21 23  1  0  0  0
 22 28  1  0  0  0
 22 32  2  0  0  0
 26 27  1  0  0  0
 28 96  1  0  0  0
 28 97  1  0  0  0
 29 98  1  0  0  0
 29 99  1  0  0  0
 33 34  1  0  0  0
 33 66  1  0  0  0
 33 70  2  0  0  0
 34 36  1  0  0  0
 34 59  1  0  0  0
 34100  1  0  0  0
 35 44  2  0  0  0
 35 45  1  0  0  0
 35 68  1  0  0  0
 36 56  1  0  0  0
 36101  1  0  0  0
 37 39  1  0  0  0
 37 47  1  0  0  0
 37 66  1  0  0  0
 37102  1  0  0  0
 38 43  2  0  0  0
 38 46  1  0  0  0
 38 47  1  0  0  0
 39 64  1  0  0  0
 39 67  2  0  0  0
 40 52  1  0  0  0
 40 53  2  0  0  0
 40 58  1  0  0  0
 41103  1  0  0  0
 41104  1  0  0  0
 41105  1  0  0  0
 41 48  1  0  0  0
 42 43  1  0  0  0
 42 66  1  0  0  0
 42106  1  0  0  0
 42107  1  0  0  0
 43 44  1  0  0  0
 44108  1  0  0  0
 45 46  2  0  0  0
 45109  1  0  0  0
 46110  1  0  0  0
 47111  1  0  0  0
 47112  1  0  0  0
 48 56  1  0  0  0
 48 65  1  0  0  0
 48113  1  0  0  0
 49 50  1  0  0  0
 49 53  1  0  0  0
 49 64  1  0  0  0
 49114  1  0  0  0
 50 51  1  0  0  0
 50115  1  0  0  0
 50116  1  0  0  0
 51 52  1  0  0  0
 51117  1  0  0  0
 51118  1  0  0  0
 52119  1  0  0  0
 52120  1  0  0  0
 53 54  1  0  0  0
 54 55  2  0  0  0
 54121  1  0  0  0
 55 57  1  0  0  0
 55122  1  0  0  0
 56 69  2  0  0  0
 57 58  2  0  0  0
 57123  1  0  0  0
 58124  1  0  0  0
 59 60  1  0  0  0
 59 61  1  0  0  0
 59 62  1  0  0  0
 60125  1  0  0  0
 60126  1  0  0  0
 60127  1  0  0  0
 61128  1  0  0  0
 61129  1  0  0  0
 61130  1  0  0  0
 62131  1  0  0  0
 62132  1  0  0  0
 62133  1  0  0  0
 63 65  1  0  0  0
 63134  1  0  0  0
 63135  1  0  0  0
 63136  1  0  0  0
 64137  1  0  0  0
 65138  1  0  0  0
 68 78  1  0  0  0
 71 72  2  0  0  0
 71 73  1  0  0  0
 71139  1  0  0  0
 72 75  1  0  0  0
 72140  1  0  0  0
 73 76  2  0  0  0
 73141  1  0  0  0
 74 75  2  0  0  0
 74 76  1  0  0  0
 74142  1  0  0  0
 75 77  1  0  0  0
 76 78  1  0  0  0
 77 79  1  0  0  0
 77143  1  0  0  0
 77144  1  0  0  0
 78145  1  0  0  0
 78146  1  0  0  0
 79147  1  0  0  0
M  ISO  4   1 100  68 101  78 101  79 100
M  END
> <chiral flag>
0

> <version>
0

> <s_m_source_file>
/data/baiqing/PycharmProjects/Reinvent-master-3.2/result/LINK_invent/BTK/process_docking_weight1_custom_product_contain_oxygen_bond_distance_aromatic_linkinvent_7_9_3/rearranged_h_0002.sdf

> <i_m_source_file_index>
2

> <r_mmod_Potential_Energy-OPLS-2005>
1401.74060058594

> <r_mmod_Stretch_Energy-OPLS-2005>
643.052795410156

> <r_mmod_Bend_Energy-OPLS-2005>
451.203063964844

> <r_mmod_Torsional_Energy-OPLS-2005>
238.437026977539

> <r_mmod_Improper_Torsional_Energy-OPLS-2005>
6.01917123794556

> <r_mmod_Van_der_Waal_Energy-OPLS-2005>
122.058601379395

> <r_mmod_Electrostatic_Energy-OPLS-2005>
-377.779266357422

> <r_mmod_Solvation_Energy-OPLS-2005>
-214.792663574219

> <b_mmod_Minimization_Converged-OPLS-2005>
1

> <r_mmod_RMS_Derivative-OPLS-2005>
0.046136412769556

$$$$
2
                    3D
 Structure written by MMmdl.
166174  0  0  1  0            999 V2000
  -30.5441  -14.9284   20.3944 C   0  0  0  0  0  0
  -30.4275  -12.5655   19.5108 C   0  0  0  0  0  0
  -29.5111  -12.5062   18.2677 C   0  0  0  0  0  0
  -28.0503  -12.2841   18.6963 C   0  0  0  0  0  0
  -27.6233  -13.2386   19.8410 C   0  0  2  0  0  0
  -28.6622  -13.2814   20.9806 C   0  0  0  0  0  0
  -25.2423  -13.8188   20.5689 C   0  0  0  0  0  0
  -24.1738  -13.0421   20.9242 C   0  0  0  0  0  0
  -24.6314  -11.6901   20.8790 C   0  0  0  0  0  0
  -23.9002  -10.4285   21.0461 C   0  0  0  0  0  0
  -24.3576   -9.4186   21.9214 C   0  0  0  0  0  0
  -23.6254   -8.2207   22.0763 C   0  0  0  0  0  0
  -22.4242   -8.0256   21.3538 C   0  0  0  0  0  0
  -21.9865   -9.0239   20.4652 C   0  0  0  0  0  0
  -22.7197  -10.2123   20.3081 C   0  0  0  0  0  0
  -21.6828   -6.0721   22.5287 C   0  0  0  0  0  0
  -21.4040   -6.5640   23.8224 C   0  0  0  0  0  0
  -21.3662   -5.6795   24.9191 C   0  0  0  0  0  0
  -21.6025   -4.3052   24.7249 C   0  0  0  0  0  0
  -21.8815   -3.8143   23.4378 C   0  0  0  0  0  0
  -21.9186   -4.6951   22.3436 C   0  0  0  0  0  0
  -22.7783  -13.5204   21.1884 C   0  0  0  0  0  0
  -22.1645   -4.2127   21.1015 F   0  0  0  0  0  0
  -21.5600   -3.4540   25.7765 F   0  0  0  0  0  0
  -29.9440  -13.6726   20.3835 N   0  0  0  0  0  0
  -26.2817  -12.9384   20.3275 N   0  0  0  0  0  0
  -25.9251  -11.6529   20.5789 N   0  0  0  0  0  0
  -22.0418  -12.8229   22.0461 N   0  0  0  0  0  0
  -25.4112  -15.1922   20.4041 N   0  0  0  0  0  0
  -31.7454  -14.9592   20.1052 O   0  0  0  0  0  0
  -21.6619   -6.8859   21.4237 O   0  0  0  0  0  0
  -22.3467  -14.5515   20.6709 O   0  0  0  0  0  0
  -24.6481  -31.8397   23.1899 C   0  0  0  0  0  0
  -25.9254  -32.4659   23.8270 C   0  0  1  0  0  0
  -27.1795  -27.0832   20.1456 C   0  0  0  0  0  0
  -25.5971  -33.8469   24.2182 N   0  0  0  0  0  0
  -23.4537  -30.4648   21.5356 C   0  0  2  0  0  0
  -24.8948  -28.8947   20.1004 C   0  0  0  0  0  0
  -22.7573  -29.4555   22.4819 C   0  0  0  0  0  0
  -18.0320  -28.1425   22.8466 C   0  0  0  0  0  0
  -24.1485  -36.7244   23.2638 C   0  0  0  0  0  0
  -26.0122  -30.6899   21.4044 C   0  0  0  0  0  0
  -26.0718  -29.2981   20.7445 C   0  0  0  0  0  0
  -27.2125  -28.4016   20.7660 C   0  0  0  0  0  0
  -25.9951  -26.8251   19.4189 C   0  0  0  0  0  0
  -24.8699  -27.6690   19.4250 C   0  0  0  0  0  0
  -23.6796  -29.8061   20.1503 C   0  0  0  0  0  0
  -25.4114  -36.3008   24.0303 C   0  0  1  0  0  0
  -20.5935  -28.3755   23.1200 C   0  0  2  0  0  0
  -20.6798  -26.9459   22.5376 C   0  0  0  0  0  0
  -19.5781  -26.6408   21.5189 C   0  0  0  0  0  0
  -18.1972  -26.7957   22.1616 C   0  0  0  0  0  0
  -19.1577  -28.8909   23.2827 C   0  0  0  0  0  0
  -18.9485  -30.1497   23.8886 C   0  0  0  0  0  0
  -17.6482  -30.6617   24.0573 C   0  0  0  0  0  0
  -25.9061  -34.9376   23.5042 C   0  0  0  0  0  0
  -16.5375  -29.9113   23.6344 C   0  0  0  0  0  0
  -16.7300  -28.6519   23.0377 C   0  0  0  0  0  0
  -26.4573  -31.6552   25.0731 C   0  0  0  0  0  0
  -25.3757  -31.3752   26.1431 C   0  0  0  0  0  0
  -27.0439  -30.2927   24.6358 C   0  0  0  0  0  0
  -27.6120  -32.4312   25.7510 C   0  0  0  0  0  0
  -27.5567  -37.1763   24.8465 C   0  0  0  0  0  0
  -21.4281  -29.3063   22.3564 N   0  0  0  0  0  0
  -26.4287  -37.3716   23.9414 N   0  0  0  0  0  0
  -24.7253  -31.0208   22.0959 N   0  0  0  0  0  0
  -23.4182  -28.8084   23.3001 O   0  0  0  0  0  0
  -28.1521  -26.0056   20.2241 O   0  0  0  0  0  0
  -26.5658  -34.8890   22.4630 O   0  0  0  0  0  0
  -23.5587  -32.1328   23.7049 O   0  0  0  0  0  0
  -32.5771  -18.1814   19.5628 C   0  0  0  0  0  0
  -31.4099  -17.9478   19.8431 C   0  0  0  0  0  0
  -28.4274  -21.7555   20.3783 C   0  0  0  0  0  0
  -30.1391  -23.4731   20.3750 C   0  0  0  0  0  0
  -30.7199  -21.0721   20.5638 C   0  0  0  0  0  0
  -28.7600  -23.2155   20.3469 C   0  0  0  0  0  0
  -29.3856  -20.6170   20.4701 C   0  0  0  0  0  0
  -31.1100  -22.4426   20.4937 C   0  0  0  0  0  0
  -27.7489  -24.4777   20.3446 C   0  0  0  0  0  0
  -27.5970  -18.7017   20.3955 C   0  0  0  0  0  0
  -32.7603  -23.7197   21.8725 C   0  0  0  0  0  0
  -32.9964  -23.6670   19.3549 C   0  0  0  0  0  0
  -33.5610  -21.6628   20.6966 C   0  0  0  0  0  0
  -29.9827  -17.6426   20.0586 C   0  0  2  0  0  0
  -29.0890  -18.9758   20.6614 C   0  0  1  0  0  0
  -32.5887  -22.8605   20.6030 C   0  0  0  0  0  0
  -29.7736  -16.1231   20.5066 N   0  0  0  0  0  0
  -26.5580  -24.1847   20.4788 O   0  0  0  0  0  0
  -31.4610  -12.7058   19.1929 H   0  0  0  0  0  0
  -30.4038  -11.6161   20.0496 H   0  0  0  0  0  0
  -29.8281  -11.7090   17.5966 H   0  0  0  0  0  0
  -29.5889  -13.4413   17.7097 H   0  0  0  0  0  0
  -27.9663  -11.2493   19.0318 H   0  0  0  0  0  0
  -27.3779  -12.3789   17.8454 H   0  0  0  0  0  0
  -27.5812  -14.2320   19.3932 H   0  0  0  0  0  0
  -28.7417  -12.3101   21.4692 H   0  0  0  0  0  0
  -28.3591  -13.9878   21.7552 H   0  0  0  0  0  0
  -25.2704   -9.5627   22.4805 H   0  0  0  0  0  0
  -23.9934   -7.4592   22.7480 H   0  0  0  0  0  0
  -21.0785   -8.8759   19.8989 H   0  0  0  0  0  0
  -22.3637  -10.9657   19.6207 H   0  0  0  0  0  0
  -21.2061   -7.6141   23.9728 H   0  0  0  0  0  0
  -21.1480   -6.0533   25.9088 H   0  0  0  0  0  0
  -22.0587   -2.7590   23.2912 H   0  0  0  0  0  0
  -22.4001  -11.9892   22.4870 H   0  0  0  0  0  0
  -21.1047  -13.1302   22.2659 H   0  0  0  0  0  0
  -24.6282  -15.8330   20.4871 H   0  0  0  0  0  0
  -26.2315  -15.6175   19.9953 H   0  0  0  0  0  0
  -26.7313  -32.5243   23.0995 H   0  0  0  0  0  0
  -25.0092  -33.9563   25.0307 H   0  0  0  0  0  0
  -22.7591  -31.2934   21.3835 H   0  0  0  0  0  0
  -23.3735  -35.9589   23.3297 H   0  0  0  0  0  0
  -24.3554  -36.8875   22.2048 H   0  0  0  0  0  0
  -23.7259  -37.6444   23.6684 H   0  0  0  0  0  0
  -26.1800  -31.4387   20.6304 H   0  0  0  0  0  0
  -26.8780  -30.7381   22.0519 H   0  0  0  0  0  0
  -28.0964  -28.6825   21.3207 H   0  0  0  0  0  0
  -25.8983  -25.9074   18.8595 H   0  0  0  0  0  0
  -23.9796  -27.3654   18.8911 H   0  0  0  0  0  0
  -23.8284  -30.5869   19.4034 H   0  0  0  0  0  0
  -22.7900  -29.2583   19.8335 H   0  0  0  0  0  0
  -25.1303  -36.1828   25.0789 H   0  0  0  0  0  0
  -21.0039  -28.3372   24.1319 H   0  0  0  0  0  0
  -20.5708  -26.2380   23.3598 H   0  0  0  0  0  0
  -21.6663  -26.7465   22.1179 H   0  0  0  0  0  0
  -19.6952  -25.6310   21.1261 H   0  0  0  0  0  0
  -19.6742  -27.3179   20.6690 H   0  0  0  0  0  0
  -17.4227  -26.6678   21.4046 H   0  0  0  0  0  0
  -18.0414  -26.0125   22.9041 H   0  0  0  0  0  0
  -19.7956  -30.7316   24.2261 H   0  0  0  0  0  0
  -17.5032  -31.6294   24.5184 H   0  0  0  0  0  0
  -15.5384  -30.3013   23.7668 H   0  0  0  0  0  0
  -15.8692  -28.0823   22.7127 H   0  0  0  0  0  0
  -24.5928  -30.7122   25.7749 H   0  0  0  0  0  0
  -24.8970  -32.2927   26.4841 H   0  0  0  0  0  0
  -25.8015  -30.8925   27.0236 H   0  0  0  0  0  0
  -26.3061  -29.6641   24.1361 H   0  0  0  0  0  0
  -27.4017  -29.7250   25.4960 H   0  0  0  0  0  0
  -27.9000  -30.4141   23.9725 H   0  0  0  0  0  0
  -27.2754  -33.3658   26.2021 H   0  0  0  0  0  0
  -28.3973  -32.6787   25.0356 H   0  0  0  0  0  0
  -28.0772  -31.8487   26.5479 H   0  0  0  0  0  0
  -28.2569  -38.0068   24.7484 H   0  0  0  0  0  0
  -28.1074  -36.2582   24.6333 H   0  0  0  0  0  0
  -27.2276  -37.1456   25.8868 H   0  0  0  0  0  0
  -20.9502  -29.8748   21.6708 H   0  0  0  0  0  0
  -26.0142  -38.2780   24.1430 H   0  0  0  0  0  0
  -33.5887  -18.3992   19.2929 H   0  0  0  0  0  0
  -27.3760  -21.5069   20.3688 H   0  0  0  0  0  0
  -30.4543  -24.5055   20.3541 H   0  0  0  0  0  0
  -31.4730  -20.3347   20.7414 H   0  0  0  0  0  0
  -26.9612  -19.2348   21.1037 H   0  0  0  0  0  0
  -27.3527  -17.6440   20.4967 H   0  0  0  0  0  0
  -27.3108  -19.0079   19.3877 H   0  0  0  0  0  0
  -32.2144  -24.6631   21.8189 H   0  0  0  0  0  0
  -33.8039  -23.9713   22.0579 H   0  0  0  0  0  0
  -32.3903  -23.1853   22.7493 H   0  0  0  0  0  0
  -32.4232  -24.5856   19.2440 H   0  0  0  0  0  0
  -32.8525  -23.0806   18.4477 H   0  0  0  0  0  0
  -34.0458  -23.9570   19.3906 H   0  0  0  0  0  0
  -33.3926  -21.0687   21.5956 H   0  0  0  0  0  0
  -34.5987  -21.9927   20.7216 H   0  0  0  0  0  0
  -33.4626  -21.0064   19.8324 H   0  0  0  0  0  0
  -29.6578  -17.5841   19.0166 H   0  0  0  0  0  0
  -29.2102  -18.8661   21.7398 H   0  0  0  0  0  0
  -28.8297  -15.9318   20.8055 H   0  0  0  0  0  0
  1 25  1  0  0  0
  1 30  2  0  0  0
  1 87  1  0  0  0
  2  3  1  0  0  0
  2 25  1  0  0  0
  2 89  1  0  0  0
  2 90  1  0  0  0
  3  4  1  0  0  0
  3 91  1  0  0  0
  3 92  1  0  0  0
  4  5  1  0  0  0
  4 93  1  0  0  0
  4 94  1  0  0  0
  5  6  1  0  0  0
  5 26  1  0  0  0
  5 95  1  0  0  0
  6 25  1  0  0  0
  6 96  1  0  0  0
  6 97  1  0  0  0
  7  8  2  0  0  0
  7 26  1  0  0  0
  7 29  1  0  0  0
  8  9  1  0  0  0
  8 22  1  0  0  0
  9 10  1  0  0  0
  9 27  2  0  0  0
 10 11  2  0  0  0
 10 15  1  0  0  0
 11 12  1  0  0  0
 11 98  1  0  0  0
 12 13  2  0  0  0
 12 99  1  0  0  0
 13 14  1  0  0  0
 13 31  1  0  0  0
 14 15  2  0  0  0
 14100  1  0  0  0
 15101  1  0  0  0
 16 17  2  0  0  0
 16 21  1  0  0  0
 16 31  1  0  0  0
 17 18  1  0  0  0
 17102  1  0  0  0
 18 19  2  0  0  0
 18103  1  0  0  0
 19 20  1  0  0  0
 19 24  1  0  0  0
 20 21  2  0  0  0
 20104  1  0  0  0
 21 23  1  0  0  0
 22 28  1  0  0  0
 22 32  2  0  0  0
 26 27  1  0  0  0
 28105  1  0  0  0
 28106  1  0  0  0
 29107  1  0  0  0
 29108  1  0  0  0
 33 34  1  0  0  0
 33 66  1  0  0  0
 33 70  2  0  0  0
 34 36  1  0  0  0
 34 59  1  0  0  0
 34109  1  0  0  0
 35 44  2  0  0  0
 35 45  1  0  0  0
 35 68  1  0  0  0
 36 56  1  0  0  0
 36110  1  0  0  0
 37 39  1  0  0  0
 37 47  1  0  0  0
 37 66  1  0  0  0
 37111  1  0  0  0
 38 43  2  0  0  0
 38 46  1  0  0  0
 38 47  1  0  0  0
 39 64  1  0  0  0
 39 67  2  0  0  0
 40 52  1  0  0  0
 40 53  2  0  0  0
 40 58  1  0  0  0
 41112  1  0  0  0
 41113  1  0  0  0
 41114  1  0  0  0
 41 48  1  0  0  0
 42 43  1  0  0  0
 42 66  1  0  0  0
 42115  1  0  0  0
 42116  1  0  0  0
 43 44  1  0  0  0
 44117  1  0  0  0
 45 46  2  0  0  0
 45118  1  0  0  0
 46119  1  0  0  0
 47120  1  0  0  0
 47121  1  0  0  0
 48 56  1  0  0  0
 48 65  1  0  0  0
 48122  1  0  0  0
 49 50  1  0  0  0
 49 53  1  0  0  0
 49 64  1  0  0  0
 49123  1  0  0  0
 50 51  1  0  0  0
 50124  1  0  0  0
 50125  1  0  0  0
 51 52  1  0  0  0
 51126  1  0  0  0
 51127  1  0  0  0
 52128  1  0  0  0
 52129  1  0  0  0
 53 54  1  0  0  0
 54 55  2  0  0  0
 54130  1  0  0  0
 55 57  1  0  0  0
 55131  1  0  0  0
 56 69  2  0  0  0
 57 58  2  0  0  0
 57132  1  0  0  0
 58133  1  0  0  0
 59 60  1  0  0  0
 59 61  1  0  0  0
 59 62  1  0  0  0
 60134  1  0  0  0
 60135  1  0  0  0
 60136  1  0  0  0
 61137  1  0  0  0
 61138  1  0  0  0
 61139  1  0  0  0
 62140  1  0  0  0
 62141  1  0  0  0
 62142  1  0  0  0
 63 65  1  0  0  0
 63143  1  0  0  0
 63144  1  0  0  0
 63145  1  0  0  0
 64146  1  0  0  0
 65147  1  0  0  0
 68 79  1  0  0  0
 71 72  3  0  0  0
 71148  1  0  0  0
 72 84  1  0  0  0
 73 76  2  0  0  0
 73 77  1  0  0  0
 73149  1  0  0  0
 74 76  1  0  0  0
 74 78  2  0  0  0
 74150  1  0  0  0
 75 77  2  0  0  0
 75 78  1  0  0  0
 75151  1  0  0  0
 76 79  1  0  0  0
 77 85  1  0  0  0
 78 86  1  0  0  0
 79 88  2  0  0  0
 80152  1  0  0  0
 80153  1  0  0  0
 80154  1  0  0  0
 80 85  1  0  0  0
 81155  1  0  0  0
 81156  1  0  0  0
 81157  1  0  0  0
 81 86  1  0  0  0
 82 86  1  0  0  0
 82158  1  0  0  0
 82159  1  0  0  0
 82160  1  0  0  0
 83 86  1  0  0  0
 83161  1  0  0  0
 83162  1  0  0  0
 83163  1  0  0  0
 84 85  1  0  0  0
 84 87  1  0  0  0
 84164  1  0  0  0
 85165  1  0  0  0
 87166  1  0  0  0
M  ISO  4   1 100  68 101  79 101  87 100
M  END
> <chiral flag>
0

> <version>
0

> <s_m_source_file>
/data/baiqing/PycharmProjects/Reinvent-master-3.2/result/LINK_invent/BTK/process_docking_weight1_custom_product_contain_oxygen_bond_distance_aromatic_linkinvent_7_9_3/rearranged_h_0002.sdf

> <i_m_source_file_index>
3

> <r_mmod_Potential_Energy-OPLS-2005>
570.445861816406

> <r_mmod_Stretch_Energy-OPLS-2005>
317.811248779297

> <r_mmod_Bend_Energy-OPLS-2005>
270.977172851562

> <r_mmod_Torsional_Energy-OPLS-2005>
220.126281738281

> <r_mmod_Improper_Torsional_Energy-OPLS-2005>
6.66650533676147

> <r_mmod_Van_der_Waal_Energy-OPLS-2005>
151.324966430664

> <r_mmod_Electrostatic_Energy-OPLS-2005>
-412.237518310547

> <r_mmod_Solvation_Energy-OPLS-2005>
-207.303726196289

> <b_mmod_Minimization_Converged-OPLS-2005>
0

> <r_mmod_RMS_Derivative-OPLS-2005>
5.41187763214111

$$$$
3
                    3D
 Structure written by MMmdl.
146154  0  0  1  0            999 V2000
  -30.4831  -15.1826   20.3850 C   0  0  0  0  0  0
  -30.4364  -12.7514   19.5216 C   0  0  0  0  0  0
  -29.5297  -12.5600   18.2811 C   0  0  0  0  0  0
  -28.0767  -12.2956   18.7113 C   0  0  0  0  0  0
  -27.6147  -13.2687   19.8250 C   0  0  2  0  0  0
  -28.6507  -13.4188   20.9601 C   0  0  0  0  0  0
  -25.2399  -13.8238   20.5739 C   0  0  0  0  0  0
  -24.1746  -13.0434   20.9251 C   0  0  0  0  0  0
  -24.6394  -11.6928   20.8760 C   0  0  0  0  0  0
  -23.9088  -10.4287   21.0403 C   0  0  0  0  0  0
  -24.3634   -9.4200   21.9179 C   0  0  0  0  0  0
  -23.6301   -8.2238   22.0753 C   0  0  0  0  0  0
  -22.4283   -8.0276   21.3543 C   0  0  0  0  0  0
  -21.9920   -9.0252   20.4646 C   0  0  0  0  0  0
  -22.7258  -10.2127   20.3053 C   0  0  0  0  0  0
  -21.6855   -6.0733   22.5279 C   0  0  0  0  0  0
  -21.4019   -6.5641   23.8211 C   0  0  0  0  0  0
  -21.3660   -5.6795   24.9174 C   0  0  0  0  0  0
  -21.6041   -4.3057   24.7227 C   0  0  0  0  0  0
  -21.8817   -3.8147   23.4351 C   0  0  0  0  0  0
  -21.9192   -4.6960   22.3405 C   0  0  0  0  0  0
  -22.7762  -13.5180   21.1906 C   0  0  0  0  0  0
  -22.1659   -4.2145   21.0982 F   0  0  0  0  0  0
  -21.5626   -3.4543   25.7743 F   0  0  0  0  0  0
  -29.8955  -13.8944   20.3383 N   0  0  0  0  0  0
  -26.2827  -12.9506   20.3225 N   0  0  0  0  0  0
  -25.9330  -11.6617   20.5729 N   0  0  0  0  0  0
  -22.0434  -12.8156   22.0468 N   0  0  0  0  0  0
  -25.4030  -15.1972   20.4166 N   0  0  0  0  0  0
  -31.7004  -15.1794   20.1598 O   0  0  0  0  0  0
  -21.6644   -6.8877   21.4241 O   0  0  0  0  0  0
  -22.3433  -14.5479   20.6748 O   0  0  0  0  0  0
  -24.6595  -31.8293   23.1777 C   0  0  0  0  0  0
  -25.9302  -32.4617   23.8213 C   0  0  1  0  0  0
  -27.2077  -26.9694   20.1758 C   0  0  0  0  0  0
  -25.5986  -33.8431   24.2113 N   0  0  0  0  0  0
  -23.4718  -30.4468   21.5253 C   0  0  2  0  0  0
  -24.9249  -28.8501   20.1105 C   0  0  0  0  0  0
  -22.7648  -29.4474   22.4783 C   0  0  0  0  0  0
  -18.0318  -28.1413   22.8465 C   0  0  0  0  0  0
  -24.1486  -36.7224   23.2643 C   0  0  0  0  0  0
  -26.0405  -30.6471   21.4069 C   0  0  0  0  0  0
  -26.1074  -29.2417   20.7523 C   0  0  0  0  0  0
  -27.2449  -28.3188   20.7727 C   0  0  0  0  0  0
  -26.0065  -26.7420   19.4635 C   0  0  0  0  0  0
  -24.8962  -27.6167   19.4480 C   0  0  0  0  0  0
  -23.7112  -29.7741   20.1476 C   0  0  0  0  0  0
  -25.4121  -36.2980   24.0305 C   0  0  1  0  0  0
  -20.5943  -28.3754   23.1181 C   0  0  2  0  0  0
  -20.6794  -26.9437   22.5389 C   0  0  0  0  0  0
  -19.5765  -26.6380   21.5204 C   0  0  0  0  0  0
  -18.1947  -26.7947   22.1616 C   0  0  0  0  0  0
  -19.1583  -28.8901   23.2815 C   0  0  0  0  0  0
  -18.9501  -30.1489   23.8855 C   0  0  0  0  0  0
  -17.6499  -30.6604   24.0558 C   0  0  0  0  0  0
  -25.9091  -34.9365   23.5020 C   0  0  0  0  0  0
  -16.5386  -29.9097   23.6343 C   0  0  0  0  0  0
  -16.7303  -28.6515   23.0364 C   0  0  0  0  0  0
  -26.4565  -31.6552   25.0727 C   0  0  0  0  0  0
  -25.3701  -31.3798   26.1389 C   0  0  0  0  0  0
  -27.0468  -30.2922   24.6447 C   0  0  0  0  0  0
  -27.6053  -32.4368   25.7529 C   0  0  0  0  0  0
  -27.5574  -37.1748   24.8452 C   0  0  0  0  0  0
  -21.4321  -29.3063   22.3539 N   0  0  0  0  0  0
  -26.4261  -37.3721   23.9429 N   0  0  0  0  0  0
  -24.7447  -31.0001   22.0898 N   0  0  0  0  0  0
  -23.4217  -28.8013   23.2985 O   0  0  0  0  0  0
  -28.1630  -25.8308   20.2346 O   0  0  0  0  0  0
  -26.5689  -34.8894   22.4608 O   0  0  0  0  0  0
  -23.5675  -32.1244   23.6895 O   0  0  0  0  0  0
  -29.8014  -22.2551   20.1126 C   0  0  0  0  0  0
  -27.7067  -21.5018   20.6766 C   0  0  0  0  0  0
  -30.2544  -20.8368   20.1021 C   0  0  0  0  0  0
  -28.1551  -20.0870   20.6661 C   0  0  0  0  0  0
  -28.4622  -22.7321   20.4052 C   0  0  0  0  0  0
  -29.4901  -19.6151   20.3732 C   0  0  0  0  0  0
  -27.7066  -24.2627   20.4893 C   0  0  0  0  0  0
  -30.2005  -18.0291   20.3499 C   0  0  0  0  0  0
  -29.7497  -16.4539   20.4780 N   0  0  0  0  0  0
  -26.5263  -24.1554   20.8318 O   0  0  0  0  0  0
  -31.4609  -12.9350   19.1951 H   0  0  0  0  0  0
  -30.4786  -11.8370   20.1154 H   0  0  0  0  0  0
  -29.8952  -11.7377   17.6646 H   0  0  0  0  0  0
  -29.5696  -13.4545   17.6572 H   0  0  0  0  0  0
  -28.0282  -11.2707   19.0814 H   0  0  0  0  0  0
  -27.4057  -12.3428   17.8529 H   0  0  0  0  0  0
  -27.5392  -14.2404   19.3359 H   0  0  0  0  0  0
  -28.7975  -12.4799   21.4962 H   0  0  0  0  0  0
  -28.3053  -14.1472   21.6952 H   0  0  0  0  0  0
  -25.2779   -9.5672   22.4755 H   0  0  0  0  0  0
  -24.0006   -7.4631   22.7476 H   0  0  0  0  0  0
  -21.0849   -8.8773   19.8955 H   0  0  0  0  0  0
  -22.3713  -10.9664   19.6163 H   0  0  0  0  0  0
  -21.2018   -7.6150   23.9711 H   0  0  0  0  0  0
  -21.1482   -6.0531   25.9075 H   0  0  0  0  0  0
  -22.0595   -2.7608   23.2856 H   0  0  0  0  0  0
  -22.4085  -11.9828   22.4847 H   0  0  0  0  0  0
  -21.1045  -13.1146   22.2691 H   0  0  0  0  0  0
  -24.6299  -15.8451   20.5245 H   0  0  0  0  0  0
  -26.2422  -15.6392   20.0654 H   0  0  0  0  0  0
  -26.7370  -32.5169   23.0930 H   0  0  0  0  0  0
  -25.0111  -33.9521   25.0246 H   0  0  0  0  0  0
  -22.7829  -31.2782   21.3607 H   0  0  0  0  0  0
  -23.3765  -35.9534   23.3243 H   0  0  0  0  0  0
  -24.3568  -36.8932   22.2068 H   0  0  0  0  0  0
  -23.7225  -37.6390   23.6735 H   0  0  0  0  0  0
  -26.2190  -31.3894   20.6279 H   0  0  0  0  0  0
  -26.9023  -30.7017   22.0598 H   0  0  0  0  0  0
  -28.1357  -28.6103   21.3110 H   0  0  0  0  0  0
  -25.8847  -25.8058   18.9382 H   0  0  0  0  0  0
  -24.0019  -27.3133   18.9212 H   0  0  0  0  0  0
  -23.8695  -30.5487   19.3959 H   0  0  0  0  0  0
  -22.8201  -29.2331   19.8245 H   0  0  0  0  0  0
  -25.1307  -36.1767   25.0793 H   0  0  0  0  0  0
  -21.0042  -28.3363   24.1302 H   0  0  0  0  0  0
  -20.5658  -26.2381   23.3630 H   0  0  0  0  0  0
  -21.6658  -26.7400   22.1206 H   0  0  0  0  0  0
  -19.6919  -25.6273   21.1276 H   0  0  0  0  0  0
  -19.6706  -27.3154   20.6703 H   0  0  0  0  0  0
  -17.4210  -26.6690   21.4025 H   0  0  0  0  0  0
  -18.0346  -26.0099   22.9020 H   0  0  0  0  0  0
  -19.7980  -30.7311   24.2210 H   0  0  0  0  0  0
  -17.5057  -31.6281   24.5169 H   0  0  0  0  0  0
  -15.5390  -30.2997   23.7689 H   0  0  0  0  0  0
  -15.8698  -28.0824   22.7111 H   0  0  0  0  0  0
  -24.5880  -30.7149   25.7705 H   0  0  0  0  0  0
  -24.8894  -32.3003   26.4712 H   0  0  0  0  0  0
  -25.7937  -30.9029   27.0235 H   0  0  0  0  0  0
  -26.3137  -29.6598   24.1430 H   0  0  0  0  0  0
  -27.3987  -29.7284   25.5098 H   0  0  0  0  0  0
  -27.9078  -30.4113   23.9868 H   0  0  0  0  0  0
  -27.2610  -33.3706   26.1989 H   0  0  0  0  0  0
  -28.3927  -32.6883   25.0410 H   0  0  0  0  0  0
  -28.0655  -31.8584   26.5550 H   0  0  0  0  0  0
  -28.2521  -38.0113   24.7577 H   0  0  0  0  0  0
  -28.1140  -36.2646   24.6167 H   0  0  0  0  0  0
  -27.2306  -37.1253   25.8854 H   0  0  0  0  0  0
  -20.9554  -29.8806   21.6725 H   0  0  0  0  0  0
  -26.0105  -38.2761   24.1505 H   0  0  0  0  0  0
  -30.5420  -23.0092   19.8868 H   0  0  0  0  0  0
  -26.6633  -21.6376   20.9266 H   0  0  0  0  0  0
  -31.2993  -20.6883   19.8657 H   0  0  0  0  0  0
  -27.4154  -19.3357   20.9072 H   0  0  0  0  0  0
  -30.9792  -18.1106   21.1092 H   0  0  0  0  0  0
  -30.7611  -18.0352   19.4144 H   0  0  0  0  0  0
  -28.7586  -16.3279   20.6208 H   0  0  0  0  0  0
  1 25  1  0  0  0
  1 30  2  0  0  0
  1 79  1  0  0  0
  2  3  1  0  0  0
  2 25  1  0  0  0
  2 81  1  0  0  0
  2 82  1  0  0  0
  3  4  1  0  0  0
  3 83  1  0  0  0
  3 84  1  0  0  0
  4  5  1  0  0  0
  4 85  1  0  0  0
  4 86  1  0  0  0
  5  6  1  0  0  0
  5 26  1  0  0  0
  5 87  1  0  0  0
  6 25  1  0  0  0
  6 88  1  0  0  0
  6 89  1  0  0  0
  7  8  2  0  0  0
  7 26  1  0  0  0
  7 29  1  0  0  0
  8  9  1  0  0  0
  8 22  1  0  0  0
  9 10  1  0  0  0
  9 27  2  0  0  0
 10 11  2  0  0  0
 10 15  1  0  0  0
 11 12  1  0  0  0
 11 90  1  0  0  0
 12 13  2  0  0  0
 12 91  1  0  0  0
 13 14  1  0  0  0
 13 31  1  0  0  0
 14 15  2  0  0  0
 14 92  1  0  0  0
 15 93  1  0  0  0
 16 17  2  0  0  0
 16 21  1  0  0  0
 16 31  1  0  0  0
 17 18  1  0  0  0
 17 94  1  0  0  0
 18 19  2  0  0  0
 18 95  1  0  0  0
 19 20  1  0  0  0
 19 24  1  0  0  0
 20 21  2  0  0  0
 20 96  1  0  0  0
 21 23  1  0  0  0
 22 28  1  0  0  0
 22 32  2  0  0  0
 26 27  1  0  0  0
 28 97  1  0  0  0
 28 98  1  0  0  0
 29 99  1  0  0  0
 29100  1  0  0  0
 33 34  1  0  0  0
 33 66  1  0  0  0
 33 70  2  0  0  0
 34 36  1  0  0  0
 34 59  1  0  0  0
 34101  1  0  0  0
 35 44  2  0  0  0
 35 45  1  0  0  0
 35 68  1  0  0  0
 36 56  1  0  0  0
 36102  1  0  0  0
 37 39  1  0  0  0
 37 47  1  0  0  0
 37 66  1  0  0  0
 37103  1  0  0  0
 38 43  2  0  0  0
 38 46  1  0  0  0
 38 47  1  0  0  0
 39 64  1  0  0  0
 39 67  2  0  0  0
 40 52  1  0  0  0
 40 53  2  0  0  0
 40 58  1  0  0  0
 41104  1  0  0  0
 41105  1  0  0  0
 41106  1  0  0  0
 41 48  1  0  0  0
 42 43  1  0  0  0
 42 66  1  0  0  0
 42107  1  0  0  0
 42108  1  0  0  0
 43 44  1  0  0  0
 44109  1  0  0  0
 45 46  2  0  0  0
 45110  1  0  0  0
 46111  1  0  0  0
 47112  1  0  0  0
 47113  1  0  0  0
 48 56  1  0  0  0
 48 65  1  0  0  0
 48114  1  0  0  0
 49 50  1  0  0  0
 49 53  1  0  0  0
 49 64  1  0  0  0
 49115  1  0  0  0
 50 51  1  0  0  0
 50116  1  0  0  0
 50117  1  0  0  0
 51 52  1  0  0  0
 51118  1  0  0  0
 51119  1  0  0  0
 52120  1  0  0  0
 52121  1  0  0  0
 53 54  1  0  0  0
 54 55  2  0  0  0
 54122  1  0  0  0
 55 57  1  0  0  0
 55123  1  0  0  0
 56 69  2  0  0  0
 57 58  2  0  0  0
 57124  1  0  0  0
 58125  1  0  0  0
 59 60  1  0  0  0
 59 61  1  0  0  0
 59 62  1  0  0  0
 60126  1  0  0  0
 60127  1  0  0  0
 60128  1  0  0  0
 61129  1  0  0  0
 61130  1  0  0  0
 61131  1  0  0  0
 62132  1  0  0  0
 62133  1  0  0  0
 62134  1  0  0  0
 63 65  1  0  0  0
 63135  1  0  0  0
 63136  1  0  0  0
 63137  1  0  0  0
 64138  1  0  0  0
 65139  1  0  0  0
 68 77  1  0  0  0
 71 73  2  0  0  0
 71 75  1  0  0  0
 71140  1  0  0  0
 72 74  1  0  0  0
 72 75  2  0  0  0
 72141  1  0  0  0
 73 76  1  0  0  0
 73142  1  0  0  0
 74 76  2  0  0  0
 74143  1  0  0  0
 75 77  1  0  0  0
 76 78  1  0  0  0
 77 80  2  0  0  0
 78 79  1  0  0  0
 78144  1  0  0  0
 78145  1  0  0  0
 79146  1  0  0  0
M  ISO  4   1 100  68 101  77 101  79 100
M  END
> <chiral flag>
0

> <version>
0

> <s_m_source_file>
/data/baiqing/PycharmProjects/Reinvent-master-3.2/result/LINK_invent/BTK/process_docking_weight1_custom_product_contain_oxygen_bond_distance_aromatic_linkinvent_7_9_3/rearranged_h_0002.sdf

> <i_m_source_file_index>
4

> <r_mmod_Potential_Energy-OPLS-2005>
1085.07116699219

> <r_mmod_Stretch_Energy-OPLS-2005>
486.674896240234

> <r_mmod_Bend_Energy-OPLS-2005>
437.386505126953

> <r_mmod_Torsional_Energy-OPLS-2005>
199.433502197266

> <r_mmod_Improper_Torsional_Energy-OPLS-2005>
4.08563709259033

> <r_mmod_Van_der_Waal_Energy-OPLS-2005>
136.574249267578

> <r_mmod_Electrostatic_Energy-OPLS-2005>
-357.084655761719

> <r_mmod_Solvation_Energy-OPLS-2005>
-217.116302490234

> <b_mmod_Minimization_Converged-OPLS-2005>
0

> <r_mmod_RMS_Derivative-OPLS-2005>
0.776556968688965

$$$$
4
                    3D
 Structure written by MMmdl.
153161  0  0  1  0            999 V2000
  -30.3031  -15.5937   20.3384 C   0  0  0  0  0  0
  -30.4324  -13.0416   19.5606 C   0  0  0  0  0  0
  -29.5594  -12.6622   18.3295 C   0  0  0  0  0  0
  -28.1244  -12.3128   18.7568 C   0  0  0  0  0  0
  -27.6010  -13.3078   19.8184 C   0  0  2  0  0  0
  -28.6155  -13.6084   20.9479 C   0  0  0  0  0  0
  -25.2334  -13.8284   20.5781 C   0  0  0  0  0  0
  -24.1713  -13.0431   20.9274 C   0  0  0  0  0  0
  -24.6414  -11.6943   20.8738 C   0  0  0  0  0  0
  -23.9108  -10.4285   21.0380 C   0  0  0  0  0  0
  -24.3649   -9.4202   21.9169 C   0  0  0  0  0  0
  -23.6309   -8.2246   22.0751 C   0  0  0  0  0  0
  -22.4291   -8.0283   21.3543 C   0  0  0  0  0  0
  -21.9931   -9.0254   20.4645 C   0  0  0  0  0  0
  -22.7272  -10.2126   20.3042 C   0  0  0  0  0  0
  -21.6856   -6.0736   22.5285 C   0  0  0  0  0  0
  -21.4017   -6.5637   23.8216 C   0  0  0  0  0  0
  -21.3662   -5.6793   24.9179 C   0  0  0  0  0  0
  -21.6048   -4.3054   24.7229 C   0  0  0  0  0  0
  -21.8814   -3.8144   23.4347 C   0  0  0  0  0  0
  -21.9191   -4.6960   22.3404 C   0  0  0  0  0  0
  -22.7727  -13.5165   21.1905 C   0  0  0  0  0  0
  -22.1658   -4.2145   21.0980 F   0  0  0  0  0  0
  -21.5633   -3.4536   25.7741 F   0  0  0  0  0  0
  -29.8074  -14.2183   20.3163 N   0  0  0  0  0  0
  -26.2781  -12.9621   20.3219 N   0  0  0  0  0  0
  -25.9366  -11.6686   20.5673 N   0  0  0  0  0  0
  -22.0379  -12.8161   22.0470 N   0  0  0  0  0  0
  -25.3922  -15.2028   20.4244 N   0  0  0  0  0  0
  -31.5264  -15.5696   20.1051 O   0  0  0  0  0  0
  -21.6644   -6.8883   21.4249 O   0  0  0  0  0  0
  -22.3401  -14.5459   20.6730 O   0  0  0  0  0  0
  -24.6830  -31.7999   23.1514 C   0  0  0  0  0  0
  -25.9417  -32.4457   23.8059 C   0  0  1  0  0  0
  -27.2321  -26.7128   20.2090 C   0  0  0  0  0  0
  -25.5998  -33.8284   24.1937 N   0  0  0  0  0  0
  -23.5099  -30.4005   21.5052 C   0  0  2  0  0  0
  -24.9687  -28.7433   20.1150 C   0  0  0  0  0  0
  -22.7760  -29.4310   22.4710 C   0  0  0  0  0  0
  -18.0341  -28.1391   22.8448 C   0  0  0  0  0  0
  -24.1510  -36.7150   23.2657 C   0  0  0  0  0  0
  -26.0900  -30.5315   21.4192 C   0  0  0  0  0  0
  -26.1560  -29.0990   20.7662 C   0  0  0  0  0  0
  -27.2702  -28.1095   20.7851 C   0  0  0  0  0  0
  -26.0160  -26.5652   19.4950 C   0  0  0  0  0  0
  -24.9368  -27.5005   19.4583 C   0  0  0  0  0  0
  -23.7632  -29.6977   20.1401 C   0  0  0  0  0  0
  -25.4156  -36.2890   24.0280 C   0  0  1  0  0  0
  -20.5976  -28.3768   23.1132 C   0  0  2  0  0  0
  -20.6813  -26.9432   22.5396 C   0  0  0  0  0  0
  -19.5795  -26.6356   21.5198 C   0  0  0  0  0  0
  -18.1971  -26.7918   22.1593 C   0  0  0  0  0  0
  -19.1605  -28.8899   23.2769 C   0  0  0  0  0  0
  -18.9516  -30.1476   23.8812 C   0  0  0  0  0  0
  -17.6517  -30.6586   24.0529 C   0  0  0  0  0  0
  -25.9134  -34.9281   23.4949 C   0  0  0  0  0  0
  -16.5401  -29.9069   23.6339 C   0  0  0  0  0  0
  -16.7322  -28.6484   23.0367 C   0  0  0  0  0  0
  -26.4585  -31.6498   25.0689 C   0  0  0  0  0  0
  -25.3635  -31.3807   26.1296 C   0  0  0  0  0  0
  -27.0518  -30.2832   24.6616 C   0  0  0  0  0  0
  -27.6039  -32.4372   25.7489 C   0  0  0  0  0  0
  -27.5572  -37.1729   24.8463 C   0  0  0  0  0  0
  -21.4407  -29.3016   22.3450 N   0  0  0  0  0  0
  -26.4279  -37.3652   23.9406 N   0  0  0  0  0  0
  -24.7843  -30.9442   22.0773 N   0  0  0  0  0  0
  -23.4194  -28.7935   23.3081 O   0  0  0  0  0  0
  -28.1835  -25.4908   20.3179 O   0  0  0  0  0  0
  -26.5786  -34.8858   22.4572 O   0  0  0  0  0  0
  -23.5850  -32.1097   23.6453 O   0  0  0  0  0  0
  -29.4862  -21.1867   19.3954 C   0  0  0  0  0  0
  -29.8160  -19.6873   19.4630 C   0  0  0  0  0  0
  -28.5403  -19.5223   21.2696 C   0  0  0  0  0  0
  -28.6464  -22.0759   20.2603 C   0  0  0  0  0  0
  -28.2214  -21.0243   21.2335 C   0  0  0  0  0  0
  -29.3692  -18.6258   20.4106 C   0  0  0  0  0  0
  -27.8518  -21.2637   23.7461 C   0  0  0  0  0  0
  -25.8640  -20.9641   22.1748 C   0  0  0  0  0  0
  -27.9615  -23.7938   19.9622 C   0  0  0  0  0  0
  -27.2869  -21.5213   22.3377 C   0  0  0  0  0  0
  -29.4862  -16.9058   20.4971 N   0  0  0  0  0  0
  -31.4371  -13.2888   19.2143 H   0  0  0  0  0  0
  -30.5666  -12.1798   20.2180 H   0  0  0  0  0  0
  -30.0061  -11.8320   17.7799 H   0  0  0  0  0  0
  -29.5353  -13.5094   17.6425 H   0  0  0  0  0  0
  -28.1348  -11.3051   19.1748 H   0  0  0  0  0  0
  -27.4630  -12.2832   17.8901 H   0  0  0  0  0  0
  -27.4755  -14.2400   19.2664 H   0  0  0  0  0  0
  -28.8566  -12.7145   21.5247 H   0  0  0  0  0  0
  -28.1890  -14.3225   21.6545 H   0  0  0  0  0  0
  -25.2787   -9.5680   22.4743 H   0  0  0  0  0  0
  -24.0012   -7.4642   22.7474 H   0  0  0  0  0  0
  -21.0863   -8.8777   19.8958 H   0  0  0  0  0  0
  -22.3725  -10.9660   19.6151 H   0  0  0  0  0  0
  -21.2010   -7.6142   23.9724 H   0  0  0  0  0  0
  -21.1494   -6.0514   25.9084 H   0  0  0  0  0  0
  -22.0590   -2.7602   23.2849 H   0  0  0  0  0  0
  -22.4010  -11.9857   22.4910 H   0  0  0  0  0  0
  -21.0980  -13.1162   22.2627 H   0  0  0  0  0  0
  -24.6176  -15.8483   20.5312 H   0  0  0  0  0  0
  -26.2316  -15.6477   20.0769 H   0  0  0  0  0  0
  -26.7497  -32.4914   23.0765 H   0  0  0  0  0  0
  -25.0022  -33.9308   25.0012 H   0  0  0  0  0  0
  -22.8345  -31.2369   21.3154 H   0  0  0  0  0  0
  -23.3785  -35.9463   23.3275 H   0  0  0  0  0  0
  -24.3585  -36.8867   22.2083 H   0  0  0  0  0  0
  -23.7261  -37.6310   23.6774 H   0  0  0  0  0  0
  -26.2978  -31.2580   20.6338 H   0  0  0  0  0  0
  -26.9365  -30.5923   22.0904 H   0  0  0  0  0  0
  -28.1578  -28.3827   21.3377 H   0  0  0  0  0  0
  -25.8522  -25.6233   18.9906 H   0  0  0  0  0  0
  -24.0411  -27.2172   18.9230 H   0  0  0  0  0  0
  -23.9376  -30.4591   19.3788 H   0  0  0  0  0  0
  -22.8682  -29.1634   19.8166 H   0  0  0  0  0  0
  -25.1372  -36.1648   25.0767 H   0  0  0  0  0  0
  -21.0035  -28.3402   24.1261 H   0  0  0  0  0  0
  -20.5675  -26.2391   23.3658 H   0  0  0  0  0  0
  -21.6679  -26.7375   22.1221 H   0  0  0  0  0  0
  -19.6966  -25.6247   21.1280 H   0  0  0  0  0  0
  -19.6739  -27.3106   20.6682 H   0  0  0  0  0  0
  -17.4252  -26.6642   21.3995 H   0  0  0  0  0  0
  -18.0370  -26.0061   22.8984 H   0  0  0  0  0  0
  -19.8005  -30.7294   24.2153 H   0  0  0  0  0  0
  -17.5084  -31.6262   24.5145 H   0  0  0  0  0  0
  -15.5401  -30.2952   23.7724 H   0  0  0  0  0  0
  -15.8713  -28.0781   22.7138 H   0  0  0  0  0  0
  -24.5814  -30.7184   25.7576 H   0  0  0  0  0  0
  -24.8818  -32.3023   26.4575 H   0  0  0  0  0  0
  -25.7787  -30.9037   27.0183 H   0  0  0  0  0  0
  -26.3240  -29.6423   24.1636 H   0  0  0  0  0  0
  -27.3958  -29.7315   25.5379 H   0  0  0  0  0  0
  -27.9225  -30.3948   24.0151 H   0  0  0  0  0  0
  -27.2584  -33.3756   26.1841 H   0  0  0  0  0  0
  -28.3934  -32.6801   25.0363 H   0  0  0  0  0  0
  -28.0608  -31.8647   26.5567 H   0  0  0  0  0  0
  -28.2549  -38.0065   24.7521 H   0  0  0  0  0  0
  -28.1107  -36.2582   24.6283 H   0  0  0  0  0  0
  -27.2280  -37.1361   25.8864 H   0  0  0  0  0  0
  -20.9716  -29.8675   21.6511 H   0  0  0  0  0  0
  -26.0108  -38.2701   24.1412 H   0  0  0  0  0  0
  -29.8996  -21.6857   18.5298 H   0  0  0  0  0  0
  -30.4348  -19.3299   18.6523 H   0  0  0  0  0  0
  -28.0457  -18.9870   22.0668 H   0  0  0  0  0  0
  -28.8377  -21.7154   23.8605 H   0  0  0  0  0  0
  -27.9462  -20.2021   23.9751 H   0  0  0  0  0  0
  -27.2066  -21.7002   24.5098 H   0  0  0  0  0  0
  -25.4547  -21.2257   21.1983 H   0  0  0  0  0  0
  -25.1948  -21.3754   22.9313 H   0  0  0  0  0  0
  -25.8340  -19.8781   22.2653 H   0  0  0  0  0  0
  -26.9041  -23.6510   20.1836 H   0  0  0  0  0  0
  -27.9813  -23.8244   18.8717 H   0  0  0  0  0  0
  -27.2090  -22.6053   22.2529 H   0  0  0  0  0  0
  -28.5948  -16.5662   20.8287 H   0  0  0  0  0  0
  1 25  1  0  0  0
  1 30  2  0  0  0
  1 81  1  0  0  0
  2  3  1  0  0  0
  2 25  1  0  0  0
  2 82  1  0  0  0
  2 83  1  0  0  0
  3  4  1  0  0  0
  3 84  1  0  0  0
  3 85  1  0  0  0
  4  5  1  0  0  0
  4 86  1  0  0  0
  4 87  1  0  0  0
  5  6  1  0  0  0
  5 26  1  0  0  0
  5 88  1  0  0  0
  6 25  1  0  0  0
  6 89  1  0  0  0
  6 90  1  0  0  0
  7  8  2  0  0  0
  7 26  1  0  0  0
  7 29  1  0  0  0
  8  9  1  0  0  0
  8 22  1  0  0  0
  9 10  1  0  0  0
  9 27  2  0  0  0
 10 11  2  0  0  0
 10 15  1  0  0  0
 11 12  1  0  0  0
 11 91  1  0  0  0
 12 13  2  0  0  0
 12 92  1  0  0  0
 13 14  1  0  0  0
 13 31  1  0  0  0
 14 15  2  0  0  0
 14 93  1  0  0  0
 15 94  1  0  0  0
 16 17  2  0  0  0
 16 21  1  0  0  0
 16 31  1  0  0  0
 17 18  1  0  0  0
 17 95  1  0  0  0
 18 19  2  0  0  0
 18 96  1  0  0  0
 19 20  1  0  0  0
 19 24  1  0  0  0
 20 21  2  0  0  0
 20 97  1  0  0  0
 21 23  1  0  0  0
 22 28  1  0  0  0
 22 32  2  0  0  0
 26 27  1  0  0  0
 28 98  1  0  0  0
 28 99  1  0  0  0
 29100  1  0  0  0
 29101  1  0  0  0
 33 34  1  0  0  0
 33 66  1  0  0  0
 33 70  2  0  0  0
 34 36  1  0  0  0
 34 59  1  0  0  0
 34102  1  0  0  0
 35 44  2  0  0  0
 35 45  1  0  0  0
 35 68  1  0  0  0
 36 56  1  0  0  0
 36103  1  0  0  0
 37 39  1  0  0  0
 37 47  1  0  0  0
 37 66  1  0  0  0
 37104  1  0  0  0
 38 43  2  0  0  0
 38 46  1  0  0  0
 38 47  1  0  0  0
 39 64  1  0  0  0
 39 67  2  0  0  0
 40 52  1  0  0  0
 40 53  2  0  0  0
 40 58  1  0  0  0
 41105  1  0  0  0
 41106  1  0  0  0
 41107  1  0  0  0
 41 48  1  0  0  0
 42 43  1  0  0  0
 42 66  1  0  0  0
 42108  1  0  0  0
 42109  1  0  0  0
 43 44  1  0  0  0
 44110  1  0  0  0
 45 46  2  0  0  0
 45111  1  0  0  0
 46112  1  0  0  0
 47113  1  0  0  0
 47114  1  0  0  0
 48 56  1  0  0  0
 48 65  1  0  0  0
 48115  1  0  0  0
 49 50  1  0  0  0
 49 53  1  0  0  0
 49 64  1  0  0  0
 49116  1  0  0  0
 50 51  1  0  0  0
 50117  1  0  0  0
 50118  1  0  0  0
 51 52  1  0  0  0
 51119  1  0  0  0
 51120  1  0  0  0
 52121  1  0  0  0
 52122  1  0  0  0
 53 54  1  0  0  0
 54 55  2  0  0  0
 54123  1  0  0  0
 55 57  1  0  0  0
 55124  1  0  0  0
 56 69  2  0  0  0
 57 58  2  0  0  0
 57125  1  0  0  0
 58126  1  0  0  0
 59 60  1  0  0  0
 59 61  1  0  0  0
 59 62  1  0  0  0
 60127  1  0  0  0
 60128  1  0  0  0
 60129  1  0  0  0
 61130  1  0  0  0
 61131  1  0  0  0
 61132  1  0  0  0
 62133  1  0  0  0
 62134  1  0  0  0
 62135  1  0  0  0
 63 65  1  0  0  0
 63136  1  0  0  0
 63137  1  0  0  0
 63138  1  0  0  0
 64139  1  0  0  0
 65140  1  0  0  0
 68 79  1  0  0  0
 71 72  2  0  0  0
 71 74  1  0  0  0
 71141  1  0  0  0
 72 76  1  0  0  0
 72142  1  0  0  0
 73 75  1  0  0  0
 73 76  2  0  0  0
 73143  1  0  0  0
 74 75  2  0  0  0
 74 79  1  0  0  0
 75 80  1  0  0  0
 76 81  1  0  0  0
 77144  1  0  0  0
 77145  1  0  0  0
 77146  1  0  0  0
 77 80  1  0  0  0
 78 80  1  0  0  0
 78147  1  0  0  0
 78148  1  0  0  0
 78149  1  0  0  0
 79150  1  0  0  0
 79151  1  0  0  0
 80152  1  0  0  0
 81153  1  0  0  0
M  ISO  4   1 100  68 101  79 101  81 100
M  END
> <chiral flag>
0

> <version>
0

> <s_m_source_file>
/data/baiqing/PycharmProjects/Reinvent-master-3.2/result/LINK_invent/BTK/process_docking_weight1_custom_product_contain_oxygen_bond_distance_aromatic_linkinvent_7_9_3/rearranged_h_0002.sdf

> <i_m_source_file_index>
5

> <r_mmod_Potential_Energy-OPLS-2005>
2256.6328125

> <r_mmod_Stretch_Energy-OPLS-2005>
921.899536132812

> <r_mmod_Bend_Energy-OPLS-2005>
661.755798339844

> <r_mmod_Torsional_Energy-OPLS-2005>
242.582260131836

> <r_mmod_Improper_Torsional_Energy-OPLS-2005>
7.4490647315979

> <r_mmod_Van_der_Waal_Energy-OPLS-2005>
131.946838378906

> <r_mmod_Electrostatic_Energy-OPLS-2005>
-363.507873535156

> <r_mmod_Solvation_Energy-OPLS-2005>
-209.011276245117

> <b_mmod_Minimization_Converged-OPLS-2005>
0

> <r_mmod_RMS_Derivative-OPLS-2005>
1.66395807266235

$$$$
5
                    3D
 Structure written by MMmdl.
166175  0  0  1  0            999 V2000
  -30.6166  -14.6914   20.4720 C   0  0  0  0  0  0
  -30.4326  -12.4136   19.4844 C   0  0  0  0  0  0
  -29.5146  -12.5050   18.2441 C   0  0  0  0  0  0
  -28.0369  -12.3414   18.6491 C   0  0  0  0  0  0
  -27.6502  -13.2251   19.8654 C   0  0  2  0  0  0
  -28.6916  -13.1204   21.0039 C   0  0  0  0  0  0
  -25.2527  -13.8168   20.5665 C   0  0  0  0  0  0
  -24.1810  -13.0427   20.9189 C   0  0  0  0  0  0
  -24.6394  -11.6906   20.8746 C   0  0  0  0  0  0
  -23.9062  -10.4287   21.0412 C   0  0  0  0  0  0
  -24.3612   -9.4202   21.9191 C   0  0  0  0  0  0
  -23.6286   -8.2240   22.0757 C   0  0  0  0  0  0
  -22.4270   -8.0279   21.3542 C   0  0  0  0  0  0
  -21.9906   -9.0254   20.4644 C   0  0  0  0  0  0
  -22.7236  -10.2134   20.3060 C   0  0  0  0  0  0
  -21.6847   -6.0734   22.5275 C   0  0  0  0  0  0
  -21.4010   -6.5637   23.8206 C   0  0  0  0  0  0
  -21.3664   -5.6792   24.9171 C   0  0  0  0  0  0
  -21.6045   -4.3054   24.7221 C   0  0  0  0  0  0
  -21.8820   -3.8145   23.4340 C   0  0  0  0  0  0
  -21.9192   -4.6962   22.3398 C   0  0  0  0  0  0
  -22.7836  -13.5229   21.1852 C   0  0  0  0  0  0
  -22.1659   -4.2149   21.0974 F   0  0  0  0  0  0
  -21.5637   -3.4537   25.7736 F   0  0  0  0  0  0
  -30.0050  -13.4602   20.4397 N   0  0  0  0  0  0
  -26.2976  -12.9376   20.3335 N   0  0  0  0  0  0
  -25.9332  -11.6525   20.5785 N   0  0  0  0  0  0
  -22.0478  -12.8224   22.0412 N   0  0  0  0  0  0
  -25.4188  -15.1880   20.4012 N   0  0  0  0  0  0
  -31.7757  -14.8240   20.0694 O   0  0  0  0  0  0
  -21.6636   -6.8878   21.4237 O   0  0  0  0  0  0
  -22.3532  -14.5543   20.6709 O   0  0  0  0  0  0
  -24.6293  -31.8573   23.2011 C   0  0  0  0  0  0
  -25.9132  -32.4758   23.8340 C   0  0  1  0  0  0
  -27.2239  -27.2880   20.1364 C   0  0  0  0  0  0
  -25.5937  -33.8560   24.2253 N   0  0  0  0  0  0
  -23.4257  -30.4795   21.5450 C   0  0  2  0  0  0
  -24.8744  -28.9293   20.1121 C   0  0  0  0  0  0
  -22.7496  -29.4615   22.4942 C   0  0  0  0  0  0
  -18.0290  -28.1379   22.8495 C   0  0  0  0  0  0
  -24.1486  -36.7276   23.2645 C   0  0  0  0  0  0
  -25.9689  -30.7774   21.3791 C   0  0  0  0  0  0
  -26.0442  -29.4026   20.7217 C   0  0  0  0  0  0
  -27.2241  -28.5947   20.7228 C   0  0  0  0  0  0
  -26.0389  -26.8819   19.4857 C   0  0  0  0  0  0
  -24.8743  -27.6752   19.4827 C   0  0  0  0  0  0
  -23.6422  -29.8126   20.1612 C   0  0  0  0  0  0
  -25.4114  -36.3057   24.0315 C   0  0  1  0  0  0
  -20.5896  -28.3697   23.1271 C   0  0  2  0  0  0
  -20.6787  -26.9419   22.5411 C   0  0  0  0  0  0
  -19.5751  -26.6384   21.5224 C   0  0  0  0  0  0
  -18.1930  -26.7927   22.1631 C   0  0  0  0  0  0
  -19.1548  -28.8856   23.2875 C   0  0  0  0  0  0
  -18.9468  -30.1459   23.8889 C   0  0  0  0  0  0
  -17.6469  -30.6589   24.0562 C   0  0  0  0  0  0
  -25.9063  -34.9432   23.5083 C   0  0  0  0  0  0
  -16.5357  -29.9084   23.6335 C   0  0  0  0  0  0
  -16.7280  -28.6497   23.0365 C   0  0  0  0  0  0
  -26.4509  -31.6588   25.0726 C   0  0  0  0  0  0
  -25.3729  -31.3706   26.1436 C   0  0  0  0  0  0
  -27.0385  -30.3014   24.6210 C   0  0  0  0  0  0
  -27.6052  -32.4352   25.7498 C   0  0  0  0  0  0
  -27.5571  -37.1788   24.8467 C   0  0  0  0  0  0
  -21.4214  -29.3042   22.3660 N   0  0  0  0  0  0
  -26.4283  -37.3760   23.9407 N   0  0  0  0  0  0
  -24.6932  -31.0556   22.0979 N   0  0  0  0  0  0
  -23.4200  -28.8174   23.3054 O   0  0  0  0  0  0
  -28.3159  -26.3980   20.1751 O   0  0  0  0  0  0
  -26.5650  -34.8905   22.4657 O   0  0  0  0  0  0
  -23.5449  -32.1407   23.7315 O   0  0  0  0  0  0
  -24.6019  -19.3392   22.7816 C   0  0  0  0  0  0
  -25.0944  -18.8302   21.5653 C   0  0  0  0  0  0
  -24.8762  -20.6705   23.1466 C   0  0  0  0  0  0
  -25.8648  -19.6475   20.7155 C   0  0  0  0  0  0
  -25.6483  -21.4880   22.2984 C   0  0  0  0  0  0
  -30.8199  -18.6660   21.8504 C   0  0  0  0  0  0
  -31.0020  -19.9165   22.4746 C   0  0  0  0  0  0
  -29.2000  -19.7179   20.3747 C   0  0  0  0  0  0
  -26.1572  -20.9791   21.0826 C   0  0  0  0  0  0
  -29.9221  -18.5256   20.7788 C   0  0  0  0  0  0
  -29.3262  -21.0104   21.0301 C   0  0  0  0  0  0
  -30.2772  -21.0642   22.0834 C   0  0  0  0  0  0
  -26.9985  -21.8742   20.1782 C   0  0  0  0  0  0
  -29.8516  -17.1395   20.0215 C   0  0  0  0  0  0
  -28.8802  -23.7010   20.2278 C   0  0  0  0  0  0
  -28.0538  -25.0149   20.6872 C   0  0  0  0  0  0
  -28.3661  -22.2720   20.7933 C   0  0  2  0  0  0
  -29.8269  -15.7925   20.7264 N   0  0  0  0  0  0
  -30.5583  -22.5241   22.9679 Cl  0  0  0  0  0  0
  -31.4781  -12.5224   19.1915 H   0  0  0  0  0  0
  -30.3567  -11.4281   19.9472 H   0  0  0  0  0  0
  -29.7885  -11.7409   17.5153 H   0  0  0  0  0  0
  -29.6576  -13.4670   17.7495 H   0  0  0  0  0  0
  -27.8780  -11.2905   18.8927 H   0  0  0  0  0  0
  -27.3855  -12.5580   17.8017 H   0  0  0  0  0  0
  -27.6577  -14.2542   19.5066 H   0  0  0  0  0  0
  -28.7089  -12.1117   21.4193 H   0  0  0  0  0  0
  -28.4324  -13.7827   21.8314 H   0  0  0  0  0  0
  -25.2756   -9.5687   22.4767 H   0  0  0  0  0  0
  -23.9994   -7.4638   22.7485 H   0  0  0  0  0  0
  -21.0836   -8.8769   19.8955 H   0  0  0  0  0  0
  -22.3688  -10.9673   19.6171 H   0  0  0  0  0  0
  -21.1995   -7.6142   23.9710 H   0  0  0  0  0  0
  -21.1490   -6.0521   25.9076 H   0  0  0  0  0  0
  -22.0597   -2.7607   23.2838 H   0  0  0  0  0  0
  -22.4079  -11.9867   22.4776 H   0  0  0  0  0  0
  -21.1112  -13.1276   22.2648 H   0  0  0  0  0  0
  -24.6304  -15.8215   20.4645 H   0  0  0  0  0  0
  -26.2589  -15.6283   20.0498 H   0  0  0  0  0  0
  -26.7200  -32.5426   23.1086 H   0  0  0  0  0  0
  -25.0051  -33.9696   25.0374 H   0  0  0  0  0  0
  -22.7207  -31.3003   21.4001 H   0  0  0  0  0  0
  -23.3744  -35.9615   23.3313 H   0  0  0  0  0  0
  -24.3570  -36.8919   22.2062 H   0  0  0  0  0  0
  -23.7255  -37.6473   23.6689 H   0  0  0  0  0  0
  -26.1087  -31.5384   20.6105 H   0  0  0  0  0  0
  -26.8446  -30.8243   22.0140 H   0  0  0  0  0  0
  -28.1187  -28.9504   21.2145 H   0  0  0  0  0  0
  -26.0015  -25.9251   18.9850 H   0  0  0  0  0  0
  -23.9814  -27.3077   18.9952 H   0  0  0  0  0  0
  -23.7608  -30.5892   19.4045 H   0  0  0  0  0  0
  -22.7607  -29.2433   19.8608 H   0  0  0  0  0  0
  -25.1301  -36.1897   25.0809 H   0  0  0  0  0  0
  -20.9979  -28.3286   24.1398 H   0  0  0  0  0  0
  -20.5720  -26.2310   23.3620 H   0  0  0  0  0  0
  -21.6649  -26.7467   22.1184 H   0  0  0  0  0  0
  -19.6919  -25.6300   21.1253 H   0  0  0  0  0  0
  -19.6680  -27.3189   20.6749 H   0  0  0  0  0  0
  -17.4210  -26.6687   21.4024 H   0  0  0  0  0  0
  -18.0310  -26.0062   22.9015 H   0  0  0  0  0  0
  -19.7946  -30.7272   24.2266 H   0  0  0  0  0  0
  -17.5024  -31.6274   24.5153 H   0  0  0  0  0  0
  -15.5355  -30.2978   23.7676 H   0  0  0  0  0  0
  -15.8679  -28.0813   22.7089 H   0  0  0  0  0  0
  -24.5898  -30.7085   25.7734 H   0  0  0  0  0  0
  -24.8916  -32.2856   26.4893 H   0  0  0  0  0  0
  -25.8024  -30.8842   27.0201 H   0  0  0  0  0  0
  -26.2976  -29.6720   24.1264 H   0  0  0  0  0  0
  -27.4123  -29.7317   25.4730 H   0  0  0  0  0  0
  -27.8822  -30.4311   23.9426 H   0  0  0  0  0  0
  -27.2653  -33.3665   26.2044 H   0  0  0  0  0  0
  -28.3860  -32.6911   25.0322 H   0  0  0  0  0  0
  -28.0721  -31.8512   26.5440 H   0  0  0  0  0  0
  -28.2581  -38.0095   24.7528 H   0  0  0  0  0  0
  -28.1078  -36.2621   24.6286 H   0  0  0  0  0  0
  -27.2286  -37.1433   25.8871 H   0  0  0  0  0  0
  -20.9411  -29.8734   21.6832 H   0  0  0  0  0  0
  -26.0156  -38.2831   24.1416 H   0  0  0  0  0  0
  -24.0123  -18.7087   23.4330 H   0  0  0  0  0  0
  -24.8805  -17.8090   21.2851 H   0  0  0  0  0  0
  -24.4955  -21.0651   24.0791 H   0  0  0  0  0  0
  -26.2330  -19.2409   19.7846 H   0  0  0  0  0  0
  -25.8514  -22.5095   22.5900 H   0  0  0  0  0  0
  -31.4002  -17.8156   22.1799 H   0  0  0  0  0  0
  -31.7106  -19.9946   23.2863 H   0  0  0  0  0  0
  -28.5062  -19.6197   19.5543 H   0  0  0  0  0  0
  -26.3968  -22.7585   19.9763 H   0  0  0  0  0  0
  -27.1435  -21.4082   19.2036 H   0  0  0  0  0  0
  -30.6836  -17.1366   19.3152 H   0  0  0  0  0  0
  -28.9586  -17.1666   19.3957 H   0  0  0  0  0  0
  -29.9124  -23.8497   20.5415 H   0  0  0  0  0  0
  -28.9154  -23.6550   19.1393 H   0  0  0  0  0  0
  -28.1828  -25.0920   21.7675 H   0  0  0  0  0  0
  -26.9983  -24.7822   20.5798 H   0  0  0  0  0  0
  -28.1146  -22.5414   21.8183 H   0  0  0  0  0  0
  -28.9338  -15.5623   21.1358 H   0  0  0  0  0  0
  1 25  1  0  0  0
  1 30  2  0  0  0
  1 88  1  0  0  0
  2  3  1  0  0  0
  2 25  1  0  0  0
  2 90  1  0  0  0
  2 91  1  0  0  0
  3  4  1  0  0  0
  3 92  1  0  0  0
  3 93  1  0  0  0
  4  5  1  0  0  0
  4 94  1  0  0  0
  4 95  1  0  0  0
  5  6  1  0  0  0
  5 26  1  0  0  0
  5 96  1  0  0  0
  6 25  1  0  0  0
  6 97  1  0  0  0
  6 98  1  0  0  0
  7  8  2  0  0  0
  7 26  1  0  0  0
  7 29  1  0  0  0
  8  9  1  0  0  0
  8 22  1  0  0  0
  9 10  1  0  0  0
  9 27  2  0  0  0
 10 11  2  0  0  0
 10 15  1  0  0  0
 11 12  1  0  0  0
 11 99  1  0  0  0
 12 13  2  0  0  0
 12100  1  0  0  0
 13 14  1  0  0  0
 13 31  1  0  0  0
 14 15  2  0  0  0
 14101  1  0  0  0
 15102  1  0  0  0
 16 17  2  0  0  0
 16 21  1  0  0  0
 16 31  1  0  0  0
 17 18  1  0  0  0
 17103  1  0  0  0
 18 19  2  0  0  0
 18104  1  0  0  0
 19 20  1  0  0  0
 19 24  1  0  0  0
 20 21  2  0  0  0
 20105  1  0  0  0
 21 23  1  0  0  0
 22 28  1  0  0  0
 22 32  2  0  0  0
 26 27  1  0  0  0
 28106  1  0  0  0
 28107  1  0  0  0
 29108  1  0  0  0
 29109  1  0  0  0
 33 34  1  0  0  0
 33 66  1  0  0  0
 33 70  2  0  0  0
 34 36  1  0  0  0
 34 59  1  0  0  0
 34110  1  0  0  0
 35 44  2  0  0  0
 35 45  1  0  0  0
 35 68  1  0  0  0
 36 56  1  0  0  0
 36111  1  0  0  0
 37 39  1  0  0  0
 37 47  1  0  0  0
 37 66  1  0  0  0
 37112  1  0  0  0
 38 43  2  0  0  0
 38 46  1  0  0  0
 38 47  1  0  0  0
 39 64  1  0  0  0
 39 67  2  0  0  0
 40 52  1  0  0  0
 40 53  2  0  0  0
 40 58  1  0  0  0
 41113  1  0  0  0
 41114  1  0  0  0
 41115  1  0  0  0
 41 48  1  0  0  0
 42 43  1  0  0  0
 42 66  1  0  0  0
 42116  1  0  0  0
 42117  1  0  0  0
 43 44  1  0  0  0
 44118  1  0  0  0
 45 46  2  0  0  0
 45119  1  0  0  0
 46120  1  0  0  0
 47121  1  0  0  0
 47122  1  0  0  0
 48 56  1  0  0  0
 48 65  1  0  0  0
 48123  1  0  0  0
 49 50  1  0  0  0
 49 53  1  0  0  0
 49 64  1  0  0  0
 49124  1  0  0  0
 50 51  1  0  0  0
 50125  1  0  0  0
 50126  1  0  0  0
 51 52  1  0  0  0
 51127  1  0  0  0
 51128  1  0  0  0
 52129  1  0  0  0
 52130  1  0  0  0
 53 54  1  0  0  0
 54 55  2  0  0  0
 54131  1  0  0  0
 55 57  1  0  0  0
 55132  1  0  0  0
 56 69  2  0  0  0
 57 58  2  0  0  0
 57133  1  0  0  0
 58134  1  0  0  0
 59 60  1  0  0  0
 59 61  1  0  0  0
 59 62  1  0  0  0
 60135  1  0  0  0
 60136  1  0  0  0
 60137  1  0  0  0
 61138  1  0  0  0
 61139  1  0  0  0
 61140  1  0  0  0
 62141  1  0  0  0
 62142  1  0  0  0
 62143  1  0  0  0
 63 65  1  0  0  0
 63144  1  0  0  0
 63145  1  0  0  0
 63146  1  0  0  0
 64147  1  0  0  0
 65148  1  0  0  0
 68 86  1  0  0  0
 71 72  2  0  0  0
 71 73  1  0  0  0
 71149  1  0  0  0
 72 74  1  0  0  0
 72150  1  0  0  0
 73 75  2  0  0  0
 73151  1  0  0  0
 74 79  2  0  0  0
 74152  1  0  0  0
 75 79  1  0  0  0
 75153  1  0  0  0
 76 77  2  0  0  0
 76 80  1  0  0  0
 76154  1  0  0  0
 77 82  1  0  0  0
 77155  1  0  0  0
 78 80  2  0  0  0
 78 81  1  0  0  0
 78156  1  0  0  0
 79 83  1  0  0  0
 80 84  1  0  0  0
 81 82  2  0  0  0
 81 87  1  0  0  0
 82 89  1  0  0  0
 83157  1  0  0  0
 83158  1  0  0  0
 83 87  1  0  0  0
 84 88  1  0  0  0
 84159  1  0  0  0
 84160  1  0  0  0
 85 86  1  0  0  0
 85 87  1  0  0  0
 85161  1  0  0  0
 85162  1  0  0  0
 86163  1  0  0  0
 86164  1  0  0  0
 87165  1  0  0  0
 88166  1  0  0  0
M  ISO  4   1 100  68 101  86 101  88 100
M  END
> <chiral flag>
0

> <version>
0

> <s_m_source_file>
/data/baiqing/PycharmProjects/Reinvent-master-3.2/result/LINK_invent/BTK/process_docking_weight1_custom_product_contain_oxygen_bond_distance_aromatic_linkinvent_7_9_3/rearranged_h_0002.sdf

> <i_m_source_file_index>
6

> <r_mmod_Potential_Energy-OPLS-2005>
140.727386474609

> <r_mmod_Stretch_Energy-OPLS-2005>
112.351760864258

> <r_mmod_Bend_Energy-OPLS-2005>
162.115905761719

> <r_mmod_Torsional_Energy-OPLS-2005>
243.866348266602

> <r_mmod_Improper_Torsional_Energy-OPLS-2005>
8.77566814422607

> <r_mmod_Van_der_Waal_Energy-OPLS-2005>
150.239547729492

> <r_mmod_Electrostatic_Energy-OPLS-2005>
-393.554168701172

> <r_mmod_Solvation_Energy-OPLS-2005>
-209.72314453125

> <b_mmod_Minimization_Converged-OPLS-2005>
0

> <r_mmod_RMS_Derivative-OPLS-2005>
1.32151567935944

$$$$
6
                    3D
 Structure written by MMmdl.
137144  0  0  1  0            999 V2000
  -29.9622  -16.5635   20.2664 C   0  0  0  0  0  0
  -30.3146  -13.7964   19.5233 C   0  0  0  0  0  0
  -29.5702  -12.9451   18.4142 C   0  0  0  0  0  0
  -28.2376  -12.3814   18.9086 C   0  0  0  0  0  0
  -27.5746  -13.4257   19.8177 C   0  0  2  0  0  0
  -28.5152  -14.1357   20.8613 C   0  0  0  0  0  0
  -25.2174  -13.8479   20.5951 C   0  0  0  0  0  0
  -24.1675  -13.0467   20.9341 C   0  0  0  0  0  0
  -24.6541  -11.7031   20.8745 C   0  0  0  0  0  0
  -23.9255  -10.4321   21.0342 C   0  0  0  0  0  0
  -24.3739   -9.4228   21.9149 C   0  0  0  0  0  0
  -23.6364   -8.2283   22.0747 C   0  0  0  0  0  0
  -22.4340   -8.0323   21.3544 C   0  0  0  0  0  0
  -22.0014   -9.0304   20.4634 C   0  0  0  0  0  0
  -22.7395  -10.2158   20.3018 C   0  0  0  0  0  0
  -21.6878   -6.0765   22.5277 C   0  0  0  0  0  0
  -21.4033   -6.5657   23.8214 C   0  0  0  0  0  0
  -21.3665   -5.6802   24.9171 C   0  0  0  0  0  0
  -21.6043   -4.3064   24.7217 C   0  0  0  0  0  0
  -21.8816   -3.8163   23.4335 C   0  0  0  0  0  0
  -21.9200   -4.6987   22.3396 C   0  0  0  0  0  0
  -22.7650  -13.5092   21.1938 C   0  0  0  0  0  0
  -22.1663   -4.2170   21.0973 F   0  0  0  0  0  0
  -21.5624   -3.4543   25.7727 F   0  0  0  0  0  0
  -29.5188  -15.0444   20.1465 N   0  0  0  0  0  0
  -26.2805  -13.0063   20.3476 N   0  0  0  0  0  0
  -25.9548  -11.6990   20.5678 N   0  0  0  0  0  0
  -22.0351  -12.8040   22.0489 N   0  0  0  0  0  0
  -25.3555  -15.2242   20.4383 N   0  0  0  0  0  0
  -31.2063  -16.3142   20.2293 O   0  0  0  0  0  0
  -21.6677   -6.8928   21.4248 O   0  0  0  0  0  0
  -22.3283  -14.5375   20.6771 O   0  0  0  0  0  0
  -24.7449  -31.7216   23.0979 C   0  0  0  0  0  0
  -25.9712  -32.4091   23.7768 C   0  0  1  0  0  0
  -27.2626  -26.0606   20.2671 C   0  0  0  0  0  0
  -25.6018  -33.7953   24.1581 N   0  0  0  0  0  0
  -23.5996  -30.2922   21.4680 C   0  0  2  0  0  0
  -25.0624  -28.4936   20.1392 C   0  0  0  0  0  0
  -22.8035  -29.3895   22.4550 C   0  0  0  0  0  0
  -18.0376  -28.1454   22.8421 C   0  0  0  0  0  0
  -24.1496  -36.6992   23.2671 C   0  0  0  0  0  0
  -26.1999  -30.2411   21.4589 C   0  0  0  0  0  0
  -26.2597  -28.7329   20.8212 C   0  0  0  0  0  0
  -27.3097  -27.5690   20.8335 C   0  0  0  0  0  0
  -26.0272  -26.1946   19.5192 C   0  0  0  0  0  0
  -25.0234  -27.2541   19.4619 C   0  0  0  0  0  0
  -23.8874  -29.5253   20.1333 C   0  0  0  0  0  0
  -25.4170  -36.2677   24.0236 C   0  0  1  0  0  0
  -20.6038  -28.3836   23.1031 C   0  0  2  0  0  0
  -20.6806  -26.9436   22.5420 C   0  0  0  0  0  0
  -19.5796  -26.6348   21.5224 C   0  0  0  0  0  0
  -18.1977  -26.7969   22.1607 C   0  0  0  0  0  0
  -19.1657  -28.8984   23.2686 C   0  0  0  0  0  0
  -18.9553  -30.1552   23.8759 C   0  0  0  0  0  0
  -17.6536  -30.6619   24.0537 C   0  0  0  0  0  0
  -25.9187  -34.9084   23.4798 C   0  0  0  0  0  0
  -16.5422  -29.9090   23.6366 C   0  0  0  0  0  0
  -16.7352  -28.6518   23.0376 C   0  0  0  0  0  0
  -26.4693  -31.6408   25.0652 C   0  0  0  0  0  0
  -25.3596  -31.3898   26.1149 C   0  0  0  0  0  0
  -27.0730  -30.2690   24.7003 C   0  0  0  0  0  0
  -27.6017  -32.4426   25.7501 C   0  0  0  0  0  0
  -27.5543  -37.1648   24.8466 C   0  0  0  0  0  0
  -21.4628  -29.2949   22.3282 N   0  0  0  0  0  0
  -26.4242  -37.3509   23.9408 N   0  0  0  0  0  0
  -24.8802  -30.8007   22.0600 N   0  0  0  0  0  0
  -23.4175  -28.7613   23.3197 O   0  0  0  0  0  0
  -28.1668  -24.5661   20.3212 O   0  0  0  0  0  0
  -26.5925  -34.8791   22.4483 O   0  0  0  0  0  0
  -23.6336  -32.0588   23.5524 O   0  0  0  0  0  0
  -29.2006  -20.3375   20.3201 C   0  0  0  0  0  0
  -28.2004  -22.4649   20.2188 C   0  0  0  0  0  0
  -29.3170  -18.2279   20.2702 N   0  0  0  0  0  0
  -31.2155  -14.1817   19.0448 H   0  0  0  0  0  0
  -30.7050  -13.1434   20.3066 H   0  0  0  0  0  0
  -30.2109  -12.1390   18.0541 H   0  0  0  0  0  0
  -29.3823  -13.5901   17.5547 H   0  0  0  0  0  0
  -28.4305  -11.4738   19.4819 H   0  0  0  0  0  0
  -27.5913  -12.1016   18.0755 H   0  0  0  0  0  0
  -27.3204  -14.2160   19.1091 H   0  0  0  0  0  0
  -28.9720  -13.4238   21.5512 H   0  0  0  0  0  0
  -27.9168  -14.7884   21.4973 H   0  0  0  0  0  0
  -25.2871   -9.5690   22.4748 H   0  0  0  0  0  0
  -24.0047   -7.4683   22.7489 H   0  0  0  0  0  0
  -21.0938   -8.8851   19.8945 H   0  0  0  0  0  0
  -22.3854  -10.9697   19.6127 H   0  0  0  0  0  0
  -21.2035   -7.6165   23.9725 H   0  0  0  0  0  0
  -21.1486   -6.0529   25.9075 H   0  0  0  0  0  0
  -22.0587   -2.7625   23.2829 H   0  0  0  0  0  0
  -22.4039  -11.9742   22.4895 H   0  0  0  0  0  0
  -21.0937  -13.0980   22.2674 H   0  0  0  0  0  0
  -24.5768  -15.8638   20.5540 H   0  0  0  0  0  0
  -26.2060  -15.6839   20.1380 H   0  0  0  0  0  0
  -26.7876  -32.4443   23.0543 H   0  0  0  0  0  0
  -24.9961  -33.8879   24.9601 H   0  0  0  0  0  0
  -22.9629  -31.1444   21.2211 H   0  0  0  0  0  0
  -23.3792  -35.9283   23.3224 H   0  0  0  0  0  0
  -24.3542  -36.8804   22.2107 H   0  0  0  0  0  0
  -23.7229  -37.6104   23.6874 H   0  0  0  0  0  0
  -26.4659  -30.9211   20.6487 H   0  0  0  0  0  0
  -27.0298  -30.3291   22.1459 H   0  0  0  0  0  0
  -28.1985  -27.7908   21.4071 H   0  0  0  0  0  0
  -25.7596  -25.3099   18.9588 H   0  0  0  0  0  0
  -24.1415  -27.0455   18.8719 H   0  0  0  0  0  0
  -24.1127  -30.2559   19.3556 H   0  0  0  0  0  0
  -22.9802  -29.0216   19.7958 H   0  0  0  0  0  0
  -25.1411  -36.1346   25.0723 H   0  0  0  0  0  0
  -21.0093  -28.3507   24.1170 H   0  0  0  0  0  0
  -20.5606  -26.2478   23.3738 H   0  0  0  0  0  0
  -21.6663  -26.7276   22.1281 H   0  0  0  0  0  0
  -19.6940  -25.6222   21.1342 H   0  0  0  0  0  0
  -19.6763  -27.3084   20.6699 H   0  0  0  0  0  0
  -17.4253  -26.6718   21.4002 H   0  0  0  0  0  0
  -18.0338  -26.0144   22.9029 H   0  0  0  0  0  0
  -19.8031  -30.7398   24.2071 H   0  0  0  0  0  0
  -17.5087  -31.6284   24.5168 H   0  0  0  0  0  0
  -15.5417  -30.2952   23.7771 H   0  0  0  0  0  0
  -15.8752  -28.0794   22.7169 H   0  0  0  0  0  0
  -24.5845  -30.7190   25.7424 H   0  0  0  0  0  0
  -24.8725  -32.3171   26.4173 H   0  0  0  0  0  0
  -25.7627  -30.9316   27.0189 H   0  0  0  0  0  0
  -26.3552  -29.6093   24.2123 H   0  0  0  0  0  0
  -27.4038  -29.7408   25.5956 H   0  0  0  0  0  0
  -27.9570  -30.3690   24.0706 H   0  0  0  0  0  0
  -27.2476  -33.3875   26.1635 H   0  0  0  0  0  0
  -28.4042  -32.6752   25.0488 H   0  0  0  0  0  0
  -28.0450  -31.8868   26.5774 H   0  0  0  0  0  0
  -28.2488  -38.0006   24.7515 H   0  0  0  0  0  0
  -28.1107  -36.2518   24.6291 H   0  0  0  0  0  0
  -27.2256  -37.1265   25.8866 H   0  0  0  0  0  0
  -21.0089  -29.8498   21.6159 H   0  0  0  0  0  0
  -26.0011  -38.2526   24.1435 H   0  0  0  0  0  0
  -30.0015  -20.5173   19.6027 H   0  0  0  0  0  0
  -29.6902  -20.4553   21.2869 H   0  0  0  0  0  0
  -27.7199  -22.3753   19.2446 H   0  0  0  0  0  0
  -27.3860  -22.2933   20.9225 H   0  0  0  0  0  0
  -30.3181  -18.3884   20.2986 H   0  0  0  0  0  0
  1 25  1  0  0  0
  1 30  2  0  0  0
  1 73  1  0  0  0
  2  3  1  0  0  0
  2 25  1  0  0  0
  2 74  1  0  0  0
  2 75  1  0  0  0
  3  4  1  0  0  0
  3 76  1  0  0  0
  3 77  1  0  0  0
  4  5  1  0  0  0
  4 78  1  0  0  0
  4 79  1  0  0  0
  5  6  1  0  0  0
  5 26  1  0  0  0
  5 80  1  0  0  0
  6 25  1  0  0  0
  6 81  1  0  0  0
  6 82  1  0  0  0
  7  8  2  0  0  0
  7 26  1  0  0  0
  7 29  1  0  0  0
  8  9  1  0  0  0
  8 22  1  0  0  0
  9 10  1  0  0  0
  9 27  2  0  0  0
 10 11  2  0  0  0
 10 15  1  0  0  0
 11 12  1  0  0  0
 11 83  1  0  0  0
 12 13  2  0  0  0
 12 84  1  0  0  0
 13 14  1  0  0  0
 13 31  1  0  0  0
 14 15  2  0  0  0
 14 85  1  0  0  0
 15 86  1  0  0  0
 16 17  2  0  0  0
 16 21  1  0  0  0
 16 31  1  0  0  0
 17 18  1  0  0  0
 17 87  1  0  0  0
 18 19  2  0  0  0
 18 88  1  0  0  0
 19 20  1  0  0  0
 19 24  1  0  0  0
 20 21  2  0  0  0
 20 89  1  0  0  0
 21 23  1  0  0  0
 22 28  1  0  0  0
 22 32  2  0  0  0
 26 27  1  0  0  0
 28 90  1  0  0  0
 28 91  1  0  0  0
 29 92  1  0  0  0
 29 93  1  0  0  0
 33 34  1  0  0  0
 33 66  1  0  0  0
 33 70  2  0  0  0
 34 36  1  0  0  0
 34 59  1  0  0  0
 34 94  1  0  0  0
 35 44  2  0  0  0
 35 45  1  0  0  0
 35 68  1  0  0  0
 36 56  1  0  0  0
 36 95  1  0  0  0
 37 39  1  0  0  0
 37 47  1  0  0  0
 37 66  1  0  0  0
 37 96  1  0  0  0
 38 43  2  0  0  0
 38 46  1  0  0  0
 38 47  1  0  0  0
 39 64  1  0  0  0
 39 67  2  0  0  0
 40 52  1  0  0  0
 40 53  2  0  0  0
 40 58  1  0  0  0
 41 97  1  0  0  0
 41 98  1  0  0  0
 41 99  1  0  0  0
 41 48  1  0  0  0
 42 43  1  0  0  0
 42 66  1  0  0  0
 42100  1  0  0  0
 42101  1  0  0  0
 43 44  1  0  0  0
 44102  1  0  0  0
 45 46  2  0  0  0
 45103  1  0  0  0
 46104  1  0  0  0
 47105  1  0  0  0
 47106  1  0  0  0
 48 56  1  0  0  0
 48 65  1  0  0  0
 48107  1  0  0  0
 49 50  1  0  0  0
 49 53  1  0  0  0
 49 64  1  0  0  0
 49108  1  0  0  0
 50 51  1  0  0  0
 50109  1  0  0  0
 50110  1  0  0  0
 51 52  1  0  0  0
 51111  1  0  0  0
 51112  1  0  0  0
 52113  1  0  0  0
 52114  1  0  0  0
 53 54  1  0  0  0
 54 55  2  0  0  0
 54115  1  0  0  0
 55 57  1  0  0  0
 55116  1  0  0  0
 56 69  2  0  0  0
 57 58  2  0  0  0
 57117  1  0  0  0
 58118  1  0  0  0
 59 60  1  0  0  0
 59 61  1  0  0  0
 59 62  1  0  0  0
 60119  1  0  0  0
 60120  1  0  0  0
 60121  1  0  0  0
 61122  1  0  0  0
 61123  1  0  0  0
 61124  1  0  0  0
 62125  1  0  0  0
 62126  1  0  0  0
 62127  1  0  0  0
 63 65  1  0  0  0
 63128  1  0  0  0
 63129  1  0  0  0
 63130  1  0  0  0
 64131  1  0  0  0
 65132  1  0  0  0
 68 72  1  0  0  0
 71 72  1  0  0  0
 71 73  1  0  0  0
 71133  1  0  0  0
 71134  1  0  0  0
 72135  1  0  0  0
 72136  1  0  0  0
 73137  1  0  0  0
M  ISO  4   1 100  68 101  72 101  73 100
M  END
> <chiral flag>
0

> <version>
0

> <s_m_source_file>
/data/baiqing/PycharmProjects/Reinvent-master-3.2/result/LINK_invent/BTK/process_docking_weight1_custom_product_contain_oxygen_bond_distance_aromatic_linkinvent_7_9_3/rearranged_h_0002.sdf

> <i_m_source_file_index>
7

> <r_mmod_Potential_Energy-OPLS-2005>
6948.9697265625

> <r_mmod_Stretch_Energy-OPLS-2005>
3136.46411132812

> <r_mmod_Bend_Energy-OPLS-2005>
1268.50207519531

> <r_mmod_Torsional_Energy-OPLS-2005>
217.324829101562

> <r_mmod_Improper_Torsional_Energy-OPLS-2005>
4.82364273071289

> <r_mmod_Van_der_Waal_Energy-OPLS-2005>
120.95548248291

> <r_mmod_Electrostatic_Energy-OPLS-2005>
-391.247985839844

> <r_mmod_Solvation_Energy-OPLS-2005>
-221.174652099609

> <b_mmod_Minimization_Converged-OPLS-2005>
1

> <r_mmod_RMS_Derivative-OPLS-2005>
0.042349461466074

$$$$
7
                    3D
 Structure written by MMmdl.
152160  0  0  1  0            999 V2000
  -30.6246  -14.7142   20.4558 C   0  0  0  0  0  0
  -30.4295  -12.4312   19.4788 C   0  0  0  0  0  0
  -29.5100  -12.5046   18.2396 C   0  0  0  0  0  0
  -28.0346  -12.3370   18.6500 C   0  0  0  0  0  0
  -27.6455  -13.2309   19.8579 C   0  0  2  0  0  0
  -28.6897  -13.1528   20.9949 C   0  0  0  0  0  0
  -25.2516  -13.8198   20.5703 C   0  0  0  0  0  0
  -24.1803  -13.0441   20.9205 C   0  0  0  0  0  0
  -24.6392  -11.6919   20.8750 C   0  0  0  0  0  0
  -23.9066  -10.4293   21.0403 C   0  0  0  0  0  0
  -24.3616   -9.4209   21.9182 C   0  0  0  0  0  0
  -23.6292   -8.2244   22.0754 C   0  0  0  0  0  0
  -22.4275   -8.0279   21.3544 C   0  0  0  0  0  0
  -21.9908   -9.0251   20.4646 C   0  0  0  0  0  0
  -22.7235  -10.2133   20.3053 C   0  0  0  0  0  0
  -21.6855   -6.0732   22.5276 C   0  0  0  0  0  0
  -21.4015   -6.5636   23.8209 C   0  0  0  0  0  0
  -21.3662   -5.6791   24.9172 C   0  0  0  0  0  0
  -21.6044   -4.3052   24.7224 C   0  0  0  0  0  0
  -21.8819   -3.8143   23.4345 C   0  0  0  0  0  0
  -21.9194   -4.6959   22.3402 C   0  0  0  0  0  0
  -22.7824  -13.5221   21.1863 C   0  0  0  0  0  0
  -22.1662   -4.2142   21.0981 F   0  0  0  0  0  0
  -21.5630   -3.4538   25.7739 F   0  0  0  0  0  0
  -29.9971  -13.4906   20.4190 N   0  0  0  0  0  0
  -26.2952  -12.9407   20.3317 N   0  0  0  0  0  0
  -25.9326  -11.6548   20.5770 N   0  0  0  0  0  0
  -22.0474  -12.8211   22.0423 N   0  0  0  0  0  0
  -25.4198  -15.1922   20.4117 N   0  0  0  0  0  0
  -31.8022  -14.8128   20.1011 O   0  0  0  0  0  0
  -21.6644   -6.8873   21.4237 O   0  0  0  0  0  0
  -22.3505  -14.5526   20.6711 O   0  0  0  0  0  0
  -24.6302  -31.8562   23.2004 C   0  0  0  0  0  0
  -25.9130  -32.4759   23.8344 C   0  0  1  0  0  0
  -27.2181  -27.2716   20.1253 C   0  0  0  0  0  0
  -25.5932  -33.8562   24.2272 N   0  0  0  0  0  0
  -23.4261  -30.4810   21.5428 C   0  0  2  0  0  0
  -24.8736  -28.9330   20.1072 C   0  0  0  0  0  0
  -22.7500  -29.4605   22.4905 C   0  0  0  0  0  0
  -18.0294  -28.1389   22.8480 C   0  0  0  0  0  0
  -24.1489  -36.7287   23.2641 C   0  0  0  0  0  0
  -25.9721  -30.7719   21.3802 C   0  0  0  0  0  0
  -26.0442  -29.3961   20.7210 C   0  0  0  0  0  0
  -27.2177  -28.5768   20.7217 C   0  0  0  0  0  0
  -26.0272  -26.8832   19.4682 C   0  0  0  0  0  0
  -24.8702  -27.6845   19.4696 C   0  0  0  0  0  0
  -23.6445  -29.8192   20.1571 C   0  0  0  0  0  0
  -25.4113  -36.3074   24.0332 C   0  0  1  0  0  0
  -20.5896  -28.3697   23.1267 C   0  0  2  0  0  0
  -20.6781  -26.9415   22.5407 C   0  0  0  0  0  0
  -19.5756  -26.6384   21.5211 C   0  0  0  0  0  0
  -18.1936  -26.7928   22.1623 C   0  0  0  0  0  0
  -19.1548  -28.8859   23.2868 C   0  0  0  0  0  0
  -18.9470  -30.1460   23.8890 C   0  0  0  0  0  0
  -17.6470  -30.6588   24.0560 C   0  0  0  0  0  0
  -25.9053  -34.9442   23.5103 C   0  0  0  0  0  0
  -16.5360  -29.9087   23.6330 C   0  0  0  0  0  0
  -16.7280  -28.6506   23.0344 C   0  0  0  0  0  0
  -26.4500  -31.6580   25.0727 C   0  0  0  0  0  0
  -25.3721  -31.3728   26.1447 C   0  0  0  0  0  0
  -27.0353  -30.2999   24.6211 C   0  0  0  0  0  0
  -27.6055  -32.4320   25.7499 C   0  0  0  0  0  0
  -27.5579  -37.1801   24.8468 C   0  0  0  0  0  0
  -21.4207  -29.3045   22.3654 N   0  0  0  0  0  0
  -26.4291  -37.3770   23.9411 N   0  0  0  0  0  0
  -24.6950  -31.0538   22.0976 N   0  0  0  0  0  0
  -23.4208  -28.8136   23.2989 O   0  0  0  0  0  0
  -28.3109  -26.3767   20.2069 O   0  0  0  0  0  0
  -26.5622  -34.8913   22.4670 O   0  0  0  0  0  0
  -23.5454  -32.1380   23.7309 O   0  0  0  0  0  0
  -29.0883  -21.0798   22.1628 C   0  0  0  0  0  0
  -29.2904  -19.8781   22.8774 C   0  0  0  0  0  0
  -29.4569  -19.8469   20.1089 C   0  0  0  0  0  0
  -29.6815  -18.5981   20.8204 C   0  0  0  0  0  0
  -29.1580  -21.1143   20.7534 C   0  0  0  0  0  0
  -29.5836  -18.6604   22.2273 C   0  0  0  0  0  0
  -30.1290  -17.2504   20.1023 C   0  0  0  0  0  0
  -29.0539  -23.7703   20.5590 C   0  0  0  0  0  0
  -28.0920  -24.9133   19.9471 C   0  0  0  0  0  0
  -28.9071  -22.3486   20.0395 N   0  0  0  0  0  0
  -29.8538  -15.8472   20.6403 N   0  0  0  0  0  0
  -29.7939  -17.5525   22.9773 F   0  0  0  0  0  0
  -31.4729  -12.5410   19.1787 H   0  0  0  0  0  0
  -30.3600  -11.4516   19.9543 H   0  0  0  0  0  0
  -29.7864  -11.7351   17.5172 H   0  0  0  0  0  0
  -29.6455  -13.4626   17.7350 H   0  0  0  0  0  0
  -27.8819  -11.2874   18.9041 H   0  0  0  0  0  0
  -27.3797  -12.5419   17.8020 H   0  0  0  0  0  0
  -27.6445  -14.2550   19.4846 H   0  0  0  0  0  0
  -28.7144  -12.1538   21.4322 H   0  0  0  0  0  0
  -28.4317  -13.8354   21.8063 H   0  0  0  0  0  0
  -25.2757   -9.5690   22.4760 H   0  0  0  0  0  0
  -24.0001   -7.4637   22.7476 H   0  0  0  0  0  0
  -21.0837   -8.8763   19.8955 H   0  0  0  0  0  0
  -22.3682  -10.9670   19.6164 H   0  0  0  0  0  0
  -21.2007   -7.6143   23.9708 H   0  0  0  0  0  0
  -21.1486   -6.0524   25.9075 H   0  0  0  0  0  0
  -22.0597   -2.7602   23.2849 H   0  0  0  0  0  0
  -22.4093  -11.9869   22.4804 H   0  0  0  0  0  0
  -21.1091  -13.1231   22.2640 H   0  0  0  0  0  0
  -24.6495  -15.8433   20.5193 H   0  0  0  0  0  0
  -26.2641  -15.6337   20.0707 H   0  0  0  0  0  0
  -26.7195  -32.5412   23.1087 H   0  0  0  0  0  0
  -25.0081  -33.9703   25.0418 H   0  0  0  0  0  0
  -22.7217  -31.3031   21.3996 H   0  0  0  0  0  0
  -23.3753  -35.9618   23.3304 H   0  0  0  0  0  0
  -24.3581  -36.8906   22.2056 H   0  0  0  0  0  0
  -23.7242  -37.6489   23.6661 H   0  0  0  0  0  0
  -26.1107  -31.5334   20.6115 H   0  0  0  0  0  0
  -26.8497  -30.8196   22.0131 H   0  0  0  0  0  0
  -28.1101  -28.9229   21.2246 H   0  0  0  0  0  0
  -25.9554  -25.9355   18.9562 H   0  0  0  0  0  0
  -23.9769  -27.3279   18.9752 H   0  0  0  0  0  0
  -23.7707  -30.5984   19.4043 H   0  0  0  0  0  0
  -22.7627  -29.2543   19.8489 H   0  0  0  0  0  0
  -25.1295  -36.1927   25.0825 H   0  0  0  0  0  0
  -20.9993  -28.3277   24.1386 H   0  0  0  0  0  0
  -20.5681  -26.2308   23.3611 H   0  0  0  0  0  0
  -21.6647  -26.7436   22.1198 H   0  0  0  0  0  0
  -19.6917  -25.6294   21.1243 H   0  0  0  0  0  0
  -19.6693  -27.3189   20.6738 H   0  0  0  0  0  0
  -17.4204  -26.6674   21.4028 H   0  0  0  0  0  0
  -18.0338  -26.0071   22.9024 H   0  0  0  0  0  0
  -19.7945  -30.7277   24.2254 H   0  0  0  0  0  0
  -17.5023  -31.6264   24.5168 H   0  0  0  0  0  0
  -15.5359  -30.2986   23.7658 H   0  0  0  0  0  0
  -15.8679  -28.0828   22.7057 H   0  0  0  0  0  0
  -24.5908  -30.7065   25.7775 H   0  0  0  0  0  0
  -24.8896  -32.2895   26.4848 H   0  0  0  0  0  0
  -25.8034  -30.8924   27.0238 H   0  0  0  0  0  0
  -26.2942  -29.6739   24.1228 H   0  0  0  0  0  0
  -27.4035  -29.7268   25.4731 H   0  0  0  0  0  0
  -27.8816  -30.4282   23.9458 H   0  0  0  0  0  0
  -27.2671  -33.3631   26.2059 H   0  0  0  0  0  0
  -28.3872  -32.6863   25.0327 H   0  0  0  0  0  0
  -28.0713  -31.8452   26.5428 H   0  0  0  0  0  0
  -28.2598  -38.0096   24.7505 H   0  0  0  0  0  0
  -28.1073  -36.2626   24.6305 H   0  0  0  0  0  0
  -27.2296  -37.1464   25.8871 H   0  0  0  0  0  0
  -20.9393  -29.8783   21.6872 H   0  0  0  0  0  0
  -26.0173  -38.2848   24.1401 H   0  0  0  0  0  0
  -28.8583  -21.9687   22.7294 H   0  0  0  0  0  0
  -29.2267  -19.8905   23.9554 H   0  0  0  0  0  0
  -29.5354  -19.8268   19.0314 H   0  0  0  0  0  0
  -31.2051  -17.3450   19.9512 H   0  0  0  0  0  0
  -29.7038  -17.2755   19.0984 H   0  0  0  0  0  0
  -28.9510  -23.7900   21.6428 H   0  0  0  0  0  0
  -30.0852  -24.0667   20.3627 H   0  0  0  0  0  0
  -28.0770  -24.7945   18.8633 H   0  0  0  0  0  0
  -27.0941  -24.6448   20.2946 H   0  0  0  0  0  0
  -28.8984  -22.2755   19.0242 H   0  0  0  0  0  0
  -28.9099  -15.6796   20.9526 H   0  0  0  0  0  0
  1 25  1  0  0  0
  1 30  2  0  0  0
  1 81  1  0  0  0
  2  3  1  0  0  0
  2 25  1  0  0  0
  2 83  1  0  0  0
  2 84  1  0  0  0
  3  4  1  0  0  0
  3 85  1  0  0  0
  3 86  1  0  0  0
  4  5  1  0  0  0
  4 87  1  0  0  0
  4 88  1  0  0  0
  5  6  1  0  0  0
  5 26  1  0  0  0
  5 89  1  0  0  0
  6 25  1  0  0  0
  6 90  1  0  0  0
  6 91  1  0  0  0
  7  8  2  0  0  0
  7 26  1  0  0  0
  7 29  1  0  0  0
  8  9  1  0  0  0
  8 22  1  0  0  0
  9 10  1  0  0  0
  9 27  2  0  0  0
 10 11  2  0  0  0
 10 15  1  0  0  0
 11 12  1  0  0  0
 11 92  1  0  0  0
 12 13  2  0  0  0
 12 93  1  0  0  0
 13 14  1  0  0  0
 13 31  1  0  0  0
 14 15  2  0  0  0
 14 94  1  0  0  0
 15 95  1  0  0  0
 16 17  2  0  0  0
 16 21  1  0  0  0
 16 31  1  0  0  0
 17 18  1  0  0  0
 17 96  1  0  0  0
 18 19  2  0  0  0
 18 97  1  0  0  0
 19 20  1  0  0  0
 19 24  1  0  0  0
 20 21  2  0  0  0
 20 98  1  0  0  0
 21 23  1  0  0  0
 22 28  1  0  0  0
 22 32  2  0  0  0
 26 27  1  0  0  0
 28 99  1  0  0  0
 28100  1  0  0  0
 29101  1  0  0  0
 29102  1  0  0  0
 33 34  1  0  0  0
 33 66  1  0  0  0
 33 70  2  0  0  0
 34 36  1  0  0  0
 34 59  1  0  0  0
 34103  1  0  0  0
 35 44  2  0  0  0
 35 45  1  0  0  0
 35 68  1  0  0  0
 36 56  1  0  0  0
 36104  1  0  0  0
 37 39  1  0  0  0
 37 47  1  0  0  0
 37 66  1  0  0  0
 37105  1  0  0  0
 38 43  2  0  0  0
 38 46  1  0  0  0
 38 47  1  0  0  0
 39 64  1  0  0  0
 39 67  2  0  0  0
 40 52  1  0  0  0
 40 53  2  0  0  0
 40 58  1  0  0  0
 41106  1  0  0  0
 41107  1  0  0  0
 41108  1  0  0  0
 41 48  1  0  0  0
 42 43  1  0  0  0
 42 66  1  0  0  0
 42109  1  0  0  0
 42110  1  0  0  0
 43 44  1  0  0  0
 44111  1  0  0  0
 45 46  2  0  0  0
 45112  1  0  0  0
 46113  1  0  0  0
 47114  1  0  0  0
 47115  1  0  0  0
 48 56  1  0  0  0
 48 65  1  0  0  0
 48116  1  0  0  0
 49 50  1  0  0  0
 49 53  1  0  0  0
 49 64  1  0  0  0
 49117  1  0  0  0
 50 51  1  0  0  0
 50118  1  0  0  0
 50119  1  0  0  0
 51 52  1  0  0  0
 51120  1  0  0  0
 51121  1  0  0  0
 52122  1  0  0  0
 52123  1  0  0  0
 53 54  1  0  0  0
 54 55  2  0  0  0
 54124  1  0  0  0
 55 57  1  0  0  0
 55125  1  0  0  0
 56 69  2  0  0  0
 57 58  2  0  0  0
 57126  1  0  0  0
 58127  1  0  0  0
 59 60  1  0  0  0
 59 61  1  0  0  0
 59 62  1  0  0  0
 60128  1  0  0  0
 60129  1  0  0  0
 60130  1  0  0  0
 61131  1  0  0  0
 61132  1  0  0  0
 61133  1  0  0  0
 62134  1  0  0  0
 62135  1  0  0  0
 62136  1  0  0  0
 63 65  1  0  0  0
 63137  1  0  0  0
 63138  1  0  0  0
 63139  1  0  0  0
 64140  1  0  0  0
 65141  1  0  0  0
 68 79  1  0  0  0
 71 72  2  0  0  0
 71 75  1  0  0  0
 71142  1  0  0  0
 72 76  1  0  0  0
 72143  1  0  0  0
 73 74  1  0  0  0
 73 75  2  0  0  0
 73144  1  0  0  0
 74 76  2  0  0  0
 74 77  1  0  0  0
 75 80  1  0  0  0
 76 82  1  0  0  0
 77 81  1  0  0  0
 77145  1  0  0  0
 77146  1  0  0  0
 78 79  1  0  0  0
 78 80  1  0  0  0
 78147  1  0  0  0
 78148  1  0  0  0
 79149  1  0  0  0
 79150  1  0  0  0
 80151  1  0  0  0
 81152  1  0  0  0
M  ISO  4   1 100  68 101  79 101  81 100
M  END
> <chiral flag>
0

> <version>
0

> <s_m_source_file>
/data/baiqing/PycharmProjects/Reinvent-master-3.2/result/LINK_invent/BTK/process_docking_weight1_custom_product_contain_oxygen_bond_distance_aromatic_linkinvent_7_9_3/rearranged_h_0002.sdf

> <i_m_source_file_index>
8

> <r_mmod_Potential_Energy-OPLS-2005>
72.1411666870117

> <r_mmod_Stretch_Energy-OPLS-2005>
110.817161560059

> <r_mmod_Bend_Energy-OPLS-2005>
162.112289428711

> <r_mmod_Torsional_Energy-OPLS-2005>
199.569961547852

> <r_mmod_Improper_Torsional_Energy-OPLS-2005>
7.97903776168823

> <r_mmod_Van_der_Waal_Energy-OPLS-2005>
143.40510559082

> <r_mmod_Electrostatic_Energy-OPLS-2005>
-409.109649658203

> <r_mmod_Solvation_Energy-OPLS-2005>
-219.643463134766

> <b_mmod_Minimization_Converged-OPLS-2005>
0

> <r_mmod_RMS_Derivative-OPLS-2005>
0.555490851402283

$$$$
8
                    3D
 Structure written by MMmdl.
154162  0  0  1  0            999 V2000
  -30.6780  -14.4898   20.5275 C   0  0  0  0  0  0
  -30.4246  -12.3105   19.4154 C   0  0  0  0  0  0
  -29.4912  -12.5132   18.2015 C   0  0  0  0  0  0
  -28.0142  -12.3677   18.6146 C   0  0  0  0  0  0
  -27.6618  -13.2061   19.8714 C   0  0  2  0  0  0
  -28.7056  -12.9888   20.9918 C   0  0  0  0  0  0
  -25.2610  -13.8153   20.5680 C   0  0  0  0  0  0
  -24.1843  -13.0448   20.9175 C   0  0  0  0  0  0
  -24.6379  -11.6908   20.8709 C   0  0  0  0  0  0
  -23.9030  -10.4303   21.0370 C   0  0  0  0  0  0
  -24.3599   -9.4224   21.9149 C   0  0  0  0  0  0
  -23.6294   -8.2250   22.0715 C   0  0  0  0  0  0
  -22.4271   -8.0276   21.3524 C   0  0  0  0  0  0
  -21.9906   -9.0234   20.4622 C   0  0  0  0  0  0
  -22.7207  -10.2130   20.3023 C   0  0  0  0  0  0
  -21.6859   -6.0731   22.5268 C   0  0  0  0  0  0
  -21.4023   -6.5625   23.8207 C   0  0  0  0  0  0
  -21.3666   -5.6771   24.9165 C   0  0  0  0  0  0
  -21.6042   -4.3036   24.7214 C   0  0  0  0  0  0
  -21.8819   -3.8128   23.4334 C   0  0  0  0  0  0
  -21.9206   -4.6953   22.3393 C   0  0  0  0  0  0
  -22.7858  -13.5241   21.1856 C   0  0  0  0  0  0
  -22.1669   -4.2133   21.0974 F   0  0  0  0  0  0
  -21.5641   -3.4519   25.7732 F   0  0  0  0  0  0
  -30.0375  -13.2916   20.4436 N   0  0  0  0  0  0
  -26.3032  -12.9313   20.3350 N   0  0  0  0  0  0
  -25.9314  -11.6478   20.5744 N   0  0  0  0  0  0
  -22.0492  -12.8243   22.0412 N   0  0  0  0  0  0
  -25.4383  -15.1869   20.4115 N   0  0  0  0  0  0
  -31.8221  -14.6659   20.0963 O   0  0  0  0  0  0
  -21.6648   -6.8866   21.4224 O   0  0  0  0  0  0
  -22.3525  -14.5535   20.6698 O   0  0  0  0  0  0
  -24.6151  -31.8673   23.2099 C   0  0  0  0  0  0
  -25.9046  -32.4828   23.8387 C   0  0  1  0  0  0
  -27.2355  -27.4395   20.0992 C   0  0  0  0  0  0
  -25.5896  -33.8629   24.2318 N   0  0  0  0  0  0
  -23.4035  -30.4912   21.5502 C   0  0  2  0  0  0
  -24.8488  -28.9543   20.1137 C   0  0  0  0  0  0
  -22.7404  -29.4686   22.5000 C   0  0  0  0  0  0
  -18.0274  -28.1382   22.8506 C   0  0  0  0  0  0
  -24.1485  -36.7312   23.2647 C   0  0  0  0  0  0
  -25.9317  -30.8334   21.3609 C   0  0  0  0  0  0
  -26.0085  -29.4685   20.7079 C   0  0  0  0  0  0
  -27.2095  -28.7221   20.6911 C   0  0  0  0  0  0
  -26.0620  -26.9328   19.5039 C   0  0  0  0  0  0
  -24.8698  -27.6841   19.5079 C   0  0  0  0  0  0
  -23.6079  -29.8205   20.1659 C   0  0  0  0  0  0
  -25.4107  -36.3131   24.0352 C   0  0  1  0  0  0
  -20.5864  -28.3670   23.1324 C   0  0  2  0  0  0
  -20.6766  -26.9399   22.5430 C   0  0  0  0  0  0
  -19.5742  -26.6378   21.5239 C   0  0  0  0  0  0
  -18.1917  -26.7934   22.1634 C   0  0  0  0  0  0
  -19.1521  -28.8845   23.2914 C   0  0  0  0  0  0
  -18.9448  -30.1460   23.8908 C   0  0  0  0  0  0
  -17.6444  -30.6582   24.0587 C   0  0  0  0  0  0
  -25.9035  -34.9492   23.5141 C   0  0  0  0  0  0
  -16.5339  -29.9083   23.6340 C   0  0  0  0  0  0
  -16.7261  -28.6509   23.0345 C   0  0  0  0  0  0
  -26.4449  -31.6638   25.0742 C   0  0  0  0  0  0
  -25.3714  -31.3740   26.1496 C   0  0  0  0  0  0
  -27.0300  -30.3091   24.6142 C   0  0  0  0  0  0
  -27.6031  -32.4358   25.7480 C   0  0  0  0  0  0
  -27.5586  -37.1810   24.8464 C   0  0  0  0  0  0
  -21.4130  -29.3047   22.3742 N   0  0  0  0  0  0
  -26.4290  -37.3813   23.9428 N   0  0  0  0  0  0
  -24.6687  -31.0783   22.0990 N   0  0  0  0  0  0
  -23.4167  -28.8228   23.3047 O   0  0  0  0  0  0
  -28.3837  -26.6807   20.0979 O   0  0  0  0  0  0
  -26.5593  -34.8947   22.4702 O   0  0  0  0  0  0
  -23.5349  -32.1422   23.7504 O   0  0  0  0  0  0
  -29.9742  -16.8794   18.8626 C   0  0  0  0  0  0
  -29.8393  -18.1097   18.1984 C   0  0  0  0  0  0
  -29.5328  -17.9896   20.9824 C   0  0  0  0  0  0
  -29.4086  -19.2510   20.3254 C   0  0  0  0  0  0
  -29.8345  -16.7994   20.2677 C   0  0  0  0  0  0
  -29.5676  -19.2872   18.9159 C   0  0  0  0  0  0
  -29.1187  -20.5057   21.1346 C   0  0  0  0  0  0
  -28.6393  -24.1826   20.1749 C   0  0  0  0  0  0
  -28.5981  -22.9526   21.1233 C   0  0  0  0  0  0
  -28.3242  -25.5049   20.9237 C   0  0  0  0  0  0
  -29.9269  -15.5335   20.9400 N   0  0  0  0  0  0
  -28.9227  -21.6683   20.4807 N   0  0  0  0  0  0
  -29.0520  -20.4485   22.3656 O   0  0  0  0  0  0
  -29.4545  -20.4448   18.2170 F   0  0  0  0  0  0
  -31.4664  -12.4123   19.1034 H   0  0  0  0  0  0
  -30.3311  -11.2953   19.8025 H   0  0  0  0  0  0
  -29.7315  -11.7952   17.4152 H   0  0  0  0  0  0
  -29.6528  -13.5024   17.7673 H   0  0  0  0  0  0
  -27.8280  -11.3097   18.8083 H   0  0  0  0  0  0
  -27.3614  -12.6421   17.7848 H   0  0  0  0  0  0
  -27.7091  -14.2534   19.5703 H   0  0  0  0  0  0
  -28.6815  -11.9531   21.3317 H   0  0  0  0  0  0
  -28.4694  -13.5920   21.8699 H   0  0  0  0  0  0
  -25.2743   -9.5718   22.4727 H   0  0  0  0  0  0
  -24.0013   -7.4639   22.7425 H   0  0  0  0  0  0
  -21.0840   -8.8723   19.8937 H   0  0  0  0  0  0
  -22.3623  -10.9657   19.6131 H   0  0  0  0  0  0
  -21.1993   -7.6131   23.9715 H   0  0  0  0  0  0
  -21.1504   -6.0494   25.9075 H   0  0  0  0  0  0
  -22.0601   -2.7589   23.2834 H   0  0  0  0  0  0
  -22.4128  -11.9926   22.4830 H   0  0  0  0  0  0
  -21.1083  -13.1213   22.2567 H   0  0  0  0  0  0
  -24.6807  -15.8507   20.5294 H   0  0  0  0  0  0
  -26.3003  -15.6228   20.1071 H   0  0  0  0  0  0
  -26.7122  -32.5521   23.1148 H   0  0  0  0  0  0
  -25.0133  -33.9782   25.0522 H   0  0  0  0  0  0
  -22.6955  -31.3117   21.4139 H   0  0  0  0  0  0
  -23.3765  -35.9629   23.3310 H   0  0  0  0  0  0
  -24.3594  -36.8906   22.2062 H   0  0  0  0  0  0
  -23.7187  -37.6507   23.6633 H   0  0  0  0  0  0
  -26.0519  -31.5968   20.5907 H   0  0  0  0  0  0
  -26.8192  -30.8820   21.9817 H   0  0  0  0  0  0
  -28.1075  -29.1206   21.1435 H   0  0  0  0  0  0
  -26.0737  -25.9583   19.0373 H   0  0  0  0  0  0
  -23.9809  -27.2754   19.0485 H   0  0  0  0  0  0
  -23.7088  -30.5950   19.4047 H   0  0  0  0  0  0
  -22.7305  -29.2379   19.8767 H   0  0  0  0  0  0
  -25.1279  -36.2018   25.0837 H   0  0  0  0  0  0
  -20.9974  -28.3217   24.1440 H   0  0  0  0  0  0
  -20.5724  -26.2248   23.3604 H   0  0  0  0  0  0
  -21.6626  -26.7464   22.1195 H   0  0  0  0  0  0
  -19.6893  -25.6300   21.1243 H   0  0  0  0  0  0
  -19.6683  -27.3218   20.6792 H   0  0  0  0  0  0
  -17.4202  -26.6719   21.4013 H   0  0  0  0  0  0
  -18.0280  -26.0072   22.9011 H   0  0  0  0  0  0
  -19.7919  -30.7296   24.2247 H   0  0  0  0  0  0
  -17.4994  -31.6271   24.5188 H   0  0  0  0  0  0
  -15.5343  -30.2991   23.7670 H   0  0  0  0  0  0
  -15.8653  -28.0856   22.7017 H   0  0  0  0  0  0
  -24.5873  -30.7095   25.7828 H   0  0  0  0  0  0
  -24.8925  -32.2905   26.4964 H   0  0  0  0  0  0
  -25.8075  -30.8888   27.0243 H   0  0  0  0  0  0
  -26.2862  -29.6828   24.1199 H   0  0  0  0  0  0
  -27.4081  -29.7348   25.4611 H   0  0  0  0  0  0
  -27.8678  -30.4427   23.9297 H   0  0  0  0  0  0
  -27.2658  -33.3653   26.2080 H   0  0  0  0  0  0
  -28.3807  -32.6925   25.0272 H   0  0  0  0  0  0
  -28.0738  -31.8476   26.5369 H   0  0  0  0  0  0
  -28.2616  -38.0102   24.7573 H   0  0  0  0  0  0
  -28.1073  -36.2650   24.6226 H   0  0  0  0  0  0
  -27.2332  -37.1400   25.8872 H   0  0  0  0  0  0
  -20.9270  -29.8739   21.6953 H   0  0  0  0  0  0
  -26.0196  -38.2904   24.1418 H   0  0  0  0  0  0
  -30.1759  -15.9994   18.2680 H   0  0  0  0  0  0
  -29.9423  -18.1530   17.1242 H   0  0  0  0  0  0
  -29.4007  -17.9418   22.0536 H   0  0  0  0  0  0
  -27.9244  -24.0493   19.3609 H   0  0  0  0  0  0
  -29.6235  -24.2588   19.7101 H   0  0  0  0  0  0
  -27.6033  -22.8672   21.5637 H   0  0  0  0  0  0
  -29.2852  -23.1144   21.9571 H   0  0  0  0  0  0
  -29.0578  -25.6471   21.7185 H   0  0  0  0  0  0
  -27.3583  -25.4086   21.4263 H   0  0  0  0  0  0
  -29.1552  -15.3034   21.5488 H   0  0  0  0  0  0
  -28.9940  -21.6310   19.4677 H   0  0  0  0  0  0
  1 25  1  0  0  0
  1 30  2  0  0  0
  1 81  1  0  0  0
  2  3  1  0  0  0
  2 25  1  0  0  0
  2 85  1  0  0  0
  2 86  1  0  0  0
  3  4  1  0  0  0
  3 87  1  0  0  0
  3 88  1  0  0  0
  4  5  1  0  0  0
  4 89  1  0  0  0
  4 90  1  0  0  0
  5  6  1  0  0  0
  5 26  1  0  0  0
  5 91  1  0  0  0
  6 25  1  0  0  0
  6 92  1  0  0  0
  6 93  1  0  0  0
  7  8  2  0  0  0
  7 26  1  0  0  0
  7 29  1  0  0  0
  8  9  1  0  0  0
  8 22  1  0  0  0
  9 10  1  0  0  0
  9 27  2  0  0  0
 10 11  2  0  0  0
 10 15  1  0  0  0
 11 12  1  0  0  0
 11 94  1  0  0  0
 12 13  2  0  0  0
 12 95  1  0  0  0
 13 14  1  0  0  0
 13 31  1  0  0  0
 14 15  2  0  0  0
 14 96  1  0  0  0
 15 97  1  0  0  0
 16 17  2  0  0  0
 16 21  1  0  0  0
 16 31  1  0  0  0
 17 18  1  0  0  0
 17 98  1  0  0  0
 18 19  2  0  0  0
 18 99  1  0  0  0
 19 20  1  0  0  0
 19 24  1  0  0  0
 20 21  2  0  0  0
 20100  1  0  0  0
 21 23  1  0  0  0
 22 28  1  0  0  0
 22 32  2  0  0  0
 26 27  1  0  0  0
 28101  1  0  0  0
 28102  1  0  0  0
 29103  1  0  0  0
 29104  1  0  0  0
 33 34  1  0  0  0
 33 66  1  0  0  0
 33 70  2  0  0  0
 34 36  1  0  0  0
 34 59  1  0  0  0
 34105  1  0  0  0
 35 44  2  0  0  0
 35 45  1  0  0  0
 35 68  1  0  0  0
 36 56  1  0  0  0
 36106  1  0  0  0
 37 39  1  0  0  0
 37 47  1  0  0  0
 37 66  1  0  0  0
 37107  1  0  0  0
 38 43  2  0  0  0
 38 46  1  0  0  0
 38 47  1  0  0  0
 39 64  1  0  0  0
 39 67  2  0  0  0
 40 52  1  0  0  0
 40 53  2  0  0  0
 40 58  1  0  0  0
 41108  1  0  0  0
 41109  1  0  0  0
 41110  1  0  0  0
 41 48  1  0  0  0
 42 43  1  0  0  0
 42 66  1  0  0  0
 42111  1  0  0  0
 42112  1  0  0  0
 43 44  1  0  0  0
 44113  1  0  0  0
 45 46  2  0  0  0
 45114  1  0  0  0
 46115  1  0  0  0
 47116  1  0  0  0
 47117  1  0  0  0
 48 56  1  0  0  0
 48 65  1  0  0  0
 48118  1  0  0  0
 49 50  1  0  0  0
 49 53  1  0  0  0
 49 64  1  0  0  0
 49119  1  0  0  0
 50 51  1  0  0  0
 50120  1  0  0  0
 50121  1  0  0  0
 51 52  1  0  0  0
 51122  1  0  0  0
 51123  1  0  0  0
 52124  1  0  0  0
 52125  1  0  0  0
 53 54  1  0  0  0
 54 55  2  0  0  0
 54126  1  0  0  0
 55 57  1  0  0  0
 55127  1  0  0  0
 56 69  2  0  0  0
 57 58  2  0  0  0
 57128  1  0  0  0
 58129  1  0  0  0
 59 60  1  0  0  0
 59 61  1  0  0  0
 59 62  1  0  0  0
 60130  1  0  0  0
 60131  1  0  0  0
 60132  1  0  0  0
 61133  1  0  0  0
 61134  1  0  0  0
 61135  1  0  0  0
 62136  1  0  0  0
 62137  1  0  0  0
 62138  1  0  0  0
 63 65  1  0  0  0
 63139  1  0  0  0
 63140  1  0  0  0
 63141  1  0  0  0
 64142  1  0  0  0
 65143  1  0  0  0
 68 80  1  0  0  0
 71 72  2  0  0  0
 71 75  1  0  0  0
 71144  1  0  0  0
 72 76  1  0  0  0
 72145  1  0  0  0
 73 74  1  0  0  0
 73 75  2  0  0  0
 73146  1  0  0  0
 74 76  2  0  0  0
 74 77  1  0  0  0
 75 81  1  0  0  0
 76 84  1  0  0  0
 77 82  1  0  0  0
 77 83  2  0  0  0
 78 79  1  0  0  0
 78 80  1  0  0  0
 78147  1  0  0  0
 78148  1  0  0  0
 79 82  1  0  0  0
 79149  1  0  0  0
 79150  1  0  0  0
 80151  1  0  0  0
 80152  1  0  0  0
 81153  1  0  0  0
 82154  1  0  0  0
M  ISO  4   1 100  68 101  80 101  81 100
M  END
> <chiral flag>
0

> <version>
0

> <s_m_source_file>
/data/baiqing/PycharmProjects/Reinvent-master-3.2/result/LINK_invent/BTK/process_docking_weight1_custom_product_contain_oxygen_bond_distance_aromatic_linkinvent_7_9_3/rearranged_h_0002.sdf

> <i_m_source_file_index>
9

> <r_mmod_Potential_Energy-OPLS-2005>
-77.5048828125

> <r_mmod_Stretch_Energy-OPLS-2005>
40.3700637817383

> <r_mmod_Bend_Energy-OPLS-2005>
91.4797744750977

> <r_mmod_Torsional_Energy-OPLS-2005>
265.756072998047

> <r_mmod_Improper_Torsional_Energy-OPLS-2005>
5.53013896942139

> <r_mmod_Van_der_Waal_Energy-OPLS-2005>
156.068145751953

> <r_mmod_Electrostatic_Energy-OPLS-2005>
-429.374847412109

> <r_mmod_Solvation_Energy-OPLS-2005>
-221.592712402344

> <b_mmod_Minimization_Converged-OPLS-2005>
0

> <r_mmod_RMS_Derivative-OPLS-2005>
2.80200028419495

$$$$
9
                    3D
 Structure written by MMmdl.
151159  0  0  1  0            999 V2000
  -30.6183  -14.6884   20.5139 C   0  0  0  0  0  0
  -30.4359  -12.4337   19.4638 C   0  0  0  0  0  0
  -29.5135  -12.5566   18.2311 C   0  0  0  0  0  0
  -28.0372  -12.3840   18.6297 C   0  0  0  0  0  0
  -27.6555  -13.2329   19.8715 C   0  0  2  0  0  0
  -28.6981  -13.0967   21.0054 C   0  0  0  0  0  0
  -25.2556  -13.8210   20.5713 C   0  0  0  0  0  0
  -24.1819  -13.0449   20.9188 C   0  0  0  0  0  0
  -24.6435  -11.6934   20.8744 C   0  0  0  0  0  0
  -23.9092  -10.4291   21.0363 C   0  0  0  0  0  0
  -24.3651   -9.4206   21.9131 C   0  0  0  0  0  0
  -23.6309   -8.2257   22.0720 C   0  0  0  0  0  0
  -22.4288   -8.0293   21.3541 C   0  0  0  0  0  0
  -21.9934   -9.0258   20.4628 C   0  0  0  0  0  0
  -22.7273  -10.2129   20.3016 C   0  0  0  0  0  0
  -21.6874   -6.0737   22.5277 C   0  0  0  0  0  0
  -21.4030   -6.5634   23.8203 C   0  0  0  0  0  0
  -21.3679   -5.6772   24.9165 C   0  0  0  0  0  0
  -21.6040   -4.3054   24.7207 C   0  0  0  0  0  0
  -21.8837   -3.8139   23.4323 C   0  0  0  0  0  0
  -21.9204   -4.6962   22.3389 C   0  0  0  0  0  0
  -22.7831  -13.5241   21.1808 C   0  0  0  0  0  0
  -22.1651   -4.2152   21.0969 F   0  0  0  0  0  0
  -21.5636   -3.4527   25.7714 F   0  0  0  0  0  0
  -30.0159  -13.4528   20.4529 N   0  0  0  0  0  0
  -26.3007  -12.9411   20.3353 N   0  0  0  0  0  0
  -25.9377  -11.6563   20.5761 N   0  0  0  0  0  0
  -22.0454  -12.8264   22.0419 N   0  0  0  0  0  0
  -25.4261  -15.1926   20.4188 N   0  0  0  0  0  0
  -31.7466  -14.8581   20.0396 O   0  0  0  0  0  0
  -21.6664   -6.8882   21.4224 O   0  0  0  0  0  0
  -22.3495  -14.5516   20.6631 O   0  0  0  0  0  0
  -24.6263  -31.8598   23.1996 C   0  0  0  0  0  0
  -25.9118  -32.4779   23.8327 C   0  0  1  0  0  0
  -27.2440  -27.3066   20.1323 C   0  0  0  0  0  0
  -25.5949  -33.8587   24.2276 N   0  0  0  0  0  0
  -23.4204  -30.4782   21.5458 C   0  0  2  0  0  0
  -24.8716  -28.9196   20.1219 C   0  0  0  0  0  0
  -22.7472  -29.4642   22.4998 C   0  0  0  0  0  0
  -18.0303  -28.1373   22.8479 C   0  0  0  0  0  0
  -24.1504  -36.7279   23.2632 C   0  0  0  0  0  0
  -25.9629  -30.7810   21.3774 C   0  0  0  0  0  0
  -26.0393  -29.4068   20.7226 C   0  0  0  0  0  0
  -27.2260  -28.6130   20.7158 C   0  0  0  0  0  0
  -26.0486  -26.8692   19.5151 C   0  0  0  0  0  0
  -24.8787  -27.6550   19.5111 C   0  0  0  0  0  0
  -23.6351  -29.7970   20.1681 C   0  0  0  0  0  0
  -25.4137  -36.3092   24.0332 C   0  0  1  0  0  0
  -20.5892  -28.3685   23.1288 C   0  0  2  0  0  0
  -20.6825  -26.9422   22.5401 C   0  0  0  0  0  0
  -19.5800  -26.6366   21.5226 C   0  0  0  0  0  0
  -18.1971  -26.7919   22.1604 C   0  0  0  0  0  0
  -19.1543  -28.8850   23.2867 C   0  0  0  0  0  0
  -18.9471  -30.1464   23.8859 C   0  0  0  0  0  0
  -17.6464  -30.6574   24.0553 C   0  0  0  0  0  0
  -25.9078  -34.9468   23.5103 C   0  0  0  0  0  0
  -16.5364  -29.9063   23.6332 C   0  0  0  0  0  0
  -16.7285  -28.6480   23.0351 C   0  0  0  0  0  0
  -26.4481  -31.6589   25.0709 C   0  0  0  0  0  0
  -25.3699  -31.3732   26.1424 C   0  0  0  0  0  0
  -27.0354  -30.3025   24.6179 C   0  0  0  0  0  0
  -27.6045  -32.4320   25.7470 C   0  0  0  0  0  0
  -27.5609  -37.1794   24.8455 C   0  0  0  0  0  0
  -21.4202  -29.3019   22.3689 N   0  0  0  0  0  0
  -26.4304  -37.3797   23.9413 N   0  0  0  0  0  0
  -24.6886  -31.0584   22.0967 N   0  0  0  0  0  0
  -23.4166  -28.8224   23.3136 O   0  0  0  0  0  0
  -28.3839  -26.4785   20.1614 O   0  0  0  0  0  0
  -26.5641  -34.8918   22.4668 O   0  0  0  0  0  0
  -23.5438  -32.1430   23.7307 O   0  0  0  0  0  0
  -30.3063  -17.7857   19.5591 C   0  0  0  0  0  0
  -29.3834  -18.0960   21.7608 C   0  0  0  0  0  0
  -30.1503  -19.1846   19.3131 C   0  0  0  0  0  0
  -29.2632  -19.5058   21.5264 C   0  0  0  0  0  0
  -29.9033  -17.1873   20.7885 C   0  0  0  0  0  0
  -29.6223  -20.0930   20.2781 C   0  0  0  0  0  0
  -29.4960  -24.0739   20.3620 C   0  0  0  0  0  0
  -29.4037  -22.5508   20.8796 C   0  0  0  0  0  0
  -28.2090  -25.0020   20.2058 C   0  0  0  0  0  0
  -29.8978  -15.7332   21.0433 N   0  0  0  0  0  0
  -29.4531  -21.4503   19.9079 O   0  0  0  0  0  0
  -31.4753  -12.5568   19.1615 H   0  0  0  0  0  0
  -30.3658  -11.4324   19.8887 H   0  0  0  0  0  0
  -29.7913  -11.8247   17.4695 H   0  0  0  0  0  0
  -29.6525  -13.5380   17.7753 H   0  0  0  0  0  0
  -27.8735  -11.3263   18.8296 H   0  0  0  0  0  0
  -27.3910  -12.6356   17.7882 H   0  0  0  0  0  0
  -27.6693  -14.2727   19.5484 H   0  0  0  0  0  0
  -28.7155  -12.0734   21.3863 H   0  0  0  0  0  0
  -28.4291  -13.7289   21.8511 H   0  0  0  0  0  0
  -25.2775   -9.5720   22.4711 H   0  0  0  0  0  0
  -24.0047   -7.4666   22.7467 H   0  0  0  0  0  0
  -21.0850   -8.8770   19.8950 H   0  0  0  0  0  0
  -22.3685  -10.9673   19.6153 H   0  0  0  0  0  0
  -21.2008   -7.6126   23.9721 H   0  0  0  0  0  0
  -21.1483   -6.0488   25.9079 H   0  0  0  0  0  0
  -22.0594   -2.7597   23.2816 H   0  0  0  0  0  0
  -22.4062  -11.9965   22.4895 H   0  0  0  0  0  0
  -21.1051  -13.1241   22.2523 H   0  0  0  0  0  0
  -24.6665  -15.8532   20.5436 H   0  0  0  0  0  0
  -26.2856  -15.6363   20.1247 H   0  0  0  0  0  0
  -26.7180  -32.5417   23.1067 H   0  0  0  0  0  0
  -25.0177  -33.9724   25.0473 H   0  0  0  0  0  0
  -22.7144  -31.2989   21.3978 H   0  0  0  0  0  0
  -23.3803  -35.9568   23.3274 H   0  0  0  0  0  0
  -24.3602  -36.8921   22.2046 H   0  0  0  0  0  0
  -23.7201  -37.6453   23.6661 H   0  0  0  0  0  0
  -26.1067  -31.5404   20.6075 H   0  0  0  0  0  0
  -26.8363  -30.8237   22.0166 H   0  0  0  0  0  0
  -28.1177  -28.9868   21.2001 H   0  0  0  0  0  0
  -25.9934  -25.9038   19.0360 H   0  0  0  0  0  0
  -23.9843  -27.2690   19.0415 H   0  0  0  0  0  0
  -23.7403  -30.5632   19.4004 H   0  0  0  0  0  0
  -22.7556  -29.2188   19.8770 H   0  0  0  0  0  0
  -25.1316  -36.1953   25.0827 H   0  0  0  0  0  0
  -20.9965  -28.3272   24.1415 H   0  0  0  0  0  0
  -20.5799  -26.2308   23.3595 H   0  0  0  0  0  0
  -21.6692  -26.7520   22.1159 H   0  0  0  0  0  0
  -19.6998  -25.6281   21.1261 H   0  0  0  0  0  0
  -19.6737  -27.3157   20.6745 H   0  0  0  0  0  0
  -17.4273  -26.6667   21.3983 H   0  0  0  0  0  0
  -18.0346  -26.0029   22.8950 H   0  0  0  0  0  0
  -19.7957  -30.7303   24.2150 H   0  0  0  0  0  0
  -17.5032  -31.6249   24.5162 H   0  0  0  0  0  0
  -15.5365  -30.2946   23.7697 H   0  0  0  0  0  0
  -15.8687  -28.0785   22.7088 H   0  0  0  0  0  0
  -24.5841  -30.7139   25.7725 H   0  0  0  0  0  0
  -24.8923  -32.2906   26.4872 H   0  0  0  0  0  0
  -25.7975  -30.8855   27.0188 H   0  0  0  0  0  0
  -26.2957  -29.6747   24.1210 H   0  0  0  0  0  0
  -27.4094  -29.7292   25.4666 H   0  0  0  0  0  0
  -27.8785  -30.4337   23.9399 H   0  0  0  0  0  0
  -27.2672  -33.3616   26.2050 H   0  0  0  0  0  0
  -28.3834  -32.6889   25.0286 H   0  0  0  0  0  0
  -28.0734  -31.8453   26.5370 H   0  0  0  0  0  0
  -28.2593  -38.0129   24.7612 H   0  0  0  0  0  0
  -28.1151  -36.2687   24.6170 H   0  0  0  0  0  0
  -27.2338  -37.1292   25.8850 H   0  0  0  0  0  0
  -20.9436  -29.8639   21.6781 H   0  0  0  0  0  0
  -26.0207  -38.2871   24.1430 H   0  0  0  0  0  0
  -30.7036  -17.1789   18.7545 H   0  0  0  0  0  0
  -29.0400  -17.7192   22.7203 H   0  0  0  0  0  0
  -30.4406  -19.5683   18.3432 H   0  0  0  0  0  0
  -28.8440  -20.1135   22.3196 H   0  0  0  0  0  0
  -30.0759  -24.0950   19.4386 H   0  0  0  0  0  0
  -30.1279  -24.5954   21.0820 H   0  0  0  0  0  0
  -28.5720  -22.4378   21.5775 H   0  0  0  0  0  0
  -30.3014  -22.3971   21.4825 H   0  0  0  0  0  0
  -27.5390  -24.7864   21.0384 H   0  0  0  0  0  0
  -27.7049  -24.6696   19.3012 H   0  0  0  0  0  0
  -29.1493  -15.4223   21.6469 H   0  0  0  0  0  0
  1 25  1  0  0  0
  1 30  2  0  0  0
  1 80  1  0  0  0
  2  3  1  0  0  0
  2 25  1  0  0  0
  2 82  1  0  0  0
  2 83  1  0  0  0
  3  4  1  0  0  0
  3 84  1  0  0  0
  3 85  1  0  0  0
  4  5  1  0  0  0
  4 86  1  0  0  0
  4 87  1  0  0  0
  5  6  1  0  0  0
  5 26  1  0  0  0
  5 88  1  0  0  0
  6 25  1  0  0  0
  6 89  1  0  0  0
  6 90  1  0  0  0
  7  8  2  0  0  0
  7 26  1  0  0  0
  7 29  1  0  0  0
  8  9  1  0  0  0
  8 22  1  0  0  0
  9 10  1  0  0  0
  9 27  2  0  0  0
 10 11  2  0  0  0
 10 15  1  0  0  0
 11 12  1  0  0  0
 11 91  1  0  0  0
 12 13  2  0  0  0
 12 92  1  0  0  0
 13 14  1  0  0  0
 13 31  1  0  0  0
 14 15  2  0  0  0
 14 93  1  0  0  0
 15 94  1  0  0  0
 16 17  2  0  0  0
 16 21  1  0  0  0
 16 31  1  0  0  0
 17 18  1  0  0  0
 17 95  1  0  0  0
 18 19  2  0  0  0
 18 96  1  0  0  0
 19 20  1  0  0  0
 19 24  1  0  0  0
 20 21  2  0  0  0
 20 97  1  0  0  0
 21 23  1  0  0  0
 22 28  1  0  0  0
 22 32  2  0  0  0
 26 27  1  0  0  0
 28 98  1  0  0  0
 28 99  1  0  0  0
 29100  1  0  0  0
 29101  1  0  0  0
 33 34  1  0  0  0
 33 66  1  0  0  0
 33 70  2  0  0  0
 34 36  1  0  0  0
 34 59  1  0  0  0
 34102  1  0  0  0
 35 44  2  0  0  0
 35 45  1  0  0  0
 35 68  1  0  0  0
 36 56  1  0  0  0
 36103  1  0  0  0
 37 39  1  0  0  0
 37 47  1  0  0  0
 37 66  1  0  0  0
 37104  1  0  0  0
 38 43  2  0  0  0
 38 46  1  0  0  0
 38 47  1  0  0  0
 39 64  1  0  0  0
 39 67  2  0  0  0
 40 52  1  0  0  0
 40 53  2  0  0  0
 40 58  1  0  0  0
 41105  1  0  0  0
 41106  1  0  0  0
 41107  1  0  0  0
 41 48  1  0  0  0
 42 43  1  0  0  0
 42 66  1  0  0  0
 42108  1  0  0  0
 42109  1  0  0  0
 43 44  1  0  0  0
 44110  1  0  0  0
 45 46  2  0  0  0
 45111  1  0  0  0
 46112  1  0  0  0
 47113  1  0  0  0
 47114  1  0  0  0
 48 56  1  0  0  0
 48 65  1  0  0  0
 48115  1  0  0  0
 49 50  1  0  0  0
 49 53  1  0  0  0
 49 64  1  0  0  0
 49116  1  0  0  0
 50 51  1  0  0  0
 50117  1  0  0  0
 50118  1  0  0  0
 51 52  1  0  0  0
 51119  1  0  0  0
 51120  1  0  0  0
 52121  1  0  0  0
 52122  1  0  0  0
 53 54  1  0  0  0
 54 55  2  0  0  0
 54123  1  0  0  0
 55 57  1  0  0  0
 55124  1  0  0  0
 56 69  2  0  0  0
 57 58  2  0  0  0
 57125  1  0  0  0
 58126  1  0  0  0
 59 60  1  0  0  0
 59 61  1  0  0  0
 59 62  1  0  0  0
 60127  1  0  0  0
 60128  1  0  0  0
 60129  1  0  0  0
 61130  1  0  0  0
 61131  1  0  0  0
 61132  1  0  0  0
 62133  1  0  0  0
 62134  1  0  0  0
 62135  1  0  0  0
 63 65  1  0  0  0
 63136  1  0  0  0
 63137  1  0  0  0
 63138  1  0  0  0
 64139  1  0  0  0
 65140  1  0  0  0
 68 79  1  0  0  0
 71 73  2  0  0  0
 71 75  1  0  0  0
 71141  1  0  0  0
 72 74  1  0  0  0
 72 75  2  0  0  0
 72142  1  0  0  0
 73 76  1  0  0  0
 73143  1  0  0  0
 74 76  2  0  0  0
 74144  1  0  0  0
 75 80  1  0  0  0
 76 81  1  0  0  0
 77 78  1  0  0  0
 77 79  1  0  0  0
 77145  1  0  0  0
 77146  1  0  0  0
 78 81  1  0  0  0
 78147  1  0  0  0
 78148  1  0  0  0
 79149  1  0  0  0
 79150  1  0  0  0
 80151  1  0  0  0
M  ISO  4   1 100  68 101  79 101  80 100
M  END
> <chiral flag>
0

> <version>
0

> <s_m_source_file>
/data/baiqing/PycharmProjects/Reinvent-master-3.2/result/LINK_invent/BTK/process_docking_weight1_custom_product_contain_oxygen_bond_distance_aromatic_linkinvent_7_9_3/rearranged_h_0002.sdf

> <i_m_source_file_index>
10

> <r_mmod_Potential_Energy-OPLS-2005>
87.3086853027344

> <r_mmod_Stretch_Energy-OPLS-2005>
91.08984375

> <r_mmod_Bend_Energy-OPLS-2005>
159.319290161133

> <r_mmod_Torsional_Energy-OPLS-2005>
236.013916015625

> <r_mmod_Improper_Torsional_Energy-OPLS-2005>
3.05807876586914

> <r_mmod_Van_der_Waal_Energy-OPLS-2005>
138.714782714844

> <r_mmod_Electrostatic_Energy-OPLS-2005>
-383.976654052734

> <r_mmod_Solvation_Energy-OPLS-2005>
-214.270523071289

> <b_mmod_Minimization_Converged-OPLS-2005>
0

> <r_mmod_RMS_Derivative-OPLS-2005>
5.72391843795776

$$$$
10
                    3D
 Structure written by MMmdl.
191201  0  0  1  0            999 V2000
  -30.6792  -14.4182   20.6604 C   0  0  0  0  0  0
  -30.4274  -12.3025   19.4011 C   0  0  0  0  0  0
  -29.5025  -12.5546   18.1969 C   0  0  0  0  0  0
  -28.0229  -12.3998   18.6002 C   0  0  0  0  0  0
  -27.6685  -13.1989   19.8831 C   0  0  2  0  0  0
  -28.7001  -12.9071   20.9912 C   0  0  0  0  0  0
  -25.2589  -13.8101   20.5553 C   0  0  0  0  0  0
  -24.1861  -13.0382   20.9163 C   0  0  0  0  0  0
  -24.6417  -11.6835   20.8692 C   0  0  0  0  0  0
  -23.9051  -10.4242   21.0348 C   0  0  0  0  0  0
  -24.3614   -9.4187   21.9155 C   0  0  0  0  0  0
  -23.6315   -8.2208   22.0739 C   0  0  0  0  0  0
  -22.4275   -8.0270   21.3546 C   0  0  0  0  0  0
  -21.9888   -9.0211   20.4613 C   0  0  0  0  0  0
  -22.7205  -10.2098   20.3005 C   0  0  0  0  0  0
  -21.6852   -6.0721   22.5278 C   0  0  0  0  0  0
  -21.3994   -6.5603   23.8209 C   0  0  0  0  0  0
  -21.3658   -5.6759   24.9177 C   0  0  0  0  0  0
  -21.6060   -4.3023   24.7215 C   0  0  0  0  0  0
  -21.8843   -3.8121   23.4325 C   0  0  0  0  0  0
  -21.9203   -4.6949   22.3391 C   0  0  0  0  0  0
  -22.7912  -13.5197   21.1834 C   0  0  0  0  0  0
  -22.1694   -4.2130   21.0983 F   0  0  0  0  0  0
  -21.5627   -3.4511   25.7722 F   0  0  0  0  0  0
  -30.0322  -13.2430   20.4609 N   0  0  0  0  0  0
  -26.3046  -12.9282   20.3307 N   0  0  0  0  0  0
  -25.9337  -11.6425   20.5705 N   0  0  0  0  0  0
  -22.0536  -12.8197   22.0393 N   0  0  0  0  0  0
  -25.4203  -15.1804   20.3867 N   0  0  0  0  0  0
  -31.7676  -14.6902   20.1453 O   0  0  0  0  0  0
  -21.6635   -6.8875   21.4249 O   0  0  0  0  0  0
  -22.3572  -14.5519   20.6709 O   0  0  0  0  0  0
  -24.6126  -31.8673   23.2064 C   0  0  0  0  0  0
  -25.9004  -32.4808   23.8360 C   0  0  1  0  0  0
  -27.2470  -27.4307   20.0950 C   0  0  0  0  0  0
  -25.5836  -33.8623   24.2257 N   0  0  0  0  0  0
  -23.3983  -30.4855   21.5521 C   0  0  2  0  0  0
  -24.8405  -28.9324   20.1285 C   0  0  0  0  0  0
  -22.7362  -29.4691   22.5088 C   0  0  0  0  0  0
  -18.0257  -28.1409   22.8493 C   0  0  0  0  0  0
  -24.1469  -36.7341   23.2638 C   0  0  0  0  0  0
  -25.9210  -30.8278   21.3521 C   0  0  0  0  0  0
  -25.9998  -29.4558   20.7123 C   0  0  0  0  0  0
  -27.2004  -28.7118   20.6921 C   0  0  0  0  0  0
  -26.0648  -26.9097   19.5202 C   0  0  0  0  0  0
  -24.8669  -27.6575   19.5331 C   0  0  0  0  0  0
  -23.5971  -29.7956   20.1747 C   0  0  0  0  0  0
  -25.4093  -36.3116   24.0321 C   0  0  1  0  0  0
  -20.5836  -28.3687   23.1335 C   0  0  2  0  0  0
  -20.6766  -26.9439   22.5416 C   0  0  0  0  0  0
  -19.5742  -26.6411   21.5216 C   0  0  0  0  0  0
  -18.1918  -26.7952   22.1628 C   0  0  0  0  0  0
  -19.1504  -28.8863   23.2907 C   0  0  0  0  0  0
  -18.9448  -30.1475   23.8908 C   0  0  0  0  0  0
  -17.6456  -30.6608   24.0577 C   0  0  0  0  0  0
  -25.9028  -34.9476   23.5107 C   0  0  0  0  0  0
  -16.5341  -29.9112   23.6348 C   0  0  0  0  0  0
  -16.7247  -28.6539   23.0338 C   0  0  0  0  0  0
  -26.4400  -31.6610   25.0723 C   0  0  0  0  0  0
  -25.3668  -31.3728   26.1483 C   0  0  0  0  0  0
  -27.0198  -30.3041   24.6100 C   0  0  0  0  0  0
  -27.5930  -32.4376   25.7509 C   0  0  0  0  0  0
  -27.5569  -37.1821   24.8456 C   0  0  0  0  0  0
  -21.4109  -29.3036   22.3734 N   0  0  0  0  0  0
  -26.4278  -37.3804   23.9405 N   0  0  0  0  0  0
  -24.6631  -31.0741   22.0957 N   0  0  0  0  0  0
  -23.4110  -28.8298   23.3193 O   0  0  0  0  0  0
  -28.4585  -26.7679   20.0485 O   0  0  0  0  0  0
  -26.5631  -34.8944   22.4694 O   0  0  0  0  0  0
  -23.5315  -32.1416   23.7462 O   0  0  0  0  0  0
  -32.5010  -22.0305   15.0145 C   0  0  0  0  0  0
  -33.3636  -21.7275   16.0844 C   0  0  0  0  0  0
  -31.1257  -21.7560   15.1231 C   0  0  0  0  0  0
  -32.8507  -21.1591   17.2648 C   0  0  0  0  0  0
  -30.6110  -21.1802   16.3020 C   0  0  0  0  0  0
  -31.4705  -20.8702   17.3808 C   0  0  0  0  0  0
  -31.5693  -24.8726   22.1442 C   0  0  0  0  0  0
  -30.9547  -25.7618   21.0696 C   0  0  0  0  0  0
  -31.4657  -23.4827   21.5343 C   0  0  0  0  0  0
  -31.6918  -19.0252   19.1681 C   0  0  0  0  0  0
  -30.6419  -20.0945   21.0092 C   0  0  0  0  0  0
  -30.9058  -20.2393   18.6528 C   0  0  1  0  0  0
  -30.9022  -21.1331   19.8924 C   0  0  1  0  0  0
  -29.9805  -24.8596   20.2706 C   0  0  2  0  0  0
  -30.2832  -18.1129   23.9588 C   0  0  0  0  0  0
  -28.1498  -17.4932   22.7946 C   0  0  0  0  0  0
  -29.4416  -15.7957   24.0630 C   0  0  0  0  0  0
  -29.9322  -22.3571   19.8279 C   0  0  0  0  0  0
  -28.5006  -25.3490   20.2730 C   0  0  0  0  0  0
  -30.2378  -17.6197   20.5910 C   0  0  0  0  0  0
  -30.4059  -16.6553   21.8146 C   0  0  1  0  0  0
  -29.5870  -17.0207   23.1202 C   0  0  0  0  0  0
  -29.9879  -15.3137   21.3914 N   0  0  0  0  0  0
  -31.1776  -18.7799   20.5379 N   0  3  1  0  0  0
  -30.1691  -23.4706   20.8097 N   0  3  1  0  0  0
  -31.4685  -12.4298   19.1057 H   0  0  0  0  0  0
  -30.3354  -11.2679   19.7362 H   0  0  0  0  0  0
  -29.7490  -11.8831   17.3731 H   0  0  0  0  0  0
  -29.6785  -13.5630   17.8243 H   0  0  0  0  0  0
  -27.8417  -11.3391   18.7672 H   0  0  0  0  0  0
  -27.3742  -12.7037   17.7793 H   0  0  0  0  0  0
  -27.7263  -14.2585   19.6369 H   0  0  0  0  0  0
  -28.6765  -11.8464   21.2446 H   0  0  0  0  0  0
  -28.4479  -13.4303   21.9132 H   0  0  0  0  0  0
  -25.2766   -9.5636   22.4732 H   0  0  0  0  0  0
  -23.9998   -7.4571   22.7432 H   0  0  0  0  0  0
  -21.0824   -8.8689   19.8926 H   0  0  0  0  0  0
  -22.3632  -10.9627   19.6090 H   0  0  0  0  0  0
  -21.1957   -7.6095   23.9708 H   0  0  0  0  0  0
  -21.1484   -6.0480   25.9083 H   0  0  0  0  0  0
  -22.0622   -2.7581   23.2830 H   0  0  0  0  0  0
  -22.4155  -11.9911   22.4859 H   0  0  0  0  0  0
  -21.1136  -13.1210   22.2520 H   0  0  0  0  0  0
  -24.6326  -15.8161   20.4621 H   0  0  0  0  0  0
  -26.2519  -15.6312   20.0268 H   0  0  0  0  0  0
  -26.7090  -32.5485   23.1140 H   0  0  0  0  0  0
  -24.9905  -33.9775   25.0340 H   0  0  0  0  0  0
  -22.6887  -31.3034   21.4089 H   0  0  0  0  0  0
  -23.3722  -35.9688   23.3299 H   0  0  0  0  0  0
  -24.3545  -36.8971   22.2053 H   0  0  0  0  0  0
  -23.7244  -37.6551   23.6670 H   0  0  0  0  0  0
  -26.0158  -31.5811   20.5697 H   0  0  0  0  0  0
  -26.8148  -30.8975   21.9587 H   0  0  0  0  0  0
  -28.0979  -29.1189   21.1350 H   0  0  0  0  0  0
  -26.0641  -25.9439   19.0355 H   0  0  0  0  0  0
  -23.9718  -27.2460   19.0849 H   0  0  0  0  0  0
  -23.6812  -30.5553   19.3972 H   0  0  0  0  0  0
  -22.7213  -29.2016   19.9049 H   0  0  0  0  0  0
  -25.1278  -36.1975   25.0818 H   0  0  0  0  0  0
  -20.9905  -28.3272   24.1465 H   0  0  0  0  0  0
  -20.5704  -26.2313   23.3606 H   0  0  0  0  0  0
  -21.6635  -26.7538   22.1183 H   0  0  0  0  0  0
  -19.6923  -25.6320   21.1247 H   0  0  0  0  0  0
  -19.6680  -27.3219   20.6738 H   0  0  0  0  0  0
  -17.4190  -26.6684   21.4029 H   0  0  0  0  0  0
  -18.0342  -26.0087   22.9023 H   0  0  0  0  0  0
  -19.7924  -30.7293   24.2266 H   0  0  0  0  0  0
  -17.5017  -31.6285   24.5178 H   0  0  0  0  0  0
  -15.5353  -30.3029   23.7681 H   0  0  0  0  0  0
  -15.8632  -28.0879   22.7044 H   0  0  0  0  0  0
  -24.5835  -30.7068   25.7849 H   0  0  0  0  0  0
  -24.8866  -32.2885   26.4951 H   0  0  0  0  0  0
  -25.8038  -30.8907   27.0238 H   0  0  0  0  0  0
  -26.2735  -29.6901   24.1048 H   0  0  0  0  0  0
  -27.3804  -29.7203   25.4578 H   0  0  0  0  0  0
  -27.8642  -30.4329   23.9329 H   0  0  0  0  0  0
  -27.2469  -33.3668   26.2064 H   0  0  0  0  0  0
  -28.3752  -32.6976   25.0363 H   0  0  0  0  0  0
  -28.0576  -31.8538   26.5466 H   0  0  0  0  0  0
  -28.2585  -38.0119   24.7505 H   0  0  0  0  0  0
  -28.1067  -36.2655   24.6275 H   0  0  0  0  0  0
  -27.2289  -37.1458   25.8858 H   0  0  0  0  0  0
  -20.9317  -29.8618   21.6809 H   0  0  0  0  0  0
  -26.0167  -38.2890   24.1397 H   0  0  0  0  0  0
  -32.8945  -22.4690   14.1070 H   0  0  0  0  0  0
  -34.4205  -21.9400   16.0018 H   0  0  0  0  0  0
  -30.4625  -21.9905   14.3013 H   0  0  0  0  0  0
  -33.5331  -20.9468   18.0743 H   0  0  0  0  0  0
  -29.5495  -20.9809   16.3706 H   0  0  0  0  0  0
  -30.9868  -24.9225   23.0640 H   0  0  0  0  0  0
  -32.5959  -25.1506   22.3857 H   0  0  0  0  0  0
  -31.7464  -26.1164   20.4061 H   0  0  0  0  0  0
  -30.4895  -26.6472   21.5047 H   0  0  0  0  0  0
  -31.5375  -22.7002   22.2891 H   0  0  0  0  0  0
  -32.3039  -23.3656   20.8464 H   0  0  0  0  0  0
  -32.7533  -19.2548   19.2705 H   0  0  0  0  0  0
  -31.6412  -18.1766   18.4861 H   0  0  0  0  0  0
  -29.5802  -20.0264   21.2432 H   0  0  0  0  0  0
  -31.1481  -20.4168   21.9162 H   0  0  0  0  0  0
  -29.8820  -19.9241   18.4466 H   0  0  0  0  0  0
  -31.9294  -21.4775   19.9737 H   0  0  0  0  0  0
  -30.3333  -24.8891   19.2378 H   0  0  0  0  0  0
  -29.6563  -18.4050   24.8050 H   0  0  0  0  0  0
  -30.4746  -19.0191   23.3978 H   0  0  0  0  0  0
  -31.2363  -17.7755   24.3692 H   0  0  0  0  0  0
  -27.5584  -17.6031   23.7075 H   0  0  0  0  0  0
  -27.6130  -16.8012   22.1445 H   0  0  0  0  0  0
  -28.1330  -18.4725   22.3161 H   0  0  0  0  0  0
  -29.0083  -16.0731   25.0255 H   0  0  0  0  0  0
  -30.4026  -15.3263   24.2688 H   0  0  0  0  0  0
  -28.7776  -15.0337   23.6581 H   0  0  0  0  0  0
  -28.8984  -22.0222   19.9293 H   0  0  0  0  0  0
  -29.9881  -22.7661   18.8199 H   0  0  0  0  0  0
  -28.0238  -25.1215   21.2270 H   0  0  0  0  0  0
  -27.9492  -24.8159   19.4978 H   0  0  0  0  0  0
  -29.2104  -17.9556   20.4666 H   0  0  0  0  0  0
  -30.3796  -17.0215   19.6905 H   0  0  0  0  0  0
  -31.4655  -16.5859   22.0722 H   0  0  0  0  0  0
  -29.0859  -15.0162   21.7315 H   0  0  0  0  0  0
  -31.9888  -18.5421   21.0948 H   0  0  0  0  0  0
  -29.4810  -23.3449   21.5398 H   0  0  0  0  0  0
  1 25  1  0  0  0
  1 30  2  0  0  0
  1 93  1  0  0  0
  2  3  1  0  0  0
  2 25  1  0  0  0
  2 96  1  0  0  0
  2 97  1  0  0  0
  3  4  1  0  0  0
  3 98  1  0  0  0
  3 99  1  0  0  0
  4  5  1  0  0  0
  4100  1  0  0  0
  4101  1  0  0  0
  5  6  1  0  0  0
  5 26  1  0  0  0
  5102  1  0  0  0
  6 25  1  0  0  0
  6103  1  0  0  0
  6104  1  0  0  0
  7  8  2  0  0  0
  7 26  1  0  0  0
  7 29  1  0  0  0
  8  9  1  0  0  0
  8 22  1  0  0  0
  9 10  1  0  0  0
  9 27  2  0  0  0
 10 11  2  0  0  0
 10 15  1  0  0  0
 11 12  1  0  0  0
 11105  1  0  0  0
 12 13  2  0  0  0
 12106  1  0  0  0
 13 14  1  0  0  0
 13 31  1  0  0  0
 14 15  2  0  0  0
 14107  1  0  0  0
 15108  1  0  0  0
 16 17  2  0  0  0
 16 21  1  0  0  0
 16 31  1  0  0  0
 17 18  1  0  0  0
 17109  1  0  0  0
 18 19  2  0  0  0
 18110  1  0  0  0
 19 20  1  0  0  0
 19 24  1  0  0  0
 20 21  2  0  0  0
 20111  1  0  0  0
 21 23  1  0  0  0
 22 28  1  0  0  0
 22 32  2  0  0  0
 26 27  1  0  0  0
 28112  1  0  0  0
 28113  1  0  0  0
 29114  1  0  0  0
 29115  1  0  0  0
 33 34  1  0  0  0
 33 66  1  0  0  0
 33 70  2  0  0  0
 34 36  1  0  0  0
 34 59  1  0  0  0
 34116  1  0  0  0
 35 44  2  0  0  0
 35 45  1  0  0  0
 35 68  1  0  0  0
 36 56  1  0  0  0
 36117  1  0  0  0
 37 39  1  0  0  0
 37 47  1  0  0  0
 37 66  1  0  0  0
 37118  1  0  0  0
 38 43  2  0  0  0
 38 46  1  0  0  0
 38 47  1  0  0  0
 39 64  1  0  0  0
 39 67  2  0  0  0
 40 52  1  0  0  0
 40 53  2  0  0  0
 40 58  1  0  0  0
 41119  1  0  0  0
 41120  1  0  0  0
 41121  1  0  0  0
 41 48  1  0  0  0
 42 43  1  0  0  0
 42 66  1  0  0  0
 42122  1  0  0  0
 42123  1  0  0  0
 43 44  1  0  0  0
 44124  1  0  0  0
 45 46  2  0  0  0
 45125  1  0  0  0
 46126  1  0  0  0
 47127  1  0  0  0
 47128  1  0  0  0
 48 56  1  0  0  0
 48 65  1  0  0  0
 48129  1  0  0  0
 49 50  1  0  0  0
 49 53  1  0  0  0
 49 64  1  0  0  0
 49130  1  0  0  0
 50 51  1  0  0  0
 50131  1  0  0  0
 50132  1  0  0  0
 51 52  1  0  0  0
 51133  1  0  0  0
 51134  1  0  0  0
 52135  1  0  0  0
 52136  1  0  0  0
 53 54  1  0  0  0
 54 55  2  0  0  0
 54137  1  0  0  0
 55 57  1  0  0  0
 55138  1  0  0  0
 56 69  2  0  0  0
 57 58  2  0  0  0
 57139  1  0  0  0
 58140  1  0  0  0
 59 60  1  0  0  0
 59 61  1  0  0  0
 59 62  1  0  0  0
 60141  1  0  0  0
 60142  1  0  0  0
 60143  1  0  0  0
 61144  1  0  0  0
 61145  1  0  0  0
 61146  1  0  0  0
 62147  1  0  0  0
 62148  1  0  0  0
 62149  1  0  0  0
 63 65  1  0  0  0
 63150  1  0  0  0
 63151  1  0  0  0
 63152  1  0  0  0
 64153  1  0  0  0
 65154  1  0  0  0
 68 89  1  0  0  0
 71 72  2  0  0  0
 71 73  1  0  0  0
 71155  1  0  0  0
 72 74  1  0  0  0
 72156  1  0  0  0
 73 75  2  0  0  0
 73157  1  0  0  0
 74 76  2  0  0  0
 74158  1  0  0  0
 75 76  1  0  0  0
 75159  1  0  0  0
 76 82  1  0  0  0
 77 78  1  0  0  0
 77 79  1  0  0  0
 77160  1  0  0  0
 77161  1  0  0  0
 78 84  1  0  0  0
 78162  1  0  0  0
 78163  1  0  0  0
 79 95  1  0  0  0
 79164  1  0  0  0
 79165  1  0  0  0
 80 82  1  0  0  0
 80 94  1  0  0  0
 80166  1  0  0  0
 80167  1  0  0  0
 81 83  1  0  0  0
 81 94  1  0  0  0
 81168  1  0  0  0
 81169  1  0  0  0
 82 83  1  0  0  0
 82170  1  0  0  0
 83 88  1  0  0  0
 83171  1  0  0  0
 84 89  1  0  0  0
 84 95  1  0  0  0
 84172  1  0  0  0
 85173  1  0  0  0
 85174  1  0  0  0
 85175  1  0  0  0
 85 92  1  0  0  0
 86 92  1  0  0  0
 86176  1  0  0  0
 86177  1  0  0  0
 86178  1  0  0  0
 87 92  1  0  0  0
 87179  1  0  0  0
 87180  1  0  0  0
 87181  1  0  0  0
 88182  1  0  0  0
 88183  1  0  0  0
 88 95  1  0  0  0
 89184  1  0  0  0
 89185  1  0  0  0
 90186  1  0  0  0
 90187  1  0  0  0
 90 91  1  0  0  0
 90 94  1  0  0  0
 91 92  1  0  0  0
 91 93  1  0  0  0
 91188  1  0  0  0
 93189  1  0  0  0
 94190  1  0  0  0
 95191  1  0  0  0
M  CHG  2  94   1  95   1
M  ISO  4   1 100  68 101  89 101  93 100
M  END
> <chiral flag>
0

> <version>
0

> <s_m_source_file>
/data/baiqing/PycharmProjects/Reinvent-master-3.2/result/LINK_invent/BTK/process_docking_weight1_custom_product_contain_oxygen_bond_distance_aromatic_linkinvent_7_9_3/rearranged_h_0002.sdf

> <i_m_source_file_index>
11

> <r_mmod_Potential_Energy-OPLS-2005>
-58.5965270996094

> <r_mmod_Stretch_Energy-OPLS-2005>
47.7682609558105

> <r_mmod_Bend_Energy-OPLS-2005>
184.218948364258

> <r_mmod_Torsional_Energy-OPLS-2005>
390.386352539062

> <r_mmod_Improper_Torsional_Energy-OPLS-2005>
2.90653347969055

> <r_mmod_Van_der_Waal_Energy-OPLS-2005>
158.409530639648

> <r_mmod_Electrostatic_Energy-OPLS-2005>
41.5234527587891

> <r_mmod_Solvation_Energy-OPLS-2005>
-894.84716796875

> <b_mmod_Minimization_Converged-OPLS-2005>
0

> <r_mmod_RMS_Derivative-OPLS-2005>
5.70314884185791

$$$$
11
                    3D
 Structure written by MMmdl.
154162  0  0  1  0            999 V2000
  -30.6755  -14.4856   20.5768 C   0  0  0  0  0  0
  -30.4342  -12.3171   19.4176 C   0  0  0  0  0  0
  -29.4979  -12.5126   18.2056 C   0  0  0  0  0  0
  -28.0186  -12.3671   18.6170 C   0  0  0  0  0  0
  -27.6648  -13.1978   19.8787 C   0  0  2  0  0  0
  -28.7076  -12.9625   20.9954 C   0  0  0  0  0  0
  -25.2602  -13.8130   20.5673 C   0  0  0  0  0  0
  -24.1842  -13.0423   20.9167 C   0  0  0  0  0  0
  -24.6385  -11.6887   20.8730 C   0  0  0  0  0  0
  -23.9043  -10.4283   21.0398 C   0  0  0  0  0  0
  -24.3599   -9.4204   21.9179 C   0  0  0  0  0  0
  -23.6282   -8.2238   22.0750 C   0  0  0  0  0  0
  -22.4265   -8.0274   21.3540 C   0  0  0  0  0  0
  -21.9891   -9.0244   20.4642 C   0  0  0  0  0  0
  -22.7215  -10.2127   20.3049 C   0  0  0  0  0  0
  -21.6847   -6.0734   22.5281 C   0  0  0  0  0  0
  -21.4010   -6.5638   23.8215 C   0  0  0  0  0  0
  -21.3657   -5.6790   24.9177 C   0  0  0  0  0  0
  -21.6046   -4.3054   24.7227 C   0  0  0  0  0  0
  -21.8819   -3.8146   23.4348 C   0  0  0  0  0  0
  -21.9189   -4.6963   22.3404 C   0  0  0  0  0  0
  -22.7867  -13.5235   21.1838 C   0  0  0  0  0  0
  -22.1658   -4.2149   21.0981 F   0  0  0  0  0  0
  -21.5629   -3.4536   25.7739 F   0  0  0  0  0  0
  -30.0402  -13.2864   20.4518 N   0  0  0  0  0  0
  -26.3039  -12.9284   20.3378 N   0  0  0  0  0  0
  -25.9314  -11.6454   20.5768 N   0  0  0  0  0  0
  -22.0499  -12.8240   22.0398 N   0  0  0  0  0  0
  -25.4309  -15.1846   20.4077 N   0  0  0  0  0  0
  -31.7868  -14.7150   20.0889 O   0  0  0  0  0  0
  -21.6629   -6.8873   21.4241 O   0  0  0  0  0  0
  -22.3561  -14.5548   20.6692 O   0  0  0  0  0  0
  -24.6151  -31.8672   23.2098 C   0  0  0  0  0  0
  -25.9041  -32.4819   23.8398 C   0  0  1  0  0  0
  -27.2388  -27.4345   20.0997 C   0  0  0  0  0  0
  -25.5895  -33.8618   24.2330 N   0  0  0  0  0  0
  -23.4050  -30.4890   21.5488 C   0  0  2  0  0  0
  -24.8559  -28.9546   20.1136 C   0  0  0  0  0  0
  -22.7418  -29.4648   22.4978 C   0  0  0  0  0  0
  -18.0273  -28.1376   22.8491 C   0  0  0  0  0  0
  -24.1485  -36.7316   23.2637 C   0  0  0  0  0  0
  -25.9338  -30.8323   21.3646 C   0  0  0  0  0  0
  -26.0148  -29.4661   20.7128 C   0  0  0  0  0  0
  -27.2123  -28.7122   20.7056 C   0  0  0  0  0  0
  -26.0685  -26.9379   19.4924 C   0  0  0  0  0  0
  -24.8772  -27.6891   19.5001 C   0  0  0  0  0  0
  -23.6163  -29.8202   20.1638 C   0  0  0  0  0  0
  -25.4103  -36.3112   24.0340 C   0  0  1  0  0  0
  -20.5865  -28.3664   23.1313 C   0  0  2  0  0  0
  -20.6760  -26.9399   22.5417 C   0  0  0  0  0  0
  -19.5740  -26.6384   21.5212 C   0  0  0  0  0  0
  -18.1920  -26.7923   22.1622 C   0  0  0  0  0  0
  -19.1523  -28.8836   23.2899 C   0  0  0  0  0  0
  -18.9451  -30.1442   23.8910 C   0  0  0  0  0  0
  -17.6454  -30.6584   24.0563 C   0  0  0  0  0  0
  -25.9033  -34.9476   23.5134 C   0  0  0  0  0  0
  -16.5344  -29.9087   23.6323 C   0  0  0  0  0  0
  -16.7261  -28.6501   23.0347 C   0  0  0  0  0  0
  -26.4474  -31.6595   25.0723 C   0  0  0  0  0  0
  -25.3747  -31.3694   26.1476 C   0  0  0  0  0  0
  -27.0307  -30.3037   24.6097 C   0  0  0  0  0  0
  -27.6053  -32.4313   25.7484 C   0  0  0  0  0  0
  -27.5587  -37.1801   24.8456 C   0  0  0  0  0  0
  -21.4145  -29.3031   22.3720 N   0  0  0  0  0  0
  -26.4285  -37.3801   23.9423 N   0  0  0  0  0  0
  -24.6693  -31.0768   22.0998 N   0  0  0  0  0  0
  -23.4184  -28.8193   23.3028 O   0  0  0  0  0  0
  -28.3688  -26.6472   20.1027 O   0  0  0  0  0  0
  -26.5596  -34.8928   22.4695 O   0  0  0  0  0  0
  -23.5340  -32.1421   23.7489 O   0  0  0  0  0  0
  -28.8313  -17.2028   19.9449 C   0  0  0  0  0  0
  -30.6632  -17.8086   21.4193 C   0  0  0  0  0  0
  -28.6050  -18.5670   19.6701 C   0  0  0  0  0  0
  -30.4286  -19.1810   21.1450 C   0  0  0  0  0  0
  -29.8580  -16.8071   20.8280 C   0  0  0  0  0  0
  -29.3791  -19.5781   20.2763 C   0  0  0  0  0  0
  -28.8315  -23.2801   20.3855 C   0  0  0  0  0  0
  -29.3915  -24.5523   21.0758 C   0  0  0  0  0  0
  -29.6401  -21.9813   20.6659 C   0  0  0  0  0  0
  -28.4049  -25.7441   21.2175 C   0  0  0  0  0  0
  -29.9575  -15.4355   21.2065 N   0  0  0  0  0  0
  -29.0320  -20.8859   19.9737 O   0  0  0  0  0  0
  -31.4757  -12.4372   19.1133 H   0  0  0  0  0  0
  -30.3545  -11.3010   19.8065 H   0  0  0  0  0  0
  -29.7398  -11.7918   17.4231 H   0  0  0  0  0  0
  -29.6606  -13.5003   17.7710 H   0  0  0  0  0  0
  -27.8282  -11.3100   18.8058 H   0  0  0  0  0  0
  -27.3681  -12.6487   17.7880 H   0  0  0  0  0  0
  -27.7112  -14.2455   19.5883 H   0  0  0  0  0  0
  -28.6895  -11.9185   21.3125 H   0  0  0  0  0  0
  -28.4599  -13.5349   21.8901 H   0  0  0  0  0  0
  -25.2743   -9.5684   22.4755 H   0  0  0  0  0  0
  -23.9992   -7.4627   22.7466 H   0  0  0  0  0  0
  -21.0821   -8.8758   19.8950 H   0  0  0  0  0  0
  -22.3669  -10.9663   19.6158 H   0  0  0  0  0  0
  -21.2003   -7.6145   23.9723 H   0  0  0  0  0  0
  -21.1479   -6.0517   25.9082 H   0  0  0  0  0  0
  -22.0603   -2.7608   23.2846 H   0  0  0  0  0  0
  -22.4096  -11.9892   22.4784 H   0  0  0  0  0  0
  -21.1127  -13.1289   22.2612 H   0  0  0  0  0  0
  -24.6616  -15.8368   20.5163 H   0  0  0  0  0  0
  -26.2840  -15.6286   20.0960 H   0  0  0  0  0  0
  -26.7115  -32.5537   23.1169 H   0  0  0  0  0  0
  -25.0047  -33.9783   25.0475 H   0  0  0  0  0  0
  -22.6937  -31.3056   21.4079 H   0  0  0  0  0  0
  -23.3751  -35.9643   23.3285 H   0  0  0  0  0  0
  -24.3588  -36.8946   22.2055 H   0  0  0  0  0  0
  -23.7226  -37.6513   23.6658 H   0  0  0  0  0  0
  -26.0464  -31.5983   20.5961 H   0  0  0  0  0  0
  -26.8208  -30.8871   21.9834 H   0  0  0  0  0  0
  -28.1067  -29.0996   21.1735 H   0  0  0  0  0  0
  -26.0792  -25.9628   19.0255 H   0  0  0  0  0  0
  -23.9870  -27.2886   19.0350 H   0  0  0  0  0  0
  -23.7247  -30.5947   19.4035 H   0  0  0  0  0  0
  -22.7412  -29.2391   19.8674 H   0  0  0  0  0  0
  -25.1275  -36.1974   25.0832 H   0  0  0  0  0  0
  -20.9956  -28.3229   24.1433 H   0  0  0  0  0  0
  -20.5657  -26.2274   23.3606 H   0  0  0  0  0  0
  -21.6632  -26.7437   22.1211 H   0  0  0  0  0  0
  -19.6901  -25.6298   21.1232 H   0  0  0  0  0  0
  -19.6681  -27.3200   20.6748 H   0  0  0  0  0  0
  -17.4190  -26.6672   21.4024 H   0  0  0  0  0  0
  -18.0320  -26.0061   22.9015 H   0  0  0  0  0  0
  -19.7929  -30.7252   24.2285 H   0  0  0  0  0  0
  -17.5012  -31.6266   24.5161 H   0  0  0  0  0  0
  -15.5346  -30.2994   23.7641 H   0  0  0  0  0  0
  -15.8659  -28.0827   22.7054 H   0  0  0  0  0  0
  -24.5910  -30.7058   25.7810 H   0  0  0  0  0  0
  -24.8955  -32.2848   26.4957 H   0  0  0  0  0  0
  -25.8108  -30.8834   27.0214 H   0  0  0  0  0  0
  -26.2851  -29.6793   24.1161 H   0  0  0  0  0  0
  -27.4090  -29.7277   25.4554 H   0  0  0  0  0  0
  -27.8680  -30.4358   23.9241 H   0  0  0  0  0  0
  -27.2673  -33.3596   26.2100 H   0  0  0  0  0  0
  -28.3841  -32.6899   25.0298 H   0  0  0  0  0  0
  -28.0745  -31.8413   26.5367 H   0  0  0  0  0  0
  -28.2574  -38.0131   24.7559 H   0  0  0  0  0  0
  -28.1116  -36.2668   24.6205 H   0  0  0  0  0  0
  -27.2318  -37.1356   25.8860 H   0  0  0  0  0  0
  -20.9305  -29.8761   21.6948 H   0  0  0  0  0  0
  -26.0173  -38.2872   24.1458 H   0  0  0  0  0  0
  -28.1911  -16.4684   19.4806 H   0  0  0  0  0  0
  -31.4452  -17.5332   22.1133 H   0  0  0  0  0  0
  -27.8028  -18.8432   19.0003 H   0  0  0  0  0  0
  -31.0561  -19.9164   21.6268 H   0  0  0  0  0  0
  -28.7664  -23.4536   19.3107 H   0  0  0  0  0  0
  -27.8085  -23.1144   20.7249 H   0  0  0  0  0  0
  -30.3134  -24.8783   20.5932 H   0  0  0  0  0  0
  -29.6789  -24.2650   22.0882 H   0  0  0  0  0  0
  -29.6517  -21.7891   21.7399 H   0  0  0  0  0  0
  -30.6738  -22.0941   20.3368 H   0  0  0  0  0  0
  -28.7055  -26.3349   22.0844 H   0  0  0  0  0  0
  -27.4089  -25.3630   21.4531 H   0  0  0  0  0  0
  -29.1125  -15.0532   21.6036 H   0  0  0  0  0  0
  1 25  1  0  0  0
  1 30  2  0  0  0
  1 81  1  0  0  0
  2  3  1  0  0  0
  2 25  1  0  0  0
  2 83  1  0  0  0
  2 84  1  0  0  0
  3  4  1  0  0  0
  3 85  1  0  0  0
  3 86  1  0  0  0
  4  5  1  0  0  0
  4 87  1  0  0  0
  4 88  1  0  0  0
  5  6  1  0  0  0
  5 26  1  0  0  0
  5 89  1  0  0  0
  6 25  1  0  0  0
  6 90  1  0  0  0
  6 91  1  0  0  0
  7  8  2  0  0  0
  7 26  1  0  0  0
  7 29  1  0  0  0
  8  9  1  0  0  0
  8 22  1  0  0  0
  9 10  1  0  0  0
  9 27  2  0  0  0
 10 11  2  0  0  0
 10 15  1  0  0  0
 11 12  1  0  0  0
 11 92  1  0  0  0
 12 13  2  0  0  0
 12 93  1  0  0  0
 13 14  1  0  0  0
 13 31  1  0  0  0
 14 15  2  0  0  0
 14 94  1  0  0  0
 15 95  1  0  0  0
 16 17  2  0  0  0
 16 21  1  0  0  0
 16 31  1  0  0  0
 17 18  1  0  0  0
 17 96  1  0  0  0
 18 19  2  0  0  0
 18 97  1  0  0  0
 19 20  1  0  0  0
 19 24  1  0  0  0
 20 21  2  0  0  0
 20 98  1  0  0  0
 21 23  1  0  0  0
 22 28  1  0  0  0
 22 32  2  0  0  0
 26 27  1  0  0  0
 28 99  1  0  0  0
 28100  1  0  0  0
 29101  1  0  0  0
 29102  1  0  0  0
 33 34  1  0  0  0
 33 66  1  0  0  0
 33 70  2  0  0  0
 34 36  1  0  0  0
 34 59  1  0  0  0
 34103  1  0  0  0
 35 44  2  0  0  0
 35 45  1  0  0  0
 35 68  1  0  0  0
 36 56  1  0  0  0
 36104  1  0  0  0
 37 39  1  0  0  0
 37 47  1  0  0  0
 37 66  1  0  0  0
 37105  1  0  0  0
 38 43  2  0  0  0
 38 46  1  0  0  0
 38 47  1  0  0  0
 39 64  1  0  0  0
 39 67  2  0  0  0
 40 52  1  0  0  0
 40 53  2  0  0  0
 40 58  1  0  0  0
 41106  1  0  0  0
 41107  1  0  0  0
 41108  1  0  0  0
 41 48  1  0  0  0
 42 43  1  0  0  0
 42 66  1  0  0  0
 42109  1  0  0  0
 42110  1  0  0  0
 43 44  1  0  0  0
 44111  1  0  0  0
 45 46  2  0  0  0
 45112  1  0  0  0
 46113  1  0  0  0
 47114  1  0  0  0
 47115  1  0  0  0
 48 56  1  0  0  0
 48 65  1  0  0  0
 48116  1  0  0  0
 49 50  1  0  0  0
 49 53  1  0  0  0
 49 64  1  0  0  0
 49117  1  0  0  0
 50 51  1  0  0  0
 50118  1  0  0  0
 50119  1  0  0  0
 51 52  1  0  0  0
 51120  1  0  0  0
 51121  1  0  0  0
 52122  1  0  0  0
 52123  1  0  0  0
 53 54  1  0  0  0
 54 55  2  0  0  0
 54124  1  0  0  0
 55 57  1  0  0  0
 55125  1  0  0  0
 56 69  2  0  0  0
 57 58  2  0  0  0
 57126  1  0  0  0
 58127  1  0  0  0
 59 60  1  0  0  0
 59 61  1  0  0  0
 59 62  1  0  0  0
 60128  1  0  0  0
 60129  1  0  0  0
 60130  1  0  0  0
 61131  1  0  0  0
 61132  1  0  0  0
 61133  1  0  0  0
 62134  1  0  0  0
 62135  1  0  0  0
 62136  1  0  0  0
 63 65  1  0  0  0
 63137  1  0  0  0
 63138  1  0  0  0
 63139  1  0  0  0
 64140  1  0  0  0
 65141  1  0  0  0
 68 80  1  0  0  0
 71 73  2  0  0  0
 71 75  1  0  0  0
 71142  1  0  0  0
 72 74  1  0  0  0
 72 75  2  0  0  0
 72143  1  0  0  0
 73 76  1  0  0  0
 73144  1  0  0  0
 74 76  2  0  0  0
 74145  1  0  0  0
 75 81  1  0  0  0
 76 82  1  0  0  0
 77 78  1  0  0  0
 77 79  1  0  0  0
 77146  1  0  0  0
 77147  1  0  0  0
 78 80  1  0  0  0
 78148  1  0  0  0
 78149  1  0  0  0
 79 82  1  0  0  0
 79150  1  0  0  0
 79151  1  0  0  0
 80152  1  0  0  0
 80153  1  0  0  0
 81154  1  0  0  0
M  ISO  4   1 100  68 101  80 101  81 100
M  END
> <chiral flag>
0

> <version>
0

> <s_m_source_file>
/data/baiqing/PycharmProjects/Reinvent-master-3.2/result/LINK_invent/BTK/process_docking_weight1_custom_product_contain_oxygen_bond_distance_aromatic_linkinvent_7_9_3/rearranged_h_0002.sdf

> <i_m_source_file_index>
12

> <r_mmod_Potential_Energy-OPLS-2005>
-26.1432418823242

> <r_mmod_Stretch_Energy-OPLS-2005>
38.0520858764648

> <r_mmod_Bend_Energy-OPLS-2005>
103.493583679199

> <r_mmod_Torsional_Energy-OPLS-2005>
269.066009521484

> <r_mmod_Improper_Torsional_Energy-OPLS-2005>
5.56116437911987

> <r_mmod_Van_der_Waal_Energy-OPLS-2005>
142.235061645508

> <r_mmod_Electrostatic_Energy-OPLS-2005>
-386.073486328125

> <r_mmod_Solvation_Energy-OPLS-2005>
-212.002868652344

> <b_mmod_Minimization_Converged-OPLS-2005>
0

> <r_mmod_RMS_Derivative-OPLS-2005>
0.609314560890198

$$$$
12
                    3D
 Structure written by MMmdl.
153161  0  0  1  0            999 V2000
  -30.1094  -16.1240   20.2870 C   0  0  0  0  0  0
  -30.3832  -13.4475   19.5484 C   0  0  0  0  0  0
  -29.5676  -12.7924   18.3788 C   0  0  0  0  0  0
  -28.1847  -12.3262   18.8454 C   0  0  0  0  0  0
  -27.5834  -13.3615   19.8137 C   0  0  2  0  0  0
  -28.5631  -13.8943   20.9023 C   0  0  0  0  0  0
  -25.2244  -13.8361   20.5876 C   0  0  0  0  0  0
  -24.1687  -13.0437   20.9322 C   0  0  0  0  0  0
  -24.6460  -11.6972   20.8759 C   0  0  0  0  0  0
  -23.9167  -10.4295   21.0373 C   0  0  0  0  0  0
  -24.3681   -9.4207   21.9165 C   0  0  0  0  0  0
  -23.6327   -8.2255   22.0752 C   0  0  0  0  0  0
  -22.4308   -8.0295   21.3542 C   0  0  0  0  0  0
  -21.9962   -9.0274   20.4641 C   0  0  0  0  0  0
  -22.7321  -10.2136   20.3036 C   0  0  0  0  0  0
  -21.6865   -6.0744   22.5276 C   0  0  0  0  0  0
  -21.4026   -6.5645   23.8208 C   0  0  0  0  0  0
  -21.3662   -5.6798   24.9168 C   0  0  0  0  0  0
  -21.6044   -4.3059   24.7220 C   0  0  0  0  0  0
  -21.8819   -3.8152   23.4341 C   0  0  0  0  0  0
  -21.9196   -4.6969   22.3398 C   0  0  0  0  0  0
  -22.7683  -13.5124   21.1942 C   0  0  0  0  0  0
  -22.1664   -4.2151   21.0979 F   0  0  0  0  0  0
  -21.5626   -3.4545   25.7736 F   0  0  0  0  0  0
  -29.6586  -14.6665   20.2217 N   0  0  0  0  0  0
  -26.2769  -12.9802   20.3335 N   0  0  0  0  0  0
  -25.9435  -11.6808   20.5687 N   0  0  0  0  0  0
  -22.0375  -12.8077   22.0494 N   0  0  0  0  0  0
  -25.3745  -15.2111   20.4303 N   0  0  0  0  0  0
  -31.3544  -15.9959   20.1563 O   0  0  0  0  0  0
  -21.6661   -6.8895   21.4243 O   0  0  0  0  0  0
  -22.3336  -14.5411   20.6771 O   0  0  0  0  0  0
  -24.7159  -31.7604   23.1229 C   0  0  0  0  0  0
  -25.9575  -32.4278   23.7904 C   0  0  1  0  0  0
  -27.2440  -26.3527   20.2541 C   0  0  0  0  0  0
  -25.6017  -33.8122   24.1757 N   0  0  0  0  0  0
  -23.5579  -30.3450   21.4857 C   0  0  2  0  0  0
  -25.0186  -28.6086   20.1337 C   0  0  0  0  0  0
  -22.7911  -29.4100   22.4630 C   0  0  0  0  0  0
  -18.0357  -28.1446   22.8447 C   0  0  0  0  0  0
  -24.1488  -36.7063   23.2660 C   0  0  0  0  0  0
  -26.1503  -30.3761   21.4423 C   0  0  0  0  0  0
  -26.2106  -28.8993   20.8051 C   0  0  0  0  0  0
  -27.2874  -27.8105   20.8240 C   0  0  0  0  0  0
  -26.0190  -26.3640   19.5098 C   0  0  0  0  0  0
  -24.9825  -27.3705   19.4616 C   0  0  0  0  0  0
  -23.8316  -29.6074   20.1373 C   0  0  0  0  0  0
  -25.4155  -36.2783   24.0255 C   0  0  1  0  0  0
  -20.6009  -28.3815   23.1097 C   0  0  2  0  0  0
  -20.6803  -26.9445   22.5421 C   0  0  0  0  0  0
  -19.5781  -26.6367   21.5230 C   0  0  0  0  0  0
  -18.1964  -26.7968   22.1623 C   0  0  0  0  0  0
  -19.1632  -28.8961   23.2739 C   0  0  0  0  0  0
  -18.9530  -30.1536   23.8799 C   0  0  0  0  0  0
  -17.6516  -30.6618   24.0548 C   0  0  0  0  0  0
  -25.9161  -34.9185   23.4869 C   0  0  0  0  0  0
  -16.5405  -29.9095   23.6361 C   0  0  0  0  0  0
  -16.7335  -28.6518   23.0381 C   0  0  0  0  0  0
  -26.4646  -31.6462   25.0671 C   0  0  0  0  0  0
  -25.3621  -31.3881   26.1224 C   0  0  0  0  0  0
  -27.0625  -30.2768   24.6804 C   0  0  0  0  0  0
  -27.6038  -32.4390   25.7510 C   0  0  0  0  0  0
  -27.5543  -37.1685   24.8465 C   0  0  0  0  0  0
  -21.4528  -29.2990   22.3374 N   0  0  0  0  0  0
  -26.4246  -37.3585   23.9411 N   0  0  0  0  0  0
  -24.8355  -30.8699   22.0681 N   0  0  0  0  0  0
  -23.4195  -28.7764   23.3138 O   0  0  0  0  0  0
  -28.2120  -25.0094   20.2761 O   0  0  0  0  0  0
  -26.5845  -34.8829   22.4518 O   0  0  0  0  0  0
  -23.6108  -32.0842   23.5965 O   0  0  0  0  0  0
  -29.3801  -20.6555   19.4037 C   0  0  0  0  0  0
  -29.0699  -22.2218   19.3742 C   0  0  0  0  0  0
  -28.1138  -22.0837   21.2284 C   0  0  0  0  0  0
  -28.4019  -20.5004   21.3070 C   0  0  0  0  0  0
  -29.1199  -19.4736   20.3631 C   0  0  0  0  0  0
  -28.3432  -23.2634   20.2601 C   0  0  0  0  0  0
  -28.0486  -18.4188   22.8679 C   0  0  0  0  0  0
  -26.3518  -20.1944   22.8004 C   0  0  0  0  0  0
  -28.6322  -20.6000   23.8336 C   0  0  0  0  0  0
  -27.8712  -19.9370   22.6612 C   0  0  0  0  0  0
  -29.3074  -17.5910   20.3408 N   0  0  0  0  0  0
  -31.3353  -13.7770   19.1310 H   0  0  0  0  0  0
  -30.6627  -12.6953   20.2884 H   0  0  0  0  0  0
  -30.1206  -11.9590   17.9439 H   0  0  0  0  0  0
  -29.4453  -13.5274   17.5821 H   0  0  0  0  0  0
  -28.3007  -11.3729   19.3629 H   0  0  0  0  0  0
  -27.5236  -12.1446   17.9968 H   0  0  0  0  0  0
  -27.3833  -14.2163   19.1656 H   0  0  0  0  0  0
  -28.9281  -13.0952   21.5494 H   0  0  0  0  0  0
  -28.0376  -14.5871   21.5609 H   0  0  0  0  0  0
  -25.2818   -9.5680   22.4754 H   0  0  0  0  0  0
  -24.0026   -7.4651   22.7482 H   0  0  0  0  0  0
  -21.0890   -8.8796   19.8952 H   0  0  0  0  0  0
  -22.3770  -10.9671   19.6148 H   0  0  0  0  0  0
  -21.2023   -7.6154   23.9709 H   0  0  0  0  0  0
  -21.1487   -6.0532   25.9071 H   0  0  0  0  0  0
  -22.0593   -2.7614   23.2844 H   0  0  0  0  0  0
  -22.4052  -11.9768   22.4877 H   0  0  0  0  0  0
  -21.0972  -13.1033   22.2699 H   0  0  0  0  0  0
  -24.5959  -15.8522   20.5366 H   0  0  0  0  0  0
  -26.2088  -15.6553   20.0726 H   0  0  0  0  0  0
  -26.7691  -32.4676   23.0633 H   0  0  0  0  0  0
  -25.0022  -33.9102   24.9819 H   0  0  0  0  0  0
  -22.9024  -31.1895   21.2650 H   0  0  0  0  0  0
  -23.3782  -35.9357   23.3247 H   0  0  0  0  0  0
  -24.3534  -36.8823   22.2088 H   0  0  0  0  0  0
  -23.7217  -37.6194   23.6818 H   0  0  0  0  0  0
  -26.3856  -31.0736   20.6373 H   0  0  0  0  0  0
  -26.9904  -30.4623   22.1179 H   0  0  0  0  0  0
  -28.1835  -28.0590   21.3746 H   0  0  0  0  0  0
  -25.8053  -25.4571   18.9615 H   0  0  0  0  0  0
  -24.0962  -27.1353   18.8887 H   0  0  0  0  0  0
  -24.0373  -30.3513   19.3664 H   0  0  0  0  0  0
  -22.9293  -29.0905   19.8050 H   0  0  0  0  0  0
  -25.1377  -36.1492   25.0740 H   0  0  0  0  0  0
  -21.0073  -28.3463   24.1230 H   0  0  0  0  0  0
  -20.5638  -26.2446   23.3710 H   0  0  0  0  0  0
  -21.6661  -26.7332   22.1257 H   0  0  0  0  0  0
  -19.6926  -25.6248   21.1327 H   0  0  0  0  0  0
  -19.6739  -27.3121   20.6716 H   0  0  0  0  0  0
  -17.4240  -26.6726   21.4019 H   0  0  0  0  0  0
  -18.0329  -26.0131   22.9035 H   0  0  0  0  0  0
  -19.8005  -30.7379   24.2131 H   0  0  0  0  0  0
  -17.5066  -31.6288   24.5168 H   0  0  0  0  0  0
  -15.5401  -30.2968   23.7741 H   0  0  0  0  0  0
  -15.8736  -28.0801   22.7161 H   0  0  0  0  0  0
  -24.5853  -30.7182   25.7512 H   0  0  0  0  0  0
  -24.8768  -32.3140   26.4324 H   0  0  0  0  0  0
  -25.7725  -30.9256   27.0209 H   0  0  0  0  0  0
  -26.3393  -29.6287   24.1848 H   0  0  0  0  0  0
  -27.3975  -29.7338   25.5650 H   0  0  0  0  0  0
  -27.9404  -30.3823   24.0432 H   0  0  0  0  0  0
  -27.2549  -33.3808   26.1754 H   0  0  0  0  0  0
  -28.4028  -32.6758   25.0473 H   0  0  0  0  0  0
  -28.0505  -31.8742   26.5701 H   0  0  0  0  0  0
  -28.2516  -38.0019   24.7516 H   0  0  0  0  0  0
  -28.1084  -36.2540   24.6292 H   0  0  0  0  0  0
  -27.2257  -37.1306   25.8865 H   0  0  0  0  0  0
  -20.9916  -29.8584   21.6334 H   0  0  0  0  0  0
  -26.0043  -38.2610   24.1456 H   0  0  0  0  0  0
  -29.9054  -20.3385   18.5138 H   0  0  0  0  0  0
  -29.4911  -22.6880   18.4948 H   0  0  0  0  0  0
  -27.6346  -22.4800   22.1076 H   0  0  0  0  0  0
  -27.4890  -17.8398   22.1338 H   0  0  0  0  0  0
  -27.6733  -18.1058   23.8432 H   0  0  0  0  0  0
  -29.0978  -18.1245   22.8455 H   0  0  0  0  0  0
  -25.8023  -19.7442   21.9726 H   0  0  0  0  0  0
  -26.0827  -21.2484   22.8322 H   0  0  0  0  0  0
  -25.9608  -19.7576   23.7202 H   0  0  0  0  0  0
  -29.7042  -20.4122   23.7573 H   0  0  0  0  0  0
  -28.3048  -20.2040   24.7951 H   0  0  0  0  0  0
  -28.4997  -21.6791   23.8890 H   0  0  0  0  0  0
  -28.3696  -17.2481   20.4912 H   0  0  0  0  0  0
  1 25  1  0  0  0
  1 30  2  0  0  0
  1 81  1  0  0  0
  2  3  1  0  0  0
  2 25  1  0  0  0
  2 82  1  0  0  0
  2 83  1  0  0  0
  3  4  1  0  0  0
  3 84  1  0  0  0
  3 85  1  0  0  0
  4  5  1  0  0  0
  4 86  1  0  0  0
  4 87  1  0  0  0
  5  6  1  0  0  0
  5 26  1  0  0  0
  5 88  1  0  0  0
  6 25  1  0  0  0
  6 89  1  0  0  0
  6 90  1  0  0  0
  7  8  2  0  0  0
  7 26  1  0  0  0
  7 29  1  0  0  0
  8  9  1  0  0  0
  8 22  1  0  0  0
  9 10  1  0  0  0
  9 27  2  0  0  0
 10 11  2  0  0  0
 10 15  1  0  0  0
 11 12  1  0  0  0
 11 91  1  0  0  0
 12 13  2  0  0  0
 12 92  1  0  0  0
 13 14  1  0  0  0
 13 31  1  0  0  0
 14 15  2  0  0  0
 14 93  1  0  0  0
 15 94  1  0  0  0
 16 17  2  0  0  0
 16 21  1  0  0  0
 16 31  1  0  0  0
 17 18  1  0  0  0
 17 95  1  0  0  0
 18 19  2  0  0  0
 18 96  1  0  0  0
 19 20  1  0  0  0
 19 24  1  0  0  0
 20 21  2  0  0  0
 20 97  1  0  0  0
 21 23  1  0  0  0
 22 28  1  0  0  0
 22 32  2  0  0  0
 26 27  1  0  0  0
 28 98  1  0  0  0
 28 99  1  0  0  0
 29100  1  0  0  0
 29101  1  0  0  0
 33 34  1  0  0  0
 33 66  1  0  0  0
 33 70  2  0  0  0
 34 36  1  0  0  0
 34 59  1  0  0  0
 34102  1  0  0  0
 35 44  2  0  0  0
 35 45  1  0  0  0
 35 68  1  0  0  0
 36 56  1  0  0  0
 36103  1  0  0  0
 37 39  1  0  0  0
 37 47  1  0  0  0
 37 66  1  0  0  0
 37104  1  0  0  0
 38 43  2  0  0  0
 38 46  1  0  0  0
 38 47  1  0  0  0
 39 64  1  0  0  0
 39 67  2  0  0  0
 40 52  1  0  0  0
 40 53  2  0  0  0
 40 58  1  0  0  0
 41105  1  0  0  0
 41106  1  0  0  0
 41107  1  0  0  0
 41 48  1  0  0  0
 42 43  1  0  0  0
 42 66  1  0  0  0
 42108  1  0  0  0
 42109  1  0  0  0
 43 44  1  0  0  0
 44110  1  0  0  0
 45 46  2  0  0  0
 45111  1  0  0  0
 46112  1  0  0  0
 47113  1  0  0  0
 47114  1  0  0  0
 48 56  1  0  0  0
 48 65  1  0  0  0
 48115  1  0  0  0
 49 50  1  0  0  0
 49 53  1  0  0  0
 49 64  1  0  0  0
 49116  1  0  0  0
 50 51  1  0  0  0
 50117  1  0  0  0
 50118  1  0  0  0
 51 52  1  0  0  0
 51119  1  0  0  0
 51120  1  0  0  0
 52121  1  0  0  0
 52122  1  0  0  0
 53 54  1  0  0  0
 54 55  2  0  0  0
 54123  1  0  0  0
 55 57  1  0  0  0
 55124  1  0  0  0
 56 69  2  0  0  0
 57 58  2  0  0  0
 57125  1  0  0  0
 58126  1  0  0  0
 59 60  1  0  0  0
 59 61  1  0  0  0
 59 62  1  0  0  0
 60127  1  0  0  0
 60128  1  0  0  0
 60129  1  0  0  0
 61130  1  0  0  0
 61131  1  0  0  0
 61132  1  0  0  0
 62133  1  0  0  0
 62134  1  0  0  0
 62135  1  0  0  0
 63 65  1  0  0  0
 63136  1  0  0  0
 63137  1  0  0  0
 63138  1  0  0  0
 64139  1  0  0  0
 65140  1  0  0  0
 68 76  1  0  0  0
 71 72  2  0  0  0
 71 75  1  0  0  0
 71141  1  0  0  0
 72 76  1  0  0  0
 72142  1  0  0  0
 73 74  1  0  0  0
 73 76  2  0  0  0
 73143  1  0  0  0
 74 75  2  0  0  0
 74 80  1  0  0  0
 75 81  1  0  0  0
 77144  1  0  0  0
 77145  1  0  0  0
 77146  1  0  0  0
 77 80  1  0  0  0
 78 80  1  0  0  0
 78147  1  0  0  0
 78148  1  0  0  0
 78149  1  0  0  0
 79 80  1  0  0  0
 79150  1  0  0  0
 79151  1  0  0  0
 79152  1  0  0  0
 81153  1  0  0  0
M  ISO  4   1 100  68 101  76 101  81 100
M  END
> <chiral flag>
0

> <version>
0

> <s_m_source_file>
/data/baiqing/PycharmProjects/Reinvent-master-3.2/result/LINK_invent/BTK/process_docking_weight1_custom_product_contain_oxygen_bond_distance_aromatic_linkinvent_7_9_3/rearranged_h_0002.sdf

> <i_m_source_file_index>
13

> <r_mmod_Potential_Energy-OPLS-2005>
4257.4365234375

> <r_mmod_Stretch_Energy-OPLS-2005>
1639.2587890625

> <r_mmod_Bend_Energy-OPLS-2005>
1009.89965820312

> <r_mmod_Torsional_Energy-OPLS-2005>
248.119873046875

> <r_mmod_Improper_Torsional_Energy-OPLS-2005>
6.74004125595093

> <r_mmod_Van_der_Waal_Energy-OPLS-2005>
160.420867919922

> <r_mmod_Electrostatic_Energy-OPLS-2005>
-375.722839355469

> <r_mmod_Solvation_Energy-OPLS-2005>
-206.302169799805

> <b_mmod_Minimization_Converged-OPLS-2005>
0

> <r_mmod_RMS_Derivative-OPLS-2005>
0.954857230186462

$$$$
13
                    3D
 Structure written by MMmdl.
146154  0  0  1  0            999 V2000
  -30.4098  -15.3368   20.3736 C   0  0  0  0  0  0
  -30.4408  -12.8687   19.5077 C   0  0  0  0  0  0
  -29.5353  -12.5850   18.2819 C   0  0  0  0  0  0
  -28.0893  -12.2926   18.7204 C   0  0  0  0  0  0
  -27.6067  -13.2774   19.8133 C   0  0  2  0  0  0
  -28.6433  -13.4856   20.9367 C   0  0  0  0  0  0
  -25.2381  -13.8241   20.5754 C   0  0  0  0  0  0
  -24.1739  -13.0428   20.9269 C   0  0  0  0  0  0
  -24.6400  -11.6927   20.8765 C   0  0  0  0  0  0
  -23.9095  -10.4288   21.0407 C   0  0  0  0  0  0
  -24.3638   -9.4202   21.9186 C   0  0  0  0  0  0
  -23.6304   -8.2241   22.0754 C   0  0  0  0  0  0
  -22.4286   -8.0282   21.3545 C   0  0  0  0  0  0
  -21.9928   -9.0256   20.4645 C   0  0  0  0  0  0
  -22.7265  -10.2131   20.3055 C   0  0  0  0  0  0
  -21.6855   -6.0738   22.5279 C   0  0  0  0  0  0
  -21.4016   -6.5641   23.8213 C   0  0  0  0  0  0
  -21.3660   -5.6793   24.9175 C   0  0  0  0  0  0
  -21.6044   -4.3056   24.7225 C   0  0  0  0  0  0
  -21.8819   -3.8148   23.4346 C   0  0  0  0  0  0
  -21.9193   -4.6965   22.3402 C   0  0  0  0  0  0
  -22.7755  -13.5180   21.1912 C   0  0  0  0  0  0
  -22.1662   -4.2151   21.0980 F   0  0  0  0  0  0
  -21.5628   -3.4539   25.7738 F   0  0  0  0  0  0
  -29.8543  -14.0215   20.2892 N   0  0  0  0  0  0
  -26.2805  -12.9519   20.3203 N   0  0  0  0  0  0
  -25.9336  -11.6622   20.5711 N   0  0  0  0  0  0
  -22.0414  -12.8161   22.0465 N   0  0  0  0  0  0
  -25.3995  -15.1978   20.4190 N   0  0  0  0  0  0
  -31.6452  -15.3236   20.2628 O   0  0  0  0  0  0
  -21.6644   -6.8882   21.4242 O   0  0  0  0  0  0
  -22.3435  -14.5481   20.6751 O   0  0  0  0  0  0
  -24.6676  -31.8201   23.1685 C   0  0  0  0  0  0
  -25.9338  -32.4572   23.8162 C   0  0  1  0  0  0
  -27.2180  -26.8797   20.1993 C   0  0  0  0  0  0
  -25.5988  -33.8388   24.2061 N   0  0  0  0  0  0
  -23.4850  -30.4306   21.5193 C   0  0  2  0  0  0
  -24.9397  -28.8067   20.1238 C   0  0  0  0  0  0
  -22.7690  -29.4425   22.4779 C   0  0  0  0  0  0
  -18.0327  -28.1412   22.8464 C   0  0  0  0  0  0
  -24.1494  -36.7198   23.2646 C   0  0  0  0  0  0
  -26.0581  -30.6102   21.4086 C   0  0  0  0  0  0
  -26.1264  -29.1921   20.7618 C   0  0  0  0  0  0
  -27.2620  -28.2521   20.7740 C   0  0  0  0  0  0
  -26.0007  -26.6626   19.5139 C   0  0  0  0  0  0
  -24.9036  -27.5611   19.4801 C   0  0  0  0  0  0
  -23.7300  -29.7426   20.1490 C   0  0  0  0  0  0
  -25.4136  -36.2957   24.0296 C   0  0  1  0  0  0
  -20.5954  -28.3762   23.1178 C   0  0  2  0  0  0
  -20.6803  -26.9439   22.5400 C   0  0  0  0  0  0
  -19.5775  -26.6378   21.5213 C   0  0  0  0  0  0
  -18.1959  -26.7944   22.1622 C   0  0  0  0  0  0
  -19.1589  -28.8909   23.2806 C   0  0  0  0  0  0
  -18.9497  -30.1497   23.8844 C   0  0  0  0  0  0
  -17.6489  -30.6599   24.0554 C   0  0  0  0  0  0
  -25.9106  -34.9341   23.5001 C   0  0  0  0  0  0
  -16.5380  -29.9084   23.6345 C   0  0  0  0  0  0
  -16.7308  -28.6506   23.0363 C   0  0  0  0  0  0
  -26.4571  -31.6530   25.0707 C   0  0  0  0  0  0
  -25.3683  -31.3795   26.1352 C   0  0  0  0  0  0
  -27.0477  -30.2889   24.6478 C   0  0  0  0  0  0
  -27.6052  -32.4351   25.7515 C   0  0  0  0  0  0
  -27.5571  -37.1755   24.8464 C   0  0  0  0  0  0
  -21.4356  -29.3046   22.3523 N   0  0  0  0  0  0
  -26.4277  -37.3698   23.9410 N   0  0  0  0  0  0
  -24.7586  -30.9817   22.0853 N   0  0  0  0  0  0
  -23.4215  -28.7995   23.3038 O   0  0  0  0  0  0
  -28.1994  -25.7389   20.1495 O   0  0  0  0  0  0
  -26.5719  -34.8882   22.4600 O   0  0  0  0  0  0
  -23.5734  -32.1195   23.6744 O   0  0  0  0  0  0
  -29.6170  -21.3581   18.1505 C   0  0  0  0  0  0
  -29.1631  -22.5601   18.7722 C   0  0  0  0  0  0
  -29.7001  -20.0783   18.7767 C   0  0  0  0  0  0
  -28.8431  -21.1896   20.7292 C   0  0  0  0  0  0
  -28.7045  -22.6131   20.1073 C   0  0  0  0  0  0
  -29.3522  -19.8473   20.1260 C   0  0  0  0  0  0
  -28.0129  -24.1129   20.6519 C   0  0  0  0  0  0
  -29.7602  -18.2554   20.7923 C   0  0  0  0  0  0
  -29.6303  -16.6179   20.3805 N   0  0  0  0  0  0
  -27.2051  -23.9643   21.5715 O   0  0  0  0  0  0
  -31.4487  -13.1014   19.1614 H   0  0  0  0  0  0
  -30.5422  -11.9803   20.1333 H   0  0  0  0  0  0
  -29.9292  -11.7501   17.7008 H   0  0  0  0  0  0
  -29.5448  -13.4517   17.6192 H   0  0  0  0  0  0
  -28.0630  -11.2746   19.1108 H   0  0  0  0  0  0
  -27.4169  -12.3093   17.8618 H   0  0  0  0  0  0
  -27.5079  -14.2338   19.2983 H   0  0  0  0  0  0
  -28.8386  -12.5610   21.4820 H   0  0  0  0  0  0
  -28.2711  -14.2060   21.6669 H   0  0  0  0  0  0
  -25.2778   -9.5677   22.4767 H   0  0  0  0  0  0
  -24.0008   -7.4631   22.7476 H   0  0  0  0  0  0
  -21.0859   -8.8781   19.8950 H   0  0  0  0  0  0
  -22.3724  -10.9673   19.6167 H   0  0  0  0  0  0
  -21.2009   -7.6149   23.9717 H   0  0  0  0  0  0
  -21.1482   -6.0523   25.9078 H   0  0  0  0  0  0
  -22.0597   -2.7610   23.2846 H   0  0  0  0  0  0
  -22.4048  -11.9832   22.4857 H   0  0  0  0  0  0
  -21.1023  -13.1164   22.2665 H   0  0  0  0  0  0
  -24.6268  -15.8449   20.5336 H   0  0  0  0  0  0
  -26.2366  -15.6421   20.0669 H   0  0  0  0  0  0
  -26.7411  -32.5101   23.0878 H   0  0  0  0  0  0
  -25.0077  -33.9461   25.0173 H   0  0  0  0  0  0
  -22.8008  -31.2634   21.3440 H   0  0  0  0  0  0
  -23.3773  -35.9510   23.3264 H   0  0  0  0  0  0
  -24.3572  -36.8893   22.2070 H   0  0  0  0  0  0
  -23.7233  -37.6364   23.6735 H   0  0  0  0  0  0
  -26.2416  -31.3445   20.6231 H   0  0  0  0  0  0
  -26.9169  -30.6735   22.0646 H   0  0  0  0  0  0
  -28.1665  -28.5534   21.2832 H   0  0  0  0  0  0
  -25.8716  -25.7155   19.0094 H   0  0  0  0  0  0
  -24.0056  -27.2593   18.9587 H   0  0  0  0  0  0
  -23.8942  -30.5086   19.3903 H   0  0  0  0  0  0
  -22.8383  -29.2015   19.8273 H   0  0  0  0  0  0
  -25.1335  -36.1746   25.0786 H   0  0  0  0  0  0
  -21.0040  -28.3371   24.1302 H   0  0  0  0  0  0
  -20.5682  -26.2382   23.3644 H   0  0  0  0  0  0
  -21.6665  -26.7411   22.1207 H   0  0  0  0  0  0
  -19.6934  -25.6274   21.1278 H   0  0  0  0  0  0
  -19.6713  -27.3158   20.6719 H   0  0  0  0  0  0
  -17.4226  -26.6684   21.4028 H   0  0  0  0  0  0
  -18.0355  -26.0099   22.9032 H   0  0  0  0  0  0
  -19.7972  -30.7328   24.2189 H   0  0  0  0  0  0
  -17.5040  -31.6274   24.5167 H   0  0  0  0  0  0
  -15.5377  -30.2968   23.7700 H   0  0  0  0  0  0
  -15.8709  -28.0806   22.7109 H   0  0  0  0  0  0
  -24.5885  -30.7124   25.7658 H   0  0  0  0  0  0
  -24.8851  -32.3000   26.4635 H   0  0  0  0  0  0
  -25.7901  -30.9055   27.0223 H   0  0  0  0  0  0
  -26.3159  -29.6551   24.1459 H   0  0  0  0  0  0
  -27.3959  -29.7272   25.5156 H   0  0  0  0  0  0
  -27.9120  -30.4055   23.9938 H   0  0  0  0  0  0
  -27.2612  -33.3700   26.1951 H   0  0  0  0  0  0
  -28.3938  -32.6834   25.0400 H   0  0  0  0  0  0
  -28.0636  -31.8573   26.5551 H   0  0  0  0  0  0
  -28.2558  -38.0079   24.7525 H   0  0  0  0  0  0
  -28.1098  -36.2605   24.6274 H   0  0  0  0  0  0
  -27.2288  -37.1373   25.8866 H   0  0  0  0  0  0
  -20.9622  -29.8729   21.6638 H   0  0  0  0  0  0
  -26.0120  -38.2752   24.1428 H   0  0  0  0  0  0
  -29.9295  -21.4236   17.1170 H   0  0  0  0  0  0
  -29.1306  -23.4643   18.1791 H   0  0  0  0  0  0
  -30.0944  -19.2520   18.2006 H   0  0  0  0  0  0
  -28.5397  -21.1315   21.7654 H   0  0  0  0  0  0
  -29.2972  -18.2876   21.7789 H   0  0  0  0  0  0
  -30.8236  -18.3584   21.0109 H   0  0  0  0  0  0
  -28.6552  -16.3885   20.2592 H   0  0  0  0  0  0
  1 25  1  0  0  0
  1 30  2  0  0  0
  1 79  1  0  0  0
  2  3  1  0  0  0
  2 25  1  0  0  0
  2 81  1  0  0  0
  2 82  1  0  0  0
  3  4  1  0  0  0
  3 83  1  0  0  0
  3 84  1  0  0  0
  4  5  1  0  0  0
  4 85  1  0  0  0
  4 86  1  0  0  0
  5  6  1  0  0  0
  5 26  1  0  0  0
  5 87  1  0  0  0
  6 25  1  0  0  0
  6 88  1  0  0  0
  6 89  1  0  0  0
  7  8  2  0  0  0
  7 26  1  0  0  0
  7 29  1  0  0  0
  8  9  1  0  0  0
  8 22  1  0  0  0
  9 10  1  0  0  0
  9 27  2  0  0  0
 10 11  2  0  0  0
 10 15  1  0  0  0
 11 12  1  0  0  0
 11 90  1  0  0  0
 12 13  2  0  0  0
 12 91  1  0  0  0
 13 14  1  0  0  0
 13 31  1  0  0  0
 14 15  2  0  0  0
 14 92  1  0  0  0
 15 93  1  0  0  0
 16 17  2  0  0  0
 16 21  1  0  0  0
 16 31  1  0  0  0
 17 18  1  0  0  0
 17 94  1  0  0  0
 18 19  2  0  0  0
 18 95  1  0  0  0
 19 20  1  0  0  0
 19 24  1  0  0  0
 20 21  2  0  0  0
 20 96  1  0  0  0
 21 23  1  0  0  0
 22 28  1  0  0  0
 22 32  2  0  0  0
 26 27  1  0  0  0
 28 97  1  0  0  0
 28 98  1  0  0  0
 29 99  1  0  0  0
 29100  1  0  0  0
 33 34  1  0  0  0
 33 66  1  0  0  0
 33 70  2  0  0  0
 34 36  1  0  0  0
 34 59  1  0  0  0
 34101  1  0  0  0
 35 44  2  0  0  0
 35 45  1  0  0  0
 35 68  1  0  0  0
 36 56  1  0  0  0
 36102  1  0  0  0
 37 39  1  0  0  0
 37 47  1  0  0  0
 37 66  1  0  0  0
 37103  1  0  0  0
 38 43  2  0  0  0
 38 46  1  0  0  0
 38 47  1  0  0  0
 39 64  1  0  0  0
 39 67  2  0  0  0
 40 52  1  0  0  0
 40 53  2  0  0  0
 40 58  1  0  0  0
 41104  1  0  0  0
 41105  1  0  0  0
 41106  1  0  0  0
 41 48  1  0  0  0
 42 43  1  0  0  0
 42 66  1  0  0  0
 42107  1  0  0  0
 42108  1  0  0  0
 43 44  1  0  0  0
 44109  1  0  0  0
 45 46  2  0  0  0
 45110  1  0  0  0
 46111  1  0  0  0
 47112  1  0  0  0
 47113  1  0  0  0
 48 56  1  0  0  0
 48 65  1  0  0  0
 48114  1  0  0  0
 49 50  1  0  0  0
 49 53  1  0  0  0
 49 64  1  0  0  0
 49115  1  0  0  0
 50 51  1  0  0  0
 50116  1  0  0  0
 50117  1  0  0  0
 51 52  1  0  0  0
 51118  1  0  0  0
 51119  1  0  0  0
 52120  1  0  0  0
 52121  1  0  0  0
 53 54  1  0  0  0
 54 55  2  0  0  0
 54122  1  0  0  0
 55 57  1  0  0  0
 55123  1  0  0  0
 56 69  2  0  0  0
 57 58  2  0  0  0
 57124  1  0  0  0
 58125  1  0  0  0
 59 60  1  0  0  0
 59 61  1  0  0  0
 59 62  1  0  0  0
 60126  1  0  0  0
 60127  1  0  0  0
 60128  1  0  0  0
 61129  1  0  0  0
 61130  1  0  0  0
 61131  1  0  0  0
 62132  1  0  0  0
 62133  1  0  0  0
 62134  1  0  0  0
 63 65  1  0  0  0
 63135  1  0  0  0
 63136  1  0  0  0
 63137  1  0  0  0
 64138  1  0  0  0
 65139  1  0  0  0
 68 77  1  0  0  0
 71 72  2  0  0  0
 71 73  1  0  0  0
 71140  1  0  0  0
 72 75  1  0  0  0
 72141  1  0  0  0
 73 76  2  0  0  0
 73142  1  0  0  0
 74 75  2  0  0  0
 74 76  1  0  0  0
 74143  1  0  0  0
 75 77  1  0  0  0
 76 78  1  0  0  0
 77 80  2  0  0  0
 78 79  1  0  0  0
 78144  1  0  0  0
 78145  1  0  0  0
 79146  1  0  0  0
M  ISO  4   1 100  68 101  77 101  79 100
M  END
> <chiral flag>
0

> <version>
0

> <s_m_source_file>
/data/baiqing/PycharmProjects/Reinvent-master-3.2/result/LINK_invent/BTK/process_docking_weight1_custom_product_contain_oxygen_bond_distance_aromatic_linkinvent_7_9_3/rearranged_h_0002.sdf

> <i_m_source_file_index>
14

> <r_mmod_Potential_Energy-OPLS-2005>
1455.11975097656

> <r_mmod_Stretch_Energy-OPLS-2005>
686.045471191406

> <r_mmod_Bend_Energy-OPLS-2005>
446.300048828125

> <r_mmod_Torsional_Energy-OPLS-2005>
232.818740844727

> <r_mmod_Improper_Torsional_Energy-OPLS-2005>
6.18646001815796

> <r_mmod_Van_der_Waal_Energy-OPLS-2005>
120.808937072754

> <r_mmod_Electrostatic_Energy-OPLS-2005>
-350.542907714844

> <r_mmod_Solvation_Energy-OPLS-2005>
-223.631927490234

> <b_mmod_Minimization_Converged-OPLS-2005>
0

> <r_mmod_RMS_Derivative-OPLS-2005>
0.0672496855258942

$$$$
14
                    3D
 Structure written by MMmdl.
149157  0  0  1  0            999 V2000
  -30.4810  -15.1903   20.3856 C   0  0  0  0  0  0
  -30.4387  -12.7576   19.5235 C   0  0  0  0  0  0
  -29.5329  -12.5652   18.2828 C   0  0  0  0  0  0
  -28.0785  -12.3020   18.7094 C   0  0  0  0  0  0
  -27.6158  -13.2714   19.8261 C   0  0  2  0  0  0
  -28.6515  -13.4220   20.9611 C   0  0  0  0  0  0
  -25.2405  -13.8249   20.5738 C   0  0  0  0  0  0
  -24.1751  -13.0443   20.9254 C   0  0  0  0  0  0
  -24.6404  -11.6939   20.8766 C   0  0  0  0  0  0
  -23.9098  -10.4295   21.0409 C   0  0  0  0  0  0
  -24.3640   -9.4205   21.9187 C   0  0  0  0  0  0
  -23.6304   -8.2245   22.0758 C   0  0  0  0  0  0
  -22.4285   -8.0288   21.3547 C   0  0  0  0  0  0
  -21.9928   -9.0264   20.4650 C   0  0  0  0  0  0
  -22.7268  -10.2137   20.3058 C   0  0  0  0  0  0
  -21.6856   -6.0740   22.5280 C   0  0  0  0  0  0
  -21.4018   -6.5644   23.8214 C   0  0  0  0  0  0
  -21.3657   -5.6795   24.9175 C   0  0  0  0  0  0
  -21.6039   -4.3058   24.7226 C   0  0  0  0  0  0
  -21.8819   -3.8151   23.4348 C   0  0  0  0  0  0
  -21.9193   -4.6968   22.3404 C   0  0  0  0  0  0
  -22.7766  -13.5194   21.1896 C   0  0  0  0  0  0
  -22.1660   -4.2154   21.0980 F   0  0  0  0  0  0
  -21.5624   -3.4541   25.7737 F   0  0  0  0  0  0
  -29.8954  -13.9005   20.3398 N   0  0  0  0  0  0
  -26.2837  -12.9520   20.3230 N   0  0  0  0  0  0
  -25.9342  -11.6627   20.5733 N   0  0  0  0  0  0
  -22.0421  -12.8177   22.0454 N   0  0  0  0  0  0
  -25.4035  -15.1983   20.4158 N   0  0  0  0  0  0
  -31.6983  -15.1875   20.1595 O   0  0  0  0  0  0
  -21.6644   -6.8887   21.4244 O   0  0  0  0  0  0
  -22.3446  -14.5493   20.6735 O   0  0  0  0  0  0
  -24.6584  -31.8294   23.1782 C   0  0  0  0  0  0
  -25.9289  -32.4616   23.8216 C   0  0  1  0  0  0
  -27.2119  -26.9747   20.1752 C   0  0  0  0  0  0
  -25.5977  -33.8429   24.2118 N   0  0  0  0  0  0
  -23.4710  -30.4454   21.5261 C   0  0  2  0  0  0
  -24.9257  -28.8500   20.1108 C   0  0  0  0  0  0
  -22.7647  -29.4466   22.4798 C   0  0  0  0  0  0
  -18.0317  -28.1403   22.8465 C   0  0  0  0  0  0
  -24.1492  -36.7216   23.2647 C   0  0  0  0  0  0
  -26.0393  -30.6484   21.4076 C   0  0  0  0  0  0
  -26.1078  -29.2437   20.7523 C   0  0  0  0  0  0
  -27.2471  -28.3237   20.7725 C   0  0  0  0  0  0
  -26.0104  -26.7432   19.4650 C   0  0  0  0  0  0
  -24.8992  -27.6167   19.4479 C   0  0  0  0  0  0
  -23.7096  -29.7708   20.1491 C   0  0  0  0  0  0
  -25.4130  -36.2981   24.0306 C   0  0  1  0  0  0
  -20.5942  -28.3742   23.1193 C   0  0  2  0  0  0
  -20.6794  -26.9428   22.5394 C   0  0  0  0  0  0
  -19.5768  -26.6380   21.5204 C   0  0  0  0  0  0
  -18.1951  -26.7937   22.1617 C   0  0  0  0  0  0
  -19.1580  -28.8893   23.2818 C   0  0  0  0  0  0
  -18.9495  -30.1483   23.8851 C   0  0  0  0  0  0
  -17.6490  -30.6595   24.0555 C   0  0  0  0  0  0
  -25.9093  -34.9363   23.5029 C   0  0  0  0  0  0
  -16.5379  -29.9083   23.6344 C   0  0  0  0  0  0
  -16.7301  -28.6502   23.0364 C   0  0  0  0  0  0
  -26.4561  -31.6541   25.0721 C   0  0  0  0  0  0
  -25.3702  -31.3766   26.1384 C   0  0  0  0  0  0
  -27.0461  -30.2913   24.6430 C   0  0  0  0  0  0
  -27.6062  -32.4344   25.7513 C   0  0  0  0  0  0
  -27.5570  -37.1760   24.8465 C   0  0  0  0  0  0
  -21.4321  -29.3042   22.3548 N   0  0  0  0  0  0
  -26.4278  -37.3713   23.9413 N   0  0  0  0  0  0
  -24.7434  -30.9998   22.0906 N   0  0  0  0  0  0
  -23.4217  -28.8019   23.3010 O   0  0  0  0  0  0
  -28.1699  -25.8396   20.2260 O   0  0  0  0  0  0
  -26.5694  -34.8886   22.4617 O   0  0  0  0  0  0
  -23.5664  -32.1246   23.6898 O   0  0  0  0  0  0
  -29.7661  -22.2532   19.9963 C   0  0  0  0  0  0
  -30.2098  -20.8333   19.9812 C   0  0  0  0  0  0
  -27.7375  -21.5284   20.7906 C   0  0  0  0  0  0
  -28.4664  -22.7451   20.4119 C   0  0  0  0  0  0
  -29.4731  -19.6253   20.3639 C   0  0  0  0  0  0
  -28.1711  -20.1060   20.7805 C   0  0  0  0  0  0
  -27.7208  -24.2788   20.5160 C   0  0  0  0  0  0
  -27.1790  -19.0651   21.2624 C   0  0  0  0  0  0
  -30.1900  -18.0400   20.3481 C   0  0  0  0  0  0
  -29.7458  -16.4616   20.4786 N   0  0  0  0  0  0
  -26.5570  -24.1836   20.9146 O   0  0  0  0  0  0
  -31.4625  -12.9445   19.1963 H   0  0  0  0  0  0
  -30.4846  -11.8436   20.1177 H   0  0  0  0  0  0
  -29.8997  -11.7436   17.6660 H   0  0  0  0  0  0
  -29.5750  -13.4601   17.6600 H   0  0  0  0  0  0
  -28.0247  -11.2751   19.0728 H   0  0  0  0  0  0
  -27.4104  -12.3575   17.8492 H   0  0  0  0  0  0
  -27.5397  -14.2444   19.3393 H   0  0  0  0  0  0
  -28.7999  -12.4829   21.4961 H   0  0  0  0  0  0
  -28.3055  -14.1497   21.6970 H   0  0  0  0  0  0
  -25.2782   -9.5676   22.4768 H   0  0  0  0  0  0
  -24.0006   -7.4636   22.7481 H   0  0  0  0  0  0
  -21.0856   -8.8792   19.8957 H   0  0  0  0  0  0
  -22.3730  -10.9679   19.6170 H   0  0  0  0  0  0
  -21.2016   -7.6153   23.9720 H   0  0  0  0  0  0
  -21.1474   -6.0526   25.9077 H   0  0  0  0  0  0
  -22.0599   -2.7614   23.2848 H   0  0  0  0  0  0
  -22.4050  -11.9850   22.4847 H   0  0  0  0  0  0
  -21.1037  -13.1192   22.2654 H   0  0  0  0  0  0
  -24.6283  -15.8443   20.5159 H   0  0  0  0  0  0
  -26.2389  -15.6362   20.0518 H   0  0  0  0  0  0
  -26.7355  -32.5174   23.0931 H   0  0  0  0  0  0
  -25.0082  -33.9519   25.0241 H   0  0  0  0  0  0
  -22.7816  -31.2761   21.3616 H   0  0  0  0  0  0
  -23.3766  -35.9533   23.3280 H   0  0  0  0  0  0
  -24.3571  -36.8886   22.2067 H   0  0  0  0  0  0
  -23.7239  -37.6395   23.6716 H   0  0  0  0  0  0
  -26.2169  -31.3918   20.6295 H   0  0  0  0  0  0
  -26.9009  -30.7032   22.0609 H   0  0  0  0  0  0
  -28.1369  -28.6166   21.3116 H   0  0  0  0  0  0
  -25.8922  -25.8048   18.9429 H   0  0  0  0  0  0
  -24.0061  -27.3117   18.9199 H   0  0  0  0  0  0
  -23.8617  -30.5436   19.3950 H   0  0  0  0  0  0
  -22.8205  -29.2237   19.8303 H   0  0  0  0  0  0
  -25.1323  -36.1783   25.0798 H   0  0  0  0  0  0
  -21.0028  -28.3343   24.1314 H   0  0  0  0  0  0
  -20.5668  -26.2359   23.3628 H   0  0  0  0  0  0
  -21.6660  -26.7400   22.1206 H   0  0  0  0  0  0
  -19.6928  -25.6278   21.1260 H   0  0  0  0  0  0
  -19.6710  -27.3168   20.6716 H   0  0  0  0  0  0
  -17.4217  -26.6674   21.4026 H   0  0  0  0  0  0
  -18.0356  -26.0086   22.9023 H   0  0  0  0  0  0
  -19.7973  -30.7308   24.2204 H   0  0  0  0  0  0
  -17.5046  -31.6274   24.5162 H   0  0  0  0  0  0
  -15.5380  -30.2974   23.7697 H   0  0  0  0  0  0
  -15.8698  -28.0809   22.7107 H   0  0  0  0  0  0
  -24.5901  -30.7097   25.7695 H   0  0  0  0  0  0
  -24.8874  -32.2956   26.4712 H   0  0  0  0  0  0
  -25.7951  -30.9000   27.0228 H   0  0  0  0  0  0
  -26.3129  -29.6591   24.1410 H   0  0  0  0  0  0
  -27.3978  -29.7266   25.5076 H   0  0  0  0  0  0
  -27.9075  -30.4104   23.9855 H   0  0  0  0  0  0
  -27.2644  -33.3694   26.1960 H   0  0  0  0  0  0
  -28.3938  -32.6824   25.0384 H   0  0  0  0  0  0
  -28.0657  -31.8556   26.5535 H   0  0  0  0  0  0
  -28.2563  -38.0080   24.7528 H   0  0  0  0  0  0
  -28.1094  -36.2608   24.6275 H   0  0  0  0  0  0
  -27.2288  -37.1379   25.8868 H   0  0  0  0  0  0
  -20.9562  -29.8747   21.6700 H   0  0  0  0  0  0
  -26.0128  -38.2769   24.1439 H   0  0  0  0  0  0
  -30.4807  -22.9963   19.6697 H   0  0  0  0  0  0
  -31.2261  -20.6717   19.6483 H   0  0  0  0  0  0
  -26.7271  -21.6966   21.1373 H   0  0  0  0  0  0
  -26.2107  -19.5058   21.5012 H   0  0  0  0  0  0
  -27.5543  -18.5729   22.1601 H   0  0  0  0  0  0
  -27.0198  -18.3053   20.4970 H   0  0  0  0  0  0
  -30.9592  -18.1283   21.1157 H   0  0  0  0  0  0
  -30.7601  -18.0478   19.4183 H   0  0  0  0  0  0
  -28.7562  -16.3322   20.6245 H   0  0  0  0  0  0
  1 25  1  0  0  0
  1 30  2  0  0  0
  1 80  1  0  0  0
  2  3  1  0  0  0
  2 25  1  0  0  0
  2 82  1  0  0  0
  2 83  1  0  0  0
  3  4  1  0  0  0
  3 84  1  0  0  0
  3 85  1  0  0  0
  4  5  1  0  0  0
  4 86  1  0  0  0
  4 87  1  0  0  0
  5  6  1  0  0  0
  5 26  1  0  0  0
  5 88  1  0  0  0
  6 25  1  0  0  0
  6 89  1  0  0  0
  6 90  1  0  0  0
  7  8  2  0  0  0
  7 26  1  0  0  0
  7 29  1  0  0  0
  8  9  1  0  0  0
  8 22  1  0  0  0
  9 10  1  0  0  0
  9 27  2  0  0  0
 10 11  2  0  0  0
 10 15  1  0  0  0
 11 12  1  0  0  0
 11 91  1  0  0  0
 12 13  2  0  0  0
 12 92  1  0  0  0
 13 14  1  0  0  0
 13 31  1  0  0  0
 14 15  2  0  0  0
 14 93  1  0  0  0
 15 94  1  0  0  0
 16 17  2  0  0  0
 16 21  1  0  0  0
 16 31  1  0  0  0
 17 18  1  0  0  0
 17 95  1  0  0  0
 18 19  2  0  0  0
 18 96  1  0  0  0
 19 20  1  0  0  0
 19 24  1  0  0  0
 20 21  2  0  0  0
 20 97  1  0  0  0
 21 23  1  0  0  0
 22 28  1  0  0  0
 22 32  2  0  0  0
 26 27  1  0  0  0
 28 98  1  0  0  0
 28 99  1  0  0  0
 29100  1  0  0  0
 29101  1  0  0  0
 33 34  1  0  0  0
 33 66  1  0  0  0
 33 70  2  0  0  0
 34 36  1  0  0  0
 34 59  1  0  0  0
 34102  1  0  0  0
 35 44  2  0  0  0
 35 45  1  0  0  0
 35 68  1  0  0  0
 36 56  1  0  0  0
 36103  1  0  0  0
 37 39  1  0  0  0
 37 47  1  0  0  0
 37 66  1  0  0  0
 37104  1  0  0  0
 38 43  2  0  0  0
 38 46  1  0  0  0
 38 47  1  0  0  0
 39 64  1  0  0  0
 39 67  2  0  0  0
 40 52  1  0  0  0
 40 53  2  0  0  0
 40 58  1  0  0  0
 41105  1  0  0  0
 41106  1  0  0  0
 41107  1  0  0  0
 41 48  1  0  0  0
 42 43  1  0  0  0
 42 66  1  0  0  0
 42108  1  0  0  0
 42109  1  0  0  0
 43 44  1  0  0  0
 44110  1  0  0  0
 45 46  2  0  0  0
 45111  1  0  0  0
 46112  1  0  0  0
 47113  1  0  0  0
 47114  1  0  0  0
 48 56  1  0  0  0
 48 65  1  0  0  0
 48115  1  0  0  0
 49 50  1  0  0  0
 49 53  1  0  0  0
 49 64  1  0  0  0
 49116  1  0  0  0
 50 51  1  0  0  0
 50117  1  0  0  0
 50118  1  0  0  0
 51 52  1  0  0  0
 51119  1  0  0  0
 51120  1  0  0  0
 52121  1  0  0  0
 52122  1  0  0  0
 53 54  1  0  0  0
 54 55  2  0  0  0
 54123  1  0  0  0
 55 57  1  0  0  0
 55124  1  0  0  0
 56 69  2  0  0  0
 57 58  2  0  0  0
 57125  1  0  0  0
 58126  1  0  0  0
 59 60  1  0  0  0
 59 61  1  0  0  0
 59 62  1  0  0  0
 60127  1  0  0  0
 60128  1  0  0  0
 60129  1  0  0  0
 61130  1  0  0  0
 61131  1  0  0  0
 61132  1  0  0  0
 62133  1  0  0  0
 62134  1  0  0  0
 62135  1  0  0  0
 63 65  1  0  0  0
 63136  1  0  0  0
 63137  1  0  0  0
 63138  1  0  0  0
 64139  1  0  0  0
 65140  1  0  0  0
 68 77  1  0  0  0
 71 72  2  0  0  0
 71 74  1  0  0  0
 71141  1  0  0  0
 72 75  1  0  0  0
 72142  1  0  0  0
 73 74  2  0  0  0
 73 76  1  0  0  0
 73143  1  0  0  0
 74 77  1  0  0  0
 75 76  2  0  0  0
 75 79  1  0  0  0
 76 78  1  0  0  0
 77 81  2  0  0  0
 78144  1  0  0  0
 78145  1  0  0  0
 78146  1  0  0  0
 79 80  1  0  0  0
 79147  1  0  0  0
 79148  1  0  0  0
 80149  1  0  0  0
M  ISO  4   1 100  68 101  77 101  80 100
M  END
> <chiral flag>
0

> <version>
0

> <s_m_source_file>
/data/baiqing/PycharmProjects/Reinvent-master-3.2/result/LINK_invent/BTK/process_docking_weight1_custom_product_contain_oxygen_bond_distance_aromatic_linkinvent_7_9_3/rearranged_h_0002.sdf

> <i_m_source_file_index>
15

> <r_mmod_Potential_Energy-OPLS-2005>
1078.71484375

> <r_mmod_Stretch_Energy-OPLS-2005>
487.035522460938

> <r_mmod_Bend_Energy-OPLS-2005>
437.198608398438

> <r_mmod_Torsional_Energy-OPLS-2005>
200.838394165039

> <r_mmod_Improper_Torsional_Energy-OPLS-2005>
4.28387546539307

> <r_mmod_Van_der_Waal_Energy-OPLS-2005>
133.663452148438

> <r_mmod_Electrostatic_Energy-OPLS-2005>
-363.40576171875

> <r_mmod_Solvation_Energy-OPLS-2005>
-216.149124145508

> <b_mmod_Minimization_Converged-OPLS-2005>
0

> <r_mmod_RMS_Derivative-OPLS-2005>
0.610372543334961

$$$$
15
                    3D
 Structure written by MMmdl.
163172  0  0  1  0            999 V2000
  -30.7055  -14.4513   20.5750 C   0  0  0  0  0  0
  -30.4190  -12.2917   19.4252 C   0  0  0  0  0  0
  -29.4952  -12.5072   18.2088 C   0  0  0  0  0  0
  -28.0151  -12.3699   18.6177 C   0  0  0  0  0  0
  -27.6629  -13.2056   19.8780 C   0  0  2  0  0  0
  -28.7014  -12.9757   20.9993 C   0  0  0  0  0  0
  -25.2591  -13.8158   20.5683 C   0  0  0  0  0  0
  -24.1835  -13.0438   20.9164 C   0  0  0  0  0  0
  -24.6385  -11.6904   20.8726 C   0  0  0  0  0  0
  -23.9053  -10.4290   21.0398 C   0  0  0  0  0  0
  -24.3609   -9.4210   21.9179 C   0  0  0  0  0  0
  -23.6288   -8.2243   22.0754 C   0  0  0  0  0  0
  -22.4270   -8.0278   21.3545 C   0  0  0  0  0  0
  -21.9903   -9.0246   20.4643 C   0  0  0  0  0  0
  -22.7228  -10.2125   20.3046 C   0  0  0  0  0  0
  -21.6852   -6.0733   22.5280 C   0  0  0  0  0  0
  -21.4012   -6.5639   23.8214 C   0  0  0  0  0  0
  -21.3659   -5.6790   24.9175 C   0  0  0  0  0  0
  -21.6044   -4.3052   24.7226 C   0  0  0  0  0  0
  -21.8819   -3.8145   23.4344 C   0  0  0  0  0  0
  -21.9194   -4.6962   22.3400 C   0  0  0  0  0  0
  -22.7858  -13.5239   21.1832 C   0  0  0  0  0  0
  -22.1661   -4.2148   21.0977 F   0  0  0  0  0  0
  -21.5630   -3.4533   25.7735 F   0  0  0  0  0  0
  -30.0376  -13.2726   20.4534 N   0  0  0  0  0  0
  -26.3025  -12.9326   20.3372 N   0  0  0  0  0  0
  -25.9313  -11.6485   20.5761 N   0  0  0  0  0  0
  -22.0494  -12.8222   22.0374 N   0  0  0  0  0  0
  -25.4329  -15.1876   20.4110 N   0  0  0  0  0  0
  -31.8316  -14.6223   20.0991 O   0  0  0  0  0  0
  -21.6638   -6.8873   21.4240 O   0  0  0  0  0  0
  -22.3553  -14.5559   20.6700 O   0  0  0  0  0  0
  -24.6109  -31.8698   23.2117 C   0  0  0  0  0  0
  -25.9012  -32.4836   23.8407 C   0  0  1  0  0  0
  -27.2470  -27.4515   20.1057 C   0  0  0  0  0  0
  -25.5876  -33.8633   24.2342 N   0  0  0  0  0  0
  -23.3998  -30.4910   21.5502 C   0  0  2  0  0  0
  -24.8515  -28.9559   20.1186 C   0  0  0  0  0  0
  -22.7396  -29.4663   22.5000 C   0  0  0  0  0  0
  -18.0264  -28.1378   22.8494 C   0  0  0  0  0  0
  -24.1481  -36.7316   23.2628 C   0  0  0  0  0  0
  -25.9243  -30.8404   21.3629 C   0  0  0  0  0  0
  -26.0055  -29.4714   20.7216 C   0  0  0  0  0  0
  -27.2046  -28.7256   20.7229 C   0  0  0  0  0  0
  -26.0820  -26.9551   19.4877 C   0  0  0  0  0  0
  -24.8826  -27.6932   19.5006 C   0  0  0  0  0  0
  -23.6102  -29.8185   20.1660 C   0  0  0  0  0  0
  -25.4093  -36.3118   24.0345 C   0  0  1  0  0  0
  -20.5853  -28.3656   23.1329 C   0  0  2  0  0  0
  -20.6755  -26.9398   22.5423 C   0  0  0  0  0  0
  -19.5739  -26.6395   21.5213 C   0  0  0  0  0  0
  -18.1915  -26.7929   22.1620 C   0  0  0  0  0  0
  -19.1514  -28.8834   23.2911 C   0  0  0  0  0  0
  -18.9446  -30.1441   23.8919 C   0  0  0  0  0  0
  -17.6449  -30.6585   24.0572 C   0  0  0  0  0  0
  -25.9029  -34.9486   23.5145 C   0  0  0  0  0  0
  -16.5338  -29.9090   23.6328 C   0  0  0  0  0  0
  -16.7254  -28.6509   23.0343 C   0  0  0  0  0  0
  -26.4457  -31.6598   25.0717 C   0  0  0  0  0  0
  -25.3740  -31.3686   26.1476 C   0  0  0  0  0  0
  -27.0287  -30.3051   24.6056 C   0  0  0  0  0  0
  -27.6043  -32.4306   25.7473 C   0  0  0  0  0  0
  -27.5597  -37.1788   24.8435 C   0  0  0  0  0  0
  -21.4126  -29.3027   22.3740 N   0  0  0  0  0  0
  -26.4270  -37.3814   23.9442 N   0  0  0  0  0  0
  -24.6628  -31.0812   22.1009 N   0  0  0  0  0  0
  -23.4181  -28.8211   23.3035 O   0  0  0  0  0  0
  -28.3762  -26.6642   20.0453 O   0  0  0  0  0  0
  -26.5599  -34.8934   22.4711 O   0  0  0  0  0  0
  -23.5308  -32.1436   23.7526 O   0  0  0  0  0  0
  -31.0996  -18.8866   20.0095 C   0  0  0  0  0  0
  -29.4333  -19.1031   21.7596 C   0  0  0  0  0  0
  -31.0284  -17.4829   20.1081 C   0  0  0  0  0  0
  -29.3628  -17.6944   21.8609 C   0  0  0  0  0  0
  -30.3058  -19.7137   20.8317 C   0  0  0  0  0  0
  -30.1623  -16.8624   21.0431 C   0  0  0  0  0  0
  -29.1379  -21.9605   20.3004 C   0  0  0  0  0  0
  -30.9500  -21.8961   21.9978 C   0  0  0  0  0  0
  -29.3905  -23.4762   20.0898 C   0  0  0  0  0  0
  -31.2087  -23.3986   21.7679 C   0  0  0  0  0  0
  -30.4319  -21.2367   20.7139 C   0  0  1  0  0  0
  -30.3302  -25.5813   21.0470 C   0  0  0  0  0  0
  -29.1562  -26.5684   21.2355 C   0  0  0  0  0  0
  -30.0132  -15.4429   21.1722 N   0  0  0  0  0  0
  -30.0071  -24.1374   21.2787 N   0  3  1  0  0  0
  -31.4658  -12.3787   19.1286 H   0  0  0  0  0  0
  -30.3063  -11.2791   19.8157 H   0  0  0  0  0  0
  -29.7343  -11.7905   17.4220 H   0  0  0  0  0  0
  -29.6687  -13.4976   17.7838 H   0  0  0  0  0  0
  -27.8220  -11.3134   18.8085 H   0  0  0  0  0  0
  -27.3664  -12.6497   17.7868 H   0  0  0  0  0  0
  -27.7109  -14.2554   19.5876 H   0  0  0  0  0  0
  -28.6693  -11.9382   21.3353 H   0  0  0  0  0  0
  -28.4613  -13.5696   21.8818 H   0  0  0  0  0  0
  -25.2755   -9.5688   22.4749 H   0  0  0  0  0  0
  -24.0002   -7.4635   22.7471 H   0  0  0  0  0  0
  -21.0837   -8.8755   19.8947 H   0  0  0  0  0  0
  -22.3689  -10.9655   19.6147 H   0  0  0  0  0  0
  -21.2000   -7.6148   23.9718 H   0  0  0  0  0  0
  -21.1481   -6.0518   25.9079 H   0  0  0  0  0  0
  -22.0597   -2.7607   23.2841 H   0  0  0  0  0  0
  -22.4099  -11.9866   22.4736 H   0  0  0  0  0  0
  -21.1107  -13.1241   22.2569 H   0  0  0  0  0  0
  -24.6693  -15.8459   20.5202 H   0  0  0  0  0  0
  -26.2934  -15.6262   20.1069 H   0  0  0  0  0  0
  -26.7086  -32.5570   23.1183 H   0  0  0  0  0  0
  -25.0015  -33.9796   25.0480 H   0  0  0  0  0  0
  -22.6876  -31.3065   21.4088 H   0  0  0  0  0  0
  -23.3760  -35.9628   23.3250 H   0  0  0  0  0  0
  -24.3598  -36.8965   22.2052 H   0  0  0  0  0  0
  -23.7202  -37.6501   23.6656 H   0  0  0  0  0  0
  -26.0276  -31.6012   20.5878 H   0  0  0  0  0  0
  -26.8151  -30.9042   21.9755 H   0  0  0  0  0  0
  -28.0870  -29.1476   21.1819 H   0  0  0  0  0  0
  -26.1030  -25.9885   19.0042 H   0  0  0  0  0  0
  -23.9974  -27.2902   19.0279 H   0  0  0  0  0  0
  -23.7148  -30.5897   19.4022 H   0  0  0  0  0  0
  -22.7366  -29.2329   19.8733 H   0  0  0  0  0  0
  -25.1257  -36.1973   25.0833 H   0  0  0  0  0  0
  -20.9942  -28.3216   24.1451 H   0  0  0  0  0  0
  -20.5653  -26.2265   23.3608 H   0  0  0  0  0  0
  -21.6629  -26.7447   22.1216 H   0  0  0  0  0  0
  -19.6903  -25.6316   21.1218 H   0  0  0  0  0  0
  -19.6682  -27.3229   20.6763 H   0  0  0  0  0  0
  -17.4192  -26.6684   21.4016 H   0  0  0  0  0  0
  -18.0312  -26.0062   22.9006 H   0  0  0  0  0  0
  -19.7923  -30.7246   24.2301 H   0  0  0  0  0  0
  -17.5009  -31.6266   24.5173 H   0  0  0  0  0  0
  -15.5342  -30.3001   23.7648 H   0  0  0  0  0  0
  -15.8653  -28.0843   22.7039 H   0  0  0  0  0  0
  -24.5899  -30.7048   25.7812 H   0  0  0  0  0  0
  -24.8944  -32.2835   26.4965 H   0  0  0  0  0  0
  -25.8106  -30.8824   27.0208 H   0  0  0  0  0  0
  -26.2821  -29.6821   24.1113 H   0  0  0  0  0  0
  -27.4083  -29.7268   25.4489 H   0  0  0  0  0  0
  -27.8642  -30.4396   23.9183 H   0  0  0  0  0  0
  -27.2673  -33.3600   26.2075 H   0  0  0  0  0  0
  -28.3837  -32.6871   25.0285 H   0  0  0  0  0  0
  -28.0723  -31.8408   26.5365 H   0  0  0  0  0  0
  -28.2517  -38.0182   24.7635 H   0  0  0  0  0  0
  -28.1194  -36.2731   24.6052 H   0  0  0  0  0  0
  -27.2357  -37.1170   25.8838 H   0  0  0  0  0  0
  -20.9283  -29.8751   21.6966 H   0  0  0  0  0  0
  -26.0157  -38.2873   24.1531 H   0  0  0  0  0  0
  -31.7775  -19.3230   19.2892 H   0  0  0  0  0  0
  -28.8144  -19.7125   22.4033 H   0  0  0  0  0  0
  -31.6499  -16.9090   19.4379 H   0  0  0  0  0  0
  -28.6827  -17.2576   22.5791 H   0  0  0  0  0  0
  -28.7542  -21.5290   19.3751 H   0  0  0  0  0  0
  -28.3619  -21.8118   21.0521 H   0  0  0  0  0  0
  -30.2424  -21.7558   22.8160 H   0  0  0  0  0  0
  -31.8791  -21.4178   22.3102 H   0  0  0  0  0  0
  -28.4505  -23.9701   19.8417 H   0  0  0  0  0  0
  -30.0441  -23.6106   19.2262 H   0  0  0  0  0  0
  -32.0202  -23.5194   21.0480 H   0  0  0  0  0  0
  -31.5575  -23.8414   22.7020 H   0  0  0  0  0  0
  -31.1698  -21.4263   19.9318 H   0  0  0  0  0  0
  -31.0806  -25.8782   21.7811 H   0  0  0  0  0  0
  -30.8059  -25.7273   20.0765 H   0  0  0  0  0  0
  -29.5810  -27.5475   21.4582 H   0  0  0  0  0  0
  -28.5377  -26.2880   22.0897 H   0  0  0  0  0  0
  -29.1779  -15.1347   21.6464 H   0  0  0  0  0  0
  -29.3291  -24.0985   22.0270 H   0  0  0  0  0  0
  1 25  1  0  0  0
  1 30  2  0  0  0
  1 84  1  0  0  0
  2  3  1  0  0  0
  2 25  1  0  0  0
  2 86  1  0  0  0
  2 87  1  0  0  0
  3  4  1  0  0  0
  3 88  1  0  0  0
  3 89  1  0  0  0
  4  5  1  0  0  0
  4 90  1  0  0  0
  4 91  1  0  0  0
  5  6  1  0  0  0
  5 26  1  0  0  0
  5 92  1  0  0  0
  6 25  1  0  0  0
  6 93  1  0  0  0
  6 94  1  0  0  0
  7  8  2  0  0  0
  7 26  1  0  0  0
  7 29  1  0  0  0
  8  9  1  0  0  0
  8 22  1  0  0  0
  9 10  1  0  0  0
  9 27  2  0  0  0
 10 11  2  0  0  0
 10 15  1  0  0  0
 11 12  1  0  0  0
 11 95  1  0  0  0
 12 13  2  0  0  0
 12 96  1  0  0  0
 13 14  1  0  0  0
 13 31  1  0  0  0
 14 15  2  0  0  0
 14 97  1  0  0  0
 15 98  1  0  0  0
 16 17  2  0  0  0
 16 21  1  0  0  0
 16 31  1  0  0  0
 17 18  1  0  0  0
 17 99  1  0  0  0
 18 19  2  0  0  0
 18100  1  0  0  0
 19 20  1  0  0  0
 19 24  1  0  0  0
 20 21  2  0  0  0
 20101  1  0  0  0
 21 23  1  0  0  0
 22 28  1  0  0  0
 22 32  2  0  0  0
 26 27  1  0  0  0
 28102  1  0  0  0
 28103  1  0  0  0
 29104  1  0  0  0
 29105  1  0  0  0
 33 34  1  0  0  0
 33 66  1  0  0  0
 33 70  2  0  0  0
 34 36  1  0  0  0
 34 59  1  0  0  0
 34106  1  0  0  0
 35 44  2  0  0  0
 35 45  1  0  0  0
 35 68  1  0  0  0
 36 56  1  0  0  0
 36107  1  0  0  0
 37 39  1  0  0  0
 37 47  1  0  0  0
 37 66  1  0  0  0
 37108  1  0  0  0
 38 43  2  0  0  0
 38 46  1  0  0  0
 38 47  1  0  0  0
 39 64  1  0  0  0
 39 67  2  0  0  0
 40 52  1  0  0  0
 40 53  2  0  0  0
 40 58  1  0  0  0
 41109  1  0  0  0
 41110  1  0  0  0
 41111  1  0  0  0
 41 48  1  0  0  0
 42 43  1  0  0  0
 42 66  1  0  0  0
 42112  1  0  0  0
 42113  1  0  0  0
 43 44  1  0  0  0
 44114  1  0  0  0
 45 46  2  0  0  0
 45115  1  0  0  0
 46116  1  0  0  0
 47117  1  0  0  0
 47118  1  0  0  0
 48 56  1  0  0  0
 48 65  1  0  0  0
 48119  1  0  0  0
 49 50  1  0  0  0
 49 53  1  0  0  0
 49 64  1  0  0  0
 49120  1  0  0  0
 50 51  1  0  0  0
 50121  1  0  0  0
 50122  1  0  0  0
 51 52  1  0  0  0
 51123  1  0  0  0
 51124  1  0  0  0
 52125  1  0  0  0
 52126  1  0  0  0
 53 54  1  0  0  0
 54 55  2  0  0  0
 54127  1  0  0  0
 55 57  1  0  0  0
 55128  1  0  0  0
 56 69  2  0  0  0
 57 58  2  0  0  0
 57129  1  0  0  0
 58130  1  0  0  0
 59 60  1  0  0  0
 59 61  1  0  0  0
 59 62  1  0  0  0
 60131  1  0  0  0
 60132  1  0  0  0
 60133  1  0  0  0
 61134  1  0  0  0
 61135  1  0  0  0
 61136  1  0  0  0
 62137  1  0  0  0
 62138  1  0  0  0
 62139  1  0  0  0
 63 65  1  0  0  0
 63140  1  0  0  0
 63141  1  0  0  0
 63142  1  0  0  0
 64143  1  0  0  0
 65144  1  0  0  0
 68 83  1  0  0  0
 71 73  2  0  0  0
 71 75  1  0  0  0
 71145  1  0  0  0
 72 74  1  0  0  0
 72 75  2  0  0  0
 72146  1  0  0  0
 73 76  1  0  0  0
 73147  1  0  0  0
 74 76  2  0  0  0
 74148  1  0  0  0
 75 81  1  0  0  0
 76 84  1  0  0  0
 77 79  1  0  0  0
 77 81  1  0  0  0
 77149  1  0  0  0
 77150  1  0  0  0
 78 80  1  0  0  0
 78 81  1  0  0  0
 78151  1  0  0  0
 78152  1  0  0  0
 79 85  1  0  0  0
 79153  1  0  0  0
 79154  1  0  0  0
 80 85  1  0  0  0
 80155  1  0  0  0
 80156  1  0  0  0
 81157  1  0  0  0
 82 83  1  0  0  0
 82158  1  0  0  0
 82159  1  0  0  0
 82 85  1  0  0  0
 83160  1  0  0  0
 83161  1  0  0  0
 84162  1  0  0  0
 85163  1  0  0  0
M  CHG  1  85   1
M  ISO  4   1 100  68 101  83 101  84 100
M  END
> <chiral flag>
0

> <version>
0

> <s_m_source_file>
/data/baiqing/PycharmProjects/Reinvent-master-3.2/result/LINK_invent/BTK/process_docking_weight1_custom_product_contain_oxygen_bond_distance_aromatic_linkinvent_7_9_3/rearranged_h_0002.sdf

> <i_m_source_file_index>
16

> <r_mmod_Potential_Energy-OPLS-2005>
-116.643402099609

> <r_mmod_Stretch_Energy-OPLS-2005>
37.8896369934082

> <r_mmod_Bend_Energy-OPLS-2005>
104.207641601562

> <r_mmod_Torsional_Energy-OPLS-2005>
257.503295898438

> <r_mmod_Improper_Torsional_Energy-OPLS-2005>
2.8865077495575

> <r_mmod_Van_der_Waal_Energy-OPLS-2005>
159.701919555664

> <r_mmod_Electrostatic_Energy-OPLS-2005>
-267.300842285156

> <r_mmod_Solvation_Energy-OPLS-2005>
-421.754913330078

> <b_mmod_Minimization_Converged-OPLS-2005>
0

> <r_mmod_RMS_Derivative-OPLS-2005>
0.618270814418793

$$$$
16
                    3D
 Structure written by MMmdl.
158167  0  0  1  0            999 V2000
  -30.7387  -14.4232   20.6075 C   0  0  0  0  0  0
  -30.4172  -12.2991   19.3883 C   0  0  0  0  0  0
  -29.4795  -12.5058   18.1841 C   0  0  0  0  0  0
  -28.0061  -12.3481   18.6075 C   0  0  0  0  0  0
  -27.6588  -13.1824   19.8679 C   0  0  2  0  0  0
  -28.7086  -12.9566   20.9807 C   0  0  0  0  0  0
  -25.2620  -13.8078   20.5638 C   0  0  0  0  0  0
  -24.1870  -13.0405   20.9172 C   0  0  0  0  0  0
  -24.6389  -11.6852   20.8754 C   0  0  0  0  0  0
  -23.9048  -10.4260   21.0421 C   0  0  0  0  0  0
  -24.3602   -9.4171   21.9192 C   0  0  0  0  0  0
  -23.6274   -8.2212   22.0750 C   0  0  0  0  0  0
  -22.4257   -8.0261   21.3537 C   0  0  0  0  0  0
  -21.9894   -9.0241   20.4645 C   0  0  0  0  0  0
  -22.7229  -10.2114   20.3060 C   0  0  0  0  0  0
  -21.6844   -6.0726   22.5271 C   0  0  0  0  0  0
  -21.4014   -6.5630   23.8207 C   0  0  0  0  0  0
  -21.3659   -5.6783   24.9169 C   0  0  0  0  0  0
  -21.6040   -4.3045   24.7218 C   0  0  0  0  0  0
  -21.8831   -3.8137   23.4340 C   0  0  0  0  0  0
  -21.9192   -4.6955   22.3397 C   0  0  0  0  0  0
  -22.7892  -13.5211   21.1843 C   0  0  0  0  0  0
  -22.1656   -4.2139   21.0975 F   0  0  0  0  0  0
  -21.5635   -3.4531   25.7734 F   0  0  0  0  0  0
  -30.0347  -13.2722   20.4241 N   0  0  0  0  0  0
  -26.3031  -12.9202   20.3350 N   0  0  0  0  0  0
  -25.9305  -11.6389   20.5785 N   0  0  0  0  0  0
  -22.0537  -12.8212   22.0399 N   0  0  0  0  0  0
  -25.4322  -15.1799   20.3950 N   0  0  0  0  0  0
  -31.8423  -14.6244   20.0988 O   0  0  0  0  0  0
  -21.6621   -6.8863   21.4232 O   0  0  0  0  0  0
  -22.3577  -14.5524   20.6686 O   0  0  0  0  0  0
  -24.6149  -31.8677   23.2059 C   0  0  0  0  0  0
  -25.9049  -32.4812   23.8349 C   0  0  1  0  0  0
  -27.2335  -27.4325   20.0861 C   0  0  0  0  0  0
  -25.5894  -33.8605   24.2280 N   0  0  0  0  0  0
  -23.4009  -30.4897   21.5486 C   0  0  2  0  0  0
  -24.8460  -28.9574   20.1141 C   0  0  0  0  0  0
  -22.7417  -29.4663   22.5023 C   0  0  0  0  0  0
  -18.0299  -28.1310   22.8472 C   0  0  0  0  0  0
  -24.1506  -36.7320   23.2635 C   0  0  0  0  0  0
  -25.9285  -30.8355   21.3587 C   0  0  0  0  0  0
  -26.0049  -29.4680   20.7082 C   0  0  0  0  0  0
  -27.1982  -28.7102   20.6949 C   0  0  0  0  0  0
  -26.0478  -26.9330   19.4967 C   0  0  0  0  0  0
  -24.8620  -27.6900   19.5089 C   0  0  0  0  0  0
  -23.6065  -29.8188   20.1643 C   0  0  0  0  0  0
  -25.4123  -36.3089   24.0322 C   0  0  1  0  0  0
  -20.5887  -28.3618   23.1370 C   0  0  2  0  0  0
  -20.6821  -26.9389   22.5354 C   0  0  0  0  0  0
  -19.5809  -26.6412   21.5139 C   0  0  0  0  0  0
  -18.1971  -26.7883   22.1534 C   0  0  0  0  0  0
  -19.1533  -28.8774   23.2931 C   0  0  0  0  0  0
  -18.9449  -30.1383   23.8931 C   0  0  0  0  0  0
  -17.6441  -30.6504   24.0565 C   0  0  0  0  0  0
  -25.9038  -34.9462   23.5088 C   0  0  0  0  0  0
  -16.5342  -29.8990   23.6328 C   0  0  0  0  0  0
  -16.7278  -28.6424   23.0317 C   0  0  0  0  0  0
  -26.4464  -31.6594   25.0686 C   0  0  0  0  0  0
  -25.3711  -31.3765   26.1427 C   0  0  0  0  0  0
  -27.0303  -30.3024   24.6088 C   0  0  0  0  0  0
  -27.6002  -32.4335   25.7481 C   0  0  0  0  0  0
  -27.5588  -37.1816   24.8455 C   0  0  0  0  0  0
  -21.4132  -29.3066   22.3847 N   0  0  0  0  0  0
  -26.4304  -37.3770   23.9395 N   0  0  0  0  0  0
  -24.6661  -31.0798   22.0955 N   0  0  0  0  0  0
  -23.4220  -28.8199   23.3030 O   0  0  0  0  0  0
  -28.4300  -26.7404   20.0817 O   0  0  0  0  0  0
  -26.5581  -34.8926   22.4648 O   0  0  0  0  0  0
  -23.5339  -32.1426   23.7460 O   0  0  0  0  0  0
  -29.1245  -20.4609   21.7099 C   0  0  0  0  0  0
  -30.0194  -19.6333   22.4156 C   0  0  0  0  0  0
  -28.2481  -18.5083   20.5654 C   0  0  0  0  0  0
  -28.2279  -19.9077   20.7736 C   0  0  0  0  0  0
  -29.1323  -17.6618   21.2750 C   0  0  0  0  0  0
  -30.0234  -18.2409   22.2098 C   0  0  0  0  0  0
  -27.5997  -21.2206   18.6357 C   0  0  0  0  0  0
  -27.2225  -20.7374   20.0117 C   0  0  1  0  0  0
  -27.2399  -22.2354   19.6951 C   0  0  1  0  0  0
  -29.0344  -16.1538   21.0317 C   0  0  0  0  0  0
  -28.5015  -25.4134   19.5351 C   0  0  0  0  0  0
  -28.0492  -24.3291   20.5395 C   0  0  0  0  0  0
  -30.2024  -15.3512   21.4099 N   0  0  0  0  0  0
  -28.3756  -23.0169   20.0637 O   0  0  0  0  0  0
  -30.8727  -17.4752   22.9370 F   0  0  0  0  0  0
  -31.4582  -12.3991   19.0762 H   0  0  0  0  0  0
  -30.3203  -11.2816   19.7716 H   0  0  0  0  0  0
  -29.7186  -11.7956   17.3905 H   0  0  0  0  0  0
  -29.6347  -13.4990   17.7612 H   0  0  0  0  0  0
  -27.8249  -11.2895   18.7990 H   0  0  0  0  0  0
  -27.3460  -12.6205   17.7828 H   0  0  0  0  0  0
  -27.6927  -14.2204   19.5531 H   0  0  0  0  0  0
  -28.6973  -11.9146   21.3021 H   0  0  0  0  0  0
  -28.4746  -13.5302   21.8770 H   0  0  0  0  0  0
  -25.2756   -9.5632   22.4758 H   0  0  0  0  0  0
  -23.9985   -7.4586   22.7450 H   0  0  0  0  0  0
  -21.0827   -8.8762   19.8935 H   0  0  0  0  0  0
  -22.3704  -10.9654   19.6159 H   0  0  0  0  0  0
  -21.2013   -7.6138   23.9710 H   0  0  0  0  0  0
  -21.1469   -6.0510   25.9071 H   0  0  0  0  0  0
  -22.0618   -2.7600   23.2842 H   0  0  0  0  0  0
  -22.4153  -11.9860   22.4772 H   0  0  0  0  0  0
  -21.1155  -13.1223   22.2624 H   0  0  0  0  0  0
  -24.6547  -15.8252   20.4784 H   0  0  0  0  0  0
  -26.2674  -15.6107   20.0245 H   0  0  0  0  0  0
  -26.7135  -32.5524   23.1127 H   0  0  0  0  0  0
  -25.0070  -33.9760   25.0439 H   0  0  0  0  0  0
  -22.6865  -31.3027   21.4074 H   0  0  0  0  0  0
  -23.3746  -35.9673   23.3302 H   0  0  0  0  0  0
  -24.3606  -36.8934   22.2049 H   0  0  0  0  0  0
  -23.7295  -37.6541   23.6653 H   0  0  0  0  0  0
  -26.0380  -31.6062   20.5943 H   0  0  0  0  0  0
  -26.8171  -30.8851   21.9764 H   0  0  0  0  0  0
  -28.0944  -29.1049   21.1517 H   0  0  0  0  0  0
  -26.0101  -25.9645   19.0206 H   0  0  0  0  0  0
  -23.9670  -27.2963   19.0478 H   0  0  0  0  0  0
  -23.6980  -30.5866   19.3950 H   0  0  0  0  0  0
  -22.7372  -29.2233   19.8796 H   0  0  0  0  0  0
  -25.1319  -36.1925   25.0811 H   0  0  0  0  0  0
  -20.9933  -28.3100   24.1508 H   0  0  0  0  0  0
  -20.5775  -26.2158   23.3451 H   0  0  0  0  0  0
  -21.6705  -26.7511   22.1114 H   0  0  0  0  0  0
  -19.6739  -27.3329   20.6758 H   0  0  0  0  0  0
  -19.6996  -25.6382   21.1019 H   0  0  0  0  0  0
  -17.4298  -26.6704   21.3858 H   0  0  0  0  0  0
  -18.0356  -25.9937   22.8841 H   0  0  0  0  0  0
  -19.7925  -30.7216   24.2283 H   0  0  0  0  0  0
  -17.4968  -31.6196   24.5139 H   0  0  0  0  0  0
  -15.5332  -30.2874   23.7616 H   0  0  0  0  0  0
  -15.8689  -28.0755   22.6977 H   0  0  0  0  0  0
  -24.5834  -30.7161   25.7792 H   0  0  0  0  0  0
  -24.8972  -32.2967   26.4846 H   0  0  0  0  0  0
  -25.8035  -30.8948   27.0200 H   0  0  0  0  0  0
  -26.2861  -29.6778   24.1126 H   0  0  0  0  0  0
  -27.4054  -29.7269   25.4566 H   0  0  0  0  0  0
  -27.8697  -30.4350   23.9255 H   0  0  0  0  0  0
  -27.2550  -33.3595   26.2099 H   0  0  0  0  0  0
  -28.3799  -32.6968   25.0321 H   0  0  0  0  0  0
  -28.0666  -31.8435   26.5380 H   0  0  0  0  0  0
  -28.2595  -38.0121   24.7482 H   0  0  0  0  0  0
  -28.1091  -36.2644   24.6300 H   0  0  0  0  0  0
  -27.2295  -37.1492   25.8854 H   0  0  0  0  0  0
  -20.9237  -29.8889   21.7201 H   0  0  0  0  0  0
  -26.0183  -38.2849   24.1369 H   0  0  0  0  0  0
  -29.1251  -21.5229   21.9056 H   0  0  0  0  0  0
  -30.6963  -20.0639   23.1387 H   0  0  0  0  0  0
  -27.5523  -18.0715   19.8600 H   0  0  0  0  0  0
  -26.8798  -21.0201   17.8455 H   0  0  0  0  0  0
  -28.6445  -21.1634   18.3392 H   0  0  0  0  0  0
  -26.2324  -20.3012   20.1371 H   0  0  0  0  0  0
  -26.3179  -22.7837   19.5007 H   0  0  0  0  0  0
  -28.8198  -16.0183   19.9708 H   0  0  0  0  0  0
  -28.1662  -15.7905   21.5822 H   0  0  0  0  0  0
  -27.9886  -25.3264   18.5774 H   0  0  0  0  0  0
  -29.5511  -25.2298   19.3032 H   0  0  0  0  0  0
  -26.9926  -24.4420   20.7903 H   0  0  0  0  0  0
  -28.5894  -24.4731   21.4758 H   0  0  0  0  0  0
  -30.9062  -15.9399   21.8355 H   0  0  0  0  0  0
  1 25  1  0  0  0
  1 30  2  0  0  0
  1 83  1  0  0  0
  2  3  1  0  0  0
  2 25  1  0  0  0
  2 86  1  0  0  0
  2 87  1  0  0  0
  3  4  1  0  0  0
  3 88  1  0  0  0
  3 89  1  0  0  0
  4  5  1  0  0  0
  4 90  1  0  0  0
  4 91  1  0  0  0
  5  6  1  0  0  0
  5 26  1  0  0  0
  5 92  1  0  0  0
  6 25  1  0  0  0
  6 93  1  0  0  0
  6 94  1  0  0  0
  7  8  2  0  0  0
  7 26  1  0  0  0
  7 29  1  0  0  0
  8  9  1  0  0  0
  8 22  1  0  0  0
  9 10  1  0  0  0
  9 27  2  0  0  0
 10 11  2  0  0  0
 10 15  1  0  0  0
 11 12  1  0  0  0
 11 95  1  0  0  0
 12 13  2  0  0  0
 12 96  1  0  0  0
 13 14  1  0  0  0
 13 31  1  0  0  0
 14 15  2  0  0  0
 14 97  1  0  0  0
 15 98  1  0  0  0
 16 17  2  0  0  0
 16 21  1  0  0  0
 16 31  1  0  0  0
 17 18  1  0  0  0
 17 99  1  0  0  0
 18 19  2  0  0  0
 18100  1  0  0  0
 19 20  1  0  0  0
 19 24  1  0  0  0
 20 21  2  0  0  0
 20101  1  0  0  0
 21 23  1  0  0  0
 22 28  1  0  0  0
 22 32  2  0  0  0
 26 27  1  0  0  0
 28102  1  0  0  0
 28103  1  0  0  0
 29104  1  0  0  0
 29105  1  0  0  0
 33 34  1  0  0  0
 33 66  1  0  0  0
 33 70  2  0  0  0
 34 36  1  0  0  0
 34 59  1  0  0  0
 34106  1  0  0  0
 35 44  2  0  0  0
 35 45  1  0  0  0
 35 68  1  0  0  0
 36 56  1  0  0  0
 36107  1  0  0  0
 37 39  1  0  0  0
 37 47  1  0  0  0
 37 66  1  0  0  0
 37108  1  0  0  0
 38 43  2  0  0  0
 38 46  1  0  0  0
 38 47  1  0  0  0
 39 64  1  0  0  0
 39 67  2  0  0  0
 40 52  1  0  0  0
 40 53  2  0  0  0
 40 58  1  0  0  0
 41109  1  0  0  0
 41110  1  0  0  0
 41111  1  0  0  0
 41 48  1  0  0  0
 42 43  1  0  0  0
 42 66  1  0  0  0
 42112  1  0  0  0
 42113  1  0  0  0
 43 44  1  0  0  0
 44114  1  0  0  0
 45 46  2  0  0  0
 45115  1  0  0  0
 46116  1  0  0  0
 47117  1  0  0  0
 47118  1  0  0  0
 48 56  1  0  0  0
 48 65  1  0  0  0
 48119  1  0  0  0
 49 50  1  0  0  0
 49 53  1  0  0  0
 49 64  1  0  0  0
 49120  1  0  0  0
 50 51  1  0  0  0
 50121  1  0  0  0
 50122  1  0  0  0
 51 52  1  0  0  0
 51123  1  0  0  0
 51124  1  0  0  0
 52125  1  0  0  0
 52126  1  0  0  0
 53 54  1  0  0  0
 54 55  2  0  0  0
 54127  1  0  0  0
 55 57  1  0  0  0
 55128  1  0  0  0
 56 69  2  0  0  0
 57 58  2  0  0  0
 57129  1  0  0  0
 58130  1  0  0  0
 59 60  1  0  0  0
 59 61  1  0  0  0
 59 62  1  0  0  0
 60131  1  0  0  0
 60132  1  0  0  0
 60133  1  0  0  0
 61134  1  0  0  0
 61135  1  0  0  0
 61136  1  0  0  0
 62137  1  0  0  0
 62138  1  0  0  0
 62139  1  0  0  0
 63 65  1  0  0  0
 63140  1  0  0  0
 63141  1  0  0  0
 63142  1  0  0  0
 64143  1  0  0  0
 65144  1  0  0  0
 68 81  1  0  0  0
 71 72  2  0  0  0
 71 74  1  0  0  0
 71145  1  0  0  0
 72 76  1  0  0  0
 72146  1  0  0  0
 73 74  2  0  0  0
 73 75  1  0  0  0
 73147  1  0  0  0
 74 78  1  0  0  0
 75 76  2  0  0  0
 75 80  1  0  0  0
 76 85  1  0  0  0
 77 78  1  0  0  0
 77 79  1  0  0  0
 77148  1  0  0  0
 77149  1  0  0  0
 78 79  1  0  0  0
 78150  1  0  0  0
 79 84  1  0  0  0
 79151  1  0  0  0
 80 83  1  0  0  0
 80152  1  0  0  0
 80153  1  0  0  0
 81 82  1  0  0  0
 81154  1  0  0  0
 81155  1  0  0  0
 82 84  1  0  0  0
 82156  1  0  0  0
 82157  1  0  0  0
 83158  1  0  0  0
M  ISO  4   1 100  68 101  81 101  83 100
M  END
> <chiral flag>
0

> <version>
0

> <s_m_source_file>
/data/baiqing/PycharmProjects/Reinvent-master-3.2/result/LINK_invent/BTK/process_docking_weight1_custom_product_contain_oxygen_bond_distance_aromatic_linkinvent_7_9_3/rearranged_h_0002.sdf

> <i_m_source_file_index>
17

> <r_mmod_Potential_Energy-OPLS-2005>
17.9282169342041

> <r_mmod_Stretch_Energy-OPLS-2005>
35.9046249389648

> <r_mmod_Bend_Energy-OPLS-2005>
124.735557556152

> <r_mmod_Torsional_Energy-OPLS-2005>
269.373474121094

> <r_mmod_Improper_Torsional_Energy-OPLS-2005>
6.26190376281738

> <r_mmod_Van_der_Waal_Energy-OPLS-2005>
152.032669067383

> <r_mmod_Electrostatic_Energy-OPLS-2005>
-378.019683837891

> <r_mmod_Solvation_Energy-OPLS-2005>
-203.214019775391

> <b_mmod_Minimization_Converged-OPLS-2005>
0

> <r_mmod_RMS_Derivative-OPLS-2005>
2.9345908164978

$$$$
17
                    3D
 Structure written by MMmdl.
156163  0  0  1  0            999 V2000
  -30.7669  -14.3720   20.6954 C   0  0  0  0  0  0
  -30.4191  -12.3034   19.3879 C   0  0  0  0  0  0
  -29.4829  -12.5252   18.1861 C   0  0  0  0  0  0
  -28.0084  -12.3773   18.6072 C   0  0  0  0  0  0
  -27.6635  -13.2030   19.8741 C   0  0  2  0  0  0
  -28.7012  -12.9487   20.9873 C   0  0  0  0  0  0
  -25.2601  -13.8160   20.5677 C   0  0  0  0  0  0
  -24.1847  -13.0441   20.9176 C   0  0  0  0  0  0
  -24.6394  -11.6903   20.8727 C   0  0  0  0  0  0
  -23.9059  -10.4293   21.0404 C   0  0  0  0  0  0
  -24.3613   -9.4211   21.9181 C   0  0  0  0  0  0
  -23.6289   -8.2246   22.0750 C   0  0  0  0  0  0
  -22.4269   -8.0286   21.3546 C   0  0  0  0  0  0
  -21.9909   -9.0257   20.4643 C   0  0  0  0  0  0
  -22.7237  -10.2136   20.3052 C   0  0  0  0  0  0
  -21.6854   -6.0739   22.5282 C   0  0  0  0  0  0
  -21.4012   -6.5640   23.8216 C   0  0  0  0  0  0
  -21.3657   -5.6788   24.9175 C   0  0  0  0  0  0
  -21.6042   -4.3053   24.7224 C   0  0  0  0  0  0
  -21.8822   -3.8151   23.4345 C   0  0  0  0  0  0
  -21.9192   -4.6967   22.3403 C   0  0  0  0  0  0
  -22.7869  -13.5242   21.1841 C   0  0  0  0  0  0
  -22.1663   -4.2156   21.0983 F   0  0  0  0  0  0
  -21.5623   -3.4536   25.7735 F   0  0  0  0  0  0
  -30.0414  -13.2512   20.4472 N   0  0  0  0  0  0
  -26.3031  -12.9319   20.3354 N   0  0  0  0  0  0
  -25.9314  -11.6478   20.5737 N   0  0  0  0  0  0
  -22.0497  -12.8240   22.0392 N   0  0  0  0  0  0
  -25.4336  -15.1878   20.4103 N   0  0  0  0  0  0
  -31.8069  -14.6550   20.0923 O   0  0  0  0  0  0
  -21.6634   -6.8884   21.4245 O   0  0  0  0  0  0
  -22.3559  -14.5554   20.6695 O   0  0  0  0  0  0
  -24.6128  -31.8705   23.2115 C   0  0  0  0  0  0
  -25.9024  -32.4844   23.8407 C   0  0  1  0  0  0
  -27.2312  -27.4422   20.0822 C   0  0  0  0  0  0
  -25.5888  -33.8644   24.2335 N   0  0  0  0  0  0
  -23.3985  -30.4961   21.5521 C   0  0  2  0  0  0
  -24.8401  -28.9608   20.1189 C   0  0  0  0  0  0
  -22.7397  -29.4676   22.4997 C   0  0  0  0  0  0
  -18.0268  -28.1377   22.8508 C   0  0  0  0  0  0
  -24.1480  -36.7315   23.2638 C   0  0  0  0  0  0
  -25.9265  -30.8373   21.3614 C   0  0  0  0  0  0
  -26.0002  -29.4707   20.7110 C   0  0  0  0  0  0
  -27.1948  -28.7176   20.6922 C   0  0  0  0  0  0
  -26.0414  -26.9368   19.5033 C   0  0  0  0  0  0
  -24.8541  -27.6916   19.5170 C   0  0  0  0  0  0
  -23.6053  -29.8308   20.1657 C   0  0  0  0  0  0
  -25.4104  -36.3125   24.0343 C   0  0  1  0  0  0
  -20.5863  -28.3652   23.1325 C   0  0  2  0  0  0
  -20.6768  -26.9396   22.5408 C   0  0  0  0  0  0
  -19.5744  -26.6392   21.5210 C   0  0  0  0  0  0
  -18.1919  -26.7928   22.1626 C   0  0  0  0  0  0
  -19.1521  -28.8832   23.2916 C   0  0  0  0  0  0
  -18.9452  -30.1446   23.8915 C   0  0  0  0  0  0
  -17.6456  -30.6587   24.0575 C   0  0  0  0  0  0
  -25.9035  -34.9493   23.5136 C   0  0  0  0  0  0
  -16.5346  -29.9095   23.6331 C   0  0  0  0  0  0
  -16.7260  -28.6510   23.0355 C   0  0  0  0  0  0
  -26.4453  -31.6625   25.0730 C   0  0  0  0  0  0
  -25.3728  -31.3730   26.1486 C   0  0  0  0  0  0
  -27.0271  -30.3076   24.6077 C   0  0  0  0  0  0
  -27.6030  -32.4340   25.7491 C   0  0  0  0  0  0
  -27.5580  -37.1816   24.8470 C   0  0  0  0  0  0
  -21.4127  -29.3037   22.3741 N   0  0  0  0  0  0
  -26.4288  -37.3812   23.9416 N   0  0  0  0  0  0
  -24.6647  -31.0820   22.1004 N   0  0  0  0  0  0
  -23.4178  -28.8217   23.3034 O   0  0  0  0  0  0
  -28.4443  -26.7815   20.0662 O   0  0  0  0  0  0
  -26.5603  -34.8943   22.4696 O   0  0  0  0  0  0
  -23.5323  -32.1447   23.7520 O   0  0  0  0  0  0
  -28.7538  -24.4721   20.8218 C   0  0  0  0  0  0
  -28.5590  -25.4190   19.6260 C   0  0  0  0  0  0
  -30.2362  -19.7825   21.6206 C   0  0  0  0  0  0
  -30.0092  -18.2680   21.4298 C   0  0  0  0  0  0
  -29.1767  -20.7116   20.9972 C   0  0  0  0  0  0
  -31.2886  -17.4706   21.7631 C   0  0  0  0  0  0
  -29.3621  -22.1646   21.4870 C   0  0  0  0  0  0
  -31.0797  -16.1125   22.4627 C   0  0  0  0  0  0
  -28.8379  -23.1603   20.5527 N   0  0  0  0  0  0
  -30.3131  -15.1242   21.7066 N   0  0  0  0  0  0
  -28.8919  -24.9183   21.9650 O   0  0  0  0  0  0
  -31.4602  -12.4158   19.0785 H   0  0  0  0  0  0
  -30.3293  -11.2807   19.7570 H   0  0  0  0  0  0
  -29.7171  -11.8148   17.3918 H   0  0  0  0  0  0
  -29.6492  -13.5190   17.7664 H   0  0  0  0  0  0
  -27.8217  -11.3192   18.7935 H   0  0  0  0  0  0
  -27.3514  -12.6606   17.7844 H   0  0  0  0  0  0
  -27.7211  -14.2568   19.6002 H   0  0  0  0  0  0
  -28.6692  -11.9040   21.3012 H   0  0  0  0  0  0
  -28.4419  -13.5214   21.8779 H   0  0  0  0  0  0
  -25.2758   -9.5685   22.4756 H   0  0  0  0  0  0
  -24.0000   -7.4637   22.7467 H   0  0  0  0  0  0
  -21.0842   -8.8778   19.8950 H   0  0  0  0  0  0
  -22.3700  -10.9672   19.6159 H   0  0  0  0  0  0
  -21.2008   -7.6148   23.9724 H   0  0  0  0  0  0
  -21.1471   -6.0516   25.9079 H   0  0  0  0  0  0
  -22.0602   -2.7614   23.2841 H   0  0  0  0  0  0
  -22.4090  -11.9901   22.4793 H   0  0  0  0  0  0
  -21.1109  -13.1271   22.2571 H   0  0  0  0  0  0
  -24.6722  -15.8479   20.5280 H   0  0  0  0  0  0
  -26.2950  -15.6258   20.1068 H   0  0  0  0  0  0
  -26.7095  -32.5555   23.1178 H   0  0  0  0  0  0
  -25.0072  -33.9819   25.0501 H   0  0  0  0  0  0
  -22.6863  -31.3124   21.4166 H   0  0  0  0  0  0
  -23.3753  -35.9637   23.3321 H   0  0  0  0  0  0
  -24.3574  -36.8902   22.2047 H   0  0  0  0  0  0
  -23.7218  -37.6521   23.6640 H   0  0  0  0  0  0
  -26.0371  -31.6021   20.5908 H   0  0  0  0  0  0
  -26.8157  -30.8916   21.9779 H   0  0  0  0  0  0
  -28.0938  -29.1160   21.1426 H   0  0  0  0  0  0
  -25.9838  -25.9750   19.0211 H   0  0  0  0  0  0
  -23.9589  -27.2907   19.0615 H   0  0  0  0  0  0
  -23.7183  -30.6079   19.4084 H   0  0  0  0  0  0
  -22.7267  -29.2552   19.8691 H   0  0  0  0  0  0
  -25.1281  -36.1994   25.0837 H   0  0  0  0  0  0
  -20.9952  -28.3199   24.1449 H   0  0  0  0  0  0
  -20.5673  -26.2262   23.3589 H   0  0  0  0  0  0
  -21.6641  -26.7449   22.1202 H   0  0  0  0  0  0
  -19.6905  -25.6308   21.1230 H   0  0  0  0  0  0
  -19.6685  -27.3222   20.6754 H   0  0  0  0  0  0
  -17.4196  -26.6696   21.4018 H   0  0  0  0  0  0
  -18.0314  -26.0059   22.9011 H   0  0  0  0  0  0
  -19.7926  -30.7268   24.2280 H   0  0  0  0  0  0
  -17.5011  -31.6263   24.5186 H   0  0  0  0  0  0
  -15.5349  -30.3007   23.7639 H   0  0  0  0  0  0
  -15.8663  -28.0835   22.7051 H   0  0  0  0  0  0
  -24.5890  -30.7080   25.7841 H   0  0  0  0  0  0
  -24.8925  -32.2889   26.4945 H   0  0  0  0  0  0
  -25.8085  -30.8902   27.0240 H   0  0  0  0  0  0
  -26.2795  -29.6871   24.1115 H   0  0  0  0  0  0
  -27.4047  -29.7281   25.4511 H   0  0  0  0  0  0
  -27.8643  -30.4427   23.9222 H   0  0  0  0  0  0
  -27.2646  -33.3632   26.2091 H   0  0  0  0  0  0
  -28.3828  -32.6906   25.0311 H   0  0  0  0  0  0
  -28.0720  -31.8456   26.5387 H   0  0  0  0  0  0
  -28.2613  -38.0100   24.7518 H   0  0  0  0  0  0
  -28.1056  -36.2635   24.6293 H   0  0  0  0  0  0
  -27.2305  -37.1463   25.8875 H   0  0  0  0  0  0
  -20.9272  -29.8760   21.6980 H   0  0  0  0  0  0
  -26.0182  -38.2891   24.1418 H   0  0  0  0  0  0
  -27.7767  -25.0516   18.9682 H   0  0  0  0  0  0
  -29.4714  -25.3633   19.0320 H   0  0  0  0  0  0
  -31.2051  -20.0558   21.1992 H   0  0  0  0  0  0
  -30.3086  -19.9855   22.6905 H   0  0  0  0  0  0
  -29.7054  -18.0477   20.4053 H   0  0  0  0  0  0
  -29.1835  -17.9481   22.0673 H   0  0  0  0  0  0
  -28.1718  -20.3694   21.2502 H   0  0  0  0  0  0
  -29.2580  -20.6564   19.9106 H   0  0  0  0  0  0
  -31.9093  -18.0654   22.4352 H   0  0  0  0  0  0
  -31.8915  -17.3478   20.8620 H   0  0  0  0  0  0
  -30.4250  -22.3744   21.6193 H   0  0  0  0  0  0
  -28.9027  -22.2799   22.4706 H   0  0  0  0  0  0
  -30.5745  -16.2719   23.4161 H   0  0  0  0  0  0
  -32.0520  -15.6832   22.7141 H   0  0  0  0  0  0
  -28.6914  -22.8727   19.5939 H   0  0  0  0  0  0
  -29.4439  -14.8183   22.1183 H   0  0  0  0  0  0
  1 25  1  0  0  0
  1 30  2  0  0  0
  1 80  1  0  0  0
  2  3  1  0  0  0
  2 25  1  0  0  0
  2 82  1  0  0  0
  2 83  1  0  0  0
  3  4  1  0  0  0
  3 84  1  0  0  0
  3 85  1  0  0  0
  4  5  1  0  0  0
  4 86  1  0  0  0
  4 87  1  0  0  0
  5  6  1  0  0  0
  5 26  1  0  0  0
  5 88  1  0  0  0
  6 25  1  0  0  0
  6 89  1  0  0  0
  6 90  1  0  0  0
  7  8  2  0  0  0
  7 26  1  0  0  0
  7 29  1  0  0  0
  8  9  1  0  0  0
  8 22  1  0  0  0
  9 10  1  0  0  0
  9 27  2  0  0  0
 10 11  2  0  0  0
 10 15  1  0  0  0
 11 12  1  0  0  0
 11 91  1  0  0  0
 12 13  2  0  0  0
 12 92  1  0  0  0
 13 14  1  0  0  0
 13 31  1  0  0  0
 14 15  2  0  0  0
 14 93  1  0  0  0
 15 94  1  0  0  0
 16 17  2  0  0  0
 16 21  1  0  0  0
 16 31  1  0  0  0
 17 18  1  0  0  0
 17 95  1  0  0  0
 18 19  2  0  0  0
 18 96  1  0  0  0
 19 20  1  0  0  0
 19 24  1  0  0  0
 20 21  2  0  0  0
 20 97  1  0  0  0
 21 23  1  0  0  0
 22 28  1  0  0  0
 22 32  2  0  0  0
 26 27  1  0  0  0
 28 98  1  0  0  0
 28 99  1  0  0  0
 29100  1  0  0  0
 29101  1  0  0  0
 33 34  1  0  0  0
 33 66  1  0  0  0
 33 70  2  0  0  0
 34 36  1  0  0  0
 34 59  1  0  0  0
 34102  1  0  0  0
 35 44  2  0  0  0
 35 45  1  0  0  0
 35 68  1  0  0  0
 36 56  1  0  0  0
 36103  1  0  0  0
 37 39  1  0  0  0
 37 47  1  0  0  0
 37 66  1  0  0  0
 37104  1  0  0  0
 38 43  2  0  0  0
 38 46  1  0  0  0
 38 47  1  0  0  0
 39 64  1  0  0  0
 39 67  2  0  0  0
 40 52  1  0  0  0
 40 53  2  0  0  0
 40 58  1  0  0  0
 41105  1  0  0  0
 41106  1  0  0  0
 41107  1  0  0  0
 41 48  1  0  0  0
 42 43  1  0  0  0
 42 66  1  0  0  0
 42108  1  0  0  0
 42109  1  0  0  0
 43 44  1  0  0  0
 44110  1  0  0  0
 45 46  2  0  0  0
 45111  1  0  0  0
 46112  1  0  0  0
 47113  1  0  0  0
 47114  1  0  0  0
 48 56  1  0  0  0
 48 65  1  0  0  0
 48115  1  0  0  0
 49 50  1  0  0  0
 49 53  1  0  0  0
 49 64  1  0  0  0
 49116  1  0  0  0
 50 51  1  0  0  0
 50117  1  0  0  0
 50118  1  0  0  0
 51 52  1  0  0  0
 51119  1  0  0  0
 51120  1  0  0  0
 52121  1  0  0  0
 52122  1  0  0  0
 53 54  1  0  0  0
 54 55  2  0  0  0
 54123  1  0  0  0
 55 57  1  0  0  0
 55124  1  0  0  0
 56 69  2  0  0  0
 57 58  2  0  0  0
 57125  1  0  0  0
 58126  1  0  0  0
 59 60  1  0  0  0
 59 61  1  0  0  0
 59 62  1  0  0  0
 60127  1  0  0  0
 60128  1  0  0  0
 60129  1  0  0  0
 61130  1  0  0  0
 61131  1  0  0  0
 61132  1  0  0  0
 62133  1  0  0  0
 62134  1  0  0  0
 62135  1  0  0  0
 63 65  1  0  0  0
 63136  1  0  0  0
 63137  1  0  0  0
 63138  1  0  0  0
 64139  1  0  0  0
 65140  1  0  0  0
 68 72  1  0  0  0
 71 72  1  0  0  0
 71 79  1  0  0  0
 71 81  2  0  0  0
 72141  1  0  0  0
 72142  1  0  0  0
 73 74  1  0  0  0
 73 75  1  0  0  0
 73143  1  0  0  0
 73144  1  0  0  0
 74 76  1  0  0  0
 74145  1  0  0  0
 74146  1  0  0  0
 75 77  1  0  0  0
 75147  1  0  0  0
 75148  1  0  0  0
 76 78  1  0  0  0
 76149  1  0  0  0
 76150  1  0  0  0
 77 79  1  0  0  0
 77151  1  0  0  0
 77152  1  0  0  0
 78 80  1  0  0  0
 78153  1  0  0  0
 78154  1  0  0  0
 79155  1  0  0  0
 80156  1  0  0  0
M  ISO  4   1 100  68 101  72 101  80 100
M  END
> <chiral flag>
0

> <version>
0

> <s_m_source_file>
/data/baiqing/PycharmProjects/Reinvent-master-3.2/result/LINK_invent/BTK/process_docking_weight1_custom_product_contain_oxygen_bond_distance_aromatic_linkinvent_7_9_3/rearranged_h_0002.sdf

> <i_m_source_file_index>
18

> <r_mmod_Potential_Energy-OPLS-2005>
-119.19921875

> <r_mmod_Stretch_Energy-OPLS-2005>
32.5780410766602

> <r_mmod_Bend_Energy-OPLS-2005>
106.15502166748

> <r_mmod_Torsional_Energy-OPLS-2005>
205.911041259766

> <r_mmod_Improper_Torsional_Energy-OPLS-2005>
3.13637065887451

> <r_mmod_Van_der_Waal_Energy-OPLS-2005>
137.880065917969

> <r_mmod_Electrostatic_Energy-OPLS-2005>
-369.600158691406

> <r_mmod_Solvation_Energy-OPLS-2005>
-243.935943603516

> <b_mmod_Minimization_Converged-OPLS-2005>
0

> <r_mmod_RMS_Derivative-OPLS-2005>
1.42415010929108

$$$$
18
                    3D
 Structure written by MMmdl.
147155  0  0  1  0            999 V2000
  -30.4075  -15.3385   20.3686 C   0  0  0  0  0  0
  -30.4394  -12.8683   19.5103 C   0  0  0  0  0  0
  -29.5353  -12.5855   18.2833 C   0  0  0  0  0  0
  -28.0893  -12.2930   18.7211 C   0  0  0  0  0  0
  -27.6063  -13.2779   19.8137 C   0  0  2  0  0  0
  -28.6417  -13.4868   20.9380 C   0  0  0  0  0  0
  -25.2377  -13.8243   20.5753 C   0  0  0  0  0  0
  -24.1737  -13.0429   20.9269 C   0  0  0  0  0  0
  -24.6398  -11.6928   20.8766 C   0  0  0  0  0  0
  -23.9094  -10.4288   21.0407 C   0  0  0  0  0  0
  -24.3638   -9.4202   21.9186 C   0  0  0  0  0  0
  -23.6304   -8.2241   22.0755 C   0  0  0  0  0  0
  -22.4285   -8.0282   21.3545 C   0  0  0  0  0  0
  -21.9928   -9.0257   20.4645 C   0  0  0  0  0  0
  -22.7265  -10.2131   20.3055 C   0  0  0  0  0  0
  -21.6855   -6.0738   22.5279 C   0  0  0  0  0  0
  -21.4016   -6.5641   23.8213 C   0  0  0  0  0  0
  -21.3660   -5.6793   24.9174 C   0  0  0  0  0  0
  -21.6044   -4.3056   24.7225 C   0  0  0  0  0  0
  -21.8819   -3.8148   23.4346 C   0  0  0  0  0  0
  -21.9193   -4.6965   22.3402 C   0  0  0  0  0  0
  -22.7753  -13.5180   21.1913 C   0  0  0  0  0  0
  -22.1661   -4.2151   21.0979 F   0  0  0  0  0  0
  -21.5628   -3.4539   25.7737 F   0  0  0  0  0  0
  -29.8534  -14.0220   20.2918 N   0  0  0  0  0  0
  -26.2801  -12.9521   20.3202 N   0  0  0  0  0  0
  -25.9334  -11.6624   20.5711 N   0  0  0  0  0  0
  -22.0412  -12.8161   22.0465 N   0  0  0  0  0  0
  -25.3993  -15.1980   20.4188 N   0  0  0  0  0  0
  -31.6420  -15.3254   20.2462 O   0  0  0  0  0  0
  -21.6644   -6.8882   21.4242 O   0  0  0  0  0  0
  -22.3433  -14.5481   20.6751 O   0  0  0  0  0  0
  -24.6676  -31.8193   23.1665 C   0  0  0  0  0  0
  -25.9335  -32.4567   23.8148 C   0  0  1  0  0  0
  -27.2191  -26.8807   20.2005 C   0  0  0  0  0  0
  -25.5984  -33.8383   24.2051 N   0  0  0  0  0  0
  -23.4844  -30.4287   21.5177 C   0  0  2  0  0  0
  -24.9377  -28.8020   20.1222 C   0  0  0  0  0  0
  -22.7687  -29.4421   22.4778 C   0  0  0  0  0  0
  -18.0326  -28.1411   22.8465 C   0  0  0  0  0  0
  -24.1494  -36.7197   23.2648 C   0  0  0  0  0  0
  -26.0566  -30.6118   21.4026 C   0  0  0  0  0  0
  -26.1252  -29.1943   20.7534 C   0  0  0  0  0  0
  -27.2630  -28.2590   20.7592 C   0  0  0  0  0  0
  -25.9986  -26.6489   19.5275 C   0  0  0  0  0  0
  -24.9018  -27.5500   19.4879 C   0  0  0  0  0  0
  -23.7278  -29.7379   20.1478 C   0  0  0  0  0  0
  -25.4137  -36.2954   24.0296 C   0  0  1  0  0  0
  -20.5953  -28.3760   23.1180 C   0  0  2  0  0  0
  -20.6801  -26.9438   22.5402 C   0  0  0  0  0  0
  -19.5775  -26.6377   21.5215 C   0  0  0  0  0  0
  -18.1957  -26.7943   22.1622 C   0  0  0  0  0  0
  -19.1588  -28.8907   23.2808 C   0  0  0  0  0  0
  -18.9497  -30.1496   23.8845 C   0  0  0  0  0  0
  -17.6489  -30.6599   24.0554 C   0  0  0  0  0  0
  -25.9105  -34.9339   23.4997 C   0  0  0  0  0  0
  -16.5379  -29.9085   23.6345 C   0  0  0  0  0  0
  -16.7307  -28.6506   23.0363 C   0  0  0  0  0  0
  -26.4569  -31.6528   25.0695 C   0  0  0  0  0  0
  -25.3682  -31.3791   26.1341 C   0  0  0  0  0  0
  -27.0475  -30.2890   24.6459 C   0  0  0  0  0  0
  -27.6050  -32.4348   25.7505 C   0  0  0  0  0  0
  -27.5568  -37.1756   24.8467 C   0  0  0  0  0  0
  -21.4353  -29.3043   22.3525 N   0  0  0  0  0  0
  -26.4278  -37.3695   23.9408 N   0  0  0  0  0  0
  -24.7582  -30.9814   22.0825 N   0  0  0  0  0  0
  -23.4213  -28.7999   23.3043 O   0  0  0  0  0  0
  -28.2246  -25.7619   20.1857 O   0  0  0  0  0  0
  -26.5721  -34.8883   22.4598 O   0  0  0  0  0  0
  -23.5734  -32.1182   23.6731 O   0  0  0  0  0  0
  -28.9453  -21.1695   17.9988 C   0  0  0  0  0  0
  -29.2196  -19.9454   18.6761 C   0  0  0  0  0  0
  -28.6601  -22.4175   18.6269 C   0  0  0  0  0  0
  -28.9239  -21.2205   20.7003 C   0  0  0  0  0  0
  -29.2567  -19.8277   20.0822 C   0  0  0  0  0  0
  -28.6045  -22.5905   20.0271 C   0  0  0  0  0  0
  -29.8038  -18.2707   20.7308 C   0  0  0  0  0  0
  -28.0097  -24.1588   20.6024 C   0  0  0  0  0  0
  -29.6295  -16.6212   20.3858 N   0  0  0  0  0  0
  -31.4482  -13.0988   19.1653 H   0  0  0  0  0  0
  -30.5387  -11.9797   20.1359 H   0  0  0  0  0  0
  -29.9296  -11.7509   17.7022 H   0  0  0  0  0  0
  -29.5454  -13.4526   17.6211 H   0  0  0  0  0  0
  -28.0631  -11.2750   19.1117 H   0  0  0  0  0  0
  -27.4172  -12.3093   17.8623 H   0  0  0  0  0  0
  -27.5076  -14.2341   19.2984 H   0  0  0  0  0  0
  -28.8363  -12.5627   21.4844 H   0  0  0  0  0  0
  -28.2690  -14.2079   21.6672 H   0  0  0  0  0  0
  -25.2779   -9.5677   22.4767 H   0  0  0  0  0  0
  -24.0008   -7.4632   22.7477 H   0  0  0  0  0  0
  -21.0859   -8.8781   19.8951 H   0  0  0  0  0  0
  -22.3724  -10.9673   19.6167 H   0  0  0  0  0  0
  -21.2010   -7.6149   23.9716 H   0  0  0  0  0  0
  -21.1482   -6.0523   25.9077 H   0  0  0  0  0  0
  -22.0597   -2.7610   23.2845 H   0  0  0  0  0  0
  -22.4047  -11.9832   22.4857 H   0  0  0  0  0  0
  -21.1022  -13.1164   22.2666 H   0  0  0  0  0  0
  -24.6265  -15.8451   20.5329 H   0  0  0  0  0  0
  -26.2357  -15.6418   20.0643 H   0  0  0  0  0  0
  -26.7408  -32.5095   23.0864 H   0  0  0  0  0  0
  -25.0072  -33.9453   25.0163 H   0  0  0  0  0  0
  -22.8002  -31.2613   21.3415 H   0  0  0  0  0  0
  -23.3771  -35.9511   23.3272 H   0  0  0  0  0  0
  -24.3570  -36.8885   22.2070 H   0  0  0  0  0  0
  -23.7237  -37.6366   23.6734 H   0  0  0  0  0  0
  -26.2389  -31.3476   20.6182 H   0  0  0  0  0  0
  -26.9157  -30.6743   22.0585 H   0  0  0  0  0  0
  -28.1689  -28.5669   21.2622 H   0  0  0  0  0  0
  -25.8699  -25.6954   19.0348 H   0  0  0  0  0  0
  -24.0014  -27.2428   18.9738 H   0  0  0  0  0  0
  -23.8906  -30.5027   19.3876 H   0  0  0  0  0  0
  -22.8360  -29.1960   19.8281 H   0  0  0  0  0  0
  -25.1338  -36.1743   25.0787 H   0  0  0  0  0  0
  -21.0037  -28.3369   24.1305 H   0  0  0  0  0  0
  -20.5680  -26.2380   23.3646 H   0  0  0  0  0  0
  -21.6664  -26.7409   22.1210 H   0  0  0  0  0  0
  -19.6934  -25.6274   21.1279 H   0  0  0  0  0  0
  -19.6713  -27.3158   20.6722 H   0  0  0  0  0  0
  -17.4226  -26.6685   21.4027 H   0  0  0  0  0  0
  -18.0352  -26.0099   22.9032 H   0  0  0  0  0  0
  -19.7972  -30.7327   24.2191 H   0  0  0  0  0  0
  -17.5039  -31.6274   24.5166 H   0  0  0  0  0  0
  -15.5377  -30.2969   23.7699 H   0  0  0  0  0  0
  -15.8708  -28.0806   22.7109 H   0  0  0  0  0  0
  -24.5883  -30.7122   25.7647 H   0  0  0  0  0  0
  -24.8852  -32.2996   26.4628 H   0  0  0  0  0  0
  -25.7902  -30.9048   27.0211 H   0  0  0  0  0  0
  -26.3154  -29.6552   24.1444 H   0  0  0  0  0  0
  -27.3969  -29.7271   25.5132 H   0  0  0  0  0  0
  -27.9108  -30.4062   23.9907 H   0  0  0  0  0  0
  -27.2610  -33.3698   26.1940 H   0  0  0  0  0  0
  -28.3937  -32.6831   25.0390 H   0  0  0  0  0  0
  -28.0634  -31.8571   26.5540 H   0  0  0  0  0  0
  -28.2565  -38.0071   24.7512 H   0  0  0  0  0  0
  -28.1085  -36.2596   24.6297 H   0  0  0  0  0  0
  -27.2284  -37.1400   25.8869 H   0  0  0  0  0  0
  -20.9620  -29.8722   21.6636 H   0  0  0  0  0  0
  -26.0121  -38.2751   24.1416 H   0  0  0  0  0  0
  -28.9516  -21.1496   16.9175 H   0  0  0  0  0  0
  -29.4437  -19.0700   18.0814 H   0  0  0  0  0  0
  -28.4390  -23.2690   17.9978 H   0  0  0  0  0  0
  -28.9082  -21.2402   21.7811 H   0  0  0  0  0  0
  -29.5077  -18.3294   21.7784 H   0  0  0  0  0  0
  -30.8867  -18.3942   20.7676 H   0  0  0  0  0  0
  -28.2486  -24.1429   21.6657 H   0  0  0  0  0  0
  -26.9275  -24.0300   20.5824 H   0  0  0  0  0  0
  -28.6486  -16.3991   20.3052 H   0  0  0  0  0  0
  1 25  1  0  0  0
  1 30  2  0  0  0
  1 79  1  0  0  0
  2  3  1  0  0  0
  2 25  1  0  0  0
  2 80  1  0  0  0
  2 81  1  0  0  0
  3  4  1  0  0  0
  3 82  1  0  0  0
  3 83  1  0  0  0
  4  5  1  0  0  0
  4 84  1  0  0  0
  4 85  1  0  0  0
  5  6  1  0  0  0
  5 26  1  0  0  0
  5 86  1  0  0  0
  6 25  1  0  0  0
  6 87  1  0  0  0
  6 88  1  0  0  0
  7  8  2  0  0  0
  7 26  1  0  0  0
  7 29  1  0  0  0
  8  9  1  0  0  0
  8 22  1  0  0  0
  9 10  1  0  0  0
  9 27  2  0  0  0
 10 11  2  0  0  0
 10 15  1  0  0  0
 11 12  1  0  0  0
 11 89  1  0  0  0
 12 13  2  0  0  0
 12 90  1  0  0  0
 13 14  1  0  0  0
 13 31  1  0  0  0
 14 15  2  0  0  0
 14 91  1  0  0  0
 15 92  1  0  0  0
 16 17  2  0  0  0
 16 21  1  0  0  0
 16 31  1  0  0  0
 17 18  1  0  0  0
 17 93  1  0  0  0
 18 19  2  0  0  0
 18 94  1  0  0  0
 19 20  1  0  0  0
 19 24  1  0  0  0
 20 21  2  0  0  0
 20 95  1  0  0  0
 21 23  1  0  0  0
 22 28  1  0  0  0
 22 32  2  0  0  0
 26 27  1  0  0  0
 28 96  1  0  0  0
 28 97  1  0  0  0
 29 98  1  0  0  0
 29 99  1  0  0  0
 33 34  1  0  0  0
 33 66  1  0  0  0
 33 70  2  0  0  0
 34 36  1  0  0  0
 34 59  1  0  0  0
 34100  1  0  0  0
 35 44  2  0  0  0
 35 45  1  0  0  0
 35 68  1  0  0  0
 36 56  1  0  0  0
 36101  1  0  0  0
 37 39  1  0  0  0
 37 47  1  0  0  0
 37 66  1  0  0  0
 37102  1  0  0  0
 38 43  2  0  0  0
 38 46  1  0  0  0
 38 47  1  0  0  0
 39 64  1  0  0  0
 39 67  2  0  0  0
 40 52  1  0  0  0
 40 53  2  0  0  0
 40 58  1  0  0  0
 41103  1  0  0  0
 41104  1  0  0  0
 41105  1  0  0  0
 41 48  1  0  0  0
 42 43  1  0  0  0
 42 66  1  0  0  0
 42106  1  0  0  0
 42107  1  0  0  0
 43 44  1  0  0  0
 44108  1  0  0  0
 45 46  2  0  0  0
 45109  1  0  0  0
 46110  1  0  0  0
 47111  1  0  0  0
 47112  1  0  0  0
 48 56  1  0  0  0
 48 65  1  0  0  0
 48113  1  0  0  0
 49 50  1  0  0  0
 49 53  1  0  0  0
 49 64  1  0  0  0
 49114  1  0  0  0
 50 51  1  0  0  0
 50115  1  0  0  0
 50116  1  0  0  0
 51 52  1  0  0  0
 51117  1  0  0  0
 51118  1  0  0  0
 52119  1  0  0  0
 52120  1  0  0  0
 53 54  1  0  0  0
 54 55  2  0  0  0
 54121  1  0  0  0
 55 57  1  0  0  0
 55122  1  0  0  0
 56 69  2  0  0  0
 57 58  2  0  0  0
 57123  1  0  0  0
 58124  1  0  0  0
 59 60  1  0  0  0
 59 61  1  0  0  0
 59 62  1  0  0  0
 60125  1  0  0  0
 60126  1  0  0  0
 60127  1  0  0  0
 61128  1  0  0  0
 61129  1  0  0  0
 61130  1  0  0  0
 62131  1  0  0  0
 62132  1  0  0  0
 62133  1  0  0  0
 63 65  1  0  0  0
 63134  1  0  0  0
 63135  1  0  0  0
 63136  1  0  0  0
 64137  1  0  0  0
 65138  1  0  0  0
 68 78  1  0  0  0
 71 72  2  0  0  0
 71 73  1  0  0  0
 71139  1  0  0  0
 72 75  1  0  0  0
 72140  1  0  0  0
 73 76  2  0  0  0
 73141  1  0  0  0
 74 75  2  0  0  0
 74 76  1  0  0  0
 74142  1  0  0  0
 75 77  1  0  0  0
 76 78  1  0  0  0
 77 79  1  0  0  0
 77143  1  0  0  0
 77144  1  0  0  0
 78145  1  0  0  0
 78146  1  0  0  0
 79147  1  0  0  0
M  ISO  4   1 100  68 101  78 101  79 100
M  END
> <chiral flag>
0

> <version>
0

> <s_m_source_file>
/data/baiqing/PycharmProjects/Reinvent-master-3.2/result/LINK_invent/BTK/process_docking_weight1_custom_product_contain_oxygen_bond_distance_aromatic_linkinvent_7_9_3/rearranged_h_0002.sdf

> <i_m_source_file_index>
19

> <r_mmod_Potential_Energy-OPLS-2005>
1401.74060058594

> <r_mmod_Stretch_Energy-OPLS-2005>
643.052795410156

> <r_mmod_Bend_Energy-OPLS-2005>
451.203063964844

> <r_mmod_Torsional_Energy-OPLS-2005>
238.437026977539

> <r_mmod_Improper_Torsional_Energy-OPLS-2005>
6.01917123794556

> <r_mmod_Van_der_Waal_Energy-OPLS-2005>
122.058601379395

> <r_mmod_Electrostatic_Energy-OPLS-2005>
-377.779266357422

> <r_mmod_Solvation_Energy-OPLS-2005>
-214.792663574219

> <b_mmod_Minimization_Converged-OPLS-2005>
1

> <r_mmod_RMS_Derivative-OPLS-2005>
0.046136412769556

$$$$
19
                    3D
 Structure written by MMmdl.
147155  0  0  1  0            999 V2000
  -30.3092  -15.6938   20.3635 C   0  0  0  0  0  0
  -30.4266  -13.1350   19.5680 C   0  0  0  0  0  0
  -29.5585  -12.6862   18.3537 C   0  0  0  0  0  0
  -28.1455  -12.3010   18.8028 C   0  0  0  0  0  0
  -27.6013  -13.3132   19.8284 C   0  0  2  0  0  0
  -28.6081  -13.6758   20.9529 C   0  0  0  0  0  0
  -25.2341  -13.8304   20.5824 C   0  0  0  0  0  0
  -24.1738  -13.0468   20.9307 C   0  0  0  0  0  0
  -24.6418  -11.6966   20.8746 C   0  0  0  0  0  0
  -23.9111  -10.4300   21.0387 C   0  0  0  0  0  0
  -24.3652   -9.4206   21.9158 C   0  0  0  0  0  0
  -23.6302   -8.2234   22.0731 C   0  0  0  0  0  0
  -22.4281   -8.0261   21.3531 C   0  0  0  0  0  0
  -21.9936   -9.0257   20.4628 C   0  0  0  0  0  0
  -22.7277  -10.2129   20.3033 C   0  0  0  0  0  0
  -21.6870   -6.0726   22.5275 C   0  0  0  0  0  0
  -21.4026   -6.5636   23.8207 C   0  0  0  0  0  0
  -21.3671   -5.6782   24.9174 C   0  0  0  0  0  0
  -21.6039   -4.3026   24.7228 C   0  0  0  0  0  0
  -21.8823   -3.8137   23.4351 C   0  0  0  0  0  0
  -21.9206   -4.6945   22.3404 C   0  0  0  0  0  0
  -22.7729  -13.5157   21.1942 C   0  0  0  0  0  0
  -22.1660   -4.2142   21.0973 F   0  0  0  0  0  0
  -21.5634   -3.4520   25.7749 F   0  0  0  0  0  0
  -29.7863  -14.3169   20.3156 N   0  0  0  0  0  0
  -26.2802  -12.9641   20.3304 N   0  0  0  0  0  0
  -25.9381  -11.6729   20.5747 N   0  0  0  0  0  0
  -22.0399  -12.8123   22.0470 N   0  0  0  0  0  0
  -25.3921  -15.2034   20.4234 N   0  0  0  0  0  0
  -31.5317  -15.6283   20.1184 O   0  0  0  0  0  0
  -21.6640   -6.8866   21.4233 O   0  0  0  0  0  0
  -22.3376  -14.5454   20.6751 O   0  0  0  0  0  0
  -24.6860  -31.7944   23.1498 C   0  0  0  0  0  0
  -25.9423  -32.4438   23.8044 C   0  0  1  0  0  0
  -27.2603  -26.6608   20.2664 C   0  0  0  0  0  0
  -25.5987  -33.8269   24.1921 N   0  0  0  0  0  0
  -23.5164  -30.3876   21.5003 C   0  0  2  0  0  0
  -24.9918  -28.7161   20.1219 C   0  0  0  0  0  0
  -22.7780  -29.4274   22.4712 C   0  0  0  0  0  0
  -18.0338  -28.1405   22.8452 C   0  0  0  0  0  0
  -24.1508  -36.7146   23.2652 C   0  0  0  0  0  0
  -26.0988  -30.5190   21.4219 C   0  0  0  0  0  0
  -26.1727  -29.0760   20.7842 C   0  0  0  0  0  0
  -27.2839  -28.0747   20.8247 C   0  0  0  0  0  0
  -26.0548  -26.5274   19.5268 C   0  0  0  0  0  0
  -24.9764  -27.4705   19.4658 C   0  0  0  0  0  0
  -23.7808  -29.6694   20.1406 C   0  0  0  0  0  0
  -25.4163  -36.2881   24.0272 C   0  0  1  0  0  0
  -20.5984  -28.3783   23.1134 C   0  0  2  0  0  0
  -20.6806  -26.9435   22.5419 C   0  0  0  0  0  0
  -19.5782  -26.6360   21.5225 C   0  0  0  0  0  0
  -18.1962  -26.7935   22.1618 C   0  0  0  0  0  0
  -19.1606  -28.8922   23.2770 C   0  0  0  0  0  0
  -18.9513  -30.1512   23.8809 C   0  0  0  0  0  0
  -17.6502  -30.6601   24.0558 C   0  0  0  0  0  0
  -25.9135  -34.9269   23.4932 C   0  0  0  0  0  0
  -16.5389  -29.9091   23.6354 C   0  0  0  0  0  0
  -16.7320  -28.6516   23.0372 C   0  0  0  0  0  0
  -26.4615  -31.6478   25.0671 C   0  0  0  0  0  0
  -25.3668  -31.3815   26.1282 C   0  0  0  0  0  0
  -27.0542  -30.2804   24.6591 C   0  0  0  0  0  0
  -27.6046  -32.4364   25.7501 C   0  0  0  0  0  0
  -27.5562  -37.1750   24.8473 C   0  0  0  0  0  0
  -21.4431  -29.3009   22.3450 N   0  0  0  0  0  0
  -26.4287  -37.3636   23.9384 N   0  0  0  0  0  0
  -24.7896  -30.9362   22.0759 N   0  0  0  0  0  0
  -23.4207  -28.7883   23.3083 O   0  0  0  0  0  0
  -28.2214  -25.4277   20.4353 O   0  0  0  0  0  0
  -26.5785  -34.8835   22.4554 O   0  0  0  0  0  0
  -23.5862  -32.1036   23.6408 O   0  0  0  0  0  0
  -29.7529  -20.7811   23.4491 C   0  0  0  0  0  0
  -29.4210  -22.1246   23.4444 C   0  0  0  0  0  0
  -29.6442  -20.0246   22.2812 C   0  0  0  0  0  0
  -28.9996  -22.7425   22.2645 C   0  0  0  0  0  0
  -29.2251  -20.4774   21.0002 C   0  0  0  0  0  0
  -28.8465  -22.1358   20.9822 C   0  0  0  0  0  0
  -29.4843  -18.8420   20.1252 C   0  0  0  0  0  0
  -28.2494  -23.6690   20.0874 C   0  0  0  0  0  0
  -29.5555  -17.0681   20.5041 N   0  0  0  0  0  0
  -31.4146  -13.4073   19.1950 H   0  0  0  0  0  0
  -30.6058  -12.2969   20.2467 H   0  0  0  0  0  0
  -30.0354  -11.8505   17.8383 H   0  0  0  0  0  0
  -29.4949  -13.5003   17.6293 H   0  0  0  0  0  0
  -28.1990  -11.3135   19.2626 H   0  0  0  0  0  0
  -27.4750  -12.2045   17.9484 H   0  0  0  0  0  0
  -27.4598  -14.2243   19.2439 H   0  0  0  0  0  0
  -28.8809  -12.8061   21.5509 H   0  0  0  0  0  0
  -28.1536  -14.3847   21.6446 H   0  0  0  0  0  0
  -25.2809   -9.5685   22.4737 H   0  0  0  0  0  0
  -24.0044   -7.4622   22.7433 H   0  0  0  0  0  0
  -21.0879   -8.8769   19.8918 H   0  0  0  0  0  0
  -22.3726  -10.9675   19.6127 H   0  0  0  0  0  0
  -21.2005   -7.6153   23.9722 H   0  0  0  0  0  0
  -21.1489   -6.0504   25.9079 H   0  0  0  0  0  0
  -22.0592   -2.7611   23.2854 H   0  0  0  0  0  0
  -22.4063  -11.9842   22.4958 H   0  0  0  0  0  0
  -21.0957  -13.1063   22.2625 H   0  0  0  0  0  0
  -24.6236  -15.8548   20.5321 H   0  0  0  0  0  0
  -26.2308  -15.6410   20.0703 H   0  0  0  0  0  0
  -26.7503  -32.4948   23.0756 H   0  0  0  0  0  0
  -25.0047  -33.9313   25.0018 H   0  0  0  0  0  0
  -22.8412  -31.2233   21.2986 H   0  0  0  0  0  0
  -23.3750  -35.9490   23.3317 H   0  0  0  0  0  0
  -24.3542  -36.8809   22.2053 H   0  0  0  0  0  0
  -23.7296  -37.6342   23.6735 H   0  0  0  0  0  0
  -26.2993  -31.2351   20.6239 H   0  0  0  0  0  0
  -26.9456  -30.5993   22.0889 H   0  0  0  0  0  0
  -28.1583  -28.3619   21.3907 H   0  0  0  0  0  0
  -25.8994  -25.5793   19.0347 H   0  0  0  0  0  0
  -24.0935  -27.1822   18.9124 H   0  0  0  0  0  0
  -23.9560  -30.4220   19.3722 H   0  0  0  0  0  0
  -22.8909  -29.1272   19.8219 H   0  0  0  0  0  0
  -25.1387  -36.1626   25.0758 H   0  0  0  0  0  0
  -21.0062  -28.3403   24.1266 H   0  0  0  0  0  0
  -20.5672  -26.2403   23.3682 H   0  0  0  0  0  0
  -21.6661  -26.7398   22.1224 H   0  0  0  0  0  0
  -19.6953  -25.6259   21.1290 H   0  0  0  0  0  0
  -19.6721  -27.3140   20.6714 H   0  0  0  0  0  0
  -17.4255  -26.6702   21.4016 H   0  0  0  0  0  0
  -18.0355  -26.0113   22.9030 H   0  0  0  0  0  0
  -19.7989  -30.7360   24.2149 H   0  0  0  0  0  0
  -17.5051  -31.6270   24.5159 H   0  0  0  0  0  0
  -15.5388  -30.2957   23.7731 H   0  0  0  0  0  0
  -15.8718  -28.0794   22.7134 H   0  0  0  0  0  0
  -24.5881  -30.7136   25.7616 H   0  0  0  0  0  0
  -24.8833  -32.3040   26.4492 H   0  0  0  0  0  0
  -25.7840  -30.9141   27.0201 H   0  0  0  0  0  0
  -26.3265  -29.6425   24.1577 H   0  0  0  0  0  0
  -27.3943  -29.7255   25.5344 H   0  0  0  0  0  0
  -27.9259  -30.3919   24.0139 H   0  0  0  0  0  0
  -27.2555  -33.3727   26.1850 H   0  0  0  0  0  0
  -28.3970  -32.6815   25.0426 H   0  0  0  0  0  0
  -28.0571  -31.8644   26.5607 H   0  0  0  0  0  0
  -28.2599  -38.0024   24.7452 H   0  0  0  0  0  0
  -28.1041  -36.2550   24.6407 H   0  0  0  0  0  0
  -27.2259  -37.1507   25.8870 H   0  0  0  0  0  0
  -20.9771  -29.8637   21.6473 H   0  0  0  0  0  0
  -26.0110  -38.2691   24.1342 H   0  0  0  0  0  0
  -30.1259  -20.3287   24.3583 H   0  0  0  0  0  0
  -29.4991  -22.6952   24.3621 H   0  0  0  0  0  0
  -29.9593  -18.9993   22.4057 H   0  0  0  0  0  0
  -28.7794  -23.7973   22.3830 H   0  0  0  0  0  0
  -30.4239  -19.0030   19.5937 H   0  0  0  0  0  0
  -28.7415  -18.8799   19.3264 H   0  0  0  0  0  0
  -27.2551  -23.4210   19.7160 H   0  0  0  0  0  0
  -28.8689  -23.6442   19.1935 H   0  0  0  0  0  0
  -28.6385  -16.8108   20.8345 H   0  0  0  0  0  0
  1 25  1  0  0  0
  1 30  2  0  0  0
  1 79  1  0  0  0
  2  3  1  0  0  0
  2 25  1  0  0  0
  2 80  1  0  0  0
  2 81  1  0  0  0
  3  4  1  0  0  0
  3 82  1  0  0  0
  3 83  1  0  0  0
  4  5  1  0  0  0
  4 84  1  0  0  0
  4 85  1  0  0  0
  5  6  1  0  0  0
  5 26  1  0  0  0
  5 86  1  0  0  0
  6 25  1  0  0  0
  6 87  1  0  0  0
  6 88  1  0  0  0
  7  8  2  0  0  0
  7 26  1  0  0  0
  7 29  1  0  0  0
  8  9  1  0  0  0
  8 22  1  0  0  0
  9 10  1  0  0  0
  9 27  2  0  0  0
 10 11  2  0  0  0
 10 15  1  0  0  0
 11 12  1  0  0  0
 11 89  1  0  0  0
 12 13  2  0  0  0
 12 90  1  0  0  0
 13 14  1  0  0  0
 13 31  1  0  0  0
 14 15  2  0  0  0
 14 91  1  0  0  0
 15 92  1  0  0  0
 16 17  2  0  0  0
 16 21  1  0  0  0
 16 31  1  0  0  0
 17 18  1  0  0  0
 17 93  1  0  0  0
 18 19  2  0  0  0
 18 94  1  0  0  0
 19 20  1  0  0  0
 19 24  1  0  0  0
 20 21  2  0  0  0
 20 95  1  0  0  0
 21 23  1  0  0  0
 22 28  1  0  0  0
 22 32  2  0  0  0
 26 27  1  0  0  0
 28 96  1  0  0  0
 28 97  1  0  0  0
 29 98  1  0  0  0
 29 99  1  0  0  0
 33 34  1  0  0  0
 33 66  1  0  0  0
 33 70  2  0  0  0
 34 36  1  0  0  0
 34 59  1  0  0  0
 34100  1  0  0  0
 35 44  2  0  0  0
 35 45  1  0  0  0
 35 68  1  0  0  0
 36 56  1  0  0  0
 36101  1  0  0  0
 37 39  1  0  0  0
 37 47  1  0  0  0
 37 66  1  0  0  0
 37102  1  0  0  0
 38 43  2  0  0  0
 38 46  1  0  0  0
 38 47  1  0  0  0
 39 64  1  0  0  0
 39 67  2  0  0  0
 40 52  1  0  0  0
 40 53  2  0  0  0
 40 58  1  0  0  0
 41103  1  0  0  0
 41104  1  0  0  0
 41105  1  0  0  0
 41 48  1  0  0  0
 42 43  1  0  0  0
 42 66  1  0  0  0
 42106  1  0  0  0
 42107  1  0  0  0
 43 44  1  0  0  0
 44108  1  0  0  0
 45 46  2  0  0  0
 45109  1  0  0  0
 46110  1  0  0  0
 47111  1  0  0  0
 47112  1  0  0  0
 48 56  1  0  0  0
 48 65  1  0  0  0
 48113  1  0  0  0
 49 50  1  0  0  0
 49 53  1  0  0  0
 49 64  1  0  0  0
 49114  1  0  0  0
 50 51  1  0  0  0
 50115  1  0  0  0
 50116  1  0  0  0
 51 52  1  0  0  0
 51117  1  0  0  0
 51118  1  0  0  0
 52119  1  0  0  0
 52120  1  0  0  0
 53 54  1  0  0  0
 54 55  2  0  0  0
 54121  1  0  0  0
 55 57  1  0  0  0
 55122  1  0  0  0
 56 69  2  0  0  0
 57 58  2  0  0  0
 57123  1  0  0  0
 58124  1  0  0  0
 59 60  1  0  0  0
 59 61  1  0  0  0
 59 62  1  0  0  0
 60125  1  0  0  0
 60126  1  0  0  0
 60127  1  0  0  0
 61128  1  0  0  0
 61129  1  0  0  0
 61130  1  0  0  0
 62131  1  0  0  0
 62132  1  0  0  0
 62133  1  0  0  0
 63 65  1  0  0  0
 63134  1  0  0  0
 63135  1  0  0  0
 63136  1  0  0  0
 64137  1  0  0  0
 65138  1  0  0  0
 68 78  1  0  0  0
 71 72  2  0  0  0
 71 73  1  0  0  0
 71139  1  0  0  0
 72 74  1  0  0  0
 72140  1  0  0  0
 73 75  2  0  0  0
 73141  1  0  0  0
 74 76  2  0  0  0
 74142  1  0  0  0
 75 76  1  0  0  0
 75 77  1  0  0  0
 76 78  1  0  0  0
 77 79  1  0  0  0
 77143  1  0  0  0
 77144  1  0  0  0
 78145  1  0  0  0
 78146  1  0  0  0
 79147  1  0  0  0
M  ISO  4   1 100  68 101  78 101  79 100
M  END
> <chiral flag>
0

> <version>
0

> <s_m_source_file>
/data/baiqing/PycharmProjects/Reinvent-master-3.2/result/LINK_invent/BTK/process_docking_weight1_custom_product_contain_oxygen_bond_distance_aromatic_linkinvent_7_9_3/rearranged_h_0002.sdf

> <i_m_source_file_index>
20

> <r_mmod_Potential_Energy-OPLS-2005>
2826.20043945312

> <r_mmod_Stretch_Energy-OPLS-2005>
1262.44714355469

> <r_mmod_Bend_Energy-OPLS-2005>
804.282165527344

> <r_mmod_Torsional_Energy-OPLS-2005>
219.274536132812

> <r_mmod_Improper_Torsional_Energy-OPLS-2005>
4.54312515258789

> <r_mmod_Van_der_Waal_Energy-OPLS-2005>
128.410491943359

> <r_mmod_Electrostatic_Energy-OPLS-2005>
-372.703125

> <r_mmod_Solvation_Energy-OPLS-2005>
-220.16291809082

> <b_mmod_Minimization_Converged-OPLS-2005>
0

> <r_mmod_RMS_Derivative-OPLS-2005>
5.85740661621094

$$$$
20
                    3D
 Structure written by MMmdl.
164172  0  0  1  0            999 V2000
  -31.1579  -13.8894   20.9316 C   0  0  0  0  0  0
  -30.6423  -12.2527   19.0646 C   0  0  0  0  0  0
  -29.9910  -12.8046   17.3799 C   0  0  0  0  0  0
  -28.3485  -13.7764   17.1241 C   0  0  0  0  0  0
  -27.3392  -14.0200   20.2480 C   0  0  2  0  0  0
  -28.7036  -13.2003   21.2223 C   0  0  0  0  0  0
  -24.9845  -13.9952   20.8228 C   0  0  0  0  0  0
  -24.0166  -13.0849   21.0225 C   0  0  0  0  0  0
  -24.6050  -11.7820   20.9785 C   0  0  0  0  0  0
  -23.9358  -10.4604   21.0562 C   0  0  0  0  0  0
  -24.3844   -9.4392   21.9249 C   0  0  0  0  0  0
  -23.6519   -8.2367   22.0713 C   0  0  0  0  0  0
  -22.4502   -8.0381   21.3490 C   0  0  0  0  0  0
  -22.0254   -9.0373   20.4556 C   0  0  0  0  0  0
  -22.7596  -10.2290   20.3071 C   0  0  0  0  0  0
  -21.6947   -6.0814   22.5263 C   0  0  0  0  0  0
  -21.4078   -6.5692   23.8194 C   0  0  0  0  0  0
  -21.3677   -5.6834   24.9148 C   0  0  0  0  0  0
  -21.6044   -4.3086   24.7203 C   0  0  0  0  0  0
  -21.8804   -3.8195   23.4309 C   0  0  0  0  0  0
  -21.9220   -4.7028   22.3379 C   0  0  0  0  0  0
  -22.6015  -13.4737   21.2012 C   0  0  0  0  0  0
  -22.1680   -4.2198   21.0958 F   0  0  0  0  0  0
  -21.5611   -3.4568   25.7703 F   0  0  0  0  0  0
  -30.2223  -12.8641   20.5898 N   0  0  0  0  0  0
  -26.1281  -13.3044   20.7541 N   0  0  0  0  0  0
  -25.9309  -11.9249   20.8675 N   0  0  0  0  0  0
  -21.8939  -12.7555   22.0552 N   0  0  0  0  0  0
  -25.0023  -15.3788   20.6786 N   0  0  0  0  0  0
  -32.3584  -13.9431   20.6933 O   0  0  0  0  0  0
  -21.6795   -6.8998   21.4220 O   0  0  0  0  0  0
  -22.1594  -14.4884   20.6635 O   0  0  0  0  0  0
  -24.6510  -31.8404   23.1871 C   0  0  0  0  0  0
  -25.9277  -32.4661   23.8236 C   0  0  1  0  0  0
  -27.0815  -27.0579   20.0642 C   0  0  0  0  0  0
  -25.6004  -33.8473   24.2158 N   0  0  0  0  0  0
  -23.4442  -30.4743   21.5423 C   0  0  2  0  0  0
  -24.8543  -28.8962   20.1014 C   0  0  0  0  0  0
  -22.7562  -29.4559   22.4864 C   0  0  0  0  0  0
  -18.0303  -28.1393   22.8478 C   0  0  0  0  0  0
  -24.1495  -36.7232   23.2641 C   0  0  0  0  0  0
  -26.0108  -30.6784   21.3946 C   0  0  0  0  0  0
  -26.0510  -29.2908   20.7137 C   0  0  0  0  0  0
  -27.1837  -28.3836   20.6757 C   0  0  0  0  0  0
  -25.8640  -26.7772   19.4386 C   0  0  0  0  0  0
  -24.7743  -27.6575   19.4552 C   0  0  0  0  0  0
  -23.6571  -29.8254   20.1549 C   0  0  0  0  0  0
  -25.4137  -36.3009   24.0304 C   0  0  1  0  0  0
  -20.5913  -28.3721   23.1234 C   0  0  2  0  0  0
  -20.6789  -26.9425   22.5400 C   0  0  0  0  0  0
  -19.5761  -26.6380   21.5213 C   0  0  0  0  0  0
  -18.1944  -26.7933   22.1625 C   0  0  0  0  0  0
  -19.1558  -28.8879   23.2844 C   0  0  0  0  0  0
  -18.9473  -30.1473   23.8873 C   0  0  0  0  0  0
  -17.6469  -30.6590   24.0561 C   0  0  0  0  0  0
  -25.9102  -34.9390   23.5039 C   0  0  0  0  0  0
  -16.5361  -29.9081   23.6336 C   0  0  0  0  0  0
  -16.7286  -28.6498   23.0359 C   0  0  0  0  0  0
  -26.4556  -31.6558   25.0716 C   0  0  0  0  0  0
  -25.3707  -31.3772   26.1387 C   0  0  0  0  0  0
  -27.0438  -30.2943   24.6366 C   0  0  0  0  0  0
  -27.6070  -32.4338   25.7508 C   0  0  0  0  0  0
  -27.5579  -37.1779   24.8466 C   0  0  0  0  0  0
  -21.4257  -29.3052   22.3617 N   0  0  0  0  0  0
  -26.4289  -37.3737   23.9407 N   0  0  0  0  0  0
  -24.7249  -31.0200   22.0947 N   0  0  0  0  0  0
  -23.4222  -28.8085   23.2980 O   0  0  0  0  0  0
  -28.0299  -25.9821   19.9872 O   0  0  0  0  0  0
  -26.5678  -34.8897   22.4613 O   0  0  0  0  0  0
  -23.5635  -32.1326   23.7079 O   0  0  0  0  0  0
  -26.6397  -12.7616   18.3252 C   0  0  0  0  0  0
  -26.1258  -14.2891   18.0669 C   0  0  0  0  0  0
  -28.1830  -12.5360   18.9095 C   0  0  0  0  0  0
  -28.3190  -15.6805   18.7147 C   0  0  0  0  0  0
  -26.8964  -15.6752   18.2869 C   0  0  0  0  0  0
  -29.1555  -14.4205   19.0485 C   0  0  0  0  0  0
  -31.0188  -16.4133   18.7597 C   0  0  0  0  0  0
  -26.3698  -17.2670   18.1291 C   0  0  0  0  0  0
  -27.3149  -21.4442   19.4875 C   0  0  0  0  0  0
  -27.3591  -23.1283   19.1023 C   0  0  0  0  0  0
  -26.8047  -20.1049   18.5237 C   0  0  0  0  0  0
  -27.6378  -24.4517   20.1657 C   0  0  0  0  0  0
  -30.5504  -15.0279   19.2772 C   0  0  1  0  0  0
  -26.9953  -18.5478   18.8956 N   0  3  0  0  0  0
  -30.6458  -14.9987   20.6617 O   0  0  0  0  0  0
  -31.7276  -12.2819   18.9735 H   0  0  0  0  0  0
  -30.5055  -11.1733   19.1399 H   0  0  0  0  0  0
  -29.9343  -11.9090   16.7583 H   0  0  0  0  0  0
  -30.7769  -13.3809   16.8899 H   0  0  0  0  0  0
  -27.7668  -13.2369   16.3619 H   0  0  0  0  0  0
  -28.5896  -14.6897   16.5686 H   0  0  0  0  0  0
  -27.3535  -15.0023   20.7330 H   0  0  0  0  0  0
  -28.3586  -12.2335   21.5870 H   0  0  0  0  0  0
  -28.8307  -13.7701   22.1449 H   0  0  0  0  0  0
  -25.2836   -9.5927   22.5042 H   0  0  0  0  0  0
  -24.0188   -7.4773   22.7465 H   0  0  0  0  0  0
  -21.1212   -8.8925   19.8809 H   0  0  0  0  0  0
  -22.3962  -10.9870   19.6278 H   0  0  0  0  0  0
  -21.2092   -7.6206   23.9719 H   0  0  0  0  0  0
  -21.1504   -6.0555   25.9054 H   0  0  0  0  0  0
  -22.0551   -2.7654   23.2799 H   0  0  0  0  0  0
  -22.2945  -11.9542   22.5205 H   0  0  0  0  0  0
  -20.9350  -13.0075   22.2484 H   0  0  0  0  0  0
  -24.1578  -15.9337   20.7514 H   0  0  0  0  0  0
  -25.8528  -15.9180   20.6386 H   0  0  0  0  0  0
  -26.7312  -32.5190   23.0917 H   0  0  0  0  0  0
  -25.0132  -33.9575   25.0294 H   0  0  0  0  0  0
  -22.7498  -31.3055   21.4040 H   0  0  0  0  0  0
  -23.3773  -35.9546   23.3285 H   0  0  0  0  0  0
  -24.3571  -36.8891   22.2058 H   0  0  0  0  0  0
  -23.7232  -37.6412   23.6699 H   0  0  0  0  0  0
  -26.1896  -31.4366   20.6315 H   0  0  0  0  0  0
  -26.8769  -30.7072   22.0445 H   0  0  0  0  0  0
  -28.1070  -28.6663   21.1621 H   0  0  0  0  0  0
  -25.7337  -25.8300   18.9354 H   0  0  0  0  0  0
  -23.8539  -27.3615   18.9706 H   0  0  0  0  0  0
  -23.8160  -30.6100   19.4144 H   0  0  0  0  0  0
  -22.7585  -29.2967   19.8325 H   0  0  0  0  0  0
  -25.1327  -36.1821   25.0794 H   0  0  0  0  0  0
  -20.9994  -28.3308   24.1360 H   0  0  0  0  0  0
  -20.5698  -26.2327   23.3615 H   0  0  0  0  0  0
  -21.6651  -26.7445   22.1185 H   0  0  0  0  0  0
  -19.6918  -25.6286   21.1254 H   0  0  0  0  0  0
  -19.6693  -27.3180   20.6735 H   0  0  0  0  0  0
  -17.4208  -26.6677   21.4032 H   0  0  0  0  0  0
  -18.0344  -26.0084   22.9030 H   0  0  0  0  0  0
  -19.7949  -30.7297   24.2229 H   0  0  0  0  0  0
  -17.5023  -31.6271   24.5162 H   0  0  0  0  0  0
  -15.5360  -30.2973   23.7680 H   0  0  0  0  0  0
  -15.8687  -28.0813   22.7081 H   0  0  0  0  0  0
  -24.5888  -30.7131   25.7688 H   0  0  0  0  0  0
  -24.8894  -32.2964   26.4737 H   0  0  0  0  0  0
  -25.7947  -30.8976   27.0217 H   0  0  0  0  0  0
  -26.3072  -29.6634   24.1380 H   0  0  0  0  0  0
  -27.4026  -29.7282   25.4973 H   0  0  0  0  0  0
  -27.8993  -30.4169   23.9721 H   0  0  0  0  0  0
  -27.2659  -33.3660   26.2022 H   0  0  0  0  0  0
  -28.3912  -32.6867   25.0360 H   0  0  0  0  0  0
  -28.0708  -31.8508   26.5475 H   0  0  0  0  0  0
  -28.2579  -38.0092   24.7526 H   0  0  0  0  0  0
  -28.1091  -36.2621   24.6281 H   0  0  0  0  0  0
  -27.2291  -37.1406   25.8866 H   0  0  0  0  0  0
  -20.9460  -29.8795   21.6828 H   0  0  0  0  0  0
  -26.0146  -38.2797   24.1418 H   0  0  0  0  0  0
  -25.9862  -11.9194   18.1508 H   0  0  0  0  0  0
  -25.1031  -14.3783   17.7303 H   0  0  0  0  0  0
  -28.4727  -11.5172   19.1215 H   0  0  0  0  0  0
  -28.7173  -16.6669   18.8191 H   0  0  0  0  0  0
  -32.1025  -16.4859   18.8581 H   0  0  0  0  0  0
  -30.6207  -17.2559   19.3232 H   0  0  0  0  0  0
  -30.7979  -16.5425   17.6996 H   0  0  0  0  0  0
  -25.2998  -17.2671   18.3368 H   0  0  0  0  0  0
  -26.4465  -17.4899   17.0647 H   0  0  0  0  0  0
  -26.7284  -21.3742   20.4031 H   0  0  0  0  0  0
  -28.3286  -21.2028   19.8070 H   0  0  0  0  0  0
  -26.4109  -23.3464   18.6113 H   0  0  0  0  0  0
  -28.1002  -23.2242   18.3085 H   0  0  0  0  0  0
  -27.2661  -20.2274   17.5439 H   0  0  0  0  0  0
  -25.7390  -20.2410   18.3436 H   0  0  0  0  0  0
  -28.4662  -24.0999   20.7809 H   0  0  0  0  0  0
  -26.7994  -24.4544   20.8640 H   0  0  0  0  0  0
  -31.2822  -14.4424   18.7197 H   0  0  0  0  0  0
  -27.9899  -18.4113   18.8848 H   0  0  0  0  0  0
  -26.7094  -18.4543   19.8551 H   0  0  0  0  0  0
  1 25  1  0  0  0
  1 30  2  0  0  0
  1 85  1  0  0  0
  2  3  1  0  0  0
  2 25  1  0  0  0
  2 86  1  0  0  0
  2 87  1  0  0  0
  3  4  1  0  0  0
  3 88  1  0  0  0
  3 89  1  0  0  0
  4  5  1  0  0  0
  4 90  1  0  0  0
  4 91  1  0  0  0
  5  6  1  0  0  0
  5 26  1  0  0  0
  5 92  1  0  0  0
  6 25  1  0  0  0
  6 93  1  0  0  0
  6 94  1  0  0  0
  7  8  2  0  0  0
  7 26  1  0  0  0
  7 29  1  0  0  0
  8  9  1  0  0  0
  8 22  1  0  0  0
  9 10  1  0  0  0
  9 27  2  0  0  0
 10 11  2  0  0  0
 10 15  1  0  0  0
 11 12  1  0  0  0
 11 95  1  0  0  0
 12 13  2  0  0  0
 12 96  1  0  0  0
 13 14  1  0  0  0
 13 31  1  0  0  0
 14 15  2  0  0  0
 14 97  1  0  0  0
 15 98  1  0  0  0
 16 17  2  0  0  0
 16 21  1  0  0  0
 16 31  1  0  0  0
 17 18  1  0  0  0
 17 99  1  0  0  0
 18 19  2  0  0  0
 18100  1  0  0  0
 19 20  1  0  0  0
 19 24  1  0  0  0
 20 21  2  0  0  0
 20101  1  0  0  0
 21 23  1  0  0  0
 22 28  1  0  0  0
 22 32  2  0  0  0
 26 27  1  0  0  0
 28102  1  0  0  0
 28103  1  0  0  0
 29104  1  0  0  0
 29105  1  0  0  0
 33 34  1  0  0  0
 33 66  1  0  0  0
 33 70  2  0  0  0
 34 36  1  0  0  0
 34 59  1  0  0  0
 34106  1  0  0  0
 35 44  2  0  0  0
 35 45  1  0  0  0
 35 68  1  0  0  0
 36 56  1  0  0  0
 36107  1  0  0  0
 37 39  1  0  0  0
 37 47  1  0  0  0
 37 66  1  0  0  0
 37108  1  0  0  0
 38 43  2  0  0  0
 38 46  1  0  0  0
 38 47  1  0  0  0
 39 64  1  0  0  0
 39 67  2  0  0  0
 40 52  1  0  0  0
 40 53  2  0  0  0
 40 58  1  0  0  0
 41109  1  0  0  0
 41110  1  0  0  0
 41111  1  0  0  0
 41 48  1  0  0  0
 42 43  1  0  0  0
 42 66  1  0  0  0
 42112  1  0  0  0
 42113  1  0  0  0
 43 44  1  0  0  0
 44114  1  0  0  0
 45 46  2  0  0  0
 45115  1  0  0  0
 46116  1  0  0  0
 47117  1  0  0  0
 47118  1  0  0  0
 48 56  1  0  0  0
 48 65  1  0  0  0
 48119  1  0  0  0
 49 50  1  0  0  0
 49 53  1  0  0  0
 49 64  1  0  0  0
 49120  1  0  0  0
 50 51  1  0  0  0
 50121  1  0  0  0
 50122  1  0  0  0
 51 52  1  0  0  0
 51123  1  0  0  0
 51124  1  0  0  0
 52125  1  0  0  0
 52126  1  0  0  0
 53 54  1  0  0  0
 54 55  2  0  0  0
 54127  1  0  0  0
 55 57  1  0  0  0
 55128  1  0  0  0
 56 69  2  0  0  0
 57 58  2  0  0  0
 57129  1  0  0  0
 58130  1  0  0  0
 59 60  1  0  0  0
 59 61  1  0  0  0
 59 62  1  0  0  0
 60131  1  0  0  0
 60132  1  0  0  0
 60133  1  0  0  0
 61134  1  0  0  0
 61135  1  0  0  0
 61136  1  0  0  0
 62137  1  0  0  0
 62138  1  0  0  0
 62139  1  0  0  0
 63 65  1  0  0  0
 63140  1  0  0  0
 63141  1  0  0  0
 63142  1  0  0  0
 64143  1  0  0  0
 65144  1  0  0  0
 68 82  1  0  0  0
 71 72  2  0  0  0
 71 73  1  0  0  0
 71145  1  0  0  0
 72 75  1  0  0  0
 72146  1  0  0  0
 73 76  2  0  0  0
 73147  1  0  0  0
 74 75  2  0  0  0
 74 76  1  0  0  0
 74148  1  0  0  0
 75 78  1  0  0  0
 76 83  1  0  0  0
 77149  1  0  0  0
 77150  1  0  0  0
 77151  1  0  0  0
 77 83  1  0  0  0
 78 84  1  0  0  0
 78152  1  0  0  0
 78153  1  0  0  0
 79 80  1  0  0  0
 79 81  1  0  0  0
 79154  1  0  0  0
 79155  1  0  0  0
 80 82  1  0  0  0
 80156  1  0  0  0
 80157  1  0  0  0
 81 84  1  0  0  0
 81158  1  0  0  0
 81159  1  0  0  0
 82160  1  0  0  0
 82161  1  0  0  0
 83 85  1  0  0  0
 83162  1  0  0  0
 84163  1  0  0  0
 84164  1  0  0  0
M  CHG  1  84   1
M  ISO  4   1 100  68 101  82 101  85 100
M  END
> <chiral flag>
0

> <version>
0

> <s_m_source_file>
/data/baiqing/PycharmProjects/Reinvent-master-3.2/result/LINK_invent/BTK/process_docking_weight1_custom_product_contain_oxygen_bond_distance_aromatic_linkinvent_7_9_3/rearranged_h_0002.sdf

> <i_m_source_file_index>
21

> <r_mmod_Potential_Energy-OPLS-2005>
10004.0791015625

> <r_mmod_Stretch_Energy-OPLS-2005>
5863.265625

> <r_mmod_Bend_Energy-OPLS-2005>
652.143737792969

> <r_mmod_Torsional_Energy-OPLS-2005>
297.149353027344

> <r_mmod_Improper_Torsional_Energy-OPLS-2005>
37.875

> <r_mmod_Van_der_Waal_Energy-OPLS-2005>
2802.89111328125

> <r_mmod_Electrostatic_Energy-OPLS-2005>
-239.676300048828

> <r_mmod_Solvation_Energy-OPLS-2005>
-481.644958496094

> <b_mmod_Minimization_Converged-OPLS-2005>
0

> <r_mmod_RMS_Derivative-OPLS-2005>
4.61673498153687

$$$$
21
                    3D
 Structure written by MMmdl.
173182  0  0  1  0            999 V2000
  -29.7443  -15.9846   19.9306 C   0  0  0  0  0  0
  -30.3210  -13.3472   19.4013 C   0  0  0  0  0  0
  -29.5076  -12.6420   18.2785 C   0  0  0  0  0  0
  -28.1249  -12.2069   18.7901 C   0  0  0  0  0  0
  -27.5238  -13.2726   19.7329 C   0  0  2  0  0  0
  -28.5068  -13.7591   20.8031 C   0  0  0  0  0  0
  -25.2135  -13.8095   20.5760 C   0  0  0  0  0  0
  -24.1564  -13.0295   20.9368 C   0  0  0  0  0  0
  -24.6236  -11.6802   20.8798 C   0  0  0  0  0  0
  -23.8965  -10.4200   21.0432 C   0  0  0  0  0  0
  -24.3544   -9.4141   21.9214 C   0  0  0  0  0  0
  -23.6256   -8.2162   22.0749 C   0  0  0  0  0  0
  -22.4248   -8.0202   21.3519 C   0  0  0  0  0  0
  -21.9847   -9.0168   20.4630 C   0  0  0  0  0  0
  -22.7139  -10.2066   20.3076 C   0  0  0  0  0  0
  -21.6823   -6.0701   22.5288 C   0  0  0  0  0  0
  -21.4001   -6.5618   23.8220 C   0  0  0  0  0  0
  -21.3649   -5.6774   24.9181 C   0  0  0  0  0  0
  -21.6027   -4.3036   24.7228 C   0  0  0  0  0  0
  -21.8827   -3.8127   23.4354 C   0  0  0  0  0  0
  -21.9185   -4.6937   22.3409 C   0  0  0  0  0  0
  -22.7622  -13.5088   21.2036 C   0  0  0  0  0  0
  -22.1664   -4.2124   21.0989 F   0  0  0  0  0  0
  -21.5621   -3.4527   25.7748 F   0  0  0  0  0  0
  -29.4984  -14.5152   20.0112 N   0  0  0  0  0  0
  -26.2393  -12.9311   20.2909 N   0  0  0  0  0  0
  -25.9109  -11.6433   20.5537 N   0  0  0  0  0  0
  -22.0266  -12.8089   22.0577 N   0  0  0  0  0  0
  -25.3742  -15.1853   20.4273 N   0  0  0  0  0  0
  -31.0099  -16.0110   19.9443 O   0  0  0  0  0  0
  -21.6605   -6.8814   21.4237 O   0  0  0  0  0  0
  -22.3346  -14.5400   20.6844 O   0  0  0  0  0  0
  -24.5439  -31.9483   22.7542 C   0  0  0  0  0  0
  -25.8513  -32.4781   23.5821 C   0  0  1  0  0  0
  -28.0755  -27.2285   19.8188 C   0  0  0  0  0  0
  -25.4936  -33.8426   24.0006 N   0  0  0  0  0  0
  -23.2333  -29.8567   21.6568 C   0  0  2  0  0  0
  -25.7240  -27.4137   20.9134 C   0  0  0  0  0  0
  -22.3374  -29.5678   22.8107 C   0  0  0  0  0  0
  -17.8995  -28.1352   22.8362 C   0  0  0  0  0  0
  -24.1368  -36.7267   23.2665 C   0  0  0  0  0  0
  -26.0826  -30.7221   20.6833 C   0  0  0  0  0  0
  -26.7265  -28.8503   20.4339 C   0  0  0  0  0  0
  -27.9113  -28.5910   19.9337 C   0  0  0  0  0  0
  -27.0936  -26.2585   19.6244 C   0  0  0  0  0  0
  -26.0422  -26.2021   20.5083 C   0  0  0  0  0  0
  -23.7366  -27.7989   21.5202 C   0  0  0  0  0  0
  -25.4129  -36.2955   24.0051 C   0  0  1  0  0  0
  -20.3808  -28.2852   23.1988 C   0  0  2  0  0  0
  -20.5018  -26.8663   22.6133 C   0  0  0  0  0  0
  -19.4677  -26.6132   21.5287 C   0  0  0  0  0  0
  -18.0695  -26.7959   22.1320 C   0  0  0  0  0  0
  -19.0086  -28.8486   23.3226 C   0  0  0  0  0  0
  -18.8559  -30.1186   23.9171 C   0  0  0  0  0  0
  -17.5746  -30.6673   24.0618 C   0  0  0  0  0  0
  -25.9192  -34.9629   23.4229 C   0  0  0  0  0  0
  -16.4546  -29.9410   23.6186 C   0  0  0  0  0  0
  -16.6170  -28.6815   23.0088 C   0  0  0  0  0  0
  -26.4016  -31.8032   24.9765 C   0  0  0  0  0  0
  -25.2935  -31.4846   26.0097 C   0  0  0  0  0  0
  -27.2700  -30.5595   24.7905 C   0  0  0  0  0  0
  -27.4461  -32.7014   25.7110 C   0  0  0  0  0  0
  -27.5504  -37.1608   24.8451 C   0  0  0  0  0  0
  -21.1383  -29.2290   22.4227 N   0  0  0  0  0  0
  -26.4162  -37.3833   23.9548 N   0  0  0  0  0  0
  -24.5112  -31.1565   21.5234 N   0  0  0  0  0  0
  -22.7317  -29.1389   23.8843 O   0  0  0  0  0  0
  -28.9724  -26.7897   20.7000 O   0  0  0  0  0  0
  -26.6627  -34.9517   22.4400 O   0  0  0  0  0  0
  -23.4929  -32.1794   23.3778 O   0  0  0  0  0  0
  -22.0173  -21.6401   17.3098 C   0  0  0  0  0  0
  -22.8849  -22.0931   16.3000 C   0  0  0  0  0  0
  -22.1745  -22.1071   18.6302 C   0  0  0  0  0  0
  -22.5654  -27.9484   18.2460 C   0  0  0  0  0  0
  -23.1968  -29.0419   19.0882 C   0  0  0  0  0  0
  -23.9059  -23.0097   16.6059 C   0  0  0  0  0  0
  -23.2097  -23.0188   18.9439 C   0  0  0  0  0  0
  -23.1668  -26.6057   17.9214 C   0  0  0  0  0  0
  -24.9045  -27.7829   18.7104 C   0  0  0  0  0  0
  -24.5393  -29.0455   19.8294 C   0  0  0  0  0  0
  -24.0867  -23.4625   17.9265 C   0  0  0  0  0  0
  -24.5542  -26.2277   18.3218 C   0  0  0  0  0  0
  -25.4597  -29.1420   22.4325 C   0  0  0  0  0  0
  -26.9777  -20.6924   19.0727 C   0  0  0  0  0  0
  -26.5577  -22.7715   18.9664 C   0  0  0  0  0  0
  -28.3888  -19.1617   19.4678 C   0  0  0  0  0  0
  -28.0692  -28.2154   22.7813 C   0  0  0  0  0  0
  -28.5474  -26.8558   22.1125 C   0  0  0  0  0  0
  -25.2916  -24.3209   18.2688 C   0  0  1  0  0  0
  -26.5983  -28.5235   23.0277 N   0  0  0  0  0  0
  -28.7267  -17.2791   19.6793 N   0  0  0  0  0  0
  -25.0305  -29.4648   23.5130 O   0  0  0  0  0  0
  -31.2590  -13.7230   18.9826 H   0  0  0  0  0  0
  -30.6328  -12.6229   20.1560 H   0  0  0  0  0  0
  -30.0531  -11.7829   17.8793 H   0  0  0  0  0  0
  -29.3703  -13.3367   17.4505 H   0  0  0  0  0  0
  -28.2587  -11.2761   19.3467 H   0  0  0  0  0  0
  -27.4561  -11.9791   17.9583 H   0  0  0  0  0  0
  -27.3150  -14.1102   19.0614 H   0  0  0  0  0  0
  -28.9200  -12.9353   21.3935 H   0  0  0  0  0  0
  -28.0293  -14.4472   21.5052 H   0  0  0  0  0  0
  -25.2644   -9.5646   22.4841 H   0  0  0  0  0  0
  -23.9950   -7.4533   22.7444 H   0  0  0  0  0  0
  -21.0782   -8.8638   19.8942 H   0  0  0  0  0  0
  -22.3525  -10.9617   19.6238 H   0  0  0  0  0  0
  -21.2009   -7.6130   23.9714 H   0  0  0  0  0  0
  -21.1461   -6.0511   25.9079 H   0  0  0  0  0  0
  -22.0623   -2.7591   23.2859 H   0  0  0  0  0  0
  -22.3821  -11.9753   22.4993 H   0  0  0  0  0  0
  -21.0906  -13.1155   22.2738 H   0  0  0  0  0  0
  -24.5953  -15.8194   20.5662 H   0  0  0  0  0  0
  -26.2183  -15.6489   20.1249 H   0  0  0  0  0  0
  -26.6880  -32.5192   22.8875 H   0  0  0  0  0  0
  -24.7834  -33.9128   24.7136 H   0  0  0  0  0  0
  -22.4864  -30.2916   21.0048 H   0  0  0  0  0  0
  -23.3758  -35.9457   23.3086 H   0  0  0  0  0  0
  -24.3286  -36.9372   22.2140 H   0  0  0  0  0  0
  -23.6998  -37.6188   23.7150 H   0  0  0  0  0  0
  -25.9968  -31.1450   19.6809 H   0  0  0  0  0  0
  -26.9023  -31.2904   21.1249 H   0  0  0  0  0  0
  -28.7045  -29.3190   19.8930 H   0  0  0  0  0  0
  -27.4499  -25.3242   19.2203 H   0  0  0  0  0  0
  -25.4072  -25.3437   20.6792 H   0  0  0  0  0  0
  -23.0087  -27.2389   20.9305 H   0  0  0  0  0  0
  -23.6287  -27.3010   22.4877 H   0  0  0  0  0  0
  -25.1415  -36.1277   25.0504 H   0  0  0  0  0  0
  -20.6894  -28.1997   24.2424 H   0  0  0  0  0  0
  -20.2993  -26.1554   23.4194 H   0  0  0  0  0  0
  -21.5014  -26.6134   22.2867 H   0  0  0  0  0  0
  -19.5701  -25.6048   21.1272 H   0  0  0  0  0  0
  -19.6192  -27.3002   20.6949 H   0  0  0  0  0  0
  -17.3130  -26.6749   21.3557 H   0  0  0  0  0  0
  -17.8754  -26.0189   22.8697 H   0  0  0  0  0  0
  -19.7181  -30.6702   24.2703 H   0  0  0  0  0  0
  -17.4460  -31.6341   24.5286 H   0  0  0  0  0  0
  -15.4637  -30.3588   23.7427 H   0  0  0  0  0  0
  -15.7469  -28.1451   22.6579 H   0  0  0  0  0  0
  -24.5422  -30.8091   25.5997 H   0  0  0  0  0  0
  -24.7712  -32.3940   26.3131 H   0  0  0  0  0  0
  -25.6970  -31.0269   26.9130 H   0  0  0  0  0  0
  -27.6764  -30.5593   23.7829 H   0  0  0  0  0  0
  -26.7585  -29.6581   25.1075 H   0  0  0  0  0  0
  -28.1504  -30.5145   25.4323 H   0  0  0  0  0  0
  -27.0540  -33.6755   26.0003 H   0  0  0  0  0  0
  -28.3263  -32.8811   25.0913 H   0  0  0  0  0  0
  -27.7922  -32.2550   26.6466 H   0  0  0  0  0  0
  -28.2441  -37.9995   24.7814 H   0  0  0  0  0  0
  -28.1081  -36.2585   24.5905 H   0  0  0  0  0  0
  -27.2275  -37.0777   25.8840 H   0  0  0  0  0  0
  -20.8331  -29.4343   21.4846 H   0  0  0  0  0  0
  -25.9896  -38.2720   24.2033 H   0  0  0  0  0  0
  -21.2373  -20.9332   17.0639 H   0  0  0  0  0  0
  -22.7785  -21.7189   15.2902 H   0  0  0  0  0  0
  -21.5157  -21.7471   19.4065 H   0  0  0  0  0  0
  -21.5676  -28.1336   17.8722 H   0  0  0  0  0  0
  -22.5465  -29.8961   19.1465 H   0  0  0  0  0  0
  -24.5718  -23.3386   15.8166 H   0  0  0  0  0  0
  -23.3412  -23.3415   19.9679 H   0  0  0  0  0  0
  -22.5466  -25.8757   17.4182 H   0  0  0  0  0  0
  -24.3353  -27.2319   19.4091 H   0  0  0  0  0  0
  -26.5294  -20.3161   18.1529 H   0  0  0  0  0  0
  -26.2082  -20.4229   19.7978 H   0  0  0  0  0  0
  -26.4956  -22.9798   20.0339 H   0  0  0  0  0  0
  -27.5359  -23.1574   18.6830 H   0  0  0  0  0  0
  -28.8335  -19.5407   20.3860 H   0  0  0  0  0  0
  -29.1514  -19.3975   18.7270 H   0  0  0  0  0  0
  -28.6046  -29.0755   22.3799 H   0  0  0  0  0  0
  -28.4569  -28.1454   23.7966 H   0  0  0  0  0  0
  -27.8520  -26.0585   22.3687 H   0  0  0  0  0  0
  -29.4563  -26.5630   22.6372 H   0  0  0  0  0  0
  -25.8130  -24.4848   17.3226 H   0  0  0  0  0  0
  -26.4260  -28.5473   24.0198 H   0  0  0  0  0  0
  -27.8262  -16.8648   19.4910 H   0  0  0  0  0  0
  1 25  1  0  0  0
  1 30  2  0  0  0
  1 91  1  0  0  0
  2  3  1  0  0  0
  2 25  1  0  0  0
  2 93  1  0  0  0
  2 94  1  0  0  0
  3  4  1  0  0  0
  3 95  1  0  0  0
  3 96  1  0  0  0
  4  5  1  0  0  0
  4 97  1  0  0  0
  4 98  1  0  0  0
  5  6  1  0  0  0
  5 26  1  0  0  0
  5 99  1  0  0  0
  6 25  1  0  0  0
  6100  1  0  0  0
  6101  1  0  0  0
  7  8  2  0  0  0
  7 26  1  0  0  0
  7 29  1  0  0  0
  8  9  1  0  0  0
  8 22  1  0  0  0
  9 10  1  0  0  0
  9 27  2  0  0  0
 10 11  2  0  0  0
 10 15  1  0  0  0
 11 12  1  0  0  0
 11102  1  0  0  0
 12 13  2  0  0  0
 12103  1  0  0  0
 13 14  1  0  0  0
 13 31  1  0  0  0
 14 15  2  0  0  0
 14104  1  0  0  0
 15105  1  0  0  0
 16 17  2  0  0  0
 16 21  1  0  0  0
 16 31  1  0  0  0
 17 18  1  0  0  0
 17106  1  0  0  0
 18 19  2  0  0  0
 18107  1  0  0  0
 19 20  1  0  0  0
 19 24  1  0  0  0
 20 21  2  0  0  0
 20108  1  0  0  0
 21 23  1  0  0  0
 22 28  1  0  0  0
 22 32  2  0  0  0
 26 27  1  0  0  0
 28109  1  0  0  0
 28110  1  0  0  0
 29111  1  0  0  0
 29112  1  0  0  0
 33 34  1  0  0  0
 33 66  1  0  0  0
 33 70  2  0  0  0
 34 36  1  0  0  0
 34 59  1  0  0  0
 34113  1  0  0  0
 35 44  2  0  0  0
 35 45  1  0  0  0
 35 68  1  0  0  0
 36 56  1  0  0  0
 36114  1  0  0  0
 37 39  1  0  0  0
 37 47  1  0  0  0
 37 66  1  0  0  0
 37115  1  0  0  0
 38 43  2  0  0  0
 38 46  1  0  0  0
 38 47  1  0  0  0
 39 64  1  0  0  0
 39 67  2  0  0  0
 40 52  1  0  0  0
 40 53  2  0  0  0
 40 58  1  0  0  0
 41116  1  0  0  0
 41117  1  0  0  0
 41118  1  0  0  0
 41 48  1  0  0  0
 42 43  1  0  0  0
 42 66  1  0  0  0
 42119  1  0  0  0
 42120  1  0  0  0
 43 44  1  0  0  0
 44121  1  0  0  0
 45 46  2  0  0  0
 45122  1  0  0  0
 46123  1  0  0  0
 47124  1  0  0  0
 47125  1  0  0  0
 48 56  1  0  0  0
 48 65  1  0  0  0
 48126  1  0  0  0
 49 50  1  0  0  0
 49 53  1  0  0  0
 49 64  1  0  0  0
 49127  1  0  0  0
 50 51  1  0  0  0
 50128  1  0  0  0
 50129  1  0  0  0
 51 52  1  0  0  0
 51130  1  0  0  0
 51131  1  0  0  0
 52132  1  0  0  0
 52133  1  0  0  0
 53 54  1  0  0  0
 54 55  2  0  0  0
 54134  1  0  0  0
 55 57  1  0  0  0
 55135  1  0  0  0
 56 69  2  0  0  0
 57 58  2  0  0  0
 57136  1  0  0  0
 58137  1  0  0  0
 59 60  1  0  0  0
 59 61  1  0  0  0
 59 62  1  0  0  0
 60138  1  0  0  0
 60139  1  0  0  0
 60140  1  0  0  0
 61141  1  0  0  0
 61142  1  0  0  0
 61143  1  0  0  0
 62144  1  0  0  0
 62145  1  0  0  0
 62146  1  0  0  0
 63 65  1  0  0  0
 63147  1  0  0  0
 63148  1  0  0  0
 63149  1  0  0  0
 64150  1  0  0  0
 65151  1  0  0  0
 68 88  1  0  0  0
 71 72  2  0  0  0
 71 73  1  0  0  0
 71152  1  0  0  0
 72 76  1  0  0  0
 72153  1  0  0  0
 73 77  2  0  0  0
 73154  1  0  0  0
 74 75  2  0  0  0
 74 78  1  0  0  0
 74155  1  0  0  0
 75 80  1  0  0  0
 75156  1  0  0  0
 76 81  2  0  0  0
 76157  1  0  0  0
 77 81  1  0  0  0
 77158  1  0  0  0
 78 82  2  0  0  0
 78159  1  0  0  0
 79 80  2  0  0  0
 79 82  1  0  0  0
 79160  1  0  0  0
 80 83  1  0  0  0
 81 89  1  0  0  0
 82 89  1  0  0  0
 83 90  1  0  0  0
 83 92  2  0  0  0
 84 85  1  0  0  0
 84 86  1  0  0  0
 84161  1  0  0  0
 84162  1  0  0  0
 85163  1  0  0  0
 85164  1  0  0  0
 85 89  1  0  0  0
 86 91  1  0  0  0
 86165  1  0  0  0
 86166  1  0  0  0
 87 88  1  0  0  0
 87 90  1  0  0  0
 87167  1  0  0  0
 87168  1  0  0  0
 88169  1  0  0  0
 88170  1  0  0  0
 89171  1  0  0  0
 90172  1  0  0  0
 91173  1  0  0  0
M  ISO  4   1 100  68 101  88 101  91 100
M  END
> <chiral flag>
0

> <version>
0

> <s_m_source_file>
/data/baiqing/PycharmProjects/Reinvent-master-3.2/result/LINK_invent/BTK/process_docking_weight1_custom_product_contain_oxygen_bond_distance_aromatic_linkinvent_7_9_3/rearranged_h_0002.sdf

> <i_m_source_file_index>
22

> <r_mmod_Potential_Energy-OPLS-2005>
15945.205078125

> <r_mmod_Stretch_Energy-OPLS-2005>
7398.3544921875

> <r_mmod_Bend_Energy-OPLS-2005>
1862.32934570312

> <r_mmod_Torsional_Energy-OPLS-2005>
799.749450683594

> <r_mmod_Improper_Torsional_Energy-OPLS-2005>
75.5668563842773

> <r_mmod_Van_der_Waal_Energy-OPLS-2005>
3048.259765625

> <r_mmod_Electrostatic_Energy-OPLS-2005>
-428.306457519531

> <r_mmod_Solvation_Energy-OPLS-2005>
-233.62467956543

> <b_mmod_Minimization_Converged-OPLS-2005>
0

> <r_mmod_RMS_Derivative-OPLS-2005>
13.1468019485474

$$$$
22
                    3D
 Structure written by MMmdl.
151159  0  0  1  0            999 V2000
  -30.6108  -14.7369   20.4652 C   0  0  0  0  0  0
  -30.4303  -12.4501   19.4613 C   0  0  0  0  0  0
  -29.5092  -12.5150   18.2240 C   0  0  0  0  0  0
  -28.0329  -12.3463   18.6355 C   0  0  0  0  0  0
  -27.6403  -13.2328   19.8479 C   0  0  2  0  0  0
  -28.6879  -13.1550   20.9795 C   0  0  0  0  0  0
  -25.2497  -13.8193   20.5689 C   0  0  0  0  0  0
  -24.1799  -13.0435   20.9206 C   0  0  0  0  0  0
  -24.6398  -11.6912   20.8753 C   0  0  0  0  0  0
  -23.9079  -10.4292   21.0417 C   0  0  0  0  0  0
  -24.3631   -9.4201   21.9188 C   0  0  0  0  0  0
  -23.6308   -8.2234   22.0757 C   0  0  0  0  0  0
  -22.4287   -8.0274   21.3552 C   0  0  0  0  0  0
  -21.9919   -9.0249   20.4646 C   0  0  0  0  0  0
  -22.7255  -10.2131   20.3059 C   0  0  0  0  0  0
  -21.6853   -6.0736   22.5291 C   0  0  0  0  0  0
  -21.4009   -6.5644   23.8224 C   0  0  0  0  0  0
  -21.3658   -5.6798   24.9187 C   0  0  0  0  0  0
  -21.6049   -4.3060   24.7238 C   0  0  0  0  0  0
  -21.8812   -3.8151   23.4357 C   0  0  0  0  0  0
  -21.9192   -4.6964   22.3413 C   0  0  0  0  0  0
  -22.7822  -13.5209   21.1871 C   0  0  0  0  0  0
  -22.1660   -4.2154   21.0987 F   0  0  0  0  0  0
  -21.5634   -3.4535   25.7747 F   0  0  0  0  0  0
  -29.9861  -13.5116   20.3939 N   0  0  0  0  0  0
  -26.2928  -12.9409   20.3266 N   0  0  0  0  0  0
  -25.9322  -11.6549   20.5736 N   0  0  0  0  0  0
  -22.0474  -12.8197   22.0424 N   0  0  0  0  0  0
  -25.4157  -15.1922   20.4071 N   0  0  0  0  0  0
  -31.8076  -14.8217   20.1744 O   0  0  0  0  0  0
  -21.6643   -6.8875   21.4250 O   0  0  0  0  0  0
  -22.3494  -14.5514   20.6713 O   0  0  0  0  0  0
  -24.6315  -31.8538   23.1952 C   0  0  0  0  0  0
  -25.9134  -32.4755   23.8306 C   0  0  1  0  0  0
  -27.2287  -27.2612   20.1419 C   0  0  0  0  0  0
  -25.5939  -33.8555   24.2243 N   0  0  0  0  0  0
  -23.4291  -30.4712   21.5394 C   0  0  2  0  0  0
  -24.8790  -28.9083   20.1172 C   0  0  0  0  0  0
  -22.7498  -29.4577   22.4918 C   0  0  0  0  0  0
  -18.0293  -28.1377   22.8474 C   0  0  0  0  0  0
  -24.1498  -36.7275   23.2638 C   0  0  0  0  0  0
  -25.9726  -30.7677   21.3723 C   0  0  0  0  0  0
  -26.0492  -29.3862   20.7216 C   0  0  0  0  0  0
  -27.2298  -28.5767   20.7163 C   0  0  0  0  0  0
  -26.0371  -26.8408   19.5176 C   0  0  0  0  0  0
  -24.8772  -27.6437   19.5044 C   0  0  0  0  0  0
  -23.6486  -29.7954   20.1592 C   0  0  0  0  0  0
  -25.4130  -36.3070   24.0322 C   0  0  1  0  0  0
  -20.5895  -28.3681   23.1277 C   0  0  2  0  0  0
  -20.6776  -26.9398   22.5411 C   0  0  0  0  0  0
  -19.5758  -26.6371   21.5208 C   0  0  0  0  0  0
  -18.1939  -26.7920   22.1614 C   0  0  0  0  0  0
  -19.1545  -28.8847   23.2870 C   0  0  0  0  0  0
  -18.9463  -30.1452   23.8879 C   0  0  0  0  0  0
  -17.6460  -30.6579   24.0551 C   0  0  0  0  0  0
  -25.9065  -34.9440   23.5084 C   0  0  0  0  0  0
  -16.5352  -29.9068   23.6332 C   0  0  0  0  0  0
  -16.7278  -28.6489   23.0348 C   0  0  0  0  0  0
  -26.4508  -31.6573   25.0691 C   0  0  0  0  0  0
  -25.3734  -31.3693   26.1406 C   0  0  0  0  0  0
  -27.0353  -30.3002   24.6146 C   0  0  0  0  0  0
  -27.6080  -32.4289   25.7468 C   0  0  0  0  0  0
  -27.5587  -37.1795   24.8465 C   0  0  0  0  0  0
  -21.4208  -29.3024   22.3661 N   0  0  0  0  0  0
  -26.4302  -37.3769   23.9402 N   0  0  0  0  0  0
  -24.6966  -31.0491   22.0930 N   0  0  0  0  0  0
  -23.4192  -28.8132   23.3031 O   0  0  0  0  0  0
  -28.3401  -26.3923   20.1368 O   0  0  0  0  0  0
  -26.5625  -34.8916   22.4647 O   0  0  0  0  0  0
  -23.5464  -32.1355   23.7252 O   0  0  0  0  0  0
  -31.7791  -19.0248   21.4916 C   0  0  0  0  0  0
  -30.9240  -20.0860   21.1258 C   0  0  0  0  0  0
  -31.4139  -17.6752   21.3042 C   0  0  0  0  0  0
  -29.2982  -18.4344   20.3830 C   0  0  0  0  0  0
  -29.6543  -19.8424   20.5589 C   0  0  0  0  0  0
  -30.1678  -17.3164   20.7420 C   0  0  0  0  0  0
  -28.8016  -21.0522   20.0523 C   0  0  0  0  0  0
  -28.6137  -23.6754   19.8142 C   0  0  0  0  0  0
  -28.2221  -24.9919   20.6795 C   0  0  0  0  0  0
  -29.8175  -15.8731   20.6119 N   0  0  0  0  0  0
  -29.0181  -22.3527   20.4874 N   0  0  0  0  0  0
  -27.9350  -20.8296   19.2054 O   0  0  0  0  0  0
  -31.4735  -12.5690   19.1619 H   0  0  0  0  0  0
  -30.3648  -11.4709   19.9378 H   0  0  0  0  0  0
  -29.7881  -11.7484   17.4993 H   0  0  0  0  0  0
  -29.6415  -13.4735   17.7201 H   0  0  0  0  0  0
  -27.8719  -11.2961   18.8783 H   0  0  0  0  0  0
  -27.3838  -12.5621   17.7867 H   0  0  0  0  0  0
  -27.6343  -14.2572   19.4763 H   0  0  0  0  0  0
  -28.7234  -12.1530   21.4088 H   0  0  0  0  0  0
  -28.4304  -13.8300   21.7973 H   0  0  0  0  0  0
  -25.2778   -9.5679   22.4754 H   0  0  0  0  0  0
  -24.0027   -7.4621   22.7469 H   0  0  0  0  0  0
  -21.0851   -8.8759   19.8945 H   0  0  0  0  0  0
  -22.3709  -10.9664   19.6167 H   0  0  0  0  0  0
  -21.1989   -7.6152   23.9724 H   0  0  0  0  0  0
  -21.1498   -6.0534   25.9092 H   0  0  0  0  0  0
  -22.0594   -2.7611   23.2865 H   0  0  0  0  0  0
  -22.4094  -11.9875   22.4840 H   0  0  0  0  0  0
  -21.1078  -13.1208   22.2609 H   0  0  0  0  0  0
  -24.6384  -15.8380   20.4950 H   0  0  0  0  0  0
  -26.2490  -15.6312   20.0384 H   0  0  0  0  0  0
  -26.7189  -32.5406   23.1038 H   0  0  0  0  0  0
  -25.0109  -33.9690   25.0405 H   0  0  0  0  0  0
  -22.7261  -31.2934   21.3884 H   0  0  0  0  0  0
  -23.3772  -35.9594   23.3299 H   0  0  0  0  0  0
  -24.3585  -36.8899   22.2052 H   0  0  0  0  0  0
  -23.7236  -37.6470   23.6662 H   0  0  0  0  0  0
  -26.1057  -31.5241   20.5978 H   0  0  0  0  0  0
  -26.8520  -30.8228   22.0025 H   0  0  0  0  0  0
  -28.1319  -28.9413   21.1874 H   0  0  0  0  0  0
  -26.0012  -25.8700   19.0429 H   0  0  0  0  0  0
  -23.9804  -27.2713   19.0285 H   0  0  0  0  0  0
  -23.7736  -30.5666   19.3978 H   0  0  0  0  0  0
  -22.7672  -29.2260   19.8576 H   0  0  0  0  0  0
  -25.1319  -36.1918   25.0813 H   0  0  0  0  0  0
  -20.9990  -28.3253   24.1398 H   0  0  0  0  0  0
  -20.5676  -26.2283   23.3604 H   0  0  0  0  0  0
  -21.6645  -26.7416   22.1213 H   0  0  0  0  0  0
  -19.6923  -25.6281   21.1239 H   0  0  0  0  0  0
  -19.6719  -27.3175   20.6734 H   0  0  0  0  0  0
  -17.4214  -26.6663   21.4011 H   0  0  0  0  0  0
  -18.0344  -26.0066   22.9016 H   0  0  0  0  0  0
  -19.7936  -30.7273   24.2245 H   0  0  0  0  0  0
  -17.5010  -31.6268   24.5136 H   0  0  0  0  0  0
  -15.5347  -30.2953   23.7676 H   0  0  0  0  0  0
  -15.8682  -28.0803   22.7063 H   0  0  0  0  0  0
  -24.5932  -30.7032   25.7706 H   0  0  0  0  0  0
  -24.8901  -32.2843   26.4835 H   0  0  0  0  0  0
  -25.8059  -30.8859   27.0173 H   0  0  0  0  0  0
  -26.2914  -29.6746   24.1204 H   0  0  0  0  0  0
  -27.4087  -29.7277   25.4641 H   0  0  0  0  0  0
  -27.8767  -30.4297   23.9341 H   0  0  0  0  0  0
  -27.2724  -33.3599   26.2043 H   0  0  0  0  0  0
  -28.3902  -32.6818   25.0302 H   0  0  0  0  0  0
  -28.0726  -31.8398   26.5381 H   0  0  0  0  0  0
  -28.2605  -38.0097   24.7528 H   0  0  0  0  0  0
  -28.1088  -36.2626   24.6286 H   0  0  0  0  0  0
  -27.2295  -37.1434   25.8866 H   0  0  0  0  0  0
  -20.9392  -29.8734   21.6857 H   0  0  0  0  0  0
  -26.0185  -38.2843   24.1411 H   0  0  0  0  0  0
  -32.7464  -19.2518   21.9194 H   0  0  0  0  0  0
  -31.2726  -21.1003   21.2636 H   0  0  0  0  0  0
  -32.1187  -16.9140   21.6116 H   0  0  0  0  0  0
  -28.3384  -18.2134   19.9354 H   0  0  0  0  0  0
  -29.4737  -23.9441   19.1997 H   0  0  0  0  0  0
  -27.8079  -23.4825   19.1046 H   0  0  0  0  0  0
  -28.8750  -24.9913   21.5525 H   0  0  0  0  0  0
  -27.2218  -24.8475   21.0893 H   0  0  0  0  0  0
  -28.8304  -15.6720   20.6284 H   0  0  0  0  0  0
  -29.6825  -22.4432   21.2434 H   0  0  0  0  0  0
  1 25  1  0  0  0
  1 30  2  0  0  0
  1 80  1  0  0  0
  2  3  1  0  0  0
  2 25  1  0  0  0
  2 83  1  0  0  0
  2 84  1  0  0  0
  3  4  1  0  0  0
  3 85  1  0  0  0
  3 86  1  0  0  0
  4  5  1  0  0  0
  4 87  1  0  0  0
  4 88  1  0  0  0
  5  6  1  0  0  0
  5 26  1  0  0  0
  5 89  1  0  0  0
  6 25  1  0  0  0
  6 90  1  0  0  0
  6 91  1  0  0  0
  7  8  2  0  0  0
  7 26  1  0  0  0
  7 29  1  0  0  0
  8  9  1  0  0  0
  8 22  1  0  0  0
  9 10  1  0  0  0
  9 27  2  0  0  0
 10 11  2  0  0  0
 10 15  1  0  0  0
 11 12  1  0  0  0
 11 92  1  0  0  0
 12 13  2  0  0  0
 12 93  1  0  0  0
 13 14  1  0  0  0
 13 31  1  0  0  0
 14 15  2  0  0  0
 14 94  1  0  0  0
 15 95  1  0  0  0
 16 17  2  0  0  0
 16 21  1  0  0  0
 16 31  1  0  0  0
 17 18  1  0  0  0
 17 96  1  0  0  0
 18 19  2  0  0  0
 18 97  1  0  0  0
 19 20  1  0  0  0
 19 24  1  0  0  0
 20 21  2  0  0  0
 20 98  1  0  0  0
 21 23  1  0  0  0
 22 28  1  0  0  0
 22 32  2  0  0  0
 26 27  1  0  0  0
 28 99  1  0  0  0
 28100  1  0  0  0
 29101  1  0  0  0
 29102  1  0  0  0
 33 34  1  0  0  0
 33 66  1  0  0  0
 33 70  2  0  0  0
 34 36  1  0  0  0
 34 59  1  0  0  0
 34103  1  0  0  0
 35 44  2  0  0  0
 35 45  1  0  0  0
 35 68  1  0  0  0
 36 56  1  0  0  0
 36104  1  0  0  0
 37 39  1  0  0  0
 37 47  1  0  0  0
 37 66  1  0  0  0
 37105  1  0  0  0
 38 43  2  0  0  0
 38 46  1  0  0  0
 38 47  1  0  0  0
 39 64  1  0  0  0
 39 67  2  0  0  0
 40 52  1  0  0  0
 40 53  2  0  0  0
 40 58  1  0  0  0
 41106  1  0  0  0
 41107  1  0  0  0
 41108  1  0  0  0
 41 48  1  0  0  0
 42 43  1  0  0  0
 42 66  1  0  0  0
 42109  1  0  0  0
 42110  1  0  0  0
 43 44  1  0  0  0
 44111  1  0  0  0
 45 46  2  0  0  0
 45112  1  0  0  0
 46113  1  0  0  0
 47114  1  0  0  0
 47115  1  0  0  0
 48 56  1  0  0  0
 48 65  1  0  0  0
 48116  1  0  0  0
 49 50  1  0  0  0
 49 53  1  0  0  0
 49 64  1  0  0  0
 49117  1  0  0  0
 50 51  1  0  0  0
 50118  1  0  0  0
 50119  1  0  0  0
 51 52  1  0  0  0
 51120  1  0  0  0
 51121  1  0  0  0
 52122  1  0  0  0
 52123  1  0  0  0
 53 54  1  0  0  0
 54 55  2  0  0  0
 54124  1  0  0  0
 55 57  1  0  0  0
 55125  1  0  0  0
 56 69  2  0  0  0
 57 58  2  0  0  0
 57126  1  0  0  0
 58127  1  0  0  0
 59 60  1  0  0  0
 59 61  1  0  0  0
 59 62  1  0  0  0
 60128  1  0  0  0
 60129  1  0  0  0
 60130  1  0  0  0
 61131  1  0  0  0
 61132  1  0  0  0
 61133  1  0  0  0
 62134  1  0  0  0
 62135  1  0  0  0
 62136  1  0  0  0
 63 65  1  0  0  0
 63137  1  0  0  0
 63138  1  0  0  0
 63139  1  0  0  0
 64140  1  0  0  0
 65141  1  0  0  0
 68 79  1  0  0  0
 71 72  2  0  0  0
 71 73  1  0  0  0
 71142  1  0  0  0
 72 75  1  0  0  0
 72143  1  0  0  0
 73 76  2  0  0  0
 73144  1  0  0  0
 74 75  2  0  0  0
 74 76  1  0  0  0
 74145  1  0  0  0
 75 77  1  0  0  0
 76 80  1  0  0  0
 77 81  1  0  0  0
 77 82  2  0  0  0
 78 79  1  0  0  0
 78 81  1  0  0  0
 78146  1  0  0  0
 78147  1  0  0  0
 79148  1  0  0  0
 79149  1  0  0  0
 80150  1  0  0  0
 81151  1  0  0  0
M  ISO  4   1 100  68 101  79 101  80 100
M  END
> <chiral flag>
0

> <version>
0

> <s_m_source_file>
/data/baiqing/PycharmProjects/Reinvent-master-3.2/result/LINK_invent/BTK/process_docking_weight1_custom_product_contain_oxygen_bond_distance_aromatic_linkinvent_7_9_3/rearranged_h_0002.sdf

> <i_m_source_file_index>
23

> <r_mmod_Potential_Energy-OPLS-2005>
78.586296081543

> <r_mmod_Stretch_Energy-OPLS-2005>
125.418853759766

> <r_mmod_Bend_Energy-OPLS-2005>
158.979034423828

> <r_mmod_Torsional_Energy-OPLS-2005>
249.130096435547

> <r_mmod_Improper_Torsional_Energy-OPLS-2005>
6.98363304138184

> <r_mmod_Van_der_Waal_Energy-OPLS-2005>
135.837265014648

> <r_mmod_Electrostatic_Energy-OPLS-2005>
-442.598510742188

> <r_mmod_Solvation_Energy-OPLS-2005>
-235.281036376953

> <b_mmod_Minimization_Converged-OPLS-2005>
0

> <r_mmod_RMS_Derivative-OPLS-2005>
1.91622853279114

$$$$
23
                    3D
 Structure written by MMmdl.
146154  0  0  1  0            999 V2000
  -30.4831  -15.1826   20.3850 C   0  0  0  0  0  0
  -30.4364  -12.7514   19.5216 C   0  0  0  0  0  0
  -29.5297  -12.5600   18.2811 C   0  0  0  0  0  0
  -28.0767  -12.2956   18.7113 C   0  0  0  0  0  0
  -27.6147  -13.2687   19.8250 C   0  0  2  0  0  0
  -28.6507  -13.4188   20.9601 C   0  0  0  0  0  0
  -25.2399  -13.8238   20.5739 C   0  0  0  0  0  0
  -24.1746  -13.0434   20.9251 C   0  0  0  0  0  0
  -24.6394  -11.6928   20.8760 C   0  0  0  0  0  0
  -23.9088  -10.4287   21.0403 C   0  0  0  0  0  0
  -24.3634   -9.4200   21.9179 C   0  0  0  0  0  0
  -23.6301   -8.2238   22.0753 C   0  0  0  0  0  0
  -22.4283   -8.0276   21.3543 C   0  0  0  0  0  0
  -21.9920   -9.0252   20.4646 C   0  0  0  0  0  0
  -22.7258  -10.2127   20.3053 C   0  0  0  0  0  0
  -21.6855   -6.0733   22.5279 C   0  0  0  0  0  0
  -21.4019   -6.5641   23.8211 C   0  0  0  0  0  0
  -21.3660   -5.6795   24.9174 C   0  0  0  0  0  0
  -21.6041   -4.3057   24.7227 C   0  0  0  0  0  0
  -21.8817   -3.8147   23.4351 C   0  0  0  0  0  0
  -21.9192   -4.6960   22.3405 C   0  0  0  0  0  0
  -22.7762  -13.5180   21.1906 C   0  0  0  0  0  0
  -22.1659   -4.2145   21.0982 F   0  0  0  0  0  0
  -21.5626   -3.4543   25.7743 F   0  0  0  0  0  0
  -29.8955  -13.8944   20.3383 N   0  0  0  0  0  0
  -26.2827  -12.9506   20.3225 N   0  0  0  0  0  0
  -25.9330  -11.6617   20.5729 N   0  0  0  0  0  0
  -22.0434  -12.8156   22.0468 N   0  0  0  0  0  0
  -25.4030  -15.1972   20.4166 N   0  0  0  0  0  0
  -31.7004  -15.1794   20.1598 O   0  0  0  0  0  0
  -21.6644   -6.8877   21.4241 O   0  0  0  0  0  0
  -22.3433  -14.5479   20.6748 O   0  0  0  0  0  0
  -24.6595  -31.8293   23.1777 C   0  0  0  0  0  0
  -25.9302  -32.4617   23.8213 C   0  0  1  0  0  0
  -27.2077  -26.9694   20.1758 C   0  0  0  0  0  0
  -25.5986  -33.8431   24.2113 N   0  0  0  0  0  0
  -23.4718  -30.4468   21.5253 C   0  0  2  0  0  0
  -24.9249  -28.8501   20.1105 C   0  0  0  0  0  0
  -22.7648  -29.4474   22.4783 C   0  0  0  0  0  0
  -18.0318  -28.1413   22.8465 C   0  0  0  0  0  0
  -24.1486  -36.7224   23.2643 C   0  0  0  0  0  0
  -26.0405  -30.6471   21.4069 C   0  0  0  0  0  0
  -26.1074  -29.2417   20.7523 C   0  0  0  0  0  0
  -27.2449  -28.3188   20.7727 C   0  0  0  0  0  0
  -26.0065  -26.7420   19.4635 C   0  0  0  0  0  0
  -24.8962  -27.6167   19.4480 C   0  0  0  0  0  0
  -23.7112  -29.7741   20.1476 C   0  0  0  0  0  0
  -25.4121  -36.2980   24.0305 C   0  0  1  0  0  0
  -20.5943  -28.3754   23.1181 C   0  0  2  0  0  0
  -20.6794  -26.9437   22.5389 C   0  0  0  0  0  0
  -19.5765  -26.6380   21.5204 C   0  0  0  0  0  0
  -18.1947  -26.7947   22.1616 C   0  0  0  0  0  0
  -19.1583  -28.8901   23.2815 C   0  0  0  0  0  0
  -18.9501  -30.1489   23.8855 C   0  0  0  0  0  0
  -17.6499  -30.6604   24.0558 C   0  0  0  0  0  0
  -25.9091  -34.9365   23.5020 C   0  0  0  0  0  0
  -16.5386  -29.9097   23.6343 C   0  0  0  0  0  0
  -16.7303  -28.6515   23.0364 C   0  0  0  0  0  0
  -26.4565  -31.6552   25.0727 C   0  0  0  0  0  0
  -25.3701  -31.3798   26.1389 C   0  0  0  0  0  0
  -27.0468  -30.2922   24.6447 C   0  0  0  0  0  0
  -27.6053  -32.4368   25.7529 C   0  0  0  0  0  0
  -27.5574  -37.1748   24.8452 C   0  0  0  0  0  0
  -21.4321  -29.3063   22.3539 N   0  0  0  0  0  0
  -26.4261  -37.3721   23.9429 N   0  0  0  0  0  0
  -24.7447  -31.0001   22.0898 N   0  0  0  0  0  0
  -23.4217  -28.8013   23.2985 O   0  0  0  0  0  0
  -28.1630  -25.8308   20.2346 O   0  0  0  0  0  0
  -26.5689  -34.8894   22.4608 O   0  0  0  0  0  0
  -23.5675  -32.1244   23.6895 O   0  0  0  0  0  0
  -29.8014  -22.2551   20.1126 C   0  0  0  0  0  0
  -27.7067  -21.5018   20.6766 C   0  0  0  0  0  0
  -30.2544  -20.8368   20.1021 C   0  0  0  0  0  0
  -28.1551  -20.0870   20.6661 C   0  0  0  0  0  0
  -28.4622  -22.7321   20.4052 C   0  0  0  0  0  0
  -29.4901  -19.6151   20.3732 C   0  0  0  0  0  0
  -27.7066  -24.2627   20.4893 C   0  0  0  0  0  0
  -30.2005  -18.0291   20.3499 C   0  0  0  0  0  0
  -29.7497  -16.4539   20.4780 N   0  0  0  0  0  0
  -26.5263  -24.1554   20.8318 O   0  0  0  0  0  0
  -31.4609  -12.9350   19.1951 H   0  0  0  0  0  0
  -30.4786  -11.8370   20.1154 H   0  0  0  0  0  0
  -29.8952  -11.7377   17.6646 H   0  0  0  0  0  0
  -29.5696  -13.4545   17.6572 H   0  0  0  0  0  0
  -28.0282  -11.2707   19.0814 H   0  0  0  0  0  0
  -27.4057  -12.3428   17.8529 H   0  0  0  0  0  0
  -27.5392  -14.2404   19.3359 H   0  0  0  0  0  0
  -28.7975  -12.4799   21.4962 H   0  0  0  0  0  0
  -28.3053  -14.1472   21.6952 H   0  0  0  0  0  0
  -25.2779   -9.5672   22.4755 H   0  0  0  0  0  0
  -24.0006   -7.4631   22.7476 H   0  0  0  0  0  0
  -21.0849   -8.8773   19.8955 H   0  0  0  0  0  0
  -22.3713  -10.9664   19.6163 H   0  0  0  0  0  0
  -21.2018   -7.6150   23.9711 H   0  0  0  0  0  0
  -21.1482   -6.0531   25.9075 H   0  0  0  0  0  0
  -22.0595   -2.7608   23.2856 H   0  0  0  0  0  0
  -22.4085  -11.9828   22.4847 H   0  0  0  0  0  0
  -21.1045  -13.1146   22.2691 H   0  0  0  0  0  0
  -24.6299  -15.8451   20.5245 H   0  0  0  0  0  0
  -26.2422  -15.6392   20.0654 H   0  0  0  0  0  0
  -26.7370  -32.5169   23.0930 H   0  0  0  0  0  0
  -25.0111  -33.9521   25.0246 H   0  0  0  0  0  0
  -22.7829  -31.2782   21.3607 H   0  0  0  0  0  0
  -23.3765  -35.9534   23.3243 H   0  0  0  0  0  0
  -24.3568  -36.8932   22.2068 H   0  0  0  0  0  0
  -23.7225  -37.6390   23.6735 H   0  0  0  0  0  0
  -26.2190  -31.3894   20.6279 H   0  0  0  0  0  0
  -26.9023  -30.7017   22.0598 H   0  0  0  0  0  0
  -28.1357  -28.6103   21.3110 H   0  0  0  0  0  0
  -25.8847  -25.8058   18.9382 H   0  0  0  0  0  0
  -24.0019  -27.3133   18.9212 H   0  0  0  0  0  0
  -23.8695  -30.5487   19.3959 H   0  0  0  0  0  0
  -22.8201  -29.2331   19.8245 H   0  0  0  0  0  0
  -25.1307  -36.1767   25.0793 H   0  0  0  0  0  0
  -21.0042  -28.3363   24.1302 H   0  0  0  0  0  0
  -20.5658  -26.2381   23.3630 H   0  0  0  0  0  0
  -21.6658  -26.7400   22.1206 H   0  0  0  0  0  0
  -19.6919  -25.6273   21.1276 H   0  0  0  0  0  0
  -19.6706  -27.3154   20.6703 H   0  0  0  0  0  0
  -17.4210  -26.6690   21.4025 H   0  0  0  0  0  0
  -18.0346  -26.0099   22.9020 H   0  0  0  0  0  0
  -19.7980  -30.7311   24.2210 H   0  0  0  0  0  0
  -17.5057  -31.6281   24.5169 H   0  0  0  0  0  0
  -15.5390  -30.2997   23.7689 H   0  0  0  0  0  0
  -15.8698  -28.0824   22.7111 H   0  0  0  0  0  0
  -24.5880  -30.7149   25.7705 H   0  0  0  0  0  0
  -24.8894  -32.3003   26.4712 H   0  0  0  0  0  0
  -25.7937  -30.9029   27.0235 H   0  0  0  0  0  0
  -26.3137  -29.6598   24.1430 H   0  0  0  0  0  0
  -27.3987  -29.7284   25.5098 H   0  0  0  0  0  0
  -27.9078  -30.4113   23.9868 H   0  0  0  0  0  0
  -27.2610  -33.3706   26.1989 H   0  0  0  0  0  0
  -28.3927  -32.6883   25.0410 H   0  0  0  0  0  0
  -28.0655  -31.8584   26.5550 H   0  0  0  0  0  0
  -28.2521  -38.0113   24.7577 H   0  0  0  0  0  0
  -28.1140  -36.2646   24.6167 H   0  0  0  0  0  0
  -27.2306  -37.1253   25.8854 H   0  0  0  0  0  0
  -20.9554  -29.8806   21.6725 H   0  0  0  0  0  0
  -26.0105  -38.2761   24.1505 H   0  0  0  0  0  0
  -30.5420  -23.0092   19.8868 H   0  0  0  0  0  0
  -26.6633  -21.6376   20.9266 H   0  0  0  0  0  0
  -31.2993  -20.6883   19.8657 H   0  0  0  0  0  0
  -27.4154  -19.3357   20.9072 H   0  0  0  0  0  0
  -30.9792  -18.1106   21.1092 H   0  0  0  0  0  0
  -30.7611  -18.0352   19.4144 H   0  0  0  0  0  0
  -28.7586  -16.3279   20.6208 H   0  0  0  0  0  0
  1 25  1  0  0  0
  1 30  2  0  0  0
  1 79  1  0  0  0
  2  3  1  0  0  0
  2 25  1  0  0  0
  2 81  1  0  0  0
  2 82  1  0  0  0
  3  4  1  0  0  0
  3 83  1  0  0  0
  3 84  1  0  0  0
  4  5  1  0  0  0
  4 85  1  0  0  0
  4 86  1  0  0  0
  5  6  1  0  0  0
  5 26  1  0  0  0
  5 87  1  0  0  0
  6 25  1  0  0  0
  6 88  1  0  0  0
  6 89  1  0  0  0
  7  8  2  0  0  0
  7 26  1  0  0  0
  7 29  1  0  0  0
  8  9  1  0  0  0
  8 22  1  0  0  0
  9 10  1  0  0  0
  9 27  2  0  0  0
 10 11  2  0  0  0
 10 15  1  0  0  0
 11 12  1  0  0  0
 11 90  1  0  0  0
 12 13  2  0  0  0
 12 91  1  0  0  0
 13 14  1  0  0  0
 13 31  1  0  0  0
 14 15  2  0  0  0
 14 92  1  0  0  0
 15 93  1  0  0  0
 16 17  2  0  0  0
 16 21  1  0  0  0
 16 31  1  0  0  0
 17 18  1  0  0  0
 17 94  1  0  0  0
 18 19  2  0  0  0
 18 95  1  0  0  0
 19 20  1  0  0  0
 19 24  1  0  0  0
 20 21  2  0  0  0
 20 96  1  0  0  0
 21 23  1  0  0  0
 22 28  1  0  0  0
 22 32  2  0  0  0
 26 27  1  0  0  0
 28 97  1  0  0  0
 28 98  1  0  0  0
 29 99  1  0  0  0
 29100  1  0  0  0
 33 34  1  0  0  0
 33 66  1  0  0  0
 33 70  2  0  0  0
 34 36  1  0  0  0
 34 59  1  0  0  0
 34101  1  0  0  0
 35 44  2  0  0  0
 35 45  1  0  0  0
 35 68  1  0  0  0
 36 56  1  0  0  0
 36102  1  0  0  0
 37 39  1  0  0  0
 37 47  1  0  0  0
 37 66  1  0  0  0
 37103  1  0  0  0
 38 43  2  0  0  0
 38 46  1  0  0  0
 38 47  1  0  0  0
 39 64  1  0  0  0
 39 67  2  0  0  0
 40 52  1  0  0  0
 40 53  2  0  0  0
 40 58  1  0  0  0
 41104  1  0  0  0
 41105  1  0  0  0
 41106  1  0  0  0
 41 48  1  0  0  0
 42 43  1  0  0  0
 42 66  1  0  0  0
 42107  1  0  0  0
 42108  1  0  0  0
 43 44  1  0  0  0
 44109  1  0  0  0
 45 46  2  0  0  0
 45110  1  0  0  0
 46111  1  0  0  0
 47112  1  0  0  0
 47113  1  0  0  0
 48 56  1  0  0  0
 48 65  1  0  0  0
 48114  1  0  0  0
 49 50  1  0  0  0
 49 53  1  0  0  0
 49 64  1  0  0  0
 49115  1  0  0  0
 50 51  1  0  0  0
 50116  1  0  0  0
 50117  1  0  0  0
 51 52  1  0  0  0
 51118  1  0  0  0
 51119  1  0  0  0
 52120  1  0  0  0
 52121  1  0  0  0
 53 54  1  0  0  0
 54 55  2  0  0  0
 54122  1  0  0  0
 55 57  1  0  0  0
 55123  1  0  0  0
 56 69  2  0  0  0
 57 58  2  0  0  0
 57124  1  0  0  0
 58125  1  0  0  0
 59 60  1  0  0  0
 59 61  1  0  0  0
 59 62  1  0  0  0
 60126  1  0  0  0
 60127  1  0  0  0
 60128  1  0  0  0
 61129  1  0  0  0
 61130  1  0  0  0
 61131  1  0  0  0
 62132  1  0  0  0
 62133  1  0  0  0
 62134  1  0  0  0
 63 65  1  0  0  0
 63135  1  0  0  0
 63136  1  0  0  0
 63137  1  0  0  0
 64138  1  0  0  0
 65139  1  0  0  0
 68 77  1  0  0  0
 71 73  2  0  0  0
 71 75  1  0  0  0
 71140  1  0  0  0
 72 74  1  0  0  0
 72 75  2  0  0  0
 72141  1  0  0  0
 73 76  1  0  0  0
 73142  1  0  0  0
 74 76  2  0  0  0
 74143  1  0  0  0
 75 77  1  0  0  0
 76 78  1  0  0  0
 77 80  2  0  0  0
 78 79  1  0  0  0
 78144  1  0  0  0
 78145  1  0  0  0
 79146  1  0  0  0
M  ISO  4   1 100  68 101  77 101  79 100
M  END
> <chiral flag>
0

> <version>
0

> <s_m_source_file>
/data/baiqing/PycharmProjects/Reinvent-master-3.2/result/LINK_invent/BTK/process_docking_weight1_custom_product_contain_oxygen_bond_distance_aromatic_linkinvent_7_9_3/rearranged_h_0002.sdf

> <i_m_source_file_index>
24

> <r_mmod_Potential_Energy-OPLS-2005>
1085.07116699219

> <r_mmod_Stretch_Energy-OPLS-2005>
486.674896240234

> <r_mmod_Bend_Energy-OPLS-2005>
437.386505126953

> <r_mmod_Torsional_Energy-OPLS-2005>
199.433502197266

> <r_mmod_Improper_Torsional_Energy-OPLS-2005>
4.08563709259033

> <r_mmod_Van_der_Waal_Energy-OPLS-2005>
136.574249267578

> <r_mmod_Electrostatic_Energy-OPLS-2005>
-357.084655761719

> <r_mmod_Solvation_Energy-OPLS-2005>
-217.116302490234

> <b_mmod_Minimization_Converged-OPLS-2005>
0

> <r_mmod_RMS_Derivative-OPLS-2005>
0.776556968688965

$$$$
24
                    3D
 Structure written by MMmdl.
146154  0  0  1  0            999 V2000
  -30.4478  -15.3223   20.3537 C   0  0  0  0  0  0
  -30.4356  -12.8206   19.5406 C   0  0  0  0  0  0
  -29.5415  -12.5677   18.2995 C   0  0  0  0  0  0
  -28.0840  -12.2968   18.7147 C   0  0  0  0  0  0
  -27.5946  -13.2873   19.8016 C   0  0  2  0  0  0
  -28.6071  -13.4980   20.9394 C   0  0  0  0  0  0
  -25.2319  -13.8293   20.5724 C   0  0  0  0  0  0
  -24.1690  -13.0466   20.9247 C   0  0  0  0  0  0
  -24.6345  -11.6957   20.8721 C   0  0  0  0  0  0
  -23.9057  -10.4307   21.0383 C   0  0  0  0  0  0
  -24.3623   -9.4219   21.9147 C   0  0  0  0  0  0
  -23.6304   -8.2255   22.0736 C   0  0  0  0  0  0
  -22.4285   -8.0279   21.3536 C   0  0  0  0  0  0
  -21.9903   -9.0252   20.4645 C   0  0  0  0  0  0
  -22.7229  -10.2131   20.3034 C   0  0  0  0  0  0
  -21.6866   -6.0722   22.5284 C   0  0  0  0  0  0
  -21.4027   -6.5625   23.8219 C   0  0  0  0  0  0
  -21.3667   -5.6776   24.9175 C   0  0  0  0  0  0
  -21.6051   -4.3043   24.7234 C   0  0  0  0  0  0
  -21.8816   -3.8129   23.4358 C   0  0  0  0  0  0
  -21.9194   -4.6942   22.3408 C   0  0  0  0  0  0
  -22.7699  -13.5201   21.1909 C   0  0  0  0  0  0
  -22.1658   -4.2129   21.0986 F   0  0  0  0  0  0
  -21.5628   -3.4523   25.7743 F   0  0  0  0  0  0
  -29.8542  -13.9671   20.3268 N   0  0  0  0  0  0
  -26.2701  -12.9571   20.3066 N   0  0  0  0  0  0
  -25.9264  -11.6668   20.5618 N   0  0  0  0  0  0
  -22.0371  -12.8197   22.0488 N   0  0  0  0  0  0
  -25.3988  -15.2042   20.4251 N   0  0  0  0  0  0
  -31.6744  -15.3407   20.1919 O   0  0  0  0  0  0
  -21.6654   -6.8875   21.4250 O   0  0  0  0  0  0
  -22.3358  -14.5489   20.6734 O   0  0  0  0  0  0
  -24.6660  -31.8215   23.1685 C   0  0  0  0  0  0
  -25.9336  -32.4575   23.8169 C   0  0  1  0  0  0
  -27.2141  -26.8981   20.2101 C   0  0  0  0  0  0
  -25.5994  -33.8390   24.2075 N   0  0  0  0  0  0
  -23.4819  -30.4333   21.5174 C   0  0  2  0  0  0
  -24.9349  -28.8088   20.1242 C   0  0  0  0  0  0
  -22.7692  -29.4434   22.4763 C   0  0  0  0  0  0
  -18.0319  -28.1408   22.8472 C   0  0  0  0  0  0
  -24.1484  -36.7180   23.2649 C   0  0  0  0  0  0
  -26.0536  -30.6207   21.4043 C   0  0  0  0  0  0
  -26.1222  -29.2054   20.7543 C   0  0  0  0  0  0
  -27.2604  -28.2746   20.7644 C   0  0  0  0  0  0
  -25.9946  -26.6552   19.5391 C   0  0  0  0  0  0
  -24.8970  -27.5542   19.4961 C   0  0  0  0  0  0
  -23.7281  -29.7482   20.1447 C   0  0  0  0  0  0
  -25.4131  -36.2955   24.0307 C   0  0  1  0  0  0
  -20.5953  -28.3761   23.1169 C   0  0  2  0  0  0
  -20.6809  -26.9437   22.5403 C   0  0  0  0  0  0
  -19.5776  -26.6373   21.5228 C   0  0  0  0  0  0
  -18.1953  -26.7943   22.1626 C   0  0  0  0  0  0
  -19.1586  -28.8902   23.2812 C   0  0  0  0  0  0
  -18.9504  -30.1489   23.8861 C   0  0  0  0  0  0
  -17.6505  -30.6605   24.0553 C   0  0  0  0  0  0
  -25.9110  -34.9340   23.5008 C   0  0  0  0  0  0
  -16.5389  -29.9104   23.6338 C   0  0  0  0  0  0
  -16.7309  -28.6510   23.0377 C   0  0  0  0  0  0
  -26.4586  -31.6533   25.0704 C   0  0  0  0  0  0
  -25.3723  -31.3789   26.1370 C   0  0  0  0  0  0
  -27.0491  -30.2896   24.6458 C   0  0  0  0  0  0
  -27.6059  -32.4351   25.7523 C   0  0  0  0  0  0
  -27.5563  -37.1742   24.8468 C   0  0  0  0  0  0
  -21.4358  -29.3047   22.3518 N   0  0  0  0  0  0
  -26.4258  -37.3706   23.9426 N   0  0  0  0  0  0
  -24.7550  -30.9864   22.0832 N   0  0  0  0  0  0
  -23.4233  -28.8018   23.3022 O   0  0  0  0  0  0
  -28.2234  -25.7905   20.1998 O   0  0  0  0  0  0
  -26.5710  -34.8882   22.4599 O   0  0  0  0  0  0
  -23.5724  -32.1195   23.6754 O   0  0  0  0  0  0
  -29.0030  -21.2736   18.0251 C   0  0  0  0  0  0
  -28.6978  -22.5088   18.6671 C   0  0  0  0  0  0
  -29.2454  -20.0377   18.6898 C   0  0  0  0  0  0
  -28.8773  -21.2672   20.7278 C   0  0  0  0  0  0
  -28.5905  -22.6449   20.0673 C   0  0  0  0  0  0
  -29.2260  -19.8897   20.0945 C   0  0  0  0  0  0
  -28.0215  -24.2061   20.6597 C   0  0  0  0  0  0
  -29.8023  -18.3394   20.7152 C   0  0  0  0  0  0
  -29.5098  -16.7427   20.3806 O   0  0  0  0  0  0
  -31.4550  -13.0394   19.2173 H   0  0  0  0  0  0
  -30.5048  -11.9226   20.1581 H   0  0  0  0  0  0
  -29.9251  -11.7286   17.7178 H   0  0  0  0  0  0
  -29.5769  -13.4389   17.6433 H   0  0  0  0  0  0
  -28.0334  -11.2766   19.0964 H   0  0  0  0  0  0
  -27.4282  -12.3275   17.8435 H   0  0  0  0  0  0
  -27.5009  -14.2459   19.2882 H   0  0  0  0  0  0
  -28.7590  -12.5801   21.5099 H   0  0  0  0  0  0
  -28.2388  -14.2495   21.6405 H   0  0  0  0  0  0
  -25.2775   -9.5712   22.4695 H   0  0  0  0  0  0
  -24.0029   -7.4657   22.7450 H   0  0  0  0  0  0
  -21.0827   -8.8761   19.8968 H   0  0  0  0  0  0
  -22.3669  -10.9653   19.6139 H   0  0  0  0  0  0
  -21.2020   -7.6129   23.9728 H   0  0  0  0  0  0
  -21.1494   -6.0494   25.9087 H   0  0  0  0  0  0
  -22.0586   -2.7584   23.2858 H   0  0  0  0  0  0
  -22.4037  -11.9916   22.4948 H   0  0  0  0  0  0
  -21.0973  -13.1187   22.2688 H   0  0  0  0  0  0
  -24.6392  -15.8629   20.5601 H   0  0  0  0  0  0
  -26.2607  -15.6462   20.1296 H   0  0  0  0  0  0
  -26.7404  -32.5113   23.0885 H   0  0  0  0  0  0
  -25.0122  -33.9486   25.0211 H   0  0  0  0  0  0
  -22.7970  -31.2650   21.3427 H   0  0  0  0  0  0
  -23.3773  -35.9478   23.3282 H   0  0  0  0  0  0
  -24.3557  -36.8858   22.2069 H   0  0  0  0  0  0
  -23.7220  -37.6344   23.6728 H   0  0  0  0  0  0
  -26.2417  -31.3589   20.6242 H   0  0  0  0  0  0
  -26.9099  -30.6756   22.0650 H   0  0  0  0  0  0
  -28.1653  -28.5812   21.2702 H   0  0  0  0  0  0
  -25.8647  -25.6954   19.0575 H   0  0  0  0  0  0
  -23.9938  -27.2426   18.9897 H   0  0  0  0  0  0
  -23.9084  -30.5178   19.3937 H   0  0  0  0  0  0
  -22.8350  -29.2180   19.8107 H   0  0  0  0  0  0
  -25.1331  -36.1734   25.0795 H   0  0  0  0  0  0
  -21.0032  -28.3379   24.1292 H   0  0  0  0  0  0
  -20.5695  -26.2392   23.3651 H   0  0  0  0  0  0
  -21.6676  -26.7430   22.1206 H   0  0  0  0  0  0
  -19.6949  -25.6272   21.1284 H   0  0  0  0  0  0
  -19.6715  -27.3157   20.6728 H   0  0  0  0  0  0
  -17.4232  -26.6679   21.4018 H   0  0  0  0  0  0
  -18.0348  -26.0100   22.9028 H   0  0  0  0  0  0
  -19.7991  -30.7292   24.2235 H   0  0  0  0  0  0
  -17.5067  -31.6284   24.5152 H   0  0  0  0  0  0
  -15.5388  -30.3000   23.7682 H   0  0  0  0  0  0
  -15.8704  -28.0807   22.7143 H   0  0  0  0  0  0
  -24.5886  -30.7170   25.7686 H   0  0  0  0  0  0
  -24.8954  -32.2993   26.4731 H   0  0  0  0  0  0
  -25.7964  -30.8991   27.0204 H   0  0  0  0  0  0
  -26.3169  -29.6552   24.1452 H   0  0  0  0  0  0
  -27.4002  -29.7284   25.5133 H   0  0  0  0  0  0
  -27.9125  -30.4077   23.9908 H   0  0  0  0  0  0
  -27.2607  -33.3681   26.1996 H   0  0  0  0  0  0
  -28.3934  -32.6872   25.0409 H   0  0  0  0  0  0
  -28.0665  -31.8560   26.5539 H   0  0  0  0  0  0
  -28.2553  -38.0062   24.7528 H   0  0  0  0  0  0
  -28.1074  -36.2588   24.6265 H   0  0  0  0  0  0
  -27.2279  -37.1356   25.8868 H   0  0  0  0  0  0
  -20.9612  -29.8743   21.6653 H   0  0  0  0  0  0
  -26.0095  -38.2747   24.1471 H   0  0  0  0  0  0
  -29.0609  -21.2777   16.9442 H   0  0  0  0  0  0
  -28.5137  -23.3806   18.0540 H   0  0  0  0  0  0
  -29.4966  -19.1741   18.0880 H   0  0  0  0  0  0
  -28.8330  -21.2714   21.8088 H   0  0  0  0  0  0
  -28.3482  -24.2117   21.6996 H   0  0  0  0  0  0
  -26.9403  -24.0839   20.7367 H   0  0  0  0  0  0
  -29.6532  -18.4104   21.7926 H   0  0  0  0  0  0
  -30.8806  -18.4234   20.5915 H   0  0  0  0  0  0
  1 25  1  0  0  0
  1 30  2  0  0  0
  1 79  1  0  0  0
  2  3  1  0  0  0
  2 25  1  0  0  0
  2 80  1  0  0  0
  2 81  1  0  0  0
  3  4  1  0  0  0
  3 82  1  0  0  0
  3 83  1  0  0  0
  4  5  1  0  0  0
  4 84  1  0  0  0
  4 85  1  0  0  0
  5  6  1  0  0  0
  5 26  1  0  0  0
  5 86  1  0  0  0
  6 25  1  0  0  0
  6 87  1  0  0  0
  6 88  1  0  0  0
  7  8  2  0  0  0
  7 26  1  0  0  0
  7 29  1  0  0  0
  8  9  1  0  0  0
  8 22  1  0  0  0
  9 10  1  0  0  0
  9 27  2  0  0  0
 10 11  2  0  0  0
 10 15  1  0  0  0
 11 12  1  0  0  0
 11 89  1  0  0  0
 12 13  2  0  0  0
 12 90  1  0  0  0
 13 14  1  0  0  0
 13 31  1  0  0  0
 14 15  2  0  0  0
 14 91  1  0  0  0
 15 92  1  0  0  0
 16 17  2  0  0  0
 16 21  1  0  0  0
 16 31  1  0  0  0
 17 18  1  0  0  0
 17 93  1  0  0  0
 18 19  2  0  0  0
 18 94  1  0  0  0
 19 20  1  0  0  0
 19 24  1  0  0  0
 20 21  2  0  0  0
 20 95  1  0  0  0
 21 23  1  0  0  0
 22 28  1  0  0  0
 22 32  2  0  0  0
 26 27  1  0  0  0
 28 96  1  0  0  0
 28 97  1  0  0  0
 29 98  1  0  0  0
 29 99  1  0  0  0
 33 34  1  0  0  0
 33 66  1  0  0  0
 33 70  2  0  0  0
 34 36  1  0  0  0
 34 59  1  0  0  0
 34100  1  0  0  0
 35 44  2  0  0  0
 35 45  1  0  0  0
 35 68  1  0  0  0
 36 56  1  0  0  0
 36101  1  0  0  0
 37 39  1  0  0  0
 37 47  1  0  0  0
 37 66  1  0  0  0
 37102  1  0  0  0
 38 43  2  0  0  0
 38 46  1  0  0  0
 38 47  1  0  0  0
 39 64  1  0  0  0
 39 67  2  0  0  0
 40 52  1  0  0  0
 40 53  2  0  0  0
 40 58  1  0  0  0
 41103  1  0  0  0
 41104  1  0  0  0
 41105  1  0  0  0
 41 48  1  0  0  0
 42 43  1  0  0  0
 42 66  1  0  0  0
 42106  1  0  0  0
 42107  1  0  0  0
 43 44  1  0  0  0
 44108  1  0  0  0
 45 46  2  0  0  0
 45109  1  0  0  0
 46110  1  0  0  0
 47111  1  0  0  0
 47112  1  0  0  0
 48 56  1  0  0  0
 48 65  1  0  0  0
 48113  1  0  0  0
 49 50  1  0  0  0
 49 53  1  0  0  0
 49 64  1  0  0  0
 49114  1  0  0  0
 50 51  1  0  0  0
 50115  1  0  0  0
 50116  1  0  0  0
 51 52  1  0  0  0
 51117  1  0  0  0
 51118  1  0  0  0
 52119  1  0  0  0
 52120  1  0  0  0
 53 54  1  0  0  0
 54 55  2  0  0  0
 54121  1  0  0  0
 55 57  1  0  0  0
 55122  1  0  0  0
 56 69  2  0  0  0
 57 58  2  0  0  0
 57123  1  0  0  0
 58124  1  0  0  0
 59 60  1  0  0  0
 59 61  1  0  0  0
 59 62  1  0  0  0
 60125  1  0  0  0
 60126  1  0  0  0
 60127  1  0  0  0
 61128  1  0  0  0
 61129  1  0  0  0
 61130  1  0  0  0
 62131  1  0  0  0
 62132  1  0  0  0
 62133  1  0  0  0
 63 65  1  0  0  0
 63134  1  0  0  0
 63135  1  0  0  0
 63136  1  0  0  0
 64137  1  0  0  0
 65138  1  0  0  0
 68 77  1  0  0  0
 71 72  2  0  0  0
 71 73  1  0  0  0
 71139  1  0  0  0
 72 75  1  0  0  0
 72140  1  0  0  0
 73 76  2  0  0  0
 73141  1  0  0  0
 74 75  2  0  0  0
 74 76  1  0  0  0
 74142  1  0  0  0
 75 77  1  0  0  0
 76 78  1  0  0  0
 77143  1  0  0  0
 77144  1  0  0  0
 78 79  1  0  0  0
 78145  1  0  0  0
 78146  1  0  0  0
M  ISO  4   1 100  68 101  77 101  79 100
M  END
> <chiral flag>
0

> <version>
0

> <s_m_source_file>
/data/baiqing/PycharmProjects/Reinvent-master-3.2/result/LINK_invent/BTK/process_docking_weight1_custom_product_contain_oxygen_bond_distance_aromatic_linkinvent_7_9_3/rearranged_h_0002.sdf

> <i_m_source_file_index>
25

> <r_mmod_Potential_Energy-OPLS-2005>
1461.71630859375

> <r_mmod_Stretch_Energy-OPLS-2005>
680.911560058594

> <r_mmod_Bend_Energy-OPLS-2005>
440.473419189453

> <r_mmod_Torsional_Energy-OPLS-2005>
218.821853637695

> <r_mmod_Improper_Torsional_Energy-OPLS-2005>
5.42132997512817

> <r_mmod_Van_der_Waal_Energy-OPLS-2005>
120.920166015625

> <r_mmod_Electrostatic_Energy-OPLS-2005>
-318.716125488281

> <r_mmod_Solvation_Energy-OPLS-2005>
-190.895690917969

> <b_mmod_Minimization_Converged-OPLS-2005>
0

> <r_mmod_RMS_Derivative-OPLS-2005>
2.66926240921021

$$$$
25
                    3D
 Structure written by MMmdl.
156164  0  0  1  0            999 V2000
  -30.6522  -14.7168   20.4067 C   0  0  0  0  0  0
  -30.4240  -12.4229   19.4781 C   0  0  0  0  0  0
  -29.5070  -12.4885   18.2375 C   0  0  0  0  0  0
  -28.0334  -12.3245   18.6533 C   0  0  0  0  0  0
  -27.6435  -13.2343   19.8488 C   0  0  2  0  0  0
  -28.6921  -13.1833   20.9837 C   0  0  0  0  0  0
  -25.2509  -13.8212   20.5716 C   0  0  0  0  0  0
  -24.1807  -13.0449   20.9216 C   0  0  0  0  0  0
  -24.6396  -11.6927   20.8748 C   0  0  0  0  0  0
  -23.9080  -10.4296   21.0391 C   0  0  0  0  0  0
  -24.3626   -9.4207   21.9167 C   0  0  0  0  0  0
  -23.6297   -8.2244   22.0737 C   0  0  0  0  0  0
  -22.4276   -8.0280   21.3533 C   0  0  0  0  0  0
  -21.9916   -9.0260   20.4636 C   0  0  0  0  0  0
  -22.7248  -10.2137   20.3044 C   0  0  0  0  0  0
  -21.6861   -6.0732   22.5272 C   0  0  0  0  0  0
  -21.4021   -6.5632   23.8204 C   0  0  0  0  0  0
  -21.3666   -5.6782   24.9167 C   0  0  0  0  0  0
  -21.6047   -4.3044   24.7217 C   0  0  0  0  0  0
  -21.8822   -3.8138   23.4335 C   0  0  0  0  0  0
  -21.9193   -4.6957   22.3395 C   0  0  0  0  0  0
  -22.7824  -13.5217   21.1877 C   0  0  0  0  0  0
  -22.1660   -4.2141   21.0971 F   0  0  0  0  0  0
  -21.5633   -3.4530   25.7731 F   0  0  0  0  0  0
  -30.0000  -13.5046   20.3965 N   0  0  0  0  0  0
  -26.2948  -12.9431   20.3304 N   0  0  0  0  0  0
  -25.9327  -11.6562   20.5778 N   0  0  0  0  0  0
  -22.0475  -12.8206   22.0436 N   0  0  0  0  0  0
  -25.4191  -15.1942   20.4138 N   0  0  0  0  0  0
  -31.8473  -14.7651   20.1040 O   0  0  0  0  0  0
  -21.6639   -6.8875   21.4232 O   0  0  0  0  0  0
  -22.3492  -14.5518   20.6710 O   0  0  0  0  0  0
  -24.6305  -31.8557   23.2007 C   0  0  0  0  0  0
  -25.9134  -32.4752   23.8349 C   0  0  1  0  0  0
  -27.2250  -27.2757   20.1209 C   0  0  0  0  0  0
  -25.5940  -33.8561   24.2267 N   0  0  0  0  0  0
  -23.4270  -30.4792   21.5419 C   0  0  2  0  0  0
  -24.8743  -28.9307   20.1083 C   0  0  0  0  0  0
  -22.7497  -29.4606   22.4909 C   0  0  0  0  0  0
  -18.0288  -28.1384   22.8479 C   0  0  0  0  0  0
  -24.1491  -36.7288   23.2646 C   0  0  0  0  0  0
  -25.9723  -30.7715   21.3808 C   0  0  0  0  0  0
  -26.0442  -29.3969   20.7196 C   0  0  0  0  0  0
  -27.2208  -28.5814   20.7162 C   0  0  0  0  0  0
  -26.0308  -26.8811   19.4712 C   0  0  0  0  0  0
  -24.8721  -27.6800   19.4748 C   0  0  0  0  0  0
  -23.6443  -29.8159   20.1565 C   0  0  0  0  0  0
  -25.4117  -36.3080   24.0331 C   0  0  1  0  0  0
  -20.5891  -28.3696   23.1272 C   0  0  2  0  0  0
  -20.6780  -26.9415   22.5410 C   0  0  0  0  0  0
  -19.5755  -26.6383   21.5212 C   0  0  0  0  0  0
  -18.1932  -26.7924   22.1620 C   0  0  0  0  0  0
  -19.1540  -28.8855   23.2872 C   0  0  0  0  0  0
  -18.9465  -30.1453   23.8892 C   0  0  0  0  0  0
  -17.6463  -30.6592   24.0557 C   0  0  0  0  0  0
  -25.9042  -34.9442   23.5096 C   0  0  0  0  0  0
  -16.5354  -29.9089   23.6335 C   0  0  0  0  0  0
  -16.7274  -28.6505   23.0362 C   0  0  0  0  0  0
  -26.4495  -31.6586   25.0745 C   0  0  0  0  0  0
  -25.3724  -31.3752   26.1474 C   0  0  0  0  0  0
  -27.0335  -30.2997   24.6240 C   0  0  0  0  0  0
  -27.6041  -32.4342   25.7520 C   0  0  0  0  0  0
  -27.5558  -37.1829   24.8481 C   0  0  0  0  0  0
  -21.4202  -29.3048   22.3660 N   0  0  0  0  0  0
  -26.4304  -37.3765   23.9379 N   0  0  0  0  0  0
  -24.6950  -31.0540   22.0967 N   0  0  0  0  0  0
  -23.4195  -28.8140   23.3002 O   0  0  0  0  0  0
  -28.3261  -26.3895   20.1950 O   0  0  0  0  0  0
  -26.5620  -34.8918   22.4665 O   0  0  0  0  0  0
  -23.5463  -32.1377   23.7301 O   0  0  0  0  0  0
  -31.1839  -18.6016   18.2130 C   0  0  0  0  0  0
  -30.9157  -17.3521   18.8026 C   0  0  0  0  0  0
  -29.7034  -18.4941   20.5654 C   0  0  0  0  0  0
  -30.7518  -19.8139   18.7934 C   0  0  0  0  0  0
  -29.9828  -19.8054   19.9900 C   0  0  0  0  0  0
  -30.1862  -17.2392   20.0084 C   0  0  0  0  0  0
  -31.1730  -21.1078   18.1111 C   0  0  0  0  0  0
  -29.6404  -21.1899   20.7088 C   0  0  0  0  0  0
  -29.1116  -23.7863   20.4975 C   0  0  0  0  0  0
  -28.1246  -24.9260   19.9170 C   0  0  0  0  0  0
  -29.9233  -15.8866   20.5692 N   0  0  0  0  0  0
  -28.9674  -22.3460   19.9597 N   0  3  0  0  0  0
  -31.4695  -12.5099   19.1766 H   0  0  0  0  0  0
  -30.3376  -11.4531   19.9708 H   0  0  0  0  0  0
  -29.7802  -11.7089   17.5245 H   0  0  0  0  0  0
  -29.6455  -13.4398   17.7196 H   0  0  0  0  0  0
  -27.8873  -11.2782   18.9251 H   0  0  0  0  0  0
  -27.3750  -12.5116   17.8040 H   0  0  0  0  0  0
  -27.6357  -14.2530   19.4586 H   0  0  0  0  0  0
  -28.7132  -12.1960   21.4473 H   0  0  0  0  0  0
  -28.4377  -13.8895   21.7755 H   0  0  0  0  0  0
  -25.2774   -9.5683   22.4735 H   0  0  0  0  0  0
  -24.0007   -7.4635   22.7451 H   0  0  0  0  0  0
  -21.0844   -8.8783   19.8946 H   0  0  0  0  0  0
  -22.3701  -10.9675   19.6151 H   0  0  0  0  0  0
  -21.2015   -7.6137   23.9715 H   0  0  0  0  0  0
  -21.1489   -6.0504   25.9073 H   0  0  0  0  0  0
  -22.0595   -2.7597   23.2840 H   0  0  0  0  0  0
  -22.4111  -11.9890   22.4854 H   0  0  0  0  0  0
  -21.1070  -13.1201   22.2624 H   0  0  0  0  0  0
  -24.6516  -15.8462   20.5332 H   0  0  0  0  0  0
  -26.2651  -15.6374   20.0809 H   0  0  0  0  0  0
  -26.7198  -32.5402   23.1088 H   0  0  0  0  0  0
  -25.0119  -33.9708   25.0432 H   0  0  0  0  0  0
  -22.7236  -31.3025   21.3959 H   0  0  0  0  0  0
  -23.3745  -35.9634   23.3363 H   0  0  0  0  0  0
  -24.3568  -36.8849   22.2051 H   0  0  0  0  0  0
  -23.7263  -37.6513   23.6633 H   0  0  0  0  0  0
  -26.1173  -31.5367   20.6168 H   0  0  0  0  0  0
  -26.8482  -30.8126   22.0168 H   0  0  0  0  0  0
  -28.1142  -28.9314   21.2139 H   0  0  0  0  0  0
  -25.9574  -25.9345   18.9592 H   0  0  0  0  0  0
  -23.9778  -27.3198   18.9860 H   0  0  0  0  0  0
  -23.7703  -30.5952   19.4033 H   0  0  0  0  0  0
  -22.7630  -29.2506   19.8484 H   0  0  0  0  0  0
  -25.1310  -36.1940   25.0832 H   0  0  0  0  0  0
  -20.9971  -28.3267   24.1396 H   0  0  0  0  0  0
  -20.5673  -26.2301   23.3611 H   0  0  0  0  0  0
  -21.6650  -26.7438   22.1202 H   0  0  0  0  0  0
  -19.6925  -25.6296   21.1247 H   0  0  0  0  0  0
  -19.6702  -27.3189   20.6743 H   0  0  0  0  0  0
  -17.4204  -26.6672   21.4027 H   0  0  0  0  0  0
  -18.0336  -26.0065   22.9017 H   0  0  0  0  0  0
  -19.7946  -30.7272   24.2257 H   0  0  0  0  0  0
  -17.5028  -31.6270   24.5164 H   0  0  0  0  0  0
  -15.5363  -30.2998   23.7665 H   0  0  0  0  0  0
  -15.8668  -28.0825   22.7090 H   0  0  0  0  0  0
  -24.5903  -30.7075   25.7837 H   0  0  0  0  0  0
  -24.8913  -32.2931   26.4880 H   0  0  0  0  0  0
  -25.8066  -30.8972   27.0264 H   0  0  0  0  0  0
  -26.2919  -29.6767   24.1221 H   0  0  0  0  0  0
  -27.3954  -29.7248   25.4776 H   0  0  0  0  0  0
  -27.8833  -30.4272   23.9525 H   0  0  0  0  0  0
  -27.2619  -33.3636   26.2092 H   0  0  0  0  0  0
  -28.3855  -32.6914   25.0355 H   0  0  0  0  0  0
  -28.0698  -31.8476   26.5448 H   0  0  0  0  0  0
  -28.2661  -38.0038   24.7409 H   0  0  0  0  0  0
  -28.0969  -36.2570   24.6472 H   0  0  0  0  0  0
  -27.2263  -37.1676   25.8886 H   0  0  0  0  0  0
  -20.9382  -29.8779   21.6876 H   0  0  0  0  0  0
  -26.0193  -38.2860   24.1308 H   0  0  0  0  0  0
  -31.7601  -18.6203   17.2982 H   0  0  0  0  0  0
  -31.2861  -16.4727   18.2951 H   0  0  0  0  0  0
  -29.1419  -18.4557   21.4883 H   0  0  0  0  0  0
  -30.3207  -21.5973   17.6398 H   0  0  0  0  0  0
  -31.9054  -20.9234   17.3243 H   0  0  0  0  0  0
  -31.6425  -21.7957   18.8152 H   0  0  0  0  0  0
  -30.5988  -21.5662   21.0690 H   0  0  0  0  0  0
  -29.0615  -20.9829   21.6084 H   0  0  0  0  0  0
  -28.9862  -23.7546   21.5815 H   0  0  0  0  0  0
  -30.1422  -24.1005   20.3281 H   0  0  0  0  0  0
  -28.0903  -24.8204   18.8331 H   0  0  0  0  0  0
  -27.1373  -24.6418   20.2829 H   0  0  0  0  0  0
  -29.0179  -15.7643   20.9968 H   0  0  0  0  0  0
  -27.9892  -22.1126   19.8931 H   0  0  0  0  0  0
  -29.3295  -22.3355   19.0197 H   0  0  0  0  0  0
  1 25  1  0  0  0
  1 30  2  0  0  0
  1 81  1  0  0  0
  2  3  1  0  0  0
  2 25  1  0  0  0
  2 83  1  0  0  0
  2 84  1  0  0  0
  3  4  1  0  0  0
  3 85  1  0  0  0
  3 86  1  0  0  0
  4  5  1  0  0  0
  4 87  1  0  0  0
  4 88  1  0  0  0
  5  6  1  0  0  0
  5 26  1  0  0  0
  5 89  1  0  0  0
  6 25  1  0  0  0
  6 90  1  0  0  0
  6 91  1  0  0  0
  7  8  2  0  0  0
  7 26  1  0  0  0
  7 29  1  0  0  0
  8  9  1  0  0  0
  8 22  1  0  0  0
  9 10  1  0  0  0
  9 27  2  0  0  0
 10 11  2  0  0  0
 10 15  1  0  0  0
 11 12  1  0  0  0
 11 92  1  0  0  0
 12 13  2  0  0  0
 12 93  1  0  0  0
 13 14  1  0  0  0
 13 31  1  0  0  0
 14 15  2  0  0  0
 14 94  1  0  0  0
 15 95  1  0  0  0
 16 17  2  0  0  0
 16 21  1  0  0  0
 16 31  1  0  0  0
 17 18  1  0  0  0
 17 96  1  0  0  0
 18 19  2  0  0  0
 18 97  1  0  0  0
 19 20  1  0  0  0
 19 24  1  0  0  0
 20 21  2  0  0  0
 20 98  1  0  0  0
 21 23  1  0  0  0
 22 28  1  0  0  0
 22 32  2  0  0  0
 26 27  1  0  0  0
 28 99  1  0  0  0
 28100  1  0  0  0
 29101  1  0  0  0
 29102  1  0  0  0
 33 34  1  0  0  0
 33 66  1  0  0  0
 33 70  2  0  0  0
 34 36  1  0  0  0
 34 59  1  0  0  0
 34103  1  0  0  0
 35 44  2  0  0  0
 35 45  1  0  0  0
 35 68  1  0  0  0
 36 56  1  0  0  0
 36104  1  0  0  0
 37 39  1  0  0  0
 37 47  1  0  0  0
 37 66  1  0  0  0
 37105  1  0  0  0
 38 43  2  0  0  0
 38 46  1  0  0  0
 38 47  1  0  0  0
 39 64  1  0  0  0
 39 67  2  0  0  0
 40 52  1  0  0  0
 40 53  2  0  0  0
 40 58  1  0  0  0
 41106  1  0  0  0
 41107  1  0  0  0
 41108  1  0  0  0
 41 48  1  0  0  0
 42 43  1  0  0  0
 42 66  1  0  0  0
 42109  1  0  0  0
 42110  1  0  0  0
 43 44  1  0  0  0
 44111  1  0  0  0
 45 46  2  0  0  0
 45112  1  0  0  0
 46113  1  0  0  0
 47114  1  0  0  0
 47115  1  0  0  0
 48 56  1  0  0  0
 48 65  1  0  0  0
 48116  1  0  0  0
 49 50  1  0  0  0
 49 53  1  0  0  0
 49 64  1  0  0  0
 49117  1  0  0  0
 50 51  1  0  0  0
 50118  1  0  0  0
 50119  1  0  0  0
 51 52  1  0  0  0
 51120  1  0  0  0
 51121  1  0  0  0
 52122  1  0  0  0
 52123  1  0  0  0
 53 54  1  0  0  0
 54 55  2  0  0  0
 54124  1  0  0  0
 55 57  1  0  0  0
 55125  1  0  0  0
 56 69  2  0  0  0
 57 58  2  0  0  0
 57126  1  0  0  0
 58127  1  0  0  0
 59 60  1  0  0  0
 59 61  1  0  0  0
 59 62  1  0  0  0
 60128  1  0  0  0
 60129  1  0  0  0
 60130  1  0  0  0
 61131  1  0  0  0
 61132  1  0  0  0
 61133  1  0  0  0
 62134  1  0  0  0
 62135  1  0  0  0
 62136  1  0  0  0
 63 65  1  0  0  0
 63137  1  0  0  0
 63138  1  0  0  0
 63139  1  0  0  0
 64140  1  0  0  0
 65141  1  0  0  0
 68 80  1  0  0  0
 71 72  2  0  0  0
 71 74  1  0  0  0
 71142  1  0  0  0
 72 76  1  0  0  0
 72143  1  0  0  0
 73 75  1  0  0  0
 73 76  2  0  0  0
 73144  1  0  0  0
 74 75  2  0  0  0
 74 77  1  0  0  0
 75 78  1  0  0  0
 76 81  1  0  0  0
 77145  1  0  0  0
 77146  1  0  0  0
 77147  1  0  0  0
 78 82  1  0  0  0
 78148  1  0  0  0
 78149  1  0  0  0
 79 80  1  0  0  0
 79 82  1  0  0  0
 79150  1  0  0  0
 79151  1  0  0  0
 80152  1  0  0  0
 80153  1  0  0  0
 81154  1  0  0  0
 82155  1  0  0  0
 82156  1  0  0  0
M  CHG  1  82   1
M  ISO  4   1 100  68 101  80 101  81 100
M  END
> <chiral flag>
0

> <version>
0

> <s_m_source_file>
/data/baiqing/PycharmProjects/Reinvent-master-3.2/result/LINK_invent/BTK/process_docking_weight1_custom_product_contain_oxygen_bond_distance_aromatic_linkinvent_7_9_3/rearranged_h_0002.sdf

> <i_m_source_file_index>
26

> <r_mmod_Potential_Energy-OPLS-2005>
-19.3743324279785

> <r_mmod_Stretch_Energy-OPLS-2005>
117.898429870605

> <r_mmod_Bend_Energy-OPLS-2005>
153.741027832031

> <r_mmod_Torsional_Energy-OPLS-2005>
224.274642944336

> <r_mmod_Improper_Torsional_Energy-OPLS-2005>
5.19297075271606

> <r_mmod_Van_der_Waal_Energy-OPLS-2005>
144.745590209961

> <r_mmod_Electrostatic_Energy-OPLS-2005>
-274.731903076172

> <r_mmod_Solvation_Energy-OPLS-2005>
-468.959259033203

> <b_mmod_Minimization_Converged-OPLS-2005>
0

> <r_mmod_RMS_Derivative-OPLS-2005>
1.97635197639465

$$$$
26
                    3D
 Structure written by MMmdl.
143150  0  0  1  0            999 V2000
  -30.3355  -15.5533   20.3377 C   0  0  0  0  0  0
  -30.4278  -13.0206   19.5356 C   0  0  0  0  0  0
  -29.5464  -12.6353   18.3151 C   0  0  0  0  0  0
  -28.1142  -12.2965   18.7563 C   0  0  0  0  0  0
  -27.5983  -13.2998   19.8136 C   0  0  2  0  0  0
  -28.6188  -13.6020   20.9348 C   0  0  0  0  0  0
  -25.2335  -13.8272   20.5783 C   0  0  0  0  0  0
  -24.1716  -13.0431   20.9280 C   0  0  0  0  0  0
  -24.6407  -11.6939   20.8763 C   0  0  0  0  0  0
  -23.9108  -10.4290   21.0398 C   0  0  0  0  0  0
  -24.3646   -9.4204   21.9179 C   0  0  0  0  0  0
  -23.6308   -8.2245   22.0753 C   0  0  0  0  0  0
  -22.4289   -8.0285   21.3544 C   0  0  0  0  0  0
  -21.9934   -9.0259   20.4644 C   0  0  0  0  0  0
  -22.7275  -10.2132   20.3050 C   0  0  0  0  0  0
  -21.6858   -6.0738   22.5278 C   0  0  0  0  0  0
  -21.4019   -6.5642   23.8212 C   0  0  0  0  0  0
  -21.3660   -5.6794   24.9173 C   0  0  0  0  0  0
  -21.6043   -4.3057   24.7224 C   0  0  0  0  0  0
  -21.8819   -3.8148   23.4345 C   0  0  0  0  0  0
  -21.9194   -4.6965   22.3402 C   0  0  0  0  0  0
  -22.7731  -13.5167   21.1917 C   0  0  0  0  0  0
  -22.1662   -4.2150   21.0979 F   0  0  0  0  0  0
  -21.5626   -3.4540   25.7737 F   0  0  0  0  0  0
  -29.8047  -14.1993   20.2827 N   0  0  0  0  0  0
  -26.2777  -12.9589   20.3227 N   0  0  0  0  0  0
  -25.9352  -11.6669   20.5705 N   0  0  0  0  0  0
  -22.0396  -12.8145   22.0471 N   0  0  0  0  0  0
  -25.3934  -15.2012   20.4226 N   0  0  0  0  0  0
  -31.5687  -15.5024   20.1771 O   0  0  0  0  0  0
  -21.6647   -6.8885   21.4242 O   0  0  0  0  0  0
  -22.3406  -14.5465   20.6752 O   0  0  0  0  0  0
  -24.6800  -31.8038   23.1543 C   0  0  0  0  0  0
  -25.9399  -32.4487   23.8074 C   0  0  1  0  0  0
  -27.2247  -26.7418   20.2123 C   0  0  0  0  0  0
  -25.5993  -33.8310   24.1966 N   0  0  0  0  0  0
  -23.5038  -30.4073   21.5074 C   0  0  2  0  0  0
  -24.9602  -28.7545   20.1181 C   0  0  0  0  0  0
  -22.7746  -29.4338   22.4723 C   0  0  0  0  0  0
  -18.0336  -28.1422   22.8456 C   0  0  0  0  0  0
  -24.1495  -36.7162   23.2653 C   0  0  0  0  0  0
  -26.0826  -30.5501   21.4119 C   0  0  0  0  0  0
  -26.1487  -29.1190   20.7619 C   0  0  0  0  0  0
  -27.2682  -28.1399   20.7756 C   0  0  0  0  0  0
  -26.0029  -26.5744   19.5148 C   0  0  0  0  0  0
  -24.9238  -27.5069   19.4714 C   0  0  0  0  0  0
  -23.7552  -29.7060   20.1417 C   0  0  0  0  0  0
  -25.4144  -36.2907   24.0285 C   0  0  1  0  0  0
  -20.5969  -28.3778   23.1151 C   0  0  2  0  0  0
  -20.6806  -26.9441   22.5404 C   0  0  0  0  0  0
  -19.5783  -26.6372   21.5218 C   0  0  0  0  0  0
  -18.1963  -26.7949   22.1618 C   0  0  0  0  0  0
  -19.1601  -28.8923   23.2785 C   0  0  0  0  0  0
  -18.9509  -30.1507   23.8830 C   0  0  0  0  0  0
  -17.6500  -30.6605   24.0552 C   0  0  0  0  0  0
  -25.9122  -34.9297   23.4960 C   0  0  0  0  0  0
  -16.5389  -29.9089   23.6351 C   0  0  0  0  0  0
  -16.7316  -28.6511   23.0366 C   0  0  0  0  0  0
  -26.4590  -31.6507   25.0681 C   0  0  0  0  0  0
  -25.3664  -31.3815   26.1302 C   0  0  0  0  0  0
  -27.0517  -30.2851   24.6551 C   0  0  0  0  0  0
  -27.6045  -32.4359   25.7497 C   0  0  0  0  0  0
  -27.5563  -37.1737   24.8467 C   0  0  0  0  0  0
  -21.4398  -29.3031   22.3473 N   0  0  0  0  0  0
  -26.4272  -37.3665   23.9408 N   0  0  0  0  0  0
  -24.7786  -30.9523   22.0774 N   0  0  0  0  0  0
  -23.4209  -28.7935   23.3052 O   0  0  0  0  0  0
  -28.2041  -25.5512   20.2801 O   0  0  0  0  0  0
  -26.5758  -34.8869   22.4574 O   0  0  0  0  0  0
  -23.5828  -32.1094   23.6523 O   0  0  0  0  0  0
  -28.7651  -20.2674   20.2904 C   0  0  0  0  0  0
  -29.0007  -22.1779   20.3080 C   0  0  0  0  0  0
  -29.8051  -18.6520   20.3467 C   0  0  0  0  0  0
  -28.0034  -23.8204   20.2032 C   0  0  0  0  0  0
  -29.5782  -16.9027   20.3825 N   0  0  0  0  0  0
  -31.4268  -13.2705   19.1767 H   0  0  0  0  0  0
  -30.5690  -12.1647   20.1980 H   0  0  0  0  0  0
  -29.9845  -11.7945   17.7757 H   0  0  0  0  0  0
  -29.5210  -13.4708   17.6137 H   0  0  0  0  0  0
  -28.1271  -11.2932   19.1840 H   0  0  0  0  0  0
  -27.4439  -12.2569   17.8969 H   0  0  0  0  0  0
  -27.4709  -14.2301   19.2582 H   0  0  0  0  0  0
  -28.8604  -12.7103   21.5153 H   0  0  0  0  0  0
  -28.2012  -14.3242   21.6380 H   0  0  0  0  0  0
  -25.2785   -9.5679   22.4764 H   0  0  0  0  0  0
  -24.0009   -7.4638   22.7481 H   0  0  0  0  0  0
  -21.0862   -8.8785   19.8952 H   0  0  0  0  0  0
  -22.3730  -10.9673   19.6163 H   0  0  0  0  0  0
  -21.2015   -7.6151   23.9715 H   0  0  0  0  0  0
  -21.1481   -6.0525   25.9076 H   0  0  0  0  0  0
  -22.0596   -2.7611   23.2846 H   0  0  0  0  0  0
  -22.4039  -11.9821   22.4865 H   0  0  0  0  0  0
  -21.1004  -13.1141   22.2671 H   0  0  0  0  0  0
  -24.6207  -15.8487   20.5359 H   0  0  0  0  0  0
  -26.2324  -15.6443   20.0726 H   0  0  0  0  0  0
  -26.7477  -32.4971   23.0784 H   0  0  0  0  0  0
  -25.0059  -33.9354   25.0062 H   0  0  0  0  0  0
  -22.8274  -31.2439   21.3201 H   0  0  0  0  0  0
  -23.3774  -35.9475   23.3272 H   0  0  0  0  0  0
  -24.3562  -36.8864   22.2076 H   0  0  0  0  0  0
  -23.7238  -37.6325   23.6753 H   0  0  0  0  0  0
  -26.2810  -31.2776   20.6238 H   0  0  0  0  0  0
  -26.9354  -30.6164   22.0750 H   0  0  0  0  0  0
  -28.1647  -28.4248   21.3080 H   0  0  0  0  0  0
  -25.8443  -25.6278   19.0182 H   0  0  0  0  0  0
  -24.0252  -27.2191   18.9430 H   0  0  0  0  0  0
  -23.9278  -30.4668   19.3796 H   0  0  0  0  0  0
  -22.8607  -29.1707   19.8189 H   0  0  0  0  0  0
  -25.1351  -36.1675   25.0775 H   0  0  0  0  0  0
  -21.0052  -28.3402   24.1277 H   0  0  0  0  0  0
  -20.5676  -26.2401   23.3662 H   0  0  0  0  0  0
  -21.6667  -26.7393   22.1218 H   0  0  0  0  0  0
  -19.6942  -25.6265   21.1292 H   0  0  0  0  0  0
  -19.6728  -27.3145   20.6718 H   0  0  0  0  0  0
  -17.4233  -26.6692   21.4021 H   0  0  0  0  0  0
  -18.0352  -26.0108   22.9031 H   0  0  0  0  0  0
  -19.7986  -30.7339   24.2170 H   0  0  0  0  0  0
  -17.5053  -31.6279   24.5166 H   0  0  0  0  0  0
  -15.5388  -30.2971   23.7716 H   0  0  0  0  0  0
  -15.8715  -28.0809   22.7122 H   0  0  0  0  0  0
  -24.5873  -30.7140   25.7600 H   0  0  0  0  0  0
  -24.8826  -32.3036   26.4537 H   0  0  0  0  0  0
  -25.7846  -30.9101   27.0204 H   0  0  0  0  0  0
  -26.3228  -29.6473   24.1543 H   0  0  0  0  0  0
  -27.3966  -29.7288   25.5278 H   0  0  0  0  0  0
  -27.9198  -30.3989   24.0055 H   0  0  0  0  0  0
  -27.2593  -33.3729   26.1879 H   0  0  0  0  0  0
  -28.3955  -32.6809   25.0396 H   0  0  0  0  0  0
  -28.0603  -31.8616   26.5574 H   0  0  0  0  0  0
  -28.2553  -38.0057   24.7511 H   0  0  0  0  0  0
  -28.1085  -36.2580   24.6299 H   0  0  0  0  0  0
  -27.2276  -37.1380   25.8868 H   0  0  0  0  0  0
  -20.9695  -29.8687   21.6544 H   0  0  0  0  0  0
  -26.0103  -38.2714   24.1421 H   0  0  0  0  0  0
  -28.1541  -20.1192   19.3998 H   0  0  0  0  0  0
  -28.0571  -20.1169   21.1057 H   0  0  0  0  0  0
  -29.7448  -22.3205   19.5244 H   0  0  0  0  0  0
  -29.5730  -22.3235   21.2244 H   0  0  0  0  0  0
  -30.4440  -18.8018   21.2176 H   0  0  0  0  0  0
  -30.4945  -18.7676   19.5099 H   0  0  0  0  0  0
  -27.2299  -23.6732   20.9571 H   0  0  0  0  0  0
  -27.4624  -23.7113   19.2633 H   0  0  0  0  0  0
  -28.5926  -16.6942   20.4591 H   0  0  0  0  0  0
  1 25  1  0  0  0
  1 30  2  0  0  0
  1 75  1  0  0  0
  2  3  1  0  0  0
  2 25  1  0  0  0
  2 76  1  0  0  0
  2 77  1  0  0  0
  3  4  1  0  0  0
  3 78  1  0  0  0
  3 79  1  0  0  0
  4  5  1  0  0  0
  4 80  1  0  0  0
  4 81  1  0  0  0
  5  6  1  0  0  0
  5 26  1  0  0  0
  5 82  1  0  0  0
  6 25  1  0  0  0
  6 83  1  0  0  0
  6 84  1  0  0  0
  7  8  2  0  0  0
  7 26  1  0  0  0
  7 29  1  0  0  0
  8  9  1  0  0  0
  8 22  1  0  0  0
  9 10  1  0  0  0
  9 27  2  0  0  0
 10 11  2  0  0  0
 10 15  1  0  0  0
 11 12  1  0  0  0
 11 85  1  0  0  0
 12 13  2  0  0  0
 12 86  1  0  0  0
 13 14  1  0  0  0
 13 31  1  0  0  0
 14 15  2  0  0  0
 14 87  1  0  0  0
 15 88  1  0  0  0
 16 17  2  0  0  0
 16 21  1  0  0  0
 16 31  1  0  0  0
 17 18  1  0  0  0
 17 89  1  0  0  0
 18 19  2  0  0  0
 18 90  1  0  0  0
 19 20  1  0  0  0
 19 24  1  0  0  0
 20 21  2  0  0  0
 20 91  1  0  0  0
 21 23  1  0  0  0
 22 28  1  0  0  0
 22 32  2  0  0  0
 26 27  1  0  0  0
 28 92  1  0  0  0
 28 93  1  0  0  0
 29 94  1  0  0  0
 29 95  1  0  0  0
 33 34  1  0  0  0
 33 66  1  0  0  0
 33 70  2  0  0  0
 34 36  1  0  0  0
 34 59  1  0  0  0
 34 96  1  0  0  0
 35 44  2  0  0  0
 35 45  1  0  0  0
 35 68  1  0  0  0
 36 56  1  0  0  0
 36 97  1  0  0  0
 37 39  1  0  0  0
 37 47  1  0  0  0
 37 66  1  0  0  0
 37 98  1  0  0  0
 38 43  2  0  0  0
 38 46  1  0  0  0
 38 47  1  0  0  0
 39 64  1  0  0  0
 39 67  2  0  0  0
 40 52  1  0  0  0
 40 53  2  0  0  0
 40 58  1  0  0  0
 41 99  1  0  0  0
 41100  1  0  0  0
 41101  1  0  0  0
 41 48  1  0  0  0
 42 43  1  0  0  0
 42 66  1  0  0  0
 42102  1  0  0  0
 42103  1  0  0  0
 43 44  1  0  0  0
 44104  1  0  0  0
 45 46  2  0  0  0
 45105  1  0  0  0
 46106  1  0  0  0
 47107  1  0  0  0
 47108  1  0  0  0
 48 56  1  0  0  0
 48 65  1  0  0  0
 48109  1  0  0  0
 49 50  1  0  0  0
 49 53  1  0  0  0
 49 64  1  0  0  0
 49110  1  0  0  0
 50 51  1  0  0  0
 50111  1  0  0  0
 50112  1  0  0  0
 51 52  1  0  0  0
 51113  1  0  0  0
 51114  1  0  0  0
 52115  1  0  0  0
 52116  1  0  0  0
 53 54  1  0  0  0
 54 55  2  0  0  0
 54117  1  0  0  0
 55 57  1  0  0  0
 55118  1  0  0  0
 56 69  2  0  0  0
 57 58  2  0  0  0
 57119  1  0  0  0
 58120  1  0  0  0
 59 60  1  0  0  0
 59 61  1  0  0  0
 59 62  1  0  0  0
 60121  1  0  0  0
 60122  1  0  0  0
 60123  1  0  0  0
 61124  1  0  0  0
 61125  1  0  0  0
 61126  1  0  0  0
 62127  1  0  0  0
 62128  1  0  0  0
 62129  1  0  0  0
 63 65  1  0  0  0
 63130  1  0  0  0
 63131  1  0  0  0
 63132  1  0  0  0
 64133  1  0  0  0
 65134  1  0  0  0
 68 74  1  0  0  0
 71 72  1  0  0  0
 71 73  1  0  0  0
 71135  1  0  0  0
 71136  1  0  0  0
 72 74  1  0  0  0
 72137  1  0  0  0
 72138  1  0  0  0
 73 75  1  0  0  0
 73139  1  0  0  0
 73140  1  0  0  0
 74141  1  0  0  0
 74142  1  0  0  0
 75143  1  0  0  0
M  ISO  4   1 100  68 101  74 101  75 100
M  END
> <chiral flag>
0

> <version>
0

> <s_m_source_file>
/data/baiqing/PycharmProjects/Reinvent-master-3.2/result/LINK_invent/BTK/process_docking_weight1_custom_product_contain_oxygen_bond_distance_aromatic_linkinvent_7_9_3/rearranged_h_0002.sdf

> <i_m_source_file_index>
27

> <r_mmod_Potential_Energy-OPLS-2005>
2236.59155273438

> <r_mmod_Stretch_Energy-OPLS-2005>
1088.18041992188

> <r_mmod_Bend_Energy-OPLS-2005>
600.093139648438

> <r_mmod_Torsional_Energy-OPLS-2005>
206.369812011719

> <r_mmod_Improper_Torsional_Energy-OPLS-2005>
3.66827178001404

> <r_mmod_Van_der_Waal_Energy-OPLS-2005>
110.215888977051

> <r_mmod_Electrostatic_Energy-OPLS-2005>
-352.887237548828

> <r_mmod_Solvation_Energy-OPLS-2005>
-215.827575683594

> <b_mmod_Minimization_Converged-OPLS-2005>
0

> <r_mmod_RMS_Derivative-OPLS-2005>
0.268112510442734

$$$$
27
                    3D
 Structure written by MMmdl.
153161  0  0  1  0            999 V2000
  -30.6230  -14.7093   20.4538 C   0  0  0  0  0  0
  -30.4295  -12.4264   19.4820 C   0  0  0  0  0  0
  -29.5136  -12.5061   18.2404 C   0  0  0  0  0  0
  -28.0368  -12.3397   18.6473 C   0  0  0  0  0  0
  -27.6463  -13.2317   19.8565 C   0  0  2  0  0  0
  -28.6877  -13.1482   20.9955 C   0  0  0  0  0  0
  -25.2522  -13.8203   20.5694 C   0  0  0  0  0  0
  -24.1808  -13.0447   20.9199 C   0  0  0  0  0  0
  -24.6400  -11.6925   20.8744 C   0  0  0  0  0  0
  -23.9076  -10.4299   21.0406 C   0  0  0  0  0  0
  -24.3627   -9.4213   21.9180 C   0  0  0  0  0  0
  -23.6300   -8.2246   22.0753 C   0  0  0  0  0  0
  -22.4279   -8.0286   21.3547 C   0  0  0  0  0  0
  -21.9917   -9.0259   20.4649 C   0  0  0  0  0  0
  -22.7250  -10.2137   20.3057 C   0  0  0  0  0  0
  -21.6852   -6.0742   22.5280 C   0  0  0  0  0  0
  -21.4014   -6.5645   23.8216 C   0  0  0  0  0  0
  -21.3661   -5.6794   24.9176 C   0  0  0  0  0  0
  -21.6042   -4.3057   24.7225 C   0  0  0  0  0  0
  -21.8818   -3.8150   23.4344 C   0  0  0  0  0  0
  -21.9192   -4.6969   22.3402 C   0  0  0  0  0  0
  -22.7827  -13.5227   21.1857 C   0  0  0  0  0  0
  -22.1659   -4.2158   21.0978 F   0  0  0  0  0  0
  -21.5633   -3.4539   25.7737 F   0  0  0  0  0  0
  -29.9978  -13.4844   20.4244 N   0  0  0  0  0  0
  -26.2957  -12.9412   20.3296 N   0  0  0  0  0  0
  -25.9334  -11.6550   20.5751 N   0  0  0  0  0  0
  -22.0471  -12.8224   22.0416 N   0  0  0  0  0  0
  -25.4220  -15.1925   20.4121 N   0  0  0  0  0  0
  -31.8025  -14.8032   20.1005 O   0  0  0  0  0  0
  -21.6643   -6.8882   21.4241 O   0  0  0  0  0  0
  -22.3512  -14.5532   20.6702 O   0  0  0  0  0  0
  -24.6296  -31.8572   23.2004 C   0  0  0  0  0  0
  -25.9128  -32.4764   23.8349 C   0  0  1  0  0  0
  -27.2168  -27.2748   20.1254 C   0  0  0  0  0  0
  -25.5927  -33.8566   24.2270 N   0  0  0  0  0  0
  -23.4253  -30.4813   21.5433 C   0  0  2  0  0  0
  -24.8725  -28.9342   20.1080 C   0  0  0  0  0  0
  -22.7499  -29.4606   22.4909 C   0  0  0  0  0  0
  -18.0293  -28.1383   22.8480 C   0  0  0  0  0  0
  -24.1490  -36.7290   23.2638 C   0  0  0  0  0  0
  -25.9709  -30.7731   21.3805 C   0  0  0  0  0  0
  -26.0425  -29.3972   20.7226 C   0  0  0  0  0  0
  -27.2157  -28.5783   20.7251 C   0  0  0  0  0  0
  -26.0286  -26.8901   19.4605 C   0  0  0  0  0  0
  -24.8703  -27.6881   19.4665 C   0  0  0  0  0  0
  -23.6430  -29.8190   20.1579 C   0  0  0  0  0  0
  -25.4114  -36.3074   24.0327 C   0  0  1  0  0  0
  -20.5896  -28.3694   23.1264 C   0  0  2  0  0  0
  -20.6777  -26.9409   22.5403 C   0  0  0  0  0  0
  -19.5751  -26.6379   21.5207 C   0  0  0  0  0  0
  -18.1933  -26.7923   22.1623 C   0  0  0  0  0  0
  -19.1546  -28.8856   23.2868 C   0  0  0  0  0  0
  -18.9467  -30.1457   23.8886 C   0  0  0  0  0  0
  -17.6465  -30.6582   24.0561 C   0  0  0  0  0  0
  -25.9054  -34.9444   23.5100 C   0  0  0  0  0  0
  -16.5357  -29.9080   23.6327 C   0  0  0  0  0  0
  -16.7279  -28.6499   23.0346 C   0  0  0  0  0  0
  -26.4502  -31.6580   25.0730 C   0  0  0  0  0  0
  -25.3727  -31.3728   26.1452 C   0  0  0  0  0  0
  -27.0351  -30.2997   24.6211 C   0  0  0  0  0  0
  -27.6056  -32.4321   25.7503 C   0  0  0  0  0  0
  -27.5578  -37.1799   24.8464 C   0  0  0  0  0  0
  -21.4207  -29.3045   22.3658 N   0  0  0  0  0  0
  -26.4290  -37.3769   23.9407 N   0  0  0  0  0  0
  -24.6941  -31.0553   22.0973 N   0  0  0  0  0  0
  -23.4208  -28.8135   23.2991 O   0  0  0  0  0  0
  -28.3083  -26.3795   20.2115 O   0  0  0  0  0  0
  -26.5627  -34.8913   22.4671 O   0  0  0  0  0  0
  -23.5448  -32.1388   23.7302 O   0  0  0  0  0  0
  -30.6261  -18.6052   18.2261 C   0  0  0  0  0  0
  -30.2299  -19.7864   18.8820 C   0  0  0  0  0  0
  -30.5183  -17.3463   18.8492 C   0  0  0  0  0  0
  -29.5692  -18.4390   20.8022 C   0  0  0  0  0  0
  -29.6894  -19.7538   20.1847 C   0  0  0  0  0  0
  -30.0014  -17.2070   20.1580 C   0  0  0  0  0  0
  -29.3864  -21.1440   20.8984 C   0  0  0  0  0  0
  -29.0084  -23.7628   20.5921 C   0  0  0  0  0  0
  -28.0897  -24.9168   19.9405 C   0  0  0  0  0  0
  -29.8715  -15.8427   20.7257 N   0  0  0  0  0  0
  -28.8066  -22.3154   20.0979 N   0  3  0  0  0  0
  -31.4748  -12.5329   19.1863 H   0  0  0  0  0  0
  -30.3548  -11.4459   19.9548 H   0  0  0  0  0  0
  -29.7915  -11.7397   17.5161 H   0  0  0  0  0  0
  -29.6527  -13.4654   17.7391 H   0  0  0  0  0  0
  -27.8820  -11.2896   18.8981 H   0  0  0  0  0  0
  -27.3853  -12.5473   17.7977 H   0  0  0  0  0  0
  -27.6485  -14.2575   19.4864 H   0  0  0  0  0  0
  -28.7091  -12.1482   21.4308 H   0  0  0  0  0  0
  -28.4274  -13.8273   21.8084 H   0  0  0  0  0  0
  -25.2774   -9.5691   22.4753 H   0  0  0  0  0  0
  -24.0018   -7.4637   22.7468 H   0  0  0  0  0  0
  -21.0851   -8.8776   19.8953 H   0  0  0  0  0  0
  -22.3707  -10.9673   19.6166 H   0  0  0  0  0  0
  -21.2004   -7.6150   23.9722 H   0  0  0  0  0  0
  -21.1486   -6.0523   25.9080 H   0  0  0  0  0  0
  -22.0595   -2.7614   23.2838 H   0  0  0  0  0  0
  -22.4088  -11.9896   22.4827 H   0  0  0  0  0  0
  -21.1081  -13.1241   22.2602 H   0  0  0  0  0  0
  -24.6553  -15.8469   20.5236 H   0  0  0  0  0  0
  -26.2723  -15.6322   20.0829 H   0  0  0  0  0  0
  -26.7193  -32.5421   23.1092 H   0  0  0  0  0  0
  -25.0068  -33.9712   25.0411 H   0  0  0  0  0  0
  -22.7200  -31.3023   21.3995 H   0  0  0  0  0  0
  -23.3749  -35.9626   23.3299 H   0  0  0  0  0  0
  -24.3579  -36.8917   22.2053 H   0  0  0  0  0  0
  -23.7254  -37.6493   23.6667 H   0  0  0  0  0  0
  -26.1113  -31.5324   20.6099 H   0  0  0  0  0  0
  -26.8484  -30.8207   22.0137 H   0  0  0  0  0  0
  -28.1073  -28.9240   21.2295 H   0  0  0  0  0  0
  -25.9565  -25.9505   18.9342 H   0  0  0  0  0  0
  -23.9781  -27.3336   18.9688 H   0  0  0  0  0  0
  -23.7671  -30.5971   19.4039 H   0  0  0  0  0  0
  -22.7617  -29.2523   19.8521 H   0  0  0  0  0  0
  -25.1295  -36.1922   25.0818 H   0  0  0  0  0  0
  -20.9992  -28.3274   24.1385 H   0  0  0  0  0  0
  -20.5667  -26.2308   23.3612 H   0  0  0  0  0  0
  -21.6646  -26.7425   22.1204 H   0  0  0  0  0  0
  -19.6910  -25.6290   21.1240 H   0  0  0  0  0  0
  -19.6684  -27.3189   20.6736 H   0  0  0  0  0  0
  -17.4199  -26.6666   21.4030 H   0  0  0  0  0  0
  -18.0334  -26.0071   22.9027 H   0  0  0  0  0  0
  -19.7944  -30.7275   24.2249 H   0  0  0  0  0  0
  -17.5019  -31.6259   24.5167 H   0  0  0  0  0  0
  -15.5355  -30.2977   23.7654 H   0  0  0  0  0  0
  -15.8681  -28.0816   22.7060 H   0  0  0  0  0  0
  -24.5902  -30.7077   25.7781 H   0  0  0  0  0  0
  -24.8920  -32.2898   26.4869 H   0  0  0  0  0  0
  -25.8044  -30.8910   27.0235 H   0  0  0  0  0  0
  -26.2937  -29.6739   24.1229 H   0  0  0  0  0  0
  -27.4032  -29.7262   25.4728 H   0  0  0  0  0  0
  -27.8816  -30.4275   23.9459 H   0  0  0  0  0  0
  -27.2663  -33.3624   26.2072 H   0  0  0  0  0  0
  -28.3871  -32.6874   25.0334 H   0  0  0  0  0  0
  -28.0721  -31.8454   26.5429 H   0  0  0  0  0  0
  -28.2590  -38.0098   24.7503 H   0  0  0  0  0  0
  -28.1077  -36.2628   24.6296 H   0  0  0  0  0  0
  -27.2293  -37.1457   25.8866 H   0  0  0  0  0  0
  -20.9383  -29.8794   21.6891 H   0  0  0  0  0  0
  -26.0167  -38.2844   24.1400 H   0  0  0  0  0  0
  -31.0326  -18.6655   17.2258 H   0  0  0  0  0  0
  -30.3700  -20.7284   18.3703 H   0  0  0  0  0  0
  -30.8343  -16.4789   18.2871 H   0  0  0  0  0  0
  -29.1690  -18.3820   21.8051 H   0  0  0  0  0  0
  -30.3351  -21.4785   21.3194 H   0  0  0  0  0  0
  -28.7356  -20.9626   21.7546 H   0  0  0  0  0  0
  -28.8490  -23.7787   21.6703 H   0  0  0  0  0  0
  -30.0570  -24.0215   20.4411 H   0  0  0  0  0  0
  -27.0775  -24.6537   20.2475 H   0  0  0  0  0  0
  -28.1175  -24.8000   18.8566 H   0  0  0  0  0  0
  -29.0115  -15.6658   21.2230 H   0  0  0  0  0  0
  -27.8192  -22.1326   20.0145 H   0  0  0  0  0  0
  -29.1856  -22.2601   19.1672 H   0  0  0  0  0  0
  1 25  1  0  0  0
  1 30  2  0  0  0
  1 80  1  0  0  0
  2  3  1  0  0  0
  2 25  1  0  0  0
  2 82  1  0  0  0
  2 83  1  0  0  0
  3  4  1  0  0  0
  3 84  1  0  0  0
  3 85  1  0  0  0
  4  5  1  0  0  0
  4 86  1  0  0  0
  4 87  1  0  0  0
  5  6  1  0  0  0
  5 26  1  0  0  0
  5 88  1  0  0  0
  6 25  1  0  0  0
  6 89  1  0  0  0
  6 90  1  0  0  0
  7  8  2  0  0  0
  7 26  1  0  0  0
  7 29  1  0  0  0
  8  9  1  0  0  0
  8 22  1  0  0  0
  9 10  1  0  0  0
  9 27  2  0  0  0
 10 11  2  0  0  0
 10 15  1  0  0  0
 11 12  1  0  0  0
 11 91  1  0  0  0
 12 13  2  0  0  0
 12 92  1  0  0  0
 13 14  1  0  0  0
 13 31  1  0  0  0
 14 15  2  0  0  0
 14 93  1  0  0  0
 15 94  1  0  0  0
 16 17  2  0  0  0
 16 21  1  0  0  0
 16 31  1  0  0  0
 17 18  1  0  0  0
 17 95  1  0  0  0
 18 19  2  0  0  0
 18 96  1  0  0  0
 19 20  1  0  0  0
 19 24  1  0  0  0
 20 21  2  0  0  0
 20 97  1  0  0  0
 21 23  1  0  0  0
 22 28  1  0  0  0
 22 32  2  0  0  0
 26 27  1  0  0  0
 28 98  1  0  0  0
 28 99  1  0  0  0
 29100  1  0  0  0
 29101  1  0  0  0
 33 34  1  0  0  0
 33 66  1  0  0  0
 33 70  2  0  0  0
 34 36  1  0  0  0
 34 59  1  0  0  0
 34102  1  0  0  0
 35 44  2  0  0  0
 35 45  1  0  0  0
 35 68  1  0  0  0
 36 56  1  0  0  0
 36103  1  0  0  0
 37 39  1  0  0  0
 37 47  1  0  0  0
 37 66  1  0  0  0
 37104  1  0  0  0
 38 43  2  0  0  0
 38 46  1  0  0  0
 38 47  1  0  0  0
 39 64  1  0  0  0
 39 67  2  0  0  0
 40 52  1  0  0  0
 40 53  2  0  0  0
 40 58  1  0  0  0
 41105  1  0  0  0
 41106  1  0  0  0
 41107  1  0  0  0
 41 48  1  0  0  0
 42 43  1  0  0  0
 42 66  1  0  0  0
 42108  1  0  0  0
 42109  1  0  0  0
 43 44  1  0  0  0
 44110  1  0  0  0
 45 46  2  0  0  0
 45111  1  0  0  0
 46112  1  0  0  0
 47113  1  0  0  0
 47114  1  0  0  0
 48 56  1  0  0  0
 48 65  1  0  0  0
 48115  1  0  0  0
 49 50  1  0  0  0
 49 53  1  0  0  0
 49 64  1  0  0  0
 49116  1  0  0  0
 50 51  1  0  0  0
 50117  1  0  0  0
 50118  1  0  0  0
 51 52  1  0  0  0
 51119  1  0  0  0
 51120  1  0  0  0
 52121  1  0  0  0
 52122  1  0  0  0
 53 54  1  0  0  0
 54 55  2  0  0  0
 54123  1  0  0  0
 55 57  1  0  0  0
 55124  1  0  0  0
 56 69  2  0  0  0
 57 58  2  0  0  0
 57125  1  0  0  0
 58126  1  0  0  0
 59 60  1  0  0  0
 59 61  1  0  0  0
 59 62  1  0  0  0
 60127  1  0  0  0
 60128  1  0  0  0
 60129  1  0  0  0
 61130  1  0  0  0
 61131  1  0  0  0
 61132  1  0  0  0
 62133  1  0  0  0
 62134  1  0  0  0
 62135  1  0  0  0
 63 65  1  0  0  0
 63136  1  0  0  0
 63137  1  0  0  0
 63138  1  0  0  0
 64139  1  0  0  0
 65140  1  0  0  0
 68 79  1  0  0  0
 71 72  2  0  0  0
 71 73  1  0  0  0
 71141  1  0  0  0
 72 75  1  0  0  0
 72142  1  0  0  0
 73 76  2  0  0  0
 73143  1  0  0  0
 74 75  2  0  0  0
 74 76  1  0  0  0
 74144  1  0  0  0
 75 77  1  0  0  0
 76 80  1  0  0  0
 77 81  1  0  0  0
 77145  1  0  0  0
 77146  1  0  0  0
 78 79  1  0  0  0
 78 81  1  0  0  0
 78147  1  0  0  0
 78148  1  0  0  0
 79149  1  0  0  0
 79150  1  0  0  0
 80151  1  0  0  0
 81152  1  0  0  0
 81153  1  0  0  0
M  CHG  1  81   1
M  ISO  4   1 100  68 101  79 101  80 100
M  END
> <chiral flag>
0

> <version>
0

> <s_m_source_file>
/data/baiqing/PycharmProjects/Reinvent-master-3.2/result/LINK_invent/BTK/process_docking_weight1_custom_product_contain_oxygen_bond_distance_aromatic_linkinvent_7_9_3/rearranged_h_0002.sdf

> <i_m_source_file_index>
28

> <r_mmod_Potential_Energy-OPLS-2005>
-34.7456741333008

> <r_mmod_Stretch_Energy-OPLS-2005>
112.539047241211

> <r_mmod_Bend_Energy-OPLS-2005>
147.294815063477

> <r_mmod_Torsional_Energy-OPLS-2005>
227.704132080078

> <r_mmod_Improper_Torsional_Energy-OPLS-2005>
4.58505725860596

> <r_mmod_Van_der_Waal_Energy-OPLS-2005>
142.705841064453

> <r_mmod_Electrostatic_Energy-OPLS-2005>
-269.937713623047

> <r_mmod_Solvation_Energy-OPLS-2005>
-475.085266113281

> <b_mmod_Minimization_Converged-OPLS-2005>
0

> <r_mmod_RMS_Derivative-OPLS-2005>
0.710408389568329

$$$$
28
                    3D
 Structure written by MMmdl.
173181  0  0  1  0            999 V2000
  -30.6696  -14.4760   20.4789 C   0  0  0  0  0  0
  -30.4197  -12.2816   19.4334 C   0  0  0  0  0  0
  -29.4984  -12.4883   18.2132 C   0  0  0  0  0  0
  -28.0169  -12.3503   18.6201 C   0  0  0  0  0  0
  -27.6589  -13.1985   19.8709 C   0  0  2  0  0  0
  -28.7004  -12.9977   20.9984 C   0  0  0  0  0  0
  -25.2611  -13.8151   20.5671 C   0  0  0  0  0  0
  -24.1851  -13.0460   20.9195 C   0  0  0  0  0  0
  -24.6369  -11.6908   20.8737 C   0  0  0  0  0  0
  -23.9022  -10.4317   21.0400 C   0  0  0  0  0  0
  -24.3598   -9.4234   21.9166 C   0  0  0  0  0  0
  -23.6302   -8.2254   22.0749 C   0  0  0  0  0  0
  -22.4267   -8.0288   21.3557 C   0  0  0  0  0  0
  -21.9889   -9.0242   20.4641 C   0  0  0  0  0  0
  -22.7199  -10.2135   20.3046 C   0  0  0  0  0  0
  -21.6860   -6.0730   22.5273 C   0  0  0  0  0  0
  -21.4013   -6.5635   23.8203 C   0  0  0  0  0  0
  -21.3676   -5.6791   24.9181 C   0  0  0  0  0  0
  -21.6061   -4.3053   24.7208 C   0  0  0  0  0  0
  -21.8831   -3.8145   23.4332 C   0  0  0  0  0  0
  -21.9197   -4.6966   22.3400 C   0  0  0  0  0  0
  -22.7867  -13.5258   21.1838 C   0  0  0  0  0  0
  -22.1663   -4.2157   21.0966 F   0  0  0  0  0  0
  -21.5639   -3.4534   25.7722 F   0  0  0  0  0  0
  -30.0366  -13.2768   20.4455 N   0  0  0  0  0  0
  -26.3015  -12.9289   20.3335 N   0  0  0  0  0  0
  -25.9289  -11.6456   20.5745 N   0  0  0  0  0  0
  -22.0483  -12.8274   22.0401 N   0  0  0  0  0  0
  -25.4366  -15.1866   20.4075 N   0  0  0  0  0  0
  -31.8322  -14.6415   20.1041 O   0  0  0  0  0  0
  -21.6654   -6.8870   21.4234 O   0  0  0  0  0  0
  -22.3564  -14.5545   20.6659 O   0  0  0  0  0  0
  -24.6093  -31.8725   23.2107 C   0  0  0  0  0  0
  -25.9006  -32.4839   23.8406 C   0  0  1  0  0  0
  -27.2388  -27.4834   20.1126 C   0  0  0  0  0  0
  -25.5859  -33.8639   24.2329 N   0  0  0  0  0  0
  -23.3958  -30.4918   21.5516 C   0  0  2  0  0  0
  -24.8446  -28.9639   20.1157 C   0  0  0  0  0  0
  -22.7385  -29.4658   22.5011 C   0  0  0  0  0  0
  -18.0258  -28.1363   22.8501 C   0  0  0  0  0  0
  -24.1478  -36.7346   23.2642 C   0  0  0  0  0  0
  -25.9158  -30.8586   21.3532 C   0  0  0  0  0  0
  -25.9976  -29.4932   20.7099 C   0  0  0  0  0  0
  -27.2000  -28.7597   20.7066 C   0  0  0  0  0  0
  -26.0776  -26.9595   19.5057 C   0  0  0  0  0  0
  -24.8776  -27.6954   19.5073 C   0  0  0  0  0  0
  -23.6027  -29.8227   20.1648 C   0  0  0  0  0  0
  -25.4092  -36.3123   24.0345 C   0  0  1  0  0  0
  -20.5849  -28.3635   23.1361 C   0  0  2  0  0  0
  -20.6740  -26.9385   22.5446 C   0  0  0  0  0  0
  -19.5718  -26.6383   21.5242 C   0  0  0  0  0  0
  -18.1902  -26.7915   22.1646 C   0  0  0  0  0  0
  -19.1510  -28.8819   23.2923 C   0  0  0  0  0  0
  -18.9446  -30.1433   23.8927 C   0  0  0  0  0  0
  -17.6446  -30.6581   24.0577 C   0  0  0  0  0  0
  -25.9027  -34.9491   23.5147 C   0  0  0  0  0  0
  -16.5326  -29.9106   23.6316 C   0  0  0  0  0  0
  -16.7252  -28.6517   23.0342 C   0  0  0  0  0  0
  -26.4449  -31.6582   25.0705 C   0  0  0  0  0  0
  -25.3700  -31.3719   26.1428 C   0  0  0  0  0  0
  -27.0269  -30.3020   24.6059 C   0  0  0  0  0  0
  -27.6034  -32.4273   25.7467 C   0  0  0  0  0  0
  -27.5566  -37.1810   24.8459 C   0  0  0  0  0  0
  -21.4114  -29.3017   22.3763 N   0  0  0  0  0  0
  -26.4277  -37.3795   23.9402 N   0  0  0  0  0  0
  -24.6586  -31.0866   22.0980 N   0  0  0  0  0  0
  -23.4184  -28.8204   23.3041 O   0  0  0  0  0  0
  -28.4089  -26.7718   20.1223 O   0  0  0  0  0  0
  -26.5609  -34.8945   22.4717 O   0  0  0  0  0  0
  -23.5306  -32.1457   23.7546 O   0  0  0  0  0  0
  -32.7938  -19.0993   22.0723 C   0  0  0  0  0  0
  -32.3163  -19.9291   23.1049 C   0  0  0  0  0  0
  -31.8923  -18.4530   21.2042 C   0  0  0  0  0  0
  -30.0290  -19.4413   22.4196 C   0  0  0  0  0  0
  -30.9265  -20.1001   23.2837 C   0  0  0  0  0  0
  -30.4977  -18.6178   21.3727 C   0  0  0  0  0  0
  -27.8967  -19.4075   19.0392 C   0  0  0  0  0  0
  -27.7666  -20.5901   18.0823 C   0  0  0  0  0  0
  -30.3872  -21.0035   24.3785 C   0  0  0  0  0  0
  -29.8323  -22.3209   23.8167 C   0  0  0  0  0  0
  -28.9948  -23.1324   24.8248 C   0  0  0  0  0  0
  -29.8921  -16.6976   19.7184 C   0  0  0  0  0  0
  -28.8822  -24.6087   24.4200 C   0  0  0  0  0  0
  -28.3578  -25.5834   20.9087 C   0  0  0  0  0  0
  -28.5825  -25.8660   22.4065 C   0  0  0  0  0  0
  -29.4809  -18.0253   20.3993 C   0  0  2  0  0  0
  -29.1333  -19.0294   19.3896 N   0  0  0  0  0  0
  -29.8349  -15.5196   20.6012 N   0  0  0  0  0  0
  -26.8814  -18.8528   19.4608 O   0  0  0  0  0  0
  -28.4230  -24.6277   23.0790 O   0  0  0  0  0  0
  -31.4667  -12.3742   19.1355 H   0  0  0  0  0  0
  -30.3017  -11.2723   19.8309 H   0  0  0  0  0  0
  -29.7382  -11.7657   17.4326 H   0  0  0  0  0  0
  -29.6769  -13.4725   17.7775 H   0  0  0  0  0  0
  -27.8285  -11.2955   18.8201 H   0  0  0  0  0  0
  -27.3700  -12.6240   17.7853 H   0  0  0  0  0  0
  -27.6863  -14.2403   19.5541 H   0  0  0  0  0  0
  -28.6641  -11.9730   21.3703 H   0  0  0  0  0  0
  -28.4729  -13.6362   21.8551 H   0  0  0  0  0  0
  -25.2745   -9.5728   22.4728 H   0  0  0  0  0  0
  -24.0046   -7.4644   22.7446 H   0  0  0  0  0  0
  -21.0839   -8.8735   19.8932 H   0  0  0  0  0  0
  -22.3646  -10.9670   19.6160 H   0  0  0  0  0  0
  -21.1984   -7.6139   23.9717 H   0  0  0  0  0  0
  -21.1495   -6.0507   25.9083 H   0  0  0  0  0  0
  -22.0585   -2.7602   23.2816 H   0  0  0  0  0  0
  -22.4087  -11.9987   22.4885 H   0  0  0  0  0  0
  -21.1085  -13.1299   22.2514 H   0  0  0  0  0  0
  -24.6724  -15.8425   20.5167 H   0  0  0  0  0  0
  -26.2850  -15.6267   20.0722 H   0  0  0  0  0  0
  -26.7094  -32.5592   23.1198 H   0  0  0  0  0  0
  -24.9898  -33.9813   25.0401 H   0  0  0  0  0  0
  -22.6822  -31.3064   21.4146 H   0  0  0  0  0  0
  -23.3720  -35.9704   23.3327 H   0  0  0  0  0  0
  -24.3587  -36.8946   22.2053 H   0  0  0  0  0  0
  -23.7264  -37.6576   23.6640 H   0  0  0  0  0  0
  -26.0147  -31.6218   20.5791 H   0  0  0  0  0  0
  -26.8078  -30.9276   21.9629 H   0  0  0  0  0  0
  -28.0898  -29.1626   21.1707 H   0  0  0  0  0  0
  -26.1011  -25.9875   19.0314 H   0  0  0  0  0  0
  -23.9891  -27.2865   19.0454 H   0  0  0  0  0  0
  -23.7042  -30.5953   19.4022 H   0  0  0  0  0  0
  -22.7322  -29.2328   19.8725 H   0  0  0  0  0  0
  -25.1279  -36.1994   25.0841 H   0  0  0  0  0  0
  -20.9942  -28.3178   24.1475 H   0  0  0  0  0  0
  -20.5657  -26.2247   23.3619 H   0  0  0  0  0  0
  -21.6613  -26.7432   22.1227 H   0  0  0  0  0  0
  -19.6881  -25.6318   21.1226 H   0  0  0  0  0  0
  -19.6641  -27.3240   20.6806 H   0  0  0  0  0  0
  -17.4174  -26.6672   21.4035 H   0  0  0  0  0  0
  -18.0276  -26.0065   22.9039 H   0  0  0  0  0  0
  -19.7930  -30.7234   24.2295 H   0  0  0  0  0  0
  -17.5018  -31.6263   24.5179 H   0  0  0  0  0  0
  -15.5344  -30.3020   23.7628 H   0  0  0  0  0  0
  -15.8642  -28.0856   22.7022 H   0  0  0  0  0  0
  -24.5884  -30.7078   25.7709 H   0  0  0  0  0  0
  -24.8891  -32.2906   26.4796 H   0  0  0  0  0  0
  -25.8005  -30.8898   27.0215 H   0  0  0  0  0  0
  -26.2834  -29.6775   24.1077 H   0  0  0  0  0  0
  -27.4022  -29.7235   25.4516 H   0  0  0  0  0  0
  -27.8659  -30.4352   23.9227 H   0  0  0  0  0  0
  -27.2675  -33.3570   26.2074 H   0  0  0  0  0  0
  -28.3800  -32.6822   25.0240 H   0  0  0  0  0  0
  -28.0736  -31.8378   26.5347 H   0  0  0  0  0  0
  -28.2577  -38.0100   24.7472 H   0  0  0  0  0  0
  -28.1056  -36.2630   24.6303 H   0  0  0  0  0  0
  -27.2306  -37.1499   25.8869 H   0  0  0  0  0  0
  -20.9259  -29.8769   21.7019 H   0  0  0  0  0  0
  -26.0180  -38.2882   24.1386 H   0  0  0  0  0  0
  -33.8586  -18.9698   21.9332 H   0  0  0  0  0  0
  -33.0175  -20.4367   23.7543 H   0  0  0  0  0  0
  -32.2914  -17.8469   20.4032 H   0  0  0  0  0  0
  -28.9657  -19.5971   22.5418 H   0  0  0  0  0  0
  -27.7829  -20.2557   17.0448 H   0  0  0  0  0  0
  -28.5767  -21.3047   18.2282 H   0  0  0  0  0  0
  -26.8294  -21.1224   18.2534 H   0  0  0  0  0  0
  -31.1695  -21.2172   25.1084 H   0  0  0  0  0  0
  -29.6047  -20.4678   24.9164 H   0  0  0  0  0  0
  -29.1945  -22.1093   22.9581 H   0  0  0  0  0  0
  -30.6584  -22.9218   23.4338 H   0  0  0  0  0  0
  -29.4264  -23.0646   25.8250 H   0  0  0  0  0  0
  -27.9986  -22.6932   24.8907 H   0  0  0  0  0  0
  -30.8429  -16.7920   19.1928 H   0  0  0  0  0  0
  -29.1651  -16.4945   18.9303 H   0  0  0  0  0  0
  -29.8612  -25.0815   24.5121 H   0  0  0  0  0  0
  -28.1923  -25.1502   25.0710 H   0  0  0  0  0  0
  -27.4145  -25.0529   20.7774 H   0  0  0  0  0  0
  -29.1348  -24.9062   20.5474 H   0  0  0  0  0  0
  -27.8667  -26.5913   22.7977 H   0  0  0  0  0  0
  -29.5844  -26.2702   22.5586 H   0  0  0  0  0  0
  -28.5874  -17.8131   20.9913 H   0  0  0  0  0  0
  -29.9088  -19.5292   18.9754 H   0  0  0  0  0  0
  -28.9259  -15.3007   20.9805 H   0  0  0  0  0  0
  1 25  1  0  0  0
  1 30  2  0  0  0
  1 88  1  0  0  0
  2  3  1  0  0  0
  2 25  1  0  0  0
  2 91  1  0  0  0
  2 92  1  0  0  0
  3  4  1  0  0  0
  3 93  1  0  0  0
  3 94  1  0  0  0
  4  5  1  0  0  0
  4 95  1  0  0  0
  4 96  1  0  0  0
  5  6  1  0  0  0
  5 26  1  0  0  0
  5 97  1  0  0  0
  6 25  1  0  0  0
  6 98  1  0  0  0
  6 99  1  0  0  0
  7  8  2  0  0  0
  7 26  1  0  0  0
  7 29  1  0  0  0
  8  9  1  0  0  0
  8 22  1  0  0  0
  9 10  1  0  0  0
  9 27  2  0  0  0
 10 11  2  0  0  0
 10 15  1  0  0  0
 11 12  1  0  0  0
 11100  1  0  0  0
 12 13  2  0  0  0
 12101  1  0  0  0
 13 14  1  0  0  0
 13 31  1  0  0  0
 14 15  2  0  0  0
 14102  1  0  0  0
 15103  1  0  0  0
 16 17  2  0  0  0
 16 21  1  0  0  0
 16 31  1  0  0  0
 17 18  1  0  0  0
 17104  1  0  0  0
 18 19  2  0  0  0
 18105  1  0  0  0
 19 20  1  0  0  0
 19 24  1  0  0  0
 20 21  2  0  0  0
 20106  1  0  0  0
 21 23  1  0  0  0
 22 28  1  0  0  0
 22 32  2  0  0  0
 26 27  1  0  0  0
 28107  1  0  0  0
 28108  1  0  0  0
 29109  1  0  0  0
 29110  1  0  0  0
 33 34  1  0  0  0
 33 66  1  0  0  0
 33 70  2  0  0  0
 34 36  1  0  0  0
 34 59  1  0  0  0
 34111  1  0  0  0
 35 44  2  0  0  0
 35 45  1  0  0  0
 35 68  1  0  0  0
 36 56  1  0  0  0
 36112  1  0  0  0
 37 39  1  0  0  0
 37 47  1  0  0  0
 37 66  1  0  0  0
 37113  1  0  0  0
 38 43  2  0  0  0
 38 46  1  0  0  0
 38 47  1  0  0  0
 39 64  1  0  0  0
 39 67  2  0  0  0
 40 52  1  0  0  0
 40 53  2  0  0  0
 40 58  1  0  0  0
 41114  1  0  0  0
 41115  1  0  0  0
 41116  1  0  0  0
 41 48  1  0  0  0
 42 43  1  0  0  0
 42 66  1  0  0  0
 42117  1  0  0  0
 42118  1  0  0  0
 43 44  1  0  0  0
 44119  1  0  0  0
 45 46  2  0  0  0
 45120  1  0  0  0
 46121  1  0  0  0
 47122  1  0  0  0
 47123  1  0  0  0
 48 56  1  0  0  0
 48 65  1  0  0  0
 48124  1  0  0  0
 49 50  1  0  0  0
 49 53  1  0  0  0
 49 64  1  0  0  0
 49125  1  0  0  0
 50 51  1  0  0  0
 50126  1  0  0  0
 50127  1  0  0  0
 51 52  1  0  0  0
 51128  1  0  0  0
 51129  1  0  0  0
 52130  1  0  0  0
 52131  1  0  0  0
 53 54  1  0  0  0
 54 55  2  0  0  0
 54132  1  0  0  0
 55 57  1  0  0  0
 55133  1  0  0  0
 56 69  2  0  0  0
 57 58  2  0  0  0
 57134  1  0  0  0
 58135  1  0  0  0
 59 60  1  0  0  0
 59 61  1  0  0  0
 59 62  1  0  0  0
 60136  1  0  0  0
 60137  1  0  0  0
 60138  1  0  0  0
 61139  1  0  0  0
 61140  1  0  0  0
 61141  1  0  0  0
 62142  1  0  0  0
 62143  1  0  0  0
 62144  1  0  0  0
 63 65  1  0  0  0
 63145  1  0  0  0
 63146  1  0  0  0
 63147  1  0  0  0
 64148  1  0  0  0
 65149  1  0  0  0
 68 84  1  0  0  0
 71 72  2  0  0  0
 71 73  1  0  0  0
 71150  1  0  0  0
 72 75  1  0  0  0
 72151  1  0  0  0
 73 76  2  0  0  0
 73152  1  0  0  0
 74 75  2  0  0  0
 74 76  1  0  0  0
 74153  1  0  0  0
 75 79  1  0  0  0
 76 86  1  0  0  0
 77 78  1  0  0  0
 77 87  1  0  0  0
 77 89  2  0  0  0
 78154  1  0  0  0
 78155  1  0  0  0
 78156  1  0  0  0
 79 80  1  0  0  0
 79157  1  0  0  0
 79158  1  0  0  0
 80 81  1  0  0  0
 80159  1  0  0  0
 80160  1  0  0  0
 81 83  1  0  0  0
 81161  1  0  0  0
 81162  1  0  0  0
 82 88  1  0  0  0
 82163  1  0  0  0
 82164  1  0  0  0
 82 86  1  0  0  0
 83 90  1  0  0  0
 83165  1  0  0  0
 83166  1  0  0  0
 84 85  1  0  0  0
 84167  1  0  0  0
 84168  1  0  0  0
 85 90  1  0  0  0
 85169  1  0  0  0
 85170  1  0  0  0
 86 87  1  0  0  0
 86171  1  0  0  0
 87172  1  0  0  0
 88173  1  0  0  0
M  ISO  4   1 100  68 101  84 101  88 100
M  END
> <chiral flag>
0

> <version>
0

> <s_m_source_file>
/data/baiqing/PycharmProjects/Reinvent-master-3.2/result/LINK_invent/BTK/process_docking_weight1_custom_product_contain_oxygen_bond_distance_aromatic_linkinvent_7_9_3/rearranged_h_0002.sdf

> <i_m_source_file_index>
29

> <r_mmod_Potential_Energy-OPLS-2005>
-196.166366577148

> <r_mmod_Stretch_Energy-OPLS-2005>
32.5404434204102

> <r_mmod_Bend_Energy-OPLS-2005>
94.0065689086914

> <r_mmod_Torsional_Energy-OPLS-2005>
258.245880126953

> <r_mmod_Improper_Torsional_Energy-OPLS-2005>
12.1224279403687

> <r_mmod_Van_der_Waal_Energy-OPLS-2005>
144.536529541016

> <r_mmod_Electrostatic_Energy-OPLS-2005>
-524.19775390625

> <r_mmod_Solvation_Energy-OPLS-2005>
-227.983093261719

> <b_mmod_Minimization_Converged-OPLS-2005>
0

> <r_mmod_RMS_Derivative-OPLS-2005>
3.88991141319275

$$$$
29
                    3D
 Structure written by MMmdl.
141149  0  0  1  0            999 V2000
  -30.0996  -16.1278   20.2933 C   0  0  0  0  0  0
  -30.3832  -13.4557   19.5445 C   0  0  0  0  0  0
  -29.5696  -12.7948   18.3771 C   0  0  0  0  0  0
  -28.1854  -12.3278   18.8420 C   0  0  0  0  0  0
  -27.5827  -13.3611   19.8112 C   0  0  2  0  0  0
  -28.5622  -13.8923   20.8994 C   0  0  0  0  0  0
  -25.2245  -13.8357   20.5865 C   0  0  0  0  0  0
  -24.1689  -13.0438   20.9319 C   0  0  0  0  0  0
  -24.6462  -11.6972   20.8754 C   0  0  0  0  0  0
  -23.9169  -10.4299   21.0373 C   0  0  0  0  0  0
  -24.3683   -9.4212   21.9167 C   0  0  0  0  0  0
  -23.6331   -8.2259   22.0753 C   0  0  0  0  0  0
  -22.4310   -8.0298   21.3547 C   0  0  0  0  0  0
  -21.9965   -9.0272   20.4641 C   0  0  0  0  0  0
  -22.7323  -10.2138   20.3037 C   0  0  0  0  0  0
  -21.6863   -6.0749   22.5279 C   0  0  0  0  0  0
  -21.4021   -6.5648   23.8213 C   0  0  0  0  0  0
  -21.3666   -5.6796   24.9172 C   0  0  0  0  0  0
  -21.6044   -4.3058   24.7219 C   0  0  0  0  0  0
  -21.8817   -3.8155   23.4339 C   0  0  0  0  0  0
  -21.9196   -4.6974   22.3397 C   0  0  0  0  0  0
  -22.7687  -13.5129   21.1931 C   0  0  0  0  0  0
  -22.1664   -4.2159   21.0974 F   0  0  0  0  0  0
  -21.5628   -3.4539   25.7732 F   0  0  0  0  0  0
  -29.6522  -14.6704   20.2170 N   0  0  0  0  0  0
  -26.2765  -12.9795   20.3316 N   0  0  0  0  0  0
  -25.9436  -11.6806   20.5676 N   0  0  0  0  0  0
  -22.0364  -12.8097   22.0484 N   0  0  0  0  0  0
  -25.3740  -15.2107   20.4305 N   0  0  0  0  0  0
  -31.3470  -16.0009   20.1853 O   0  0  0  0  0  0
  -21.6658   -6.8903   21.4246 O   0  0  0  0  0  0
  -22.3347  -14.5416   20.6758 O   0  0  0  0  0  0
  -24.7147  -31.7601   23.1231 C   0  0  0  0  0  0
  -25.9565  -32.4273   23.7902 C   0  0  1  0  0  0
  -27.2411  -26.3562   20.2530 C   0  0  0  0  0  0
  -25.6001  -33.8119   24.1750 N   0  0  0  0  0  0
  -23.5566  -30.3453   21.4856 C   0  0  2  0  0  0
  -25.0164  -28.6102   20.1314 C   0  0  0  0  0  0
  -22.7905  -29.4094   22.4624 C   0  0  0  0  0  0
  -18.0356  -28.1437   22.8437 C   0  0  0  0  0  0
  -24.1501  -36.7082   23.2668 C   0  0  0  0  0  0
  -26.1487  -30.3764   21.4420 C   0  0  0  0  0  0
  -26.2080  -28.9009   20.8041 C   0  0  0  0  0  0
  -27.2841  -27.8129   20.8239 C   0  0  0  0  0  0
  -26.0167  -26.3654   19.5087 C   0  0  0  0  0  0
  -24.9800  -27.3714   19.4593 C   0  0  0  0  0  0
  -23.8300  -29.6091   20.1365 C   0  0  0  0  0  0
  -25.4169  -36.2789   24.0255 C   0  0  1  0  0  0
  -20.6007  -28.3810   23.1083 C   0  0  2  0  0  0
  -20.6807  -26.9438   22.5414 C   0  0  0  0  0  0
  -19.5789  -26.6357   21.5225 C   0  0  0  0  0  0
  -18.1968  -26.7959   22.1612 C   0  0  0  0  0  0
  -19.1629  -28.8956   23.2733 C   0  0  0  0  0  0
  -18.9530  -30.1532   23.8794 C   0  0  0  0  0  0
  -17.6516  -30.6612   24.0543 C   0  0  0  0  0  0
  -25.9156  -34.9182   23.4868 C   0  0  0  0  0  0
  -16.5404  -29.9088   23.6357 C   0  0  0  0  0  0
  -16.7334  -28.6513   23.0371 C   0  0  0  0  0  0
  -26.4638  -31.6462   25.0672 C   0  0  0  0  0  0
  -25.3607  -31.3859   26.1213 C   0  0  0  0  0  0
  -27.0643  -30.2773   24.6824 C   0  0  0  0  0  0
  -27.6007  -32.4417   25.7520 C   0  0  0  0  0  0
  -27.5540  -37.1728   24.8486 C   0  0  0  0  0  0
  -21.4524  -29.2991   22.3368 N   0  0  0  0  0  0
  -26.4284  -37.3568   23.9365 N   0  0  0  0  0  0
  -24.8344  -30.8695   22.0684 N   0  0  0  0  0  0
  -23.4191  -28.7753   23.3124 O   0  0  0  0  0  0
  -28.2116  -25.0178   20.2791 O   0  0  0  0  0  0
  -26.5849  -34.8821   22.4520 O   0  0  0  0  0  0
  -23.6097  -32.0834   23.5976 O   0  0  0  0  0  0
  -27.8539  -20.4015   20.2893 C   0  0  0  0  0  0
  -29.9276  -20.7736   20.2908 C   0  0  0  0  0  0
  -27.5458  -21.9724   20.2784 C   0  0  0  0  0  0
  -29.6166  -22.3428   20.2816 C   0  0  0  0  0  0
  -29.0980  -19.4718   20.2969 C   0  0  0  0  0  0
  -28.3753  -23.2749   20.2716 C   0  0  0  0  0  0
  -29.2921  -17.5943   20.3134 N   0  0  0  0  0  0
  -31.3311  -13.7934   19.1249 H   0  0  0  0  0  0
  -30.6705  -12.7078   20.2857 H   0  0  0  0  0  0
  -30.1256  -11.9610   17.9465 H   0  0  0  0  0  0
  -29.4494  -13.5270   17.5771 H   0  0  0  0  0  0
  -28.3016  -11.3740   19.3587 H   0  0  0  0  0  0
  -27.5262  -12.1465   17.9919 H   0  0  0  0  0  0
  -27.3825  -14.2170   19.1644 H   0  0  0  0  0  0
  -28.9318  -13.0918   21.5423 H   0  0  0  0  0  0
  -28.0358  -14.5789   21.5634 H   0  0  0  0  0  0
  -25.2821   -9.5683   22.4758 H   0  0  0  0  0  0
  -24.0025   -7.4656   22.7486 H   0  0  0  0  0  0
  -21.0895   -8.8805   19.8951 H   0  0  0  0  0  0
  -22.3780  -10.9677   19.6148 H   0  0  0  0  0  0
  -21.2017   -7.6156   23.9718 H   0  0  0  0  0  0
  -21.1490   -6.0526   25.9075 H   0  0  0  0  0  0
  -22.0589   -2.7617   23.2831 H   0  0  0  0  0  0
  -22.4022  -11.9785   22.4892 H   0  0  0  0  0  0
  -21.0962  -13.1075   22.2674 H   0  0  0  0  0  0
  -24.5949  -15.8513   20.5382 H   0  0  0  0  0  0
  -26.2098  -15.6569   20.0781 H   0  0  0  0  0  0
  -26.7685  -32.4663   23.0638 H   0  0  0  0  0  0
  -24.9993  -33.9100   24.9802 H   0  0  0  0  0  0
  -22.9021  -31.1913   21.2657 H   0  0  0  0  0  0
  -23.3742  -35.9441   23.3374 H   0  0  0  0  0  0
  -24.3519  -36.8715   22.2071 H   0  0  0  0  0  0
  -23.7322  -37.6292   23.6744 H   0  0  0  0  0  0
  -26.3855  -31.0740   20.6379 H   0  0  0  0  0  0
  -26.9883  -30.4591   22.1188 H   0  0  0  0  0  0
  -28.1784  -28.0601   21.3779 H   0  0  0  0  0  0
  -25.8044  -25.4574   18.9621 H   0  0  0  0  0  0
  -24.0936  -27.1355   18.8860 H   0  0  0  0  0  0
  -24.0356  -30.3537   19.3665 H   0  0  0  0  0  0
  -22.9277  -29.0941   19.8030 H   0  0  0  0  0  0
  -25.1411  -36.1524   25.0751 H   0  0  0  0  0  0
  -21.0073  -28.3463   24.1218 H   0  0  0  0  0  0
  -20.5637  -26.2445   23.3707 H   0  0  0  0  0  0
  -21.6667  -26.7330   22.1256 H   0  0  0  0  0  0
  -19.6941  -25.6237   21.1326 H   0  0  0  0  0  0
  -19.6747  -27.3107   20.6708 H   0  0  0  0  0  0
  -17.4245  -26.6704   21.4009 H   0  0  0  0  0  0
  -18.0340  -26.0130   22.9031 H   0  0  0  0  0  0
  -19.8008  -30.7368   24.2125 H   0  0  0  0  0  0
  -17.5067  -31.6281   24.5164 H   0  0  0  0  0  0
  -15.5400  -30.2957   23.7741 H   0  0  0  0  0  0
  -15.8735  -28.0797   22.7144 H   0  0  0  0  0  0
  -24.5907  -30.7077   25.7514 H   0  0  0  0  0  0
  -24.8662  -32.3090   26.4247 H   0  0  0  0  0  0
  -25.7713  -30.9314   27.0239 H   0  0  0  0  0  0
  -26.3429  -29.6270   24.1870 H   0  0  0  0  0  0
  -27.3992  -29.7365   25.5687 H   0  0  0  0  0  0
  -27.9429  -30.3834   24.0461 H   0  0  0  0  0  0
  -27.2488  -33.3825   26.1763 H   0  0  0  0  0  0
  -28.3987  -32.6813   25.0480 H   0  0  0  0  0  0
  -28.0494  -31.8786   26.5714 H   0  0  0  0  0  0
  -28.2600  -37.9970   24.7386 H   0  0  0  0  0  0
  -28.0989  -36.2482   24.6520 H   0  0  0  0  0  0
  -27.2218  -37.1608   25.8881 H   0  0  0  0  0  0
  -20.9907  -29.8597   21.6342 H   0  0  0  0  0  0
  -26.0093  -38.2628   24.1276 H   0  0  0  0  0  0
  -26.9376  -19.8287   20.2921 H   0  0  0  0  0  0
  -30.9898  -20.5739   20.2960 H   0  0  0  0  0  0
  -26.4844  -22.1755   20.2789 H   0  0  0  0  0  0
  -30.5307  -22.9191   20.2872 H   0  0  0  0  0  0
  -28.3439  -17.2471   20.3493 H   0  0  0  0  0  0
  1 25  1  0  0  0
  1 30  2  0  0  0
  1 77  1  0  0  0
  2  3  1  0  0  0
  2 25  1  0  0  0
  2 78  1  0  0  0
  2 79  1  0  0  0
  3  4  1  0  0  0
  3 80  1  0  0  0
  3 81  1  0  0  0
  4  5  1  0  0  0
  4 82  1  0  0  0
  4 83  1  0  0  0
  5  6  1  0  0  0
  5 26  1  0  0  0
  5 84  1  0  0  0
  6 25  1  0  0  0
  6 85  1  0  0  0
  6 86  1  0  0  0
  7  8  2  0  0  0
  7 26  1  0  0  0
  7 29  1  0  0  0
  8  9  1  0  0  0
  8 22  1  0  0  0
  9 10  1  0  0  0
  9 27  2  0  0  0
 10 11  2  0  0  0
 10 15  1  0  0  0
 11 12  1  0  0  0
 11 87  1  0  0  0
 12 13  2  0  0  0
 12 88  1  0  0  0
 13 14  1  0  0  0
 13 31  1  0  0  0
 14 15  2  0  0  0
 14 89  1  0  0  0
 15 90  1  0  0  0
 16 17  2  0  0  0
 16 21  1  0  0  0
 16 31  1  0  0  0
 17 18  1  0  0  0
 17 91  1  0  0  0
 18 19  2  0  0  0
 18 92  1  0  0  0
 19 20  1  0  0  0
 19 24  1  0  0  0
 20 21  2  0  0  0
 20 93  1  0  0  0
 21 23  1  0  0  0
 22 28  1  0  0  0
 22 32  2  0  0  0
 26 27  1  0  0  0
 28 94  1  0  0  0
 28 95  1  0  0  0
 29 96  1  0  0  0
 29 97  1  0  0  0
 33 34  1  0  0  0
 33 66  1  0  0  0
 33 70  2  0  0  0
 34 36  1  0  0  0
 34 59  1  0  0  0
 34 98  1  0  0  0
 35 44  2  0  0  0
 35 45  1  0  0  0
 35 68  1  0  0  0
 36 56  1  0  0  0
 36 99  1  0  0  0
 37 39  1  0  0  0
 37 47  1  0  0  0
 37 66  1  0  0  0
 37100  1  0  0  0
 38 43  2  0  0  0
 38 46  1  0  0  0
 38 47  1  0  0  0
 39 64  1  0  0  0
 39 67  2  0  0  0
 40 52  1  0  0  0
 40 53  2  0  0  0
 40 58  1  0  0  0
 41101  1  0  0  0
 41102  1  0  0  0
 41103  1  0  0  0
 41 48  1  0  0  0
 42 43  1  0  0  0
 42 66  1  0  0  0
 42104  1  0  0  0
 42105  1  0  0  0
 43 44  1  0  0  0
 44106  1  0  0  0
 45 46  2  0  0  0
 45107  1  0  0  0
 46108  1  0  0  0
 47109  1  0  0  0
 47110  1  0  0  0
 48 56  1  0  0  0
 48 65  1  0  0  0
 48111  1  0  0  0
 49 50  1  0  0  0
 49 53  1  0  0  0
 49 64  1  0  0  0
 49112  1  0  0  0
 50 51  1  0  0  0
 50113  1  0  0  0
 50114  1  0  0  0
 51 52  1  0  0  0
 51115  1  0  0  0
 51116  1  0  0  0
 52117  1  0  0  0
 52118  1  0  0  0
 53 54  1  0  0  0
 54 55  2  0  0  0
 54119  1  0  0  0
 55 57  1  0  0  0
 55120  1  0  0  0
 56 69  2  0  0  0
 57 58  2  0  0  0
 57121  1  0  0  0
 58122  1  0  0  0
 59 60  1  0  0  0
 59 61  1  0  0  0
 59 62  1  0  0  0
 60123  1  0  0  0
 60124  1  0  0  0
 60125  1  0  0  0
 61126  1  0  0  0
 61127  1  0  0  0
 61128  1  0  0  0
 62129  1  0  0  0
 62130  1  0  0  0
 62131  1  0  0  0
 63 65  1  0  0  0
 63132  1  0  0  0
 63133  1  0  0  0
 63134  1  0  0  0
 64135  1  0  0  0
 65136  1  0  0  0
 68 76  1  0  0  0
 71 73  2  0  0  0
 71 75  1  0  0  0
 71137  1  0  0  0
 72 74  1  0  0  0
 72 75  2  0  0  0
 72138  1  0  0  0
 73 76  1  0  0  0
 73139  1  0  0  0
 74 76  2  0  0  0
 74140  1  0  0  0
 75 77  1  0  0  0
 77141  1  0  0  0
M  ISO  4   1 100  68 101  76 101  77 100
M  END
> <chiral flag>
0

> <version>
0

> <s_m_source_file>
/data/baiqing/PycharmProjects/Reinvent-master-3.2/result/LINK_invent/BTK/process_docking_weight1_custom_product_contain_oxygen_bond_distance_aromatic_linkinvent_7_9_3/rearranged_h_0002.sdf

> <i_m_source_file_index>
30

> <r_mmod_Potential_Energy-OPLS-2005>
4197.39111328125

> <r_mmod_Stretch_Energy-OPLS-2005>
1611.42260742188

> <r_mmod_Bend_Energy-OPLS-2005>
1018.25030517578

> <r_mmod_Torsional_Energy-OPLS-2005>
213.763397216797

> <r_mmod_Improper_Torsional_Energy-OPLS-2005>
4.01581335067749

> <r_mmod_Van_der_Waal_Energy-OPLS-2005>
144.880767822266

> <r_mmod_Electrostatic_Energy-OPLS-2005>
-354.25341796875

> <r_mmod_Solvation_Energy-OPLS-2005>
-218.535690307617

> <b_mmod_Minimization_Converged-OPLS-2005>
0

> <r_mmod_RMS_Derivative-OPLS-2005>
0.799303591251373

$$$$
30
                    3D
 Structure written by MMmdl.
144152  0  0  1  0            999 V2000
  -30.0306  -16.3373   20.2599 C   0  0  0  0  0  0
  -30.3546  -13.6047   19.5670 C   0  0  0  0  0  0
  -29.5729  -12.8715   18.4109 C   0  0  0  0  0  0
  -28.2124  -12.3550   18.8825 C   0  0  0  0  0  0
  -27.5802  -13.3941   19.8229 C   0  0  2  0  0  0
  -28.5349  -14.0050   20.9038 C   0  0  0  0  0  0
  -25.2203  -13.8425   20.5901 C   0  0  0  0  0  0
  -24.1678  -13.0458   20.9326 C   0  0  0  0  0  0
  -24.6500  -11.7008   20.8753 C   0  0  0  0  0  0
  -23.9215  -10.4316   21.0361 C   0  0  0  0  0  0
  -24.3716   -9.4223   21.9160 C   0  0  0  0  0  0
  -23.6353   -8.2274   22.0748 C   0  0  0  0  0  0
  -22.4330   -8.0316   21.3543 C   0  0  0  0  0  0
  -21.9994   -9.0297   20.4639 C   0  0  0  0  0  0
  -22.7362  -10.2157   20.3033 C   0  0  0  0  0  0
  -21.6874   -6.0762   22.5278 C   0  0  0  0  0  0
  -21.4027   -6.5656   23.8213 C   0  0  0  0  0  0
  -21.3659   -5.6803   24.9170 C   0  0  0  0  0  0
  -21.6042   -4.3065   24.7220 C   0  0  0  0  0  0
  -21.8818   -3.8163   23.4339 C   0  0  0  0  0  0
  -21.9199   -4.6984   22.3399 C   0  0  0  0  0  0
  -22.7668  -13.5114   21.1936 C   0  0  0  0  0  0
  -22.1665   -4.2168   21.0976 F   0  0  0  0  0  0
  -21.5622   -3.4545   25.7730 F   0  0  0  0  0  0
  -29.6044  -14.8395   20.2303 N   0  0  0  0  0  0
  -26.2777  -12.9935   20.3401 N   0  0  0  0  0  0
  -25.9488  -11.6903   20.5689 N   0  0  0  0  0  0
  -22.0360  -12.8071   22.0489 N   0  0  0  0  0  0
  -25.3650  -15.2182   20.4335 N   0  0  0  0  0  0
  -31.2681  -16.1664   20.0707 O   0  0  0  0  0  0
  -21.6671   -6.8920   21.4247 O   0  0  0  0  0  0
  -22.3315  -14.5404   20.6773 O   0  0  0  0  0  0
  -24.7283  -31.7405   23.1105 C   0  0  0  0  0  0
  -25.9631  -32.4171   23.7831 C   0  0  1  0  0  0
  -27.2566  -26.2165   20.2500 C   0  0  0  0  0  0
  -25.6006  -33.8028   24.1660 N   0  0  0  0  0  0
  -23.5778  -30.3183   21.4741 C   0  0  2  0  0  0
  -25.0434  -28.5571   20.1237 C   0  0  0  0  0  0
  -22.7972  -29.3988   22.4565 C   0  0  0  0  0  0
  -18.0368  -28.1443   22.8425 C   0  0  0  0  0  0
  -24.1509  -36.7043   23.2667 C   0  0  0  0  0  0
  -26.1733  -30.3093   21.4519 C   0  0  0  0  0  0
  -26.2334  -28.8207   20.8089 C   0  0  0  0  0  0
  -27.2912  -27.6917   20.8348 C   0  0  0  0  0  0
  -26.0370  -26.2913   19.4853 C   0  0  0  0  0  0
  -25.0135  -27.3234   19.4371 C   0  0  0  0  0  0
  -23.8592  -29.5689   20.1299 C   0  0  0  0  0  0
  -25.4177  -36.2728   24.0240 C   0  0  1  0  0  0
  -20.6024  -28.3823   23.1054 C   0  0  2  0  0  0
  -20.6809  -26.9436   22.5417 C   0  0  0  0  0  0
  -19.5799  -26.6350   21.5221 C   0  0  0  0  0  0
  -18.1980  -26.7959   22.1608 C   0  0  0  0  0  0
  -19.1644  -28.8967   23.2706 C   0  0  0  0  0  0
  -18.9543  -30.1538   23.8774 C   0  0  0  0  0  0
  -17.6527  -30.6612   24.0539 C   0  0  0  0  0  0
  -25.9175  -34.9126   23.4830 C   0  0  0  0  0  0
  -16.5414  -29.9089   23.6357 C   0  0  0  0  0  0
  -16.7343  -28.6515   23.0367 C   0  0  0  0  0  0
  -26.4664  -31.6423   25.0657 C   0  0  0  0  0  0
  -25.3606  -31.3874   26.1184 C   0  0  0  0  0  0
  -27.0680  -30.2711   24.6917 C   0  0  0  0  0  0
  -27.6015  -32.4409   25.7495 C   0  0  0  0  0  0
  -27.5551  -37.1685   24.8469 C   0  0  0  0  0  0
  -21.4574  -29.2967   22.3315 N   0  0  0  0  0  0
  -26.4270  -37.3533   23.9385 N   0  0  0  0  0  0
  -24.8558  -30.8356   22.0632 N   0  0  0  0  0  0
  -23.4188  -28.7674   23.3137 O   0  0  0  0  0  0
  -28.1511  -24.7808   20.4088 O   0  0  0  0  0  0
  -26.5898  -34.8798   22.4502 O   0  0  0  0  0  0
  -23.6202  -32.0708   23.5748 O   0  0  0  0  0  0
  -29.2458  -21.5093   18.1422 C   0  0  0  0  0  0
  -28.7918  -22.7680   18.7098 C   0  0  0  0  0  0
  -28.6091  -21.3869   20.6290 C   0  0  0  0  0  0
  -29.4120  -20.1808   18.7193 C   0  0  0  0  0  0
  -29.1148  -19.7965   20.0679 C   0  0  0  0  0  0
  -28.3959  -23.0353   20.0529 C   0  0  0  0  0  0
  -29.9133  -19.0939   17.7828 C   0  0  0  0  0  0
  -29.2891  -17.8876   20.4212 N   0  0  0  0  0  0
  -31.2931  -13.9487   19.1323 H   0  0  0  0  0  0
  -30.6720  -12.8851   20.3244 H   0  0  0  0  0  0
  -30.1667  -12.0520   18.0042 H   0  0  0  0  0  0
  -29.4214  -13.5758   17.5918 H   0  0  0  0  0  0
  -28.3646  -11.4211   19.4253 H   0  0  0  0  0  0
  -27.5603  -12.1282   18.0383 H   0  0  0  0  0  0
  -27.3598  -14.2227   19.1477 H   0  0  0  0  0  0
  -28.9341  -13.2420   21.5740 H   0  0  0  0  0  0
  -27.9685  -14.6793   21.5470 H   0  0  0  0  0  0
  -25.2848   -9.5690   22.4758 H   0  0  0  0  0  0
  -24.0038   -7.4673   22.7490 H   0  0  0  0  0  0
  -21.0912   -8.8848   19.8955 H   0  0  0  0  0  0
  -22.3819  -10.9705   19.6151 H   0  0  0  0  0  0
  -21.2028   -7.6166   23.9722 H   0  0  0  0  0  0
  -21.1473   -6.0531   25.9073 H   0  0  0  0  0  0
  -22.0594   -2.7626   23.2836 H   0  0  0  0  0  0
  -22.4038  -11.9762   22.4883 H   0  0  0  0  0  0
  -21.0955  -13.1031   22.2688 H   0  0  0  0  0  0
  -24.5854  -15.8575   20.5440 H   0  0  0  0  0  0
  -26.2048  -15.6703   20.0963 H   0  0  0  0  0  0
  -26.7765  -32.4537   23.0578 H   0  0  0  0  0  0
  -24.9958  -33.8982   24.9684 H   0  0  0  0  0  0
  -22.9309  -31.1667   21.2414 H   0  0  0  0  0  0
  -23.3780  -35.9363   23.3262 H   0  0  0  0  0  0
  -24.3552  -36.8804   22.2095 H   0  0  0  0  0  0
  -23.7282  -37.6189   23.6833 H   0  0  0  0  0  0
  -26.4287  -31.0005   20.6476 H   0  0  0  0  0  0
  -27.0060  -30.3919   22.1364 H   0  0  0  0  0  0
  -28.1655  -27.9125   21.4306 H   0  0  0  0  0  0
  -25.7953  -25.3925   18.9359 H   0  0  0  0  0  0
  -24.1318  -27.1038   18.8509 H   0  0  0  0  0  0
  -24.0709  -30.3090   19.3574 H   0  0  0  0  0  0
  -22.9555  -29.0573   19.7948 H   0  0  0  0  0  0
  -25.1420  -36.1425   25.0731 H   0  0  0  0  0  0
  -21.0087  -28.3487   24.1188 H   0  0  0  0  0  0
  -20.5627  -26.2459   23.3722 H   0  0  0  0  0  0
  -21.6668  -26.7304   22.1266 H   0  0  0  0  0  0
  -19.6952  -25.6229   21.1332 H   0  0  0  0  0  0
  -19.6764  -27.3092   20.6699 H   0  0  0  0  0  0
  -17.4255  -26.6695   21.4007 H   0  0  0  0  0  0
  -18.0356  -26.0132   22.9031 H   0  0  0  0  0  0
  -19.8019  -30.7379   24.2096 H   0  0  0  0  0  0
  -17.5077  -31.6277   24.5171 H   0  0  0  0  0  0
  -15.5410  -30.2955   23.7748 H   0  0  0  0  0  0
  -15.8744  -28.0797   22.7148 H   0  0  0  0  0  0
  -24.5851  -30.7165   25.7469 H   0  0  0  0  0  0
  -24.8737  -32.3135   26.4246 H   0  0  0  0  0  0
  -25.7673  -30.9273   27.0198 H   0  0  0  0  0  0
  -26.3486  -29.6164   24.1993 H   0  0  0  0  0  0
  -27.3991  -29.7359   25.5827 H   0  0  0  0  0  0
  -27.9505  -30.3727   24.0601 H   0  0  0  0  0  0
  -27.2486  -33.3835   26.1687 H   0  0  0  0  0  0
  -28.4010  -32.6772   25.0462 H   0  0  0  0  0  0
  -28.0482  -31.8813   26.5723 H   0  0  0  0  0  0
  -28.2533  -38.0006   24.7463 H   0  0  0  0  0  0
  -28.1082  -36.2516   24.6372 H   0  0  0  0  0  0
  -27.2249  -37.1396   25.8868 H   0  0  0  0  0  0
  -20.9991  -29.8546   21.6244 H   0  0  0  0  0  0
  -26.0056  -38.2570   24.1355 H   0  0  0  0  0  0
  -29.5112  -21.5916   17.0974 H   0  0  0  0  0  0
  -28.7965  -23.6181   18.0420 H   0  0  0  0  0  0
  -28.3595  -21.3377   21.6788 H   0  0  0  0  0  0
  -30.1733  -19.4834   16.7984 H   0  0  0  0  0  0
  -29.1492  -18.3286   17.6431 H   0  0  0  0  0  0
  -30.8062  -18.6198   18.1905 H   0  0  0  0  0  0
  -28.4294  -17.6281   20.8866 H   0  0  0  0  0  0
  1 25  1  0  0  0
  1 30  2  0  0  0
  1 78  1  0  0  0
  2  3  1  0  0  0
  2 25  1  0  0  0
  2 79  1  0  0  0
  2 80  1  0  0  0
  3  4  1  0  0  0
  3 81  1  0  0  0
  3 82  1  0  0  0
  4  5  1  0  0  0
  4 83  1  0  0  0
  4 84  1  0  0  0
  5  6  1  0  0  0
  5 26  1  0  0  0
  5 85  1  0  0  0
  6 25  1  0  0  0
  6 86  1  0  0  0
  6 87  1  0  0  0
  7  8  2  0  0  0
  7 26  1  0  0  0
  7 29  1  0  0  0
  8  9  1  0  0  0
  8 22  1  0  0  0
  9 10  1  0  0  0
  9 27  2  0  0  0
 10 11  2  0  0  0
 10 15  1  0  0  0
 11 12  1  0  0  0
 11 88  1  0  0  0
 12 13  2  0  0  0
 12 89  1  0  0  0
 13 14  1  0  0  0
 13 31  1  0  0  0
 14 15  2  0  0  0
 14 90  1  0  0  0
 15 91  1  0  0  0
 16 17  2  0  0  0
 16 21  1  0  0  0
 16 31  1  0  0  0
 17 18  1  0  0  0
 17 92  1  0  0  0
 18 19  2  0  0  0
 18 93  1  0  0  0
 19 20  1  0  0  0
 19 24  1  0  0  0
 20 21  2  0  0  0
 20 94  1  0  0  0
 21 23  1  0  0  0
 22 28  1  0  0  0
 22 32  2  0  0  0
 26 27  1  0  0  0
 28 95  1  0  0  0
 28 96  1  0  0  0
 29 97  1  0  0  0
 29 98  1  0  0  0
 33 34  1  0  0  0
 33 66  1  0  0  0
 33 70  2  0  0  0
 34 36  1  0  0  0
 34 59  1  0  0  0
 34 99  1  0  0  0
 35 44  2  0  0  0
 35 45  1  0  0  0
 35 68  1  0  0  0
 36 56  1  0  0  0
 36100  1  0  0  0
 37 39  1  0  0  0
 37 47  1  0  0  0
 37 66  1  0  0  0
 37101  1  0  0  0
 38 43  2  0  0  0
 38 46  1  0  0  0
 38 47  1  0  0  0
 39 64  1  0  0  0
 39 67  2  0  0  0
 40 52  1  0  0  0
 40 53  2  0  0  0
 40 58  1  0  0  0
 41102  1  0  0  0
 41103  1  0  0  0
 41104  1  0  0  0
 41 48  1  0  0  0
 42 43  1  0  0  0
 42 66  1  0  0  0
 42105  1  0  0  0
 42106  1  0  0  0
 43 44  1  0  0  0
 44107  1  0  0  0
 45 46  2  0  0  0
 45108  1  0  0  0
 46109  1  0  0  0
 47110  1  0  0  0
 47111  1  0  0  0
 48 56  1  0  0  0
 48 65  1  0  0  0
 48112  1  0  0  0
 49 50  1  0  0  0
 49 53  1  0  0  0
 49 64  1  0  0  0
 49113  1  0  0  0
 50 51  1  0  0  0
 50114  1  0  0  0
 50115  1  0  0  0
 51 52  1  0  0  0
 51116  1  0  0  0
 51117  1  0  0  0
 52118  1  0  0  0
 52119  1  0  0  0
 53 54  1  0  0  0
 54 55  2  0  0  0
 54120  1  0  0  0
 55 57  1  0  0  0
 55121  1  0  0  0
 56 69  2  0  0  0
 57 58  2  0  0  0
 57122  1  0  0  0
 58123  1  0  0  0
 59 60  1  0  0  0
 59 61  1  0  0  0
 59 62  1  0  0  0
 60124  1  0  0  0
 60125  1  0  0  0
 60126  1  0  0  0
 61127  1  0  0  0
 61128  1  0  0  0
 61129  1  0  0  0
 62130  1  0  0  0
 62131  1  0  0  0
 62132  1  0  0  0
 63 65  1  0  0  0
 63133  1  0  0  0
 63134  1  0  0  0
 63135  1  0  0  0
 64136  1  0  0  0
 65137  1  0  0  0
 68 76  1  0  0  0
 71 72  2  0  0  0
 71 74  1  0  0  0
 71138  1  0  0  0
 72 76  1  0  0  0
 72139  1  0  0  0
 73 75  1  0  0  0
 73 76  2  0  0  0
 73140  1  0  0  0
 74 75  2  0  0  0
 74 77  1  0  0  0
 75 78  1  0  0  0
 77141  1  0  0  0
 77142  1  0  0  0
 77143  1  0  0  0
 78144  1  0  0  0
M  ISO  4   1 100  68 101  76 101  78 100
M  END
> <chiral flag>
0

> <version>
0

> <s_m_source_file>
/data/baiqing/PycharmProjects/Reinvent-master-3.2/result/LINK_invent/BTK/process_docking_weight1_custom_product_contain_oxygen_bond_distance_aromatic_linkinvent_7_9_3/rearranged_h_0002.sdf

> <i_m_source_file_index>
31

> <r_mmod_Potential_Energy-OPLS-2005>
5239.83544921875

> <r_mmod_Stretch_Energy-OPLS-2005>
2179.83447265625

> <r_mmod_Bend_Energy-OPLS-2005>
982.753479003906

> <r_mmod_Torsional_Energy-OPLS-2005>
249.817687988281

> <r_mmod_Improper_Torsional_Energy-OPLS-2005>
5.15577602386475

> <r_mmod_Van_der_Waal_Energy-OPLS-2005>
141.314712524414

> <r_mmod_Electrostatic_Energy-OPLS-2005>
-361.806823730469

> <r_mmod_Solvation_Energy-OPLS-2005>
-214.100006103516

> <b_mmod_Minimization_Converged-OPLS-2005>
0

> <r_mmod_RMS_Derivative-OPLS-2005>
0.619727611541748

$$$$
31
                    3D
 Structure written by MMmdl.
165173  0  0  1  0            999 V2000
  -30.7073  -14.3977   20.5667 C   0  0  0  0  0  0
  -30.4224  -12.2570   19.4071 C   0  0  0  0  0  0
  -29.4914  -12.4941   18.1989 C   0  0  0  0  0  0
  -28.0111  -12.3599   18.6101 C   0  0  0  0  0  0
  -27.6662  -13.1683   19.8887 C   0  0  2  0  0  0
  -28.7137  -12.9227   21.0017 C   0  0  0  0  0  0
  -25.2632  -13.8040   20.5688 C   0  0  0  0  0  0
  -24.1817  -13.0390   20.9183 C   0  0  0  0  0  0
  -24.6343  -11.6843   20.8797 C   0  0  0  0  0  0
  -23.9008  -10.4234   21.0483 C   0  0  0  0  0  0
  -24.3565   -9.4137   21.9251 C   0  0  0  0  0  0
  -23.6228   -8.2176   22.0803 C   0  0  0  0  0  0
  -22.4230   -8.0237   21.3563 C   0  0  0  0  0  0
  -21.9866   -9.0217   20.4685 C   0  0  0  0  0  0
  -22.7197  -10.2093   20.3110 C   0  0  0  0  0  0
  -21.6818   -6.0685   22.5266 C   0  0  0  0  0  0
  -21.3993   -6.5603   23.8206 C   0  0  0  0  0  0
  -21.3662   -5.6777   24.9180 C   0  0  0  0  0  0
  -21.6055   -4.3038   24.7240 C   0  0  0  0  0  0
  -21.8817   -3.8111   23.4361 C   0  0  0  0  0  0
  -21.9174   -4.6910   22.3410 C   0  0  0  0  0  0
  -22.7850  -13.5259   21.1810 C   0  0  0  0  0  0
  -22.1638   -4.2102   21.0989 F   0  0  0  0  0  0
  -21.5653   -3.4533   25.7755 F   0  0  0  0  0  0
  -30.0495  -13.2186   20.4504 N   0  0  0  0  0  0
  -26.3029  -12.9123   20.3428 N   0  0  0  0  0  0
  -25.9257  -11.6327   20.5817 N   0  0  0  0  0  0
  -22.0440  -12.8295   22.0367 N   0  0  0  0  0  0
  -25.4469  -15.1729   20.4091 N   0  0  0  0  0  0
  -31.8157  -14.6252   20.0752 O   0  0  0  0  0  0
  -21.6609   -6.8816   21.4227 O   0  0  0  0  0  0
  -22.3563  -14.5565   20.6634 O   0  0  0  0  0  0
  -24.6086  -31.8767   23.2112 C   0  0  0  0  0  0
  -25.8995  -32.4888   23.8423 C   0  0  1  0  0  0
  -27.2465  -27.5044   20.0765 C   0  0  0  0  0  0
  -25.5855  -33.8670   24.2392 N   0  0  0  0  0  0
  -23.3946  -30.4960   21.5544 C   0  0  2  0  0  0
  -24.8471  -28.9755   20.1031 C   0  0  0  0  0  0
  -22.7375  -29.4691   22.5041 C   0  0  0  0  0  0
  -18.0288  -28.1343   22.8513 C   0  0  0  0  0  0
  -24.1487  -36.7348   23.2641 C   0  0  0  0  0  0
  -25.9187  -30.8609   21.3550 C   0  0  0  0  0  0
  -26.0003  -29.5014   20.6997 C   0  0  0  0  0  0
  -27.2033  -28.7700   20.6879 C   0  0  0  0  0  0
  -26.0910  -26.9919   19.4516 C   0  0  0  0  0  0
  -24.8868  -27.7179   19.4725 C   0  0  0  0  0  0
  -23.5990  -29.8247   20.1682 C   0  0  0  0  0  0
  -25.4095  -36.3162   24.0379 C   0  0  1  0  0  0
  -20.5846  -28.3691   23.1364 C   0  0  2  0  0  0
  -20.6796  -26.9421   22.5462 C   0  0  0  0  0  0
  -19.5770  -26.6440   21.5241 C   0  0  0  0  0  0
  -18.1983  -26.7883   22.1721 C   0  0  0  0  0  0
  -19.1518  -28.8851   23.2898 C   0  0  0  0  0  0
  -18.9417  -30.1462   23.8865 C   0  0  0  0  0  0
  -17.6402  -30.6562   24.0488 C   0  0  0  0  0  0
  -25.9014  -34.9527   23.5199 C   0  0  0  0  0  0
  -16.5313  -29.9027   23.6254 C   0  0  0  0  0  0
  -16.7265  -28.6419   23.0346 C   0  0  0  0  0  0
  -26.4426  -31.6612   25.0717 C   0  0  0  0  0  0
  -25.3704  -31.3641   26.1466 C   0  0  0  0  0  0
  -27.0238  -30.3089   24.6009 C   0  0  0  0  0  0
  -27.6080  -32.4249   25.7442 C   0  0  0  0  0  0
  -27.5597  -37.1836   24.8473 C   0  0  0  0  0  0
  -21.4113  -29.3071   22.3780 N   0  0  0  0  0  0
  -26.4308  -37.3820   23.9417 N   0  0  0  0  0  0
  -24.6595  -31.0877   22.1017 N   0  0  0  0  0  0
  -23.4170  -28.8205   23.3045 O   0  0  0  0  0  0
  -28.4010  -26.7715   20.1342 O   0  0  0  0  0  0
  -26.5574  -34.8952   22.4756 O   0  0  0  0  0  0
  -23.5295  -32.1518   23.7516 O   0  0  0  0  0  0
  -25.7791  -19.6329   20.9329 C   0  0  0  0  0  0
  -24.5816  -20.5127   18.9919 C   0  0  0  0  0  0
  -25.9006  -20.9273   21.4594 C   0  0  0  0  0  0
  -24.6903  -21.8107   19.5252 C   0  0  0  0  0  0
  -25.2257  -19.4494   19.6489 C   0  0  0  0  0  0
  -25.4513  -22.0228   20.6958 C   0  0  0  0  0  0
  -25.5778  -18.2366   18.9276 C   0  0  0  0  0  0
  -26.8858  -18.0554   18.6867 C   0  0  0  0  0  0
  -25.9898  -23.3841   20.9607 C   0  0  0  0  0  0
  -27.5681  -16.8756   18.0533 C   0  0  0  0  0  0
  -28.1412  -24.3779   20.2652 C   0  0  0  0  0  0
  -30.1196  -16.7821   20.6989 C   0  0  0  0  0  0
  -28.3054  -25.6819   21.0490 C   0  0  0  0  0  0
  -29.6717  -17.0094   19.2396 C   0  0  0  0  0  0
  -27.3286  -23.3831   20.9499 N   0  0  0  0  0  0
  -29.9708  -15.3816   21.0785 N   0  0  0  0  0  0
  -25.2800  -24.3881   20.9433 O   0  0  0  0  0  0
  -28.4534  -16.3022   19.0056 O   0  0  0  0  0  0
  -31.4672  -12.3544   19.1054 H   0  0  0  0  0  0
  -30.3136  -11.2371   19.7807 H   0  0  0  0  0  0
  -29.7193  -11.7891   17.3990 H   0  0  0  0  0  0
  -29.6695  -13.4879   17.7843 H   0  0  0  0  0  0
  -27.8034  -11.3021   18.7718 H   0  0  0  0  0  0
  -27.3676  -12.6702   17.7857 H   0  0  0  0  0  0
  -27.7092  -14.2129   19.6132 H   0  0  0  0  0  0
  -28.6874  -11.8812   21.3252 H   0  0  0  0  0  0
  -28.4850  -13.5054   21.8951 H   0  0  0  0  0  0
  -25.2710   -9.5550   22.4845 H   0  0  0  0  0  0
  -23.9902   -7.4546   22.7520 H   0  0  0  0  0  0
  -21.0792   -8.8722   19.8989 H   0  0  0  0  0  0
  -22.3673  -10.9629   19.6221 H   0  0  0  0  0  0
  -21.1975   -7.6122   23.9685 H   0  0  0  0  0  0
  -21.1522   -6.0521   25.9085 H   0  0  0  0  0  0
  -22.0610   -2.7566   23.2882 H   0  0  0  0  0  0
  -22.4031  -11.9969   22.4801 H   0  0  0  0  0  0
  -21.1081  -13.1407   22.2598 H   0  0  0  0  0  0
  -24.7063  -15.8480   20.5606 H   0  0  0  0  0  0
  -26.3089  -15.5905   20.0736 H   0  0  0  0  0  0
  -26.7079  -32.5660   23.1205 H   0  0  0  0  0  0
  -24.9968  -33.9817   25.0518 H   0  0  0  0  0  0
  -22.6831  -31.3141   21.4152 H   0  0  0  0  0  0
  -23.3765  -35.9664   23.3318 H   0  0  0  0  0  0
  -24.3591  -36.8926   22.2050 H   0  0  0  0  0  0
  -23.7224  -37.6561   23.6611 H   0  0  0  0  0  0
  -26.0149  -31.6255   20.5826 H   0  0  0  0  0  0
  -26.8161  -30.9270   21.9621 H   0  0  0  0  0  0
  -28.0907  -29.1674   21.1595 H   0  0  0  0  0  0
  -26.1082  -26.0315   18.9588 H   0  0  0  0  0  0
  -24.0062  -27.3127   18.9943 H   0  0  0  0  0  0
  -23.6921  -30.6015   19.4097 H   0  0  0  0  0  0
  -22.7298  -29.2279   19.8826 H   0  0  0  0  0  0
  -25.1256  -36.2065   25.0878 H   0  0  0  0  0  0
  -20.9896  -28.3312   24.1512 H   0  0  0  0  0  0
  -20.5663  -26.2296   23.3658 H   0  0  0  0  0  0
  -21.6693  -26.7442   22.1319 H   0  0  0  0  0  0
  -19.6958  -25.6400   21.1201 H   0  0  0  0  0  0
  -19.6675  -27.3320   20.6822 H   0  0  0  0  0  0
  -17.4205  -26.6552   21.4178 H   0  0  0  0  0  0
  -18.0444  -26.0060   22.9165 H   0  0  0  0  0  0
  -19.7864  -30.7312   24.2240 H   0  0  0  0  0  0
  -17.4931  -31.6265   24.5043 H   0  0  0  0  0  0
  -15.5289  -30.2875   23.7530 H   0  0  0  0  0  0
  -15.8706  -28.0678   22.7065 H   0  0  0  0  0  0
  -24.5936  -30.6932   25.7771 H   0  0  0  0  0  0
  -24.8789  -32.2730   26.4929 H   0  0  0  0  0  0
  -25.8065  -30.8804   27.0221 H   0  0  0  0  0  0
  -26.2768  -29.6878   24.1053 H   0  0  0  0  0  0
  -27.4048  -29.7272   25.4406 H   0  0  0  0  0  0
  -27.8566  -30.4459   23.9122 H   0  0  0  0  0  0
  -27.2830  -33.3570   26.2062 H   0  0  0  0  0  0
  -28.3845  -32.6750   25.0207 H   0  0  0  0  0  0
  -28.0791  -31.8316   26.5285 H   0  0  0  0  0  0
  -28.2644  -38.0110   24.7529 H   0  0  0  0  0  0
  -28.1075  -36.2660   24.6282 H   0  0  0  0  0  0
  -27.2335  -37.1467   25.8880 H   0  0  0  0  0  0
  -20.9271  -29.8863   21.7058 H   0  0  0  0  0  0
  -26.0247  -38.2937   24.1325 H   0  0  0  0  0  0
  -26.2516  -18.8071   21.4480 H   0  0  0  0  0  0
  -24.1533  -20.3776   18.0087 H   0  0  0  0  0  0
  -26.4602  -21.0829   22.3722 H   0  0  0  0  0  0
  -24.3363  -22.6531   18.9443 H   0  0  0  0  0  0
  -24.8072  -17.5358   18.6435 H   0  0  0  0  0  0
  -27.5570  -18.8407   18.9980 H   0  0  0  0  0  0
  -28.0973  -17.1883   17.1516 H   0  0  0  0  0  0
  -26.8197  -16.1401   17.7585 H   0  0  0  0  0  0
  -29.1211  -23.9506   20.0548 H   0  0  0  0  0  0
  -27.6991  -24.5647   19.2852 H   0  0  0  0  0  0
  -29.4982  -17.3759   21.3706 H   0  0  0  0  0  0
  -31.1465  -17.1236   20.8351 H   0  0  0  0  0  0
  -27.4849  -25.8208   21.7577 H   0  0  0  0  0  0
  -29.2150  -25.6393   21.6482 H   0  0  0  0  0  0
  -30.4221  -16.6437   18.5373 H   0  0  0  0  0  0
  -29.5873  -18.0822   19.0655 H   0  0  0  0  0  0
  -27.7426  -22.4627   21.0192 H   0  0  0  0  0  0
  -29.0720  -15.1117   21.4490 H   0  0  0  0  0  0
  1 25  1  0  0  0
  1 30  2  0  0  0
  1 86  1  0  0  0
  2  3  1  0  0  0
  2 25  1  0  0  0
  2 89  1  0  0  0
  2 90  1  0  0  0
  3  4  1  0  0  0
  3 91  1  0  0  0
  3 92  1  0  0  0
  4  5  1  0  0  0
  4 93  1  0  0  0
  4 94  1  0  0  0
  5  6  1  0  0  0
  5 26  1  0  0  0
  5 95  1  0  0  0
  6 25  1  0  0  0
  6 96  1  0  0  0
  6 97  1  0  0  0
  7  8  2  0  0  0
  7 26  1  0  0  0
  7 29  1  0  0  0
  8  9  1  0  0  0
  8 22  1  0  0  0
  9 10  1  0  0  0
  9 27  2  0  0  0
 10 11  2  0  0  0
 10 15  1  0  0  0
 11 12  1  0  0  0
 11 98  1  0  0  0
 12 13  2  0  0  0
 12 99  1  0  0  0
 13 14  1  0  0  0
 13 31  1  0  0  0
 14 15  2  0  0  0
 14100  1  0  0  0
 15101  1  0  0  0
 16 17  2  0  0  0
 16 21  1  0  0  0
 16 31  1  0  0  0
 17 18  1  0  0  0
 17102  1  0  0  0
 18 19  2  0  0  0
 18103  1  0  0  0
 19 20  1  0  0  0
 19 24  1  0  0  0
 20 21  2  0  0  0
 20104  1  0  0  0
 21 23  1  0  0  0
 22 28  1  0  0  0
 22 32  2  0  0  0
 26 27  1  0  0  0
 28105  1  0  0  0
 28106  1  0  0  0
 29107  1  0  0  0
 29108  1  0  0  0
 33 34  1  0  0  0
 33 66  1  0  0  0
 33 70  2  0  0  0
 34 36  1  0  0  0
 34 59  1  0  0  0
 34109  1  0  0  0
 35 44  2  0  0  0
 35 45  1  0  0  0
 35 68  1  0  0  0
 36 56  1  0  0  0
 36110  1  0  0  0
 37 39  1  0  0  0
 37 47  1  0  0  0
 37 66  1  0  0  0
 37111  1  0  0  0
 38 43  2  0  0  0
 38 46  1  0  0  0
 38 47  1  0  0  0
 39 64  1  0  0  0
 39 67  2  0  0  0
 40 52  1  0  0  0
 40 53  2  0  0  0
 40 58  1  0  0  0
 41112  1  0  0  0
 41113  1  0  0  0
 41114  1  0  0  0
 41 48  1  0  0  0
 42 43  1  0  0  0
 42 66  1  0  0  0
 42115  1  0  0  0
 42116  1  0  0  0
 43 44  1  0  0  0
 44117  1  0  0  0
 45 46  2  0  0  0
 45118  1  0  0  0
 46119  1  0  0  0
 47120  1  0  0  0
 47121  1  0  0  0
 48 56  1  0  0  0
 48 65  1  0  0  0
 48122  1  0  0  0
 49 50  1  0  0  0
 49 53  1  0  0  0
 49 64  1  0  0  0
 49123  1  0  0  0
 50 51  1  0  0  0
 50124  1  0  0  0
 50125  1  0  0  0
 51 52  1  0  0  0
 51126  1  0  0  0
 51127  1  0  0  0
 52128  1  0  0  0
 52129  1  0  0  0
 53 54  1  0  0  0
 54 55  2  0  0  0
 54130  1  0  0  0
 55 57  1  0  0  0
 55131  1  0  0  0
 56 69  2  0  0  0
 57 58  2  0  0  0
 57132  1  0  0  0
 58133  1  0  0  0
 59 60  1  0  0  0
 59 61  1  0  0  0
 59 62  1  0  0  0
 60134  1  0  0  0
 60135  1  0  0  0
 60136  1  0  0  0
 61137  1  0  0  0
 61138  1  0  0  0
 61139  1  0  0  0
 62140  1  0  0  0
 62141  1  0  0  0
 62142  1  0  0  0
 63 65  1  0  0  0
 63143  1  0  0  0
 63144  1  0  0  0
 63145  1  0  0  0
 64146  1  0  0  0
 65147  1  0  0  0
 68 83  1  0  0  0
 71 73  2  0  0  0
 71 75  1  0  0  0
 71148  1  0  0  0
 72 74  1  0  0  0
 72 75  2  0  0  0
 72149  1  0  0  0
 73 76  1  0  0  0
 73150  1  0  0  0
 74 76  2  0  0  0
 74151  1  0  0  0
 75 77  1  0  0  0
 76 79  1  0  0  0
 77 78  2  0  0  0
 77152  1  0  0  0
 78 80  1  0  0  0
 78153  1  0  0  0
 79 85  1  0  0  0
 79 87  2  0  0  0
 80 88  1  0  0  0
 80154  1  0  0  0
 80155  1  0  0  0
 81 83  1  0  0  0
 81 85  1  0  0  0
 81156  1  0  0  0
 81157  1  0  0  0
 82 84  1  0  0  0
 82 86  1  0  0  0
 82158  1  0  0  0
 82159  1  0  0  0
 83160  1  0  0  0
 83161  1  0  0  0
 84 88  1  0  0  0
 84162  1  0  0  0
 84163  1  0  0  0
 85164  1  0  0  0
 86165  1  0  0  0
M  ISO  4   1 100  68 101  83 101  86 100
M  END
> <chiral flag>
0

> <version>
0

> <s_m_source_file>
/data/baiqing/PycharmProjects/Reinvent-master-3.2/result/LINK_invent/BTK/process_docking_weight1_custom_product_contain_oxygen_bond_distance_aromatic_linkinvent_7_9_3/rearranged_h_0002.sdf

> <i_m_source_file_index>
32

> <r_mmod_Potential_Energy-OPLS-2005>
-113.502571105957

> <r_mmod_Stretch_Energy-OPLS-2005>
30.1457939147949

> <r_mmod_Bend_Energy-OPLS-2005>
97.3570785522461

> <r_mmod_Torsional_Energy-OPLS-2005>
327.702789306641

> <r_mmod_Improper_Torsional_Energy-OPLS-2005>
16.4173755645752

> <r_mmod_Van_der_Waal_Energy-OPLS-2005>
151.862228393555

> <r_mmod_Electrostatic_Energy-OPLS-2005>
-518.271911621094

> <r_mmod_Solvation_Energy-OPLS-2005>
-229.438369750977

> <b_mmod_Minimization_Converged-OPLS-2005>
0

> <r_mmod_RMS_Derivative-OPLS-2005>
3.64194250106812

$$$$
32
                    3D
 Structure written by MMmdl.
151159  0  0  1  0            999 V2000
  -30.6108  -14.7369   20.4652 C   0  0  0  0  0  0
  -30.4303  -12.4501   19.4613 C   0  0  0  0  0  0
  -29.5092  -12.5150   18.2240 C   0  0  0  0  0  0
  -28.0329  -12.3463   18.6355 C   0  0  0  0  0  0
  -27.6403  -13.2328   19.8479 C   0  0  2  0  0  0
  -28.6879  -13.1550   20.9795 C   0  0  0  0  0  0
  -25.2497  -13.8193   20.5689 C   0  0  0  0  0  0
  -24.1799  -13.0435   20.9206 C   0  0  0  0  0  0
  -24.6398  -11.6912   20.8753 C   0  0  0  0  0  0
  -23.9079  -10.4292   21.0417 C   0  0  0  0  0  0
  -24.3631   -9.4201   21.9188 C   0  0  0  0  0  0
  -23.6308   -8.2234   22.0757 C   0  0  0  0  0  0
  -22.4287   -8.0274   21.3552 C   0  0  0  0  0  0
  -21.9919   -9.0249   20.4646 C   0  0  0  0  0  0
  -22.7255  -10.2131   20.3059 C   0  0  0  0  0  0
  -21.6853   -6.0736   22.5291 C   0  0  0  0  0  0
  -21.4009   -6.5644   23.8224 C   0  0  0  0  0  0
  -21.3658   -5.6798   24.9187 C   0  0  0  0  0  0
  -21.6049   -4.3060   24.7238 C   0  0  0  0  0  0
  -21.8812   -3.8151   23.4357 C   0  0  0  0  0  0
  -21.9192   -4.6964   22.3413 C   0  0  0  0  0  0
  -22.7822  -13.5209   21.1871 C   0  0  0  0  0  0
  -22.1660   -4.2154   21.0987 F   0  0  0  0  0  0
  -21.5634   -3.4535   25.7747 F   0  0  0  0  0  0
  -29.9861  -13.5116   20.3939 N   0  0  0  0  0  0
  -26.2928  -12.9409   20.3266 N   0  0  0  0  0  0
  -25.9322  -11.6549   20.5736 N   0  0  0  0  0  0
  -22.0474  -12.8197   22.0424 N   0  0  0  0  0  0
  -25.4157  -15.1922   20.4071 N   0  0  0  0  0  0
  -31.8076  -14.8217   20.1744 O   0  0  0  0  0  0
  -21.6643   -6.8875   21.4250 O   0  0  0  0  0  0
  -22.3494  -14.5514   20.6713 O   0  0  0  0  0  0
  -24.6315  -31.8538   23.1952 C   0  0  0  0  0  0
  -25.9134  -32.4755   23.8306 C   0  0  1  0  0  0
  -27.2287  -27.2612   20.1419 C   0  0  0  0  0  0
  -25.5939  -33.8555   24.2243 N   0  0  0  0  0  0
  -23.4291  -30.4712   21.5394 C   0  0  2  0  0  0
  -24.8790  -28.9083   20.1172 C   0  0  0  0  0  0
  -22.7498  -29.4577   22.4918 C   0  0  0  0  0  0
  -18.0293  -28.1377   22.8474 C   0  0  0  0  0  0
  -24.1498  -36.7275   23.2638 C   0  0  0  0  0  0
  -25.9726  -30.7677   21.3723 C   0  0  0  0  0  0
  -26.0492  -29.3862   20.7216 C   0  0  0  0  0  0
  -27.2298  -28.5767   20.7163 C   0  0  0  0  0  0
  -26.0371  -26.8408   19.5176 C   0  0  0  0  0  0
  -24.8772  -27.6437   19.5044 C   0  0  0  0  0  0
  -23.6486  -29.7954   20.1592 C   0  0  0  0  0  0
  -25.4130  -36.3070   24.0322 C   0  0  1  0  0  0
  -20.5895  -28.3681   23.1277 C   0  0  2  0  0  0
  -20.6776  -26.9398   22.5411 C   0  0  0  0  0  0
  -19.5758  -26.6371   21.5208 C   0  0  0  0  0  0
  -18.1939  -26.7920   22.1614 C   0  0  0  0  0  0
  -19.1545  -28.8847   23.2870 C   0  0  0  0  0  0
  -18.9463  -30.1452   23.8879 C   0  0  0  0  0  0
  -17.6460  -30.6579   24.0551 C   0  0  0  0  0  0
  -25.9065  -34.9440   23.5084 C   0  0  0  0  0  0
  -16.5352  -29.9068   23.6332 C   0  0  0  0  0  0
  -16.7278  -28.6489   23.0348 C   0  0  0  0  0  0
  -26.4508  -31.6573   25.0691 C   0  0  0  0  0  0
  -25.3734  -31.3693   26.1406 C   0  0  0  0  0  0
  -27.0353  -30.3002   24.6146 C   0  0  0  0  0  0
  -27.6080  -32.4289   25.7468 C   0  0  0  0  0  0
  -27.5587  -37.1795   24.8465 C   0  0  0  0  0  0
  -21.4208  -29.3024   22.3661 N   0  0  0  0  0  0
  -26.4302  -37.3769   23.9402 N   0  0  0  0  0  0
  -24.6966  -31.0491   22.0930 N   0  0  0  0  0  0
  -23.4192  -28.8132   23.3031 O   0  0  0  0  0  0
  -28.3401  -26.3923   20.1368 O   0  0  0  0  0  0
  -26.5625  -34.8916   22.4647 O   0  0  0  0  0  0
  -23.5464  -32.1355   23.7252 O   0  0  0  0  0  0
  -31.7791  -19.0248   21.4916 C   0  0  0  0  0  0
  -30.9240  -20.0860   21.1258 C   0  0  0  0  0  0
  -31.4139  -17.6752   21.3042 C   0  0  0  0  0  0
  -29.2982  -18.4344   20.3830 C   0  0  0  0  0  0
  -29.6543  -19.8424   20.5589 C   0  0  0  0  0  0
  -30.1678  -17.3164   20.7420 C   0  0  0  0  0  0
  -28.8016  -21.0522   20.0523 C   0  0  0  0  0  0
  -28.6137  -23.6754   19.8142 C   0  0  0  0  0  0
  -28.2221  -24.9919   20.6795 C   0  0  0  0  0  0
  -29.8175  -15.8731   20.6119 N   0  0  0  0  0  0
  -29.0181  -22.3527   20.4874 N   0  0  0  0  0  0
  -27.9350  -20.8296   19.2054 O   0  0  0  0  0  0
  -31.4735  -12.5690   19.1619 H   0  0  0  0  0  0
  -30.3648  -11.4709   19.9378 H   0  0  0  0  0  0
  -29.7881  -11.7484   17.4993 H   0  0  0  0  0  0
  -29.6415  -13.4735   17.7201 H   0  0  0  0  0  0
  -27.8719  -11.2961   18.8783 H   0  0  0  0  0  0
  -27.3838  -12.5621   17.7867 H   0  0  0  0  0  0
  -27.6343  -14.2572   19.4763 H   0  0  0  0  0  0
  -28.7234  -12.1530   21.4088 H   0  0  0  0  0  0
  -28.4304  -13.8300   21.7973 H   0  0  0  0  0  0
  -25.2778   -9.5679   22.4754 H   0  0  0  0  0  0
  -24.0027   -7.4621   22.7469 H   0  0  0  0  0  0
  -21.0851   -8.8759   19.8945 H   0  0  0  0  0  0
  -22.3709  -10.9664   19.6167 H   0  0  0  0  0  0
  -21.1989   -7.6152   23.9724 H   0  0  0  0  0  0
  -21.1498   -6.0534   25.9092 H   0  0  0  0  0  0
  -22.0594   -2.7611   23.2865 H   0  0  0  0  0  0
  -22.4094  -11.9875   22.4840 H   0  0  0  0  0  0
  -21.1078  -13.1208   22.2609 H   0  0  0  0  0  0
  -24.6384  -15.8380   20.4950 H   0  0  0  0  0  0
  -26.2490  -15.6312   20.0384 H   0  0  0  0  0  0
  -26.7189  -32.5406   23.1038 H   0  0  0  0  0  0
  -25.0109  -33.9690   25.0405 H   0  0  0  0  0  0
  -22.7261  -31.2934   21.3884 H   0  0  0  0  0  0
  -23.3772  -35.9594   23.3299 H   0  0  0  0  0  0
  -24.3585  -36.8899   22.2052 H   0  0  0  0  0  0
  -23.7236  -37.6470   23.6662 H   0  0  0  0  0  0
  -26.1057  -31.5241   20.5978 H   0  0  0  0  0  0
  -26.8520  -30.8228   22.0025 H   0  0  0  0  0  0
  -28.1319  -28.9413   21.1874 H   0  0  0  0  0  0
  -26.0012  -25.8700   19.0429 H   0  0  0  0  0  0
  -23.9804  -27.2713   19.0285 H   0  0  0  0  0  0
  -23.7736  -30.5666   19.3978 H   0  0  0  0  0  0
  -22.7672  -29.2260   19.8576 H   0  0  0  0  0  0
  -25.1319  -36.1918   25.0813 H   0  0  0  0  0  0
  -20.9990  -28.3253   24.1398 H   0  0  0  0  0  0
  -20.5676  -26.2283   23.3604 H   0  0  0  0  0  0
  -21.6645  -26.7416   22.1213 H   0  0  0  0  0  0
  -19.6923  -25.6281   21.1239 H   0  0  0  0  0  0
  -19.6719  -27.3175   20.6734 H   0  0  0  0  0  0
  -17.4214  -26.6663   21.4011 H   0  0  0  0  0  0
  -18.0344  -26.0066   22.9016 H   0  0  0  0  0  0
  -19.7936  -30.7273   24.2245 H   0  0  0  0  0  0
  -17.5010  -31.6268   24.5136 H   0  0  0  0  0  0
  -15.5347  -30.2953   23.7676 H   0  0  0  0  0  0
  -15.8682  -28.0803   22.7063 H   0  0  0  0  0  0
  -24.5932  -30.7032   25.7706 H   0  0  0  0  0  0
  -24.8901  -32.2843   26.4835 H   0  0  0  0  0  0
  -25.8059  -30.8859   27.0173 H   0  0  0  0  0  0
  -26.2914  -29.6746   24.1204 H   0  0  0  0  0  0
  -27.4087  -29.7277   25.4641 H   0  0  0  0  0  0
  -27.8767  -30.4297   23.9341 H   0  0  0  0  0  0
  -27.2724  -33.3599   26.2043 H   0  0  0  0  0  0
  -28.3902  -32.6818   25.0302 H   0  0  0  0  0  0
  -28.0726  -31.8398   26.5381 H   0  0  0  0  0  0
  -28.2605  -38.0097   24.7528 H   0  0  0  0  0  0
  -28.1088  -36.2626   24.6286 H   0  0  0  0  0  0
  -27.2295  -37.1434   25.8866 H   0  0  0  0  0  0
  -20.9392  -29.8734   21.6857 H   0  0  0  0  0  0
  -26.0185  -38.2843   24.1411 H   0  0  0  0  0  0
  -32.7464  -19.2518   21.9194 H   0  0  0  0  0  0
  -31.2726  -21.1003   21.2636 H   0  0  0  0  0  0
  -32.1187  -16.9140   21.6116 H   0  0  0  0  0  0
  -28.3384  -18.2134   19.9354 H   0  0  0  0  0  0
  -29.4737  -23.9441   19.1997 H   0  0  0  0  0  0
  -27.8079  -23.4825   19.1046 H   0  0  0  0  0  0
  -28.8750  -24.9913   21.5525 H   0  0  0  0  0  0
  -27.2218  -24.8475   21.0893 H   0  0  0  0  0  0
  -28.8304  -15.6720   20.6284 H   0  0  0  0  0  0
  -29.6825  -22.4432   21.2434 H   0  0  0  0  0  0
  1 25  1  0  0  0
  1 30  2  0  0  0
  1 80  1  0  0  0
  2  3  1  0  0  0
  2 25  1  0  0  0
  2 83  1  0  0  0
  2 84  1  0  0  0
  3  4  1  0  0  0
  3 85  1  0  0  0
  3 86  1  0  0  0
  4  5  1  0  0  0
  4 87  1  0  0  0
  4 88  1  0  0  0
  5  6  1  0  0  0
  5 26  1  0  0  0
  5 89  1  0  0  0
  6 25  1  0  0  0
  6 90  1  0  0  0
  6 91  1  0  0  0
  7  8  2  0  0  0
  7 26  1  0  0  0
  7 29  1  0  0  0
  8  9  1  0  0  0
  8 22  1  0  0  0
  9 10  1  0  0  0
  9 27  2  0  0  0
 10 11  2  0  0  0
 10 15  1  0  0  0
 11 12  1  0  0  0
 11 92  1  0  0  0
 12 13  2  0  0  0
 12 93  1  0  0  0
 13 14  1  0  0  0
 13 31  1  0  0  0
 14 15  2  0  0  0
 14 94  1  0  0  0
 15 95  1  0  0  0
 16 17  2  0  0  0
 16 21  1  0  0  0
 16 31  1  0  0  0
 17 18  1  0  0  0
 17 96  1  0  0  0
 18 19  2  0  0  0
 18 97  1  0  0  0
 19 20  1  0  0  0
 19 24  1  0  0  0
 20 21  2  0  0  0
 20 98  1  0  0  0
 21 23  1  0  0  0
 22 28  1  0  0  0
 22 32  2  0  0  0
 26 27  1  0  0  0
 28 99  1  0  0  0
 28100  1  0  0  0
 29101  1  0  0  0
 29102  1  0  0  0
 33 34  1  0  0  0
 33 66  1  0  0  0
 33 70  2  0  0  0
 34 36  1  0  0  0
 34 59  1  0  0  0
 34103  1  0  0  0
 35 44  2  0  0  0
 35 45  1  0  0  0
 35 68  1  0  0  0
 36 56  1  0  0  0
 36104  1  0  0  0
 37 39  1  0  0  0
 37 47  1  0  0  0
 37 66  1  0  0  0
 37105  1  0  0  0
 38 43  2  0  0  0
 38 46  1  0  0  0
 38 47  1  0  0  0
 39 64  1  0  0  0
 39 67  2  0  0  0
 40 52  1  0  0  0
 40 53  2  0  0  0
 40 58  1  0  0  0
 41106  1  0  0  0
 41107  1  0  0  0
 41108  1  0  0  0
 41 48  1  0  0  0
 42 43  1  0  0  0
 42 66  1  0  0  0
 42109  1  0  0  0
 42110  1  0  0  0
 43 44  1  0  0  0
 44111  1  0  0  0
 45 46  2  0  0  0
 45112  1  0  0  0
 46113  1  0  0  0
 47114  1  0  0  0
 47115  1  0  0  0
 48 56  1  0  0  0
 48 65  1  0  0  0
 48116  1  0  0  0
 49 50  1  0  0  0
 49 53  1  0  0  0
 49 64  1  0  0  0
 49117  1  0  0  0
 50 51  1  0  0  0
 50118  1  0  0  0
 50119  1  0  0  0
 51 52  1  0  0  0
 51120  1  0  0  0
 51121  1  0  0  0
 52122  1  0  0  0
 52123  1  0  0  0
 53 54  1  0  0  0
 54 55  2  0  0  0
 54124  1  0  0  0
 55 57  1  0  0  0
 55125  1  0  0  0
 56 69  2  0  0  0
 57 58  2  0  0  0
 57126  1  0  0  0
 58127  1  0  0  0
 59 60  1  0  0  0
 59 61  1  0  0  0
 59 62  1  0  0  0
 60128  1  0  0  0
 60129  1  0  0  0
 60130  1  0  0  0
 61131  1  0  0  0
 61132  1  0  0  0
 61133  1  0  0  0
 62134  1  0  0  0
 62135  1  0  0  0
 62136  1  0  0  0
 63 65  1  0  0  0
 63137  1  0  0  0
 63138  1  0  0  0
 63139  1  0  0  0
 64140  1  0  0  0
 65141  1  0  0  0
 68 79  1  0  0  0
 71 72  2  0  0  0
 71 73  1  0  0  0
 71142  1  0  0  0
 72 75  1  0  0  0
 72143  1  0  0  0
 73 76  2  0  0  0
 73144  1  0  0  0
 74 75  2  0  0  0
 74 76  1  0  0  0
 74145  1  0  0  0
 75 77  1  0  0  0
 76 80  1  0  0  0
 77 81  1  0  0  0
 77 82  2  0  0  0
 78 79  1  0  0  0
 78 81  1  0  0  0
 78146  1  0  0  0
 78147  1  0  0  0
 79148  1  0  0  0
 79149  1  0  0  0
 80150  1  0  0  0
 81151  1  0  0  0
M  ISO  4   1 100  68 101  79 101  80 100
M  END
> <chiral flag>
0

> <version>
0

> <s_m_source_file>
/data/baiqing/PycharmProjects/Reinvent-master-3.2/result/LINK_invent/BTK/process_docking_weight1_custom_product_contain_oxygen_bond_distance_aromatic_linkinvent_7_9_3/rearranged_h_0002.sdf

> <i_m_source_file_index>
33

> <r_mmod_Potential_Energy-OPLS-2005>
78.586296081543

> <r_mmod_Stretch_Energy-OPLS-2005>
125.418853759766

> <r_mmod_Bend_Energy-OPLS-2005>
158.979034423828

> <r_mmod_Torsional_Energy-OPLS-2005>
249.130096435547

> <r_mmod_Improper_Torsional_Energy-OPLS-2005>
6.98363304138184

> <r_mmod_Van_der_Waal_Energy-OPLS-2005>
135.837265014648

> <r_mmod_Electrostatic_Energy-OPLS-2005>
-442.598510742188

> <r_mmod_Solvation_Energy-OPLS-2005>
-235.281036376953

> <b_mmod_Minimization_Converged-OPLS-2005>
0

> <r_mmod_RMS_Derivative-OPLS-2005>
1.91622853279114

$$$$
33
                    3D
 Structure written by MMmdl.
161170  0  0  1  0            999 V2000
  -30.6627  -14.6015   20.4781 C   0  0  0  0  0  0
  -30.4206  -12.3375   19.4620 C   0  0  0  0  0  0
  -29.5035  -12.4972   18.2295 C   0  0  0  0  0  0
  -28.0241  -12.3511   18.6345 C   0  0  0  0  0  0
  -27.6479  -13.2252   19.8615 C   0  0  2  0  0  0
  -28.6808  -13.0850   20.9991 C   0  0  0  0  0  0
  -25.2524  -13.8206   20.5692 C   0  0  0  0  0  0
  -24.1805  -13.0455   20.9192 C   0  0  0  0  0  0
  -24.6381  -11.6931   20.8737 C   0  0  0  0  0  0
  -23.9061  -10.4303   21.0404 C   0  0  0  0  0  0
  -24.3610   -9.4219   21.9186 C   0  0  0  0  0  0
  -23.6291   -8.2249   22.0752 C   0  0  0  0  0  0
  -22.4277   -8.0281   21.3543 C   0  0  0  0  0  0
  -21.9910   -9.0256   20.4647 C   0  0  0  0  0  0
  -22.7232  -10.2141   20.3059 C   0  0  0  0  0  0
  -21.6854   -6.0738   22.5272 C   0  0  0  0  0  0
  -21.4017   -6.5637   23.8210 C   0  0  0  0  0  0
  -21.3660   -5.6787   24.9170 C   0  0  0  0  0  0
  -21.6052   -4.3054   24.7220 C   0  0  0  0  0  0
  -21.8815   -3.8145   23.4342 C   0  0  0  0  0  0
  -21.9195   -4.6961   22.3400 C   0  0  0  0  0  0
  -22.7830  -13.5231   21.1874 C   0  0  0  0  0  0
  -22.1661   -4.2150   21.0976 F   0  0  0  0  0  0
  -21.5632   -3.4537   25.7735 F   0  0  0  0  0  0
  -30.0088  -13.3530   20.4440 N   0  0  0  0  0  0
  -26.2944  -12.9399   20.3300 N   0  0  0  0  0  0
  -25.9299  -11.6547   20.5746 N   0  0  0  0  0  0
  -22.0488  -12.8203   22.0432 N   0  0  0  0  0  0
  -25.4244  -15.1924   20.4107 N   0  0  0  0  0  0
  -31.8220  -14.7737   20.0969 O   0  0  0  0  0  0
  -21.6646   -6.8885   21.4238 O   0  0  0  0  0  0
  -22.3502  -14.5542   20.6743 O   0  0  0  0  0  0
  -24.6236  -31.8611   23.2058 C   0  0  0  0  0  0
  -25.9089  -32.4789   23.8365 C   0  0  1  0  0  0
  -27.2153  -27.3342   20.1149 C   0  0  0  0  0  0
  -25.5908  -33.8597   24.2264 N   0  0  0  0  0  0
  -23.4170  -30.4858   21.5465 C   0  0  2  0  0  0
  -24.8622  -28.9479   20.1079 C   0  0  0  0  0  0
  -22.7459  -29.4626   22.4942 C   0  0  0  0  0  0
  -18.0279  -28.1383   22.8476 C   0  0  0  0  0  0
  -24.1491  -36.7290   23.2643 C   0  0  0  0  0  0
  -25.9570  -30.7985   21.3727 C   0  0  0  0  0  0
  -26.0310  -29.4295   20.7106 C   0  0  0  0  0  0
  -27.2124  -28.6318   20.7046 C   0  0  0  0  0  0
  -26.0269  -26.9035   19.4845 C   0  0  0  0  0  0
  -24.8611  -27.6909   19.4856 C   0  0  0  0  0  0
  -23.6293  -29.8252   20.1605 C   0  0  0  0  0  0
  -25.4126  -36.3089   24.0317 C   0  0  1  0  0  0
  -20.5883  -28.3679   23.1294 C   0  0  2  0  0  0
  -20.6775  -26.9406   22.5422 C   0  0  0  0  0  0
  -19.5756  -26.6389   21.5229 C   0  0  0  0  0  0
  -18.1923  -26.7924   22.1621 C   0  0  0  0  0  0
  -19.1538  -28.8847   23.2873 C   0  0  0  0  0  0
  -18.9466  -30.1444   23.8896 C   0  0  0  0  0  0
  -17.6469  -30.6583   24.0561 C   0  0  0  0  0  0
  -25.9070  -34.9461   23.5102 C   0  0  0  0  0  0
  -16.5353  -29.9086   23.6337 C   0  0  0  0  0  0
  -16.7268  -28.6507   23.0352 C   0  0  0  0  0  0
  -26.4475  -31.6617   25.0734 C   0  0  0  0  0  0
  -25.3693  -31.3747   26.1454 C   0  0  0  0  0  0
  -27.0328  -30.3051   24.6179 C   0  0  0  0  0  0
  -27.6036  -32.4361   25.7491 C   0  0  0  0  0  0
  -27.5574  -37.1799   24.8461 C   0  0  0  0  0  0
  -21.4173  -29.3031   22.3679 N   0  0  0  0  0  0
  -26.4301  -37.3777   23.9400 N   0  0  0  0  0  0
  -24.6847  -31.0629   22.1002 N   0  0  0  0  0  0
  -23.4182  -28.8151   23.3009 O   0  0  0  0  0  0
  -28.3281  -26.4873   20.1638 O   0  0  0  0  0  0
  -26.5645  -34.8909   22.4667 O   0  0  0  0  0  0
  -23.5394  -32.1409   23.7396 O   0  0  0  0  0  0
  -26.9651  -18.9130   21.3873 C   0  0  0  0  0  0
  -27.9239  -17.9005   21.2003 C   0  0  0  0  0  0
  -27.2611  -20.2539   21.0741 C   0  0  0  0  0  0
  -29.1956  -18.2013   20.6724 C   0  0  0  0  0  0
  -29.4836  -19.5796   20.3375 C   0  0  0  0  0  0
  -28.5242  -20.6347   20.5629 C   0  0  0  0  0  0
  -28.2659  -24.1751   19.0309 C   0  0  0  0  0  0
  -29.0409  -24.3610   21.3469 C   0  0  0  0  0  0
  -27.9732  -22.6504   19.2618 C   0  0  0  0  0  0
  -28.7305  -22.8426   21.5649 C   0  0  0  0  0  0
  -28.0968  -25.0315   20.3185 C   0  0  0  0  0  0
  -30.8421  -19.9151   19.7350 C   0  0  0  0  0  0
  -30.2351  -17.0450   20.5049 C   0  0  0  0  0  0
  -28.7827  -22.0308   20.3324 N   0  0  0  0  0  0
  -29.8091  -15.6728   20.7841 O   0  0  0  0  0  0
  -31.4698  -12.4400   19.1766 H   0  0  0  0  0  0
  -30.3188  -11.3386   19.8899 H   0  0  0  0  0  0
  -29.7571  -11.7563   17.4704 H   0  0  0  0  0  0
  -29.6642  -13.4745   17.7720 H   0  0  0  0  0  0
  -27.8493  -11.2995   18.8638 H   0  0  0  0  0  0
  -27.3742  -12.5898   17.7926 H   0  0  0  0  0  0
  -27.6702  -14.2629   19.5256 H   0  0  0  0  0  0
  -28.6562  -12.0780   21.4182 H   0  0  0  0  0  0
  -28.4496  -13.7644   21.8217 H   0  0  0  0  0  0
  -25.2758   -9.5698   22.4764 H   0  0  0  0  0  0
  -24.0003   -7.4643   22.7466 H   0  0  0  0  0  0
  -21.0847   -8.8780   19.8949 H   0  0  0  0  0  0
  -22.3694  -10.9682   19.6173 H   0  0  0  0  0  0
  -21.2007   -7.6147   23.9712 H   0  0  0  0  0  0
  -21.1490   -6.0523   25.9075 H   0  0  0  0  0  0
  -22.0596   -2.7610   23.2841 H   0  0  0  0  0  0
  -22.4095  -11.9827   22.4755 H   0  0  0  0  0  0
  -21.1121  -13.1246   22.2700 H   0  0  0  0  0  0
  -24.6627  -15.8525   20.5247 H   0  0  0  0  0  0
  -26.2809  -15.6256   20.0897 H   0  0  0  0  0  0
  -26.7140  -32.5458   23.1102 H   0  0  0  0  0  0
  -25.0044  -33.9752   25.0401 H   0  0  0  0  0  0
  -22.7111  -31.3065   21.4037 H   0  0  0  0  0  0
  -23.3754  -35.9623   23.3350 H   0  0  0  0  0  0
  -24.3569  -36.8900   22.2048 H   0  0  0  0  0  0
  -23.7273  -37.6509   23.6658 H   0  0  0  0  0  0
  -26.0862  -31.5677   20.6088 H   0  0  0  0  0  0
  -26.8378  -30.8445   22.0016 H   0  0  0  0  0  0
  -28.1082  -28.9915   21.1910 H   0  0  0  0  0  0
  -25.9790  -25.9427   18.9962 H   0  0  0  0  0  0
  -23.9655  -27.3193   19.0068 H   0  0  0  0  0  0
  -23.7404  -30.6035   19.4045 H   0  0  0  0  0  0
  -22.7494  -29.2511   19.8638 H   0  0  0  0  0  0
  -25.1312  -36.1936   25.0807 H   0  0  0  0  0  0
  -20.9967  -28.3276   24.1423 H   0  0  0  0  0  0
  -20.5719  -26.2273   23.3607 H   0  0  0  0  0  0
  -21.6628  -26.7466   22.1175 H   0  0  0  0  0  0
  -19.6936  -25.6314   21.1238 H   0  0  0  0  0  0
  -19.6718  -27.3211   20.6771 H   0  0  0  0  0  0
  -17.4193  -26.6683   21.4012 H   0  0  0  0  0  0
  -18.0288  -26.0080   22.9028 H   0  0  0  0  0  0
  -19.7952  -30.7245   24.2268 H   0  0  0  0  0  0
  -17.5037  -31.6273   24.5149 H   0  0  0  0  0  0
  -15.5352  -30.2983   23.7689 H   0  0  0  0  0  0
  -15.8670  -28.0835   22.7069 H   0  0  0  0  0  0
  -24.5875  -30.7103   25.7773 H   0  0  0  0  0  0
  -24.8850  -32.2891   26.4875 H   0  0  0  0  0  0
  -25.7985  -30.8925   27.0244 H   0  0  0  0  0  0
  -26.2916  -29.6801   24.1187 H   0  0  0  0  0  0
  -27.4036  -29.7303   25.4677 H   0  0  0  0  0  0
  -27.8764  -30.4367   23.9405 H   0  0  0  0  0  0
  -27.2679  -33.3683   26.2040 H   0  0  0  0  0  0
  -28.3842  -32.6913   25.0320 H   0  0  0  0  0  0
  -28.0694  -31.8508   26.5423 H   0  0  0  0  0  0
  -28.2594  -38.0085   24.7503 H   0  0  0  0  0  0
  -28.1059  -36.2616   24.6307 H   0  0  0  0  0  0
  -27.2264  -37.1488   25.8852 H   0  0  0  0  0  0
  -20.9332  -29.8766   21.6912 H   0  0  0  0  0  0
  -26.0182  -38.2852   24.1407 H   0  0  0  0  0  0
  -25.9952  -18.6573   21.7903 H   0  0  0  0  0  0
  -27.6727  -16.8853   21.4728 H   0  0  0  0  0  0
  -26.4970  -20.9968   21.2518 H   0  0  0  0  0  0
  -27.6101  -24.5470   18.2452 H   0  0  0  0  0  0
  -29.2799  -24.2928   18.6438 H   0  0  0  0  0  0
  -30.0761  -24.4787   21.0244 H   0  0  0  0  0  0
  -28.9607  -24.8797   22.3025 H   0  0  0  0  0  0
  -28.1469  -22.1071   18.3312 H   0  0  0  0  0  0
  -26.9130  -22.5282   19.4884 H   0  0  0  0  0  0
  -27.7429  -22.7529   22.0198 H   0  0  0  0  0  0
  -29.4355  -22.4322   22.2911 H   0  0  0  0  0  0
  -27.0890  -24.8724   20.7067 H   0  0  0  0  0  0
  -31.6291  -19.8284   20.4847 H   0  0  0  0  0  0
  -30.8795  -20.9250   19.3261 H   0  0  0  0  0  0
  -31.0778  -19.2410   18.9113 H   0  0  0  0  0  0
  -31.0882  -17.2719   21.1446 H   0  0  0  0  0  0
  -30.6030  -17.0759   19.4782 H   0  0  0  0  0  0
  1 25  1  0  0  0
  1 30  2  0  0  0
  1 85  1  0  0  0
  2  3  1  0  0  0
  2 25  1  0  0  0
  2 86  1  0  0  0
  2 87  1  0  0  0
  3  4  1  0  0  0
  3 88  1  0  0  0
  3 89  1  0  0  0
  4  5  1  0  0  0
  4 90  1  0  0  0
  4 91  1  0  0  0
  5  6  1  0  0  0
  5 26  1  0  0  0
  5 92  1  0  0  0
  6 25  1  0  0  0
  6 93  1  0  0  0
  6 94  1  0  0  0
  7  8  2  0  0  0
  7 26  1  0  0  0
  7 29  1  0  0  0
  8  9  1  0  0  0
  8 22  1  0  0  0
  9 10  1  0  0  0
  9 27  2  0  0  0
 10 11  2  0  0  0
 10 15  1  0  0  0
 11 12  1  0  0  0
 11 95  1  0  0  0
 12 13  2  0  0  0
 12 96  1  0  0  0
 13 14  1  0  0  0
 13 31  1  0  0  0
 14 15  2  0  0  0
 14 97  1  0  0  0
 15 98  1  0  0  0
 16 17  2  0  0  0
 16 21  1  0  0  0
 16 31  1  0  0  0
 17 18  1  0  0  0
 17 99  1  0  0  0
 18 19  2  0  0  0
 18100  1  0  0  0
 19 20  1  0  0  0
 19 24  1  0  0  0
 20 21  2  0  0  0
 20101  1  0  0  0
 21 23  1  0  0  0
 22 28  1  0  0  0
 22 32  2  0  0  0
 26 27  1  0  0  0
 28102  1  0  0  0
 28103  1  0  0  0
 29104  1  0  0  0
 29105  1  0  0  0
 33 34  1  0  0  0
 33 66  1  0  0  0
 33 70  2  0  0  0
 34 36  1  0  0  0
 34 59  1  0  0  0
 34106  1  0  0  0
 35 44  2  0  0  0
 35 45  1  0  0  0
 35 68  1  0  0  0
 36 56  1  0  0  0
 36107  1  0  0  0
 37 39  1  0  0  0
 37 47  1  0  0  0
 37 66  1  0  0  0
 37108  1  0  0  0
 38 43  2  0  0  0
 38 46  1  0  0  0
 38 47  1  0  0  0
 39 64  1  0  0  0
 39 67  2  0  0  0
 40 52  1  0  0  0
 40 53  2  0  0  0
 40 58  1  0  0  0
 41109  1  0  0  0
 41110  1  0  0  0
 41111  1  0  0  0
 41 48  1  0  0  0
 42 43  1  0  0  0
 42 66  1  0  0  0
 42112  1  0  0  0
 42113  1  0  0  0
 43 44  1  0  0  0
 44114  1  0  0  0
 45 46  2  0  0  0
 45115  1  0  0  0
 46116  1  0  0  0
 47117  1  0  0  0
 47118  1  0  0  0
 48 56  1  0  0  0
 48 65  1  0  0  0
 48119  1  0  0  0
 49 50  1  0  0  0
 49 53  1  0  0  0
 49 64  1  0  0  0
 49120  1  0  0  0
 50 51  1  0  0  0
 50121  1  0  0  0
 50122  1  0  0  0
 51 52  1  0  0  0
 51123  1  0  0  0
 51124  1  0  0  0
 52125  1  0  0  0
 52126  1  0  0  0
 53 54  1  0  0  0
 54 55  2  0  0  0
 54127  1  0  0  0
 55 57  1  0  0  0
 55128  1  0  0  0
 56 69  2  0  0  0
 57 58  2  0  0  0
 57129  1  0  0  0
 58130  1  0  0  0
 59 60  1  0  0  0
 59 61  1  0  0  0
 59 62  1  0  0  0
 60131  1  0  0  0
 60132  1  0  0  0
 60133  1  0  0  0
 61134  1  0  0  0
 61135  1  0  0  0
 61136  1  0  0  0
 62137  1  0  0  0
 62138  1  0  0  0
 62139  1  0  0  0
 63 65  1  0  0  0
 63140  1  0  0  0
 63141  1  0  0  0
 63142  1  0  0  0
 64143  1  0  0  0
 65144  1  0  0  0
 68 81  1  0  0  0
 71 72  2  0  0  0
 71 73  1  0  0  0
 71145  1  0  0  0
 72 74  1  0  0  0
 72146  1  0  0  0
 73 76  2  0  0  0
 73147  1  0  0  0
 74 75  2  0  0  0
 74 83  1  0  0  0
 75 76  1  0  0  0
 75 82  1  0  0  0
 76 84  1  0  0  0
 77 79  1  0  0  0
 77 81  1  0  0  0
 77148  1  0  0  0
 77149  1  0  0  0
 78 80  1  0  0  0
 78 81  1  0  0  0
 78150  1  0  0  0
 78151  1  0  0  0
 79 84  1  0  0  0
 79152  1  0  0  0
 79153  1  0  0  0
 80 84  1  0  0  0
 80154  1  0  0  0
 80155  1  0  0  0
 81156  1  0  0  0
 82157  1  0  0  0
 82158  1  0  0  0
 82159  1  0  0  0
 83 85  1  0  0  0
 83160  1  0  0  0
 83161  1  0  0  0
M  ISO  4   1 100  68 101  81 101  85 100
M  END
> <chiral flag>
0

> <version>
0

> <s_m_source_file>
/data/baiqing/PycharmProjects/Reinvent-master-3.2/result/LINK_invent/BTK/process_docking_weight1_custom_product_contain_oxygen_bond_distance_aromatic_linkinvent_7_9_3/rearranged_h_0002.sdf

> <i_m_source_file_index>
34

> <r_mmod_Potential_Energy-OPLS-2005>
37.2790565490723

> <r_mmod_Stretch_Energy-OPLS-2005>
74.469596862793

> <r_mmod_Bend_Energy-OPLS-2005>
113.667785644531

> <r_mmod_Torsional_Energy-OPLS-2005>
226.845153808594

> <r_mmod_Improper_Torsional_Energy-OPLS-2005>
9.73667335510254

> <r_mmod_Van_der_Waal_Energy-OPLS-2005>
149.592437744141

> <r_mmod_Electrostatic_Energy-OPLS-2005>
-385.544219970703

> <r_mmod_Solvation_Energy-OPLS-2005>
-191.836334228516

> <b_mmod_Minimization_Converged-OPLS-2005>
0

> <r_mmod_RMS_Derivative-OPLS-2005>
2.57841753959656

$$$$
34
                    3D
 Structure written by MMmdl.
165174  0  0  1  0            999 V2000
  -30.7596  -14.3880   20.6468 C   0  0  0  0  0  0
  -30.4125  -12.2876   19.4044 C   0  0  0  0  0  0
  -29.4857  -12.5177   18.1956 C   0  0  0  0  0  0
  -28.0084  -12.3738   18.6101 C   0  0  0  0  0  0
  -27.6595  -13.2075   19.8726 C   0  0  2  0  0  0
  -28.6976  -12.9687   20.9909 C   0  0  0  0  0  0
  -25.2571  -13.8184   20.5751 C   0  0  0  0  0  0
  -24.1798  -13.0441   20.9181 C   0  0  0  0  0  0
  -24.6351  -11.6914   20.8703 C   0  0  0  0  0  0
  -23.9013  -10.4293   21.0382 C   0  0  0  0  0  0
  -24.3585   -9.4211   21.9146 C   0  0  0  0  0  0
  -23.6279   -8.2240   22.0735 C   0  0  0  0  0  0
  -22.4255   -8.0268   21.3542 C   0  0  0  0  0  0
  -21.9859   -9.0238   20.4667 C   0  0  0  0  0  0
  -22.7169  -10.2130   20.3066 C   0  0  0  0  0  0
  -21.6859   -6.0725   22.5283 C   0  0  0  0  0  0
  -21.4011   -6.5631   23.8206 C   0  0  0  0  0  0
  -21.3667   -5.6792   24.9166 C   0  0  0  0  0  0
  -21.6051   -4.3054   24.7237 C   0  0  0  0  0  0
  -21.8803   -3.8132   23.4361 C   0  0  0  0  0  0
  -21.9179   -4.6944   22.3410 C   0  0  0  0  0  0
  -22.7829  -13.5249   21.1851 C   0  0  0  0  0  0
  -22.1657   -4.2128   21.0987 F   0  0  0  0  0  0
  -21.5624   -3.4535   25.7751 F   0  0  0  0  0  0
  -30.0417  -13.2524   20.4485 N   0  0  0  0  0  0
  -26.2990  -12.9352   20.3342 N   0  0  0  0  0  0
  -25.9273  -11.6502   20.5699 N   0  0  0  0  0  0
  -22.0467  -12.8250   22.0424 N   0  0  0  0  0  0
  -25.4309  -15.1914   20.4403 N   0  0  0  0  0  0
  -31.8271  -14.6240   20.0739 O   0  0  0  0  0  0
  -21.6632   -6.8859   21.4246 O   0  0  0  0  0  0
  -22.3521  -14.5554   20.6703 O   0  0  0  0  0  0
  -24.6132  -31.8688   23.2162 C   0  0  0  0  0  0
  -25.9043  -32.4808   23.8436 C   0  0  1  0  0  0
  -27.2280  -27.4589   20.0830 C   0  0  0  0  0  0
  -25.5916  -33.8616   24.2357 N   0  0  0  0  0  0
  -23.3981  -30.4935   21.5583 C   0  0  2  0  0  0
  -24.8411  -28.9666   20.1164 C   0  0  0  0  0  0
  -22.7400  -29.4644   22.5050 C   0  0  0  0  0  0
  -18.0250  -28.1351   22.8502 C   0  0  0  0  0  0
  -24.1496  -36.7292   23.2635 C   0  0  0  0  0  0
  -25.9265  -30.8371   21.3731 C   0  0  0  0  0  0
  -26.0023  -29.4810   20.7054 C   0  0  0  0  0  0
  -27.2006  -28.7371   20.6782 C   0  0  0  0  0  0
  -26.0492  -26.9569   19.4843 C   0  0  0  0  0  0
  -24.8582  -27.7016   19.5059 C   0  0  0  0  0  0
  -23.6024  -29.8294   20.1710 C   0  0  0  0  0  0
  -25.4108  -36.3097   24.0342 C   0  0  1  0  0  0
  -20.5841  -28.3627   23.1347 C   0  0  2  0  0  0
  -20.6732  -26.9369   22.5433 C   0  0  0  0  0  0
  -19.5725  -26.6364   21.5216 C   0  0  0  0  0  0
  -18.1898  -26.7901   22.1626 C   0  0  0  0  0  0
  -19.1505  -28.8809   23.2912 C   0  0  0  0  0  0
  -18.9439  -30.1411   23.8937 C   0  0  0  0  0  0
  -17.6446  -30.6577   24.0564 C   0  0  0  0  0  0
  -25.9042  -34.9465   23.5148 C   0  0  0  0  0  0
  -16.5327  -29.9086   23.6320 C   0  0  0  0  0  0
  -16.7239  -28.6484   23.0365 C   0  0  0  0  0  0
  -26.4489  -31.6607   25.0771 C   0  0  0  0  0  0
  -25.3773  -31.3736   26.1538 C   0  0  0  0  0  0
  -27.0333  -30.3038   24.6173 C   0  0  0  0  0  0
  -27.6066  -32.4340   25.7508 C   0  0  0  0  0  0
  -27.5575  -37.1801   24.8464 C   0  0  0  0  0  0
  -21.4132  -29.3004   22.3771 N   0  0  0  0  0  0
  -26.4295  -37.3764   23.9411 N   0  0  0  0  0  0
  -24.6631  -31.0800   22.1063 N   0  0  0  0  0  0
  -23.4193  -28.8163   23.3053 O   0  0  0  0  0  0
  -28.3900  -26.7219   20.1386 O   0  0  0  0  0  0
  -26.5573  -34.8902   22.4696 O   0  0  0  0  0  0
  -23.5339  -32.1438   23.7576 O   0  0  0  0  0  0
  -27.9706  -19.9106   24.2818 C   0  0  0  0  0  0
  -27.9797  -18.9296   20.6813 C   0  0  0  0  0  0
  -26.9437  -20.8740   24.2900 C   0  0  0  0  0  0
  -29.0011  -17.9602   20.6727 C   0  0  0  0  0  0
  -26.6113  -20.5518   21.8949 C   0  0  0  0  0  0
  -29.3590  -18.3055   23.0600 C   0  0  0  0  0  0
  -27.6369  -19.5844   21.8825 C   0  0  0  0  0  0
  -28.3289  -19.2680   23.0778 C   0  0  0  0  0  0
  -26.2756  -21.2133   23.0963 C   0  0  0  0  0  0
  -29.6888  -17.6405   21.8608 C   0  0  0  0  0  0
  -25.2274  -22.3131   23.1092 C   0  0  0  0  0  0
  -30.7669  -16.5736   21.8438 C   0  0  0  0  0  0
  -25.8587  -23.7119   22.9827 C   0  0  0  0  0  0
  -27.5585  -25.0373   21.7617 C   0  0  0  0  0  0
  -28.2457  -25.3161   20.3955 C   0  0  0  0  0  0
  -30.2148  -15.2690   21.4912 N   0  0  0  0  0  0
  -26.6163  -23.8905   21.7241 N   0  3  0  0  0  0
  -31.4577  -12.3735   19.1023 H   0  0  0  0  0  0
  -30.2932  -11.2745   19.7905 H   0  0  0  0  0  0
  -29.7226  -11.8111   17.3996 H   0  0  0  0  0  0
  -29.6582  -13.5115   17.7805 H   0  0  0  0  0  0
  -27.8176  -11.3160   18.7957 H   0  0  0  0  0  0
  -27.3582  -12.6547   17.7804 H   0  0  0  0  0  0
  -27.7105  -14.2585   19.5867 H   0  0  0  0  0  0
  -28.6581  -11.9318   21.3304 H   0  0  0  0  0  0
  -28.4490  -13.5611   21.8705 H   0  0  0  0  0  0
  -25.2758   -9.5689   22.4660 H   0  0  0  0  0  0
  -24.0021   -7.4626   22.7440 H   0  0  0  0  0  0
  -21.0785   -8.8730   19.8989 H   0  0  0  0  0  0
  -22.3611  -10.9628   19.6147 H   0  0  0  0  0  0
  -21.2015   -7.6142   23.9703 H   0  0  0  0  0  0
  -21.1522   -6.0532   25.9072 H   0  0  0  0  0  0
  -22.0579   -2.7593   23.2867 H   0  0  0  0  0  0
  -22.4166  -11.9993   22.4883 H   0  0  0  0  0  0
  -21.1056  -13.1223   22.2590 H   0  0  0  0  0  0
  -24.6890  -15.8491   20.6548 H   0  0  0  0  0  0
  -26.3185  -15.6394   20.2510 H   0  0  0  0  0  0
  -26.7101  -32.5499   23.1189 H   0  0  0  0  0  0
  -25.0122  -33.9791   25.0533 H   0  0  0  0  0  0
  -22.6826  -31.3070   21.4253 H   0  0  0  0  0  0
  -23.3751  -35.9638   23.3341 H   0  0  0  0  0  0
  -24.3589  -36.8846   22.2042 H   0  0  0  0  0  0
  -23.7248  -37.6515   23.6612 H   0  0  0  0  0  0
  -26.0526  -31.6152   20.6202 H   0  0  0  0  0  0
  -26.8062  -30.8680   22.0036 H   0  0  0  0  0  0
  -28.0995  -29.1299   21.1335 H   0  0  0  0  0  0
  -26.0284  -25.9962   18.9924 H   0  0  0  0  0  0
  -23.9639  -27.2989   19.0499 H   0  0  0  0  0  0
  -23.7102  -30.6060   19.4122 H   0  0  0  0  0  0
  -22.7244  -29.2492   19.8827 H   0  0  0  0  0  0
  -25.1280  -36.1981   25.0829 H   0  0  0  0  0  0
  -20.9910  -28.3184   24.1481 H   0  0  0  0  0  0
  -20.5620  -26.2243   23.3613 H   0  0  0  0  0  0
  -21.6600  -26.7407   22.1234 H   0  0  0  0  0  0
  -19.6895  -25.6285   21.1220 H   0  0  0  0  0  0
  -19.6660  -27.3208   20.6775 H   0  0  0  0  0  0
  -17.4160  -26.6651   21.4026 H   0  0  0  0  0  0
  -18.0301  -26.0018   22.9006 H   0  0  0  0  0  0
  -19.7913  -30.7189   24.2354 H   0  0  0  0  0  0
  -17.5008  -31.6278   24.5131 H   0  0  0  0  0  0
  -15.5339  -30.3015   23.7610 H   0  0  0  0  0  0
  -15.8622  -28.0809   22.7105 H   0  0  0  0  0  0
  -24.5880  -30.7145   25.7909 H   0  0  0  0  0  0
  -24.9049  -32.2923   26.5053 H   0  0  0  0  0  0
  -25.8142  -30.8850   27.0256 H   0  0  0  0  0  0
  -26.2918  -29.6794   24.1166 H   0  0  0  0  0  0
  -27.4036  -29.7269   25.4663 H   0  0  0  0  0  0
  -27.8786  -30.4362   23.9401 H   0  0  0  0  0  0
  -27.2663  -33.3583   26.2198 H   0  0  0  0  0  0
  -28.3808  -32.7005   25.0301 H   0  0  0  0  0  0
  -28.0827  -31.8408   26.5327 H   0  0  0  0  0  0
  -28.2594  -38.0089   24.7479 H   0  0  0  0  0  0
  -28.1059  -36.2616   24.6334 H   0  0  0  0  0  0
  -27.2292  -37.1504   25.8862 H   0  0  0  0  0  0
  -20.9301  -29.8761   21.7007 H   0  0  0  0  0  0
  -26.0194  -38.2843   24.1413 H   0  0  0  0  0  0
  -28.4736  -19.6723   25.2071 H   0  0  0  0  0  0
  -27.4559  -19.1616   19.7638 H   0  0  0  0  0  0
  -26.6796  -21.3606   25.2179 H   0  0  0  0  0  0
  -29.2618  -17.4586   19.7500 H   0  0  0  0  0  0
  -26.0925  -20.7935   20.9775 H   0  0  0  0  0  0
  -29.8959  -18.0727   23.9696 H   0  0  0  0  0  0
  -24.6689  -22.2605   24.0469 H   0  0  0  0  0  0
  -24.4977  -22.1412   22.3172 H   0  0  0  0  0  0
  -31.5382  -16.8909   21.1399 H   0  0  0  0  0  0
  -31.2480  -16.5064   22.8202 H   0  0  0  0  0  0
  -26.5292  -23.8683   23.8280 H   0  0  0  0  0  0
  -25.0874  -24.4808   23.0471 H   0  0  0  0  0  0
  -28.3208  -24.8450   22.5188 H   0  0  0  0  0  0
  -27.0083  -25.9114   22.1143 H   0  0  0  0  0  0
  -27.7371  -24.8251   19.5656 H   0  0  0  0  0  0
  -29.2436  -24.8751   20.4082 H   0  0  0  0  0  0
  -29.3148  -15.0274   21.8786 H   0  0  0  0  0  0
  -27.1259  -23.0379   21.5480 H   0  0  0  0  0  0
  -25.9476  -24.0122   20.9777 H   0  0  0  0  0  0
  1 25  1  0  0  0
  1 30  2  0  0  0
  1 86  1  0  0  0
  2  3  1  0  0  0
  2 25  1  0  0  0
  2 88  1  0  0  0
  2 89  1  0  0  0
  3  4  1  0  0  0
  3 90  1  0  0  0
  3 91  1  0  0  0
  4  5  1  0  0  0
  4 92  1  0  0  0
  4 93  1  0  0  0
  5  6  1  0  0  0
  5 26  1  0  0  0
  5 94  1  0  0  0
  6 25  1  0  0  0
  6 95  1  0  0  0
  6 96  1  0  0  0
  7  8  2  0  0  0
  7 26  1  0  0  0
  7 29  1  0  0  0
  8  9  1  0  0  0
  8 22  1  0  0  0
  9 10  1  0  0  0
  9 27  2  0  0  0
 10 11  2  0  0  0
 10 15  1  0  0  0
 11 12  1  0  0  0
 11 97  1  0  0  0
 12 13  2  0  0  0
 12 98  1  0  0  0
 13 14  1  0  0  0
 13 31  1  0  0  0
 14 15  2  0  0  0
 14 99  1  0  0  0
 15100  1  0  0  0
 16 17  2  0  0  0
 16 21  1  0  0  0
 16 31  1  0  0  0
 17 18  1  0  0  0
 17101  1  0  0  0
 18 19  2  0  0  0
 18102  1  0  0  0
 19 20  1  0  0  0
 19 24  1  0  0  0
 20 21  2  0  0  0
 20103  1  0  0  0
 21 23  1  0  0  0
 22 28  1  0  0  0
 22 32  2  0  0  0
 26 27  1  0  0  0
 28104  1  0  0  0
 28105  1  0  0  0
 29106  1  0  0  0
 29107  1  0  0  0
 33 34  1  0  0  0
 33 66  1  0  0  0
 33 70  2  0  0  0
 34 36  1  0  0  0
 34 59  1  0  0  0
 34108  1  0  0  0
 35 44  2  0  0  0
 35 45  1  0  0  0
 35 68  1  0  0  0
 36 56  1  0  0  0
 36109  1  0  0  0
 37 39  1  0  0  0
 37 47  1  0  0  0
 37 66  1  0  0  0
 37110  1  0  0  0
 38 43  2  0  0  0
 38 46  1  0  0  0
 38 47  1  0  0  0
 39 64  1  0  0  0
 39 67  2  0  0  0
 40 52  1  0  0  0
 40 53  2  0  0  0
 40 58  1  0  0  0
 41111  1  0  0  0
 41112  1  0  0  0
 41113  1  0  0  0
 41 48  1  0  0  0
 42 43  1  0  0  0
 42 66  1  0  0  0
 42114  1  0  0  0
 42115  1  0  0  0
 43 44  1  0  0  0
 44116  1  0  0  0
 45 46  2  0  0  0
 45117  1  0  0  0
 46118  1  0  0  0
 47119  1  0  0  0
 47120  1  0  0  0
 48 56  1  0  0  0
 48 65  1  0  0  0
 48121  1  0  0  0
 49 50  1  0  0  0
 49 53  1  0  0  0
 49 64  1  0  0  0
 49122  1  0  0  0
 50 51  1  0  0  0
 50123  1  0  0  0
 50124  1  0  0  0
 51 52  1  0  0  0
 51125  1  0  0  0
 51126  1  0  0  0
 52127  1  0  0  0
 52128  1  0  0  0
 53 54  1  0  0  0
 54 55  2  0  0  0
 54129  1  0  0  0
 55 57  1  0  0  0
 55130  1  0  0  0
 56 69  2  0  0  0
 57 58  2  0  0  0
 57131  1  0  0  0
 58132  1  0  0  0
 59 60  1  0  0  0
 59 61  1  0  0  0
 59 62  1  0  0  0
 60133  1  0  0  0
 60134  1  0  0  0
 60135  1  0  0  0
 61136  1  0  0  0
 61137  1  0  0  0
 61138  1  0  0  0
 62139  1  0  0  0
 62140  1  0  0  0
 62141  1  0  0  0
 63 65  1  0  0  0
 63142  1  0  0  0
 63143  1  0  0  0
 63144  1  0  0  0
 64145  1  0  0  0
 65146  1  0  0  0
 68 85  1  0  0  0
 71 73  2  0  0  0
 71 78  1  0  0  0
 71147  1  0  0  0
 72 74  1  0  0  0
 72 77  2  0  0  0
 72148  1  0  0  0
 73 79  1  0  0  0
 73149  1  0  0  0
 74 80  2  0  0  0
 74150  1  0  0  0
 75 77  1  0  0  0
 75 79  2  0  0  0
 75151  1  0  0  0
 76 78  2  0  0  0
 76 80  1  0  0  0
 76152  1  0  0  0
 77 78  1  0  0  0
 79 81  1  0  0  0
 80 82  1  0  0  0
 81 83  1  0  0  0
 81153  1  0  0  0
 81154  1  0  0  0
 82 86  1  0  0  0
 82155  1  0  0  0
 82156  1  0  0  0
 83 87  1  0  0  0
 83157  1  0  0  0
 83158  1  0  0  0
 84 85  1  0  0  0
 84 87  1  0  0  0
 84159  1  0  0  0
 84160  1  0  0  0
 85161  1  0  0  0
 85162  1  0  0  0
 86163  1  0  0  0
 87164  1  0  0  0
 87165  1  0  0  0
M  CHG  1  87   1
M  ISO  4   1 100  68 101  85 101  86 100
M  END
> <chiral flag>
0

> <version>
0

> <s_m_source_file>
/data/baiqing/PycharmProjects/Reinvent-master-3.2/result/LINK_invent/BTK/process_docking_weight1_custom_product_contain_oxygen_bond_distance_aromatic_linkinvent_7_9_3/rearranged_h_0002.sdf

> <i_m_source_file_index>
35

> <r_mmod_Potential_Energy-OPLS-2005>
-249.39338684082

> <r_mmod_Stretch_Energy-OPLS-2005>
33.3964424133301

> <r_mmod_Bend_Energy-OPLS-2005>
85.2238082885742

> <r_mmod_Torsional_Energy-OPLS-2005>
218.229400634766

> <r_mmod_Improper_Torsional_Energy-OPLS-2005>
1.93756139278412

> <r_mmod_Van_der_Waal_Energy-OPLS-2005>
168.869934082031

> <r_mmod_Electrostatic_Energy-OPLS-2005>
-327.335021972656

> <r_mmod_Solvation_Energy-OPLS-2005>
-439.423614501953

> <b_mmod_Minimization_Converged-OPLS-2005>
0

> <r_mmod_RMS_Derivative-OPLS-2005>
3.61120295524597

$$$$
35
                    3D
 Structure written by MMmdl.
156164  0  0  1  0            999 V2000
  -30.2907  -15.6647   20.3226 C   0  0  0  0  0  0
  -30.4217  -13.1025   19.5423 C   0  0  0  0  0  0
  -29.5520  -12.6647   18.3281 C   0  0  0  0  0  0
  -28.1273  -12.3021   18.7718 C   0  0  0  0  0  0
  -27.5950  -13.3116   19.8128 C   0  0  2  0  0  0
  -28.6077  -13.6582   20.9306 C   0  0  0  0  0  0
  -25.2321  -13.8292   20.5796 C   0  0  0  0  0  0
  -24.1715  -13.0438   20.9289 C   0  0  0  0  0  0
  -24.6422  -11.6949   20.8765 C   0  0  0  0  0  0
  -23.9126  -10.4298   21.0398 C   0  0  0  0  0  0
  -24.3657   -9.4209   21.9178 C   0  0  0  0  0  0
  -23.6313   -8.2254   22.0757 C   0  0  0  0  0  0
  -22.4295   -8.0295   21.3546 C   0  0  0  0  0  0
  -21.9941   -9.0273   20.4647 C   0  0  0  0  0  0
  -22.7289  -10.2141   20.3050 C   0  0  0  0  0  0
  -21.6862   -6.0746   22.5276 C   0  0  0  0  0  0
  -21.4021   -6.5646   23.8212 C   0  0  0  0  0  0
  -21.3660   -5.6797   24.9171 C   0  0  0  0  0  0
  -21.6043   -4.3060   24.7221 C   0  0  0  0  0  0
  -21.8818   -3.8154   23.4342 C   0  0  0  0  0  0
  -21.9195   -4.6972   22.3398 C   0  0  0  0  0  0
  -22.7725  -13.5170   21.1920 C   0  0  0  0  0  0
  -22.1660   -4.2157   21.0976 F   0  0  0  0  0  0
  -21.5623   -3.4539   25.7731 F   0  0  0  0  0  0
  -29.7785  -14.2896   20.2747 N   0  0  0  0  0  0
  -26.2774  -12.9629   20.3238 N   0  0  0  0  0  0
  -25.9371  -11.6697   20.5707 N   0  0  0  0  0  0
  -22.0391  -12.8147   22.0475 N   0  0  0  0  0  0
  -25.3913  -15.2032   20.4228 N   0  0  0  0  0  0
  -31.5246  -15.6011   20.1547 O   0  0  0  0  0  0
  -21.6650   -6.8894   21.4241 O   0  0  0  0  0  0
  -22.3402  -14.5470   20.6762 O   0  0  0  0  0  0
  -24.6865  -31.7957   23.1485 C   0  0  0  0  0  0
  -25.9426  -32.4445   23.8045 C   0  0  1  0  0  0
  -27.2301  -26.6739   20.2104 C   0  0  0  0  0  0
  -25.5993  -33.8275   24.1927 N   0  0  0  0  0  0
  -23.5143  -30.3954   21.5029 C   0  0  2  0  0  0
  -24.9734  -28.7313   20.1147 C   0  0  0  0  0  0
  -22.7779  -29.4287   22.4702 C   0  0  0  0  0  0
  -18.0338  -28.1422   22.8449 C   0  0  0  0  0  0
  -24.1499  -36.7145   23.2656 C   0  0  0  0  0  0
  -26.0964  -30.5179   21.4189 C   0  0  0  0  0  0
  -26.1617  -29.0806   20.7669 C   0  0  0  0  0  0
  -27.2718  -28.0790   20.7838 C   0  0  0  0  0  0
  -26.0109  -26.5432   19.4958 C   0  0  0  0  0  0
  -24.9390  -27.4894   19.4556 C   0  0  0  0  0  0
  -23.7701  -29.6896   20.1389 C   0  0  0  0  0  0
  -25.4151  -36.2884   24.0280 C   0  0  1  0  0  0
  -20.5974  -28.3785   23.1138 C   0  0  2  0  0  0
  -20.6802  -26.9442   22.5407 C   0  0  0  0  0  0
  -19.5782  -26.6369   21.5216 C   0  0  0  0  0  0
  -18.1963  -26.7948   22.1616 C   0  0  0  0  0  0
  -19.1603  -28.8929   23.2773 C   0  0  0  0  0  0
  -18.9511  -30.1510   23.8823 C   0  0  0  0  0  0
  -17.6502  -30.6606   24.0545 C   0  0  0  0  0  0
  -25.9130  -34.9274   23.4943 C   0  0  0  0  0  0
  -16.5391  -29.9089   23.6350 C   0  0  0  0  0  0
  -16.7317  -28.6510   23.0366 C   0  0  0  0  0  0
  -26.4596  -31.6495   25.0684 C   0  0  0  0  0  0
  -25.3651  -31.3819   26.1288 C   0  0  0  0  0  0
  -27.0532  -30.2826   24.6614 C   0  0  0  0  0  0
  -27.6038  -32.4367   25.7504 C   0  0  0  0  0  0
  -27.5563  -37.1731   24.8468 C   0  0  0  0  0  0
  -21.4421  -29.3023   22.3455 N   0  0  0  0  0  0
  -26.4275  -37.3646   23.9404 N   0  0  0  0  0  0
  -24.7894  -30.9371   22.0759 N   0  0  0  0  0  0
  -23.4204  -28.7899   23.3065 O   0  0  0  0  0  0
  -28.1821  -25.4386   20.3181 O   0  0  0  0  0  0
  -26.5781  -34.8857   22.4566 O   0  0  0  0  0  0
  -23.5876  -32.1052   23.6415 O   0  0  0  0  0  0
  -27.3143  -20.8103   22.4357 C   0  0  0  0  0  0
  -27.5359  -20.1211   21.2274 C   0  0  0  0  0  0
  -29.0677  -22.4237   21.8965 C   0  0  0  0  0  0
  -28.1657  -21.8654   22.8354 C   0  0  0  0  0  0
  -28.6622  -20.4586   20.4470 C   0  0  0  0  0  0
  -28.8634  -22.1044   20.5435 C   0  0  0  0  0  0
  -28.4760  -23.8793   24.4204 C   0  0  0  0  0  0
  -28.7060  -21.5021   25.2689 C   0  0  0  0  0  0
  -29.6028  -18.8310   20.2477 C   0  0  0  0  0  0
  -28.0344  -23.6974   20.0048 C   0  0  0  0  0  0
  -28.0155  -22.4205   24.2518 C   0  0  0  0  0  0
  -29.5214  -17.0319   20.3716 N   0  0  0  0  0  0
  -31.4130  -13.3681   19.1742 H   0  0  0  0  0  0
  -30.5893  -12.2639   20.2200 H   0  0  0  0  0  0
  -30.0127  -11.8229   17.8093 H   0  0  0  0  0  0
  -29.5079  -13.4830   17.6081 H   0  0  0  0  0  0
  -28.1591  -11.3057   19.2139 H   0  0  0  0  0  0
  -27.4588  -12.2400   17.9125 H   0  0  0  0  0  0
  -27.4540  -14.2294   19.2401 H   0  0  0  0  0  0
  -28.8726  -12.7816   21.5236 H   0  0  0  0  0  0
  -28.1683  -14.3773   21.6241 H   0  0  0  0  0  0
  -25.2793   -9.5681   22.4771 H   0  0  0  0  0  0
  -24.0009   -7.4647   22.7486 H   0  0  0  0  0  0
  -21.0871   -8.8807   19.8954 H   0  0  0  0  0  0
  -22.3748  -10.9685   19.6167 H   0  0  0  0  0  0
  -21.2020   -7.6154   23.9716 H   0  0  0  0  0  0
  -21.1477   -6.0526   25.9073 H   0  0  0  0  0  0
  -22.0597   -2.7616   23.2838 H   0  0  0  0  0  0
  -22.4029  -11.9815   22.4851 H   0  0  0  0  0  0
  -21.0998  -13.1144   22.2682 H   0  0  0  0  0  0
  -24.6174  -15.8491   20.5356 H   0  0  0  0  0  0
  -26.2257  -15.6435   20.0601 H   0  0  0  0  0  0
  -26.7514  -32.4901   23.0762 H   0  0  0  0  0  0
  -25.0035  -33.9310   25.0008 H   0  0  0  0  0  0
  -22.8414  -31.2331   21.3096 H   0  0  0  0  0  0
  -23.3780  -35.9456   23.3275 H   0  0  0  0  0  0
  -24.3564  -36.8851   22.2079 H   0  0  0  0  0  0
  -23.7240  -37.6306   23.6762 H   0  0  0  0  0  0
  -26.3034  -31.2427   20.6305 H   0  0  0  0  0  0
  -26.9461  -30.5851   22.0858 H   0  0  0  0  0  0
  -28.1622  -28.3497   21.3341 H   0  0  0  0  0  0
  -25.8398  -25.6031   18.9913 H   0  0  0  0  0  0
  -24.0428  -27.2133   18.9166 H   0  0  0  0  0  0
  -23.9459  -30.4489   19.3761 H   0  0  0  0  0  0
  -22.8744  -29.1568   19.8146 H   0  0  0  0  0  0
  -25.1361  -36.1647   25.0771 H   0  0  0  0  0  0
  -21.0048  -28.3414   24.1265 H   0  0  0  0  0  0
  -20.5659  -26.2411   23.3669 H   0  0  0  0  0  0
  -21.6665  -26.7377   22.1229 H   0  0  0  0  0  0
  -19.6946  -25.6259   21.1296 H   0  0  0  0  0  0
  -19.6733  -27.3137   20.6710 H   0  0  0  0  0  0
  -17.4230  -26.6681   21.4022 H   0  0  0  0  0  0
  -18.0359  -26.0111   22.9034 H   0  0  0  0  0  0
  -19.7987  -30.7339   24.2167 H   0  0  0  0  0  0
  -17.5054  -31.6278   24.5162 H   0  0  0  0  0  0
  -15.5388  -30.2967   23.7720 H   0  0  0  0  0  0
  -15.8712  -28.0802   22.7130 H   0  0  0  0  0  0
  -24.5882  -30.7118   25.7591 H   0  0  0  0  0  0
  -24.8789  -32.3037   26.4486 H   0  0  0  0  0  0
  -25.7825  -30.9138   27.0211 H   0  0  0  0  0  0
  -26.3254  -29.6430   24.1613 H   0  0  0  0  0  0
  -27.3944  -29.7286   25.5370 H   0  0  0  0  0  0
  -27.9240  -30.3941   24.0155 H   0  0  0  0  0  0
  -27.2575  -33.3746   26.1857 H   0  0  0  0  0  0
  -28.3963  -32.6802   25.0416 H   0  0  0  0  0  0
  -28.0579  -31.8645   26.5604 H   0  0  0  0  0  0
  -28.2551  -38.0054   24.7502 H   0  0  0  0  0  0
  -28.1086  -36.2570   24.6312 H   0  0  0  0  0  0
  -27.2271  -37.1385   25.8869 H   0  0  0  0  0  0
  -20.9738  -29.8668   21.6504 H   0  0  0  0  0  0
  -26.0101  -38.2696   24.1407 H   0  0  0  0  0  0
  -26.5764  -20.4251   23.1266 H   0  0  0  0  0  0
  -27.0802  -19.1437   21.1448 H   0  0  0  0  0  0
  -29.4991  -23.3842   22.1356 H   0  0  0  0  0  0
  -27.9775  -24.5390   23.7085 H   0  0  0  0  0  0
  -29.5532  -23.9853   24.2869 H   0  0  0  0  0  0
  -28.2402  -24.2457   25.4202 H   0  0  0  0  0  0
  -28.2975  -20.4921   25.2287 H   0  0  0  0  0  0
  -28.5693  -21.8669   26.2873 H   0  0  0  0  0  0
  -29.7774  -21.4350   25.0782 H   0  0  0  0  0  0
  -28.7589  -18.6163   19.5915 H   0  0  0  0  0  0
  -29.5883  -18.7757   21.3366 H   0  0  0  0  0  0
  -26.9823  -23.5028   20.2140 H   0  0  0  0  0  0
  -28.0939  -23.6419   18.9178 H   0  0  0  0  0  0
  -26.9470  -22.4103   24.4753 H   0  0  0  0  0  0
  -28.5495  -16.7870   20.4930 H   0  0  0  0  0  0
  1 25  1  0  0  0
  1 30  2  0  0  0
  1 82  1  0  0  0
  2  3  1  0  0  0
  2 25  1  0  0  0
  2 83  1  0  0  0
  2 84  1  0  0  0
  3  4  1  0  0  0
  3 85  1  0  0  0
  3 86  1  0  0  0
  4  5  1  0  0  0
  4 87  1  0  0  0
  4 88  1  0  0  0
  5  6  1  0  0  0
  5 26  1  0  0  0
  5 89  1  0  0  0
  6 25  1  0  0  0
  6 90  1  0  0  0
  6 91  1  0  0  0
  7  8  2  0  0  0
  7 26  1  0  0  0
  7 29  1  0  0  0
  8  9  1  0  0  0
  8 22  1  0  0  0
  9 10  1  0  0  0
  9 27  2  0  0  0
 10 11  2  0  0  0
 10 15  1  0  0  0
 11 12  1  0  0  0
 11 92  1  0  0  0
 12 13  2  0  0  0
 12 93  1  0  0  0
 13 14  1  0  0  0
 13 31  1  0  0  0
 14 15  2  0  0  0
 14 94  1  0  0  0
 15 95  1  0  0  0
 16 17  2  0  0  0
 16 21  1  0  0  0
 16 31  1  0  0  0
 17 18  1  0  0  0
 17 96  1  0  0  0
 18 19  2  0  0  0
 18 97  1  0  0  0
 19 20  1  0  0  0
 19 24  1  0  0  0
 20 21  2  0  0  0
 20 98  1  0  0  0
 21 23  1  0  0  0
 22 28  1  0  0  0
 22 32  2  0  0  0
 26 27  1  0  0  0
 28 99  1  0  0  0
 28100  1  0  0  0
 29101  1  0  0  0
 29102  1  0  0  0
 33 34  1  0  0  0
 33 66  1  0  0  0
 33 70  2  0  0  0
 34 36  1  0  0  0
 34 59  1  0  0  0
 34103  1  0  0  0
 35 44  2  0  0  0
 35 45  1  0  0  0
 35 68  1  0  0  0
 36 56  1  0  0  0
 36104  1  0  0  0
 37 39  1  0  0  0
 37 47  1  0  0  0
 37 66  1  0  0  0
 37105  1  0  0  0
 38 43  2  0  0  0
 38 46  1  0  0  0
 38 47  1  0  0  0
 39 64  1  0  0  0
 39 67  2  0  0  0
 40 52  1  0  0  0
 40 53  2  0  0  0
 40 58  1  0  0  0
 41106  1  0  0  0
 41107  1  0  0  0
 41108  1  0  0  0
 41 48  1  0  0  0
 42 43  1  0  0  0
 42 66  1  0  0  0
 42109  1  0  0  0
 42110  1  0  0  0
 43 44  1  0  0  0
 44111  1  0  0  0
 45 46  2  0  0  0
 45112  1  0  0  0
 46113  1  0  0  0
 47114  1  0  0  0
 47115  1  0  0  0
 48 56  1  0  0  0
 48 65  1  0  0  0
 48116  1  0  0  0
 49 50  1  0  0  0
 49 53  1  0  0  0
 49 64  1  0  0  0
 49117  1  0  0  0
 50 51  1  0  0  0
 50118  1  0  0  0
 50119  1  0  0  0
 51 52  1  0  0  0
 51120  1  0  0  0
 51121  1  0  0  0
 52122  1  0  0  0
 52123  1  0  0  0
 53 54  1  0  0  0
 54 55  2  0  0  0
 54124  1  0  0  0
 55 57  1  0  0  0
 55125  1  0  0  0
 56 69  2  0  0  0
 57 58  2  0  0  0
 57126  1  0  0  0
 58127  1  0  0  0
 59 60  1  0  0  0
 59 61  1  0  0  0
 59 62  1  0  0  0
 60128  1  0  0  0
 60129  1  0  0  0
 60130  1  0  0  0
 61131  1  0  0  0
 61132  1  0  0  0
 61133  1  0  0  0
 62134  1  0  0  0
 62135  1  0  0  0
 62136  1  0  0  0
 63 65  1  0  0  0
 63137  1  0  0  0
 63138  1  0  0  0
 63139  1  0  0  0
 64140  1  0  0  0
 65141  1  0  0  0
 68 80  1  0  0  0
 71 72  2  0  0  0
 71 74  1  0  0  0
 71142  1  0  0  0
 72 75  1  0  0  0
 72143  1  0  0  0
 73 74  2  0  0  0
 73 76  1  0  0  0
 73144  1  0  0  0
 74 81  1  0  0  0
 75 76  2  0  0  0
 75 79  1  0  0  0
 76 80  1  0  0  0
 77145  1  0  0  0
 77146  1  0  0  0
 77147  1  0  0  0
 77 81  1  0  0  0
 78 81  1  0  0  0
 78148  1  0  0  0
 78149  1  0  0  0
 78150  1  0  0  0
 79 82  1  0  0  0
 79151  1  0  0  0
 79152  1  0  0  0
 80153  1  0  0  0
 80154  1  0  0  0
 81155  1  0  0  0
 82156  1  0  0  0
M  ISO  4   1 100  68 101  80 101  82 100
M  END
> <chiral flag>
0

> <version>
0

> <s_m_source_file>
/data/baiqing/PycharmProjects/Reinvent-master-3.2/result/LINK_invent/BTK/process_docking_weight1_custom_product_contain_oxygen_bond_distance_aromatic_linkinvent_7_9_3/rearranged_h_0002.sdf

> <i_m_source_file_index>
36

> <r_mmod_Potential_Energy-OPLS-2005>
2986.50341796875

> <r_mmod_Stretch_Energy-OPLS-2005>
1189.59558105469

> <r_mmod_Bend_Energy-OPLS-2005>
848.517822265625

> <r_mmod_Torsional_Energy-OPLS-2005>
426.606109619141

> <r_mmod_Improper_Torsional_Energy-OPLS-2005>
35.8165092468262

> <r_mmod_Van_der_Waal_Energy-OPLS-2005>
132.554214477539

> <r_mmod_Electrostatic_Energy-OPLS-2005>
-388.813812255859

> <r_mmod_Solvation_Energy-OPLS-2005>
-214.537643432617

> <b_mmod_Minimization_Converged-OPLS-2005>
0

> <r_mmod_RMS_Derivative-OPLS-2005>
0.998292744159698

$$$$
36
                    3D
 Structure written by MMmdl.
161170  0  0  1  0            999 V2000
  -30.7755  -14.4633   20.6988 C   0  0  0  0  0  0
  -30.4092  -12.3452   19.4438 C   0  0  0  0  0  0
  -29.4950  -12.5292   18.2170 C   0  0  0  0  0  0
  -28.0197  -12.3593   18.6172 C   0  0  0  0  0  0
  -27.6501  -13.2174   19.8511 C   0  0  2  0  0  0
  -28.6743  -13.0361   20.9862 C   0  0  0  0  0  0
  -25.2514  -13.8176   20.5645 C   0  0  0  0  0  0
  -24.1803  -13.0437   20.9175 C   0  0  0  0  0  0
  -24.6383  -11.6913   20.8696 C   0  0  0  0  0  0
  -23.9060  -10.4290   21.0385 C   0  0  0  0  0  0
  -24.3612   -9.4212   21.9172 C   0  0  0  0  0  0
  -23.6297   -8.2243   22.0752 C   0  0  0  0  0  0
  -22.4278   -8.0271   21.3544 C   0  0  0  0  0  0
  -21.9921   -9.0229   20.4624 C   0  0  0  0  0  0
  -22.7241  -10.2112   20.3028 C   0  0  0  0  0  0
  -21.6848   -6.0732   22.5291 C   0  0  0  0  0  0
  -21.4005   -6.5631   23.8222 C   0  0  0  0  0  0
  -21.3657   -5.6786   24.9183 C   0  0  0  0  0  0
  -21.6048   -4.3055   24.7228 C   0  0  0  0  0  0
  -21.8813   -3.8148   23.4355 C   0  0  0  0  0  0
  -21.9188   -4.6962   22.3417 C   0  0  0  0  0  0
  -22.7813  -13.5200   21.1873 C   0  0  0  0  0  0
  -22.1658   -4.2151   21.0990 F   0  0  0  0  0  0
  -21.5633   -3.4542   25.7744 F   0  0  0  0  0  0
  -30.0297  -13.3302   20.4800 N   0  0  0  0  0  0
  -26.2936  -12.9378   20.3179 N   0  0  0  0  0  0
  -25.9293  -11.6527   20.5651 N   0  0  0  0  0  0
  -22.0460  -12.8157   22.0402 N   0  0  0  0  0  0
  -25.4215  -15.1911   20.4119 N   0  0  0  0  0  0
  -31.7566  -14.7146   19.9889 O   0  0  0  0  0  0
  -21.6636   -6.8877   21.4254 O   0  0  0  0  0  0
  -22.3485  -14.5518   20.6748 O   0  0  0  0  0  0
  -24.6191  -31.8641   23.2089 C   0  0  0  0  0  0
  -25.9059  -32.4815   23.8403 C   0  0  1  0  0  0
  -27.2388  -27.4085   20.0914 C   0  0  0  0  0  0
  -25.5911  -33.8620   24.2337 N   0  0  0  0  0  0
  -23.4088  -30.4854   21.5502 C   0  0  2  0  0  0
  -24.8581  -28.9521   20.1118 C   0  0  0  0  0  0
  -22.7438  -29.4617   22.4984 C   0  0  0  0  0  0
  -18.0264  -28.1365   22.8483 C   0  0  0  0  0  0
  -24.1461  -36.7279   23.2645 C   0  0  0  0  0  0
  -25.9407  -30.8244   21.3617 C   0  0  0  0  0  0
  -26.0213  -29.4552   20.7100 C   0  0  0  0  0  0
  -27.2161  -28.6924   20.6937 C   0  0  0  0  0  0
  -26.0621  -26.9346   19.4722 C   0  0  0  0  0  0
  -24.8771  -27.6937   19.4867 C   0  0  0  0  0  0
  -23.6184  -29.8189   20.1650 C   0  0  0  0  0  0
  -25.4100  -36.3113   24.0345 C   0  0  1  0  0  0
  -20.5864  -28.3647   23.1321 C   0  0  2  0  0  0
  -20.6753  -26.9372   22.5414 C   0  0  0  0  0  0
  -19.5732  -26.6375   21.5205 C   0  0  0  0  0  0
  -18.1904  -26.7914   22.1599 C   0  0  0  0  0  0
  -19.1515  -28.8816   23.2901 C   0  0  0  0  0  0
  -18.9442  -30.1419   23.8916 C   0  0  0  0  0  0
  -17.6446  -30.6571   24.0553 C   0  0  0  0  0  0
  -25.9041  -34.9480   23.5145 C   0  0  0  0  0  0
  -16.5336  -29.9067   23.6341 C   0  0  0  0  0  0
  -16.7253  -28.6486   23.0354 C   0  0  0  0  0  0
  -26.4502  -31.6605   25.0727 C   0  0  0  0  0  0
  -25.3751  -31.3603   26.1439 C   0  0  0  0  0  0
  -27.0395  -30.3104   24.6031 C   0  0  0  0  0  0
  -27.6050  -32.4349   25.7503 C   0  0  0  0  0  0
  -27.5568  -37.1805   24.8478 C   0  0  0  0  0  0
  -21.4152  -29.3022   22.3738 N   0  0  0  0  0  0
  -26.4278  -37.3810   23.9423 N   0  0  0  0  0  0
  -24.6756  -31.0713   22.1001 N   0  0  0  0  0  0
  -23.4198  -28.8141   23.3021 O   0  0  0  0  0  0
  -28.3889  -26.6366   20.0830 O   0  0  0  0  0  0
  -26.5587  -34.8922   22.4703 O   0  0  0  0  0  0
  -23.5380  -32.1399   23.7464 O   0  0  0  0  0  0
  -31.2920  -18.5564   20.1915 C   0  0  0  0  0  0
  -29.2949  -18.5560   21.5550 C   0  0  0  0  0  0
  -30.9287  -19.8164   19.6623 C   0  0  0  0  0  0
  -28.9468  -19.8384   21.0482 C   0  0  0  0  0  0
  -30.4993  -17.9126   21.1700 C   0  0  0  0  0  0
  -29.7791  -20.5020   20.1101 C   0  0  0  0  0  0
  -31.1373  -15.4992   24.0065 C   0  0  0  0  0  0
  -31.1492  -16.8944   23.4207 C   0  0  0  0  0  0
  -30.1908  -14.7677   23.0665 C   0  0  0  0  0  0
  -31.0563  -16.6605   21.9001 C   0  0  1  0  0  0
  -28.9938  -24.1814   19.7844 C   0  0  0  0  0  0
  -28.7875  -22.7327   20.3374 C   0  0  0  0  0  0
  -28.2575  -25.2864   20.5972 C   0  0  0  0  0  0
  -30.4177  -15.3143   21.7129 N   0  0  0  0  0  0
  -29.5539  -21.7733   19.5905 O   0  0  0  0  0  0
  -31.4572  -12.4254   19.1500 H   0  0  0  0  0  0
  -30.2999  -11.3358   19.8443 H   0  0  0  0  0  0
  -29.7539  -11.8077   17.4411 H   0  0  0  0  0  0
  -29.6518  -13.5185   17.7835 H   0  0  0  0  0  0
  -27.8543  -11.3044   18.8388 H   0  0  0  0  0  0
  -27.3663  -12.6023   17.7777 H   0  0  0  0  0  0
  -27.6853  -14.2614   19.5355 H   0  0  0  0  0  0
  -28.6411  -12.0186   21.3788 H   0  0  0  0  0  0
  -28.3524  -13.6795   21.7984 H   0  0  0  0  0  0
  -25.2758   -9.5691   22.4742 H   0  0  0  0  0  0
  -24.0006   -7.4637   22.7484 H   0  0  0  0  0  0
  -21.0858   -8.8720   19.8923 H   0  0  0  0  0  0
  -22.3703  -10.9628   19.6111 H   0  0  0  0  0  0
  -21.1989   -7.6136   23.9726 H   0  0  0  0  0  0
  -21.1483   -6.0517   25.9082 H   0  0  0  0  0  0
  -22.0594   -2.7613   23.2857 H   0  0  0  0  0  0
  -22.4076  -11.9792   22.4748 H   0  0  0  0  0  0
  -21.1065  -13.1135   22.2606 H   0  0  0  0  0  0
  -24.6621  -15.8488   20.5521 H   0  0  0  0  0  0
  -26.2750  -15.6349   20.0957 H   0  0  0  0  0  0
  -26.7128  -32.5534   23.1172 H   0  0  0  0  0  0
  -25.0140  -33.9809   25.0532 H   0  0  0  0  0  0
  -22.6979  -31.3023   21.4090 H   0  0  0  0  0  0
  -23.3749  -35.9586   23.3345 H   0  0  0  0  0  0
  -24.3539  -36.8865   22.2051 H   0  0  0  0  0  0
  -23.7174  -37.6474   23.6649 H   0  0  0  0  0  0
  -26.0445  -31.5863   20.5877 H   0  0  0  0  0  0
  -26.8318  -30.8894   21.9753 H   0  0  0  0  0  0
  -28.1145  -29.0767   21.1568 H   0  0  0  0  0  0
  -26.0577  -25.9787   18.9671 H   0  0  0  0  0  0
  -23.9876  -27.3090   19.0067 H   0  0  0  0  0  0
  -23.7202  -30.5937   19.4034 H   0  0  0  0  0  0
  -22.7424  -29.2377   19.8726 H   0  0  0  0  0  0
  -25.1264  -36.2008   25.0834 H   0  0  0  0  0  0
  -20.9942  -28.3195   24.1446 H   0  0  0  0  0  0
  -20.5664  -26.2216   23.3580 H   0  0  0  0  0  0
  -21.6620  -26.7410   22.1189 H   0  0  0  0  0  0
  -19.6883  -25.6292   21.1222 H   0  0  0  0  0  0
  -19.6704  -27.3191   20.6741 H   0  0  0  0  0  0
  -17.4174  -26.6681   21.3990 H   0  0  0  0  0  0
  -18.0279  -26.0037   22.8965 H   0  0  0  0  0  0
  -19.7918  -30.7224   24.2308 H   0  0  0  0  0  0
  -17.4997  -31.6272   24.5111 H   0  0  0  0  0  0
  -15.5336  -30.2966   23.7680 H   0  0  0  0  0  0
  -15.8642  -28.0829   22.7065 H   0  0  0  0  0  0
  -24.5993  -30.6904   25.7717 H   0  0  0  0  0  0
  -24.8840  -32.2688   26.4940 H   0  0  0  0  0  0
  -25.8094  -30.8738   27.0179 H   0  0  0  0  0  0
  -26.2942  -29.6805   24.1161 H   0  0  0  0  0  0
  -27.4356  -29.7383   25.4431 H   0  0  0  0  0  0
  -27.8667  -30.4540   23.9069 H   0  0  0  0  0  0
  -27.2696  -33.3695   26.2024 H   0  0  0  0  0  0
  -28.3896  -32.6849   25.0340 H   0  0  0  0  0  0
  -28.0679  -31.8495   26.5469 H   0  0  0  0  0  0
  -28.2589  -38.0095   24.7560 H   0  0  0  0  0  0
  -28.1059  -36.2638   24.6299 H   0  0  0  0  0  0
  -27.2266  -37.1439   25.8867 H   0  0  0  0  0  0
  -20.9304  -29.8780   21.6999 H   0  0  0  0  0  0
  -26.0174  -38.2883   24.1447 H   0  0  0  0  0  0
  -32.2239  -18.1119   19.8716 H   0  0  0  0  0  0
  -28.6561  -18.0976   22.2973 H   0  0  0  0  0  0
  -31.5758  -20.2893   18.9364 H   0  0  0  0  0  0
  -28.0406  -20.3104   21.4017 H   0  0  0  0  0  0
  -30.8143  -15.4691   25.0483 H   0  0  0  0  0  0
  -32.1351  -15.0610   23.9504 H   0  0  0  0  0  0
  -32.0229  -17.4759   23.7194 H   0  0  0  0  0  0
  -30.2715  -17.4198   23.7966 H   0  0  0  0  0  0
  -29.1619  -14.9766   23.3648 H   0  0  0  0  0  0
  -30.3467  -13.6895   23.1435 H   0  0  0  0  0  0
  -32.0967  -16.5637   21.5821 H   0  0  0  0  0  0
  -28.6663  -24.2172   18.7453 H   0  0  0  0  0  0
  -30.0612  -24.4072   19.7672 H   0  0  0  0  0  0
  -27.7287  -22.4684   20.2983 H   0  0  0  0  0  0
  -29.0879  -22.6960   21.3849 H   0  0  0  0  0  0
  -28.6682  -25.2943   21.6071 H   0  0  0  0  0  0
  -27.2153  -24.9901   20.7170 H   0  0  0  0  0  0
  1 25  1  0  0  0
  1 30  2  0  0  0
  1 84  1  0  0  0
  2  3  1  0  0  0
  2 25  1  0  0  0
  2 86  1  0  0  0
  2 87  1  0  0  0
  3  4  1  0  0  0
  3 88  1  0  0  0
  3 89  1  0  0  0
  4  5  1  0  0  0
  4 90  1  0  0  0
  4 91  1  0  0  0
  5  6  1  0  0  0
  5 26  1  0  0  0
  5 92  1  0  0  0
  6 25  1  0  0  0
  6 93  1  0  0  0
  6 94  1  0  0  0
  7  8  2  0  0  0
  7 26  1  0  0  0
  7 29  1  0  0  0
  8  9  1  0  0  0
  8 22  1  0  0  0
  9 10  1  0  0  0
  9 27  2  0  0  0
 10 11  2  0  0  0
 10 15  1  0  0  0
 11 12  1  0  0  0
 11 95  1  0  0  0
 12 13  2  0  0  0
 12 96  1  0  0  0
 13 14  1  0  0  0
 13 31  1  0  0  0
 14 15  2  0  0  0
 14 97  1  0  0  0
 15 98  1  0  0  0
 16 17  2  0  0  0
 16 21  1  0  0  0
 16 31  1  0  0  0
 17 18  1  0  0  0
 17 99  1  0  0  0
 18 19  2  0  0  0
 18100  1  0  0  0
 19 20  1  0  0  0
 19 24  1  0  0  0
 20 21  2  0  0  0
 20101  1  0  0  0
 21 23  1  0  0  0
 22 28  1  0  0  0
 22 32  2  0  0  0
 26 27  1  0  0  0
 28102  1  0  0  0
 28103  1  0  0  0
 29104  1  0  0  0
 29105  1  0  0  0
 33 34  1  0  0  0
 33 66  1  0  0  0
 33 70  2  0  0  0
 34 36  1  0  0  0
 34 59  1  0  0  0
 34106  1  0  0  0
 35 44  2  0  0  0
 35 45  1  0  0  0
 35 68  1  0  0  0
 36 56  1  0  0  0
 36107  1  0  0  0
 37 39  1  0  0  0
 37 47  1  0  0  0
 37 66  1  0  0  0
 37108  1  0  0  0
 38 43  2  0  0  0
 38 46  1  0  0  0
 38 47  1  0  0  0
 39 64  1  0  0  0
 39 67  2  0  0  0
 40 52  1  0  0  0
 40 53  2  0  0  0
 40 58  1  0  0  0
 41109  1  0  0  0
 41110  1  0  0  0
 41111  1  0  0  0
 41 48  1  0  0  0
 42 43  1  0  0  0
 42 66  1  0  0  0
 42112  1  0  0  0
 42113  1  0  0  0
 43 44  1  0  0  0
 44114  1  0  0  0
 45 46  2  0  0  0
 45115  1  0  0  0
 46116  1  0  0  0
 47117  1  0  0  0
 47118  1  0  0  0
 48 56  1  0  0  0
 48 65  1  0  0  0
 48119  1  0  0  0
 49 50  1  0  0  0
 49 53  1  0  0  0
 49 64  1  0  0  0
 49120  1  0  0  0
 50 51  1  0  0  0
 50121  1  0  0  0
 50122  1  0  0  0
 51 52  1  0  0  0
 51123  1  0  0  0
 51124  1  0  0  0
 52125  1  0  0  0
 52126  1  0  0  0
 53 54  1  0  0  0
 54 55  2  0  0  0
 54127  1  0  0  0
 55 57  1  0  0  0
 55128  1  0  0  0
 56 69  2  0  0  0
 57 58  2  0  0  0
 57129  1  0  0  0
 58130  1  0  0  0
 59 60  1  0  0  0
 59 61  1  0  0  0
 59 62  1  0  0  0
 60131  1  0  0  0
 60132  1  0  0  0
 60133  1  0  0  0
 61134  1  0  0  0
 61135  1  0  0  0
 61136  1  0  0  0
 62137  1  0  0  0
 62138  1  0  0  0
 62139  1  0  0  0
 63 65  1  0  0  0
 63140  1  0  0  0
 63141  1  0  0  0
 63142  1  0  0  0
 64143  1  0  0  0
 65144  1  0  0  0
 68 83  1  0  0  0
 71 73  2  0  0  0
 71 75  1  0  0  0
 71145  1  0  0  0
 72 74  1  0  0  0
 72 75  2  0  0  0
 72146  1  0  0  0
 73 76  1  0  0  0
 73147  1  0  0  0
 74 76  2  0  0  0
 74148  1  0  0  0
 75 80  1  0  0  0
 76 85  1  0  0  0
 77 78  1  0  0  0
 77 79  1  0  0  0
 77149  1  0  0  0
 77150  1  0  0  0
 78 80  1  0  0  0
 78151  1  0  0  0
 78152  1  0  0  0
 79 84  1  0  0  0
 79153  1  0  0  0
 79154  1  0  0  0
 80 84  1  0  0  0
 80155  1  0  0  0
 81 82  1  0  0  0
 81 83  1  0  0  0
 81156  1  0  0  0
 81157  1  0  0  0
 82 85  1  0  0  0
 82158  1  0  0  0
 82159  1  0  0  0
 83160  1  0  0  0
 83161  1  0  0  0
M  ISO  4   1 100  68 101  83 101  84 100
M  END
> <chiral flag>
0

> <version>
0

> <s_m_source_file>
/data/baiqing/PycharmProjects/Reinvent-master-3.2/result/LINK_invent/BTK/process_docking_weight1_custom_product_contain_oxygen_bond_distance_aromatic_linkinvent_7_9_3/rearranged_h_0002.sdf

> <i_m_source_file_index>
37

> <r_mmod_Potential_Energy-OPLS-2005>
207.620452880859

> <r_mmod_Stretch_Energy-OPLS-2005>
54.4013557434082

> <r_mmod_Bend_Energy-OPLS-2005>
145.17578125

> <r_mmod_Torsional_Energy-OPLS-2005>
326.573089599609

> <r_mmod_Improper_Torsional_Energy-OPLS-2005>
6.15349388122559

> <r_mmod_Van_der_Waal_Energy-OPLS-2005>
153.722076416016

> <r_mmod_Electrostatic_Energy-OPLS-2005>
-300.921813964844

> <r_mmod_Solvation_Energy-OPLS-2005>
-193.234680175781

> <b_mmod_Minimization_Converged-OPLS-2005>
0

> <r_mmod_RMS_Derivative-OPLS-2005>
2.762699842453

$$$$
37
                    3D
 Structure written by MMmdl.
144152  0  0  1  0            999 V2000
  -30.2476  -15.7719   20.3179 C   0  0  0  0  0  0
  -30.4158  -13.1841   19.5403 C   0  0  0  0  0  0
  -29.5560  -12.6900   18.3374 C   0  0  0  0  0  0
  -28.1403  -12.3029   18.7877 C   0  0  0  0  0  0
  -27.5911  -13.3208   19.8102 C   0  0  2  0  0  0
  -28.5988  -13.7116   20.9202 C   0  0  0  0  0  0
  -25.2301  -13.8299   20.5814 C   0  0  0  0  0  0
  -24.1704  -13.0432   20.9300 C   0  0  0  0  0  0
  -24.6424  -11.6949   20.8764 C   0  0  0  0  0  0
  -23.9129  -10.4292   21.0392 C   0  0  0  0  0  0
  -24.3660   -9.4205   21.9177 C   0  0  0  0  0  0
  -23.6317   -8.2248   22.0753 C   0  0  0  0  0  0
  -22.4297   -8.0289   21.3544 C   0  0  0  0  0  0
  -21.9946   -9.0265   20.4643 C   0  0  0  0  0  0
  -22.7293  -10.2134   20.3046 C   0  0  0  0  0  0
  -21.6860   -6.0743   22.5279 C   0  0  0  0  0  0
  -21.4020   -6.5644   23.8213 C   0  0  0  0  0  0
  -21.3661   -5.6794   24.9174 C   0  0  0  0  0  0
  -21.6044   -4.3057   24.7223 C   0  0  0  0  0  0
  -21.8818   -3.8151   23.4343 C   0  0  0  0  0  0
  -21.9195   -4.6969   22.3401 C   0  0  0  0  0  0
  -22.7712  -13.5151   21.1929 C   0  0  0  0  0  0
  -22.1662   -4.2154   21.0978 F   0  0  0  0  0  0
  -21.5628   -3.4540   25.7735 F   0  0  0  0  0  0
  -29.7492  -14.3786   20.2543 N   0  0  0  0  0  0
  -26.2763  -12.9655   20.3248 N   0  0  0  0  0  0
  -25.9375  -11.6712   20.5691 N   0  0  0  0  0  0
  -22.0381  -12.8125   22.0480 N   0  0  0  0  0  0
  -25.3870  -15.2043   20.4256 N   0  0  0  0  0  0
  -31.4876  -15.6916   20.1836 O   0  0  0  0  0  0
  -21.6650   -6.8891   21.4243 O   0  0  0  0  0  0
  -22.3383  -14.5448   20.6763 O   0  0  0  0  0  0
  -24.6940  -31.7880   23.1427 C   0  0  0  0  0  0
  -25.9471  -32.4408   23.8012 C   0  0  1  0  0  0
  -27.2313  -26.5981   20.2263 C   0  0  0  0  0  0
  -25.6007  -33.8238   24.1891 N   0  0  0  0  0  0
  -23.5250  -30.3851   21.4992 C   0  0  2  0  0  0
  -24.9837  -28.7035   20.1222 C   0  0  0  0  0  0
  -22.7813  -29.4253   22.4683 C   0  0  0  0  0  0
  -18.0345  -28.1428   22.8450 C   0  0  0  0  0  0
  -24.1497  -36.7128   23.2654 C   0  0  0  0  0  0
  -26.1102  -30.4868   21.4225 C   0  0  0  0  0  0
  -26.1751  -29.0397   20.7754 C   0  0  0  0  0  0
  -27.2794  -28.0188   20.7901 C   0  0  0  0  0  0
  -26.0048  -26.4978   19.5142 C   0  0  0  0  0  0
  -24.9439  -27.4598   19.4668 C   0  0  0  0  0  0
  -23.7849  -29.6718   20.1395 C   0  0  0  0  0  0
  -25.4150  -36.2861   24.0274 C   0  0  1  0  0  0
  -20.5986  -28.3794   23.1122 C   0  0  2  0  0  0
  -20.6806  -26.9443   22.5405 C   0  0  0  0  0  0
  -19.5784  -26.6369   21.5218 C   0  0  0  0  0  0
  -18.1967  -26.7953   22.1618 C   0  0  0  0  0  0
  -19.1614  -28.8938   23.2763 C   0  0  0  0  0  0
  -18.9516  -30.1518   23.8814 C   0  0  0  0  0  0
  -17.6505  -30.6607   24.0549 C   0  0  0  0  0  0
  -25.9138  -34.9254   23.4927 C   0  0  0  0  0  0
  -16.5394  -29.9087   23.6354 C   0  0  0  0  0  0
  -16.7324  -28.6510   23.0369 C   0  0  0  0  0  0
  -26.4615  -31.6485   25.0678 C   0  0  0  0  0  0
  -25.3653  -31.3832   26.1275 C   0  0  0  0  0  0
  -27.0562  -30.2812   24.6651 C   0  0  0  0  0  0
  -27.6043  -32.4369   25.7505 C   0  0  0  0  0  0
  -27.5563  -37.1717   24.8463 C   0  0  0  0  0  0
  -21.4450  -29.3020   22.3430 N   0  0  0  0  0  0
  -26.4266  -37.3635   23.9410 N   0  0  0  0  0  0
  -24.8011  -30.9222   22.0738 N   0  0  0  0  0  0
  -23.4206  -28.7871   23.3078 O   0  0  0  0  0  0
  -28.1817  -25.3316   20.2917 O   0  0  0  0  0  0
  -26.5792  -34.8852   22.4554 O   0  0  0  0  0  0
  -23.5937  -32.1002   23.6316 O   0  0  0  0  0  0
  -30.9006  -19.4483   20.3715 C   0  0  0  0  0  0
  -31.2264  -20.8462   20.3803 C   0  0  0  0  0  0
  -28.9236  -21.8769   20.2817 C   0  0  0  0  0  0
  -29.5874  -18.9219   20.3228 C   0  0  0  0  0  0
  -30.3361  -21.9720   20.3396 C   0  0  0  0  0  0
  -28.6385  -20.2594   20.2780 C   0  0  0  0  0  0
  -27.9602  -23.5335   20.1993 C   0  0  0  0  0  0
  -29.4674  -17.1609   20.3375 N   0  0  0  0  0  0
  -30.8908  -23.2078   20.3523 F   0  0  0  0  0  0
  -27.3192  -19.9562   20.2224 F   0  0  0  0  0  0
  -31.3971  -13.4692   19.1599 H   0  0  0  0  0  0
  -30.6131  -12.3670   20.2364 H   0  0  0  0  0  0
  -30.0388  -11.8473   17.8407 H   0  0  0  0  0  0
  -29.4924  -13.4879   17.5961 H   0  0  0  0  0  0
  -28.1931  -11.3168   19.2508 H   0  0  0  0  0  0
  -27.4724  -12.2083   17.9306 H   0  0  0  0  0  0
  -27.4345  -14.2233   19.2175 H   0  0  0  0  0  0
  -28.8918  -12.8523   21.5255 H   0  0  0  0  0  0
  -28.1386  -14.4239   21.6067 H   0  0  0  0  0  0
  -25.2798   -9.5678   22.4764 H   0  0  0  0  0  0
  -24.0017   -7.4640   22.7479 H   0  0  0  0  0  0
  -21.0876   -8.8793   19.8948 H   0  0  0  0  0  0
  -22.3752  -10.9675   19.6158 H   0  0  0  0  0  0
  -21.2014   -7.6152   23.9718 H   0  0  0  0  0  0
  -21.1484   -6.0524   25.9077 H   0  0  0  0  0  0
  -22.0595   -2.7613   23.2842 H   0  0  0  0  0  0
  -22.4030  -11.9806   22.4878 H   0  0  0  0  0  0
  -21.0983  -13.1111   22.2673 H   0  0  0  0  0  0
  -24.6128  -15.8500   20.5384 H   0  0  0  0  0  0
  -26.2236  -15.6481   20.0717 H   0  0  0  0  0  0
  -26.7563  -32.4854   23.0729 H   0  0  0  0  0  0
  -25.0048  -33.9257   24.9973 H   0  0  0  0  0  0
  -22.8564  -31.2251   21.3000 H   0  0  0  0  0  0
  -23.3785  -35.9428   23.3243 H   0  0  0  0  0  0
  -24.3565  -36.8871   22.2083 H   0  0  0  0  0  0
  -23.7228  -37.6270   23.6787 H   0  0  0  0  0  0
  -26.3228  -31.2041   20.6287 H   0  0  0  0  0  0
  -26.9575  -30.5599   22.0916 H   0  0  0  0  0  0
  -28.1746  -28.2875   21.3330 H   0  0  0  0  0  0
  -25.8202  -25.5627   19.0047 H   0  0  0  0  0  0
  -24.0479  -27.1917   18.9238 H   0  0  0  0  0  0
  -23.9693  -30.4271   19.3748 H   0  0  0  0  0  0
  -22.8875  -29.1436   19.8130 H   0  0  0  0  0  0
  -25.1363  -36.1607   25.0762 H   0  0  0  0  0  0
  -21.0063  -28.3428   24.1251 H   0  0  0  0  0  0
  -20.5659  -26.2422   23.3677 H   0  0  0  0  0  0
  -21.6666  -26.7370   22.1230 H   0  0  0  0  0  0
  -19.6938  -25.6257   21.1303 H   0  0  0  0  0  0
  -19.6729  -27.3132   20.6711 H   0  0  0  0  0  0
  -17.4236  -26.6696   21.4022 H   0  0  0  0  0  0
  -18.0353  -26.0115   22.9033 H   0  0  0  0  0  0
  -19.7991  -30.7356   24.2147 H   0  0  0  0  0  0
  -17.5054  -31.6278   24.5169 H   0  0  0  0  0  0
  -15.5391  -30.2962   23.7725 H   0  0  0  0  0  0
  -15.8725  -28.0801   22.7131 H   0  0  0  0  0  0
  -24.5872  -30.7147   25.7572 H   0  0  0  0  0  0
  -24.8806  -32.3063   26.4465 H   0  0  0  0  0  0
  -25.7808  -30.9151   27.0207 H   0  0  0  0  0  0
  -26.3300  -29.6396   24.1651 H   0  0  0  0  0  0
  -27.3957  -29.7298   25.5429 H   0  0  0  0  0  0
  -27.9292  -30.3914   24.0216 H   0  0  0  0  0  0
  -27.2570  -33.3754   26.1839 H   0  0  0  0  0  0
  -28.3978  -32.6796   25.0425 H   0  0  0  0  0  0
  -28.0573  -31.8663   26.5621 H   0  0  0  0  0  0
  -28.2529  -38.0060   24.7530 H   0  0  0  0  0  0
  -28.1111  -36.2581   24.6266 H   0  0  0  0  0  0
  -27.2281  -37.1320   25.8864 H   0  0  0  0  0  0
  -20.9781  -29.8658   21.6464 H   0  0  0  0  0  0
  -26.0084  -38.2676   24.1435 H   0  0  0  0  0  0
  -31.7228  -18.7483   20.4082 H   0  0  0  0  0  0
  -32.2794  -21.0845   20.4213 H   0  0  0  0  0  0
  -27.1844  -23.3688   20.9469 H   0  0  0  0  0  0
  -27.4284  -23.4254   19.2543 H   0  0  0  0  0  0
  -28.4887  -16.9138   20.3658 H   0  0  0  0  0  0
  1 25  1  0  0  0
  1 30  2  0  0  0
  1 78  1  0  0  0
  2  3  1  0  0  0
  2 25  1  0  0  0
  2 81  1  0  0  0
  2 82  1  0  0  0
  3  4  1  0  0  0
  3 83  1  0  0  0
  3 84  1  0  0  0
  4  5  1  0  0  0
  4 85  1  0  0  0
  4 86  1  0  0  0
  5  6  1  0  0  0
  5 26  1  0  0  0
  5 87  1  0  0  0
  6 25  1  0  0  0
  6 88  1  0  0  0
  6 89  1  0  0  0
  7  8  2  0  0  0
  7 26  1  0  0  0
  7 29  1  0  0  0
  8  9  1  0  0  0
  8 22  1  0  0  0
  9 10  1  0  0  0
  9 27  2  0  0  0
 10 11  2  0  0  0
 10 15  1  0  0  0
 11 12  1  0  0  0
 11 90  1  0  0  0
 12 13  2  0  0  0
 12 91  1  0  0  0
 13 14  1  0  0  0
 13 31  1  0  0  0
 14 15  2  0  0  0
 14 92  1  0  0  0
 15 93  1  0  0  0
 16 17  2  0  0  0
 16 21  1  0  0  0
 16 31  1  0  0  0
 17 18  1  0  0  0
 17 94  1  0  0  0
 18 19  2  0  0  0
 18 95  1  0  0  0
 19 20  1  0  0  0
 19 24  1  0  0  0
 20 21  2  0  0  0
 20 96  1  0  0  0
 21 23  1  0  0  0
 22 28  1  0  0  0
 22 32  2  0  0  0
 26 27  1  0  0  0
 28 97  1  0  0  0
 28 98  1  0  0  0
 29 99  1  0  0  0
 29100  1  0  0  0
 33 34  1  0  0  0
 33 66  1  0  0  0
 33 70  2  0  0  0
 34 36  1  0  0  0
 34 59  1  0  0  0
 34101  1  0  0  0
 35 44  2  0  0  0
 35 45  1  0  0  0
 35 68  1  0  0  0
 36 56  1  0  0  0
 36102  1  0  0  0
 37 39  1  0  0  0
 37 47  1  0  0  0
 37 66  1  0  0  0
 37103  1  0  0  0
 38 43  2  0  0  0
 38 46  1  0  0  0
 38 47  1  0  0  0
 39 64  1  0  0  0
 39 67  2  0  0  0
 40 52  1  0  0  0
 40 53  2  0  0  0
 40 58  1  0  0  0
 41104  1  0  0  0
 41105  1  0  0  0
 41106  1  0  0  0
 41 48  1  0  0  0
 42 43  1  0  0  0
 42 66  1  0  0  0
 42107  1  0  0  0
 42108  1  0  0  0
 43 44  1  0  0  0
 44109  1  0  0  0
 45 46  2  0  0  0
 45110  1  0  0  0
 46111  1  0  0  0
 47112  1  0  0  0
 47113  1  0  0  0
 48 56  1  0  0  0
 48 65  1  0  0  0
 48114  1  0  0  0
 49 50  1  0  0  0
 49 53  1  0  0  0
 49 64  1  0  0  0
 49115  1  0  0  0
 50 51  1  0  0  0
 50116  1  0  0  0
 50117  1  0  0  0
 51 52  1  0  0  0
 51118  1  0  0  0
 51119  1  0  0  0
 52120  1  0  0  0
 52121  1  0  0  0
 53 54  1  0  0  0
 54 55  2  0  0  0
 54122  1  0  0  0
 55 57  1  0  0  0
 55123  1  0  0  0
 56 69  2  0  0  0
 57 58  2  0  0  0
 57124  1  0  0  0
 58125  1  0  0  0
 59 60  1  0  0  0
 59 61  1  0  0  0
 59 62  1  0  0  0
 60126  1  0  0  0
 60127  1  0  0  0
 60128  1  0  0  0
 61129  1  0  0  0
 61130  1  0  0  0
 61131  1  0  0  0
 62132  1  0  0  0
 62133  1  0  0  0
 62134  1  0  0  0
 63 65  1  0  0  0
 63135  1  0  0  0
 63136  1  0  0  0
 63137  1  0  0  0
 64138  1  0  0  0
 65139  1  0  0  0
 68 77  1  0  0  0
 71 72  2  0  0  0
 71 74  1  0  0  0
 71140  1  0  0  0
 72 75  1  0  0  0
 72141  1  0  0  0
 73 75  2  0  0  0
 73 76  1  0  0  0
 73 77  1  0  0  0
 74 76  2  0  0  0
 74 78  1  0  0  0
 75 79  1  0  0  0
 76 80  1  0  0  0
 77142  1  0  0  0
 77143  1  0  0  0
 78144  1  0  0  0
M  ISO  4   1 100  68 101  77 101  78 100
M  END
> <chiral flag>
0

> <version>
0

> <s_m_source_file>
/data/baiqing/PycharmProjects/Reinvent-master-3.2/result/LINK_invent/BTK/process_docking_weight1_custom_product_contain_oxygen_bond_distance_aromatic_linkinvent_7_9_3/rearranged_h_0002.sdf

> <i_m_source_file_index>
38

> <r_mmod_Potential_Energy-OPLS-2005>
2786.2080078125

> <r_mmod_Stretch_Energy-OPLS-2005>
1262.23059082031

> <r_mmod_Bend_Energy-OPLS-2005>
640.262512207031

> <r_mmod_Torsional_Energy-OPLS-2005>
222.775299072266

> <r_mmod_Improper_Torsional_Energy-OPLS-2005>
4.03981971740723

> <r_mmod_Van_der_Waal_Energy-OPLS-2005>
124.985801696777

> <r_mmod_Electrostatic_Energy-OPLS-2005>
-383.477569580078

> <r_mmod_Solvation_Energy-OPLS-2005>
-210.230331420898

> <b_mmod_Minimization_Converged-OPLS-2005>
0

> <r_mmod_RMS_Derivative-OPLS-2005>
0.145995900034904

$$$$
38
                    3D
 Structure written by MMmdl.
154163  0  0  1  0            999 V2000
  -30.5294  -15.0122   20.4099 C   0  0  0  0  0  0
  -30.4419  -12.6333   19.4989 C   0  0  0  0  0  0
  -29.5235  -12.5278   18.2587 C   0  0  0  0  0  0
  -28.0582  -12.3066   18.6800 C   0  0  0  0  0  0
  -27.6250  -13.2525   19.8307 C   0  0  2  0  0  0
  -28.6688  -13.3189   20.9667 C   0  0  0  0  0  0
  -25.2453  -13.8223   20.5731 C   0  0  0  0  0  0
  -24.1777  -13.0446   20.9249 C   0  0  0  0  0  0
  -24.6390  -11.6932   20.8763 C   0  0  0  0  0  0
  -23.9072  -10.4305   21.0418 C   0  0  0  0  0  0
  -24.3625   -9.4213   21.9188 C   0  0  0  0  0  0
  -23.6298   -8.2244   22.0754 C   0  0  0  0  0  0
  -22.4279   -8.0284   21.3546 C   0  0  0  0  0  0
  -21.9916   -9.0261   20.4646 C   0  0  0  0  0  0
  -22.7244  -10.2146   20.3059 C   0  0  0  0  0  0
  -21.6860   -6.0734   22.5280 C   0  0  0  0  0  0
  -21.4018   -6.5637   23.8212 C   0  0  0  0  0  0
  -21.3662   -5.6789   24.9173 C   0  0  0  0  0  0
  -21.6041   -4.3051   24.7221 C   0  0  0  0  0  0
  -21.8822   -3.8146   23.4342 C   0  0  0  0  0  0
  -21.9196   -4.6963   22.3402 C   0  0  0  0  0  0
  -22.7797  -13.5215   21.1901 C   0  0  0  0  0  0
  -22.1673   -4.2151   21.0978 F   0  0  0  0  0  0
  -21.5627   -3.4535   25.7732 F   0  0  0  0  0  0
  -29.9330  -13.7473   20.3546 N   0  0  0  0  0  0
  -26.2871  -12.9459   20.3229 N   0  0  0  0  0  0
  -25.9325  -11.6586   20.5736 N   0  0  0  0  0  0
  -22.0445  -12.8200   22.0449 N   0  0  0  0  0  0
  -25.4121  -15.1944   20.4135 N   0  0  0  0  0  0
  -31.7436  -15.0546   20.1862 O   0  0  0  0  0  0
  -21.6644   -6.8879   21.4241 O   0  0  0  0  0  0
  -22.3485  -14.5522   20.6737 O   0  0  0  0  0  0
  -24.6493  -31.8385   23.1838 C   0  0  0  0  0  0
  -25.9235  -32.4671   23.8251 C   0  0  1  0  0  0
  -27.2163  -27.0783   20.1583 C   0  0  0  0  0  0
  -25.5961  -33.8481   24.2162 N   0  0  0  0  0  0
  -23.4561  -30.4569   21.5309 C   0  0  2  0  0  0
  -24.9057  -28.8739   20.1131 C   0  0  0  0  0  0
  -22.7600  -29.4519   22.4842 C   0  0  0  0  0  0
  -18.0308  -28.1397   22.8470 C   0  0  0  0  0  0
  -24.1491  -36.7248   23.2643 C   0  0  0  0  0  0
  -26.0171  -30.6944   21.3908 C   0  0  0  0  0  0
  -26.0871  -29.3004   20.7329 C   0  0  0  0  0  0
  -27.2430  -28.4212   20.7337 C   0  0  0  0  0  0
  -26.0049  -26.7697   19.4991 C   0  0  0  0  0  0
  -24.8810  -27.6242   19.4789 C   0  0  0  0  0  0
  -23.6865  -29.7838   20.1523 C   0  0  0  0  0  0
  -25.4126  -36.3019   24.0310 C   0  0  1  0  0  0
  -20.5927  -28.3725   23.1223 C   0  0  2  0  0  0
  -20.6792  -26.9426   22.5396 C   0  0  0  0  0  0
  -19.5762  -26.6378   21.5208 C   0  0  0  0  0  0
  -18.1947  -26.7932   22.1621 C   0  0  0  0  0  0
  -19.1567  -28.8880   23.2837 C   0  0  0  0  0  0
  -18.9479  -30.1479   23.8862 C   0  0  0  0  0  0
  -17.6474  -30.6595   24.0556 C   0  0  0  0  0  0
  -25.9079  -34.9394   23.5047 C   0  0  0  0  0  0
  -16.5367  -29.9086   23.6339 C   0  0  0  0  0  0
  -16.7292  -28.6506   23.0360 C   0  0  0  0  0  0
  -26.4530  -31.6563   25.0723 C   0  0  0  0  0  0
  -25.3696  -31.3770   26.1407 C   0  0  0  0  0  0
  -27.0407  -30.2954   24.6349 C   0  0  0  0  0  0
  -27.6047  -32.4347   25.7512 C   0  0  0  0  0  0
  -27.5574  -37.1782   24.8468 C   0  0  0  0  0  0
  -21.4284  -29.3046   22.3592 N   0  0  0  0  0  0
  -26.4289  -37.3736   23.9405 N   0  0  0  0  0  0
  -24.7283  -31.0191   22.0898 N   0  0  0  0  0  0
  -23.4217  -28.8062   23.3014 O   0  0  0  0  0  0
  -28.2525  -26.0547   20.2146 O   0  0  0  0  0  0
  -26.5677  -34.8898   22.4634 O   0  0  0  0  0  0
  -23.5597  -32.1280   23.7029 O   0  0  0  0  0  0
  -31.3943  -22.5587   20.0638 C   0  0  0  0  0  0
  -31.1337  -21.1638   20.0823 C   0  0  0  0  0  0
  -30.3697  -23.5466   20.1163 C   0  0  0  0  0  0
  -29.8066  -20.7115   20.1778 C   0  0  0  0  0  0
  -28.7811  -21.7331   20.2736 C   0  0  0  0  0  0
  -28.9943  -23.2267   20.2169 C   0  0  0  0  0  0
  -27.5127  -20.8940   20.4384 C   0  0  0  0  0  0
  -29.2990  -19.1761   20.1089 C   0  0  1  0  0  0
  -27.9220  -24.5056   20.1912 C   0  0  0  0  0  0
  -30.1595  -17.7752   20.6194 C   0  0  0  0  0  0
  -29.7642  -16.2227   20.5152 N   0  0  0  0  0  0
  -27.9422  -19.4496   20.6704 N   0  3  0  0  0  0
  -31.4712  -12.8039   19.1796 H   0  0  0  0  0  0
  -30.4555  -11.6945   20.0551 H   0  0  0  0  0  0
  -29.8537  -11.7152   17.6096 H   0  0  0  0  0  0
  -29.5997  -13.4432   17.6690 H   0  0  0  0  0  0
  -27.9627  -11.2688   19.0022 H   0  0  0  0  0  0
  -27.3945  -12.4219   17.8213 H   0  0  0  0  0  0
  -27.5743  -14.2447   19.3819 H   0  0  0  0  0  0
  -28.7768  -12.3545   21.4646 H   0  0  0  0  0  0
  -28.3577  -14.0313   21.7322 H   0  0  0  0  0  0
  -25.2774   -9.5684   22.4761 H   0  0  0  0  0  0
  -24.0014   -7.4625   22.7460 H   0  0  0  0  0  0
  -21.0858   -8.8778   19.8941 H   0  0  0  0  0  0
  -22.3705  -10.9687   19.6170 H   0  0  0  0  0  0
  -21.2008   -7.6146   23.9716 H   0  0  0  0  0  0
  -21.1489   -6.0519   25.9077 H   0  0  0  0  0  0
  -22.0596   -2.7608   23.2840 H   0  0  0  0  0  0
  -22.4075  -11.9864   22.4839 H   0  0  0  0  0  0
  -21.1052  -13.1212   22.2645 H   0  0  0  0  0  0
  -24.6358  -15.8405   20.5078 H   0  0  0  0  0  0
  -26.2359  -15.6214   20.0144 H   0  0  0  0  0  0
  -26.7306  -32.5255   23.0980 H   0  0  0  0  0  0
  -25.0066  -33.9590   25.0281 H   0  0  0  0  0  0
  -22.7603  -31.2842   21.3728 H   0  0  0  0  0  0
  -23.3758  -35.9578   23.3298 H   0  0  0  0  0  0
  -24.3568  -36.8893   22.2058 H   0  0  0  0  0  0
  -23.7245  -37.6439   23.6691 H   0  0  0  0  0  0
  -26.1796  -31.4455   20.6169 H   0  0  0  0  0  0
  -26.8847  -30.7456   22.0371 H   0  0  0  0  0  0
  -28.1430  -28.7446   21.2376 H   0  0  0  0  0  0
  -25.8848  -25.8192   19.0036 H   0  0  0  0  0  0
  -23.9802  -27.2930   18.9803 H   0  0  0  0  0  0
  -23.8303  -30.5569   19.3966 H   0  0  0  0  0  0
  -22.7988  -29.2314   19.8390 H   0  0  0  0  0  0
  -25.1317  -36.1838   25.0804 H   0  0  0  0  0  0
  -21.0012  -28.3317   24.1348 H   0  0  0  0  0  0
  -20.5683  -26.2340   23.3621 H   0  0  0  0  0  0
  -21.6658  -26.7426   22.1195 H   0  0  0  0  0  0
  -19.6928  -25.6280   21.1265 H   0  0  0  0  0  0
  -19.6707  -27.3165   20.6723 H   0  0  0  0  0  0
  -17.4215  -26.6672   21.4032 H   0  0  0  0  0  0
  -18.0354  -26.0087   22.9028 H   0  0  0  0  0  0
  -19.7958  -30.7308   24.2216 H   0  0  0  0  0  0
  -17.5029  -31.6267   24.5162 H   0  0  0  0  0  0
  -15.5367  -30.2976   23.7683 H   0  0  0  0  0  0
  -15.8693  -28.0814   22.7096 H   0  0  0  0  0  0
  -24.5862  -30.7145   25.7707 H   0  0  0  0  0  0
  -24.8908  -32.2964   26.4789 H   0  0  0  0  0  0
  -25.7959  -30.8946   27.0213 H   0  0  0  0  0  0
  -26.3041  -29.6665   24.1339 H   0  0  0  0  0  0
  -27.3976  -29.7273   25.4948 H   0  0  0  0  0  0
  -27.8964  -30.4179   23.9708 H   0  0  0  0  0  0
  -27.2622  -33.3656   26.2045 H   0  0  0  0  0  0
  -28.3877  -32.6904   25.0362 H   0  0  0  0  0  0
  -28.0698  -31.8511   26.5466 H   0  0  0  0  0  0
  -28.2587  -38.0078   24.7503 H   0  0  0  0  0  0
  -28.1072  -36.2611   24.6313 H   0  0  0  0  0  0
  -27.2292  -37.1447   25.8869 H   0  0  0  0  0  0
  -20.9511  -29.8757   21.6759 H   0  0  0  0  0  0
  -26.0151  -38.2803   24.1404 H   0  0  0  0  0  0
  -32.4215  -22.8869   19.9872 H   0  0  0  0  0  0
  -31.9499  -20.4571   20.0074 H   0  0  0  0  0  0
  -30.6539  -24.5893   20.0673 H   0  0  0  0  0  0
  -26.9235  -20.9621   19.5234 H   0  0  0  0  0  0
  -26.8994  -21.2576   21.2631 H   0  0  0  0  0  0
  -29.1429  -19.0186   19.0402 H   0  0  0  0  0  0
  -27.2293  -24.3287   21.0145 H   0  0  0  0  0  0
  -27.3488  -24.3203   19.2850 H   0  0  0  0  0  0
  -30.3892  -17.9336   21.6739 H   0  0  0  0  0  0
  -31.1299  -17.8405   20.1270 H   0  0  0  0  0  0
  -28.7750  -16.0467   20.6042 H   0  0  0  0  0  0
  -27.2588  -18.8118   20.3014 H   0  0  0  0  0  0
  -27.9933  -19.3133   21.6651 H   0  0  0  0  0  0
  1 25  1  0  0  0
  1 30  2  0  0  0
  1 81  1  0  0  0
  2  3  1  0  0  0
  2 25  1  0  0  0
  2 83  1  0  0  0
  2 84  1  0  0  0
  3  4  1  0  0  0
  3 85  1  0  0  0
  3 86  1  0  0  0
  4  5  1  0  0  0
  4 87  1  0  0  0
  4 88  1  0  0  0
  5  6  1  0  0  0
  5 26  1  0  0  0
  5 89  1  0  0  0
  6 25  1  0  0  0
  6 90  1  0  0  0
  6 91  1  0  0  0
  7  8  2  0  0  0
  7 26  1  0  0  0
  7 29  1  0  0  0
  8  9  1  0  0  0
  8 22  1  0  0  0
  9 10  1  0  0  0
  9 27  2  0  0  0
 10 11  2  0  0  0
 10 15  1  0  0  0
 11 12  1  0  0  0
 11 92  1  0  0  0
 12 13  2  0  0  0
 12 93  1  0  0  0
 13 14  1  0  0  0
 13 31  1  0  0  0
 14 15  2  0  0  0
 14 94  1  0  0  0
 15 95  1  0  0  0
 16 17  2  0  0  0
 16 21  1  0  0  0
 16 31  1  0  0  0
 17 18  1  0  0  0
 17 96  1  0  0  0
 18 19  2  0  0  0
 18 97  1  0  0  0
 19 20  1  0  0  0
 19 24  1  0  0  0
 20 21  2  0  0  0
 20 98  1  0  0  0
 21 23  1  0  0  0
 22 28  1  0  0  0
 22 32  2  0  0  0
 26 27  1  0  0  0
 28 99  1  0  0  0
 28100  1  0  0  0
 29101  1  0  0  0
 29102  1  0  0  0
 33 34  1  0  0  0
 33 66  1  0  0  0
 33 70  2  0  0  0
 34 36  1  0  0  0
 34 59  1  0  0  0
 34103  1  0  0  0
 35 44  2  0  0  0
 35 45  1  0  0  0
 35 68  1  0  0  0
 36 56  1  0  0  0
 36104  1  0  0  0
 37 39  1  0  0  0
 37 47  1  0  0  0
 37 66  1  0  0  0
 37105  1  0  0  0
 38 43  2  0  0  0
 38 46  1  0  0  0
 38 47  1  0  0  0
 39 64  1  0  0  0
 39 67  2  0  0  0
 40 52  1  0  0  0
 40 53  2  0  0  0
 40 58  1  0  0  0
 41106  1  0  0  0
 41107  1  0  0  0
 41108  1  0  0  0
 41 48  1  0  0  0
 42 43  1  0  0  0
 42 66  1  0  0  0
 42109  1  0  0  0
 42110  1  0  0  0
 43 44  1  0  0  0
 44111  1  0  0  0
 45 46  2  0  0  0
 45112  1  0  0  0
 46113  1  0  0  0
 47114  1  0  0  0
 47115  1  0  0  0
 48 56  1  0  0  0
 48 65  1  0  0  0
 48116  1  0  0  0
 49 50  1  0  0  0
 49 53  1  0  0  0
 49 64  1  0  0  0
 49117  1  0  0  0
 50 51  1  0  0  0
 50118  1  0  0  0
 50119  1  0  0  0
 51 52  1  0  0  0
 51120  1  0  0  0
 51121  1  0  0  0
 52122  1  0  0  0
 52123  1  0  0  0
 53 54  1  0  0  0
 54 55  2  0  0  0
 54124  1  0  0  0
 55 57  1  0  0  0
 55125  1  0  0  0
 56 69  2  0  0  0
 57 58  2  0  0  0
 57126  1  0  0  0
 58127  1  0  0  0
 59 60  1  0  0  0
 59 61  1  0  0  0
 59 62  1  0  0  0
 60128  1  0  0  0
 60129  1  0  0  0
 60130  1  0  0  0
 61131  1  0  0  0
 61132  1  0  0  0
 61133  1  0  0  0
 62134  1  0  0  0
 62135  1  0  0  0
 62136  1  0  0  0
 63 65  1  0  0  0
 63137  1  0  0  0
 63138  1  0  0  0
 63139  1  0  0  0
 64140  1  0  0  0
 65141  1  0  0  0
 68 79  1  0  0  0
 71 72  2  0  0  0
 71 73  1  0  0  0
 71142  1  0  0  0
 72 74  1  0  0  0
 72143  1  0  0  0
 73 76  2  0  0  0
 73144  1  0  0  0
 74 75  2  0  0  0
 74 78  1  0  0  0
 75 76  1  0  0  0
 75 77  1  0  0  0
 76 79  1  0  0  0
 77 82  1  0  0  0
 77145  1  0  0  0
 77146  1  0  0  0
 78 80  1  0  0  0
 78 82  1  0  0  0
 78147  1  0  0  0
 79148  1  0  0  0
 79149  1  0  0  0
 80 81  1  0  0  0
 80150  1  0  0  0
 80151  1  0  0  0
 81152  1  0  0  0
 82153  1  0  0  0
 82154  1  0  0  0
M  CHG  1  82   1
M  ISO  4   1 100  68 101  79 101  81 100
M  END
> <chiral flag>
0

> <version>
0

> <s_m_source_file>
/data/baiqing/PycharmProjects/Reinvent-master-3.2/result/LINK_invent/BTK/process_docking_weight1_custom_product_contain_oxygen_bond_distance_aromatic_linkinvent_7_9_3/rearranged_h_0002.sdf

> <i_m_source_file_index>
39

> <r_mmod_Potential_Energy-OPLS-2005>
390.0947265625

> <r_mmod_Stretch_Energy-OPLS-2005>
296.252410888672

> <r_mmod_Bend_Energy-OPLS-2005>
336.314544677734

> <r_mmod_Torsional_Energy-OPLS-2005>
255.416015625

> <r_mmod_Improper_Torsional_Energy-OPLS-2005>
4.52581453323364

> <r_mmod_Van_der_Waal_Energy-OPLS-2005>
122.934211730957

> <r_mmod_Electrostatic_Energy-OPLS-2005>
-345.834136962891

> <r_mmod_Solvation_Energy-OPLS-2005>
-524.101867675781

> <b_mmod_Minimization_Converged-OPLS-2005>
0

> <r_mmod_RMS_Derivative-OPLS-2005>
1.3825808763504

$$$$
39
                    3D
 Structure written by MMmdl.
158166  0  0  1  0            999 V2000
  -30.6626  -14.4171   20.6687 C   0  0  0  0  0  0
  -30.4439  -12.3160   19.3876 C   0  0  0  0  0  0
  -29.4985  -12.5428   18.1885 C   0  0  0  0  0  0
  -28.0156  -12.3995   18.5965 C   0  0  0  0  0  0
  -27.6724  -13.1876   19.8894 C   0  0  2  0  0  0
  -28.7077  -12.8531   20.9821 C   0  0  0  0  0  0
  -25.2651  -13.8121   20.5657 C   0  0  0  0  0  0
  -24.1874  -13.0412   20.9148 C   0  0  0  0  0  0
  -24.6390  -11.6878   20.8711 C   0  0  0  0  0  0
  -23.9027  -10.4286   21.0394 C   0  0  0  0  0  0
  -24.3595   -9.4213   21.9163 C   0  0  0  0  0  0
  -23.6292   -8.2236   22.0740 C   0  0  0  0  0  0
  -22.4270   -8.0266   21.3545 C   0  0  0  0  0  0
  -21.9893   -9.0230   20.4635 C   0  0  0  0  0  0
  -22.7203  -10.2122   20.3041 C   0  0  0  0  0  0
  -21.6870   -6.0713   22.5284 C   0  0  0  0  0  0
  -21.4016   -6.5620   23.8203 C   0  0  0  0  0  0
  -21.3654   -5.6782   24.9158 C   0  0  0  0  0  0
  -21.6049   -4.3052   24.7222 C   0  0  0  0  0  0
  -21.8823   -3.8129   23.4354 C   0  0  0  0  0  0
  -21.9213   -4.6941   22.3413 C   0  0  0  0  0  0
  -22.7915  -13.5237   21.1848 C   0  0  0  0  0  0
  -22.1692   -4.2117   21.1002 F   0  0  0  0  0  0
  -21.5614   -3.4546   25.7750 F   0  0  0  0  0  0
  -30.0334  -13.2284   20.4645 N   0  0  0  0  0  0
  -26.3064  -12.9248   20.3361 N   0  0  0  0  0  0
  -25.9301  -11.6428   20.5703 N   0  0  0  0  0  0
  -22.0593  -12.8175   22.0400 N   0  0  0  0  0  0
  -25.4413  -15.1819   20.4093 N   0  0  0  0  0  0
  -31.7434  -14.6867   20.1304 O   0  0  0  0  0  0
  -21.6645   -6.8863   21.4252 O   0  0  0  0  0  0
  -22.3605  -14.5565   20.6743 O   0  0  0  0  0  0
  -24.6119  -31.8719   23.2109 C   0  0  0  0  0  0
  -25.9035  -32.4822   23.8393 C   0  0  1  0  0  0
  -27.2118  -27.4516   20.0831 C   0  0  0  0  0  0
  -25.5908  -33.8623   24.2340 N   0  0  0  0  0  0
  -23.3945  -30.4972   21.5557 C   0  0  2  0  0  0
  -24.8317  -28.9711   20.1123 C   0  0  0  0  0  0
  -22.7392  -29.4673   22.5038 C   0  0  0  0  0  0
  -18.0262  -28.1347   22.8497 C   0  0  0  0  0  0
  -24.1497  -36.7321   23.2632 C   0  0  0  0  0  0
  -25.9226  -30.8422   21.3607 C   0  0  0  0  0  0
  -25.9943  -29.4814   20.7021 C   0  0  0  0  0  0
  -27.1887  -28.7293   20.6811 C   0  0  0  0  0  0
  -26.0284  -26.9554   19.4857 C   0  0  0  0  0  0
  -24.8431  -27.7076   19.5005 C   0  0  0  0  0  0
  -23.5930  -29.8313   20.1694 C   0  0  0  0  0  0
  -25.4120  -36.3123   24.0341 C   0  0  1  0  0  0
  -20.5846  -28.3640   23.1339 C   0  0  2  0  0  0
  -20.6751  -26.9384   22.5416 C   0  0  0  0  0  0
  -19.5732  -26.6372   21.5207 C   0  0  0  0  0  0
  -18.1909  -26.7903   22.1615 C   0  0  0  0  0  0
  -19.1505  -28.8813   23.2908 C   0  0  0  0  0  0
  -18.9433  -30.1428   23.8905 C   0  0  0  0  0  0
  -17.6436  -30.6571   24.0552 C   0  0  0  0  0  0
  -25.9045  -34.9479   23.5139 C   0  0  0  0  0  0
  -16.5332  -29.9063   23.6316 C   0  0  0  0  0  0
  -16.7255  -28.6470   23.0361 C   0  0  0  0  0  0
  -26.4456  -31.6580   25.0703 C   0  0  0  0  0  0
  -25.3721  -31.3661   26.1450 C   0  0  0  0  0  0
  -27.0276  -30.3028   24.6052 C   0  0  0  0  0  0
  -27.6047  -32.4270   25.7467 C   0  0  0  0  0  0
  -27.5598  -37.1810   24.8458 C   0  0  0  0  0  0
  -21.4125  -29.3030   22.3775 N   0  0  0  0  0  0
  -26.4317  -37.3797   23.9401 N   0  0  0  0  0  0
  -24.6616  -31.0834   22.1009 N   0  0  0  0  0  0
  -23.4191  -28.8221   23.3063 O   0  0  0  0  0  0
  -28.3808  -26.7253   20.1098 O   0  0  0  0  0  0
  -26.5603  -34.8920   22.4696 O   0  0  0  0  0  0
  -23.5327  -32.1457   23.7537 O   0  0  0  0  0  0
  -31.8826  -24.5184   20.9585 C   0  0  0  0  0  0
  -30.7301  -25.2302   20.5750 C   0  0  0  0  0  0
  -31.8066  -23.1328   21.2095 C   0  0  0  0  0  0
  -29.4187  -23.1808   20.7251 C   0  0  0  0  0  0
  -29.4935  -24.5640   20.4587 C   0  0  0  0  0  0
  -30.5728  -22.4566   21.0883 C   0  0  0  0  0  0
  -28.2428  -25.3065   20.0336 C   0  0  0  0  0  0
  -29.9901  -15.5184   21.5251 C   0  0  0  0  0  0
  -29.6329  -16.7862   20.7143 C   0  0  0  0  0  0
  -30.3220  -19.0666   20.0682 C   0  0  0  0  0  0
  -31.1866  -20.2896   20.4042 C   0  0  0  0  0  0
  -30.4660  -17.9645   21.0471 N   0  3  0  0  0  0
  -30.4655  -21.1097   21.3223 O   0  0  0  0  0  0
  -31.4795  -12.4727   19.0790 H   0  0  0  0  0  0
  -30.3946  -11.2807   19.7277 H   0  0  0  0  0  0
  -29.7352  -11.8438   17.3848 H   0  0  0  0  0  0
  -29.6669  -13.5410   17.7822 H   0  0  0  0  0  0
  -27.8126  -11.3391   18.7477 H   0  0  0  0  0  0
  -27.3697  -12.7192   17.7795 H   0  0  0  0  0  0
  -27.7495  -14.2499   19.6616 H   0  0  0  0  0  0
  -28.6990  -11.7775   21.1684 H   0  0  0  0  0  0
  -28.4505  -13.2761   21.9507 H   0  0  0  0  0  0
  -25.2765   -9.5677   22.4687 H   0  0  0  0  0  0
  -24.0016   -7.4631   22.7443 H   0  0  0  0  0  0
  -21.0830   -8.8735   19.8933 H   0  0  0  0  0  0
  -22.3685  -10.9636   19.6110 H   0  0  0  0  0  0
  -21.2010   -7.6142   23.9685 H   0  0  0  0  0  0
  -21.1469   -6.0528   25.9061 H   0  0  0  0  0  0
  -22.0616   -2.7591   23.2872 H   0  0  0  0  0  0
  -22.4271  -11.9832   22.4734 H   0  0  0  0  0  0
  -21.1194  -13.1116   22.2636 H   0  0  0  0  0  0
  -24.6739  -15.8377   20.5070 H   0  0  0  0  0  0
  -26.2837  -15.6159   20.0541 H   0  0  0  0  0  0
  -26.7103  -32.5530   23.1149 H   0  0  0  0  0  0
  -25.0068  -33.9778   25.0490 H   0  0  0  0  0  0
  -22.6809  -31.3126   21.4228 H   0  0  0  0  0  0
  -23.3764  -35.9648   23.3289 H   0  0  0  0  0  0
  -24.3605  -36.8938   22.2046 H   0  0  0  0  0  0
  -23.7239  -37.6523   23.6645 H   0  0  0  0  0  0
  -26.0363  -31.6109   20.5948 H   0  0  0  0  0  0
  -26.8122  -30.8879   21.9782 H   0  0  0  0  0  0
  -28.0874  -29.1182   21.1392 H   0  0  0  0  0  0
  -25.9935  -25.9897   19.0052 H   0  0  0  0  0  0
  -23.9475  -27.3113   19.0419 H   0  0  0  0  0  0
  -23.6844  -30.6031   19.4050 H   0  0  0  0  0  0
  -22.7180  -29.2424   19.8872 H   0  0  0  0  0  0
  -25.1286  -36.1999   25.0841 H   0  0  0  0  0  0
  -20.9922  -28.3181   24.1463 H   0  0  0  0  0  0
  -20.5662  -26.2237   23.3590 H   0  0  0  0  0  0
  -21.6623  -26.7430   22.1208 H   0  0  0  0  0  0
  -19.6895  -25.6288   21.1222 H   0  0  0  0  0  0
  -19.6675  -27.3194   20.6748 H   0  0  0  0  0  0
  -17.4188  -26.6675   21.4003 H   0  0  0  0  0  0
  -18.0297  -26.0027   22.8991 H   0  0  0  0  0  0
  -19.7912  -30.7236   24.2282 H   0  0  0  0  0  0
  -17.4993  -31.6255   24.5144 H   0  0  0  0  0  0
  -15.5335  -30.2971   23.7622 H   0  0  0  0  0  0
  -15.8658  -28.0787   22.7089 H   0  0  0  0  0  0
  -24.5925  -30.6977   25.7770 H   0  0  0  0  0  0
  -24.8869  -32.2804   26.4882 H   0  0  0  0  0  0
  -25.8079  -30.8840   27.0208 H   0  0  0  0  0  0
  -26.2807  -29.6801   24.1116 H   0  0  0  0  0  0
  -27.4070  -29.7242   25.4478 H   0  0  0  0  0  0
  -27.8631  -30.4350   23.9171 H   0  0  0  0  0  0
  -27.2694  -33.3567   26.2076 H   0  0  0  0  0  0
  -28.3844  -32.6831   25.0277 H   0  0  0  0  0  0
  -28.0730  -31.8365   26.5347 H   0  0  0  0  0  0
  -28.2598  -38.0119   24.7544 H   0  0  0  0  0  0
  -28.1114  -36.2660   24.6249 H   0  0  0  0  0  0
  -27.2318  -37.1413   25.8856 H   0  0  0  0  0  0
  -20.9280  -29.8767   21.7014 H   0  0  0  0  0  0
  -26.0212  -38.2883   24.1394 H   0  0  0  0  0  0
  -32.8227  -25.0403   21.0576 H   0  0  0  0  0  0
  -30.7985  -26.2911   20.3765 H   0  0  0  0  0  0
  -32.6990  -22.6013   21.5078 H   0  0  0  0  0  0
  -28.4725  -22.6640   20.6404 H   0  0  0  0  0  0
  -27.4256  -24.9720   20.6773 H   0  0  0  0  0  0
  -28.0035  -25.0113   19.0108 H   0  0  0  0  0  0
  -29.0646  -15.1966   21.9912 H   0  0  0  0  0  0
  -30.6385  -15.7515   22.3677 H   0  0  0  0  0  0
  -28.5894  -17.0482   20.8944 H   0  0  0  0  0  0
  -29.7027  -16.5879   19.6429 H   0  0  0  0  0  0
  -30.6215  -18.6871   19.0916 H   0  0  0  0  0  0
  -29.2747  -19.3633   19.9794 H   0  0  0  0  0  0
  -31.3842  -20.8334   19.4763 H   0  0  0  0  0  0
  -32.1556  -19.9992   20.8136 H   0  0  0  0  0  0
  -31.4346  -17.6838   21.0785 H   0  0  0  0  0  0
  -30.2088  -18.2971   21.9653 H   0  0  0  0  0  0
  1 25  1  0  0  0
  1 30  2  0  0  0
  1 78  1  0  0  0
  2  3  1  0  0  0
  2 25  1  0  0  0
  2 84  1  0  0  0
  2 85  1  0  0  0
  3  4  1  0  0  0
  3 86  1  0  0  0
  3 87  1  0  0  0
  4  5  1  0  0  0
  4 88  1  0  0  0
  4 89  1  0  0  0
  5  6  1  0  0  0
  5 26  1  0  0  0
  5 90  1  0  0  0
  6 25  1  0  0  0
  6 91  1  0  0  0
  6 92  1  0  0  0
  7  8  2  0  0  0
  7 26  1  0  0  0
  7 29  1  0  0  0
  8  9  1  0  0  0
  8 22  1  0  0  0
  9 10  1  0  0  0
  9 27  2  0  0  0
 10 11  2  0  0  0
 10 15  1  0  0  0
 11 12  1  0  0  0
 11 93  1  0  0  0
 12 13  2  0  0  0
 12 94  1  0  0  0
 13 14  1  0  0  0
 13 31  1  0  0  0
 14 15  2  0  0  0
 14 95  1  0  0  0
 15 96  1  0  0  0
 16 17  2  0  0  0
 16 21  1  0  0  0
 16 31  1  0  0  0
 17 18  1  0  0  0
 17 97  1  0  0  0
 18 19  2  0  0  0
 18 98  1  0  0  0
 19 20  1  0  0  0
 19 24  1  0  0  0
 20 21  2  0  0  0
 20 99  1  0  0  0
 21 23  1  0  0  0
 22 28  1  0  0  0
 22 32  2  0  0  0
 26 27  1  0  0  0
 28100  1  0  0  0
 28101  1  0  0  0
 29102  1  0  0  0
 29103  1  0  0  0
 33 34  1  0  0  0
 33 66  1  0  0  0
 33 70  2  0  0  0
 34 36  1  0  0  0
 34 59  1  0  0  0
 34104  1  0  0  0
 35 44  2  0  0  0
 35 45  1  0  0  0
 35 68  1  0  0  0
 36 56  1  0  0  0
 36105  1  0  0  0
 37 39  1  0  0  0
 37 47  1  0  0  0
 37 66  1  0  0  0
 37106  1  0  0  0
 38 43  2  0  0  0
 38 46  1  0  0  0
 38 47  1  0  0  0
 39 64  1  0  0  0
 39 67  2  0  0  0
 40 52  1  0  0  0
 40 53  2  0  0  0
 40 58  1  0  0  0
 41107  1  0  0  0
 41108  1  0  0  0
 41109  1  0  0  0
 41 48  1  0  0  0
 42 43  1  0  0  0
 42 66  1  0  0  0
 42110  1  0  0  0
 42111  1  0  0  0
 43 44  1  0  0  0
 44112  1  0  0  0
 45 46  2  0  0  0
 45113  1  0  0  0
 46114  1  0  0  0
 47115  1  0  0  0
 47116  1  0  0  0
 48 56  1  0  0  0
 48 65  1  0  0  0
 48117  1  0  0  0
 49 50  1  0  0  0
 49 53  1  0  0  0
 49 64  1  0  0  0
 49118  1  0  0  0
 50 51  1  0  0  0
 50119  1  0  0  0
 50120  1  0  0  0
 51 52  1  0  0  0
 51121  1  0  0  0
 51122  1  0  0  0
 52123  1  0  0  0
 52124  1  0  0  0
 53 54  1  0  0  0
 54 55  2  0  0  0
 54125  1  0  0  0
 55 57  1  0  0  0
 55126  1  0  0  0
 56 69  2  0  0  0
 57 58  2  0  0  0
 57127  1  0  0  0
 58128  1  0  0  0
 59 60  1  0  0  0
 59 61  1  0  0  0
 59 62  1  0  0  0
 60129  1  0  0  0
 60130  1  0  0  0
 60131  1  0  0  0
 61132  1  0  0  0
 61133  1  0  0  0
 61134  1  0  0  0
 62135  1  0  0  0
 62136  1  0  0  0
 62137  1  0  0  0
 63 65  1  0  0  0
 63138  1  0  0  0
 63139  1  0  0  0
 63140  1  0  0  0
 64141  1  0  0  0
 65142  1  0  0  0
 68 77  1  0  0  0
 71 72  2  0  0  0
 71 73  1  0  0  0
 71143  1  0  0  0
 72 75  1  0  0  0
 72144  1  0  0  0
 73 76  2  0  0  0
 73145  1  0  0  0
 74 75  2  0  0  0
 74 76  1  0  0  0
 74146  1  0  0  0
 75 77  1  0  0  0
 76 83  1  0  0  0
 77147  1  0  0  0
 77148  1  0  0  0
 78 79  1  0  0  0
 78149  1  0  0  0
 78150  1  0  0  0
 79 82  1  0  0  0
 79151  1  0  0  0
 79152  1  0  0  0
 80 81  1  0  0  0
 80 82  1  0  0  0
 80153  1  0  0  0
 80154  1  0  0  0
 81 83  1  0  0  0
 81155  1  0  0  0
 81156  1  0  0  0
 82157  1  0  0  0
 82158  1  0  0  0
M  CHG  1  82   1
M  ISO  4   1 100  68 101  77 101  78 100
M  END
> <chiral flag>
0

> <version>
0

> <s_m_source_file>
/data/baiqing/PycharmProjects/Reinvent-master-3.2/result/LINK_invent/BTK/process_docking_weight1_custom_product_contain_oxygen_bond_distance_aromatic_linkinvent_7_9_3/rearranged_h_0002.sdf

> <i_m_source_file_index>
40

> <r_mmod_Potential_Energy-OPLS-2005>
-171.449172973633

> <r_mmod_Stretch_Energy-OPLS-2005>
32.3326530456543

> <r_mmod_Bend_Energy-OPLS-2005>
90.1607360839844

> <r_mmod_Torsional_Energy-OPLS-2005>
210.595733642578

> <r_mmod_Improper_Torsional_Energy-OPLS-2005>
2.42851328849792

> <r_mmod_Van_der_Waal_Energy-OPLS-2005>
161.611907958984

> <r_mmod_Electrostatic_Energy-OPLS-2005>
-242.614669799805

> <r_mmod_Solvation_Energy-OPLS-2005>
-438.043914794922

> <b_mmod_Minimization_Converged-OPLS-2005>
0

> <r_mmod_RMS_Derivative-OPLS-2005>
3.52038288116455

$$$$
40
                    3D
 Structure written by MMmdl.
147155  0  0  1  0            999 V2000
  -30.4075  -15.3385   20.3686 C   0  0  0  0  0  0
  -30.4394  -12.8683   19.5103 C   0  0  0  0  0  0
  -29.5353  -12.5855   18.2833 C   0  0  0  0  0  0
  -28.0893  -12.2930   18.7211 C   0  0  0  0  0  0
  -27.6063  -13.2779   19.8137 C   0  0  2  0  0  0
  -28.6417  -13.4868   20.9380 C   0  0  0  0  0  0
  -25.2377  -13.8243   20.5753 C   0  0  0  0  0  0
  -24.1737  -13.0429   20.9269 C   0  0  0  0  0  0
  -24.6398  -11.6928   20.8766 C   0  0  0  0  0  0
  -23.9094  -10.4288   21.0407 C   0  0  0  0  0  0
  -24.3638   -9.4202   21.9186 C   0  0  0  0  0  0
  -23.6304   -8.2241   22.0755 C   0  0  0  0  0  0
  -22.4285   -8.0282   21.3545 C   0  0  0  0  0  0
  -21.9928   -9.0257   20.4645 C   0  0  0  0  0  0
  -22.7265  -10.2131   20.3055 C   0  0  0  0  0  0
  -21.6855   -6.0738   22.5279 C   0  0  0  0  0  0
  -21.4016   -6.5641   23.8213 C   0  0  0  0  0  0
  -21.3660   -5.6793   24.9174 C   0  0  0  0  0  0
  -21.6044   -4.3056   24.7225 C   0  0  0  0  0  0
  -21.8819   -3.8148   23.4346 C   0  0  0  0  0  0
  -21.9193   -4.6965   22.3402 C   0  0  0  0  0  0
  -22.7753  -13.5180   21.1913 C   0  0  0  0  0  0
  -22.1661   -4.2151   21.0979 F   0  0  0  0  0  0
  -21.5628   -3.4539   25.7737 F   0  0  0  0  0  0
  -29.8534  -14.0220   20.2918 N   0  0  0  0  0  0
  -26.2801  -12.9521   20.3202 N   0  0  0  0  0  0
  -25.9334  -11.6624   20.5711 N   0  0  0  0  0  0
  -22.0412  -12.8161   22.0465 N   0  0  0  0  0  0
  -25.3993  -15.1980   20.4188 N   0  0  0  0  0  0
  -31.6420  -15.3254   20.2462 O   0  0  0  0  0  0
  -21.6644   -6.8882   21.4242 O   0  0  0  0  0  0
  -22.3433  -14.5481   20.6751 O   0  0  0  0  0  0
  -24.6676  -31.8193   23.1665 C   0  0  0  0  0  0
  -25.9335  -32.4567   23.8148 C   0  0  1  0  0  0
  -27.2191  -26.8807   20.2005 C   0  0  0  0  0  0
  -25.5984  -33.8383   24.2051 N   0  0  0  0  0  0
  -23.4844  -30.4287   21.5177 C   0  0  2  0  0  0
  -24.9377  -28.8020   20.1222 C   0  0  0  0  0  0
  -22.7687  -29.4421   22.4778 C   0  0  0  0  0  0
  -18.0326  -28.1411   22.8465 C   0  0  0  0  0  0
  -24.1494  -36.7197   23.2648 C   0  0  0  0  0  0
  -26.0566  -30.6118   21.4026 C   0  0  0  0  0  0
  -26.1252  -29.1943   20.7534 C   0  0  0  0  0  0
  -27.2630  -28.2590   20.7592 C   0  0  0  0  0  0
  -25.9986  -26.6489   19.5275 C   0  0  0  0  0  0
  -24.9018  -27.5500   19.4879 C   0  0  0  0  0  0
  -23.7278  -29.7379   20.1478 C   0  0  0  0  0  0
  -25.4137  -36.2954   24.0296 C   0  0  1  0  0  0
  -20.5953  -28.3760   23.1180 C   0  0  2  0  0  0
  -20.6801  -26.9438   22.5402 C   0  0  0  0  0  0
  -19.5775  -26.6377   21.5215 C   0  0  0  0  0  0
  -18.1957  -26.7943   22.1622 C   0  0  0  0  0  0
  -19.1588  -28.8907   23.2808 C   0  0  0  0  0  0
  -18.9497  -30.1496   23.8845 C   0  0  0  0  0  0
  -17.6489  -30.6599   24.0554 C   0  0  0  0  0  0
  -25.9105  -34.9339   23.4997 C   0  0  0  0  0  0
  -16.5379  -29.9085   23.6345 C   0  0  0  0  0  0
  -16.7307  -28.6506   23.0363 C   0  0  0  0  0  0
  -26.4569  -31.6528   25.0695 C   0  0  0  0  0  0
  -25.3682  -31.3791   26.1341 C   0  0  0  0  0  0
  -27.0475  -30.2890   24.6459 C   0  0  0  0  0  0
  -27.6050  -32.4348   25.7505 C   0  0  0  0  0  0
  -27.5568  -37.1756   24.8467 C   0  0  0  0  0  0
  -21.4353  -29.3043   22.3525 N   0  0  0  0  0  0
  -26.4278  -37.3695   23.9408 N   0  0  0  0  0  0
  -24.7582  -30.9814   22.0825 N   0  0  0  0  0  0
  -23.4213  -28.7999   23.3043 O   0  0  0  0  0  0
  -28.2246  -25.7619   20.1857 O   0  0  0  0  0  0
  -26.5721  -34.8883   22.4598 O   0  0  0  0  0  0
  -23.5734  -32.1182   23.6731 O   0  0  0  0  0  0
  -28.9453  -21.1695   17.9988 C   0  0  0  0  0  0
  -29.2196  -19.9454   18.6761 C   0  0  0  0  0  0
  -28.6601  -22.4175   18.6269 C   0  0  0  0  0  0
  -28.9239  -21.2205   20.7003 C   0  0  0  0  0  0
  -29.2567  -19.8277   20.0822 C   0  0  0  0  0  0
  -28.6045  -22.5905   20.0271 C   0  0  0  0  0  0
  -29.8038  -18.2707   20.7308 C   0  0  0  0  0  0
  -28.0097  -24.1588   20.6024 C   0  0  0  0  0  0
  -29.6295  -16.6212   20.3858 N   0  0  0  0  0  0
  -31.4482  -13.0988   19.1653 H   0  0  0  0  0  0
  -30.5387  -11.9797   20.1359 H   0  0  0  0  0  0
  -29.9296  -11.7509   17.7022 H   0  0  0  0  0  0
  -29.5454  -13.4526   17.6211 H   0  0  0  0  0  0
  -28.0631  -11.2750   19.1117 H   0  0  0  0  0  0
  -27.4172  -12.3093   17.8623 H   0  0  0  0  0  0
  -27.5076  -14.2341   19.2984 H   0  0  0  0  0  0
  -28.8363  -12.5627   21.4844 H   0  0  0  0  0  0
  -28.2690  -14.2079   21.6672 H   0  0  0  0  0  0
  -25.2779   -9.5677   22.4767 H   0  0  0  0  0  0
  -24.0008   -7.4632   22.7477 H   0  0  0  0  0  0
  -21.0859   -8.8781   19.8951 H   0  0  0  0  0  0
  -22.3724  -10.9673   19.6167 H   0  0  0  0  0  0
  -21.2010   -7.6149   23.9716 H   0  0  0  0  0  0
  -21.1482   -6.0523   25.9077 H   0  0  0  0  0  0
  -22.0597   -2.7610   23.2845 H   0  0  0  0  0  0
  -22.4047  -11.9832   22.4857 H   0  0  0  0  0  0
  -21.1022  -13.1164   22.2666 H   0  0  0  0  0  0
  -24.6265  -15.8451   20.5329 H   0  0  0  0  0  0
  -26.2357  -15.6418   20.0643 H   0  0  0  0  0  0
  -26.7408  -32.5095   23.0864 H   0  0  0  0  0  0
  -25.0072  -33.9453   25.0163 H   0  0  0  0  0  0
  -22.8002  -31.2613   21.3415 H   0  0  0  0  0  0
  -23.3771  -35.9511   23.3272 H   0  0  0  0  0  0
  -24.3570  -36.8885   22.2070 H   0  0  0  0  0  0
  -23.7237  -37.6366   23.6734 H   0  0  0  0  0  0
  -26.2389  -31.3476   20.6182 H   0  0  0  0  0  0
  -26.9157  -30.6743   22.0585 H   0  0  0  0  0  0
  -28.1689  -28.5669   21.2622 H   0  0  0  0  0  0
  -25.8699  -25.6954   19.0348 H   0  0  0  0  0  0
  -24.0014  -27.2428   18.9738 H   0  0  0  0  0  0
  -23.8906  -30.5027   19.3876 H   0  0  0  0  0  0
  -22.8360  -29.1960   19.8281 H   0  0  0  0  0  0
  -25.1338  -36.1743   25.0787 H   0  0  0  0  0  0
  -21.0037  -28.3369   24.1305 H   0  0  0  0  0  0
  -20.5680  -26.2380   23.3646 H   0  0  0  0  0  0
  -21.6664  -26.7409   22.1210 H   0  0  0  0  0  0
  -19.6934  -25.6274   21.1279 H   0  0  0  0  0  0
  -19.6713  -27.3158   20.6722 H   0  0  0  0  0  0
  -17.4226  -26.6685   21.4027 H   0  0  0  0  0  0
  -18.0352  -26.0099   22.9032 H   0  0  0  0  0  0
  -19.7972  -30.7327   24.2191 H   0  0  0  0  0  0
  -17.5039  -31.6274   24.5166 H   0  0  0  0  0  0
  -15.5377  -30.2969   23.7699 H   0  0  0  0  0  0
  -15.8708  -28.0806   22.7109 H   0  0  0  0  0  0
  -24.5883  -30.7122   25.7647 H   0  0  0  0  0  0
  -24.8852  -32.2996   26.4628 H   0  0  0  0  0  0
  -25.7902  -30.9048   27.0211 H   0  0  0  0  0  0
  -26.3154  -29.6552   24.1444 H   0  0  0  0  0  0
  -27.3969  -29.7271   25.5132 H   0  0  0  0  0  0
  -27.9108  -30.4062   23.9907 H   0  0  0  0  0  0
  -27.2610  -33.3698   26.1940 H   0  0  0  0  0  0
  -28.3937  -32.6831   25.0390 H   0  0  0  0  0  0
  -28.0634  -31.8571   26.5540 H   0  0  0  0  0  0
  -28.2565  -38.0071   24.7512 H   0  0  0  0  0  0
  -28.1085  -36.2596   24.6297 H   0  0  0  0  0  0
  -27.2284  -37.1400   25.8869 H   0  0  0  0  0  0
  -20.9620  -29.8722   21.6636 H   0  0  0  0  0  0
  -26.0121  -38.2751   24.1416 H   0  0  0  0  0  0
  -28.9516  -21.1496   16.9175 H   0  0  0  0  0  0
  -29.4437  -19.0700   18.0814 H   0  0  0  0  0  0
  -28.4390  -23.2690   17.9978 H   0  0  0  0  0  0
  -28.9082  -21.2402   21.7811 H   0  0  0  0  0  0
  -29.5077  -18.3294   21.7784 H   0  0  0  0  0  0
  -30.8867  -18.3942   20.7676 H   0  0  0  0  0  0
  -28.2486  -24.1429   21.6657 H   0  0  0  0  0  0
  -26.9275  -24.0300   20.5824 H   0  0  0  0  0  0
  -28.6486  -16.3991   20.3052 H   0  0  0  0  0  0
  1 25  1  0  0  0
  1 30  2  0  0  0
  1 79  1  0  0  0
  2  3  1  0  0  0
  2 25  1  0  0  0
  2 80  1  0  0  0
  2 81  1  0  0  0
  3  4  1  0  0  0
  3 82  1  0  0  0
  3 83  1  0  0  0
  4  5  1  0  0  0
  4 84  1  0  0  0
  4 85  1  0  0  0
  5  6  1  0  0  0
  5 26  1  0  0  0
  5 86  1  0  0  0
  6 25  1  0  0  0
  6 87  1  0  0  0
  6 88  1  0  0  0
  7  8  2  0  0  0
  7 26  1  0  0  0
  7 29  1  0  0  0
  8  9  1  0  0  0
  8 22  1  0  0  0
  9 10  1  0  0  0
  9 27  2  0  0  0
 10 11  2  0  0  0
 10 15  1  0  0  0
 11 12  1  0  0  0
 11 89  1  0  0  0
 12 13  2  0  0  0
 12 90  1  0  0  0
 13 14  1  0  0  0
 13 31  1  0  0  0
 14 15  2  0  0  0
 14 91  1  0  0  0
 15 92  1  0  0  0
 16 17  2  0  0  0
 16 21  1  0  0  0
 16 31  1  0  0  0
 17 18  1  0  0  0
 17 93  1  0  0  0
 18 19  2  0  0  0
 18 94  1  0  0  0
 19 20  1  0  0  0
 19 24  1  0  0  0
 20 21  2  0  0  0
 20 95  1  0  0  0
 21 23  1  0  0  0
 22 28  1  0  0  0
 22 32  2  0  0  0
 26 27  1  0  0  0
 28 96  1  0  0  0
 28 97  1  0  0  0
 29 98  1  0  0  0
 29 99  1  0  0  0
 33 34  1  0  0  0
 33 66  1  0  0  0
 33 70  2  0  0  0
 34 36  1  0  0  0
 34 59  1  0  0  0
 34100  1  0  0  0
 35 44  2  0  0  0
 35 45  1  0  0  0
 35 68  1  0  0  0
 36 56  1  0  0  0
 36101  1  0  0  0
 37 39  1  0  0  0
 37 47  1  0  0  0
 37 66  1  0  0  0
 37102  1  0  0  0
 38 43  2  0  0  0
 38 46  1  0  0  0
 38 47  1  0  0  0
 39 64  1  0  0  0
 39 67  2  0  0  0
 40 52  1  0  0  0
 40 53  2  0  0  0
 40 58  1  0  0  0
 41103  1  0  0  0
 41104  1  0  0  0
 41105  1  0  0  0
 41 48  1  0  0  0
 42 43  1  0  0  0
 42 66  1  0  0  0
 42106  1  0  0  0
 42107  1  0  0  0
 43 44  1  0  0  0
 44108  1  0  0  0
 45 46  2  0  0  0
 45109  1  0  0  0
 46110  1  0  0  0
 47111  1  0  0  0
 47112  1  0  0  0
 48 56  1  0  0  0
 48 65  1  0  0  0
 48113  1  0  0  0
 49 50  1  0  0  0
 49 53  1  0  0  0
 49 64  1  0  0  0
 49114  1  0  0  0
 50 51  1  0  0  0
 50115  1  0  0  0
 50116  1  0  0  0
 51 52  1  0  0  0
 51117  1  0  0  0
 51118  1  0  0  0
 52119  1  0  0  0
 52120  1  0  0  0
 53 54  1  0  0  0
 54 55  2  0  0  0
 54121  1  0  0  0
 55 57  1  0  0  0
 55122  1  0  0  0
 56 69  2  0  0  0
 57 58  2  0  0  0
 57123  1  0  0  0
 58124  1  0  0  0
 59 60  1  0  0  0
 59 61  1  0  0  0
 59 62  1  0  0  0
 60125  1  0  0  0
 60126  1  0  0  0
 60127  1  0  0  0
 61128  1  0  0  0
 61129  1  0  0  0
 61130  1  0  0  0
 62131  1  0  0  0
 62132  1  0  0  0
 62133  1  0  0  0
 63 65  1  0  0  0
 63134  1  0  0  0
 63135  1  0  0  0
 63136  1  0  0  0
 64137  1  0  0  0
 65138  1  0  0  0
 68 78  1  0  0  0
 71 72  2  0  0  0
 71 73  1  0  0  0
 71139  1  0  0  0
 72 75  1  0  0  0
 72140  1  0  0  0
 73 76  2  0  0  0
 73141  1  0  0  0
 74 75  2  0  0  0
 74 76  1  0  0  0
 74142  1  0  0  0
 75 77  1  0  0  0
 76 78  1  0  0  0
 77 79  1  0  0  0
 77143  1  0  0  0
 77144  1  0  0  0
 78145  1  0  0  0
 78146  1  0  0  0
 79147  1  0  0  0
M  ISO  4   1 100  68 101  78 101  79 100
M  END
> <chiral flag>
0

> <version>
0

> <s_m_source_file>
/data/baiqing/PycharmProjects/Reinvent-master-3.2/result/LINK_invent/BTK/process_docking_weight1_custom_product_contain_oxygen_bond_distance_aromatic_linkinvent_7_9_3/rearranged_h_0002.sdf

> <i_m_source_file_index>
41

> <r_mmod_Potential_Energy-OPLS-2005>
1401.74060058594

> <r_mmod_Stretch_Energy-OPLS-2005>
643.052795410156

> <r_mmod_Bend_Energy-OPLS-2005>
451.203063964844

> <r_mmod_Torsional_Energy-OPLS-2005>
238.437026977539

> <r_mmod_Improper_Torsional_Energy-OPLS-2005>
6.01917123794556

> <r_mmod_Van_der_Waal_Energy-OPLS-2005>
122.058601379395

> <r_mmod_Electrostatic_Energy-OPLS-2005>
-377.779266357422

> <r_mmod_Solvation_Energy-OPLS-2005>
-214.792663574219

> <b_mmod_Minimization_Converged-OPLS-2005>
1

> <r_mmod_RMS_Derivative-OPLS-2005>
0.046136412769556

$$$$
41
                    3D
 Structure written by MMmdl.
140147  0  0  1  0            999 V2000
  -30.1611  -16.0041   20.3080 C   0  0  0  0  0  0
  -30.3940  -13.3709   19.5193 C   0  0  0  0  0  0
  -29.5602  -12.7495   18.3505 C   0  0  0  0  0  0
  -28.1679  -12.3098   18.8207 C   0  0  0  0  0  0
  -27.5837  -13.3431   19.8035 C   0  0  2  0  0  0
  -28.5794  -13.8362   20.8889 C   0  0  0  0  0  0
  -25.2278  -13.8329   20.5856 C   0  0  0  0  0  0
  -24.1700  -13.0433   20.9315 C   0  0  0  0  0  0
  -24.6450  -11.6960   20.8763 C   0  0  0  0  0  0
  -23.9156  -10.4295   21.0384 C   0  0  0  0  0  0
  -24.3676   -9.4207   21.9173 C   0  0  0  0  0  0
  -23.6326   -8.2253   22.0753 C   0  0  0  0  0  0
  -22.4305   -8.0296   21.3544 C   0  0  0  0  0  0
  -21.9960   -9.0273   20.4641 C   0  0  0  0  0  0
  -22.7315  -10.2138   20.3042 C   0  0  0  0  0  0
  -21.6863   -6.0747   22.5279 C   0  0  0  0  0  0
  -21.4022   -6.5646   23.8213 C   0  0  0  0  0  0
  -21.3661   -5.6796   24.9173 C   0  0  0  0  0  0
  -21.6044   -4.3059   24.7222 C   0  0  0  0  0  0
  -21.8818   -3.8153   23.4342 C   0  0  0  0  0  0
  -21.9196   -4.6972   22.3400 C   0  0  0  0  0  0
  -22.7702  -13.5137   21.1934 C   0  0  0  0  0  0
  -22.1662   -4.2158   21.0977 F   0  0  0  0  0  0
  -21.5626   -3.4540   25.7734 F   0  0  0  0  0  0
  -29.6775  -14.5802   20.1919 N   0  0  0  0  0  0
  -26.2769  -12.9729   20.3291 N   0  0  0  0  0  0
  -25.9412  -11.6758   20.5682 N   0  0  0  0  0  0
  -22.0374  -12.8106   22.0483 N   0  0  0  0  0  0
  -25.3817  -15.2078   20.4306 N   0  0  0  0  0  0
  -31.4087  -15.8722   20.2822 O   0  0  0  0  0  0
  -21.6655   -6.8899   21.4244 O   0  0  0  0  0  0
  -22.3368  -14.5432   20.6768 O   0  0  0  0  0  0
  -24.7122  -31.7741   23.1306 C   0  0  0  0  0  0
  -25.9575  -32.4339   23.7956 C   0  0  1  0  0  0
  -27.2357  -26.4414   20.2493 C   0  0  0  0  0  0
  -25.6043  -33.8173   24.1821 N   0  0  0  0  0  0
  -23.5502  -30.3697   21.4913 C   0  0  2  0  0  0
  -25.0042  -28.6446   20.1367 C   0  0  0  0  0  0
  -22.7896  -29.4343   22.4700 C   0  0  0  0  0  0
  -18.0162  -28.1569   22.8214 C   0  0  0  0  0  0
  -24.1498  -36.7093   23.2657 C   0  0  0  0  0  0
  -26.1405  -30.4200   21.4324 C   0  0  0  0  0  0
  -26.2010  -28.9529   20.7936 C   0  0  0  0  0  0
  -27.2917  -27.8910   20.8024 C   0  0  0  0  0  0
  -25.9991  -26.4075   19.5352 C   0  0  0  0  0  0
  -24.9575  -27.3998   19.4818 C   0  0  0  0  0  0
  -23.8153  -29.6344   20.1422 C   0  0  0  0  0  0
  -25.4158  -36.2817   24.0263 C   0  0  1  0  0  0
  -20.6073  -28.3875   23.0881 C   0  0  2  0  0  0
  -20.7786  -26.9756   22.4608 C   0  0  0  0  0  0
  -19.5498  -26.4216   21.7088 C   0  0  0  0  0  0
  -18.1097  -26.8638   22.0237 C   0  0  0  0  0  0
  -19.1588  -28.8842   23.2637 C   0  0  0  0  0  0
  -18.9570  -30.1345   23.8911 C   0  0  0  0  0  0
  -17.6624  -30.6560   24.0765 C   0  0  0  0  0  0
  -25.9160  -34.9216   23.4892 C   0  0  0  0  0  0
  -16.5419  -29.9202   23.6574 C   0  0  0  0  0  0
  -16.7219  -28.6723   23.0397 C   0  0  0  0  0  0
  -26.4648  -31.6466   25.0680 C   0  0  0  0  0  0
  -25.3637  -31.3855   26.1238 C   0  0  0  0  0  0
  -27.0614  -30.2776   24.6755 C   0  0  0  0  0  0
  -27.6047  -32.4377   25.7524 C   0  0  0  0  0  0
  -27.5558  -37.1705   24.8467 C   0  0  0  0  0  0
  -21.4495  -29.3435   22.3578 N   0  0  0  0  0  0
  -26.4262  -37.3606   23.9409 N   0  0  0  0  0  0
  -24.8283  -30.8941   22.0696 N   0  0  0  0  0  0
  -23.4210  -28.7802   23.3033 O   0  0  0  0  0  0
  -28.1967  -25.1262   20.2226 O   0  0  0  0  0  0
  -26.5824  -34.8842   22.4527 O   0  0  0  0  0  0
  -23.6085  -32.0940   23.6097 O   0  0  0  0  0  0
  -28.7705  -21.2825   19.9969 C   0  0  0  0  0  0
  -29.3625  -19.3536   20.6014 C   0  0  0  0  0  0
  -28.2110  -23.2498   20.5175 C   0  0  0  0  0  0
  -29.4079  -17.4693   20.2741 N   0  0  0  0  0  0
  -31.3466  -13.7011   19.1035 H   0  0  0  0  0  0
  -30.6640  -12.6081   20.2520 H   0  0  0  0  0  0
  -30.0920  -11.9085   17.9034 H   0  0  0  0  0  0
  -29.4512  -13.4961   17.5625 H   0  0  0  0  0  0
  -28.2677  -11.3481   19.3257 H   0  0  0  0  0  0
  -27.5014  -12.1499   17.9722 H   0  0  0  0  0  0
  -27.3925  -14.2099   19.1687 H   0  0  0  0  0  0
  -28.9347  -13.0208   21.5211 H   0  0  0  0  0  0
  -28.0774  -14.5353   21.5592 H   0  0  0  0  0  0
  -25.2813   -9.5677   22.4762 H   0  0  0  0  0  0
  -24.0020   -7.4647   22.7483 H   0  0  0  0  0  0
  -21.0888   -8.8807   19.8948 H   0  0  0  0  0  0
  -22.3776  -10.9680   19.6153 H   0  0  0  0  0  0
  -21.2018   -7.6155   23.9719 H   0  0  0  0  0  0
  -21.1482   -6.0525   25.9077 H   0  0  0  0  0  0
  -22.0594   -2.7615   23.2840 H   0  0  0  0  0  0
  -22.4027  -11.9789   22.4882 H   0  0  0  0  0  0
  -21.0974  -13.1085   22.2674 H   0  0  0  0  0  0
  -24.6092  -15.8546   20.5480 H   0  0  0  0  0  0
  -26.2271  -15.6547   20.1017 H   0  0  0  0  0  0
  -26.7689  -32.4750   23.0689 H   0  0  0  0  0  0
  -25.0068  -33.9166   24.9896 H   0  0  0  0  0  0
  -22.8946  -31.2157   21.2742 H   0  0  0  0  0  0
  -23.3788  -35.9392   23.3244 H   0  0  0  0  0  0
  -24.3558  -36.8846   22.2087 H   0  0  0  0  0  0
  -23.7232  -37.6231   23.6804 H   0  0  0  0  0  0
  -26.3681  -31.1235   20.6306 H   0  0  0  0  0  0
  -26.9832  -30.5006   22.1060 H   0  0  0  0  0  0
  -28.1975  -28.1537   21.3305 H   0  0  0  0  0  0
  -25.7911  -25.4872   19.0076 H   0  0  0  0  0  0
  -24.0632  -27.1495   18.9276 H   0  0  0  0  0  0
  -24.0136  -30.3783   19.3698 H   0  0  0  0  0  0
  -22.9130  -29.1146   19.8155 H   0  0  0  0  0  0
  -25.1379  -36.1542   25.0751 H   0  0  0  0  0  0
  -20.9993  -28.3319   24.1064 H   0  0  0  0  0  0
  -21.1583  -26.3040   23.2422 H   0  0  0  0  0  0
  -21.6163  -26.9721   21.7601 H   0  0  0  0  0  0
  -19.3880  -26.0269   22.7114 H   0  0  0  0  0  0
  -19.6128  -27.3462   21.1307 H   0  0  0  0  0  0
  -17.5815  -27.0283   21.0810 H   0  0  0  0  0  0
  -17.5017  -26.0951   22.5175 H   0  0  0  0  0  0
  -19.8097  -30.7074   24.2302 H   0  0  0  0  0  0
  -17.5302  -31.6181   24.5523 H   0  0  0  0  0  0
  -15.5460  -30.3152   23.8048 H   0  0  0  0  0  0
  -15.8546  -28.1225   22.6995 H   0  0  0  0  0  0
  -24.5858  -30.7178   25.7514 H   0  0  0  0  0  0
  -24.8793  -32.3100   26.4389 H   0  0  0  0  0  0
  -25.7743  -30.9184   27.0198 H   0  0  0  0  0  0
  -26.3378  -29.6321   24.1770 H   0  0  0  0  0  0
  -27.3966  -29.7315   25.5583 H   0  0  0  0  0  0
  -27.9387  -30.3845   24.0374 H   0  0  0  0  0  0
  -27.2557  -33.3779   26.1808 H   0  0  0  0  0  0
  -28.4013  -32.6778   25.0469 H   0  0  0  0  0  0
  -28.0543  -31.8704   26.5683 H   0  0  0  0  0  0
  -28.2525  -38.0046   24.7520 H   0  0  0  0  0  0
  -28.1104  -36.2565   24.6288 H   0  0  0  0  0  0
  -27.2271  -37.1326   25.8867 H   0  0  0  0  0  0
  -20.9859  -29.9264   21.6745 H   0  0  0  0  0  0
  -26.0065  -38.2641   24.1431 H   0  0  0  0  0  0
  -27.9479  -21.0312   19.3274 H   0  0  0  0  0  0
  -29.5799  -21.5046   19.3014 H   0  0  0  0  0  0
  -28.8623  -19.3135   21.5693 H   0  0  0  0  0  0
  -30.4044  -19.5229   20.8749 H   0  0  0  0  0  0
  -28.6621  -23.2870   21.5090 H   0  0  0  0  0  0
  -27.1534  -23.1048   20.7380 H   0  0  0  0  0  0
  -28.4467  -17.2150   20.0887 H   0  0  0  0  0  0
  1 25  1  0  0  0
  1 30  2  0  0  0
  1 74  1  0  0  0
  2  3  1  0  0  0
  2 25  1  0  0  0
  2 75  1  0  0  0
  2 76  1  0  0  0
  3  4  1  0  0  0
  3 77  1  0  0  0
  3 78  1  0  0  0
  4  5  1  0  0  0
  4 79  1  0  0  0
  4 80  1  0  0  0
  5  6  1  0  0  0
  5 26  1  0  0  0
  5 81  1  0  0  0
  6 25  1  0  0  0
  6 82  1  0  0  0
  6 83  1  0  0  0
  7  8  2  0  0  0
  7 26  1  0  0  0
  7 29  1  0  0  0
  8  9  1  0  0  0
  8 22  1  0  0  0
  9 10  1  0  0  0
  9 27  2  0  0  0
 10 11  2  0  0  0
 10 15  1  0  0  0
 11 12  1  0  0  0
 11 84  1  0  0  0
 12 13  2  0  0  0
 12 85  1  0  0  0
 13 14  1  0  0  0
 13 31  1  0  0  0
 14 15  2  0  0  0
 14 86  1  0  0  0
 15 87  1  0  0  0
 16 17  2  0  0  0
 16 21  1  0  0  0
 16 31  1  0  0  0
 17 18  1  0  0  0
 17 88  1  0  0  0
 18 19  2  0  0  0
 18 89  1  0  0  0
 19 20  1  0  0  0
 19 24  1  0  0  0
 20 21  2  0  0  0
 20 90  1  0  0  0
 21 23  1  0  0  0
 22 28  1  0  0  0
 22 32  2  0  0  0
 26 27  1  0  0  0
 28 91  1  0  0  0
 28 92  1  0  0  0
 29 93  1  0  0  0
 29 94  1  0  0  0
 33 34  1  0  0  0
 33 66  1  0  0  0
 33 70  2  0  0  0
 34 36  1  0  0  0
 34 59  1  0  0  0
 34 95  1  0  0  0
 35 44  2  0  0  0
 35 45  1  0  0  0
 35 68  1  0  0  0
 36 56  1  0  0  0
 36 96  1  0  0  0
 37 39  1  0  0  0
 37 47  1  0  0  0
 37 66  1  0  0  0
 37 97  1  0  0  0
 38 43  2  0  0  0
 38 46  1  0  0  0
 38 47  1  0  0  0
 39 64  1  0  0  0
 39 67  2  0  0  0
 40 52  1  0  0  0
 40 53  2  0  0  0
 40 58  1  0  0  0
 41 98  1  0  0  0
 41 99  1  0  0  0
 41100  1  0  0  0
 41 48  1  0  0  0
 42 43  1  0  0  0
 42 66  1  0  0  0
 42101  1  0  0  0
 42102  1  0  0  0
 43 44  1  0  0  0
 44103  1  0  0  0
 45 46  2  0  0  0
 45104  1  0  0  0
 46105  1  0  0  0
 47106  1  0  0  0
 47107  1  0  0  0
 48 56  1  0  0  0
 48 65  1  0  0  0
 48108  1  0  0  0
 49 50  1  0  0  0
 49 53  1  0  0  0
 49 64  1  0  0  0
 49109  1  0  0  0
 50 51  1  0  0  0
 50110  1  0  0  0
 50111  1  0  0  0
 51 52  1  0  0  0
 51112  1  0  0  0
 51113  1  0  0  0
 52114  1  0  0  0
 52115  1  0  0  0
 53 54  1  0  0  0
 54 55  2  0  0  0
 54116  1  0  0  0
 55 57  1  0  0  0
 55117  1  0  0  0
 56 69  2  0  0  0
 57 58  2  0  0  0
 57118  1  0  0  0
 58119  1  0  0  0
 59 60  1  0  0  0
 59 61  1  0  0  0
 59 62  1  0  0  0
 60120  1  0  0  0
 60121  1  0  0  0
 60122  1  0  0  0
 61123  1  0  0  0
 61124  1  0  0  0
 61125  1  0  0  0
 62126  1  0  0  0
 62127  1  0  0  0
 62128  1  0  0  0
 63 65  1  0  0  0
 63129  1  0  0  0
 63130  1  0  0  0
 63131  1  0  0  0
 64132  1  0  0  0
 65133  1  0  0  0
 68 73  1  0  0  0
 71 72  1  0  0  0
 71 73  1  0  0  0
 71134  1  0  0  0
 71135  1  0  0  0
 72 74  1  0  0  0
 72136  1  0  0  0
 72137  1  0  0  0
 73138  1  0  0  0
 73139  1  0  0  0
 74140  1  0  0  0
M  ISO  4   1 100  68 101  73 101  74 100
M  END
> <chiral flag>
0

> <version>
0

> <s_m_source_file>
/data/baiqing/PycharmProjects/Reinvent-master-3.2/result/LINK_invent/BTK/process_docking_weight1_custom_product_contain_oxygen_bond_distance_aromatic_linkinvent_7_9_3/rearranged_h_0002.sdf

> <i_m_source_file_index>
42

> <r_mmod_Potential_Energy-OPLS-2005>
4439.1796875

> <r_mmod_Stretch_Energy-OPLS-2005>
1928.78686523438

> <r_mmod_Bend_Energy-OPLS-2005>
1134.07287597656

> <r_mmod_Torsional_Energy-OPLS-2005>
253.740341186523

> <r_mmod_Improper_Torsional_Energy-OPLS-2005>
5.21059560775757

> <r_mmod_Van_der_Waal_Energy-OPLS-2005>
136.971328735352

> <r_mmod_Electrostatic_Energy-OPLS-2005>
-343.119842529297

> <r_mmod_Solvation_Energy-OPLS-2005>
-223.109710693359

> <b_mmod_Minimization_Converged-OPLS-2005>
0

> <r_mmod_RMS_Derivative-OPLS-2005>
0.0710311159491539

$$$$
42
                    3D
 Structure written by MMmdl.
154163  0  0  1  0            999 V2000
  -30.4703  -15.2150   20.4383 C   0  0  0  0  0  0
  -30.4350  -12.7808   19.5330 C   0  0  0  0  0  0
  -29.5356  -12.5827   18.2862 C   0  0  0  0  0  0
  -28.0796  -12.3085   18.6998 C   0  0  0  0  0  0
  -27.6135  -13.2662   19.8224 C   0  0  2  0  0  0
  -28.6408  -13.3872   20.9627 C   0  0  0  0  0  0
  -25.2406  -13.8233   20.5725 C   0  0  0  0  0  0
  -24.1743  -13.0434   20.9236 C   0  0  0  0  0  0
  -24.6381  -11.6925   20.8735 C   0  0  0  0  0  0
  -23.9075  -10.4292   21.0399 C   0  0  0  0  0  0
  -24.3625   -9.4211   21.9182 C   0  0  0  0  0  0
  -23.6298   -8.2247   22.0753 C   0  0  0  0  0  0
  -22.4281   -8.0280   21.3543 C   0  0  0  0  0  0
  -21.9917   -9.0252   20.4645 C   0  0  0  0  0  0
  -22.7245  -10.2131   20.3051 C   0  0  0  0  0  0
  -21.6857   -6.0736   22.5278 C   0  0  0  0  0  0
  -21.4015   -6.5641   23.8212 C   0  0  0  0  0  0
  -21.3658   -5.6792   24.9174 C   0  0  0  0  0  0
  -21.6046   -4.3055   24.7226 C   0  0  0  0  0  0
  -21.8818   -3.8146   23.4346 C   0  0  0  0  0  0
  -21.9195   -4.6963   22.3401 C   0  0  0  0  0  0
  -22.7767  -13.5194   21.1909 C   0  0  0  0  0  0
  -22.1661   -4.2147   21.0978 F   0  0  0  0  0  0
  -21.5630   -3.4537   25.7740 F   0  0  0  0  0  0
  -29.8843  -13.9152   20.3681 N   0  0  0  0  0  0
  -26.2803  -12.9479   20.3151 N   0  0  0  0  0  0
  -25.9309  -11.6598   20.5670 N   0  0  0  0  0  0
  -22.0425  -12.8164   22.0457 N   0  0  0  0  0  0
  -25.4104  -15.1970   20.4218 N   0  0  0  0  0  0
  -31.6633  -15.2091   20.0951 O   0  0  0  0  0  0
  -21.6642   -6.8878   21.4239 O   0  0  0  0  0  0
  -22.3445  -14.5509   20.6774 O   0  0  0  0  0  0
  -24.6608  -31.8285   23.1767 C   0  0  0  0  0  0
  -25.9312  -32.4618   23.8212 C   0  0  1  0  0  0
  -27.2062  -26.9498   20.1847 C   0  0  0  0  0  0
  -25.6002  -33.8431   24.2116 N   0  0  0  0  0  0
  -23.4743  -30.4425   21.5265 C   0  0  2  0  0  0
  -24.9285  -28.8437   20.1114 C   0  0  0  0  0  0
  -22.7660  -29.4459   22.4811 C   0  0  0  0  0  0
  -18.0319  -28.1420   22.8464 C   0  0  0  0  0  0
  -24.1484  -36.7205   23.2637 C   0  0  0  0  0  0
  -26.0431  -30.6399   21.4084 C   0  0  0  0  0  0
  -26.1107  -29.2329   20.7550 C   0  0  0  0  0  0
  -27.2468  -28.3044   20.7756 C   0  0  0  0  0  0
  -26.0076  -26.7319   19.4647 C   0  0  0  0  0  0
  -24.9004  -27.6121   19.4457 C   0  0  0  0  0  0
  -23.7137  -29.7679   20.1499 C   0  0  0  0  0  0
  -25.4127  -36.2979   24.0298 C   0  0  1  0  0  0
  -20.5942  -28.3760   23.1198 C   0  0  2  0  0  0
  -20.6802  -26.9448   22.5399 C   0  0  0  0  0  0
  -19.5775  -26.6390   21.5213 C   0  0  0  0  0  0
  -18.1956  -26.7955   22.1616 C   0  0  0  0  0  0
  -19.1582  -28.8911   23.2816 C   0  0  0  0  0  0
  -18.9493  -30.1500   23.8855 C   0  0  0  0  0  0
  -17.6488  -30.6611   24.0554 C   0  0  0  0  0  0
  -25.9097  -34.9364   23.5014 C   0  0  0  0  0  0
  -16.5377  -29.9096   23.6350 C   0  0  0  0  0  0
  -16.7302  -28.6515   23.0369 C   0  0  0  0  0  0
  -26.4574  -31.6550   25.0723 C   0  0  0  0  0  0
  -25.3716  -31.3818   26.1393 C   0  0  0  0  0  0
  -27.0465  -30.2914   24.6440 C   0  0  0  0  0  0
  -27.6065  -32.4354   25.7540 C   0  0  0  0  0  0
  -27.5567  -37.1760   24.8470 C   0  0  0  0  0  0
  -21.4332  -29.3051   22.3551 N   0  0  0  0  0  0
  -26.4274  -37.3712   23.9414 N   0  0  0  0  0  0
  -24.7469  -30.9963   22.0909 N   0  0  0  0  0  0
  -23.4217  -28.8021   23.3040 O   0  0  0  0  0  0
  -28.1588  -25.7976   20.2352 O   0  0  0  0  0  0
  -26.5687  -34.8889   22.4602 O   0  0  0  0  0  0
  -23.5681  -32.1256   23.6869 O   0  0  0  0  0  0
  -27.7523  -21.6001   20.8575 C   0  0  0  0  0  0
  -29.7285  -22.3009   19.9566 C   0  0  0  0  0  0
  -28.1904  -20.1782   20.8455 C   0  0  0  0  0  0
  -30.1736  -20.8760   19.9383 C   0  0  0  0  0  0
  -28.4576  -22.8228   20.4378 C   0  0  0  0  0  0
  -29.4657  -19.6695   20.3841 C   0  0  0  0  0  0
  -27.7538  -24.3815   20.6311 C   0  0  0  0  0  0
  -30.0335  -17.6119   22.8123 C   0  0  0  0  0  0
  -31.0011  -18.2061   21.7914 C   0  0  0  0  0  0
  -29.1735  -16.6055   22.0266 C   0  0  0  0  0  0
  -30.2142  -18.0910   20.4877 C   0  0  1  0  0  0
  -26.6582  -24.3334   21.2641 N   0  0  0  0  0  0
  -29.7654  -16.5068   20.6861 N   0  0  0  0  0  0
  -31.4585  -12.9705   19.2085 H   0  0  0  0  0  0
  -30.4906  -11.8605   20.1168 H   0  0  0  0  0  0
  -29.9122  -11.7656   17.6690 H   0  0  0  0  0  0
  -29.5759  -13.4798   17.6667 H   0  0  0  0  0  0
  -28.0245  -11.2779   19.0519 H   0  0  0  0  0  0
  -27.4163  -12.3740   17.8365 H   0  0  0  0  0  0
  -27.5452  -14.2475   19.3513 H   0  0  0  0  0  0
  -28.8004  -12.4271   21.4557 H   0  0  0  0  0  0
  -28.2360  -14.0447   21.7249 H   0  0  0  0  0  0
  -25.2766   -9.5695   22.4761 H   0  0  0  0  0  0
  -24.0007   -7.4641   22.7478 H   0  0  0  0  0  0
  -21.0848   -8.8772   19.8951 H   0  0  0  0  0  0
  -22.3699  -10.9671   19.6163 H   0  0  0  0  0  0
  -21.2003   -7.6150   23.9716 H   0  0  0  0  0  0
  -21.1482   -6.0522   25.9078 H   0  0  0  0  0  0
  -22.0598   -2.7608   23.2849 H   0  0  0  0  0  0
  -22.4039  -11.9804   22.4806 H   0  0  0  0  0  0
  -21.1046  -13.1183   22.2686 H   0  0  0  0  0  0
  -24.6505  -15.8558   20.5527 H   0  0  0  0  0  0
  -26.2664  -15.6375   20.1090 H   0  0  0  0  0  0
  -26.7377  -32.5170   23.0919 H   0  0  0  0  0  0
  -25.0163  -33.9530   25.0276 H   0  0  0  0  0  0
  -22.7854  -31.2739   21.3622 H   0  0  0  0  0  0
  -23.3766  -35.9516   23.3281 H   0  0  0  0  0  0
  -24.3549  -36.8865   22.2053 H   0  0  0  0  0  0
  -23.7216  -37.6377   23.6706 H   0  0  0  0  0  0
  -26.2183  -31.3809   20.6275 H   0  0  0  0  0  0
  -26.9050  -30.6992   22.0606 H   0  0  0  0  0  0
  -28.1374  -28.5947   21.3150 H   0  0  0  0  0  0
  -25.8883  -25.7913   18.9457 H   0  0  0  0  0  0
  -24.0071  -27.3132   18.9146 H   0  0  0  0  0  0
  -23.8671  -30.5420   19.3975 H   0  0  0  0  0  0
  -22.8241  -29.2232   19.8292 H   0  0  0  0  0  0
  -25.1308  -36.1776   25.0786 H   0  0  0  0  0  0
  -21.0017  -28.3371   24.1328 H   0  0  0  0  0  0
  -20.5702  -26.2376   23.3630 H   0  0  0  0  0  0
  -21.6664  -26.7447   22.1192 H   0  0  0  0  0  0
  -19.6936  -25.6290   21.1273 H   0  0  0  0  0  0
  -19.6714  -27.3177   20.6725 H   0  0  0  0  0  0
  -17.4218  -26.6697   21.4026 H   0  0  0  0  0  0
  -18.0356  -26.0111   22.9024 H   0  0  0  0  0  0
  -19.7969  -30.7329   24.2208 H   0  0  0  0  0  0
  -17.5039  -31.6288   24.5163 H   0  0  0  0  0  0
  -15.5374  -30.2981   23.7716 H   0  0  0  0  0  0
  -15.8697  -28.0820   22.7122 H   0  0  0  0  0  0
  -24.5904  -30.7144   25.7737 H   0  0  0  0  0  0
  -24.8901  -32.3031   26.4683 H   0  0  0  0  0  0
  -25.7957  -30.9093   27.0259 H   0  0  0  0  0  0
  -26.3137  -29.6616   24.1384 H   0  0  0  0  0  0
  -27.3937  -29.7246   25.5090 H   0  0  0  0  0  0
  -27.9098  -30.4099   23.9892 H   0  0  0  0  0  0
  -27.2630  -33.3700   26.1992 H   0  0  0  0  0  0
  -28.3962  -32.6844   25.0442 H   0  0  0  0  0  0
  -28.0637  -31.8565   26.5575 H   0  0  0  0  0  0
  -28.2566  -38.0075   24.7514 H   0  0  0  0  0  0
  -28.1075  -36.2596   24.6289 H   0  0  0  0  0  0
  -27.2281  -37.1388   25.8872 H   0  0  0  0  0  0
  -20.9596  -29.8708   21.6648 H   0  0  0  0  0  0
  -26.0121  -38.2764   24.1452 H   0  0  0  0  0  0
  -26.7621  -21.7543   21.2621 H   0  0  0  0  0  0
  -30.4365  -23.0327   19.5952 H   0  0  0  0  0  0
  -27.4999  -19.4537   21.2546 H   0  0  0  0  0  0
  -31.1793  -20.7126   19.5764 H   0  0  0  0  0  0
  -29.3991  -18.3871   23.2452 H   0  0  0  0  0  0
  -30.5760  -17.1387   23.6318 H   0  0  0  0  0  0
  -31.9003  -17.5895   21.7404 H   0  0  0  0  0  0
  -31.3246  -19.2171   22.0418 H   0  0  0  0  0  0
  -28.1419  -16.9502   21.9403 H   0  0  0  0  0  0
  -29.1617  -15.6746   22.5896 H   0  0  0  0  0  0
  -30.9198  -18.0784   19.6556 H   0  0  0  0  0  0
  -26.2601  -25.2590   21.3727 H   0  0  0  0  0  0
  1 25  1  0  0  0
  1 30  2  0  0  0
  1 83  1  0  0  0
  2  3  1  0  0  0
  2 25  1  0  0  0
  2 84  1  0  0  0
  2 85  1  0  0  0
  3  4  1  0  0  0
  3 86  1  0  0  0
  3 87  1  0  0  0
  4  5  1  0  0  0
  4 88  1  0  0  0
  4 89  1  0  0  0
  5  6  1  0  0  0
  5 26  1  0  0  0
  5 90  1  0  0  0
  6 25  1  0  0  0
  6 91  1  0  0  0
  6 92  1  0  0  0
  7  8  2  0  0  0
  7 26  1  0  0  0
  7 29  1  0  0  0
  8  9  1  0  0  0
  8 22  1  0  0  0
  9 10  1  0  0  0
  9 27  2  0  0  0
 10 11  2  0  0  0
 10 15  1  0  0  0
 11 12  1  0  0  0
 11 93  1  0  0  0
 12 13  2  0  0  0
 12 94  1  0  0  0
 13 14  1  0  0  0
 13 31  1  0  0  0
 14 15  2  0  0  0
 14 95  1  0  0  0
 15 96  1  0  0  0
 16 17  2  0  0  0
 16 21  1  0  0  0
 16 31  1  0  0  0
 17 18  1  0  0  0
 17 97  1  0  0  0
 18 19  2  0  0  0
 18 98  1  0  0  0
 19 20  1  0  0  0
 19 24  1  0  0  0
 20 21  2  0  0  0
 20 99  1  0  0  0
 21 23  1  0  0  0
 22 28  1  0  0  0
 22 32  2  0  0  0
 26 27  1  0  0  0
 28100  1  0  0  0
 28101  1  0  0  0
 29102  1  0  0  0
 29103  1  0  0  0
 33 34  1  0  0  0
 33 66  1  0  0  0
 33 70  2  0  0  0
 34 36  1  0  0  0
 34 59  1  0  0  0
 34104  1  0  0  0
 35 44  2  0  0  0
 35 45  1  0  0  0
 35 68  1  0  0  0
 36 56  1  0  0  0
 36105  1  0  0  0
 37 39  1  0  0  0
 37 47  1  0  0  0
 37 66  1  0  0  0
 37106  1  0  0  0
 38 43  2  0  0  0
 38 46  1  0  0  0
 38 47  1  0  0  0
 39 64  1  0  0  0
 39 67  2  0  0  0
 40 52  1  0  0  0
 40 53  2  0  0  0
 40 58  1  0  0  0
 41107  1  0  0  0
 41108  1  0  0  0
 41109  1  0  0  0
 41 48  1  0  0  0
 42 43  1  0  0  0
 42 66  1  0  0  0
 42110  1  0  0  0
 42111  1  0  0  0
 43 44  1  0  0  0
 44112  1  0  0  0
 45 46  2  0  0  0
 45113  1  0  0  0
 46114  1  0  0  0
 47115  1  0  0  0
 47116  1  0  0  0
 48 56  1  0  0  0
 48 65  1  0  0  0
 48117  1  0  0  0
 49 50  1  0  0  0
 49 53  1  0  0  0
 49 64  1  0  0  0
 49118  1  0  0  0
 50 51  1  0  0  0
 50119  1  0  0  0
 50120  1  0  0  0
 51 52  1  0  0  0
 51121  1  0  0  0
 51122  1  0  0  0
 52123  1  0  0  0
 52124  1  0  0  0
 53 54  1  0  0  0
 54 55  2  0  0  0
 54125  1  0  0  0
 55 57  1  0  0  0
 55126  1  0  0  0
 56 69  2  0  0  0
 57 58  2  0  0  0
 57127  1  0  0  0
 58128  1  0  0  0
 59 60  1  0  0  0
 59 61  1  0  0  0
 59 62  1  0  0  0
 60129  1  0  0  0
 60130  1  0  0  0
 60131  1  0  0  0
 61132  1  0  0  0
 61133  1  0  0  0
 61134  1  0  0  0
 62135  1  0  0  0
 62136  1  0  0  0
 62137  1  0  0  0
 63 65  1  0  0  0
 63138  1  0  0  0
 63139  1  0  0  0
 63140  1  0  0  0
 64141  1  0  0  0
 65142  1  0  0  0
 68 77  1  0  0  0
 71 73  2  0  0  0
 71 75  1  0  0  0
 71143  1  0  0  0
 72 74  1  0  0  0
 72 75  2  0  0  0
 72144  1  0  0  0
 73 76  1  0  0  0
 73145  1  0  0  0
 74 76  2  0  0  0
 74146  1  0  0  0
 75 77  1  0  0  0
 76 81  1  0  0  0
 77 82  2  0  0  0
 78 79  1  0  0  0
 78 80  1  0  0  0
 78147  1  0  0  0
 78148  1  0  0  0
 79 81  1  0  0  0
 79149  1  0  0  0
 79150  1  0  0  0
 80 83  1  0  0  0
 80151  1  0  0  0
 80152  1  0  0  0
 81 83  1  0  0  0
 81153  1  0  0  0
 82154  1  0  0  0
M  ISO  4   1 100  68 101  77 101  83 100
M  END
> <chiral flag>
0

> <version>
0

> <s_m_source_file>
/data/baiqing/PycharmProjects/Reinvent-master-3.2/result/LINK_invent/BTK/process_docking_weight1_custom_product_contain_oxygen_bond_distance_aromatic_linkinvent_7_9_3/rearranged_h_0002.sdf

> <i_m_source_file_index>
43

> <r_mmod_Potential_Energy-OPLS-2005>
1435.70642089844

> <r_mmod_Stretch_Energy-OPLS-2005>
497.322296142578

> <r_mmod_Bend_Energy-OPLS-2005>
513.6064453125

> <r_mmod_Torsional_Energy-OPLS-2005>
319.842224121094

> <r_mmod_Improper_Torsional_Energy-OPLS-2005>
9.82671356201172

> <r_mmod_Van_der_Waal_Energy-OPLS-2005>
143.226028442383

> <r_mmod_Electrostatic_Energy-OPLS-2005>
-268.413330078125

> <r_mmod_Solvation_Energy-OPLS-2005>
-196.549133300781

> <b_mmod_Minimization_Converged-OPLS-2005>
0

> <r_mmod_RMS_Derivative-OPLS-2005>
1.12020981311798

$$$$
43
                    3D
 Structure written by MMmdl.
144152  0  0  1  0            999 V2000
  -30.2527  -15.7856   20.3198 C   0  0  0  0  0  0
  -30.4129  -13.1956   19.5441 C   0  0  0  0  0  0
  -29.5557  -12.6952   18.3416 C   0  0  0  0  0  0
  -28.1429  -12.3029   18.7935 C   0  0  0  0  0  0
  -27.5911  -13.3230   19.8121 C   0  0  2  0  0  0
  -28.5962  -13.7228   20.9225 C   0  0  0  0  0  0
  -25.2298  -13.8303   20.5814 C   0  0  0  0  0  0
  -24.1703  -13.0433   20.9298 C   0  0  0  0  0  0
  -24.6427  -11.6953   20.8766 C   0  0  0  0  0  0
  -23.9132  -10.4295   21.0396 C   0  0  0  0  0  0
  -24.3665   -9.4205   21.9177 C   0  0  0  0  0  0
  -23.6321   -8.2248   22.0752 C   0  0  0  0  0  0
  -22.4300   -8.0290   21.3544 C   0  0  0  0  0  0
  -21.9950   -9.0267   20.4641 C   0  0  0  0  0  0
  -22.7298  -10.2135   20.3047 C   0  0  0  0  0  0
  -21.6861   -6.0744   22.5279 C   0  0  0  0  0  0
  -21.4020   -6.5645   23.8212 C   0  0  0  0  0  0
  -21.3662   -5.6796   24.9173 C   0  0  0  0  0  0
  -21.6043   -4.3058   24.7222 C   0  0  0  0  0  0
  -21.8819   -3.8153   23.4343 C   0  0  0  0  0  0
  -21.9195   -4.6971   22.3400 C   0  0  0  0  0  0
  -22.7713  -13.5153   21.1924 C   0  0  0  0  0  0
  -22.1662   -4.2156   21.0978 F   0  0  0  0  0  0
  -21.5628   -3.4540   25.7734 F   0  0  0  0  0  0
  -29.7463  -14.3930   20.2576 N   0  0  0  0  0  0
  -26.2765  -12.9664   20.3261 N   0  0  0  0  0  0
  -25.9380  -11.6718   20.5700 N   0  0  0  0  0  0
  -22.0382  -12.8128   22.0477 N   0  0  0  0  0  0
  -25.3869  -15.2046   20.4250 N   0  0  0  0  0  0
  -31.4904  -15.6923   20.1741 O   0  0  0  0  0  0
  -21.6652   -6.8893   21.4243 O   0  0  0  0  0  0
  -22.3383  -14.5448   20.6756 O   0  0  0  0  0  0
  -24.6937  -31.7875   23.1430 C   0  0  0  0  0  0
  -25.9469  -32.4403   23.8012 C   0  0  1  0  0  0
  -27.2288  -26.5847   20.2333 C   0  0  0  0  0  0
  -25.6006  -33.8236   24.1886 N   0  0  0  0  0  0
  -23.5253  -30.3838   21.4993 C   0  0  2  0  0  0
  -24.9848  -28.6999   20.1247 C   0  0  0  0  0  0
  -22.7811  -29.4246   22.4685 C   0  0  0  0  0  0
  -18.0345  -28.1429   22.8447 C   0  0  0  0  0  0
  -24.1498  -36.7127   23.2655 C   0  0  0  0  0  0
  -26.1101  -30.4789   21.4290 C   0  0  0  0  0  0
  -26.1729  -29.0293   20.7871 C   0  0  0  0  0  0
  -27.2721  -28.0017   20.8104 C   0  0  0  0  0  0
  -26.0126  -26.5021   19.4993 C   0  0  0  0  0  0
  -24.9500  -27.4625   19.4574 C   0  0  0  0  0  0
  -23.7872  -29.6700   20.1399 C   0  0  0  0  0  0
  -25.4153  -36.2859   24.0272 C   0  0  1  0  0  0
  -20.5983  -28.3794   23.1121 C   0  0  2  0  0  0
  -20.6808  -26.9443   22.5404 C   0  0  0  0  0  0
  -19.5785  -26.6368   21.5216 C   0  0  0  0  0  0
  -18.1967  -26.7953   22.1616 C   0  0  0  0  0  0
  -19.1613  -28.8938   23.2761 C   0  0  0  0  0  0
  -18.9517  -30.1518   23.8810 C   0  0  0  0  0  0
  -17.6506  -30.6607   24.0548 C   0  0  0  0  0  0
  -25.9140  -34.9252   23.4925 C   0  0  0  0  0  0
  -16.5395  -29.9087   23.6353 C   0  0  0  0  0  0
  -16.7323  -28.6512   23.0366 C   0  0  0  0  0  0
  -26.4613  -31.6485   25.0681 C   0  0  0  0  0  0
  -25.3644  -31.3836   26.1269 C   0  0  0  0  0  0
  -27.0565  -30.2808   24.6673 C   0  0  0  0  0  0
  -27.6042  -32.4373   25.7504 C   0  0  0  0  0  0
  -27.5560  -37.1725   24.8468 C   0  0  0  0  0  0
  -21.4449  -29.3019   22.3430 N   0  0  0  0  0  0
  -26.4271  -37.3630   23.9401 N   0  0  0  0  0  0
  -24.8008  -30.9200   22.0755 N   0  0  0  0  0  0
  -23.4201  -28.7862   23.3081 O   0  0  0  0  0  0
  -28.1916  -25.3215   20.2556 O   0  0  0  0  0  0
  -26.5793  -34.8849   22.4552 O   0  0  0  0  0  0
  -23.5933  -32.1009   23.6307 O   0  0  0  0  0  0
  -26.4561  -21.7447   20.6829 C   0  0  0  0  0  0
  -27.3400  -20.6155   20.5832 C   0  0  0  0  0  0
  -26.7780  -23.1412   20.5651 C   0  0  0  0  0  0
  -28.9950  -22.3129   20.2297 C   0  0  0  0  0  0
  -28.7344  -20.6932   20.3466 C   0  0  0  0  0  0
  -28.0707  -23.6695   20.3192 C   0  0  0  0  0  0
  -29.6842  -19.0215   20.2779 C   0  0  0  0  0  0
  -29.5054  -17.1968   20.3618 N   0  0  0  0  0  0
  -31.3932  -13.4800   19.1606 H   0  0  0  0  0  0
  -30.6132  -12.3812   20.2421 H   0  0  0  0  0  0
  -30.0429  -11.8536   17.8471 H   0  0  0  0  0  0
  -29.4885  -13.4916   17.5989 H   0  0  0  0  0  0
  -28.2013  -11.3192   19.2612 H   0  0  0  0  0  0
  -27.4750  -12.2013   17.9371 H   0  0  0  0  0  0
  -27.4325  -14.2228   19.2159 H   0  0  0  0  0  0
  -28.8920  -12.8680   21.5326 H   0  0  0  0  0  0
  -28.1320  -14.4366   21.6047 H   0  0  0  0  0  0
  -25.2802   -9.5679   22.4763 H   0  0  0  0  0  0
  -24.0018   -7.4643   22.7481 H   0  0  0  0  0  0
  -21.0878   -8.8799   19.8950 H   0  0  0  0  0  0
  -22.3757  -10.9678   19.6161 H   0  0  0  0  0  0
  -21.2014   -7.6153   23.9717 H   0  0  0  0  0  0
  -21.1483   -6.0525   25.9075 H   0  0  0  0  0  0
  -22.0595   -2.7615   23.2840 H   0  0  0  0  0  0
  -22.4033  -11.9812   22.4881 H   0  0  0  0  0  0
  -21.0983  -13.1114   22.2662 H   0  0  0  0  0  0
  -24.6129  -15.8508   20.5348 H   0  0  0  0  0  0
  -26.2258  -15.6471   20.0742 H   0  0  0  0  0  0
  -26.7558  -32.4845   23.0725 H   0  0  0  0  0  0
  -25.0049  -33.9257   24.9970 H   0  0  0  0  0  0
  -22.8571  -31.2239   21.2993 H   0  0  0  0  0  0
  -23.3777  -35.9439   23.3267 H   0  0  0  0  0  0
  -24.3556  -36.8846   22.2078 H   0  0  0  0  0  0
  -23.7246  -37.6284   23.6774 H   0  0  0  0  0  0
  -26.3247  -31.1924   20.6324 H   0  0  0  0  0  0
  -26.9572  -30.5543   22.0977 H   0  0  0  0  0  0
  -28.1651  -28.2655   21.3591 H   0  0  0  0  0  0
  -25.8391  -25.5791   18.9642 H   0  0  0  0  0  0
  -24.0607  -27.2021   18.8996 H   0  0  0  0  0  0
  -23.9731  -30.4249   19.3752 H   0  0  0  0  0  0
  -22.8900  -29.1425   19.8116 H   0  0  0  0  0  0
  -25.1371  -36.1606   25.0762 H   0  0  0  0  0  0
  -21.0059  -28.3426   24.1251 H   0  0  0  0  0  0
  -20.5662  -26.2421   23.3674 H   0  0  0  0  0  0
  -21.6670  -26.7371   22.1228 H   0  0  0  0  0  0
  -19.6942  -25.6256   21.1302 H   0  0  0  0  0  0
  -19.6733  -27.3132   20.6708 H   0  0  0  0  0  0
  -17.4238  -26.6690   21.4019 H   0  0  0  0  0  0
  -18.0355  -26.0117   22.9033 H   0  0  0  0  0  0
  -19.7994  -30.7356   24.2142 H   0  0  0  0  0  0
  -17.5058  -31.6278   24.5170 H   0  0  0  0  0  0
  -15.5392  -30.2964   23.7728 H   0  0  0  0  0  0
  -15.8723  -28.0804   22.7129 H   0  0  0  0  0  0
  -24.5865  -30.7154   25.7556 H   0  0  0  0  0  0
  -24.8796  -32.3068   26.4452 H   0  0  0  0  0  0
  -25.7787  -30.9150   27.0206 H   0  0  0  0  0  0
  -26.3306  -29.6384   24.1679 H   0  0  0  0  0  0
  -27.3954  -29.7305   25.5461 H   0  0  0  0  0  0
  -27.9304  -30.3902   24.0248 H   0  0  0  0  0  0
  -27.2570  -33.3759   26.1836 H   0  0  0  0  0  0
  -28.3975  -32.6799   25.0420 H   0  0  0  0  0  0
  -28.0577  -31.8668   26.5619 H   0  0  0  0  0  0
  -28.2551  -38.0042   24.7496 H   0  0  0  0  0  0
  -28.1081  -36.2562   24.6327 H   0  0  0  0  0  0
  -27.2268  -37.1395   25.8869 H   0  0  0  0  0  0
  -20.9779  -29.8656   21.6462 H   0  0  0  0  0  0
  -26.0090  -38.2677   24.1399 H   0  0  0  0  0  0
  -25.4173  -21.5156   20.8775 H   0  0  0  0  0  0
  -26.9082  -19.6312   20.7051 H   0  0  0  0  0  0
  -25.9665  -23.8445   20.6853 H   0  0  0  0  0  0
  -30.0360  -22.5452   20.0533 H   0  0  0  0  0  0
  -30.4530  -19.1893   21.0326 H   0  0  0  0  0  0
  -30.2297  -19.1328   19.3405 H   0  0  0  0  0  0
  -28.5205  -16.9901   20.4480 H   0  0  0  0  0  0
  1 25  1  0  0  0
  1 30  2  0  0  0
  1 78  1  0  0  0
  2  3  1  0  0  0
  2 25  1  0  0  0
  2 79  1  0  0  0
  2 80  1  0  0  0
  3  4  1  0  0  0
  3 81  1  0  0  0
  3 82  1  0  0  0
  4  5  1  0  0  0
  4 83  1  0  0  0
  4 84  1  0  0  0
  5  6  1  0  0  0
  5 26  1  0  0  0
  5 85  1  0  0  0
  6 25  1  0  0  0
  6 86  1  0  0  0
  6 87  1  0  0  0
  7  8  2  0  0  0
  7 26  1  0  0  0
  7 29  1  0  0  0
  8  9  1  0  0  0
  8 22  1  0  0  0
  9 10  1  0  0  0
  9 27  2  0  0  0
 10 11  2  0  0  0
 10 15  1  0  0  0
 11 12  1  0  0  0
 11 88  1  0  0  0
 12 13  2  0  0  0
 12 89  1  0  0  0
 13 14  1  0  0  0
 13 31  1  0  0  0
 14 15  2  0  0  0
 14 90  1  0  0  0
 15 91  1  0  0  0
 16 17  2  0  0  0
 16 21  1  0  0  0
 16 31  1  0  0  0
 17 18  1  0  0  0
 17 92  1  0  0  0
 18 19  2  0  0  0
 18 93  1  0  0  0
 19 20  1  0  0  0
 19 24  1  0  0  0
 20 21  2  0  0  0
 20 94  1  0  0  0
 21 23  1  0  0  0
 22 28  1  0  0  0
 22 32  2  0  0  0
 26 27  1  0  0  0
 28 95  1  0  0  0
 28 96  1  0  0  0
 29 97  1  0  0  0
 29 98  1  0  0  0
 33 34  1  0  0  0
 33 66  1  0  0  0
 33 70  2  0  0  0
 34 36  1  0  0  0
 34 59  1  0  0  0
 34 99  1  0  0  0
 35 44  2  0  0  0
 35 45  1  0  0  0
 35 68  1  0  0  0
 36 56  1  0  0  0
 36100  1  0  0  0
 37 39  1  0  0  0
 37 47  1  0  0  0
 37 66  1  0  0  0
 37101  1  0  0  0
 38 43  2  0  0  0
 38 46  1  0  0  0
 38 47  1  0  0  0
 39 64  1  0  0  0
 39 67  2  0  0  0
 40 52  1  0  0  0
 40 53  2  0  0  0
 40 58  1  0  0  0
 41102  1  0  0  0
 41103  1  0  0  0
 41104  1  0  0  0
 41 48  1  0  0  0
 42 43  1  0  0  0
 42 66  1  0  0  0
 42105  1  0  0  0
 42106  1  0  0  0
 43 44  1  0  0  0
 44107  1  0  0  0
 45 46  2  0  0  0
 45108  1  0  0  0
 46109  1  0  0  0
 47110  1  0  0  0
 47111  1  0  0  0
 48 56  1  0  0  0
 48 65  1  0  0  0
 48112  1  0  0  0
 49 50  1  0  0  0
 49 53  1  0  0  0
 49 64  1  0  0  0
 49113  1  0  0  0
 50 51  1  0  0  0
 50114  1  0  0  0
 50115  1  0  0  0
 51 52  1  0  0  0
 51116  1  0  0  0
 51117  1  0  0  0
 52118  1  0  0  0
 52119  1  0  0  0
 53 54  1  0  0  0
 54 55  2  0  0  0
 54120  1  0  0  0
 55 57  1  0  0  0
 55121  1  0  0  0
 56 69  2  0  0  0
 57 58  2  0  0  0
 57122  1  0  0  0
 58123  1  0  0  0
 59 60  1  0  0  0
 59 61  1  0  0  0
 59 62  1  0  0  0
 60124  1  0  0  0
 60125  1  0  0  0
 60126  1  0  0  0
 61127  1  0  0  0
 61128  1  0  0  0
 61129  1  0  0  0
 62130  1  0  0  0
 62131  1  0  0  0
 62132  1  0  0  0
 63 65  1  0  0  0
 63133  1  0  0  0
 63134  1  0  0  0
 63135  1  0  0  0
 64136  1  0  0  0
 65137  1  0  0  0
 68 76  1  0  0  0
 71 72  2  0  0  0
 71 73  1  0  0  0
 71138  1  0  0  0
 72 75  1  0  0  0
 72139  1  0  0  0
 73 76  2  0  0  0
 73140  1  0  0  0
 74 75  2  0  0  0
 74 76  1  0  0  0
 74141  1  0  0  0
 75 77  1  0  0  0
 77 78  1  0  0  0
 77142  1  0  0  0
 77143  1  0  0  0
 78144  1  0  0  0
M  ISO  4   1 100  68 101  76 101  78 100
M  END
> <chiral flag>
0

> <version>
0

> <s_m_source_file>
/data/baiqing/PycharmProjects/Reinvent-master-3.2/result/LINK_invent/BTK/process_docking_weight1_custom_product_contain_oxygen_bond_distance_aromatic_linkinvent_7_9_3/rearranged_h_0002.sdf

> <i_m_source_file_index>
44

> <r_mmod_Potential_Energy-OPLS-2005>
2769.08959960938

> <r_mmod_Stretch_Energy-OPLS-2005>
1243.04919433594

> <r_mmod_Bend_Energy-OPLS-2005>
646.241638183594

> <r_mmod_Torsional_Energy-OPLS-2005>
201.411758422852

> <r_mmod_Improper_Torsional_Energy-OPLS-2005>
3.7339494228363

> <r_mmod_Van_der_Waal_Energy-OPLS-2005>
127.41130065918

> <r_mmod_Electrostatic_Energy-OPLS-2005>
-376.12548828125

> <r_mmod_Solvation_Energy-OPLS-2005>
-220.923278808594

> <b_mmod_Minimization_Converged-OPLS-2005>
0

> <r_mmod_RMS_Derivative-OPLS-2005>
0.552049160003662

$$$$
44
                    3D
 Structure written by MMmdl.
147155  0  0  1  0            999 V2000
  -30.3028  -15.5924   20.3304 C   0  0  0  0  0  0
  -30.4357  -13.0431   19.5448 C   0  0  0  0  0  0
  -29.5634  -12.6429   18.3211 C   0  0  0  0  0  0
  -28.1224  -12.3118   18.7473 C   0  0  0  0  0  0
  -27.5994  -13.3074   19.8092 C   0  0  2  0  0  0
  -28.6175  -13.6105   20.9309 C   0  0  0  0  0  0
  -25.2323  -13.8294   20.5752 C   0  0  0  0  0  0
  -24.1729  -13.0444   20.9299 C   0  0  0  0  0  0
  -24.6423  -11.6952   20.8775 C   0  0  0  0  0  0
  -23.9121  -10.4300   21.0410 C   0  0  0  0  0  0
  -24.3664   -9.4212   21.9184 C   0  0  0  0  0  0
  -23.6318   -8.2263   22.0768 C   0  0  0  0  0  0
  -22.4291   -8.0305   21.3564 C   0  0  0  0  0  0
  -21.9929   -9.0300   20.4672 C   0  0  0  0  0  0
  -22.7290  -10.2153   20.3065 C   0  0  0  0  0  0
  -21.6841   -6.0752   22.5286 C   0  0  0  0  0  0
  -21.4025   -6.5653   23.8219 C   0  0  0  0  0  0
  -21.3656   -5.6799   24.9182 C   0  0  0  0  0  0
  -21.6042   -4.3067   24.7218 C   0  0  0  0  0  0
  -21.8818   -3.8158   23.4344 C   0  0  0  0  0  0
  -21.9186   -4.6985   22.3404 C   0  0  0  0  0  0
  -22.7732  -13.5187   21.1935 C   0  0  0  0  0  0
  -22.1659   -4.2178   21.0986 F   0  0  0  0  0  0
  -21.5614   -3.4540   25.7723 F   0  0  0  0  0  0
  -29.8020  -14.2204   20.2847 N   0  0  0  0  0  0
  -26.2777  -12.9622   20.3170 N   0  0  0  0  0  0
  -25.9361  -11.6691   20.5675 N   0  0  0  0  0  0
  -22.0370  -12.8195   22.0490 N   0  0  0  0  0  0
  -25.3853  -15.2040   20.4171 N   0  0  0  0  0  0
  -31.5394  -15.5664   20.1763 O   0  0  0  0  0  0
  -21.6637   -6.8913   21.4253 O   0  0  0  0  0  0
  -22.3411  -14.5468   20.6748 O   0  0  0  0  0  0
  -24.6832  -31.8025   23.1556 C   0  0  0  0  0  0
  -25.9416  -32.4487   23.8098 C   0  0  1  0  0  0
  -27.2287  -26.7181   20.2134 C   0  0  0  0  0  0
  -25.6000  -33.8316   24.1974 N   0  0  0  0  0  0
  -23.5094  -30.4050   21.5090 C   0  0  2  0  0  0
  -24.9674  -28.7508   20.1198 C   0  0  0  0  0  0
  -22.7760  -29.4342   22.4723 C   0  0  0  0  0  0
  -18.0333  -28.1428   22.8437 C   0  0  0  0  0  0
  -24.1491  -36.7159   23.2652 C   0  0  0  0  0  0
  -26.0899  -30.5376   21.4229 C   0  0  0  0  0  0
  -26.1556  -29.1063   20.7689 C   0  0  0  0  0  0
  -27.2728  -28.1175   20.7825 C   0  0  0  0  0  0
  -26.0059  -26.5698   19.5105 C   0  0  0  0  0  0
  -24.9309  -27.5080   19.4662 C   0  0  0  0  0  0
  -23.7636  -29.7055   20.1427 C   0  0  0  0  0  0
  -25.4146  -36.2911   24.0278 C   0  0  1  0  0  0
  -20.5964  -28.3796   23.1138 C   0  0  2  0  0  0
  -20.6804  -26.9457   22.5407 C   0  0  0  0  0  0
  -19.5784  -26.6370   21.5220 C   0  0  0  0  0  0
  -18.1964  -26.7951   22.1616 C   0  0  0  0  0  0
  -19.1590  -28.8939   23.2769 C   0  0  0  0  0  0
  -18.9507  -30.1518   23.8820 C   0  0  0  0  0  0
  -17.6497  -30.6619   24.0547 C   0  0  0  0  0  0
  -25.9120  -34.9299   23.4955 C   0  0  0  0  0  0
  -16.5392  -29.9092   23.6357 C   0  0  0  0  0  0
  -16.7310  -28.6517   23.0369 C   0  0  0  0  0  0
  -26.4577  -31.6533   25.0736 C   0  0  0  0  0  0
  -25.3628  -31.3888   26.1349 C   0  0  0  0  0  0
  -27.0504  -30.2860   24.6678 C   0  0  0  0  0  0
  -27.6019  -32.4398   25.7563 C   0  0  0  0  0  0
  -27.5568  -37.1745   24.8461 C   0  0  0  0  0  0
  -21.4407  -29.3046   22.3472 N   0  0  0  0  0  0
  -26.4273  -37.3672   23.9404 N   0  0  0  0  0  0
  -24.7835  -30.9470   22.0816 N   0  0  0  0  0  0
  -23.4201  -28.7935   23.3063 O   0  0  0  0  0  0
  -28.1898  -25.5000   20.2690 O   0  0  0  0  0  0
  -26.5768  -34.8867   22.4576 O   0  0  0  0  0  0
  -23.5852  -32.1089   23.6517 O   0  0  0  0  0  0
  -27.7401  -20.8399   20.0173 C   0  0  0  0  0  0
  -28.0621  -19.3566   20.0417 C   0  0  0  0  0  0
  -30.1796  -19.8233   20.5219 C   0  0  0  0  0  0
  -28.5599  -22.0562   20.2501 C   0  0  0  0  0  0
  -29.8573  -21.3392   20.5182 C   0  0  0  0  0  0
  -29.3194  -18.6129   20.2993 C   0  0  0  0  0  0
  -31.0416  -22.2270   20.8609 C   0  0  0  0  0  0
  -27.8462  -23.7888   20.2414 C   0  0  0  0  0  0
  -29.4621  -16.8953   20.3418 N   0  0  0  0  0  0
  -31.4362  -13.3023   19.1981 H   0  0  0  0  0  0
  -30.5804  -12.1911   20.2110 H   0  0  0  0  0  0
  -30.0084  -11.7982   17.7943 H   0  0  0  0  0  0
  -29.5518  -13.4699   17.6095 H   0  0  0  0  0  0
  -28.1223  -11.3038   19.1633 H   0  0  0  0  0  0
  -27.4612  -12.2909   17.8804 H   0  0  0  0  0  0
  -27.4698  -14.2408   19.2599 H   0  0  0  0  0  0
  -28.8572  -12.7146   21.5051 H   0  0  0  0  0  0
  -28.1945  -14.3253   21.6392 H   0  0  0  0  0  0
  -25.2807   -9.5672   22.4765 H   0  0  0  0  0  0
  -24.0018   -7.4629   22.7467 H   0  0  0  0  0  0
  -21.0864   -8.8840   19.8967 H   0  0  0  0  0  0
  -22.3766  -10.9711   19.6175 H   0  0  0  0  0  0
  -21.2035   -7.6153   23.9738 H   0  0  0  0  0  0
  -21.1471   -6.0520   25.9081 H   0  0  0  0  0  0
  -22.0590   -2.7618   23.2823 H   0  0  0  0  0  0
  -22.3964  -11.9888   22.4956 H   0  0  0  0  0  0
  -21.0977  -13.1226   22.2648 H   0  0  0  0  0  0
  -24.5981  -15.8370   20.5199 H   0  0  0  0  0  0
  -26.1999  -15.6458   20.0141 H   0  0  0  0  0  0
  -26.7505  -32.4942   23.0817 H   0  0  0  0  0  0
  -25.0038  -33.9356   25.0057 H   0  0  0  0  0  0
  -22.8349  -31.2435   21.3235 H   0  0  0  0  0  0
  -23.3771  -35.9467   23.3284 H   0  0  0  0  0  0
  -24.3545  -36.8856   22.2070 H   0  0  0  0  0  0
  -23.7237  -37.6325   23.6751 H   0  0  0  0  0  0
  -26.2982  -31.2678   20.6402 H   0  0  0  0  0  0
  -26.9363  -30.5967   22.0944 H   0  0  0  0  0  0
  -28.1659  -28.3948   21.3229 H   0  0  0  0  0  0
  -25.8371  -25.6315   19.0046 H   0  0  0  0  0  0
  -24.0347  -27.2284   18.9298 H   0  0  0  0  0  0
  -23.9433  -30.4705   19.3861 H   0  0  0  0  0  0
  -22.8667  -29.1771   19.8140 H   0  0  0  0  0  0
  -25.1360  -36.1673   25.0767 H   0  0  0  0  0  0
  -21.0029  -28.3422   24.1269 H   0  0  0  0  0  0
  -20.5691  -26.2415   23.3663 H   0  0  0  0  0  0
  -21.6665  -26.7419   22.1225 H   0  0  0  0  0  0
  -19.6949  -25.6258   21.1313 H   0  0  0  0  0  0
  -19.6729  -27.3120   20.6703 H   0  0  0  0  0  0
  -17.4235  -26.6673   21.4027 H   0  0  0  0  0  0
  -18.0368  -26.0130   22.9046 H   0  0  0  0  0  0
  -19.7987  -30.7351   24.2156 H   0  0  0  0  0  0
  -17.5058  -31.6288   24.5160 H   0  0  0  0  0  0
  -15.5391  -30.2973   23.7743 H   0  0  0  0  0  0
  -15.8707  -28.0819   22.7131 H   0  0  0  0  0  0
  -24.5766  -30.7303   25.7650 H   0  0  0  0  0  0
  -24.8864  -32.3129   26.4628 H   0  0  0  0  0  0
  -25.7755  -30.9117   27.0243 H   0  0  0  0  0  0
  -26.3221  -29.6477   24.1665 H   0  0  0  0  0  0
  -27.3889  -29.7328   25.5454 H   0  0  0  0  0  0
  -27.9226  -30.3978   24.0236 H   0  0  0  0  0  0
  -27.2532  -33.3727   26.2012 H   0  0  0  0  0  0
  -28.3897  -32.6933   25.0458 H   0  0  0  0  0  0
  -28.0623  -31.8633   26.5600 H   0  0  0  0  0  0
  -28.2568  -38.0063   24.7515 H   0  0  0  0  0  0
  -28.1080  -36.2585   24.6273 H   0  0  0  0  0  0
  -27.2279  -37.1377   25.8864 H   0  0  0  0  0  0
  -20.9718  -29.8679   21.6518 H   0  0  0  0  0  0
  -26.0099  -38.2721   24.1407 H   0  0  0  0  0  0
  -26.7010  -21.0513   19.8003 H   0  0  0  0  0  0
  -27.2044  -18.7313   19.8356 H   0  0  0  0  0  0
  -31.2118  -19.5884   20.7487 H   0  0  0  0  0  0
  -31.5084  -21.8908   21.7888 H   0  0  0  0  0  0
  -30.7548  -23.2706   20.9987 H   0  0  0  0  0  0
  -31.7959  -22.1831   20.0734 H   0  0  0  0  0  0
  -27.1924  -23.7222   21.1112 H   0  0  0  0  0  0
  -27.1518  -23.7197   19.4047 H   0  0  0  0  0  0
  -28.5224  -16.5291   20.3442 H   0  0  0  0  0  0
  1 25  1  0  0  0
  1 30  2  0  0  0
  1 79  1  0  0  0
  2  3  1  0  0  0
  2 25  1  0  0  0
  2 80  1  0  0  0
  2 81  1  0  0  0
  3  4  1  0  0  0
  3 82  1  0  0  0
  3 83  1  0  0  0
  4  5  1  0  0  0
  4 84  1  0  0  0
  4 85  1  0  0  0
  5  6  1  0  0  0
  5 26  1  0  0  0
  5 86  1  0  0  0
  6 25  1  0  0  0
  6 87  1  0  0  0
  6 88  1  0  0  0
  7  8  2  0  0  0
  7 26  1  0  0  0
  7 29  1  0  0  0
  8  9  1  0  0  0
  8 22  1  0  0  0
  9 10  1  0  0  0
  9 27  2  0  0  0
 10 11  2  0  0  0
 10 15  1  0  0  0
 11 12  1  0  0  0
 11 89  1  0  0  0
 12 13  2  0  0  0
 12 90  1  0  0  0
 13 14  1  0  0  0
 13 31  1  0  0  0
 14 15  2  0  0  0
 14 91  1  0  0  0
 15 92  1  0  0  0
 16 17  2  0  0  0
 16 21  1  0  0  0
 16 31  1  0  0  0
 17 18  1  0  0  0
 17 93  1  0  0  0
 18 19  2  0  0  0
 18 94  1  0  0  0
 19 20  1  0  0  0
 19 24  1  0  0  0
 20 21  2  0  0  0
 20 95  1  0  0  0
 21 23  1  0  0  0
 22 28  1  0  0  0
 22 32  2  0  0  0
 26 27  1  0  0  0
 28 96  1  0  0  0
 28 97  1  0  0  0
 29 98  1  0  0  0
 29 99  1  0  0  0
 33 34  1  0  0  0
 33 66  1  0  0  0
 33 70  2  0  0  0
 34 36  1  0  0  0
 34 59  1  0  0  0
 34100  1  0  0  0
 35 44  2  0  0  0
 35 45  1  0  0  0
 35 68  1  0  0  0
 36 56  1  0  0  0
 36101  1  0  0  0
 37 39  1  0  0  0
 37 47  1  0  0  0
 37 66  1  0  0  0
 37102  1  0  0  0
 38 43  2  0  0  0
 38 46  1  0  0  0
 38 47  1  0  0  0
 39 64  1  0  0  0
 39 67  2  0  0  0
 40 52  1  0  0  0
 40 53  2  0  0  0
 40 58  1  0  0  0
 41103  1  0  0  0
 41104  1  0  0  0
 41105  1  0  0  0
 41 48  1  0  0  0
 42 43  1  0  0  0
 42 66  1  0  0  0
 42106  1  0  0  0
 42107  1  0  0  0
 43 44  1  0  0  0
 44108  1  0  0  0
 45 46  2  0  0  0
 45109  1  0  0  0
 46110  1  0  0  0
 47111  1  0  0  0
 47112  1  0  0  0
 48 56  1  0  0  0
 48 65  1  0  0  0
 48113  1  0  0  0
 49 50  1  0  0  0
 49 53  1  0  0  0
 49 64  1  0  0  0
 49114  1  0  0  0
 50 51  1  0  0  0
 50115  1  0  0  0
 50116  1  0  0  0
 51 52  1  0  0  0
 51117  1  0  0  0
 51118  1  0  0  0
 52119  1  0  0  0
 52120  1  0  0  0
 53 54  1  0  0  0
 54 55  2  0  0  0
 54121  1  0  0  0
 55 57  1  0  0  0
 55122  1  0  0  0
 56 69  2  0  0  0
 57 58  2  0  0  0
 57123  1  0  0  0
 58124  1  0  0  0
 59 60  1  0  0  0
 59 61  1  0  0  0
 59 62  1  0  0  0
 60125  1  0  0  0
 60126  1  0  0  0
 60127  1  0  0  0
 61128  1  0  0  0
 61129  1  0  0  0
 61130  1  0  0  0
 62131  1  0  0  0
 62132  1  0  0  0
 62133  1  0  0  0
 63 65  1  0  0  0
 63134  1  0  0  0
 63135  1  0  0  0
 63136  1  0  0  0
 64137  1  0  0  0
 65138  1  0  0  0
 68 78  1  0  0  0
 71 72  2  0  0  0
 71 74  1  0  0  0
 71139  1  0  0  0
 72 76  1  0  0  0
 72140  1  0  0  0
 73 75  1  0  0  0
 73 76  2  0  0  0
 73141  1  0  0  0
 74 75  2  0  0  0
 74 78  1  0  0  0
 75 77  1  0  0  0
 76 79  1  0  0  0
 77142  1  0  0  0
 77143  1  0  0  0
 77144  1  0  0  0
 78145  1  0  0  0
 78146  1  0  0  0
 79147  1  0  0  0
M  ISO  4   1 100  68 101  78 101  79 100
M  END
> <chiral flag>
0

> <version>
0

> <s_m_source_file>
/data/baiqing/PycharmProjects/Reinvent-master-3.2/result/LINK_invent/BTK/process_docking_weight1_custom_product_contain_oxygen_bond_distance_aromatic_linkinvent_7_9_3/rearranged_h_0002.sdf

> <i_m_source_file_index>
45

> <r_mmod_Potential_Energy-OPLS-2005>
2268.68115234375

> <r_mmod_Stretch_Energy-OPLS-2005>
912.786193847656

> <r_mmod_Bend_Energy-OPLS-2005>
695.762634277344

> <r_mmod_Torsional_Energy-OPLS-2005>
226.096908569336

> <r_mmod_Improper_Torsional_Energy-OPLS-2005>
4.8881778717041

> <r_mmod_Van_der_Waal_Energy-OPLS-2005>
130.393829345703

> <r_mmod_Electrostatic_Energy-OPLS-2005>
-343.341522216797

> <r_mmod_Solvation_Energy-OPLS-2005>
-213.126998901367

> <b_mmod_Minimization_Converged-OPLS-2005>
0

> <r_mmod_RMS_Derivative-OPLS-2005>
2.84290838241577

$$$$
45
                    3D
 Structure written by MMmdl.
151159  0  0  1  0            999 V2000
  -30.6744  -14.6399   20.4690 C   0  0  0  0  0  0
  -30.4163  -12.3859   19.4690 C   0  0  0  0  0  0
  -29.5021  -12.4816   18.2300 C   0  0  0  0  0  0
  -28.0250  -12.3324   18.6410 C   0  0  0  0  0  0
  -27.6430  -13.2284   19.8511 C   0  0  2  0  0  0
  -28.6870  -13.1434   20.9864 C   0  0  0  0  0  0
  -25.2510  -13.8209   20.5702 C   0  0  0  0  0  0
  -24.1793  -13.0455   20.9221 C   0  0  0  0  0  0
  -24.6377  -11.6933   20.8753 C   0  0  0  0  0  0
  -23.9058  -10.4305   21.0409 C   0  0  0  0  0  0
  -24.3614   -9.4222   21.9186 C   0  0  0  0  0  0
  -23.6294   -8.2250   22.0747 C   0  0  0  0  0  0
  -22.4274   -8.0288   21.3540 C   0  0  0  0  0  0
  -21.9909   -9.0264   20.4645 C   0  0  0  0  0  0
  -22.7232  -10.2146   20.3058 C   0  0  0  0  0  0
  -21.6851   -6.0743   22.5280 C   0  0  0  0  0  0
  -21.4018   -6.5645   23.8218 C   0  0  0  0  0  0
  -21.3658   -5.6793   24.9178 C   0  0  0  0  0  0
  -21.6039   -4.3056   24.7225 C   0  0  0  0  0  0
  -21.8818   -3.8152   23.4346 C   0  0  0  0  0  0
  -21.9193   -4.6970   22.3404 C   0  0  0  0  0  0
  -22.7812  -13.5237   21.1884 C   0  0  0  0  0  0
  -22.1659   -4.2160   21.0980 F   0  0  0  0  0  0
  -21.5626   -3.4537   25.7736 F   0  0  0  0  0  0
  -29.9978  -13.4506   20.4051 N   0  0  0  0  0  0
  -26.2935  -12.9411   20.3286 N   0  0  0  0  0  0
  -25.9305  -11.6556   20.5757 N   0  0  0  0  0  0
  -22.0453  -12.8226   22.0441 N   0  0  0  0  0  0
  -25.4195  -15.1933   20.4116 N   0  0  0  0  0  0
  -31.8630  -14.6982   20.1460 O   0  0  0  0  0  0
  -21.6637   -6.8886   21.4240 O   0  0  0  0  0  0
  -22.3495  -14.5541   20.6732 O   0  0  0  0  0  0
  -24.6250  -31.8605   23.2020 C   0  0  0  0  0  0
  -25.9102  -32.4787   23.8348 C   0  0  1  0  0  0
  -27.2236  -27.3269   20.1256 C   0  0  0  0  0  0
  -25.5919  -33.8582   24.2287 N   0  0  0  0  0  0
  -23.4193  -30.4825   21.5441 C   0  0  2  0  0  0
  -24.8671  -28.9358   20.1125 C   0  0  0  0  0  0
  -22.7472  -29.4622   22.4936 C   0  0  0  0  0  0
  -18.0286  -28.1394   22.8491 C   0  0  0  0  0  0
  -24.1481  -36.7293   23.2640 C   0  0  0  0  0  0
  -25.9581  -30.7954   21.3689 C   0  0  0  0  0  0
  -26.0349  -29.4210   20.7161 C   0  0  0  0  0  0
  -27.2205  -28.6286   20.7106 C   0  0  0  0  0  0
  -26.0395  -26.8925   19.4940 C   0  0  0  0  0  0
  -24.8701  -27.6762   19.4918 C   0  0  0  0  0  0
  -23.6343  -29.8149   20.1600 C   0  0  0  0  0  0
  -25.4107  -36.3092   24.0337 C   0  0  1  0  0  0
  -20.5886  -28.3695   23.1287 C   0  0  2  0  0  0
  -20.6776  -26.9419   22.5415 C   0  0  0  0  0  0
  -19.5752  -26.6393   21.5217 C   0  0  0  0  0  0
  -18.1932  -26.7938   22.1628 C   0  0  0  0  0  0
  -19.1539  -28.8861   23.2886 C   0  0  0  0  0  0
  -18.9461  -30.1464   23.8903 C   0  0  0  0  0  0
  -17.6463  -30.6597   24.0568 C   0  0  0  0  0  0
  -25.9043  -34.9458   23.5115 C   0  0  0  0  0  0
  -16.5353  -29.9099   23.6329 C   0  0  0  0  0  0
  -16.7274  -28.6515   23.0351 C   0  0  0  0  0  0
  -26.4494  -31.6589   25.0707 C   0  0  0  0  0  0
  -25.3737  -31.3724   26.1442 C   0  0  0  0  0  0
  -27.0333  -30.3019   24.6139 C   0  0  0  0  0  0
  -27.6058  -32.4312   25.7483 C   0  0  0  0  0  0
  -27.5576  -37.1806   24.8474 C   0  0  0  0  0  0
  -21.4185  -29.3047   22.3681 N   0  0  0  0  0  0
  -26.4288  -37.3783   23.9413 N   0  0  0  0  0  0
  -24.6865  -31.0622   22.0963 N   0  0  0  0  0  0
  -23.4192  -28.8160   23.3018 O   0  0  0  0  0  0
  -28.3273  -26.4669   20.1494 O   0  0  0  0  0  0
  -26.5613  -34.8926   22.4680 O   0  0  0  0  0  0
  -23.5412  -32.1393   23.7355 O   0  0  0  0  0  0
  -30.2531  -19.5837   19.5517 C   0  0  0  0  0  0
  -28.9576  -18.9195   21.4634 C   0  0  0  0  0  0
  -29.7890  -20.9289   19.6702 C   0  0  0  0  0  0
  -28.4924  -20.2662   21.5799 C   0  0  0  0  0  0
  -29.8692  -18.5439   20.4472 C   0  0  0  0  0  0
  -28.9031  -21.3133   20.7071 C   0  0  0  0  0  0
  -30.5970  -17.1497   20.3608 C   0  0  0  0  0  0
  -28.7904  -23.8070   20.1704 C   0  0  0  0  0  0
  -28.1065  -25.1286   20.7483 C   0  0  0  0  0  0
  -29.9752  -15.8087   20.6519 N   0  0  0  0  0  0
  -28.4178  -22.6165   20.9435 O   0  0  0  0  0  0
  -31.4631  -12.4723   19.1729 H   0  0  0  0  0  0
  -30.3237  -11.4080   19.9445 H   0  0  0  0  0  0
  -29.7676  -11.7109   17.5050 H   0  0  0  0  0  0
  -29.6533  -13.4389   17.7294 H   0  0  0  0  0  0
  -27.8592  -11.2836   18.8911 H   0  0  0  0  0  0
  -27.3741  -12.5462   17.7929 H   0  0  0  0  0  0
  -27.6469  -14.2531   19.4790 H   0  0  0  0  0  0
  -28.6952  -12.1478   21.4330 H   0  0  0  0  0  0
  -28.4413  -13.8387   21.7905 H   0  0  0  0  0  0
  -25.2758   -9.5702   22.4762 H   0  0  0  0  0  0
  -24.0013   -7.4634   22.7451 H   0  0  0  0  0  0
  -21.0847   -8.8781   19.8940 H   0  0  0  0  0  0
  -22.3691  -10.9688   19.6168 H   0  0  0  0  0  0
  -21.2012   -7.6153   23.9732 H   0  0  0  0  0  0
  -21.1475   -6.0517   25.9083 H   0  0  0  0  0  0
  -22.0595   -2.7616   23.2841 H   0  0  0  0  0  0
  -22.4067  -11.9903   22.4859 H   0  0  0  0  0  0
  -21.1059  -13.1239   22.2617 H   0  0  0  0  0  0
  -24.6509  -15.8457   20.5245 H   0  0  0  0  0  0
  -26.2650  -15.6354   20.0742 H   0  0  0  0  0  0
  -26.7167  -32.5474   23.1095 H   0  0  0  0  0  0
  -25.0082  -33.9724   25.0444 H   0  0  0  0  0  0
  -22.7126  -31.3024   21.3998 H   0  0  0  0  0  0
  -23.3742  -35.9627   23.3315 H   0  0  0  0  0  0
  -24.3570  -36.8893   22.2050 H   0  0  0  0  0  0
  -23.7229  -37.6501   23.6641 H   0  0  0  0  0  0
  -26.0798  -31.5546   20.5949 H   0  0  0  0  0  0
  -26.8420  -30.8530   21.9920 H   0  0  0  0  0  0
  -28.1184  -28.9947   21.1880 H   0  0  0  0  0  0
  -26.0123  -25.9257   19.0111 H   0  0  0  0  0  0
  -23.9758  -27.2988   19.0146 H   0  0  0  0  0  0
  -23.7544  -30.5901   19.4023 H   0  0  0  0  0  0
  -22.7551  -29.2436   19.8579 H   0  0  0  0  0  0
  -25.1280  -36.1954   25.0829 H   0  0  0  0  0  0
  -20.9980  -28.3277   24.1407 H   0  0  0  0  0  0
  -20.5682  -26.2309   23.3616 H   0  0  0  0  0  0
  -21.6645  -26.7460   22.1204 H   0  0  0  0  0  0
  -19.6912  -25.6302   21.1249 H   0  0  0  0  0  0
  -19.6686  -27.3203   20.6744 H   0  0  0  0  0  0
  -17.4200  -26.6684   21.4032 H   0  0  0  0  0  0
  -18.0332  -26.0084   22.9027 H   0  0  0  0  0  0
  -19.7937  -30.7281   24.2270 H   0  0  0  0  0  0
  -17.5019  -31.6276   24.5176 H   0  0  0  0  0  0
  -15.5355  -30.3006   23.7654 H   0  0  0  0  0  0
  -15.8670  -28.0842   22.7059 H   0  0  0  0  0  0
  -24.5915  -30.7065   25.7775 H   0  0  0  0  0  0
  -24.8924  -32.2891   26.4860 H   0  0  0  0  0  0
  -25.8075  -30.8912   27.0217 H   0  0  0  0  0  0
  -26.2900  -29.6774   24.1170 H   0  0  0  0  0  0
  -27.4050  -29.7265   25.4626 H   0  0  0  0  0  0
  -27.8754  -30.4308   23.9337 H   0  0  0  0  0  0
  -27.2675  -33.3605   26.2073 H   0  0  0  0  0  0
  -28.3872  -32.6881   25.0320 H   0  0  0  0  0  0
  -28.0722  -31.8428   26.5393 H   0  0  0  0  0  0
  -28.2615  -38.0083   24.7502 H   0  0  0  0  0  0
  -28.1049  -36.2617   24.6321 H   0  0  0  0  0  0
  -27.2297  -37.1489   25.8879 H   0  0  0  0  0  0
  -20.9362  -29.8772   21.6893 H   0  0  0  0  0  0
  -26.0177  -38.2860   24.1408 H   0  0  0  0  0  0
  -30.9592  -19.3597   18.7640 H   0  0  0  0  0  0
  -28.6430  -18.1886   22.1952 H   0  0  0  0  0  0
  -30.1424  -21.6650   18.9623 H   0  0  0  0  0  0
  -27.8175  -20.5077   22.3889 H   0  0  0  0  0  0
  -31.4700  -17.2366   21.0102 H   0  0  0  0  0  0
  -31.0071  -17.0843   19.3509 H   0  0  0  0  0  0
  -29.8755  -23.9180   20.1773 H   0  0  0  0  0  0
  -28.4907  -23.6629   19.1322 H   0  0  0  0  0  0
  -28.4322  -25.2246   21.7846 H   0  0  0  0  0  0
  -27.0405  -24.9172   20.8294 H   0  0  0  0  0  0
  -28.9880  -15.7630   20.8520 H   0  0  0  0  0  0
  1 25  1  0  0  0
  1 30  2  0  0  0
  1 80  1  0  0  0
  2  3  1  0  0  0
  2 25  1  0  0  0
  2 82  1  0  0  0
  2 83  1  0  0  0
  3  4  1  0  0  0
  3 84  1  0  0  0
  3 85  1  0  0  0
  4  5  1  0  0  0
  4 86  1  0  0  0
  4 87  1  0  0  0
  5  6  1  0  0  0
  5 26  1  0  0  0
  5 88  1  0  0  0
  6 25  1  0  0  0
  6 89  1  0  0  0
  6 90  1  0  0  0
  7  8  2  0  0  0
  7 26  1  0  0  0
  7 29  1  0  0  0
  8  9  1  0  0  0
  8 22  1  0  0  0
  9 10  1  0  0  0
  9 27  2  0  0  0
 10 11  2  0  0  0
 10 15  1  0  0  0
 11 12  1  0  0  0
 11 91  1  0  0  0
 12 13  2  0  0  0
 12 92  1  0  0  0
 13 14  1  0  0  0
 13 31  1  0  0  0
 14 15  2  0  0  0
 14 93  1  0  0  0
 15 94  1  0  0  0
 16 17  2  0  0  0
 16 21  1  0  0  0
 16 31  1  0  0  0
 17 18  1  0  0  0
 17 95  1  0  0  0
 18 19  2  0  0  0
 18 96  1  0  0  0
 19 20  1  0  0  0
 19 24  1  0  0  0
 20 21  2  0  0  0
 20 97  1  0  0  0
 21 23  1  0  0  0
 22 28  1  0  0  0
 22 32  2  0  0  0
 26 27  1  0  0  0
 28 98  1  0  0  0
 28 99  1  0  0  0
 29100  1  0  0  0
 29101  1  0  0  0
 33 34  1  0  0  0
 33 66  1  0  0  0
 33 70  2  0  0  0
 34 36  1  0  0  0
 34 59  1  0  0  0
 34102  1  0  0  0
 35 44  2  0  0  0
 35 45  1  0  0  0
 35 68  1  0  0  0
 36 56  1  0  0  0
 36103  1  0  0  0
 37 39  1  0  0  0
 37 47  1  0  0  0
 37 66  1  0  0  0
 37104  1  0  0  0
 38 43  2  0  0  0
 38 46  1  0  0  0
 38 47  1  0  0  0
 39 64  1  0  0  0
 39 67  2  0  0  0
 40 52  1  0  0  0
 40 53  2  0  0  0
 40 58  1  0  0  0
 41105  1  0  0  0
 41106  1  0  0  0
 41107  1  0  0  0
 41 48  1  0  0  0
 42 43  1  0  0  0
 42 66  1  0  0  0
 42108  1  0  0  0
 42109  1  0  0  0
 43 44  1  0  0  0
 44110  1  0  0  0
 45 46  2  0  0  0
 45111  1  0  0  0
 46112  1  0  0  0
 47113  1  0  0  0
 47114  1  0  0  0
 48 56  1  0  0  0
 48 65  1  0  0  0
 48115  1  0  0  0
 49 50  1  0  0  0
 49 53  1  0  0  0
 49 64  1  0  0  0
 49116  1  0  0  0
 50 51  1  0  0  0
 50117  1  0  0  0
 50118  1  0  0  0
 51 52  1  0  0  0
 51119  1  0  0  0
 51120  1  0  0  0
 52121  1  0  0  0
 52122  1  0  0  0
 53 54  1  0  0  0
 54 55  2  0  0  0
 54123  1  0  0  0
 55 57  1  0  0  0
 55124  1  0  0  0
 56 69  2  0  0  0
 57 58  2  0  0  0
 57125  1  0  0  0
 58126  1  0  0  0
 59 60  1  0  0  0
 59 61  1  0  0  0
 59 62  1  0  0  0
 60127  1  0  0  0
 60128  1  0  0  0
 60129  1  0  0  0
 61130  1  0  0  0
 61131  1  0  0  0
 61132  1  0  0  0
 62133  1  0  0  0
 62134  1  0  0  0
 62135  1  0  0  0
 63 65  1  0  0  0
 63136  1  0  0  0
 63137  1  0  0  0
 63138  1  0  0  0
 64139  1  0  0  0
 65140  1  0  0  0
 68 79  1  0  0  0
 71 73  2  0  0  0
 71 75  1  0  0  0
 71141  1  0  0  0
 72 74  1  0  0  0
 72 75  2  0  0  0
 72142  1  0  0  0
 73 76  1  0  0  0
 73143  1  0  0  0
 74 76  2  0  0  0
 74144  1  0  0  0
 75 77  1  0  0  0
 76 81  1  0  0  0
 77 80  1  0  0  0
 77145  1  0  0  0
 77146  1  0  0  0
 78 79  1  0  0  0
 78 81  1  0  0  0
 78147  1  0  0  0
 78148  1  0  0  0
 79149  1  0  0  0
 79150  1  0  0  0
 80151  1  0  0  0
M  ISO  4   1 100  68 101  79 101  80 100
M  END
> <chiral flag>
0

> <version>
0

> <s_m_source_file>
/data/baiqing/PycharmProjects/Reinvent-master-3.2/result/LINK_invent/BTK/process_docking_weight1_custom_product_contain_oxygen_bond_distance_aromatic_linkinvent_7_9_3/rearranged_h_0002.sdf

> <i_m_source_file_index>
46

> <r_mmod_Potential_Energy-OPLS-2005>
36.7274284362793

> <r_mmod_Stretch_Energy-OPLS-2005>
76.701904296875

> <r_mmod_Bend_Energy-OPLS-2005>
155.474868774414

> <r_mmod_Torsional_Energy-OPLS-2005>
221.02214050293

> <r_mmod_Improper_Torsional_Energy-OPLS-2005>
6.35961389541626

> <r_mmod_Van_der_Waal_Energy-OPLS-2005>
143.365112304688

> <r_mmod_Electrostatic_Energy-OPLS-2005>
-407.782104492188

> <r_mmod_Solvation_Energy-OPLS-2005>
-210.192901611328

> <b_mmod_Minimization_Converged-OPLS-2005>
0

> <r_mmod_RMS_Derivative-OPLS-2005>
0.90838497877121

$$$$
46
                    3D
 Structure written by MMmdl.
153161  0  0  1  0            999 V2000
  -30.6230  -14.7093   20.4538 C   0  0  0  0  0  0
  -30.4295  -12.4264   19.4820 C   0  0  0  0  0  0
  -29.5136  -12.5061   18.2404 C   0  0  0  0  0  0
  -28.0368  -12.3397   18.6473 C   0  0  0  0  0  0
  -27.6463  -13.2317   19.8565 C   0  0  2  0  0  0
  -28.6877  -13.1482   20.9955 C   0  0  0  0  0  0
  -25.2522  -13.8203   20.5694 C   0  0  0  0  0  0
  -24.1808  -13.0447   20.9199 C   0  0  0  0  0  0
  -24.6400  -11.6925   20.8744 C   0  0  0  0  0  0
  -23.9076  -10.4299   21.0406 C   0  0  0  0  0  0
  -24.3627   -9.4213   21.9180 C   0  0  0  0  0  0
  -23.6300   -8.2246   22.0753 C   0  0  0  0  0  0
  -22.4279   -8.0286   21.3547 C   0  0  0  0  0  0
  -21.9917   -9.0259   20.4649 C   0  0  0  0  0  0
  -22.7250  -10.2137   20.3057 C   0  0  0  0  0  0
  -21.6852   -6.0742   22.5280 C   0  0  0  0  0  0
  -21.4014   -6.5645   23.8216 C   0  0  0  0  0  0
  -21.3661   -5.6794   24.9176 C   0  0  0  0  0  0
  -21.6042   -4.3057   24.7225 C   0  0  0  0  0  0
  -21.8818   -3.8150   23.4344 C   0  0  0  0  0  0
  -21.9192   -4.6969   22.3402 C   0  0  0  0  0  0
  -22.7827  -13.5227   21.1857 C   0  0  0  0  0  0
  -22.1659   -4.2158   21.0978 F   0  0  0  0  0  0
  -21.5633   -3.4539   25.7737 F   0  0  0  0  0  0
  -29.9978  -13.4844   20.4244 N   0  0  0  0  0  0
  -26.2957  -12.9412   20.3296 N   0  0  0  0  0  0
  -25.9334  -11.6550   20.5751 N   0  0  0  0  0  0
  -22.0471  -12.8224   22.0416 N   0  0  0  0  0  0
  -25.4220  -15.1925   20.4121 N   0  0  0  0  0  0
  -31.8025  -14.8032   20.1005 O   0  0  0  0  0  0
  -21.6643   -6.8882   21.4241 O   0  0  0  0  0  0
  -22.3512  -14.5532   20.6702 O   0  0  0  0  0  0
  -24.6296  -31.8572   23.2004 C   0  0  0  0  0  0
  -25.9128  -32.4764   23.8349 C   0  0  1  0  0  0
  -27.2168  -27.2748   20.1254 C   0  0  0  0  0  0
  -25.5927  -33.8566   24.2270 N   0  0  0  0  0  0
  -23.4253  -30.4813   21.5433 C   0  0  2  0  0  0
  -24.8725  -28.9342   20.1080 C   0  0  0  0  0  0
  -22.7499  -29.4606   22.4909 C   0  0  0  0  0  0
  -18.0293  -28.1383   22.8480 C   0  0  0  0  0  0
  -24.1490  -36.7290   23.2638 C   0  0  0  0  0  0
  -25.9709  -30.7731   21.3805 C   0  0  0  0  0  0
  -26.0425  -29.3972   20.7226 C   0  0  0  0  0  0
  -27.2157  -28.5783   20.7251 C   0  0  0  0  0  0
  -26.0286  -26.8901   19.4605 C   0  0  0  0  0  0
  -24.8703  -27.6881   19.4665 C   0  0  0  0  0  0
  -23.6430  -29.8190   20.1579 C   0  0  0  0  0  0
  -25.4114  -36.3074   24.0327 C   0  0  1  0  0  0
  -20.5896  -28.3694   23.1264 C   0  0  2  0  0  0
  -20.6777  -26.9409   22.5403 C   0  0  0  0  0  0
  -19.5751  -26.6379   21.5207 C   0  0  0  0  0  0
  -18.1933  -26.7923   22.1623 C   0  0  0  0  0  0
  -19.1546  -28.8856   23.2868 C   0  0  0  0  0  0
  -18.9467  -30.1457   23.8886 C   0  0  0  0  0  0
  -17.6465  -30.6582   24.0561 C   0  0  0  0  0  0
  -25.9054  -34.9444   23.5100 C   0  0  0  0  0  0
  -16.5357  -29.9080   23.6327 C   0  0  0  0  0  0
  -16.7279  -28.6499   23.0346 C   0  0  0  0  0  0
  -26.4502  -31.6580   25.0730 C   0  0  0  0  0  0
  -25.3727  -31.3728   26.1452 C   0  0  0  0  0  0
  -27.0351  -30.2997   24.6211 C   0  0  0  0  0  0
  -27.6056  -32.4321   25.7503 C   0  0  0  0  0  0
  -27.5578  -37.1799   24.8464 C   0  0  0  0  0  0
  -21.4207  -29.3045   22.3658 N   0  0  0  0  0  0
  -26.4290  -37.3769   23.9407 N   0  0  0  0  0  0
  -24.6941  -31.0553   22.0973 N   0  0  0  0  0  0
  -23.4208  -28.8135   23.2991 O   0  0  0  0  0  0
  -28.3083  -26.3795   20.2115 O   0  0  0  0  0  0
  -26.5627  -34.8913   22.4671 O   0  0  0  0  0  0
  -23.5448  -32.1388   23.7302 O   0  0  0  0  0  0
  -30.6261  -18.6052   18.2261 C   0  0  0  0  0  0
  -30.2299  -19.7864   18.8820 C   0  0  0  0  0  0
  -30.5183  -17.3463   18.8492 C   0  0  0  0  0  0
  -29.5692  -18.4390   20.8022 C   0  0  0  0  0  0
  -29.6894  -19.7538   20.1847 C   0  0  0  0  0  0
  -30.0014  -17.2070   20.1580 C   0  0  0  0  0  0
  -29.3864  -21.1440   20.8984 C   0  0  0  0  0  0
  -29.0084  -23.7628   20.5921 C   0  0  0  0  0  0
  -28.0897  -24.9168   19.9405 C   0  0  0  0  0  0
  -29.8715  -15.8427   20.7257 N   0  0  0  0  0  0
  -28.8066  -22.3154   20.0979 N   0  3  0  0  0  0
  -31.4748  -12.5329   19.1863 H   0  0  0  0  0  0
  -30.3548  -11.4459   19.9548 H   0  0  0  0  0  0
  -29.7915  -11.7397   17.5161 H   0  0  0  0  0  0
  -29.6527  -13.4654   17.7391 H   0  0  0  0  0  0
  -27.8820  -11.2896   18.8981 H   0  0  0  0  0  0
  -27.3853  -12.5473   17.7977 H   0  0  0  0  0  0
  -27.6485  -14.2575   19.4864 H   0  0  0  0  0  0
  -28.7091  -12.1482   21.4308 H   0  0  0  0  0  0
  -28.4274  -13.8273   21.8084 H   0  0  0  0  0  0
  -25.2774   -9.5691   22.4753 H   0  0  0  0  0  0
  -24.0018   -7.4637   22.7468 H   0  0  0  0  0  0
  -21.0851   -8.8776   19.8953 H   0  0  0  0  0  0
  -22.3707  -10.9673   19.6166 H   0  0  0  0  0  0
  -21.2004   -7.6150   23.9722 H   0  0  0  0  0  0
  -21.1486   -6.0523   25.9080 H   0  0  0  0  0  0
  -22.0595   -2.7614   23.2838 H   0  0  0  0  0  0
  -22.4088  -11.9896   22.4827 H   0  0  0  0  0  0
  -21.1081  -13.1241   22.2602 H   0  0  0  0  0  0
  -24.6553  -15.8469   20.5236 H   0  0  0  0  0  0
  -26.2723  -15.6322   20.0829 H   0  0  0  0  0  0
  -26.7193  -32.5421   23.1092 H   0  0  0  0  0  0
  -25.0068  -33.9712   25.0411 H   0  0  0  0  0  0
  -22.7200  -31.3023   21.3995 H   0  0  0  0  0  0
  -23.3749  -35.9626   23.3299 H   0  0  0  0  0  0
  -24.3579  -36.8917   22.2053 H   0  0  0  0  0  0
  -23.7254  -37.6493   23.6667 H   0  0  0  0  0  0
  -26.1113  -31.5324   20.6099 H   0  0  0  0  0  0
  -26.8484  -30.8207   22.0137 H   0  0  0  0  0  0
  -28.1073  -28.9240   21.2295 H   0  0  0  0  0  0
  -25.9565  -25.9505   18.9342 H   0  0  0  0  0  0
  -23.9781  -27.3336   18.9688 H   0  0  0  0  0  0
  -23.7671  -30.5971   19.4039 H   0  0  0  0  0  0
  -22.7617  -29.2523   19.8521 H   0  0  0  0  0  0
  -25.1295  -36.1922   25.0818 H   0  0  0  0  0  0
  -20.9992  -28.3274   24.1385 H   0  0  0  0  0  0
  -20.5667  -26.2308   23.3612 H   0  0  0  0  0  0
  -21.6646  -26.7425   22.1204 H   0  0  0  0  0  0
  -19.6910  -25.6290   21.1240 H   0  0  0  0  0  0
  -19.6684  -27.3189   20.6736 H   0  0  0  0  0  0
  -17.4199  -26.6666   21.4030 H   0  0  0  0  0  0
  -18.0334  -26.0071   22.9027 H   0  0  0  0  0  0
  -19.7944  -30.7275   24.2249 H   0  0  0  0  0  0
  -17.5019  -31.6259   24.5167 H   0  0  0  0  0  0
  -15.5355  -30.2977   23.7654 H   0  0  0  0  0  0
  -15.8681  -28.0816   22.7060 H   0  0  0  0  0  0
  -24.5902  -30.7077   25.7781 H   0  0  0  0  0  0
  -24.8920  -32.2898   26.4869 H   0  0  0  0  0  0
  -25.8044  -30.8910   27.0235 H   0  0  0  0  0  0
  -26.2937  -29.6739   24.1229 H   0  0  0  0  0  0
  -27.4032  -29.7262   25.4728 H   0  0  0  0  0  0
  -27.8816  -30.4275   23.9459 H   0  0  0  0  0  0
  -27.2663  -33.3624   26.2072 H   0  0  0  0  0  0
  -28.3871  -32.6874   25.0334 H   0  0  0  0  0  0
  -28.0721  -31.8454   26.5429 H   0  0  0  0  0  0
  -28.2590  -38.0098   24.7503 H   0  0  0  0  0  0
  -28.1077  -36.2628   24.6296 H   0  0  0  0  0  0
  -27.2293  -37.1457   25.8866 H   0  0  0  0  0  0
  -20.9383  -29.8794   21.6891 H   0  0  0  0  0  0
  -26.0167  -38.2844   24.1400 H   0  0  0  0  0  0
  -31.0326  -18.6655   17.2258 H   0  0  0  0  0  0
  -30.3700  -20.7284   18.3703 H   0  0  0  0  0  0
  -30.8343  -16.4789   18.2871 H   0  0  0  0  0  0
  -29.1690  -18.3820   21.8051 H   0  0  0  0  0  0
  -30.3351  -21.4785   21.3194 H   0  0  0  0  0  0
  -28.7356  -20.9626   21.7546 H   0  0  0  0  0  0
  -28.8490  -23.7787   21.6703 H   0  0  0  0  0  0
  -30.0570  -24.0215   20.4411 H   0  0  0  0  0  0
  -27.0775  -24.6537   20.2475 H   0  0  0  0  0  0
  -28.1175  -24.8000   18.8566 H   0  0  0  0  0  0
  -29.0115  -15.6658   21.2230 H   0  0  0  0  0  0
  -27.8192  -22.1326   20.0145 H   0  0  0  0  0  0
  -29.1856  -22.2601   19.1672 H   0  0  0  0  0  0
  1 25  1  0  0  0
  1 30  2  0  0  0
  1 80  1  0  0  0
  2  3  1  0  0  0
  2 25  1  0  0  0
  2 82  1  0  0  0
  2 83  1  0  0  0
  3  4  1  0  0  0
  3 84  1  0  0  0
  3 85  1  0  0  0
  4  5  1  0  0  0
  4 86  1  0  0  0
  4 87  1  0  0  0
  5  6  1  0  0  0
  5 26  1  0  0  0
  5 88  1  0  0  0
  6 25  1  0  0  0
  6 89  1  0  0  0
  6 90  1  0  0  0
  7  8  2  0  0  0
  7 26  1  0  0  0
  7 29  1  0  0  0
  8  9  1  0  0  0
  8 22  1  0  0  0
  9 10  1  0  0  0
  9 27  2  0  0  0
 10 11  2  0  0  0
 10 15  1  0  0  0
 11 12  1  0  0  0
 11 91  1  0  0  0
 12 13  2  0  0  0
 12 92  1  0  0  0
 13 14  1  0  0  0
 13 31  1  0  0  0
 14 15  2  0  0  0
 14 93  1  0  0  0
 15 94  1  0  0  0
 16 17  2  0  0  0
 16 21  1  0  0  0
 16 31  1  0  0  0
 17 18  1  0  0  0
 17 95  1  0  0  0
 18 19  2  0  0  0
 18 96  1  0  0  0
 19 20  1  0  0  0
 19 24  1  0  0  0
 20 21  2  0  0  0
 20 97  1  0  0  0
 21 23  1  0  0  0
 22 28  1  0  0  0
 22 32  2  0  0  0
 26 27  1  0  0  0
 28 98  1  0  0  0
 28 99  1  0  0  0
 29100  1  0  0  0
 29101  1  0  0  0
 33 34  1  0  0  0
 33 66  1  0  0  0
 33 70  2  0  0  0
 34 36  1  0  0  0
 34 59  1  0  0  0
 34102  1  0  0  0
 35 44  2  0  0  0
 35 45  1  0  0  0
 35 68  1  0  0  0
 36 56  1  0  0  0
 36103  1  0  0  0
 37 39  1  0  0  0
 37 47  1  0  0  0
 37 66  1  0  0  0
 37104  1  0  0  0
 38 43  2  0  0  0
 38 46  1  0  0  0
 38 47  1  0  0  0
 39 64  1  0  0  0
 39 67  2  0  0  0
 40 52  1  0  0  0
 40 53  2  0  0  0
 40 58  1  0  0  0
 41105  1  0  0  0
 41106  1  0  0  0
 41107  1  0  0  0
 41 48  1  0  0  0
 42 43  1  0  0  0
 42 66  1  0  0  0
 42108  1  0  0  0
 42109  1  0  0  0
 43 44  1  0  0  0
 44110  1  0  0  0
 45 46  2  0  0  0
 45111  1  0  0  0
 46112  1  0  0  0
 47113  1  0  0  0
 47114  1  0  0  0
 48 56  1  0  0  0
 48 65  1  0  0  0
 48115  1  0  0  0
 49 50  1  0  0  0
 49 53  1  0  0  0
 49 64  1  0  0  0
 49116  1  0  0  0
 50 51  1  0  0  0
 50117  1  0  0  0
 50118  1  0  0  0
 51 52  1  0  0  0
 51119  1  0  0  0
 51120  1  0  0  0
 52121  1  0  0  0
 52122  1  0  0  0
 53 54  1  0  0  0
 54 55  2  0  0  0
 54123  1  0  0  0
 55 57  1  0  0  0
 55124  1  0  0  0
 56 69  2  0  0  0
 57 58  2  0  0  0
 57125  1  0  0  0
 58126  1  0  0  0
 59 60  1  0  0  0
 59 61  1  0  0  0
 59 62  1  0  0  0
 60127  1  0  0  0
 60128  1  0  0  0
 60129  1  0  0  0
 61130  1  0  0  0
 61131  1  0  0  0
 61132  1  0  0  0
 62133  1  0  0  0
 62134  1  0  0  0
 62135  1  0  0  0
 63 65  1  0  0  0
 63136  1  0  0  0
 63137  1  0  0  0
 63138  1  0  0  0
 64139  1  0  0  0
 65140  1  0  0  0
 68 79  1  0  0  0
 71 72  2  0  0  0
 71 73  1  0  0  0
 71141  1  0  0  0
 72 75  1  0  0  0
 72142  1  0  0  0
 73 76  2  0  0  0
 73143  1  0  0  0
 74 75  2  0  0  0
 74 76  1  0  0  0
 74144  1  0  0  0
 75 77  1  0  0  0
 76 80  1  0  0  0
 77 81  1  0  0  0
 77145  1  0  0  0
 77146  1  0  0  0
 78 79  1  0  0  0
 78 81  1  0  0  0
 78147  1  0  0  0
 78148  1  0  0  0
 79149  1  0  0  0
 79150  1  0  0  0
 80151  1  0  0  0
 81152  1  0  0  0
 81153  1  0  0  0
M  CHG  1  81   1
M  ISO  4   1 100  68 101  79 101  80 100
M  END
> <chiral flag>
0

> <version>
0

> <s_m_source_file>
/data/baiqing/PycharmProjects/Reinvent-master-3.2/result/LINK_invent/BTK/process_docking_weight1_custom_product_contain_oxygen_bond_distance_aromatic_linkinvent_7_9_3/rearranged_h_0002.sdf

> <i_m_source_file_index>
47

> <r_mmod_Potential_Energy-OPLS-2005>
-34.7456741333008

> <r_mmod_Stretch_Energy-OPLS-2005>
112.539047241211

> <r_mmod_Bend_Energy-OPLS-2005>
147.294815063477

> <r_mmod_Torsional_Energy-OPLS-2005>
227.704132080078

> <r_mmod_Improper_Torsional_Energy-OPLS-2005>
4.58505725860596

> <r_mmod_Van_der_Waal_Energy-OPLS-2005>
142.705841064453

> <r_mmod_Electrostatic_Energy-OPLS-2005>
-269.937713623047

> <r_mmod_Solvation_Energy-OPLS-2005>
-475.085266113281

> <b_mmod_Minimization_Converged-OPLS-2005>
0

> <r_mmod_RMS_Derivative-OPLS-2005>
0.710408389568329

$$$$
47
                    3D
 Structure written by MMmdl.
160169  0  0  1  0            999 V2000
  -30.6742  -14.7638   20.4897 C   0  0  0  0  0  0
  -30.4151  -12.4828   19.4845 C   0  0  0  0  0  0
  -29.5035  -12.5070   18.2414 C   0  0  0  0  0  0
  -28.0356  -12.3041   18.6576 C   0  0  0  0  0  0
  -27.6287  -13.2249   19.8369 C   0  0  2  0  0  0
  -28.6727  -13.2279   20.9782 C   0  0  0  0  0  0
  -25.2452  -13.8160   20.5656 C   0  0  0  0  0  0
  -24.1765  -13.0410   20.9204 C   0  0  0  0  0  0
  -24.6367  -11.6895   20.8761 C   0  0  0  0  0  0
  -23.9059  -10.4271   21.0415 C   0  0  0  0  0  0
  -24.3625   -9.4189   21.9193 C   0  0  0  0  0  0
  -23.6309   -8.2220   22.0755 C   0  0  0  0  0  0
  -22.4289   -8.0261   21.3542 C   0  0  0  0  0  0
  -21.9913   -9.0233   20.4646 C   0  0  0  0  0  0
  -22.7238  -10.2115   20.3057 C   0  0  0  0  0  0
  -21.6852   -6.0728   22.5278 C   0  0  0  0  0  0
  -21.4002   -6.5633   23.8211 C   0  0  0  0  0  0
  -21.3671   -5.6790   24.9177 C   0  0  0  0  0  0
  -21.6053   -4.3052   24.7225 C   0  0  0  0  0  0
  -21.8820   -3.8141   23.4346 C   0  0  0  0  0  0
  -21.9192   -4.6956   22.3403 C   0  0  0  0  0  0
  -22.7800  -13.5200   21.1871 C   0  0  0  0  0  0
  -22.1659   -4.2145   21.0982 F   0  0  0  0  0  0
  -21.5650   -3.4536   25.7738 F   0  0  0  0  0  0
  -29.9690  -13.5767   20.3867 N   0  0  0  0  0  0
  -26.2869  -12.9359   20.3233 N   0  0  0  0  0  0
  -25.9293  -11.6510   20.5760 N   0  0  0  0  0  0
  -22.0463  -12.8193   22.0439 N   0  0  0  0  0  0
  -25.4062  -15.1881   20.3997 N   0  0  0  0  0  0
  -31.8754  -14.7380   20.2052 O   0  0  0  0  0  0
  -21.6648   -6.8868   21.4239 O   0  0  0  0  0  0
  -22.3484  -14.5508   20.6725 O   0  0  0  0  0  0
  -24.6315  -31.8539   23.1982 C   0  0  0  0  0  0
  -25.9137  -32.4747   23.8327 C   0  0  1  0  0  0
  -27.2163  -27.2484   20.1224 C   0  0  0  0  0  0
  -25.5933  -33.8550   24.2244 N   0  0  0  0  0  0
  -23.4282  -30.4771   21.5434 C   0  0  2  0  0  0
  -24.8738  -28.9276   20.1054 C   0  0  0  0  0  0
  -22.7505  -29.4586   22.4926 C   0  0  0  0  0  0
  -18.0287  -28.1385   22.8489 C   0  0  0  0  0  0
  -24.1486  -36.7281   23.2637 C   0  0  0  0  0  0
  -25.9760  -30.7628   21.3804 C   0  0  0  0  0  0
  -26.0464  -29.3864   20.7176 C   0  0  0  0  0  0
  -27.2155  -28.5579   20.7183 C   0  0  0  0  0  0
  -26.0089  -26.8560   19.4972 C   0  0  0  0  0  0
  -24.8620  -27.6716   19.4842 C   0  0  0  0  0  0
  -23.6445  -29.8136   20.1580 C   0  0  0  0  0  0
  -25.4113  -36.3061   24.0321 C   0  0  1  0  0  0
  -20.5890  -28.3687   23.1274 C   0  0  2  0  0  0
  -20.6773  -26.9404   22.5407 C   0  0  0  0  0  0
  -19.5752  -26.6374   21.5213 C   0  0  0  0  0  0
  -18.1934  -26.7926   22.1627 C   0  0  0  0  0  0
  -19.1538  -28.8858   23.2874 C   0  0  0  0  0  0
  -18.9457  -30.1463   23.8880 C   0  0  0  0  0  0
  -17.6453  -30.6589   24.0553 C   0  0  0  0  0  0
  -25.9061  -34.9435   23.5084 C   0  0  0  0  0  0
  -16.5344  -29.9078   23.6340 C   0  0  0  0  0  0
  -16.7269  -28.6498   23.0360 C   0  0  0  0  0  0
  -26.4497  -31.6584   25.0730 C   0  0  0  0  0  0
  -25.3719  -31.3748   26.1453 C   0  0  0  0  0  0
  -27.0337  -30.2994   24.6237 C   0  0  0  0  0  0
  -27.6052  -32.4327   25.7502 C   0  0  0  0  0  0
  -27.5587  -37.1776   24.8444 C   0  0  0  0  0  0
  -21.4206  -29.3035   22.3671 N   0  0  0  0  0  0
  -26.4275  -37.3775   23.9427 N   0  0  0  0  0  0
  -24.6979  -31.0494   22.0965 N   0  0  0  0  0  0
  -23.4203  -28.8125   23.3024 O   0  0  0  0  0  0
  -28.3053  -26.3441   20.2314 O   0  0  0  0  0  0
  -26.5638  -34.8909   22.4659 O   0  0  0  0  0  0
  -23.5461  -32.1363   23.7272 O   0  0  0  0  0  0
  -28.7870  -21.5291   21.1874 C   0  0  0  0  0  0
  -28.5211  -22.9452   21.0140 C   0  0  0  0  0  0
  -29.2387  -22.7623   18.7572 C   0  0  0  0  0  0
  -29.2883  -20.6743   20.1465 C   0  0  0  0  0  0
  -28.7527  -23.6225   19.7784 C   0  0  0  0  0  0
  -29.4941  -21.3582   18.9007 C   0  0  0  0  0  0
  -30.4126  -18.5783   21.5221 C   0  0  0  0  0  0
  -28.4580  -18.0733   20.2350 C   0  0  0  0  0  0
  -30.9708  -17.1027   21.3391 C   0  0  0  0  0  0
  -28.8433  -16.5269   20.1579 C   0  0  0  0  0  0
  -29.6227  -19.0979   20.2995 C   0  0  0  0  0  0
  -28.4413  -25.1419   19.3473 C   0  0  0  0  0  0
  -29.9994  -20.6071   17.6620 C   0  0  0  0  0  0
  -30.0818  -16.0024   20.8168 N   0  0  0  0  0  0
  -29.9627  -21.3615   16.5627 F   0  0  0  0  0  0
  -31.2658  -20.2291   17.8399 F   0  0  0  0  0  0
  -29.2480  -19.5322   17.4180 F   0  0  0  0  0  0
  -31.4576  -12.5819   19.1789 H   0  0  0  0  0  0
  -30.3492  -11.5198   19.9918 H   0  0  0  0  0  0
  -29.8052  -11.7337   17.5334 H   0  0  0  0  0  0
  -29.6112  -13.4612   17.7229 H   0  0  0  0  0  0
  -27.9145  -11.2583   18.9443 H   0  0  0  0  0  0
  -27.3747  -12.4634   17.8044 H   0  0  0  0  0  0
  -27.5937  -14.2187   19.3989 H   0  0  0  0  0  0
  -28.7208  -12.2525   21.4652 H   0  0  0  0  0  0
  -28.3963  -13.9445   21.7535 H   0  0  0  0  0  0
  -25.2771   -9.5675   22.4770 H   0  0  0  0  0  0
  -24.0026   -7.4610   22.7471 H   0  0  0  0  0  0
  -21.0846   -8.8747   19.8954 H   0  0  0  0  0  0
  -22.3702  -10.9654   19.6165 H   0  0  0  0  0  0
  -21.1970   -7.6138   23.9716 H   0  0  0  0  0  0
  -21.1507   -6.0517   25.9086 H   0  0  0  0  0  0
  -22.0590   -2.7601   23.2849 H   0  0  0  0  0  0
  -22.4098  -11.9848   22.4806 H   0  0  0  0  0  0
  -21.1079  -13.1205   22.2662 H   0  0  0  0  0  0
  -24.6320  -15.8350   20.5023 H   0  0  0  0  0  0
  -26.2477  -15.6296   20.0549 H   0  0  0  0  0  0
  -26.7204  -32.5376   23.1067 H   0  0  0  0  0  0
  -25.0063  -33.9687   25.0375 H   0  0  0  0  0  0
  -22.7249  -31.2999   21.4000 H   0  0  0  0  0  0
  -23.3756  -35.9596   23.3241 H   0  0  0  0  0  0
  -24.3603  -36.8964   22.2067 H   0  0  0  0  0  0
  -23.7203  -37.6452   23.6697 H   0  0  0  0  0  0
  -26.1206  -31.5258   20.6144 H   0  0  0  0  0  0
  -26.8517  -30.8084   22.0156 H   0  0  0  0  0  0
  -28.1101  -28.9016   21.2185 H   0  0  0  0  0  0
  -25.8824  -25.8809   19.0581 H   0  0  0  0  0  0
  -23.9598  -27.3071   19.0122 H   0  0  0  0  0  0
  -23.7643  -30.5913   19.4032 H   0  0  0  0  0  0
  -22.7626  -29.2467   19.8542 H   0  0  0  0  0  0
  -25.1288  -36.1900   25.0812 H   0  0  0  0  0  0
  -20.9979  -28.3244   24.1397 H   0  0  0  0  0  0
  -20.5680  -26.2286   23.3605 H   0  0  0  0  0  0
  -21.6638  -26.7436   22.1189 H   0  0  0  0  0  0
  -19.6905  -25.6283   21.1256 H   0  0  0  0  0  0
  -19.6689  -27.3172   20.6733 H   0  0  0  0  0  0
  -17.4197  -26.6661   21.4034 H   0  0  0  0  0  0
  -18.0334  -26.0075   22.9033 H   0  0  0  0  0  0
  -19.7932  -30.7289   24.2230 H   0  0  0  0  0  0
  -17.5003  -31.6276   24.5148 H   0  0  0  0  0  0
  -15.5342  -30.2965   23.7688 H   0  0  0  0  0  0
  -15.8666  -28.0808   22.7085 H   0  0  0  0  0  0
  -24.5859  -30.7148   25.7765 H   0  0  0  0  0  0
  -24.8960  -32.2929   26.4913 H   0  0  0  0  0  0
  -25.8028  -30.8877   27.0209 H   0  0  0  0  0  0
  -26.2919  -29.6751   24.1246 H   0  0  0  0  0  0
  -27.3978  -29.7264   25.4774 H   0  0  0  0  0  0
  -27.8816  -30.4252   23.9500 H   0  0  0  0  0  0
  -27.2662  -33.3633   26.2065 H   0  0  0  0  0  0
  -28.3871  -32.6884   25.0338 H   0  0  0  0  0  0
  -28.0705  -31.8463   26.5435 H   0  0  0  0  0  0
  -28.2530  -38.0150   24.7603 H   0  0  0  0  0  0
  -28.1164  -36.2692   24.6120 H   0  0  0  0  0  0
  -27.2338  -37.1229   25.8850 H   0  0  0  0  0  0
  -20.9384  -29.8764   21.6887 H   0  0  0  0  0  0
  -26.0144  -38.2826   24.1500 H   0  0  0  0  0  0
  -28.5890  -21.0882   22.1554 H   0  0  0  0  0  0
  -28.1227  -23.5088   21.8467 H   0  0  0  0  0  0
  -29.4101  -23.2137   17.7909 H   0  0  0  0  0  0
  -31.2582  -19.2414   21.7098 H   0  0  0  0  0  0
  -29.7945  -18.6349   22.4194 H   0  0  0  0  0  0
  -27.8225  -18.2306   21.1088 H   0  0  0  0  0  0
  -27.8187  -18.3099   19.3836 H   0  0  0  0  0  0
  -31.3877  -16.7708   22.2917 H   0  0  0  0  0  0
  -31.8277  -17.1868   20.6675 H   0  0  0  0  0  0
  -28.8946  -16.2439   19.1045 H   0  0  0  0  0  0
  -28.0049  -15.9858   20.5860 H   0  0  0  0  0  0
  -30.2759  -18.8514   19.4686 H   0  0  0  0  0  0
  -27.6730  -25.0890   18.5825 H   0  0  0  0  0  0
  -29.3186  -25.4158   18.7597 H   0  0  0  0  0  0
  1 25  1  0  0  0
  1 30  2  0  0  0
  1 84  1  0  0  0
  2  3  1  0  0  0
  2 25  1  0  0  0
  2 88  1  0  0  0
  2 89  1  0  0  0
  3  4  1  0  0  0
  3 90  1  0  0  0
  3 91  1  0  0  0
  4  5  1  0  0  0
  4 92  1  0  0  0
  4 93  1  0  0  0
  5  6  1  0  0  0
  5 26  1  0  0  0
  5 94  1  0  0  0
  6 25  1  0  0  0
  6 95  1  0  0  0
  6 96  1  0  0  0
  7  8  2  0  0  0
  7 26  1  0  0  0
  7 29  1  0  0  0
  8  9  1  0  0  0
  8 22  1  0  0  0
  9 10  1  0  0  0
  9 27  2  0  0  0
 10 11  2  0  0  0
 10 15  1  0  0  0
 11 12  1  0  0  0
 11 97  1  0  0  0
 12 13  2  0  0  0
 12 98  1  0  0  0
 13 14  1  0  0  0
 13 31  1  0  0  0
 14 15  2  0  0  0
 14 99  1  0  0  0
 15100  1  0  0  0
 16 17  2  0  0  0
 16 21  1  0  0  0
 16 31  1  0  0  0
 17 18  1  0  0  0
 17101  1  0  0  0
 18 19  2  0  0  0
 18102  1  0  0  0
 19 20  1  0  0  0
 19 24  1  0  0  0
 20 21  2  0  0  0
 20103  1  0  0  0
 21 23  1  0  0  0
 22 28  1  0  0  0
 22 32  2  0  0  0
 26 27  1  0  0  0
 28104  1  0  0  0
 28105  1  0  0  0
 29106  1  0  0  0
 29107  1  0  0  0
 33 34  1  0  0  0
 33 66  1  0  0  0
 33 70  2  0  0  0
 34 36  1  0  0  0
 34 59  1  0  0  0
 34108  1  0  0  0
 35 44  2  0  0  0
 35 45  1  0  0  0
 35 68  1  0  0  0
 36 56  1  0  0  0
 36109  1  0  0  0
 37 39  1  0  0  0
 37 47  1  0  0  0
 37 66  1  0  0  0
 37110  1  0  0  0
 38 43  2  0  0  0
 38 46  1  0  0  0
 38 47  1  0  0  0
 39 64  1  0  0  0
 39 67  2  0  0  0
 40 52  1  0  0  0
 40 53  2  0  0  0
 40 58  1  0  0  0
 41111  1  0  0  0
 41112  1  0  0  0
 41113  1  0  0  0
 41 48  1  0  0  0
 42 43  1  0  0  0
 42 66  1  0  0  0
 42114  1  0  0  0
 42115  1  0  0  0
 43 44  1  0  0  0
 44116  1  0  0  0
 45 46  2  0  0  0
 45117  1  0  0  0
 46118  1  0  0  0
 47119  1  0  0  0
 47120  1  0  0  0
 48 56  1  0  0  0
 48 65  1  0  0  0
 48121  1  0  0  0
 49 50  1  0  0  0
 49 53  1  0  0  0
 49 64  1  0  0  0
 49122  1  0  0  0
 50 51  1  0  0  0
 50123  1  0  0  0
 50124  1  0  0  0
 51 52  1  0  0  0
 51125  1  0  0  0
 51126  1  0  0  0
 52127  1  0  0  0
 52128  1  0  0  0
 53 54  1  0  0  0
 54 55  2  0  0  0
 54129  1  0  0  0
 55 57  1  0  0  0
 55130  1  0  0  0
 56 69  2  0  0  0
 57 58  2  0  0  0
 57131  1  0  0  0
 58132  1  0  0  0
 59 60  1  0  0  0
 59 61  1  0  0  0
 59 62  1  0  0  0
 60133  1  0  0  0
 60134  1  0  0  0
 60135  1  0  0  0
 61136  1  0  0  0
 61137  1  0  0  0
 61138  1  0  0  0
 62139  1  0  0  0
 62140  1  0  0  0
 62141  1  0  0  0
 63 65  1  0  0  0
 63142  1  0  0  0
 63143  1  0  0  0
 63144  1  0  0  0
 64145  1  0  0  0
 65146  1  0  0  0
 68 82  1  0  0  0
 71 72  2  0  0  0
 71 74  1  0  0  0
 71147  1  0  0  0
 72 75  1  0  0  0
 72148  1  0  0  0
 73 75  2  0  0  0
 73 76  1  0  0  0
 73149  1  0  0  0
 74 76  2  0  0  0
 74 81  1  0  0  0
 75 82  1  0  0  0
 76 83  1  0  0  0
 77 79  1  0  0  0
 77 81  1  0  0  0
 77150  1  0  0  0
 77151  1  0  0  0
 78 80  1  0  0  0
 78 81  1  0  0  0
 78152  1  0  0  0
 78153  1  0  0  0
 79 84  1  0  0  0
 79154  1  0  0  0
 79155  1  0  0  0
 80 84  1  0  0  0
 80156  1  0  0  0
 80157  1  0  0  0
 81158  1  0  0  0
 82159  1  0  0  0
 82160  1  0  0  0
 83 85  1  0  0  0
 83 86  1  0  0  0
 83 87  1  0  0  0
M  ISO  4   1 100  68 101  82 101  84 100
M  END
> <chiral flag>
0

> <version>
0

> <s_m_source_file>
/data/baiqing/PycharmProjects/Reinvent-master-3.2/result/LINK_invent/BTK/process_docking_weight1_custom_product_contain_oxygen_bond_distance_aromatic_linkinvent_7_9_3/rearranged_h_0002.sdf

> <i_m_source_file_index>
48

> <r_mmod_Potential_Energy-OPLS-2005>
513.216613769531

> <r_mmod_Stretch_Energy-OPLS-2005>
131.263336181641

> <r_mmod_Bend_Energy-OPLS-2005>
236.899627685547

> <r_mmod_Torsional_Energy-OPLS-2005>
321.699890136719

> <r_mmod_Improper_Torsional_Energy-OPLS-2005>
4.46280241012573

> <r_mmod_Van_der_Waal_Energy-OPLS-2005>
155.757919311523

> <r_mmod_Electrostatic_Energy-OPLS-2005>
-245.316421508789

> <r_mmod_Solvation_Energy-OPLS-2005>
-191.158142089844

> <b_mmod_Minimization_Converged-OPLS-2005>
0

> <r_mmod_RMS_Derivative-OPLS-2005>
1.72366797924042

$$$$
48
                    3D
 Structure written by MMmdl.
166174  0  0  1  0            999 V2000
  -30.7145  -14.4990   20.5193 C   0  0  0  0  0  0
  -30.4301  -12.2962   19.4470 C   0  0  0  0  0  0
  -29.4967  -12.4116   18.2263 C   0  0  0  0  0  0
  -28.0187  -12.2879   18.6492 C   0  0  0  0  0  0
  -27.6567  -13.1799   19.8673 C   0  0  2  0  0  0
  -28.7051  -13.0425   20.9918 C   0  0  0  0  0  0
  -25.2613  -13.8098   20.5654 C   0  0  0  0  0  0
  -24.1851  -13.0390   20.9220 C   0  0  0  0  0  0
  -24.6401  -11.6873   20.8843 C   0  0  0  0  0  0
  -23.9076  -10.4248   21.0475 C   0  0  0  0  0  0
  -24.3590   -9.4141   21.9246 C   0  0  0  0  0  0
  -23.6260   -8.2184   22.0788 C   0  0  0  0  0  0
  -22.4265   -8.0251   21.3577 C   0  0  0  0  0  0
  -21.9916   -9.0235   20.4687 C   0  0  0  0  0  0
  -22.7246  -10.2114   20.3110 C   0  0  0  0  0  0
  -21.6830   -6.0734   22.5298 C   0  0  0  0  0  0
  -21.3986   -6.5629   23.8225 C   0  0  0  0  0  0
  -21.3656   -5.6793   24.9190 C   0  0  0  0  0  0
  -21.6050   -4.3055   24.7240 C   0  0  0  0  0  0
  -21.8817   -3.8147   23.4352 C   0  0  0  0  0  0
  -21.9179   -4.6970   22.3408 C   0  0  0  0  0  0
  -22.7874  -13.5214   21.1834 C   0  0  0  0  0  0
  -22.1661   -4.2144   21.0990 F   0  0  0  0  0  0
  -21.5642   -3.4541   25.7754 F   0  0  0  0  0  0
  -30.0272  -13.3301   20.4123 N   0  0  0  0  0  0
  -26.3023  -12.9198   20.3405 N   0  0  0  0  0  0
  -25.9331  -11.6418   20.5929 N   0  0  0  0  0  0
  -22.0508  -12.8240   22.0397 N   0  0  0  0  0  0
  -25.4274  -15.1765   20.3916 N   0  0  0  0  0  0
  -31.8831  -14.6263   20.1510 O   0  0  0  0  0  0
  -21.6635   -6.8850   21.4262 O   0  0  0  0  0  0
  -22.3556  -14.5509   20.6668 O   0  0  0  0  0  0
  -24.6166  -31.8691   23.2072 C   0  0  0  0  0  0
  -25.9047  -32.4834   23.8400 C   0  0  1  0  0  0
  -27.2090  -27.3955   20.1432 C   0  0  0  0  0  0
  -25.5896  -33.8631   24.2326 N   0  0  0  0  0  0
  -23.4098  -30.4993   21.5405 C   0  0  2  0  0  0
  -24.8542  -28.9675   20.1015 C   0  0  0  0  0  0
  -22.7457  -29.4712   22.4852 C   0  0  0  0  0  0
  -18.0362  -28.1389   22.8504 C   0  0  0  0  0  0
  -24.1475  -36.7337   23.2641 C   0  0  0  0  0  0
  -25.9411  -30.8312   21.3605 C   0  0  0  0  0  0
  -26.0163  -29.4636   20.7070 C   0  0  0  0  0  0
  -27.2030  -28.6871   20.7225 C   0  0  0  0  0  0
  -26.0408  -26.9345   19.4979 C   0  0  0  0  0  0
  -24.8652  -27.7081   19.4821 C   0  0  0  0  0  0
  -23.6201  -29.8381   20.1530 C   0  0  0  0  0  0
  -25.4102  -36.3141   24.0333 C   0  0  1  0  0  0
  -20.5942  -28.3765   23.1347 C   0  0  2  0  0  0
  -20.6869  -26.9468   22.5544 C   0  0  0  0  0  0
  -19.5855  -26.6366   21.5332 C   0  0  0  0  0  0
  -18.2024  -26.7928   22.1681 C   0  0  0  0  0  0
  -19.1574  -28.8882   23.2939 C   0  0  0  0  0  0
  -18.9464  -30.1474   23.8925 C   0  0  0  0  0  0
  -17.6467  -30.6586   24.0592 C   0  0  0  0  0  0
  -25.9041  -34.9500   23.5148 C   0  0  0  0  0  0
  -16.5393  -29.9068   23.6293 C   0  0  0  0  0  0
  -16.7360  -28.6510   23.0274 C   0  0  0  0  0  0
  -26.4437  -31.6614   25.0752 C   0  0  0  0  0  0
  -25.3706  -31.3749   26.1516 C   0  0  0  0  0  0
  -27.0296  -30.3050   24.6176 C   0  0  0  0  0  0
  -27.6002  -32.4337   25.7523 C   0  0  0  0  0  0
  -27.5576  -37.1829   24.8464 C   0  0  0  0  0  0
  -21.4158  -29.3154   22.3719 N   0  0  0  0  0  0
  -26.4299  -37.3816   23.9402 N   0  0  0  0  0  0
  -24.6753  -31.0812   22.0949 N   0  0  0  0  0  0
  -23.4252  -28.8179   23.2830 O   0  0  0  0  0  0
  -28.2924  -26.5493   20.2642 O   0  0  0  0  0  0
  -26.5602  -34.8959   22.4701 O   0  0  0  0  0  0
  -23.5348  -32.1417   23.7445 O   0  0  0  0  0  0
  -30.7225  -19.9613   21.0415 C   0  0  0  0  0  0
  -28.3464  -19.9931   21.5290 C   0  0  0  0  0  0
  -30.6175  -18.6206   20.6052 C   0  0  0  0  0  0
  -28.2373  -18.6560   21.0783 C   0  0  0  0  0  0
  -29.5918  -20.6641   21.5114 C   0  0  0  0  0  0
  -29.3704  -17.9544   20.5970 C   0  0  0  0  0  0
  -29.0773  -24.2916   21.0824 C   0  0  0  0  0  0
  -27.6105  -15.7867   17.1226 C   0  0  0  0  0  0
  -27.8738  -18.2191   17.7463 C   0  0  0  0  0  0
  -29.7739  -22.0785   22.0811 C   0  0  0  0  0  0
  -27.9666  -25.3736   21.0630 C   0  0  0  0  0  0
  -29.6622  -16.4773   18.5298 C   0  0  0  0  0  0
  -29.2596  -16.5157   20.0490 C   0  0  2  0  0  0
  -28.6143  -16.9034   17.4625 C   0  0  0  0  0  0
  -28.8001  -23.1169   21.6991 N   0  0  0  0  0  0
  -30.0264  -15.5859   20.9157 N   0  0  0  0  0  0
  -30.1810  -24.5338   20.5862 O   0  0  0  0  0  0
  -31.4653  -12.4004   19.1183 H   0  0  0  0  0  0
  -30.3613  -11.3094   19.9095 H   0  0  0  0  0  0
  -29.7404  -11.6452   17.4893 H   0  0  0  0  0  0
  -29.6611  -13.3589   17.7234 H   0  0  0  0  0  0
  -27.8315  -11.2391   18.8920 H   0  0  0  0  0  0
  -27.3648  -12.5169   17.8054 H   0  0  0  0  0  0
  -27.6865  -14.2029   19.5140 H   0  0  0  0  0  0
  -28.6991  -12.0364   21.4082 H   0  0  0  0  0  0
  -28.4723  -13.7105   21.8246 H   0  0  0  0  0  0
  -25.2710   -9.5608   22.4836 H   0  0  0  0  0  0
  -23.9988   -7.4544   22.7446 H   0  0  0  0  0  0
  -21.0881   -8.8721   19.8944 H   0  0  0  0  0  0
  -22.3689  -10.9663   19.6219 H   0  0  0  0  0  0
  -21.1963   -7.6125   23.9717 H   0  0  0  0  0  0
  -21.1510   -6.0533   25.9097 H   0  0  0  0  0  0
  -22.0605   -2.7605   23.2859 H   0  0  0  0  0  0
  -22.4154  -11.9912   22.4785 H   0  0  0  0  0  0
  -21.1137  -13.1308   22.2625 H   0  0  0  0  0  0
  -24.6402  -15.8100   20.4640 H   0  0  0  0  0  0
  -26.2600  -15.6113   20.0220 H   0  0  0  0  0  0
  -26.7131  -32.5525   23.1181 H   0  0  0  0  0  0
  -25.0006  -33.9795   25.0443 H   0  0  0  0  0  0
  -22.7000  -31.3156   21.3993 H   0  0  0  0  0  0
  -23.3740  -35.9669   23.3328 H   0  0  0  0  0  0
  -24.3574  -36.8930   22.2057 H   0  0  0  0  0  0
  -23.7219  -37.6550   23.6638 H   0  0  0  0  0  0
  -26.0623  -31.5963   20.5923 H   0  0  0  0  0  0
  -26.8252  -30.8850   21.9825 H   0  0  0  0  0  0
  -28.0875  -29.0471   21.2263 H   0  0  0  0  0  0
  -26.0202  -25.9572   19.0378 H   0  0  0  0  0  0
  -23.9785  -27.3260   18.9973 H   0  0  0  0  0  0
  -23.7262  -30.6103   19.3906 H   0  0  0  0  0  0
  -22.7412  -29.2617   19.8581 H   0  0  0  0  0  0
  -25.1278  -36.2032   25.0824 H   0  0  0  0  0  0
  -21.0077  -28.3439   24.1463 H   0  0  0  0  0  0
  -21.6731  -26.7482   22.1343 H   0  0  0  0  0  0
  -20.5732  -26.2404   23.3809 H   0  0  0  0  0  0
  -19.6828  -27.3138   20.6832 H   0  0  0  0  0  0
  -19.7076  -25.6269   21.1453 H   0  0  0  0  0  0
  -17.4348  -26.6674   21.4040 H   0  0  0  0  0  0
  -18.0371  -26.0097   22.9145 H   0  0  0  0  0  0
  -19.7911  -30.7335   24.2295 H   0  0  0  0  0  0
  -17.5015  -31.6210   24.5265 H   0  0  0  0  0  0
  -15.5411  -30.2971   23.7524 H   0  0  0  0  0  0
  -15.8811  -28.0815   22.6932 H   0  0  0  0  0  0
  -24.5813  -30.7166   25.7870 H   0  0  0  0  0  0
  -24.8987  -32.2939   26.5020 H   0  0  0  0  0  0
  -25.8064  -30.8881   27.0242 H   0  0  0  0  0  0
  -26.2892  -29.6787   24.1191 H   0  0  0  0  0  0
  -27.4012  -29.7317   25.4673 H   0  0  0  0  0  0
  -27.8730  -30.4366   23.9390 H   0  0  0  0  0  0
  -27.2596  -33.3567   26.2192 H   0  0  0  0  0  0
  -28.3771  -32.6985   25.0359 H   0  0  0  0  0  0
  -28.0704  -31.8419   26.5381 H   0  0  0  0  0  0
  -28.2618  -38.0096   24.7497 H   0  0  0  0  0  0
  -28.1044  -36.2646   24.6304 H   0  0  0  0  0  0
  -27.2311  -37.1490   25.8868 H   0  0  0  0  0  0
  -20.9221  -29.9018   21.7114 H   0  0  0  0  0  0
  -26.0205  -38.2905   24.1387 H   0  0  0  0  0  0
  -31.6891  -20.4434   21.0353 H   0  0  0  0  0  0
  -27.4704  -20.4933   21.9191 H   0  0  0  0  0  0
  -31.5029  -18.1076   20.2575 H   0  0  0  0  0  0
  -27.2704  -18.1660   21.1125 H   0  0  0  0  0  0
  -26.9204  -15.5861   17.9429 H   0  0  0  0  0  0
  -28.1141  -14.8588   16.8613 H   0  0  0  0  0  0
  -27.0068  -16.0519   16.2567 H   0  0  0  0  0  0
  -27.1922  -18.1251   18.5907 H   0  0  0  0  0  0
  -27.2722  -18.5212   16.8879 H   0  0  0  0  0  0
  -28.5654  -19.0304   17.9692 H   0  0  0  0  0  0
  -30.7880  -22.4125   21.8601 H   0  0  0  0  0  0
  -29.7405  -21.9846   23.1702 H   0  0  0  0  0  0
  -27.7817  -25.6896   22.0930 H   0  0  0  0  0  0
  -27.0531  -24.8815   20.7243 H   0  0  0  0  0  0
  -29.9598  -15.4782   18.2254 H   0  0  0  0  0  0
  -30.5638  -17.0750   18.3848 H   0  0  0  0  0  0
  -28.2196  -16.2135   20.1435 H   0  0  0  0  0  0
  -29.1908  -17.0730   16.5491 H   0  0  0  0  0  0
  -27.8835  -23.0343   22.1197 H   0  0  0  0  0  0
  -30.6163  -16.1498   21.5087 H   0  0  0  0  0  0
  1 25  1  0  0  0
  1 30  2  0  0  0
  1 86  1  0  0  0
  2  3  1  0  0  0
  2 25  1  0  0  0
  2 88  1  0  0  0
  2 89  1  0  0  0
  3  4  1  0  0  0
  3 90  1  0  0  0
  3 91  1  0  0  0
  4  5  1  0  0  0
  4 92  1  0  0  0
  4 93  1  0  0  0
  5  6  1  0  0  0
  5 26  1  0  0  0
  5 94  1  0  0  0
  6 25  1  0  0  0
  6 95  1  0  0  0
  6 96  1  0  0  0
  7  8  2  0  0  0
  7 26  1  0  0  0
  7 29  1  0  0  0
  8  9  1  0  0  0
  8 22  1  0  0  0
  9 10  1  0  0  0
  9 27  2  0  0  0
 10 11  2  0  0  0
 10 15  1  0  0  0
 11 12  1  0  0  0
 11 97  1  0  0  0
 12 13  2  0  0  0
 12 98  1  0  0  0
 13 14  1  0  0  0
 13 31  1  0  0  0
 14 15  2  0  0  0
 14 99  1  0  0  0
 15100  1  0  0  0
 16 17  2  0  0  0
 16 21  1  0  0  0
 16 31  1  0  0  0
 17 18  1  0  0  0
 17101  1  0  0  0
 18 19  2  0  0  0
 18102  1  0  0  0
 19 20  1  0  0  0
 19 24  1  0  0  0
 20 21  2  0  0  0
 20103  1  0  0  0
 21 23  1  0  0  0
 22 28  1  0  0  0
 22 32  2  0  0  0
 26 27  1  0  0  0
 28104  1  0  0  0
 28105  1  0  0  0
 29106  1  0  0  0
 29107  1  0  0  0
 33 34  1  0  0  0
 33 66  1  0  0  0
 33 70  2  0  0  0
 34 36  1  0  0  0
 34 59  1  0  0  0
 34108  1  0  0  0
 35 44  2  0  0  0
 35 45  1  0  0  0
 35 68  1  0  0  0
 36 56  1  0  0  0
 36109  1  0  0  0
 37 39  1  0  0  0
 37 47  1  0  0  0
 37 66  1  0  0  0
 37110  1  0  0  0
 38 43  2  0  0  0
 38 46  1  0  0  0
 38 47  1  0  0  0
 39 64  1  0  0  0
 39 67  2  0  0  0
 40 52  1  0  0  0
 40 53  2  0  0  0
 40 58  1  0  0  0
 41111  1  0  0  0
 41112  1  0  0  0
 41113  1  0  0  0
 41 48  1  0  0  0
 42 43  1  0  0  0
 42 66  1  0  0  0
 42114  1  0  0  0
 42115  1  0  0  0
 43 44  1  0  0  0
 44116  1  0  0  0
 45 46  2  0  0  0
 45117  1  0  0  0
 46118  1  0  0  0
 47119  1  0  0  0
 47120  1  0  0  0
 48 56  1  0  0  0
 48 65  1  0  0  0
 48121  1  0  0  0
 49 50  1  0  0  0
 49 53  1  0  0  0
 49 64  1  0  0  0
 49122  1  0  0  0
 50 51  1  0  0  0
 50123  1  0  0  0
 50124  1  0  0  0
 51 52  1  0  0  0
 51125  1  0  0  0
 51126  1  0  0  0
 52127  1  0  0  0
 52128  1  0  0  0
 53 54  1  0  0  0
 54 55  2  0  0  0
 54129  1  0  0  0
 55 57  1  0  0  0
 55130  1  0  0  0
 56 69  2  0  0  0
 57 58  2  0  0  0
 57131  1  0  0  0
 58132  1  0  0  0
 59 60  1  0  0  0
 59 61  1  0  0  0
 59 62  1  0  0  0
 60133  1  0  0  0
 60134  1  0  0  0
 60135  1  0  0  0
 61136  1  0  0  0
 61137  1  0  0  0
 61138  1  0  0  0
 62139  1  0  0  0
 62140  1  0  0  0
 62141  1  0  0  0
 63 65  1  0  0  0
 63142  1  0  0  0
 63143  1  0  0  0
 63144  1  0  0  0
 64145  1  0  0  0
 65146  1  0  0  0
 68 81  1  0  0  0
 71 73  2  0  0  0
 71 75  1  0  0  0
 71147  1  0  0  0
 72 74  1  0  0  0
 72 75  2  0  0  0
 72148  1  0  0  0
 73 76  1  0  0  0
 73149  1  0  0  0
 74 76  2  0  0  0
 74150  1  0  0  0
 75 80  1  0  0  0
 76 83  1  0  0  0
 77 81  1  0  0  0
 77 85  1  0  0  0
 77 87  2  0  0  0
 78151  1  0  0  0
 78152  1  0  0  0
 78153  1  0  0  0
 78 84  1  0  0  0
 79 84  1  0  0  0
 79154  1  0  0  0
 79155  1  0  0  0
 79156  1  0  0  0
 80 85  1  0  0  0
 80157  1  0  0  0
 80158  1  0  0  0
 81159  1  0  0  0
 81160  1  0  0  0
 82 84  1  0  0  0
 82161  1  0  0  0
 82162  1  0  0  0
 82 83  1  0  0  0
 83 86  1  0  0  0
 83163  1  0  0  0
 84164  1  0  0  0
 85165  1  0  0  0
 86166  1  0  0  0
M  ISO  4   1 100  68 101  81 101  86 100
M  END
> <chiral flag>
0

> <version>
0

> <s_m_source_file>
/data/baiqing/PycharmProjects/Reinvent-master-3.2/result/LINK_invent/BTK/process_docking_weight1_custom_product_contain_oxygen_bond_distance_aromatic_linkinvent_7_9_3/rearranged_h_0002.sdf

> <i_m_source_file_index>
49

> <r_mmod_Potential_Energy-OPLS-2005>
-16.3446063995361

> <r_mmod_Stretch_Energy-OPLS-2005>
45.5846138000488

> <r_mmod_Bend_Energy-OPLS-2005>
120.15372467041

> <r_mmod_Torsional_Energy-OPLS-2005>
302.140045166016

> <r_mmod_Improper_Torsional_Energy-OPLS-2005>
9.26973533630371

> <r_mmod_Van_der_Waal_Energy-OPLS-2005>
137.819427490234

> <r_mmod_Electrostatic_Energy-OPLS-2005>
-432.170501708984

> <r_mmod_Solvation_Energy-OPLS-2005>
-232.167709350586

> <b_mmod_Minimization_Converged-OPLS-2005>
0

> <r_mmod_RMS_Derivative-OPLS-2005>
6.38384628295898

$$$$
49
                    3D
 Structure written by MMmdl.
151159  0  0  1  0            999 V2000
  -27.4457  -17.2131   20.9644 C   0  0  0  0  0  0
  -29.3807  -14.8035   19.7798 C   0  0  0  0  0  0
  -29.3267  -13.4774   18.7564 C   0  0  0  0  0  0
  -28.2212  -12.4833   19.1006 C   0  0  0  0  0  0
  -27.3140  -13.3786   19.9176 C   0  0  2  0  0  0
  -27.8795  -14.1859   21.1256 C   0  0  0  0  0  0
  -25.0444  -13.8013   20.5555 C   0  0  0  0  0  0
  -24.0454  -12.9993   20.9498 C   0  0  0  0  0  0
  -24.5532  -11.6650   20.8952 C   0  0  0  0  0  0
  -23.8578  -10.4034   21.0490 C   0  0  0  0  0  0
  -24.3335   -9.4069   21.9230 C   0  0  0  0  0  0
  -23.6148   -8.2057   22.0754 C   0  0  0  0  0  0
  -22.4153   -8.0058   21.3514 C   0  0  0  0  0  0
  -21.9669   -8.9945   20.4603 C   0  0  0  0  0  0
  -22.6852  -10.1863   20.3047 C   0  0  0  0  0  0
  -21.6800   -6.0615   22.5304 C   0  0  0  0  0  0
  -21.3949   -6.5573   23.8208 C   0  0  0  0  0  0
  -21.3629   -5.6761   24.9190 C   0  0  0  0  0  0
  -21.6061   -4.3031   24.7277 C   0  0  0  0  0  0
  -21.8835   -3.8084   23.4416 C   0  0  0  0  0  0
  -21.9185   -4.6862   22.3448 C   0  0  0  0  0  0
  -22.6667  -13.4748   21.2199 C   0  0  0  0  0  0
  -22.1677   -4.2068   21.1018 F   0  0  0  0  0  0
  -21.5651   -3.4530   25.7793 F   0  0  0  0  0  0
  -28.0410  -15.5980   20.5777 N   0  0  0  0  0  0
  -26.0746  -12.9321   20.3061 N   0  0  0  0  0  0
  -25.8358  -11.6430   20.5764 N   0  0  0  0  0  0
  -21.9503  -12.7803   22.0867 N   0  0  0  0  0  0
  -25.1360  -15.1833   20.3695 N   0  0  0  0  0  0
  -28.7930  -17.2990   20.8472 O   0  0  0  0  0  0
  -21.6542   -6.8687   21.4247 O   0  0  0  0  0  0
  -22.2481  -14.5089   20.6993 O   0  0  0  0  0  0
  -24.6060  -31.9309   23.2409 C   0  0  0  0  0  0
  -25.9089  -32.5099   23.8698 C   0  0  1  0  0  0
  -26.9723  -27.6154   19.9176 C   0  0  0  0  0  0
  -25.6036  -33.8869   24.2654 N   0  0  0  0  0  0
  -23.4064  -30.5849   21.5496 C   0  0  2  0  0  0
  -24.9532  -29.4263   19.7672 C   0  0  0  0  0  0
  -22.8947  -29.4966   22.5432 C   0  0  0  0  0  0
  -19.3133  -26.0076   22.9444 C   0  0  0  0  0  0
  -24.1507  -36.7358   23.2594 C   0  0  0  0  0  0
  -25.9548  -30.9424   21.4322 C   0  0  0  0  0  0
  -26.0299  -29.6959   20.6056 C   0  0  0  0  0  0
  -27.1204  -28.8058   20.6521 C   0  0  0  0  0  0
  -26.1507  -27.5212   18.8095 C   0  0  0  0  0  0
  -25.0883  -28.4356   18.7626 C   0  0  0  0  0  0
  -23.6437  -30.1506   20.0562 C   0  0  0  0  0  0
  -25.4105  -36.3192   24.0332 C   0  0  1  0  0  0
  -21.3306  -27.7243   23.2549 C   0  0  2  0  0  0
  -22.3971  -26.4279   22.9500 C   0  0  0  0  0  0
  -22.7728  -25.1495   21.5760 C   0  0  0  0  0  0
  -21.5469  -24.4605   20.6621 C   0  0  0  0  0  0
  -19.8096  -27.4631   23.4325 C   0  0  0  0  0  0
  -19.2527  -28.8142   23.8610 C   0  0  0  0  0  0
  -17.9269  -29.2372   23.7898 C   0  0  0  0  0  0
  -25.9037  -34.9599   23.5230 C   0  0  0  0  0  0
  -17.2417  -28.1611   23.1983 C   0  0  0  0  0  0
  -17.8862  -26.8111   22.7933 C   0  0  0  0  0  0
  -26.4441  -31.6671   25.0922 C   0  0  0  0  0  0
  -25.3719  -31.3678   26.1647 C   0  0  0  0  0  0
  -27.0357  -30.3147   24.6260 C   0  0  0  0  0  0
  -27.6026  -32.4299   25.7736 C   0  0  0  0  0  0
  -27.5614  -37.1825   24.8449 C   0  0  0  0  0  0
  -21.6488  -29.0038   22.5232 N   0  0  0  0  0  0
  -26.4289  -37.3843   23.9448 N   0  0  0  0  0  0
  -24.6581  -31.1883   22.1039 N   0  0  0  0  0  0
  -23.6745  -29.0807   23.3945 O   0  0  0  0  0  0
  -26.4917  -26.6462   20.6705 O   0  0  0  0  0  0
  -26.5451  -34.8969   22.4706 O   0  0  0  0  0  0
  -23.5279  -32.1915   23.7946 O   0  0  0  0  0  0
  -19.3085  -23.5878   21.0807 C   0  0  0  0  0  0
  -20.4072  -22.4394   21.6270 C   0  0  0  0  0  0
  -19.3546  -25.1951   20.6697 C   0  0  0  0  0  0
  -20.9979  -24.2373   22.7282 C   0  0  0  0  0  0
  -21.9544  -22.4452   22.1592 C   0  0  0  0  0  0
  -20.5869  -26.1806   21.2712 C   0  0  0  0  0  0
  -25.0181  -26.7078   21.2830 C   0  0  0  0  0  0
  -24.1448  -20.6699   21.8226 C   0  0  0  0  0  0
  -21.9091  -27.1508   20.4233 C   0  0  0  0  0  0
  -25.7742  -18.5794   21.3192 N   0  0  0  0  0  0
  -23.6725  -27.2308   20.5569 N   0  0  0  0  0  0
  -25.1274  -26.1391   22.3737 O   0  0  0  0  0  0
  -29.7900  -15.5802   19.1259 H   0  0  0  0  0  0
  -30.1998  -14.6734   20.4930 H   0  0  0  0  0  0
  -30.2961  -12.9707   18.7084 H   0  0  0  0  0  0
  -29.1520  -13.8370   17.7396 H   0  0  0  0  0  0
  -28.6078  -11.6600   19.7022 H   0  0  0  0  0  0
  -27.7187  -12.0677   18.2242 H   0  0  0  0  0  0
  -27.0220  -14.0802   19.1270 H   0  0  0  0  0  0
  -28.7197  -13.6976   21.6278 H   0  0  0  0  0  0
  -27.1694  -14.3108   21.9450 H   0  0  0  0  0  0
  -25.2428   -9.5744   22.4828 H   0  0  0  0  0  0
  -23.9913   -7.4514   22.7517 H   0  0  0  0  0  0
  -21.0582   -8.8383   19.8960 H   0  0  0  0  0  0
  -22.3207  -10.9404   19.6210 H   0  0  0  0  0  0
  -21.1886   -7.6072   23.9699 H   0  0  0  0  0  0
  -21.1422   -6.0481   25.9085 H   0  0  0  0  0  0
  -22.0625   -2.7554   23.2928 H   0  0  0  0  0  0
  -22.3124  -11.9427   22.5190 H   0  0  0  0  0  0
  -21.0210  -13.0954   22.3219 H   0  0  0  0  0  0
  -24.2467  -15.6748   20.3245 H   0  0  0  0  0  0
  -25.8139  -15.5258   19.7004 H   0  0  0  0  0  0
  -26.7296  -32.5879   23.1583 H   0  0  0  0  0  0
  -25.0395  -34.0077   25.0959 H   0  0  0  0  0  0
  -22.6463  -31.3687   21.5269 H   0  0  0  0  0  0
  -23.3783  -35.9662   23.3169 H   0  0  0  0  0  0
  -24.3631  -36.8982   22.2013 H   0  0  0  0  0  0
  -23.7291  -37.6563   23.6662 H   0  0  0  0  0  0
  -26.1952  -31.7903   20.7832 H   0  0  0  0  0  0
  -26.7831  -30.8429   22.1178 H   0  0  0  0  0  0
  -27.8688  -28.8894   21.4305 H   0  0  0  0  0  0
  -26.0998  -26.6249   18.2009 H   0  0  0  0  0  0
  -24.2830  -28.2833   18.0616 H   0  0  0  0  0  0
  -23.7044  -31.0658   19.4628 H   0  0  0  0  0  0
  -22.7781  -29.6554   19.6287 H   0  0  0  0  0  0
  -25.1271  -36.1988   25.0799 H   0  0  0  0  0  0
  -21.5981  -27.9626   24.2898 H   0  0  0  0  0  0
  -22.4905  -25.9145   23.9056 H   0  0  0  0  0  0
  -23.2970  -26.9193   23.1936 H   0  0  0  0  0  0
  -23.3291  -24.4063   22.1487 H   0  0  0  0  0  0
  -23.5081  -25.0179   20.7798 H   0  0  0  0  0  0
  -21.5755  -24.8707   19.6355 H   0  0  0  0  0  0
  -21.6601  -23.5114   20.1309 H   0  0  0  0  0  0
  -19.9462  -29.5760   24.1887 H   0  0  0  0  0  0
  -17.5361  -30.2048   24.0745 H   0  0  0  0  0  0
  -16.2011  -28.3146   22.9510 H   0  0  0  0  0  0
  -17.1858  -26.2540   22.1819 H   0  0  0  0  0  0
  -24.5855  -30.7079   25.7897 H   0  0  0  0  0  0
  -24.9090  -32.2895   26.5215 H   0  0  0  0  0  0
  -25.8033  -30.8739   27.0390 H   0  0  0  0  0  0
  -26.3066  -29.6921   24.1107 H   0  0  0  0  0  0
  -27.4002  -29.7189   25.4627 H   0  0  0  0  0  0
  -27.8913  -30.4457   23.9639 H   0  0  0  0  0  0
  -27.2647  -33.3549   26.2420 H   0  0  0  0  0  0
  -28.3891  -32.6856   25.0623 H   0  0  0  0  0  0
  -28.0720  -31.8400   26.5619 H   0  0  0  0  0  0
  -28.2472  -38.0256   24.7682 H   0  0  0  0  0  0
  -28.1240  -36.2803   24.6035 H   0  0  0  0  0  0
  -27.2394  -37.1226   25.8847 H   0  0  0  0  0  0
  -20.9767  -29.3498   21.8513 H   0  0  0  0  0  0
  -26.0101  -38.2847   24.1574 H   0  0  0  0  0  0
  -18.3812  -23.1347   20.7519 H   0  0  0  0  0  0
  -20.0481  -21.4398   21.4209 H   0  0  0  0  0  0
  -18.6067  -25.6112   20.0061 H   0  0  0  0  0  0
  -21.3226  -24.4328   23.7385 H   0  0  0  0  0  0
  -24.6966  -21.0137   22.7456 H   0  0  0  0  0  0
  -24.5708  -21.2717   20.9673 H   0  0  0  0  0  0
  -21.5092  -28.1473   20.3311 H   0  0  0  0  0  0
  -21.8133  -26.8938   19.3700 H   0  0  0  0  0  0
  -25.0662  -17.8564   21.2430 H   0  0  0  0  0  0
  -23.9906  -27.8468   19.8149 H   0  0  0  0  0  0
  1 25  1  0  0  0
  1 30  2  0  0  0
  1 80  1  0  0  0
  2  3  1  0  0  0
  2 25  1  0  0  0
  2 83  1  0  0  0
  2 84  1  0  0  0
  3  4  1  0  0  0
  3 85  1  0  0  0
  3 86  1  0  0  0
  4  5  1  0  0  0
  4 87  1  0  0  0
  4 88  1  0  0  0
  5  6  1  0  0  0
  5 26  1  0  0  0
  5 89  1  0  0  0
  6 25  1  0  0  0
  6 90  1  0  0  0
  6 91  1  0  0  0
  7  8  2  0  0  0
  7 26  1  0  0  0
  7 29  1  0  0  0
  8  9  1  0  0  0
  8 22  1  0  0  0
  9 10  1  0  0  0
  9 27  2  0  0  0
 10 11  2  0  0  0
 10 15  1  0  0  0
 11 12  1  0  0  0
 11 92  1  0  0  0
 12 13  2  0  0  0
 12 93  1  0  0  0
 13 14  1  0  0  0
 13 31  1  0  0  0
 14 15  2  0  0  0
 14 94  1  0  0  0
 15 95  1  0  0  0
 16 17  2  0  0  0
 16 21  1  0  0  0
 16 31  1  0  0  0
 17 18  1  0  0  0
 17 96  1  0  0  0
 18 19  2  0  0  0
 18 97  1  0  0  0
 19 20  1  0  0  0
 19 24  1  0  0  0
 20 21  2  0  0  0
 20 98  1  0  0  0
 21 23  1  0  0  0
 22 28  1  0  0  0
 22 32  2  0  0  0
 26 27  1  0  0  0
 28 99  1  0  0  0
 28100  1  0  0  0
 29101  1  0  0  0
 29102  1  0  0  0
 33 34  1  0  0  0
 33 66  1  0  0  0
 33 70  2  0  0  0
 34 36  1  0  0  0
 34 59  1  0  0  0
 34103  1  0  0  0
 35 44  2  0  0  0
 35 45  1  0  0  0
 35 68  1  0  0  0
 36 56  1  0  0  0
 36104  1  0  0  0
 37 39  1  0  0  0
 37 47  1  0  0  0
 37 66  1  0  0  0
 37105  1  0  0  0
 38 43  2  0  0  0
 38 46  1  0  0  0
 38 47  1  0  0  0
 39 64  1  0  0  0
 39 67  2  0  0  0
 40 52  1  0  0  0
 40 53  2  0  0  0
 40 58  1  0  0  0
 41106  1  0  0  0
 41107  1  0  0  0
 41108  1  0  0  0
 41 48  1  0  0  0
 42 43  1  0  0  0
 42 66  1  0  0  0
 42109  1  0  0  0
 42110  1  0  0  0
 43 44  1  0  0  0
 44111  1  0  0  0
 45 46  2  0  0  0
 45112  1  0  0  0
 46113  1  0  0  0
 47114  1  0  0  0
 47115  1  0  0  0
 48 56  1  0  0  0
 48 65  1  0  0  0
 48116  1  0  0  0
 49 50  1  0  0  0
 49 53  1  0  0  0
 49 64  1  0  0  0
 49117  1  0  0  0
 50 51  1  0  0  0
 50118  1  0  0  0
 50119  1  0  0  0
 51 52  1  0  0  0
 51120  1  0  0  0
 51121  1  0  0  0
 52122  1  0  0  0
 52123  1  0  0  0
 53 54  1  0  0  0
 54 55  2  0  0  0
 54124  1  0  0  0
 55 57  1  0  0  0
 55125  1  0  0  0
 56 69  2  0  0  0
 57 58  2  0  0  0
 57126  1  0  0  0
 58127  1  0  0  0
 59 60  1  0  0  0
 59 61  1  0  0  0
 59 62  1  0  0  0
 60128  1  0  0  0
 60129  1  0  0  0
 60130  1  0  0  0
 61131  1  0  0  0
 61132  1  0  0  0
 61133  1  0  0  0
 62134  1  0  0  0
 62135  1  0  0  0
 62136  1  0  0  0
 63 65  1  0  0  0
 63137  1  0  0  0
 63138  1  0  0  0
 63139  1  0  0  0
 64140  1  0  0  0
 65141  1  0  0  0
 68 77  1  0  0  0
 71 72  2  0  0  0
 71 73  1  0  0  0
 71142  1  0  0  0
 72 75  1  0  0  0
 72143  1  0  0  0
 73 76  2  0  0  0
 73144  1  0  0  0
 74 75  2  0  0  0
 74 76  1  0  0  0
 74145  1  0  0  0
 75 78  1  0  0  0
 76 79  1  0  0  0
 77 81  1  0  0  0
 77 82  2  0  0  0
 78 80  1  0  0  0
 78146  1  0  0  0
 78147  1  0  0  0
 79 81  1  0  0  0
 79148  1  0  0  0
 79149  1  0  0  0
 80150  1  0  0  0
 81151  1  0  0  0
M  ISO  4   1 100  68 101  77 101  80 100
M  END
> <chiral flag>
0

> <version>
0

> <s_m_source_file>
/data/baiqing/PycharmProjects/Reinvent-master-3.2/result/LINK_invent/BTK/process_docking_weight1_custom_product_contain_oxygen_bond_distance_aromatic_linkinvent_7_9_3/rearranged_h_0002.sdf

> <i_m_source_file_index>
50

> <r_mmod_Potential_Energy-OPLS-2005>
35354.56640625

> <r_mmod_Stretch_Energy-OPLS-2005>
16907.22265625

> <r_mmod_Bend_Energy-OPLS-2005>
2639.40112304688

> <r_mmod_Torsional_Energy-OPLS-2005>
773.207641601562

> <r_mmod_Improper_Torsional_Energy-OPLS-2005>
93.5215835571289

> <r_mmod_Van_der_Waal_Energy-OPLS-2005>
3432.53002929688

> <r_mmod_Electrostatic_Energy-OPLS-2005>
-422.623229980469

> <r_mmod_Solvation_Energy-OPLS-2005>
-243.228393554688

> <b_mmod_Minimization_Converged-OPLS-2005>
0

> <r_mmod_RMS_Derivative-OPLS-2005>
28.7272644042969

$$$$
50
                    3D
 Structure written by MMmdl.
151159  0  0  1  0            999 V2000
  -30.5477  -15.0342   20.4279 C   0  0  0  0  0  0
  -30.4277  -12.6569   19.4901 C   0  0  0  0  0  0
  -29.5171  -12.5316   18.2496 C   0  0  0  0  0  0
  -28.0514  -12.3158   18.6672 C   0  0  0  0  0  0
  -27.6140  -13.2618   19.8169 C   0  0  2  0  0  0
  -28.6572  -13.3523   20.9474 C   0  0  0  0  0  0
  -25.2388  -13.8246   20.5696 C   0  0  0  0  0  0
  -24.1736  -13.0443   20.9241 C   0  0  0  0  0  0
  -24.6374  -11.6929   20.8753 C   0  0  0  0  0  0
  -23.9068  -10.4297   21.0407 C   0  0  0  0  0  0
  -24.3619   -9.4204   21.9169 C   0  0  0  0  0  0
  -23.6307   -8.2230   22.0733 C   0  0  0  0  0  0
  -22.4288   -8.0282   21.3534 C   0  0  0  0  0  0
  -21.9923   -9.0255   20.4635 C   0  0  0  0  0  0
  -22.7248  -10.2129   20.3051 C   0  0  0  0  0  0
  -21.6871   -6.0747   22.5283 C   0  0  0  0  0  0
  -21.4019   -6.5640   23.8221 C   0  0  0  0  0  0
  -21.3652   -5.6784   24.9180 C   0  0  0  0  0  0
  -21.6042   -4.3050   24.7225 C   0  0  0  0  0  0
  -21.8819   -3.8146   23.4344 C   0  0  0  0  0  0
  -21.9183   -4.6968   22.3402 C   0  0  0  0  0  0
  -22.7744  -13.5201   21.1898 C   0  0  0  0  0  0
  -22.1659   -4.2148   21.0983 F   0  0  0  0  0  0
  -21.5622   -3.4530   25.7734 F   0  0  0  0  0  0
  -29.9111  -13.7887   20.3217 N   0  0  0  0  0  0
  -26.2806  -12.9491   20.3158 N   0  0  0  0  0  0
  -25.9308  -11.6609   20.5700 N   0  0  0  0  0  0
  -22.0384  -12.8204   22.0451 N   0  0  0  0  0  0
  -25.4005  -15.1978   20.4095 N   0  0  0  0  0  0
  -31.7665  -15.0181   20.2180 O   0  0  0  0  0  0
  -21.6649   -6.8886   21.4246 O   0  0  0  0  0  0
  -22.3409  -14.5497   20.6739 O   0  0  0  0  0  0
  -24.6526  -31.8379   23.1786 C   0  0  0  0  0  0
  -25.9256  -32.4662   23.8219 C   0  0  1  0  0  0
  -27.2235  -27.0639   20.1713 C   0  0  0  0  0  0
  -25.5975  -33.8474   24.2137 N   0  0  0  0  0  0
  -23.4589  -30.4527   21.5247 C   0  0  2  0  0  0
  -24.9081  -28.8603   20.1125 C   0  0  0  0  0  0
  -22.7610  -29.4508   22.4805 C   0  0  0  0  0  0
  -18.0316  -28.1411   22.8464 C   0  0  0  0  0  0
  -24.1472  -36.7249   23.2635 C   0  0  0  0  0  0
  -26.0176  -30.6889   21.3857 C   0  0  0  0  0  0
  -26.0880  -29.2905   20.7330 C   0  0  0  0  0  0
  -27.2458  -28.4139   20.7362 C   0  0  0  0  0  0
  -26.0202  -26.7525   19.5051 C   0  0  0  0  0  0
  -24.8924  -27.6068   19.4784 C   0  0  0  0  0  0
  -23.6916  -29.7759   20.1474 C   0  0  0  0  0  0
  -25.4102  -36.3017   24.0307 C   0  0  1  0  0  0
  -20.5925  -28.3746   23.1212 C   0  0  2  0  0  0
  -20.6795  -26.9441   22.5404 C   0  0  0  0  0  0
  -19.5770  -26.6385   21.5213 C   0  0  0  0  0  0
  -18.1950  -26.7941   22.1623 C   0  0  0  0  0  0
  -19.1569  -28.8892   23.2824 C   0  0  0  0  0  0
  -18.9487  -30.1481   23.8864 C   0  0  0  0  0  0
  -17.6485  -30.6600   24.0559 C   0  0  0  0  0  0
  -25.9072  -34.9398   23.5032 C   0  0  0  0  0  0
  -16.5377  -29.9102   23.6329 C   0  0  0  0  0  0
  -16.7302  -28.6517   23.0356 C   0  0  0  0  0  0
  -26.4531  -31.6566   25.0708 C   0  0  0  0  0  0
  -25.3701  -31.3819   26.1404 C   0  0  0  0  0  0
  -27.0391  -30.2946   24.6338 C   0  0  0  0  0  0
  -27.6029  -32.4357   25.7529 C   0  0  0  0  0  0
  -27.5547  -37.1791   24.8458 C   0  0  0  0  0  0
  -21.4290  -29.3069   22.3576 N   0  0  0  0  0  0
  -26.4255  -37.3744   23.9401 N   0  0  0  0  0  0
  -24.7289  -31.0167   22.0833 N   0  0  0  0  0  0
  -23.4223  -28.8067   23.2990 O   0  0  0  0  0  0
  -28.2792  -26.0551   20.1808 O   0  0  0  0  0  0
  -26.5641  -34.8927   22.4607 O   0  0  0  0  0  0
  -23.5630  -32.1276   23.6967 O   0  0  0  0  0  0
  -31.4490  -19.3295   23.3093 C   0  0  0  0  0  0
  -31.5826  -17.9548   23.3932 C   0  0  0  0  0  0
  -30.6868  -19.8852   22.2768 C   0  0  0  0  0  0
  -30.9961  -17.1519   22.4156 C   0  0  0  0  0  0
  -30.0070  -19.1610   21.2481 C   0  0  0  0  0  0
  -30.2457  -17.6141   21.2876 C   0  0  0  0  0  0
  -29.2675  -20.2535   20.2914 C   0  0  0  0  0  0
  -28.8501  -23.0713   19.9402 C   0  0  0  0  0  0
  -28.0812  -24.5118   20.5364 C   0  0  0  0  0  0
  -29.8578  -16.3109   20.5278 N   0  0  0  0  0  0
  -29.0672  -21.6450   20.6734 N   0  0  0  0  0  0
  -28.9176  -19.8870   19.1705 O   0  0  0  0  0  0
  -31.4560  -12.8232   19.1663 H   0  0  0  0  0  0
  -30.4419  -11.7287   20.0633 H   0  0  0  0  0  0
  -29.8533  -11.7110   17.6119 H   0  0  0  0  0  0
  -29.5951  -13.4360   17.6450 H   0  0  0  0  0  0
  -27.9486  -11.2790   18.9870 H   0  0  0  0  0  0
  -27.3927  -12.4338   17.8055 H   0  0  0  0  0  0
  -27.5590  -14.2516   19.3610 H   0  0  0  0  0  0
  -28.7677  -12.3965   21.4614 H   0  0  0  0  0  0
  -28.3362  -14.0783   21.6963 H   0  0  0  0  0  0
  -25.2767   -9.5703   22.4732 H   0  0  0  0  0  0
  -24.0040   -7.4619   22.7447 H   0  0  0  0  0  0
  -21.0849   -8.8783   19.8942 H   0  0  0  0  0  0
  -22.3714  -10.9668   19.6157 H   0  0  0  0  0  0
  -21.2040   -7.6150   23.9743 H   0  0  0  0  0  0
  -21.1470   -6.0503   25.9084 H   0  0  0  0  0  0
  -22.0604   -2.7609   23.2843 H   0  0  0  0  0  0
  -22.4015  -11.9920   22.4939 H   0  0  0  0  0  0
  -21.0966  -13.1182   22.2593 H   0  0  0  0  0  0
  -24.6293  -15.8481   20.5191 H   0  0  0  0  0  0
  -26.2423  -15.6380   20.0605 H   0  0  0  0  0  0
  -26.7331  -32.5234   23.0955 H   0  0  0  0  0  0
  -25.0202  -33.9562   25.0342 H   0  0  0  0  0  0
  -22.7645  -31.2793   21.3623 H   0  0  0  0  0  0
  -23.3736  -35.9583   23.3298 H   0  0  0  0  0  0
  -24.3556  -36.8894   22.2051 H   0  0  0  0  0  0
  -23.7252  -37.6456   23.6674 H   0  0  0  0  0  0
  -26.1765  -31.4349   20.6060 H   0  0  0  0  0  0
  -26.8878  -30.7474   22.0279 H   0  0  0  0  0  0
  -28.1476  -28.7492   21.2272 H   0  0  0  0  0  0
  -25.9367  -25.7997   19.0013 H   0  0  0  0  0  0
  -23.9985  -27.2732   18.9683 H   0  0  0  0  0  0
  -23.8473  -30.5484   19.3929 H   0  0  0  0  0  0
  -22.8046  -29.2287   19.8238 H   0  0  0  0  0  0
  -25.1310  -36.1813   25.0804 H   0  0  0  0  0  0
  -21.0005  -28.3335   24.1338 H   0  0  0  0  0  0
  -20.5672  -26.2376   23.3637 H   0  0  0  0  0  0
  -21.6665  -26.7443   22.1210 H   0  0  0  0  0  0
  -19.6930  -25.6280   21.1284 H   0  0  0  0  0  0
  -19.6696  -27.3157   20.6701 H   0  0  0  0  0  0
  -17.4218  -26.6679   21.4022 H   0  0  0  0  0  0
  -18.0338  -26.0103   22.9039 H   0  0  0  0  0  0
  -19.7969  -30.7290   24.2224 H   0  0  0  0  0  0
  -17.5055  -31.6271   24.5188 H   0  0  0  0  0  0
  -15.5381  -30.3009   23.7657 H   0  0  0  0  0  0
  -15.8703  -28.0828   22.7102 H   0  0  0  0  0  0
  -24.5846  -30.7196   25.7736 H   0  0  0  0  0  0
  -24.8944  -32.3051   26.4732 H   0  0  0  0  0  0
  -25.7987  -30.9055   27.0237 H   0  0  0  0  0  0
  -26.3025  -29.6679   24.1295 H   0  0  0  0  0  0
  -27.3919  -29.7241   25.4943 H   0  0  0  0  0  0
  -27.8973  -30.4156   23.9728 H   0  0  0  0  0  0
  -27.2558  -33.3665   26.2028 H   0  0  0  0  0  0
  -28.3895  -32.6910   25.0415 H   0  0  0  0  0  0
  -28.0623  -31.8548   26.5535 H   0  0  0  0  0  0
  -28.2576  -38.0071   24.7482 H   0  0  0  0  0  0
  -28.1051  -36.2620   24.6318 H   0  0  0  0  0  0
  -27.2287  -37.1472   25.8869 H   0  0  0  0  0  0
  -20.9497  -29.8819   21.6780 H   0  0  0  0  0  0
  -26.0118  -38.2815   24.1407 H   0  0  0  0  0  0
  -31.9329  -19.9626   24.0400 H   0  0  0  0  0  0
  -32.1472  -17.5097   24.2022 H   0  0  0  0  0  0
  -30.6700  -20.9621   22.3160 H   0  0  0  0  0  0
  -31.1657  -16.1014   22.6017 H   0  0  0  0  0  0
  -29.8675  -23.3833   19.7030 H   0  0  0  0  0  0
  -28.4077  -22.8514   18.9681 H   0  0  0  0  0  0
  -28.2615  -24.5072   21.6112 H   0  0  0  0  0  0
  -27.0124  -24.3173   20.4589 H   0  0  0  0  0  0
  -28.8869  -16.2664   20.2552 H   0  0  0  0  0  0
  -29.3038  -21.7779   21.6475 H   0  0  0  0  0  0
  1 25  1  0  0  0
  1 30  2  0  0  0
  1 80  1  0  0  0
  2  3  1  0  0  0
  2 25  1  0  0  0
  2 83  1  0  0  0
  2 84  1  0  0  0
  3  4  1  0  0  0
  3 85  1  0  0  0
  3 86  1  0  0  0
  4  5  1  0  0  0
  4 87  1  0  0  0
  4 88  1  0  0  0
  5  6  1  0  0  0
  5 26  1  0  0  0
  5 89  1  0  0  0
  6 25  1  0  0  0
  6 90  1  0  0  0
  6 91  1  0  0  0
  7  8  2  0  0  0
  7 26  1  0  0  0
  7 29  1  0  0  0
  8  9  1  0  0  0
  8 22  1  0  0  0
  9 10  1  0  0  0
  9 27  2  0  0  0
 10 11  2  0  0  0
 10 15  1  0  0  0
 11 12  1  0  0  0
 11 92  1  0  0  0
 12 13  2  0  0  0
 12 93  1  0  0  0
 13 14  1  0  0  0
 13 31  1  0  0  0
 14 15  2  0  0  0
 14 94  1  0  0  0
 15 95  1  0  0  0
 16 17  2  0  0  0
 16 21  1  0  0  0
 16 31  1  0  0  0
 17 18  1  0  0  0
 17 96  1  0  0  0
 18 19  2  0  0  0
 18 97  1  0  0  0
 19 20  1  0  0  0
 19 24  1  0  0  0
 20 21  2  0  0  0
 20 98  1  0  0  0
 21 23  1  0  0  0
 22 28  1  0  0  0
 22 32  2  0  0  0
 26 27  1  0  0  0
 28 99  1  0  0  0
 28100  1  0  0  0
 29101  1  0  0  0
 29102  1  0  0  0
 33 34  1  0  0  0
 33 66  1  0  0  0
 33 70  2  0  0  0
 34 36  1  0  0  0
 34 59  1  0  0  0
 34103  1  0  0  0
 35 44  2  0  0  0
 35 45  1  0  0  0
 35 68  1  0  0  0
 36 56  1  0  0  0
 36104  1  0  0  0
 37 39  1  0  0  0
 37 47  1  0  0  0
 37 66  1  0  0  0
 37105  1  0  0  0
 38 43  2  0  0  0
 38 46  1  0  0  0
 38 47  1  0  0  0
 39 64  1  0  0  0
 39 67  2  0  0  0
 40 52  1  0  0  0
 40 53  2  0  0  0
 40 58  1  0  0  0
 41106  1  0  0  0
 41107  1  0  0  0
 41108  1  0  0  0
 41 48  1  0  0  0
 42 43  1  0  0  0
 42 66  1  0  0  0
 42109  1  0  0  0
 42110  1  0  0  0
 43 44  1  0  0  0
 44111  1  0  0  0
 45 46  2  0  0  0
 45112  1  0  0  0
 46113  1  0  0  0
 47114  1  0  0  0
 47115  1  0  0  0
 48 56  1  0  0  0
 48 65  1  0  0  0
 48116  1  0  0  0
 49 50  1  0  0  0
 49 53  1  0  0  0
 49 64  1  0  0  0
 49117  1  0  0  0
 50 51  1  0  0  0
 50118  1  0  0  0
 50119  1  0  0  0
 51 52  1  0  0  0
 51120  1  0  0  0
 51121  1  0  0  0
 52122  1  0  0  0
 52123  1  0  0  0
 53 54  1  0  0  0
 54 55  2  0  0  0
 54124  1  0  0  0
 55 57  1  0  0  0
 55125  1  0  0  0
 56 69  2  0  0  0
 57 58  2  0  0  0
 57126  1  0  0  0
 58127  1  0  0  0
 59 60  1  0  0  0
 59 61  1  0  0  0
 59 62  1  0  0  0
 60128  1  0  0  0
 60129  1  0  0  0
 60130  1  0  0  0
 61131  1  0  0  0
 61132  1  0  0  0
 61133  1  0  0  0
 62134  1  0  0  0
 62135  1  0  0  0
 62136  1  0  0  0
 63 65  1  0  0  0
 63137  1  0  0  0
 63138  1  0  0  0
 63139  1  0  0  0
 64140  1  0  0  0
 65141  1  0  0  0
 68 79  1  0  0  0
 71 72  2  0  0  0
 71 73  1  0  0  0
 71142  1  0  0  0
 72 74  1  0  0  0
 72143  1  0  0  0
 73 75  2  0  0  0
 73144  1  0  0  0
 74 76  2  0  0  0
 74145  1  0  0  0
 75 76  1  0  0  0
 75 77  1  0  0  0
 76 80  1  0  0  0
 77 81  1  0  0  0
 77 82  2  0  0  0
 78 79  1  0  0  0
 78 81  1  0  0  0
 78146  1  0  0  0
 78147  1  0  0  0
 79148  1  0  0  0
 79149  1  0  0  0
 80150  1  0  0  0
 81151  1  0  0  0
M  ISO  4   1 100  68 101  79 101  80 100
M  END
> <chiral flag>
0

> <version>
0

> <s_m_source_file>
/data/baiqing/PycharmProjects/Reinvent-master-3.2/result/LINK_invent/BTK/process_docking_weight1_custom_product_contain_oxygen_bond_distance_aromatic_linkinvent_7_9_3/rearranged_h_0002.sdf

> <i_m_source_file_index>
51

> <r_mmod_Potential_Energy-OPLS-2005>
856.304870605469

> <r_mmod_Stretch_Energy-OPLS-2005>
397.344696044922

> <r_mmod_Bend_Energy-OPLS-2005>
395.485137939453

> <r_mmod_Torsional_Energy-OPLS-2005>
264.244049072266

> <r_mmod_Improper_Torsional_Energy-OPLS-2005>
6.96937704086304

> <r_mmod_Van_der_Waal_Energy-OPLS-2005>
146.481643676758

> <r_mmod_Electrostatic_Energy-OPLS-2005>
-366.951049804688

> <r_mmod_Solvation_Energy-OPLS-2005>
-243.80549621582

> <b_mmod_Minimization_Converged-OPLS-2005>
0

> <r_mmod_RMS_Derivative-OPLS-2005>
3.7381694316864

$$$$
51
                    3D
 Structure written by MMmdl.
156164  0  0  1  0            999 V2000
  -30.3012  -15.6054   20.3351 C   0  0  0  0  0  0
  -30.4175  -13.0566   19.5515 C   0  0  0  0  0  0
  -29.5466  -12.6479   18.3289 C   0  0  0  0  0  0
  -28.1189  -12.2948   18.7685 C   0  0  0  0  0  0
  -27.5926  -13.3032   19.8152 C   0  0  2  0  0  0
  -28.6027  -13.6265   20.9410 C   0  0  0  0  0  0
  -25.2301  -13.8273   20.5781 C   0  0  0  0  0  0
  -24.1688  -13.0425   20.9277 C   0  0  0  0  0  0
  -24.6375  -11.6934   20.8751 C   0  0  0  0  0  0
  -23.9087  -10.4276   21.0383 C   0  0  0  0  0  0
  -24.3629   -9.4199   21.9170 C   0  0  0  0  0  0
  -23.6302   -8.2238   22.0741 C   0  0  0  0  0  0
  -22.4285   -8.0267   21.3536 C   0  0  0  0  0  0
  -21.9920   -9.0240   20.4636 C   0  0  0  0  0  0
  -22.7250  -10.2120   20.3042 C   0  0  0  0  0  0
  -21.6862   -6.0724   22.5273 C   0  0  0  0  0  0
  -21.4009   -6.5628   23.8203 C   0  0  0  0  0  0
  -21.3667   -5.6785   24.9169 C   0  0  0  0  0  0
  -21.6047   -4.3050   24.7223 C   0  0  0  0  0  0
  -21.8829   -3.8135   23.4349 C   0  0  0  0  0  0
  -21.9196   -4.6949   22.3398 C   0  0  0  0  0  0
  -22.7704  -13.5151   21.1936 C   0  0  0  0  0  0
  -22.1667   -4.2126   21.0982 F   0  0  0  0  0  0
  -21.5640   -3.4537   25.7744 F   0  0  0  0  0  0
  -29.7843  -14.2384   20.2949 N   0  0  0  0  0  0
  -26.2736  -12.9587   20.3224 N   0  0  0  0  0  0
  -25.9323  -11.6662   20.5690 N   0  0  0  0  0  0
  -22.0391  -12.8108   22.0491 N   0  0  0  0  0  0
  -25.3921  -15.2004   20.4200 N   0  0  0  0  0  0
  -31.5295  -15.5495   20.1348 O   0  0  0  0  0  0
  -21.6653   -6.8866   21.4232 O   0  0  0  0  0  0
  -22.3362  -14.5452   20.6783 O   0  0  0  0  0  0
  -24.6840  -31.7980   23.1541 C   0  0  0  0  0  0
  -25.9432  -32.4441   23.8079 C   0  0  1  0  0  0
  -27.2226  -26.6959   20.2323 C   0  0  0  0  0  0
  -25.6018  -33.8275   24.1951 N   0  0  0  0  0  0
  -23.5093  -30.3981   21.5081 C   0  0  2  0  0  0
  -24.9646  -28.7349   20.1252 C   0  0  0  0  0  0
  -22.7749  -29.4293   22.4739 C   0  0  0  0  0  0
  -18.0324  -28.1409   22.8457 C   0  0  0  0  0  0
  -24.1491  -36.7117   23.2654 C   0  0  0  0  0  0
  -26.0877  -30.5291   21.4196 C   0  0  0  0  0  0
  -26.1506  -29.0917   20.7770 C   0  0  0  0  0  0
  -27.2627  -28.0987   20.7982 C   0  0  0  0  0  0
  -26.0082  -26.5489   19.5149 C   0  0  0  0  0  0
  -24.9315  -27.4889   19.4711 C   0  0  0  0  0  0
  -23.7612  -29.6910   20.1453 C   0  0  0  0  0  0
  -25.4149  -36.2875   24.0271 C   0  0  1  0  0  0
  -20.5954  -28.3758   23.1141 C   0  0  2  0  0  0
  -20.6769  -26.9410   22.5408 C   0  0  0  0  0  0
  -19.5753  -26.6364   21.5205 C   0  0  0  0  0  0
  -18.1938  -26.7933   22.1620 C   0  0  0  0  0  0
  -19.1589  -28.8915   23.2773 C   0  0  0  0  0  0
  -18.9493  -30.1500   23.8815 C   0  0  0  0  0  0
  -17.6486  -30.6597   24.0546 C   0  0  0  0  0  0
  -25.9134  -34.9262   23.4948 C   0  0  0  0  0  0
  -16.5377  -29.9079   23.6349 C   0  0  0  0  0  0
  -16.7306  -28.6501   23.0368 C   0  0  0  0  0  0
  -26.4630  -31.6487   25.0708 C   0  0  0  0  0  0
  -25.3726  -31.3806   26.1350 C   0  0  0  0  0  0
  -27.0541  -30.2814   24.6595 C   0  0  0  0  0  0
  -27.6064  -32.4363   25.7543 C   0  0  0  0  0  0
  -27.5537  -37.1730   24.8489 C   0  0  0  0  0  0
  -21.4399  -29.3006   22.3464 N   0  0  0  0  0  0
  -26.4283  -37.3626   23.9383 N   0  0  0  0  0  0
  -24.7835  -30.9414   22.0803 N   0  0  0  0  0  0
  -23.4176  -28.7912   23.3106 O   0  0  0  0  0  0
  -28.2330  -25.5169   20.2773 O   0  0  0  0  0  0
  -26.5769  -34.8844   22.4563 O   0  0  0  0  0  0
  -23.5859  -32.1083   23.6484 O   0  0  0  0  0  0
  -29.1005  -21.4817   19.2167 C   0  0  0  0  0  0
  -28.7750  -22.9708   19.2035 C   0  0  0  0  0  0
  -28.2454  -22.8553   21.3455 C   0  0  0  0  0  0
  -29.0595  -20.4423   20.2840 C   0  0  0  0  0  0
  -28.5542  -21.3316   21.3947 C   0  0  0  0  0  0
  -28.2953  -23.8949   20.2625 C   0  0  0  0  0  0
  -27.7925  -21.5161   23.8875 C   0  0  0  0  0  0
  -29.6769  -20.0323   23.2825 C   0  0  0  0  0  0
  -27.3227  -19.4654   22.5861 C   0  0  0  0  0  0
  -29.7741  -18.7078   20.1468 C   0  0  0  0  0  0
  -28.3446  -20.6099   22.7586 C   0  0  0  0  0  0
  -29.5461  -16.9682   20.4076 N   0  0  0  0  0  0
  -31.4159  -13.3106   19.1940 H   0  0  0  0  0  0
  -30.5657  -12.2058   20.2188 H   0  0  0  0  0  0
  -29.9971  -11.8068   17.7994 H   0  0  0  0  0  0
  -29.5120  -13.4764   17.6198 H   0  0  0  0  0  0
  -28.1426  -11.2955   19.2058 H   0  0  0  0  0  0
  -27.4500  -12.2424   17.9079 H   0  0  0  0  0  0
  -27.4607  -14.2261   19.2483 H   0  0  0  0  0  0
  -28.8497  -12.7427   21.5314 H   0  0  0  0  0  0
  -28.1700  -14.3508   21.6332 H   0  0  0  0  0  0
  -25.2770   -9.5680   22.4751 H   0  0  0  0  0  0
  -24.0015   -7.4623   22.7452 H   0  0  0  0  0  0
  -21.0863   -8.8746   19.8933 H   0  0  0  0  0  0
  -22.3695  -10.9655   19.6154 H   0  0  0  0  0  0
  -21.1993   -7.6134   23.9692 H   0  0  0  0  0  0
  -21.1489   -6.0524   25.9072 H   0  0  0  0  0  0
  -22.0603   -2.7592   23.2858 H   0  0  0  0  0  0
  -22.4071  -11.9801   22.4882 H   0  0  0  0  0  0
  -21.0986  -13.1061   22.2696 H   0  0  0  0  0  0
  -24.6202  -15.8496   20.5226 H   0  0  0  0  0  0
  -26.2316  -15.6375   20.0639 H   0  0  0  0  0  0
  -26.7508  -32.4886   23.0776 H   0  0  0  0  0  0
  -25.0076  -33.9326   25.0046 H   0  0  0  0  0  0
  -22.8364  -31.2362   21.3173 H   0  0  0  0  0  0
  -23.3762  -35.9444   23.3355 H   0  0  0  0  0  0
  -24.3529  -36.8757   22.2061 H   0  0  0  0  0  0
  -23.7259  -37.6308   23.6726 H   0  0  0  0  0  0
  -26.2893  -31.2528   20.6284 H   0  0  0  0  0  0
  -26.9392  -30.5968   22.0849 H   0  0  0  0  0  0
  -28.1623  -28.3814   21.3271 H   0  0  0  0  0  0
  -25.8564  -25.6087   19.0044 H   0  0  0  0  0  0
  -24.0370  -27.2093   18.9331 H   0  0  0  0  0  0
  -23.9353  -30.4499   19.3813 H   0  0  0  0  0  0
  -22.8657  -29.1559   19.8228 H   0  0  0  0  0  0
  -25.1359  -36.1653   25.0761 H   0  0  0  0  0  0
  -21.0021  -28.3396   24.1276 H   0  0  0  0  0  0
  -20.5592  -26.2383   23.3675 H   0  0  0  0  0  0
  -21.6630  -26.7330   22.1246 H   0  0  0  0  0  0
  -19.6910  -25.6262   21.1266 H   0  0  0  0  0  0
  -19.6694  -27.3145   20.6715 H   0  0  0  0  0  0
  -17.4186  -26.6662   21.4050 H   0  0  0  0  0  0
  -18.0363  -26.0089   22.9036 H   0  0  0  0  0  0
  -19.7967  -30.7322   24.2168 H   0  0  0  0  0  0
  -17.5031  -31.6272   24.5149 H   0  0  0  0  0  0
  -15.5368  -30.2946   23.7719 H   0  0  0  0  0  0
  -15.8710  -28.0787   22.7139 H   0  0  0  0  0  0
  -24.5933  -30.7122   25.7681 H   0  0  0  0  0  0
  -24.8898  -32.3023   26.4601 H   0  0  0  0  0  0
  -25.7936  -30.9114   27.0251 H   0  0  0  0  0  0
  -26.3255  -29.6458   24.1545 H   0  0  0  0  0  0
  -27.3924  -29.7227   25.5331 H   0  0  0  0  0  0
  -27.9265  -30.3933   24.0152 H   0  0  0  0  0  0
  -27.2582  -33.3720   26.1934 H   0  0  0  0  0  0
  -28.3986  -32.6837   25.0466 H   0  0  0  0  0  0
  -28.0616  -31.8629   26.5633 H   0  0  0  0  0  0
  -28.2600  -37.9966   24.7391 H   0  0  0  0  0  0
  -28.0978  -36.2478   24.6517 H   0  0  0  0  0  0
  -27.2217  -37.1598   25.8885 H   0  0  0  0  0  0
  -20.9726  -29.8635   21.6492 H   0  0  0  0  0  0
  -26.0115  -38.2690   24.1354 H   0  0  0  0  0  0
  -29.4784  -21.1176   18.2709 H   0  0  0  0  0  0
  -28.9716  -23.4563   18.2587 H   0  0  0  0  0  0
  -27.9640  -23.3246   22.2727 H   0  0  0  0  0  0
  -28.4919  -22.3112   24.1521 H   0  0  0  0  0  0
  -27.6205  -20.9470   24.8028 H   0  0  0  0  0  0
  -26.8342  -21.9696   23.6288 H   0  0  0  0  0  0
  -30.4462  -20.8022   23.3441 H   0  0  0  0  0  0
  -30.0647  -19.2298   22.6637 H   0  0  0  0  0  0
  -29.5638  -19.6068   24.2809 H   0  0  0  0  0  0
  -26.3565  -19.8459   22.2517 H   0  0  0  0  0  0
  -27.1536  -18.9329   23.5235 H   0  0  0  0  0  0
  -27.6453  -18.7212   21.8601 H   0  0  0  0  0  0
  -30.7724  -18.8543   20.5595 H   0  0  0  0  0  0
  -29.9601  -18.6879   19.0729 H   0  0  0  0  0  0
  -28.5698  -16.7805   20.5846 H   0  0  0  0  0  0
  1 25  1  0  0  0
  1 30  2  0  0  0
  1 82  1  0  0  0
  2  3  1  0  0  0
  2 25  1  0  0  0
  2 83  1  0  0  0
  2 84  1  0  0  0
  3  4  1  0  0  0
  3 85  1  0  0  0
  3 86  1  0  0  0
  4  5  1  0  0  0
  4 87  1  0  0  0
  4 88  1  0  0  0
  5  6  1  0  0  0
  5 26  1  0  0  0
  5 89  1  0  0  0
  6 25  1  0  0  0
  6 90  1  0  0  0
  6 91  1  0  0  0
  7  8  2  0  0  0
  7 26  1  0  0  0
  7 29  1  0  0  0
  8  9  1  0  0  0
  8 22  1  0  0  0
  9 10  1  0  0  0
  9 27  2  0  0  0
 10 11  2  0  0  0
 10 15  1  0  0  0
 11 12  1  0  0  0
 11 92  1  0  0  0
 12 13  2  0  0  0
 12 93  1  0  0  0
 13 14  1  0  0  0
 13 31  1  0  0  0
 14 15  2  0  0  0
 14 94  1  0  0  0
 15 95  1  0  0  0
 16 17  2  0  0  0
 16 21  1  0  0  0
 16 31  1  0  0  0
 17 18  1  0  0  0
 17 96  1  0  0  0
 18 19  2  0  0  0
 18 97  1  0  0  0
 19 20  1  0  0  0
 19 24  1  0  0  0
 20 21  2  0  0  0
 20 98  1  0  0  0
 21 23  1  0  0  0
 22 28  1  0  0  0
 22 32  2  0  0  0
 26 27  1  0  0  0
 28 99  1  0  0  0
 28100  1  0  0  0
 29101  1  0  0  0
 29102  1  0  0  0
 33 34  1  0  0  0
 33 66  1  0  0  0
 33 70  2  0  0  0
 34 36  1  0  0  0
 34 59  1  0  0  0
 34103  1  0  0  0
 35 44  2  0  0  0
 35 45  1  0  0  0
 35 68  1  0  0  0
 36 56  1  0  0  0
 36104  1  0  0  0
 37 39  1  0  0  0
 37 47  1  0  0  0
 37 66  1  0  0  0
 37105  1  0  0  0
 38 43  2  0  0  0
 38 46  1  0  0  0
 38 47  1  0  0  0
 39 64  1  0  0  0
 39 67  2  0  0  0
 40 52  1  0  0  0
 40 53  2  0  0  0
 40 58  1  0  0  0
 41106  1  0  0  0
 41107  1  0  0  0
 41108  1  0  0  0
 41 48  1  0  0  0
 42 43  1  0  0  0
 42 66  1  0  0  0
 42109  1  0  0  0
 42110  1  0  0  0
 43 44  1  0  0  0
 44111  1  0  0  0
 45 46  2  0  0  0
 45112  1  0  0  0
 46113  1  0  0  0
 47114  1  0  0  0
 47115  1  0  0  0
 48 56  1  0  0  0
 48 65  1  0  0  0
 48116  1  0  0  0
 49 50  1  0  0  0
 49 53  1  0  0  0
 49 64  1  0  0  0
 49117  1  0  0  0
 50 51  1  0  0  0
 50118  1  0  0  0
 50119  1  0  0  0
 51 52  1  0  0  0
 51120  1  0  0  0
 51121  1  0  0  0
 52122  1  0  0  0
 52123  1  0  0  0
 53 54  1  0  0  0
 54 55  2  0  0  0
 54124  1  0  0  0
 55 57  1  0  0  0
 55125  1  0  0  0
 56 69  2  0  0  0
 57 58  2  0  0  0
 57126  1  0  0  0
 58127  1  0  0  0
 59 60  1  0  0  0
 59 61  1  0  0  0
 59 62  1  0  0  0
 60128  1  0  0  0
 60129  1  0  0  0
 60130  1  0  0  0
 61131  1  0  0  0
 61132  1  0  0  0
 61133  1  0  0  0
 62134  1  0  0  0
 62135  1  0  0  0
 62136  1  0  0  0
 63 65  1  0  0  0
 63137  1  0  0  0
 63138  1  0  0  0
 63139  1  0  0  0
 64140  1  0  0  0
 65141  1  0  0  0
 68 76  1  0  0  0
 71 72  2  0  0  0
 71 74  1  0  0  0
 71142  1  0  0  0
 72 76  1  0  0  0
 72143  1  0  0  0
 73 75  1  0  0  0
 73 76  2  0  0  0
 73144  1  0  0  0
 74 75  2  0  0  0
 74 80  1  0  0  0
 75 81  1  0  0  0
 77145  1  0  0  0
 77146  1  0  0  0
 77147  1  0  0  0
 77 81  1  0  0  0
 78 81  1  0  0  0
 78148  1  0  0  0
 78149  1  0  0  0
 78150  1  0  0  0
 79 81  1  0  0  0
 79151  1  0  0  0
 79152  1  0  0  0
 79153  1  0  0  0
 80 82  1  0  0  0
 80154  1  0  0  0
 80155  1  0  0  0
 82156  1  0  0  0
M  ISO  4   1 100  68 101  76 101  82 100
M  END
> <chiral flag>
0

> <version>
0

> <s_m_source_file>
/data/baiqing/PycharmProjects/Reinvent-master-3.2/result/LINK_invent/BTK/process_docking_weight1_custom_product_contain_oxygen_bond_distance_aromatic_linkinvent_7_9_3/rearranged_h_0002.sdf

> <i_m_source_file_index>
52

> <r_mmod_Potential_Energy-OPLS-2005>
2207.34838867188

> <r_mmod_Stretch_Energy-OPLS-2005>
915.2431640625

> <r_mmod_Bend_Energy-OPLS-2005>
672.297119140625

> <r_mmod_Torsional_Energy-OPLS-2005>
223.784545898438

> <r_mmod_Improper_Torsional_Energy-OPLS-2005>
7.7311487197876

> <r_mmod_Van_der_Waal_Energy-OPLS-2005>
143.851516723633

> <r_mmod_Electrostatic_Energy-OPLS-2005>
-421.318481445312

> <r_mmod_Solvation_Energy-OPLS-2005>
-205.155670166016

> <b_mmod_Minimization_Converged-OPLS-2005>
0

> <r_mmod_RMS_Derivative-OPLS-2005>
2.29297232627869

$$$$
52
                    3D
 Structure written by MMmdl.
150158  0  0  1  0            999 V2000
  -30.4007  -15.3270   20.3465 C   0  0  0  0  0  0
  -30.4382  -12.8462   19.5430 C   0  0  0  0  0  0
  -29.5475  -12.5926   18.2983 C   0  0  0  0  0  0
  -28.0923  -12.3149   18.7129 C   0  0  0  0  0  0
  -27.6119  -13.2851   19.8238 C   0  0  2  0  0  0
  -28.6416  -13.4670   20.9616 C   0  0  0  0  0  0
  -25.2387  -13.8268   20.5744 C   0  0  0  0  0  0
  -24.1742  -13.0440   20.9232 C   0  0  0  0  0  0
  -24.6415  -11.6942   20.8730 C   0  0  0  0  0  0
  -23.9136  -10.4293   21.0386 C   0  0  0  0  0  0
  -24.3669   -9.4217   21.9183 C   0  0  0  0  0  0
  -23.6319   -8.2261   22.0779 C   0  0  0  0  0  0
  -22.4299   -8.0300   21.3564 C   0  0  0  0  0  0
  -21.9934   -9.0283   20.4664 C   0  0  0  0  0  0
  -22.7293  -10.2142   20.3048 C   0  0  0  0  0  0
  -21.6855   -6.0738   22.5263 C   0  0  0  0  0  0
  -21.4033   -6.5634   23.8195 C   0  0  0  0  0  0
  -21.3680   -5.6787   24.9158 C   0  0  0  0  0  0
  -21.6042   -4.3046   24.7203 C   0  0  0  0  0  0
  -21.8819   -3.8143   23.4319 C   0  0  0  0  0  0
  -21.9186   -4.6967   22.3386 C   0  0  0  0  0  0
  -22.7755  -13.5186   21.1845 C   0  0  0  0  0  0
  -22.1644   -4.2163   21.0966 F   0  0  0  0  0  0
  -21.5635   -3.4525   25.7719 F   0  0  0  0  0  0
  -29.8694  -13.9988   20.3432 N   0  0  0  0  0  0
  -26.2822  -12.9555   20.3201 N   0  0  0  0  0  0
  -25.9361  -11.6660   20.5705 N   0  0  0  0  0  0
  -22.0398  -12.8211   22.0417 N   0  0  0  0  0  0
  -25.3996  -15.2017   20.4208 N   0  0  0  0  0  0
  -31.6103  -15.3376   20.0659 O   0  0  0  0  0  0
  -21.6650   -6.8900   21.4236 O   0  0  0  0  0  0
  -22.3438  -14.5484   20.6677 O   0  0  0  0  0  0
  -24.6686  -31.8186   23.1656 C   0  0  0  0  0  0
  -25.9337  -32.4570   23.8157 C   0  0  1  0  0  0
  -27.2162  -26.8757   20.1912 C   0  0  0  0  0  0
  -25.5976  -33.8384   24.2046 N   0  0  0  0  0  0
  -23.4877  -30.4267   21.5178 C   0  0  2  0  0  0
  -24.9394  -28.8045   20.1108 C   0  0  0  0  0  0
  -22.7709  -29.4409   22.4792 C   0  0  0  0  0  0
  -18.0318  -28.1405   22.8465 C   0  0  0  0  0  0
  -24.1493  -36.7212   23.2651 C   0  0  0  0  0  0
  -26.0590  -30.6054   21.4038 C   0  0  0  0  0  0
  -26.1236  -29.1901   20.7516 C   0  0  0  0  0  0
  -27.2525  -28.2455   20.7706 C   0  0  0  0  0  0
  -26.0102  -26.6598   19.4868 C   0  0  0  0  0  0
  -24.9121  -27.5613   19.4563 C   0  0  0  0  0  0
  -23.7305  -29.7398   20.1445 C   0  0  0  0  0  0
  -25.4132  -36.2972   24.0299 C   0  0  1  0  0  0
  -20.5949  -28.3745   23.1191 C   0  0  2  0  0  0
  -20.6795  -26.9429   22.5407 C   0  0  0  0  0  0
  -19.5773  -26.6375   21.5215 C   0  0  0  0  0  0
  -18.1953  -26.7938   22.1623 C   0  0  0  0  0  0
  -19.1584  -28.8901   23.2813 C   0  0  0  0  0  0
  -18.9486  -30.1487   23.8854 C   0  0  0  0  0  0
  -17.6480  -30.6598   24.0550 C   0  0  0  0  0  0
  -25.9102  -34.9345   23.5006 C   0  0  0  0  0  0
  -16.5382  -29.9079   23.6339 C   0  0  0  0  0  0
  -16.7291  -28.6501   23.0358 C   0  0  0  0  0  0
  -26.4538  -31.6546   25.0727 C   0  0  0  0  0  0
  -25.3630  -31.3814   26.1358 C   0  0  0  0  0  0
  -27.0431  -30.2924   24.6484 C   0  0  0  0  0  0
  -27.6056  -32.4323   25.7515 C   0  0  0  0  0  0
  -27.5572  -37.1765   24.8455 C   0  0  0  0  0  0
  -21.4368  -29.3032   22.3546 N   0  0  0  0  0  0
  -26.4280  -37.3709   23.9409 N   0  0  0  0  0  0
  -24.7602  -30.9787   22.0821 N   0  0  0  0  0  0
  -23.4225  -28.7979   23.3056 O   0  0  0  0  0  0
  -28.1898  -25.7328   20.3125 O   0  0  0  0  0  0
  -26.5742  -34.8896   22.4615 O   0  0  0  0  0  0
  -23.5751  -32.1157   23.6726 O   0  0  0  0  0  0
  -29.0089  -22.5534   21.8866 C   0  0  0  0  0  0
  -29.4498  -21.3763   22.5507 C   0  0  0  0  0  0
  -28.8259  -21.1567   19.9374 C   0  0  0  0  0  0
  -28.6529  -22.5915   20.5225 C   0  0  0  0  0  0
  -29.5988  -20.0837   21.9662 C   0  0  0  0  0  0
  -29.2997  -19.8246   20.5973 C   0  0  0  0  0  0
  -30.1272  -18.9873   22.8805 C   0  0  0  0  0  0
  -29.6515  -18.2117   19.9490 C   0  0  0  0  0  0
  -27.9784  -24.1188   19.9324 C   0  0  0  0  0  0
  -29.6163  -16.5967   20.4676 N   0  0  0  0  0  0
  -31.4593  -13.0495   19.2170 H   0  0  0  0  0  0
  -30.5104  -11.9468   20.1569 H   0  0  0  0  0  0
  -29.9455  -11.7591   17.7155 H   0  0  0  0  0  0
  -29.5818  -13.4624   17.6385 H   0  0  0  0  0  0
  -28.0465  -11.2902   19.0823 H   0  0  0  0  0  0
  -27.4313  -12.3602   17.8446 H   0  0  0  0  0  0
  -27.5235  -14.2533   19.3302 H   0  0  0  0  0  0
  -28.8163  -12.5314   21.4967 H   0  0  0  0  0  0
  -28.2722  -14.1753   21.7042 H   0  0  0  0  0  0
  -25.2819   -9.5684   22.4758 H   0  0  0  0  0  0
  -24.0013   -7.4660   22.7522 H   0  0  0  0  0  0
  -21.0856   -8.8828   19.8973 H   0  0  0  0  0  0
  -22.3783  -10.9688   19.6156 H   0  0  0  0  0  0
  -21.2044   -7.6151   23.9693 H   0  0  0  0  0  0
  -21.1508   -6.0522   25.9061 H   0  0  0  0  0  0
  -22.0584   -2.7615   23.2787 H   0  0  0  0  0  0
  -22.4007  -11.9928   22.4898 H   0  0  0  0  0  0
  -21.1008  -13.1267   22.2555 H   0  0  0  0  0  0
  -24.6284  -15.8487   20.5455 H   0  0  0  0  0  0
  -26.2308  -15.6452   20.0537 H   0  0  0  0  0  0
  -26.7436  -32.5081   23.0893 H   0  0  0  0  0  0
  -25.0023  -33.9414   25.0137 H   0  0  0  0  0  0
  -22.8039  -31.2593   21.3435 H   0  0  0  0  0  0
  -23.3768  -35.9532   23.3282 H   0  0  0  0  0  0
  -24.3589  -36.8885   22.2079 H   0  0  0  0  0  0
  -23.7220  -37.6384   23.6719 H   0  0  0  0  0  0
  -26.2431  -31.3414   20.6199 H   0  0  0  0  0  0
  -26.9180  -30.6691   22.0596 H   0  0  0  0  0  0
  -28.1385  -28.5340   21.3171 H   0  0  0  0  0  0
  -25.8781  -25.7131   18.9840 H   0  0  0  0  0  0
  -24.0167  -27.2605   18.9289 H   0  0  0  0  0  0
  -23.8921  -30.5061   19.3841 H   0  0  0  0  0  0
  -22.8377  -29.1976   19.8288 H   0  0  0  0  0  0
  -25.1332  -36.1787   25.0794 H   0  0  0  0  0  0
  -21.0006  -28.3349   24.1328 H   0  0  0  0  0  0
  -20.5674  -26.2367   23.3645 H   0  0  0  0  0  0
  -21.6657  -26.7423   22.1224 H   0  0  0  0  0  0
  -19.6938  -25.6264   21.1284 H   0  0  0  0  0  0
  -19.6709  -27.3149   20.6718 H   0  0  0  0  0  0
  -17.4223  -26.6664   21.4028 H   0  0  0  0  0  0
  -18.0362  -26.0097   22.9042 H   0  0  0  0  0  0
  -19.7960  -30.7314   24.2220 H   0  0  0  0  0  0
  -17.5026  -31.6269   24.5163 H   0  0  0  0  0  0
  -15.5366  -30.2971   23.7683 H   0  0  0  0  0  0
  -15.8692  -28.0801   22.7103 H   0  0  0  0  0  0
  -24.5810  -30.7180   25.7649 H   0  0  0  0  0  0
  -24.8802  -32.3010   26.4683 H   0  0  0  0  0  0
  -25.7811  -30.9030   27.0223 H   0  0  0  0  0  0
  -26.3109  -29.6587   24.1481 H   0  0  0  0  0  0
  -27.3951  -29.7319   25.5151 H   0  0  0  0  0  0
  -27.9048  -30.4126   23.9918 H   0  0  0  0  0  0
  -27.2683  -33.3658   26.2025 H   0  0  0  0  0  0
  -28.3907  -32.6808   25.0364 H   0  0  0  0  0  0
  -28.0689  -31.8484   26.5474 H   0  0  0  0  0  0
  -28.2573  -38.0084   24.7547 H   0  0  0  0  0  0
  -28.1085  -36.2615   24.6227 H   0  0  0  0  0  0
  -27.2304  -37.1362   25.8862 H   0  0  0  0  0  0
  -20.9638  -29.8714   21.6661 H   0  0  0  0  0  0
  -26.0132  -38.2782   24.1395 H   0  0  0  0  0  0
  -28.9141  -23.4627   22.4646 H   0  0  0  0  0  0
  -29.6946  -21.4821   23.6004 H   0  0  0  0  0  0
  -28.5745  -21.0639   18.8887 H   0  0  0  0  0  0
  -30.8235  -19.4039   23.6127 H   0  0  0  0  0  0
  -30.6676  -18.2080   22.3476 H   0  0  0  0  0  0
  -29.3090  -18.5271   23.4361 H   0  0  0  0  0  0
  -30.6549  -18.3234   19.5374 H   0  0  0  0  0  0
  -29.0186  -18.1821   19.0601 H   0  0  0  0  0  0
  -26.9139  -23.9572   20.0976 H   0  0  0  0  0  0
  -28.0856  -24.0723   18.8494 H   0  0  0  0  0  0
  -28.6826  -16.3645   20.7772 H   0  0  0  0  0  0
  1 25  1  0  0  0
  1 30  2  0  0  0
  1 80  1  0  0  0
  2  3  1  0  0  0
  2 25  1  0  0  0
  2 81  1  0  0  0
  2 82  1  0  0  0
  3  4  1  0  0  0
  3 83  1  0  0  0
  3 84  1  0  0  0
  4  5  1  0  0  0
  4 85  1  0  0  0
  4 86  1  0  0  0
  5  6  1  0  0  0
  5 26  1  0  0  0
  5 87  1  0  0  0
  6 25  1  0  0  0
  6 88  1  0  0  0
  6 89  1  0  0  0
  7  8  2  0  0  0
  7 26  1  0  0  0
  7 29  1  0  0  0
  8  9  1  0  0  0
  8 22  1  0  0  0
  9 10  1  0  0  0
  9 27  2  0  0  0
 10 11  2  0  0  0
 10 15  1  0  0  0
 11 12  1  0  0  0
 11 90  1  0  0  0
 12 13  2  0  0  0
 12 91  1  0  0  0
 13 14  1  0  0  0
 13 31  1  0  0  0
 14 15  2  0  0  0
 14 92  1  0  0  0
 15 93  1  0  0  0
 16 17  2  0  0  0
 16 21  1  0  0  0
 16 31  1  0  0  0
 17 18  1  0  0  0
 17 94  1  0  0  0
 18 19  2  0  0  0
 18 95  1  0  0  0
 19 20  1  0  0  0
 19 24  1  0  0  0
 20 21  2  0  0  0
 20 96  1  0  0  0
 21 23  1  0  0  0
 22 28  1  0  0  0
 22 32  2  0  0  0
 26 27  1  0  0  0
 28 97  1  0  0  0
 28 98  1  0  0  0
 29 99  1  0  0  0
 29100  1  0  0  0
 33 34  1  0  0  0
 33 66  1  0  0  0
 33 70  2  0  0  0
 34 36  1  0  0  0
 34 59  1  0  0  0
 34101  1  0  0  0
 35 44  2  0  0  0
 35 45  1  0  0  0
 35 68  1  0  0  0
 36 56  1  0  0  0
 36102  1  0  0  0
 37 39  1  0  0  0
 37 47  1  0  0  0
 37 66  1  0  0  0
 37103  1  0  0  0
 38 43  2  0  0  0
 38 46  1  0  0  0
 38 47  1  0  0  0
 39 64  1  0  0  0
 39 67  2  0  0  0
 40 52  1  0  0  0
 40 53  2  0  0  0
 40 58  1  0  0  0
 41104  1  0  0  0
 41105  1  0  0  0
 41106  1  0  0  0
 41 48  1  0  0  0
 42 43  1  0  0  0
 42 66  1  0  0  0
 42107  1  0  0  0
 42108  1  0  0  0
 43 44  1  0  0  0
 44109  1  0  0  0
 45 46  2  0  0  0
 45110  1  0  0  0
 46111  1  0  0  0
 47112  1  0  0  0
 47113  1  0  0  0
 48 56  1  0  0  0
 48 65  1  0  0  0
 48114  1  0  0  0
 49 50  1  0  0  0
 49 53  1  0  0  0
 49 64  1  0  0  0
 49115  1  0  0  0
 50 51  1  0  0  0
 50116  1  0  0  0
 50117  1  0  0  0
 51 52  1  0  0  0
 51118  1  0  0  0
 51119  1  0  0  0
 52120  1  0  0  0
 52121  1  0  0  0
 53 54  1  0  0  0
 54 55  2  0  0  0
 54122  1  0  0  0
 55 57  1  0  0  0
 55123  1  0  0  0
 56 69  2  0  0  0
 57 58  2  0  0  0
 57124  1  0  0  0
 58125  1  0  0  0
 59 60  1  0  0  0
 59 61  1  0  0  0
 59 62  1  0  0  0
 60126  1  0  0  0
 60127  1  0  0  0
 60128  1  0  0  0
 61129  1  0  0  0
 61130  1  0  0  0
 61131  1  0  0  0
 62132  1  0  0  0
 62133  1  0  0  0
 62134  1  0  0  0
 63 65  1  0  0  0
 63135  1  0  0  0
 63136  1  0  0  0
 63137  1  0  0  0
 64138  1  0  0  0
 65139  1  0  0  0
 68 79  1  0  0  0
 71 72  2  0  0  0
 71 74  1  0  0  0
 71140  1  0  0  0
 72 75  1  0  0  0
 72141  1  0  0  0
 73 74  2  0  0  0
 73 76  1  0  0  0
 73142  1  0  0  0
 74 79  1  0  0  0
 75 76  2  0  0  0
 75 77  1  0  0  0
 76 78  1  0  0  0
 77143  1  0  0  0
 77144  1  0  0  0
 77145  1  0  0  0
 78 80  1  0  0  0
 78146  1  0  0  0
 78147  1  0  0  0
 79148  1  0  0  0
 79149  1  0  0  0
 80150  1  0  0  0
M  ISO  4   1 100  68 101  79 101  80 100
M  END
> <chiral flag>
0

> <version>
0

> <s_m_source_file>
/data/baiqing/PycharmProjects/Reinvent-master-3.2/result/LINK_invent/BTK/process_docking_weight1_custom_product_contain_oxygen_bond_distance_aromatic_linkinvent_7_9_3/rearranged_h_0002.sdf

> <i_m_source_file_index>
53

> <r_mmod_Potential_Energy-OPLS-2005>
1376.18200683594

> <r_mmod_Stretch_Energy-OPLS-2005>
645.118591308594

> <r_mmod_Bend_Energy-OPLS-2005>
442.926727294922

> <r_mmod_Torsional_Energy-OPLS-2005>
217.868240356445

> <r_mmod_Improper_Torsional_Energy-OPLS-2005>
6.07773733139038

> <r_mmod_Van_der_Waal_Energy-OPLS-2005>
126.030952453613

> <r_mmod_Electrostatic_Energy-OPLS-2005>
-385.368133544922

> <r_mmod_Solvation_Energy-OPLS-2005>
-213.715209960938

> <b_mmod_Minimization_Converged-OPLS-2005>
0

> <r_mmod_RMS_Derivative-OPLS-2005>
3.80063819885254

$$$$
53
                    3D
 Structure written by MMmdl.
158165  0  0  1  0            999 V2000
  -30.6742  -14.6436   20.5002 C   0  0  0  0  0  0
  -30.4628  -12.3984   19.4692 C   0  0  0  0  0  0
  -29.5402  -12.5092   18.2364 C   0  0  0  0  0  0
  -28.0615  -12.3318   18.6462 C   0  0  0  0  0  0
  -27.6672  -13.2204   19.8571 C   0  0  2  0  0  0
  -28.7080  -13.1184   20.9934 C   0  0  0  0  0  0
  -25.2651  -13.8199   20.5606 C   0  0  0  0  0  0
  -24.1891  -13.0481   20.9128 C   0  0  0  0  0  0
  -24.6462  -11.6935   20.8735 C   0  0  0  0  0  0
  -23.9107  -10.4309   21.0399 C   0  0  0  0  0  0
  -24.3632   -9.4226   21.9189 C   0  0  0  0  0  0
  -23.6280   -8.2299   22.0777 C   0  0  0  0  0  0
  -22.4263   -8.0369   21.3575 C   0  0  0  0  0  0
  -21.9898   -9.0333   20.4646 C   0  0  0  0  0  0
  -22.7276  -10.2182   20.3058 C   0  0  0  0  0  0
  -21.6856   -6.0754   22.5276 C   0  0  0  0  0  0
  -21.4000   -6.5629   23.8213 C   0  0  0  0  0  0
  -21.3644   -5.6785   24.9173 C   0  0  0  0  0  0
  -21.6077   -4.3058   24.7206 C   0  0  0  0  0  0
  -21.8827   -3.8141   23.4319 C   0  0  0  0  0  0
  -21.9167   -4.6971   22.3382 C   0  0  0  0  0  0
  -22.7883  -13.5311   21.1720 C   0  0  0  0  0  0
  -22.1655   -4.2146   21.0971 F   0  0  0  0  0  0
  -21.5625   -3.4544   25.7699 F   0  0  0  0  0  0
  -30.0301  -13.4375   20.4254 N   0  0  0  0  0  0
  -26.3085  -12.9379   20.3228 N   0  0  0  0  0  0
  -25.9397  -11.6535   20.5700 N   0  0  0  0  0  0
  -22.0423  -12.8395   22.0285 N   0  0  0  0  0  0
  -25.4419  -15.1924   20.3921 N   0  0  0  0  0  0
  -31.8472  -14.7671   20.1443 O   0  0  0  0  0  0
  -21.6668   -6.8942   21.4274 O   0  0  0  0  0  0
  -22.3561  -14.5553   20.6447 O   0  0  0  0  0  0
  -24.6234  -31.8665   23.1982 C   0  0  0  0  0  0
  -25.9064  -32.4837   23.8326 C   0  0  1  0  0  0
  -27.2378  -27.3328   20.1240 C   0  0  0  0  0  0
  -25.5875  -33.8636   24.2251 N   0  0  0  0  0  0
  -23.4231  -30.4825   21.5444 C   0  0  2  0  0  0
  -24.8740  -28.9434   20.1067 C   0  0  0  0  0  0
  -22.7513  -29.4626   22.4940 C   0  0  0  0  0  0
  -18.0282  -28.1412   22.8514 C   0  0  0  0  0  0
  -24.1477  -36.7335   23.2632 C   0  0  0  0  0  0
  -25.9614  -30.8015   21.3701 C   0  0  0  0  0  0
  -26.0452  -29.4278   20.7136 C   0  0  0  0  0  0
  -27.2298  -28.6362   20.7139 C   0  0  0  0  0  0
  -26.0592  -26.9155   19.4686 C   0  0  0  0  0  0
  -24.8841  -27.6910   19.4751 C   0  0  0  0  0  0
  -23.6407  -29.8179   20.1598 C   0  0  0  0  0  0
  -25.4121  -36.3138   24.0296 C   0  0  1  0  0  0
  -20.5894  -28.3728   23.1287 C   0  0  2  0  0  0
  -20.6766  -26.9453   22.5402 C   0  0  0  0  0  0
  -19.5733  -26.6419   21.5213 C   0  0  0  0  0  0
  -18.1918  -26.7966   22.1633 C   0  0  0  0  0  0
  -19.1541  -28.8894   23.2899 C   0  0  0  0  0  0
  -18.9446  -30.1485   23.8922 C   0  0  0  0  0  0
  -17.6430  -30.6602   24.0583 C   0  0  0  0  0  0
  -25.9050  -34.9495   23.5086 C   0  0  0  0  0  0
  -16.5333  -29.9088   23.6335 C   0  0  0  0  0  0
  -16.7266  -28.6509   23.0352 C   0  0  0  0  0  0
  -26.4445  -31.6632   25.0688 C   0  0  0  0  0  0
  -25.3632  -31.3751   26.1374 C   0  0  0  0  0  0
  -27.0281  -30.3049   24.6136 C   0  0  0  0  0  0
  -27.6024  -32.4382   25.7413 C   0  0  0  0  0  0
  -27.5585  -37.1811   24.8451 C   0  0  0  0  0  0
  -21.4244  -29.3057   22.3688 N   0  0  0  0  0  0
  -26.4312  -37.3826   23.9385 N   0  0  0  0  0  0
  -24.6891  -31.0646   22.0941 N   0  0  0  0  0  0
  -23.4242  -28.8173   23.3029 O   0  0  0  0  0  0
  -28.3284  -26.4435   20.1985 O   0  0  0  0  0  0
  -26.5672  -34.8968   22.4685 O   0  0  0  0  0  0
  -23.5418  -32.1439   23.7281 O   0  0  0  0  0  0
  -28.1132  -25.1161   20.7311 C   0  0  0  0  0  0
  -32.8594  -25.5502   21.3694 C   0  0  0  0  0  0
  -29.0978  -22.7848   19.8271 C   0  0  0  0  0  0
  -30.3707  -17.1726   21.0359 C   0  0  0  0  0  0
  -31.4671  -24.9584   21.6731 C   0  0  0  0  0  0
  -30.0430  -21.4924   19.8938 C   0  0  0  0  0  0
  -29.8384  -18.3297   20.0727 C   0  0  0  0  0  0
  -29.3306  -24.0885   20.7292 C   0  0  1  0  0  0
  -29.9304  -15.7450   20.8119 N   0  0  0  0  0  0
  -30.5974  -24.8260   20.4768 N   0  3  0  0  0  0
  -27.0380  -24.7695   21.2295 O   0  0  0  0  0  0
  -29.4637  -19.9977   20.8967 S   0  0  0  0  0  0
  -31.5109  -12.5166   19.1771 H   0  0  0  0  0  0
  -30.4040  -11.4089   19.9269 H   0  0  0  0  0  0
  -29.8193  -11.7735   17.4827 H   0  0  0  0  0  0
  -29.6816  -13.4834   17.7662 H   0  0  0  0  0  0
  -27.9150  -11.2788   18.8952 H   0  0  0  0  0  0
  -27.4102  -12.5518   17.8007 H   0  0  0  0  0  0
  -27.6837  -14.2469   19.4926 H   0  0  0  0  0  0
  -28.7168  -12.1153   21.4168 H   0  0  0  0  0  0
  -28.4537  -13.7904   21.8176 H   0  0  0  0  0  0
  -25.2822   -9.5656   22.4685 H   0  0  0  0  0  0
  -23.9967   -7.4686   22.7470 H   0  0  0  0  0  0
  -21.0842   -8.8892   19.8917 H   0  0  0  0  0  0
  -22.3835  -10.9709   19.6085 H   0  0  0  0  0  0
  -21.2058   -7.6133   23.9719 H   0  0  0  0  0  0
  -21.1423   -6.0503   25.9068 H   0  0  0  0  0  0
  -22.0600   -2.7596   23.2839 H   0  0  0  0  0  0
  -22.3986  -12.0196   22.4941 H   0  0  0  0  0  0
  -21.0957  -13.1397   22.2175 H   0  0  0  0  0  0
  -24.6804  -15.8570   20.4850 H   0  0  0  0  0  0
  -26.2988  -15.6073   20.0439 H   0  0  0  0  0  0
  -26.7145  -32.5514   23.1096 H   0  0  0  0  0  0
  -24.9893  -33.9825   25.0302 H   0  0  0  0  0  0
  -22.7146  -31.2995   21.3964 H   0  0  0  0  0  0
  -23.3760  -35.9650   23.3333 H   0  0  0  0  0  0
  -24.3525  -36.8956   22.2034 H   0  0  0  0  0  0
  -23.7219  -37.6532   23.6663 H   0  0  0  0  0  0
  -26.0849  -31.5713   20.6073 H   0  0  0  0  0  0
  -26.8424  -30.8562   21.9974 H   0  0  0  0  0  0
  -28.1280  -28.9991   21.1953 H   0  0  0  0  0  0
  -26.0316  -25.9497   18.9793 H   0  0  0  0  0  0
  -23.9918  -27.3147   18.9923 H   0  0  0  0  0  0
  -23.7513  -30.5956   19.4023 H   0  0  0  0  0  0
  -22.7666  -29.2361   19.8587 H   0  0  0  0  0  0
  -25.1301  -36.2005   25.0789 H   0  0  0  0  0  0
  -20.9960  -28.3282   24.1415 H   0  0  0  0  0  0
  -20.5654  -26.2362   23.3627 H   0  0  0  0  0  0
  -21.6630  -26.7490   22.1191 H   0  0  0  0  0  0
  -19.6899  -25.6324   21.1236 H   0  0  0  0  0  0
  -19.6615  -27.3264   20.6757 H   0  0  0  0  0  0
  -17.4178  -26.6764   21.4028 H   0  0  0  0  0  0
  -18.0270  -26.0089   22.9001 H   0  0  0  0  0  0
  -19.7895  -30.7327   24.2303 H   0  0  0  0  0  0
  -17.4946  -31.6280   24.5198 H   0  0  0  0  0  0
  -15.5323  -30.2978   23.7636 H   0  0  0  0  0  0
  -15.8672  -28.0838   22.7030 H   0  0  0  0  0  0
  -24.5788  -30.7181   25.7585 H   0  0  0  0  0  0
  -24.8839  -32.2919   26.4819 H   0  0  0  0  0  0
  -25.7853  -30.8825   27.0137 H   0  0  0  0  0  0
  -26.2827  -29.6812   24.1180 H   0  0  0  0  0  0
  -27.3985  -29.7312   25.4643 H   0  0  0  0  0  0
  -27.8711  -30.4325   23.9340 H   0  0  0  0  0  0
  -27.2640  -33.3694   26.1970 H   0  0  0  0  0  0
  -28.3770  -32.6940   25.0164 H   0  0  0  0  0  0
  -28.0765  -31.8529   26.5303 H   0  0  0  0  0  0
  -28.2622  -38.0090   24.7544 H   0  0  0  0  0  0
  -28.1064  -36.2634   24.6248 H   0  0  0  0  0  0
  -27.2315  -37.1441   25.8856 H   0  0  0  0  0  0
  -20.9432  -29.8755   21.6871 H   0  0  0  0  0  0
  -26.0226  -38.2922   24.1372 H   0  0  0  0  0  0
  -33.4473  -25.6435   22.2849 H   0  0  0  0  0  0
  -32.7906  -26.5430   20.9238 H   0  0  0  0  0  0
  -33.4261  -24.9201   20.6845 H   0  0  0  0  0  0
  -28.0745  -22.4411   19.9785 H   0  0  0  0  0  0
  -29.1055  -23.1330   18.7939 H   0  0  0  0  0  0
  -30.0530  -17.4087   22.0498 H   0  0  0  0  0  0
  -31.4596  -17.2202   21.0689 H   0  0  0  0  0  0
  -30.9565  -25.5860   22.4099 H   0  0  0  0  0  0
  -31.5983  -23.9772   22.1386 H   0  0  0  0  0  0
  -31.0384  -21.7875   20.2268 H   0  0  0  0  0  0
  -30.1978  -21.1427   18.8695 H   0  0  0  0  0  0
  -28.9155  -17.9925   19.5968 H   0  0  0  0  0  0
  -30.5502  -18.4895   19.2616 H   0  0  0  0  0  0
  -29.3760  -23.7165   21.7551 H   0  0  0  0  0  0
  -28.9764  -15.5422   21.0718 H   0  0  0  0  0  0
  -31.1088  -24.3776   19.7356 H   0  0  0  0  0  0
  -30.3469  -25.7504   20.1519 H   0  0  0  0  0  0
  1 25  1  0  0  0
  1 30  2  0  0  0
  1 79  1  0  0  0
  2  3  1  0  0  0
  2 25  1  0  0  0
  2 83  1  0  0  0
  2 84  1  0  0  0
  3  4  1  0  0  0
  3 85  1  0  0  0
  3 86  1  0  0  0
  4  5  1  0  0  0
  4 87  1  0  0  0
  4 88  1  0  0  0
  5  6  1  0  0  0
  5 26  1  0  0  0
  5 89  1  0  0  0
  6 25  1  0  0  0
  6 90  1  0  0  0
  6 91  1  0  0  0
  7  8  2  0  0  0
  7 26  1  0  0  0
  7 29  1  0  0  0
  8  9  1  0  0  0
  8 22  1  0  0  0
  9 10  1  0  0  0
  9 27  2  0  0  0
 10 11  2  0  0  0
 10 15  1  0  0  0
 11 12  1  0  0  0
 11 92  1  0  0  0
 12 13  2  0  0  0
 12 93  1  0  0  0
 13 14  1  0  0  0
 13 31  1  0  0  0
 14 15  2  0  0  0
 14 94  1  0  0  0
 15 95  1  0  0  0
 16 17  2  0  0  0
 16 21  1  0  0  0
 16 31  1  0  0  0
 17 18  1  0  0  0
 17 96  1  0  0  0
 18 19  2  0  0  0
 18 97  1  0  0  0
 19 20  1  0  0  0
 19 24  1  0  0  0
 20 21  2  0  0  0
 20 98  1  0  0  0
 21 23  1  0  0  0
 22 28  1  0  0  0
 22 32  2  0  0  0
 26 27  1  0  0  0
 28 99  1  0  0  0
 28100  1  0  0  0
 29101  1  0  0  0
 29102  1  0  0  0
 33 34  1  0  0  0
 33 66  1  0  0  0
 33 70  2  0  0  0
 34 36  1  0  0  0
 34 59  1  0  0  0
 34103  1  0  0  0
 35 44  2  0  0  0
 35 45  1  0  0  0
 35 68  1  0  0  0
 36 56  1  0  0  0
 36104  1  0  0  0
 37 39  1  0  0  0
 37 47  1  0  0  0
 37 66  1  0  0  0
 37105  1  0  0  0
 38 43  2  0  0  0
 38 46  1  0  0  0
 38 47  1  0  0  0
 39 64  1  0  0  0
 39 67  2  0  0  0
 40 52  1  0  0  0
 40 53  2  0  0  0
 40 58  1  0  0  0
 41106  1  0  0  0
 41107  1  0  0  0
 41108  1  0  0  0
 41 48  1  0  0  0
 42 43  1  0  0  0
 42 66  1  0  0  0
 42109  1  0  0  0
 42110  1  0  0  0
 43 44  1  0  0  0
 44111  1  0  0  0
 45 46  2  0  0  0
 45112  1  0  0  0
 46113  1  0  0  0
 47114  1  0  0  0
 47115  1  0  0  0
 48 56  1  0  0  0
 48 65  1  0  0  0
 48116  1  0  0  0
 49 50  1  0  0  0
 49 53  1  0  0  0
 49 64  1  0  0  0
 49117  1  0  0  0
 50 51  1  0  0  0
 50118  1  0  0  0
 50119  1  0  0  0
 51 52  1  0  0  0
 51120  1  0  0  0
 51121  1  0  0  0
 52122  1  0  0  0
 52123  1  0  0  0
 53 54  1  0  0  0
 54 55  2  0  0  0
 54124  1  0  0  0
 55 57  1  0  0  0
 55125  1  0  0  0
 56 69  2  0  0  0
 57 58  2  0  0  0
 57126  1  0  0  0
 58127  1  0  0  0
 59 60  1  0  0  0
 59 61  1  0  0  0
 59 62  1  0  0  0
 60128  1  0  0  0
 60129  1  0  0  0
 60130  1  0  0  0
 61131  1  0  0  0
 61132  1  0  0  0
 61133  1  0  0  0
 62134  1  0  0  0
 62135  1  0  0  0
 62136  1  0  0  0
 63 65  1  0  0  0
 63137  1  0  0  0
 63138  1  0  0  0
 63139  1  0  0  0
 64140  1  0  0  0
 65141  1  0  0  0
 68 71  1  0  0  0
 71 78  1  0  0  0
 71 81  2  0  0  0
 72 75  1  0  0  0
 72142  1  0  0  0
 72143  1  0  0  0
 72144  1  0  0  0
 73 76  1  0  0  0
 73145  1  0  0  0
 73146  1  0  0  0
 73 78  1  0  0  0
 74 77  1  0  0  0
 74 79  1  0  0  0
 74147  1  0  0  0
 74148  1  0  0  0
 75 80  1  0  0  0
 75149  1  0  0  0
 75150  1  0  0  0
 76 82  1  0  0  0
 76151  1  0  0  0
 76152  1  0  0  0
 77 82  1  0  0  0
 77153  1  0  0  0
 77154  1  0  0  0
 78 80  1  0  0  0
 78155  1  0  0  0
 79156  1  0  0  0
 80157  1  0  0  0
 80158  1  0  0  0
M  CHG  1  80   1
M  ISO  4   1 100  68 101  71 101  79 100
M  END
> <chiral flag>
0

> <version>
0

> <s_m_source_file>
/data/baiqing/PycharmProjects/Reinvent-master-3.2/result/LINK_invent/BTK/process_docking_weight1_custom_product_contain_oxygen_bond_distance_aromatic_linkinvent_7_9_3/rearranged_h_0002.sdf

> <i_m_source_file_index>
54

> <r_mmod_Potential_Energy-OPLS-2005>
-157.774291992188

> <r_mmod_Stretch_Energy-OPLS-2005>
95.3955535888672

> <r_mmod_Bend_Energy-OPLS-2005>
157.250335693359

> <r_mmod_Torsional_Energy-OPLS-2005>
238.690078735352

> <r_mmod_Improper_Torsional_Energy-OPLS-2005>
4.34961128234863

> <r_mmod_Van_der_Waal_Energy-OPLS-2005>
121.669052124023

> <r_mmod_Electrostatic_Energy-OPLS-2005>
-346.612640380859

> <r_mmod_Solvation_Energy-OPLS-2005>
-481.577606201172

> <b_mmod_Minimization_Converged-OPLS-2005>
0

> <r_mmod_RMS_Derivative-OPLS-2005>
7.11610460281372

$$$$
54
                    3D
 Structure written by MMmdl.
144152  0  0  1  0            999 V2000
  -30.3021  -15.5932   20.3329 C   0  0  0  0  0  0
  -30.4326  -13.0479   19.5373 C   0  0  0  0  0  0
  -29.5520  -12.6461   18.3194 C   0  0  0  0  0  0
  -28.1210  -12.2991   18.7600 C   0  0  0  0  0  0
  -27.5995  -13.3023   19.8140 C   0  0  2  0  0  0
  -28.6192  -13.6098   20.9351 C   0  0  0  0  0  0
  -25.2337  -13.8274   20.5781 C   0  0  0  0  0  0
  -24.1722  -13.0430   20.9285 C   0  0  0  0  0  0
  -24.6417  -11.6940   20.8764 C   0  0  0  0  0  0
  -23.9117  -10.4290   21.0399 C   0  0  0  0  0  0
  -24.3652   -9.4203   21.9181 C   0  0  0  0  0  0
  -23.6312   -8.2246   22.0754 C   0  0  0  0  0  0
  -22.4292   -8.0288   21.3546 C   0  0  0  0  0  0
  -21.9939   -9.0264   20.4645 C   0  0  0  0  0  0
  -22.7284  -10.2134   20.3051 C   0  0  0  0  0  0
  -21.6858   -6.0741   22.5279 C   0  0  0  0  0  0
  -21.4018   -6.5643   23.8213 C   0  0  0  0  0  0
  -21.3661   -5.6794   24.9174 C   0  0  0  0  0  0
  -21.6044   -4.3056   24.7224 C   0  0  0  0  0  0
  -21.8818   -3.8150   23.4344 C   0  0  0  0  0  0
  -21.9194   -4.6968   22.3402 C   0  0  0  0  0  0
  -22.7734  -13.5165   21.1921 C   0  0  0  0  0  0
  -22.1661   -4.2153   21.0979 F   0  0  0  0  0  0
  -21.5627   -3.4539   25.7736 F   0  0  0  0  0  0
  -29.8007  -14.2227   20.2856 N   0  0  0  0  0  0
  -26.2785  -12.9597   20.3223 N   0  0  0  0  0  0
  -25.9362  -11.6674   20.5699 N   0  0  0  0  0  0
  -22.0396  -12.8143   22.0473 N   0  0  0  0  0  0
  -25.3915  -15.2015   20.4212 N   0  0  0  0  0  0
  -31.5371  -15.5643   20.1684 O   0  0  0  0  0  0
  -21.6647   -6.8889   21.4243 O   0  0  0  0  0  0
  -22.3409  -14.5464   20.6757 O   0  0  0  0  0  0
  -24.6831  -31.8011   23.1526 C   0  0  0  0  0  0
  -25.9415  -32.4474   23.8070 C   0  0  1  0  0  0
  -27.2274  -26.7157   20.2118 C   0  0  0  0  0  0
  -25.5996  -33.8299   24.1956 N   0  0  0  0  0  0
  -23.5088  -30.4037   21.5064 C   0  0  2  0  0  0
  -24.9668  -28.7480   20.1182 C   0  0  0  0  0  0
  -22.7764  -29.4322   22.4715 C   0  0  0  0  0  0
  -18.0338  -28.1421   22.8455 C   0  0  0  0  0  0
  -24.1496  -36.7158   23.2652 C   0  0  0  0  0  0
  -26.0894  -30.5386   21.4154 C   0  0  0  0  0  0
  -26.1562  -29.1049   20.7648 C   0  0  0  0  0  0
  -27.2730  -28.1167   20.7789 C   0  0  0  0  0  0
  -26.0047  -26.5663   19.5091 C   0  0  0  0  0  0
  -24.9293  -27.5037   19.4667 C   0  0  0  0  0  0
  -23.7624  -29.7017   20.1415 C   0  0  0  0  0  0
  -25.4146  -36.2900   24.0282 C   0  0  1  0  0  0
  -20.5974  -28.3781   23.1142 C   0  0  2  0  0  0
  -20.6805  -26.9441   22.5403 C   0  0  0  0  0  0
  -19.5781  -26.6371   21.5216 C   0  0  0  0  0  0
  -18.1964  -26.7949   22.1619 C   0  0  0  0  0  0
  -19.1605  -28.8925   23.2779 C   0  0  0  0  0  0
  -18.9510  -30.1509   23.8825 C   0  0  0  0  0  0
  -17.6500  -30.6604   24.0550 C   0  0  0  0  0  0
  -25.9124  -34.9289   23.4955 C   0  0  0  0  0  0
  -16.5389  -29.9086   23.6350 C   0  0  0  0  0  0
  -16.7318  -28.6508   23.0366 C   0  0  0  0  0  0
  -26.4594  -31.6505   25.0689 C   0  0  0  0  0  0
  -25.3661  -31.3820   26.1304 C   0  0  0  0  0  0
  -27.0525  -30.2844   24.6583 C   0  0  0  0  0  0
  -27.6042  -32.4365   25.7508 C   0  0  0  0  0  0
  -27.5564  -37.1737   24.8466 C   0  0  0  0  0  0
  -21.4412  -29.3030   22.3464 N   0  0  0  0  0  0
  -26.4273  -37.3659   23.9406 N   0  0  0  0  0  0
  -24.7838  -30.9469   22.0774 N   0  0  0  0  0  0
  -23.4211  -28.7922   23.3056 O   0  0  0  0  0  0
  -28.1833  -25.4944   20.2808 O   0  0  0  0  0  0
  -26.5764  -34.8864   22.4572 O   0  0  0  0  0  0
  -23.5852  -32.1079   23.6486 O   0  0  0  0  0  0
  -29.2152  -21.2102   21.2850 C   0  0  0  0  0  0
  -28.4680  -20.9815   19.2114 C   0  0  0  0  0  0
  -29.5547  -19.7084   21.3189 C   0  0  0  0  0  0
  -28.7956  -19.4896   19.2463 C   0  0  0  0  0  0
  -28.6202  -22.0723   20.2165 C   0  0  0  0  0  0
  -29.3952  -18.6241   20.2984 C   0  0  0  0  0  0
  -27.8596  -23.7811   20.1605 C   0  0  0  0  0  0
  -29.4728  -16.9054   20.3744 N   0  0  0  0  0  0
  -31.4270  -13.3120   19.1754 H   0  0  0  0  0  0
  -30.5883  -12.1960   20.2015 H   0  0  0  0  0  0
  -29.9972  -11.8055   17.7855 H   0  0  0  0  0  0
  -29.5208  -13.4766   17.6126 H   0  0  0  0  0  0
  -28.1388  -11.2971   19.1903 H   0  0  0  0  0  0
  -27.4518  -12.2545   17.8999 H   0  0  0  0  0  0
  -27.4696  -14.2308   19.2564 H   0  0  0  0  0  0
  -28.8689  -12.7178   21.5116 H   0  0  0  0  0  0
  -28.1952  -14.3242   21.6424 H   0  0  0  0  0  0
  -25.2792   -9.5675   22.4765 H   0  0  0  0  0  0
  -24.0012   -7.4637   22.7479 H   0  0  0  0  0  0
  -21.0869   -8.8793   19.8951 H   0  0  0  0  0  0
  -22.3745  -10.9677   19.6162 H   0  0  0  0  0  0
  -21.2013   -7.6151   23.9718 H   0  0  0  0  0  0
  -21.1483   -6.0523   25.9077 H   0  0  0  0  0  0
  -22.0595   -2.7612   23.2843 H   0  0  0  0  0  0
  -22.4036  -11.9820   22.4872 H   0  0  0  0  0  0
  -21.1003  -13.1140   22.2670 H   0  0  0  0  0  0
  -24.6148  -15.8447   20.5307 H   0  0  0  0  0  0
  -26.2216  -15.6451   20.0524 H   0  0  0  0  0  0
  -26.7498  -32.4951   23.0785 H   0  0  0  0  0  0
  -25.0053  -33.9339   25.0048 H   0  0  0  0  0  0
  -22.8336  -31.2408   21.3174 H   0  0  0  0  0  0
  -23.3775  -35.9470   23.3267 H   0  0  0  0  0  0
  -24.3564  -36.8867   22.2076 H   0  0  0  0  0  0
  -23.7240  -37.6318   23.6760 H   0  0  0  0  0  0
  -26.2912  -31.2650   20.6272 H   0  0  0  0  0  0
  -26.9406  -30.6057   22.0807 H   0  0  0  0  0  0
  -28.1680  -28.3958   21.3169 H   0  0  0  0  0  0
  -25.8372  -25.6248   19.0063 H   0  0  0  0  0  0
  -24.0317  -27.2214   18.9338 H   0  0  0  0  0  0
  -23.9365  -30.4623   19.3796 H   0  0  0  0  0  0
  -22.8675  -29.1676   19.8174 H   0  0  0  0  0  0
  -25.1355  -36.1664   25.0772 H   0  0  0  0  0  0
  -21.0055  -28.3406   24.1269 H   0  0  0  0  0  0
  -20.5670  -26.2405   23.3665 H   0  0  0  0  0  0
  -21.6667  -26.7385   22.1221 H   0  0  0  0  0  0
  -19.6938  -25.6262   21.1294 H   0  0  0  0  0  0
  -19.6725  -27.3140   20.6714 H   0  0  0  0  0  0
  -17.4233  -26.6689   21.4023 H   0  0  0  0  0  0
  -18.0354  -26.0109   22.9033 H   0  0  0  0  0  0
  -19.7985  -30.7344   24.2163 H   0  0  0  0  0  0
  -17.5050  -31.6276   24.5167 H   0  0  0  0  0  0
  -15.5386  -30.2965   23.7716 H   0  0  0  0  0  0
  -15.8719  -28.0803   22.7123 H   0  0  0  0  0  0
  -24.5869  -30.7145   25.7603 H   0  0  0  0  0  0
  -24.8823  -32.3041   26.4534 H   0  0  0  0  0  0
  -25.7838  -30.9110   27.0211 H   0  0  0  0  0  0
  -26.3240  -29.6459   24.1575 H   0  0  0  0  0  0
  -27.3954  -29.7289   25.5322 H   0  0  0  0  0  0
  -27.9220  -30.3970   24.0106 H   0  0  0  0  0  0
  -27.2581  -33.3734   26.1884 H   0  0  0  0  0  0
  -28.3957  -32.6817   25.0414 H   0  0  0  0  0  0
  -28.0596  -31.8630   26.5592 H   0  0  0  0  0  0
  -28.2551  -38.0060   24.7511 H   0  0  0  0  0  0
  -28.1090  -36.2582   24.6297 H   0  0  0  0  0  0
  -27.2278  -37.1377   25.8867 H   0  0  0  0  0  0
  -20.9716  -29.8686   21.6531 H   0  0  0  0  0  0
  -26.0101  -38.2707   24.1416 H   0  0  0  0  0  0
  -29.3875  -21.7246   22.2200 H   0  0  0  0  0  0
  -27.9811  -21.2980   18.2995 H   0  0  0  0  0  0
  -29.9269  -19.3646   22.2737 H   0  0  0  0  0  0
  -28.4989  -18.9566   18.3538 H   0  0  0  0  0  0
  -27.0553  -23.6708   20.8879 H   0  0  0  0  0  0
  -27.3414  -23.7369   19.2027 H   0  0  0  0  0  0
  -28.5226  -16.5669   20.4124 H   0  0  0  0  0  0
  1 25  1  0  0  0
  1 30  2  0  0  0
  1 78  1  0  0  0
  2  3  1  0  0  0
  2 25  1  0  0  0
  2 79  1  0  0  0
  2 80  1  0  0  0
  3  4  1  0  0  0
  3 81  1  0  0  0
  3 82  1  0  0  0
  4  5  1  0  0  0
  4 83  1  0  0  0
  4 84  1  0  0  0
  5  6  1  0  0  0
  5 26  1  0  0  0
  5 85  1  0  0  0
  6 25  1  0  0  0
  6 86  1  0  0  0
  6 87  1  0  0  0
  7  8  2  0  0  0
  7 26  1  0  0  0
  7 29  1  0  0  0
  8  9  1  0  0  0
  8 22  1  0  0  0
  9 10  1  0  0  0
  9 27  2  0  0  0
 10 11  2  0  0  0
 10 15  1  0  0  0
 11 12  1  0  0  0
 11 88  1  0  0  0
 12 13  2  0  0  0
 12 89  1  0  0  0
 13 14  1  0  0  0
 13 31  1  0  0  0
 14 15  2  0  0  0
 14 90  1  0  0  0
 15 91  1  0  0  0
 16 17  2  0  0  0
 16 21  1  0  0  0
 16 31  1  0  0  0
 17 18  1  0  0  0
 17 92  1  0  0  0
 18 19  2  0  0  0
 18 93  1  0  0  0
 19 20  1  0  0  0
 19 24  1  0  0  0
 20 21  2  0  0  0
 20 94  1  0  0  0
 21 23  1  0  0  0
 22 28  1  0  0  0
 22 32  2  0  0  0
 26 27  1  0  0  0
 28 95  1  0  0  0
 28 96  1  0  0  0
 29 97  1  0  0  0
 29 98  1  0  0  0
 33 34  1  0  0  0
 33 66  1  0  0  0
 33 70  2  0  0  0
 34 36  1  0  0  0
 34 59  1  0  0  0
 34 99  1  0  0  0
 35 44  2  0  0  0
 35 45  1  0  0  0
 35 68  1  0  0  0
 36 56  1  0  0  0
 36100  1  0  0  0
 37 39  1  0  0  0
 37 47  1  0  0  0
 37 66  1  0  0  0
 37101  1  0  0  0
 38 43  2  0  0  0
 38 46  1  0  0  0
 38 47  1  0  0  0
 39 64  1  0  0  0
 39 67  2  0  0  0
 40 52  1  0  0  0
 40 53  2  0  0  0
 40 58  1  0  0  0
 41102  1  0  0  0
 41103  1  0  0  0
 41104  1  0  0  0
 41 48  1  0  0  0
 42 43  1  0  0  0
 42 66  1  0  0  0
 42105  1  0  0  0
 42106  1  0  0  0
 43 44  1  0  0  0
 44107  1  0  0  0
 45 46  2  0  0  0
 45108  1  0  0  0
 46109  1  0  0  0
 47110  1  0  0  0
 47111  1  0  0  0
 48 56  1  0  0  0
 48 65  1  0  0  0
 48112  1  0  0  0
 49 50  1  0  0  0
 49 53  1  0  0  0
 49 64  1  0  0  0
 49113  1  0  0  0
 50 51  1  0  0  0
 50114  1  0  0  0
 50115  1  0  0  0
 51 52  1  0  0  0
 51116  1  0  0  0
 51117  1  0  0  0
 52118  1  0  0  0
 52119  1  0  0  0
 53 54  1  0  0  0
 54 55  2  0  0  0
 54120  1  0  0  0
 55 57  1  0  0  0
 55121  1  0  0  0
 56 69  2  0  0  0
 57 58  2  0  0  0
 57122  1  0  0  0
 58123  1  0  0  0
 59 60  1  0  0  0
 59 61  1  0  0  0
 59 62  1  0  0  0
 60124  1  0  0  0
 60125  1  0  0  0
 60126  1  0  0  0
 61127  1  0  0  0
 61128  1  0  0  0
 61129  1  0  0  0
 62130  1  0  0  0
 62131  1  0  0  0
 62132  1  0  0  0
 63 65  1  0  0  0
 63133  1  0  0  0
 63134  1  0  0  0
 63135  1  0  0  0
 64136  1  0  0  0
 65137  1  0  0  0
 68 77  1  0  0  0
 71 73  2  0  0  0
 71 75  1  0  0  0
 71138  1  0  0  0
 72 74  1  0  0  0
 72 75  2  0  0  0
 72139  1  0  0  0
 73 76  1  0  0  0
 73140  1  0  0  0
 74 76  2  0  0  0
 74141  1  0  0  0
 75 77  1  0  0  0
 76 78  1  0  0  0
 77142  1  0  0  0
 77143  1  0  0  0
 78144  1  0  0  0
M  ISO  4   1 100  68 101  77 101  78 100
M  END
> <chiral flag>
0

> <version>
0

> <s_m_source_file>
/data/baiqing/PycharmProjects/Reinvent-master-3.2/result/LINK_invent/BTK/process_docking_weight1_custom_product_contain_oxygen_bond_distance_aromatic_linkinvent_7_9_3/rearranged_h_0002.sdf

> <i_m_source_file_index>
55

> <r_mmod_Potential_Energy-OPLS-2005>
2267.25439453125

> <r_mmod_Stretch_Energy-OPLS-2005>
909.600280761719

> <r_mmod_Bend_Energy-OPLS-2005>
657.110290527344

> <r_mmod_Torsional_Energy-OPLS-2005>
259.846252441406

> <r_mmod_Improper_Torsional_Energy-OPLS-2005>
10.6979417800903

> <r_mmod_Van_der_Waal_Energy-OPLS-2005>
132.425323486328

> <r_mmod_Electrostatic_Energy-OPLS-2005>
-345.95654296875

> <r_mmod_Solvation_Energy-OPLS-2005>
-215.57307434082

> <b_mmod_Minimization_Converged-OPLS-2005>
0

> <r_mmod_RMS_Derivative-OPLS-2005>
0.113339096307755

$$$$
55
                    3D
 Structure written by MMmdl.
163172  0  0  1  0            999 V2000
  -30.7055  -14.4513   20.5750 C   0  0  0  0  0  0
  -30.4190  -12.2917   19.4252 C   0  0  0  0  0  0
  -29.4952  -12.5072   18.2088 C   0  0  0  0  0  0
  -28.0151  -12.3699   18.6177 C   0  0  0  0  0  0
  -27.6629  -13.2056   19.8780 C   0  0  2  0  0  0
  -28.7014  -12.9757   20.9993 C   0  0  0  0  0  0
  -25.2591  -13.8158   20.5683 C   0  0  0  0  0  0
  -24.1835  -13.0438   20.9164 C   0  0  0  0  0  0
  -24.6385  -11.6904   20.8726 C   0  0  0  0  0  0
  -23.9053  -10.4290   21.0398 C   0  0  0  0  0  0
  -24.3609   -9.4210   21.9179 C   0  0  0  0  0  0
  -23.6288   -8.2243   22.0754 C   0  0  0  0  0  0
  -22.4270   -8.0278   21.3545 C   0  0  0  0  0  0
  -21.9903   -9.0246   20.4643 C   0  0  0  0  0  0
  -22.7228  -10.2125   20.3046 C   0  0  0  0  0  0
  -21.6852   -6.0733   22.5280 C   0  0  0  0  0  0
  -21.4012   -6.5639   23.8214 C   0  0  0  0  0  0
  -21.3659   -5.6790   24.9175 C   0  0  0  0  0  0
  -21.6044   -4.3052   24.7226 C   0  0  0  0  0  0
  -21.8819   -3.8145   23.4344 C   0  0  0  0  0  0
  -21.9194   -4.6962   22.3400 C   0  0  0  0  0  0
  -22.7858  -13.5239   21.1832 C   0  0  0  0  0  0
  -22.1661   -4.2148   21.0977 F   0  0  0  0  0  0
  -21.5630   -3.4533   25.7735 F   0  0  0  0  0  0
  -30.0376  -13.2726   20.4534 N   0  0  0  0  0  0
  -26.3025  -12.9326   20.3372 N   0  0  0  0  0  0
  -25.9313  -11.6485   20.5761 N   0  0  0  0  0  0
  -22.0494  -12.8222   22.0374 N   0  0  0  0  0  0
  -25.4329  -15.1876   20.4110 N   0  0  0  0  0  0
  -31.8316  -14.6223   20.0991 O   0  0  0  0  0  0
  -21.6638   -6.8873   21.4240 O   0  0  0  0  0  0
  -22.3553  -14.5559   20.6700 O   0  0  0  0  0  0
  -24.6109  -31.8698   23.2117 C   0  0  0  0  0  0
  -25.9012  -32.4836   23.8407 C   0  0  1  0  0  0
  -27.2470  -27.4515   20.1057 C   0  0  0  0  0  0
  -25.5876  -33.8633   24.2342 N   0  0  0  0  0  0
  -23.3998  -30.4910   21.5502 C   0  0  2  0  0  0
  -24.8515  -28.9559   20.1186 C   0  0  0  0  0  0
  -22.7396  -29.4663   22.5000 C   0  0  0  0  0  0
  -18.0264  -28.1378   22.8494 C   0  0  0  0  0  0
  -24.1481  -36.7316   23.2628 C   0  0  0  0  0  0
  -25.9243  -30.8404   21.3629 C   0  0  0  0  0  0
  -26.0055  -29.4714   20.7216 C   0  0  0  0  0  0
  -27.2046  -28.7256   20.7229 C   0  0  0  0  0  0
  -26.0820  -26.9551   19.4877 C   0  0  0  0  0  0
  -24.8826  -27.6932   19.5006 C   0  0  0  0  0  0
  -23.6102  -29.8185   20.1660 C   0  0  0  0  0  0
  -25.4093  -36.3118   24.0345 C   0  0  1  0  0  0
  -20.5853  -28.3656   23.1329 C   0  0  2  0  0  0
  -20.6755  -26.9398   22.5423 C   0  0  0  0  0  0
  -19.5739  -26.6395   21.5213 C   0  0  0  0  0  0
  -18.1915  -26.7929   22.1620 C   0  0  0  0  0  0
  -19.1514  -28.8834   23.2911 C   0  0  0  0  0  0
  -18.9446  -30.1441   23.8919 C   0  0  0  0  0  0
  -17.6449  -30.6585   24.0572 C   0  0  0  0  0  0
  -25.9029  -34.9486   23.5145 C   0  0  0  0  0  0
  -16.5338  -29.9090   23.6328 C   0  0  0  0  0  0
  -16.7254  -28.6509   23.0343 C   0  0  0  0  0  0
  -26.4457  -31.6598   25.0717 C   0  0  0  0  0  0
  -25.3740  -31.3686   26.1476 C   0  0  0  0  0  0
  -27.0287  -30.3051   24.6056 C   0  0  0  0  0  0
  -27.6043  -32.4306   25.7473 C   0  0  0  0  0  0
  -27.5597  -37.1788   24.8435 C   0  0  0  0  0  0
  -21.4126  -29.3027   22.3740 N   0  0  0  0  0  0
  -26.4270  -37.3814   23.9442 N   0  0  0  0  0  0
  -24.6628  -31.0812   22.1009 N   0  0  0  0  0  0
  -23.4181  -28.8211   23.3035 O   0  0  0  0  0  0
  -28.3762  -26.6642   20.0453 O   0  0  0  0  0  0
  -26.5599  -34.8934   22.4711 O   0  0  0  0  0  0
  -23.5308  -32.1436   23.7526 O   0  0  0  0  0  0
  -31.0996  -18.8866   20.0095 C   0  0  0  0  0  0
  -29.4333  -19.1031   21.7596 C   0  0  0  0  0  0
  -31.0284  -17.4829   20.1081 C   0  0  0  0  0  0
  -29.3628  -17.6944   21.8609 C   0  0  0  0  0  0
  -30.3058  -19.7137   20.8317 C   0  0  0  0  0  0
  -30.1623  -16.8624   21.0431 C   0  0  0  0  0  0
  -29.1379  -21.9605   20.3004 C   0  0  0  0  0  0
  -30.9500  -21.8961   21.9978 C   0  0  0  0  0  0
  -29.3905  -23.4762   20.0898 C   0  0  0  0  0  0
  -31.2087  -23.3986   21.7679 C   0  0  0  0  0  0
  -30.4319  -21.2367   20.7139 C   0  0  1  0  0  0
  -30.3302  -25.5813   21.0470 C   0  0  0  0  0  0
  -29.1562  -26.5684   21.2355 C   0  0  0  0  0  0
  -30.0132  -15.4429   21.1722 N   0  0  0  0  0  0
  -30.0071  -24.1374   21.2787 N   0  3  1  0  0  0
  -31.4658  -12.3787   19.1286 H   0  0  0  0  0  0
  -30.3063  -11.2791   19.8157 H   0  0  0  0  0  0
  -29.7343  -11.7905   17.4220 H   0  0  0  0  0  0
  -29.6687  -13.4976   17.7838 H   0  0  0  0  0  0
  -27.8220  -11.3134   18.8085 H   0  0  0  0  0  0
  -27.3664  -12.6497   17.7868 H   0  0  0  0  0  0
  -27.7109  -14.2554   19.5876 H   0  0  0  0  0  0
  -28.6693  -11.9382   21.3353 H   0  0  0  0  0  0
  -28.4613  -13.5696   21.8818 H   0  0  0  0  0  0
  -25.2755   -9.5688   22.4749 H   0  0  0  0  0  0
  -24.0002   -7.4635   22.7471 H   0  0  0  0  0  0
  -21.0837   -8.8755   19.8947 H   0  0  0  0  0  0
  -22.3689  -10.9655   19.6147 H   0  0  0  0  0  0
  -21.2000   -7.6148   23.9718 H   0  0  0  0  0  0
  -21.1481   -6.0518   25.9079 H   0  0  0  0  0  0
  -22.0597   -2.7607   23.2841 H   0  0  0  0  0  0
  -22.4099  -11.9866   22.4736 H   0  0  0  0  0  0
  -21.1107  -13.1241   22.2569 H   0  0  0  0  0  0
  -24.6693  -15.8459   20.5202 H   0  0  0  0  0  0
  -26.2934  -15.6262   20.1069 H   0  0  0  0  0  0
  -26.7086  -32.5570   23.1183 H   0  0  0  0  0  0
  -25.0015  -33.9796   25.0480 H   0  0  0  0  0  0
  -22.6876  -31.3065   21.4088 H   0  0  0  0  0  0
  -23.3760  -35.9628   23.3250 H   0  0  0  0  0  0
  -24.3598  -36.8965   22.2052 H   0  0  0  0  0  0
  -23.7202  -37.6501   23.6656 H   0  0  0  0  0  0
  -26.0276  -31.6012   20.5878 H   0  0  0  0  0  0
  -26.8151  -30.9042   21.9755 H   0  0  0  0  0  0
  -28.0870  -29.1476   21.1819 H   0  0  0  0  0  0
  -26.1030  -25.9885   19.0042 H   0  0  0  0  0  0
  -23.9974  -27.2902   19.0279 H   0  0  0  0  0  0
  -23.7148  -30.5897   19.4022 H   0  0  0  0  0  0
  -22.7366  -29.2329   19.8733 H   0  0  0  0  0  0
  -25.1257  -36.1973   25.0833 H   0  0  0  0  0  0
  -20.9942  -28.3216   24.1451 H   0  0  0  0  0  0
  -20.5653  -26.2265   23.3608 H   0  0  0  0  0  0
  -21.6629  -26.7447   22.1216 H   0  0  0  0  0  0
  -19.6903  -25.6316   21.1218 H   0  0  0  0  0  0
  -19.6682  -27.3229   20.6763 H   0  0  0  0  0  0
  -17.4192  -26.6684   21.4016 H   0  0  0  0  0  0
  -18.0312  -26.0062   22.9006 H   0  0  0  0  0  0
  -19.7923  -30.7246   24.2301 H   0  0  0  0  0  0
  -17.5009  -31.6266   24.5173 H   0  0  0  0  0  0
  -15.5342  -30.3001   23.7648 H   0  0  0  0  0  0
  -15.8653  -28.0843   22.7039 H   0  0  0  0  0  0
  -24.5899  -30.7048   25.7812 H   0  0  0  0  0  0
  -24.8944  -32.2835   26.4965 H   0  0  0  0  0  0
  -25.8106  -30.8824   27.0208 H   0  0  0  0  0  0
  -26.2821  -29.6821   24.1113 H   0  0  0  0  0  0
  -27.4083  -29.7268   25.4489 H   0  0  0  0  0  0
  -27.8642  -30.4396   23.9183 H   0  0  0  0  0  0
  -27.2673  -33.3600   26.2075 H   0  0  0  0  0  0
  -28.3837  -32.6871   25.0285 H   0  0  0  0  0  0
  -28.0723  -31.8408   26.5365 H   0  0  0  0  0  0
  -28.2517  -38.0182   24.7635 H   0  0  0  0  0  0
  -28.1194  -36.2731   24.6052 H   0  0  0  0  0  0
  -27.2357  -37.1170   25.8838 H   0  0  0  0  0  0
  -20.9283  -29.8751   21.6966 H   0  0  0  0  0  0
  -26.0157  -38.2873   24.1531 H   0  0  0  0  0  0
  -31.7775  -19.3230   19.2892 H   0  0  0  0  0  0
  -28.8144  -19.7125   22.4033 H   0  0  0  0  0  0
  -31.6499  -16.9090   19.4379 H   0  0  0  0  0  0
  -28.6827  -17.2576   22.5791 H   0  0  0  0  0  0
  -28.7542  -21.5290   19.3751 H   0  0  0  0  0  0
  -28.3619  -21.8118   21.0521 H   0  0  0  0  0  0
  -30.2424  -21.7558   22.8160 H   0  0  0  0  0  0
  -31.8791  -21.4178   22.3102 H   0  0  0  0  0  0
  -28.4505  -23.9701   19.8417 H   0  0  0  0  0  0
  -30.0441  -23.6106   19.2262 H   0  0  0  0  0  0
  -32.0202  -23.5194   21.0480 H   0  0  0  0  0  0
  -31.5575  -23.8414   22.7020 H   0  0  0  0  0  0
  -31.1698  -21.4263   19.9318 H   0  0  0  0  0  0
  -31.0806  -25.8782   21.7811 H   0  0  0  0  0  0
  -30.8059  -25.7273   20.0765 H   0  0  0  0  0  0
  -29.5810  -27.5475   21.4582 H   0  0  0  0  0  0
  -28.5377  -26.2880   22.0897 H   0  0  0  0  0  0
  -29.1779  -15.1347   21.6464 H   0  0  0  0  0  0
  -29.3291  -24.0985   22.0270 H   0  0  0  0  0  0
  1 25  1  0  0  0
  1 30  2  0  0  0
  1 84  1  0  0  0
  2  3  1  0  0  0
  2 25  1  0  0  0
  2 86  1  0  0  0
  2 87  1  0  0  0
  3  4  1  0  0  0
  3 88  1  0  0  0
  3 89  1  0  0  0
  4  5  1  0  0  0
  4 90  1  0  0  0
  4 91  1  0  0  0
  5  6  1  0  0  0
  5 26  1  0  0  0
  5 92  1  0  0  0
  6 25  1  0  0  0
  6 93  1  0  0  0
  6 94  1  0  0  0
  7  8  2  0  0  0
  7 26  1  0  0  0
  7 29  1  0  0  0
  8  9  1  0  0  0
  8 22  1  0  0  0
  9 10  1  0  0  0
  9 27  2  0  0  0
 10 11  2  0  0  0
 10 15  1  0  0  0
 11 12  1  0  0  0
 11 95  1  0  0  0
 12 13  2  0  0  0
 12 96  1  0  0  0
 13 14  1  0  0  0
 13 31  1  0  0  0
 14 15  2  0  0  0
 14 97  1  0  0  0
 15 98  1  0  0  0
 16 17  2  0  0  0
 16 21  1  0  0  0
 16 31  1  0  0  0
 17 18  1  0  0  0
 17 99  1  0  0  0
 18 19  2  0  0  0
 18100  1  0  0  0
 19 20  1  0  0  0
 19 24  1  0  0  0
 20 21  2  0  0  0
 20101  1  0  0  0
 21 23  1  0  0  0
 22 28  1  0  0  0
 22 32  2  0  0  0
 26 27  1  0  0  0
 28102  1  0  0  0
 28103  1  0  0  0
 29104  1  0  0  0
 29105  1  0  0  0
 33 34  1  0  0  0
 33 66  1  0  0  0
 33 70  2  0  0  0
 34 36  1  0  0  0
 34 59  1  0  0  0
 34106  1  0  0  0
 35 44  2  0  0  0
 35 45  1  0  0  0
 35 68  1  0  0  0
 36 56  1  0  0  0
 36107  1  0  0  0
 37 39  1  0  0  0
 37 47  1  0  0  0
 37 66  1  0  0  0
 37108  1  0  0  0
 38 43  2  0  0  0
 38 46  1  0  0  0
 38 47  1  0  0  0
 39 64  1  0  0  0
 39 67  2  0  0  0
 40 52  1  0  0  0
 40 53  2  0  0  0
 40 58  1  0  0  0
 41109  1  0  0  0
 41110  1  0  0  0
 41111  1  0  0  0
 41 48  1  0  0  0
 42 43  1  0  0  0
 42 66  1  0  0  0
 42112  1  0  0  0
 42113  1  0  0  0
 43 44  1  0  0  0
 44114  1  0  0  0
 45 46  2  0  0  0
 45115  1  0  0  0
 46116  1  0  0  0
 47117  1  0  0  0
 47118  1  0  0  0
 48 56  1  0  0  0
 48 65  1  0  0  0
 48119  1  0  0  0
 49 50  1  0  0  0
 49 53  1  0  0  0
 49 64  1  0  0  0
 49120  1  0  0  0
 50 51  1  0  0  0
 50121  1  0  0  0
 50122  1  0  0  0
 51 52  1  0  0  0
 51123  1  0  0  0
 51124  1  0  0  0
 52125  1  0  0  0
 52126  1  0  0  0
 53 54  1  0  0  0
 54 55  2  0  0  0
 54127  1  0  0  0
 55 57  1  0  0  0
 55128  1  0  0  0
 56 69  2  0  0  0
 57 58  2  0  0  0
 57129  1  0  0  0
 58130  1  0  0  0
 59 60  1  0  0  0
 59 61  1  0  0  0
 59 62  1  0  0  0
 60131  1  0  0  0
 60132  1  0  0  0
 60133  1  0  0  0
 61134  1  0  0  0
 61135  1  0  0  0
 61136  1  0  0  0
 62137  1  0  0  0
 62138  1  0  0  0
 62139  1  0  0  0
 63 65  1  0  0  0
 63140  1  0  0  0
 63141  1  0  0  0
 63142  1  0  0  0
 64143  1  0  0  0
 65144  1  0  0  0
 68 83  1  0  0  0
 71 73  2  0  0  0
 71 75  1  0  0  0
 71145  1  0  0  0
 72 74  1  0  0  0
 72 75  2  0  0  0
 72146  1  0  0  0
 73 76  1  0  0  0
 73147  1  0  0  0
 74 76  2  0  0  0
 74148  1  0  0  0
 75 81  1  0  0  0
 76 84  1  0  0  0
 77 79  1  0  0  0
 77 81  1  0  0  0
 77149  1  0  0  0
 77150  1  0  0  0
 78 80  1  0  0  0
 78 81  1  0  0  0
 78151  1  0  0  0
 78152  1  0  0  0
 79 85  1  0  0  0
 79153  1  0  0  0
 79154  1  0  0  0
 80 85  1  0  0  0
 80155  1  0  0  0
 80156  1  0  0  0
 81157  1  0  0  0
 82 83  1  0  0  0
 82158  1  0  0  0
 82159  1  0  0  0
 82 85  1  0  0  0
 83160  1  0  0  0
 83161  1  0  0  0
 84162  1  0  0  0
 85163  1  0  0  0
M  CHG  1  85   1
M  ISO  4   1 100  68 101  83 101  84 100
M  END
> <chiral flag>
0

> <version>
0

> <s_m_source_file>
/data/baiqing/PycharmProjects/Reinvent-master-3.2/result/LINK_invent/BTK/process_docking_weight1_custom_product_contain_oxygen_bond_distance_aromatic_linkinvent_7_9_3/rearranged_h_0002.sdf

> <i_m_source_file_index>
56

> <r_mmod_Potential_Energy-OPLS-2005>
-116.643402099609

> <r_mmod_Stretch_Energy-OPLS-2005>
37.8896369934082

> <r_mmod_Bend_Energy-OPLS-2005>
104.207641601562

> <r_mmod_Torsional_Energy-OPLS-2005>
257.503295898438

> <r_mmod_Improper_Torsional_Energy-OPLS-2005>
2.8865077495575

> <r_mmod_Van_der_Waal_Energy-OPLS-2005>
159.701919555664

> <r_mmod_Electrostatic_Energy-OPLS-2005>
-267.300842285156

> <r_mmod_Solvation_Energy-OPLS-2005>
-421.754913330078

> <b_mmod_Minimization_Converged-OPLS-2005>
0

> <r_mmod_RMS_Derivative-OPLS-2005>
0.618270814418793

$$$$
56
                    3D
 Structure written by MMmdl.
151159  0  0  1  0            999 V2000
  -30.5184  -14.9133   20.4488 C   0  0  0  0  0  0
  -30.4537  -12.5641   19.4961 C   0  0  0  0  0  0
  -29.5267  -12.5371   18.2565 C   0  0  0  0  0  0
  -28.0568  -12.3264   18.6694 C   0  0  0  0  0  0
  -27.6400  -13.2395   19.8514 C   0  0  2  0  0  0
  -28.6835  -13.2143   20.9904 C   0  0  0  0  0  0
  -25.2468  -13.8172   20.5628 C   0  0  0  0  0  0
  -24.1792  -13.0419   20.9214 C   0  0  0  0  0  0
  -24.6407  -11.6906   20.8765 C   0  0  0  0  0  0
  -23.9083  -10.4284   21.0418 C   0  0  0  0  0  0
  -24.3628   -9.4197   21.9194 C   0  0  0  0  0  0
  -23.6296   -8.2236   22.0758 C   0  0  0  0  0  0
  -22.4278   -8.0280   21.3546 C   0  0  0  0  0  0
  -21.9919   -9.0257   20.4650 C   0  0  0  0  0  0
  -22.7255  -10.2133   20.3064 C   0  0  0  0  0  0
  -21.6852   -6.0736   22.5279 C   0  0  0  0  0  0
  -21.4014   -6.5640   23.8213 C   0  0  0  0  0  0
  -21.3659   -5.6793   24.9175 C   0  0  0  0  0  0
  -21.6045   -4.3056   24.7225 C   0  0  0  0  0  0
  -21.8819   -3.8147   23.4347 C   0  0  0  0  0  0
  -21.9192   -4.6963   22.3402 C   0  0  0  0  0  0
  -22.7814  -13.5203   21.1870 C   0  0  0  0  0  0
  -22.1662   -4.2149   21.0979 F   0  0  0  0  0  0
  -21.5627   -3.4540   25.7738 F   0  0  0  0  0  0
  -29.9702  -13.6335   20.4127 N   0  0  0  0  0  0
  -26.2929  -12.9407   20.3270 N   0  0  0  0  0  0
  -25.9347  -11.6548   20.5776 N   0  0  0  0  0  0
  -22.0463  -12.8201   22.0434 N   0  0  0  0  0  0
  -25.4061  -15.1875   20.3876 N   0  0  0  0  0  0
  -31.6950  -15.0540   20.0961 O   0  0  0  0  0  0
  -21.6639   -6.8880   21.4242 O   0  0  0  0  0  0
  -22.3498  -14.5508   20.6714 O   0  0  0  0  0  0
  -24.6430  -31.8455   23.1896 C   0  0  0  0  0  0
  -25.9205  -32.4704   23.8283 C   0  0  1  0  0  0
  -27.2207  -27.1482   20.1460 C   0  0  0  0  0  0
  -25.5955  -33.8509   24.2199 N   0  0  0  0  0  0
  -23.4460  -30.4658   21.5353 C   0  0  2  0  0  0
  -24.8954  -28.8957   20.1121 C   0  0  0  0  0  0
  -22.7567  -29.4556   22.4865 C   0  0  0  0  0  0
  -18.0306  -28.1395   22.8477 C   0  0  0  0  0  0
  -24.1491  -36.7258   23.2641 C   0  0  0  0  0  0
  -26.0022  -30.7231   21.3870 C   0  0  0  0  0  0
  -26.0741  -29.3359   20.7276 C   0  0  0  0  0  0
  -27.2381  -28.4795   20.7258 C   0  0  0  0  0  0
  -26.0118  -26.8081   19.4964 C   0  0  0  0  0  0
  -24.8766  -27.6443   19.4819 C   0  0  0  0  0  0
  -23.6721  -29.7967   20.1545 C   0  0  0  0  0  0
  -25.4123  -36.3037   24.0316 C   0  0  1  0  0  0
  -20.5918  -28.3721   23.1235 C   0  0  2  0  0  0
  -20.6790  -26.9425   22.5401 C   0  0  0  0  0  0
  -19.5762  -26.6380   21.5211 C   0  0  0  0  0  0
  -18.1945  -26.7933   22.1625 C   0  0  0  0  0  0
  -19.1563  -28.8876   23.2848 C   0  0  0  0  0  0
  -18.9479  -30.1472   23.8874 C   0  0  0  0  0  0
  -17.6475  -30.6590   24.0559 C   0  0  0  0  0  0
  -25.9073  -34.9412   23.5065 C   0  0  0  0  0  0
  -16.5366  -29.9083   23.6336 C   0  0  0  0  0  0
  -16.7290  -28.6502   23.0356 C   0  0  0  0  0  0
  -26.4528  -31.6568   25.0720 C   0  0  0  0  0  0
  -25.3715  -31.3756   26.1417 C   0  0  0  0  0  0
  -27.0394  -30.2966   24.6296 C   0  0  0  0  0  0
  -27.6057  -32.4336   25.7507 C   0  0  0  0  0  0
  -27.5577  -37.1785   24.8465 C   0  0  0  0  0  0
  -21.4260  -29.3049   22.3611 N   0  0  0  0  0  0
  -26.4288  -37.3748   23.9409 N   0  0  0  0  0  0
  -24.7169  -31.0321   22.0925 N   0  0  0  0  0  0
  -23.4213  -28.8102   23.3012 O   0  0  0  0  0  0
  -28.2809  -26.1712   20.2041 O   0  0  0  0  0  0
  -26.5657  -34.8906   22.4643 O   0  0  0  0  0  0
  -23.5550  -32.1327   23.7121 O   0  0  0  0  0  0
  -30.3184  -18.4859   19.9208 C   0  0  0  0  0  0
  -30.0266  -19.9256   19.8717 C   0  0  0  0  0  0
  -28.2468  -19.5938   21.3713 C   0  0  0  0  0  0
  -28.5369  -18.1795   21.4468 C   0  0  0  0  0  0
  -29.5729  -17.5237   20.6995 C   0  0  0  0  0  0
  -28.9452  -20.5599   20.5850 C   0  0  0  0  0  0
  -27.6801  -17.3480   22.3878 C   0  0  0  0  0  0
  -27.9766  -24.6459   20.1466 C   0  0  0  0  0  0
  -28.9948  -23.3065   20.2617 C   0  0  0  0  0  0
  -29.6630  -15.9932   20.7657 N   0  0  0  0  0  0
  -28.4123  -21.9248   20.5748 O   0  0  0  0  0  0
  -31.4859  -12.7347   19.1864 H   0  0  0  0  0  0
  -30.4510  -11.5975   20.0023 H   0  0  0  0  0  0
  -29.8382  -11.7510   17.5675 H   0  0  0  0  0  0
  -29.6208  -13.4770   17.7103 H   0  0  0  0  0  0
  -27.9424  -11.2803   18.9560 H   0  0  0  0  0  0
  -27.3958  -12.4827   17.8161 H   0  0  0  0  0  0
  -27.6191  -14.2531   19.4504 H   0  0  0  0  0  0
  -28.7597  -12.2172   21.4265 H   0  0  0  0  0  0
  -28.3839  -13.8768   21.8040 H   0  0  0  0  0  0
  -25.2772   -9.5668   22.4773 H   0  0  0  0  0  0
  -24.0000   -7.4625   22.7477 H   0  0  0  0  0  0
  -21.0850   -8.8784   19.8955 H   0  0  0  0  0  0
  -22.3718  -10.9676   19.6176 H   0  0  0  0  0  0
  -21.2007   -7.6149   23.9716 H   0  0  0  0  0  0
  -21.1480   -6.0524   25.9079 H   0  0  0  0  0  0
  -22.0598   -2.7608   23.2848 H   0  0  0  0  0  0
  -22.4086  -11.9868   22.4827 H   0  0  0  0  0  0
  -21.1082  -13.1227   22.2642 H   0  0  0  0  0  0
  -24.6229  -15.8264   20.4705 H   0  0  0  0  0  0
  -26.2250  -15.6191   19.9796 H   0  0  0  0  0  0
  -26.7272  -32.5316   23.1014 H   0  0  0  0  0  0
  -25.0086  -33.9627   25.0335 H   0  0  0  0  0  0
  -22.7479  -31.2915   21.3819 H   0  0  0  0  0  0
  -23.3759  -35.9583   23.3292 H   0  0  0  0  0  0
  -24.3576  -36.8901   22.2058 H   0  0  0  0  0  0
  -23.7239  -37.6447   23.6686 H   0  0  0  0  0  0
  -26.1575  -31.4788   20.6158 H   0  0  0  0  0  0
  -26.8728  -30.7722   22.0294 H   0  0  0  0  0  0
  -28.1370  -28.8137   21.2247 H   0  0  0  0  0  0
  -25.9006  -25.8572   19.0008 H   0  0  0  0  0  0
  -23.9769  -27.3015   18.9893 H   0  0  0  0  0  0
  -23.8091  -30.5716   19.3995 H   0  0  0  0  0  0
  -22.7870  -29.2388   19.8433 H   0  0  0  0  0  0
  -25.1310  -36.1867   25.0808 H   0  0  0  0  0  0
  -21.0011  -28.3309   24.1356 H   0  0  0  0  0  0
  -20.5685  -26.2335   23.3620 H   0  0  0  0  0  0
  -21.6656  -26.7431   22.1199 H   0  0  0  0  0  0
  -19.6923  -25.6285   21.1255 H   0  0  0  0  0  0
  -19.6697  -27.3178   20.6730 H   0  0  0  0  0  0
  -17.4213  -26.6675   21.4031 H   0  0  0  0  0  0
  -18.0347  -26.0081   22.9028 H   0  0  0  0  0  0
  -19.7955  -30.7295   24.2232 H   0  0  0  0  0  0
  -17.5028  -31.6268   24.5164 H   0  0  0  0  0  0
  -15.5365  -30.2978   23.7671 H   0  0  0  0  0  0
  -15.8692  -28.0812   22.7084 H   0  0  0  0  0  0
  -24.5892  -30.7108   25.7736 H   0  0  0  0  0  0
  -24.8908  -32.2939   26.4799 H   0  0  0  0  0  0
  -25.7998  -30.8953   27.0223 H   0  0  0  0  0  0
  -26.3012  -29.6688   24.1293 H   0  0  0  0  0  0
  -27.4000  -29.7265   25.4869 H   0  0  0  0  0  0
  -27.8923  -30.4206   23.9620 H   0  0  0  0  0  0
  -27.2646  -33.3651   26.2038 H   0  0  0  0  0  0
  -28.3893  -32.6875   25.0355 H   0  0  0  0  0  0
  -28.0699  -31.8495   26.5463 H   0  0  0  0  0  0
  -28.2586  -38.0089   24.7516 H   0  0  0  0  0  0
  -28.1081  -36.2619   24.6289 H   0  0  0  0  0  0
  -27.2295  -37.1427   25.8868 H   0  0  0  0  0  0
  -20.9470  -29.8765   21.6792 H   0  0  0  0  0  0
  -26.0155  -38.2816   24.1415 H   0  0  0  0  0  0
  -31.1286  -18.1183   19.3072 H   0  0  0  0  0  0
  -30.6357  -20.5409   19.2249 H   0  0  0  0  0  0
  -27.4171  -19.9665   21.9553 H   0  0  0  0  0  0
  -26.9652  -17.9613   22.9370 H   0  0  0  0  0  0
  -28.3053  -16.8382   23.1216 H   0  0  0  0  0  0
  -27.1161  -16.5983   21.8387 H   0  0  0  0  0  0
  -27.2255  -24.4986   20.9233 H   0  0  0  0  0  0
  -27.4511  -24.4744   19.2093 H   0  0  0  0  0  0
  -29.7196  -23.5100   21.0500 H   0  0  0  0  0  0
  -29.5768  -23.2284   19.3433 H   0  0  0  0  0  0
  -28.8076  -15.6037   21.1294 H   0  0  0  0  0  0
  1 25  1  0  0  0
  1 30  2  0  0  0
  1 80  1  0  0  0
  2  3  1  0  0  0
  2 25  1  0  0  0
  2 82  1  0  0  0
  2 83  1  0  0  0
  3  4  1  0  0  0
  3 84  1  0  0  0
  3 85  1  0  0  0
  4  5  1  0  0  0
  4 86  1  0  0  0
  4 87  1  0  0  0
  5  6  1  0  0  0
  5 26  1  0  0  0
  5 88  1  0  0  0
  6 25  1  0  0  0
  6 89  1  0  0  0
  6 90  1  0  0  0
  7  8  2  0  0  0
  7 26  1  0  0  0
  7 29  1  0  0  0
  8  9  1  0  0  0
  8 22  1  0  0  0
  9 10  1  0  0  0
  9 27  2  0  0  0
 10 11  2  0  0  0
 10 15  1  0  0  0
 11 12  1  0  0  0
 11 91  1  0  0  0
 12 13  2  0  0  0
 12 92  1  0  0  0
 13 14  1  0  0  0
 13 31  1  0  0  0
 14 15  2  0  0  0
 14 93  1  0  0  0
 15 94  1  0  0  0
 16 17  2  0  0  0
 16 21  1  0  0  0
 16 31  1  0  0  0
 17 18  1  0  0  0
 17 95  1  0  0  0
 18 19  2  0  0  0
 18 96  1  0  0  0
 19 20  1  0  0  0
 19 24  1  0  0  0
 20 21  2  0  0  0
 20 97  1  0  0  0
 21 23  1  0  0  0
 22 28  1  0  0  0
 22 32  2  0  0  0
 26 27  1  0  0  0
 28 98  1  0  0  0
 28 99  1  0  0  0
 29100  1  0  0  0
 29101  1  0  0  0
 33 34  1  0  0  0
 33 66  1  0  0  0
 33 70  2  0  0  0
 34 36  1  0  0  0
 34 59  1  0  0  0
 34102  1  0  0  0
 35 44  2  0  0  0
 35 45  1  0  0  0
 35 68  1  0  0  0
 36 56  1  0  0  0
 36103  1  0  0  0
 37 39  1  0  0  0
 37 47  1  0  0  0
 37 66  1  0  0  0
 37104  1  0  0  0
 38 43  2  0  0  0
 38 46  1  0  0  0
 38 47  1  0  0  0
 39 64  1  0  0  0
 39 67  2  0  0  0
 40 52  1  0  0  0
 40 53  2  0  0  0
 40 58  1  0  0  0
 41105  1  0  0  0
 41106  1  0  0  0
 41107  1  0  0  0
 41 48  1  0  0  0
 42 43  1  0  0  0
 42 66  1  0  0  0
 42108  1  0  0  0
 42109  1  0  0  0
 43 44  1  0  0  0
 44110  1  0  0  0
 45 46  2  0  0  0
 45111  1  0  0  0
 46112  1  0  0  0
 47113  1  0  0  0
 47114  1  0  0  0
 48 56  1  0  0  0
 48 65  1  0  0  0
 48115  1  0  0  0
 49 50  1  0  0  0
 49 53  1  0  0  0
 49 64  1  0  0  0
 49116  1  0  0  0
 50 51  1  0  0  0
 50117  1  0  0  0
 50118  1  0  0  0
 51 52  1  0  0  0
 51119  1  0  0  0
 51120  1  0  0  0
 52121  1  0  0  0
 52122  1  0  0  0
 53 54  1  0  0  0
 54 55  2  0  0  0
 54123  1  0  0  0
 55 57  1  0  0  0
 55124  1  0  0  0
 56 69  2  0  0  0
 57 58  2  0  0  0
 57125  1  0  0  0
 58126  1  0  0  0
 59 60  1  0  0  0
 59 61  1  0  0  0
 59 62  1  0  0  0
 60127  1  0  0  0
 60128  1  0  0  0
 60129  1  0  0  0
 61130  1  0  0  0
 61131  1  0  0  0
 61132  1  0  0  0
 62133  1  0  0  0
 62134  1  0  0  0
 62135  1  0  0  0
 63 65  1  0  0  0
 63136  1  0  0  0
 63137  1  0  0  0
 63138  1  0  0  0
 64139  1  0  0  0
 65140  1  0  0  0
 68 78  1  0  0  0
 71 72  2  0  0  0
 71 75  1  0  0  0
 71141  1  0  0  0
 72 76  1  0  0  0
 72142  1  0  0  0
 73 74  1  0  0  0
 73 76  2  0  0  0
 73143  1  0  0  0
 74 75  2  0  0  0
 74 77  1  0  0  0
 75 80  1  0  0  0
 76 81  1  0  0  0
 77144  1  0  0  0
 77145  1  0  0  0
 77146  1  0  0  0
 78 79  1  0  0  0
 78147  1  0  0  0
 78148  1  0  0  0
 79 81  1  0  0  0
 79149  1  0  0  0
 79150  1  0  0  0
 80151  1  0  0  0
M  ISO  4   1 100  68 101  78 101  80 100
M  END
> <chiral flag>
0

> <version>
0

> <s_m_source_file>
/data/baiqing/PycharmProjects/Reinvent-master-3.2/result/LINK_invent/BTK/process_docking_weight1_custom_product_contain_oxygen_bond_distance_aromatic_linkinvent_7_9_3/rearranged_h_0002.sdf

> <i_m_source_file_index>
57

> <r_mmod_Potential_Energy-OPLS-2005>
450.374176025391

> <r_mmod_Stretch_Energy-OPLS-2005>
220.072540283203

> <r_mmod_Bend_Energy-OPLS-2005>
300.924438476562

> <r_mmod_Torsional_Energy-OPLS-2005>
220.343322753906

> <r_mmod_Improper_Torsional_Energy-OPLS-2005>
3.81109833717346

> <r_mmod_Van_der_Waal_Energy-OPLS-2005>
132.919097900391

> <r_mmod_Electrostatic_Energy-OPLS-2005>
-390.617248535156

> <r_mmod_Solvation_Energy-OPLS-2005>
-211.13166809082

> <b_mmod_Minimization_Converged-OPLS-2005>
0

> <r_mmod_RMS_Derivative-OPLS-2005>
0.254078179597855

$$$$
57
                    3D
 Structure written by MMmdl.
150158  0  0  1  0            999 V2000
  -30.3026  -15.5951   20.3318 C   0  0  0  0  0  0
  -30.4333  -13.0487   19.5367 C   0  0  0  0  0  0
  -29.5519  -12.6450   18.3199 C   0  0  0  0  0  0
  -28.1204  -12.3003   18.7610 C   0  0  0  0  0  0
  -27.5998  -13.3035   19.8152 C   0  0  2  0  0  0
  -28.6204  -13.6103   20.9357 C   0  0  0  0  0  0
  -25.2334  -13.8279   20.5785 C   0  0  0  0  0  0
  -24.1719  -13.0435   20.9288 C   0  0  0  0  0  0
  -24.6417  -11.6945   20.8770 C   0  0  0  0  0  0
  -23.9118  -10.4294   21.0404 C   0  0  0  0  0  0
  -24.3651   -9.4206   21.9186 C   0  0  0  0  0  0
  -23.6310   -8.2248   22.0760 C   0  0  0  0  0  0
  -22.4290   -8.0292   21.3550 C   0  0  0  0  0  0
  -21.9936   -9.0269   20.4651 C   0  0  0  0  0  0
  -22.7283  -10.2139   20.3057 C   0  0  0  0  0  0
  -21.6858   -6.0744   22.5279 C   0  0  0  0  0  0
  -21.4022   -6.5644   23.8215 C   0  0  0  0  0  0
  -21.3661   -5.6796   24.9175 C   0  0  0  0  0  0
  -21.6041   -4.3058   24.7224 C   0  0  0  0  0  0
  -21.8817   -3.8152   23.4345 C   0  0  0  0  0  0
  -21.9193   -4.6970   22.3403 C   0  0  0  0  0  0
  -22.7729  -13.5169   21.1924 C   0  0  0  0  0  0
  -22.1660   -4.2155   21.0980 F   0  0  0  0  0  0
  -21.5623   -3.4541   25.7736 F   0  0  0  0  0  0
  -29.8011  -14.2240   20.2851 N   0  0  0  0  0  0
  -26.2787  -12.9604   20.3234 N   0  0  0  0  0  0
  -25.9363  -11.6681   20.5705 N   0  0  0  0  0  0
  -22.0392  -12.8148   22.0476 N   0  0  0  0  0  0
  -25.3906  -15.2020   20.4217 N   0  0  0  0  0  0
  -31.5375  -15.5652   20.1677 O   0  0  0  0  0  0
  -21.6647   -6.8890   21.4244 O   0  0  0  0  0  0
  -22.3403  -14.5468   20.6761 O   0  0  0  0  0  0
  -24.6838  -31.8004   23.1526 C   0  0  0  0  0  0
  -25.9417  -32.4472   23.8072 C   0  0  1  0  0  0
  -27.2285  -26.7122   20.2097 C   0  0  0  0  0  0
  -25.5995  -33.8296   24.1956 N   0  0  0  0  0  0
  -23.5098  -30.4030   21.5061 C   0  0  2  0  0  0
  -24.9678  -28.7466   20.1176 C   0  0  0  0  0  0
  -22.7767  -29.4319   22.4711 C   0  0  0  0  0  0
  -18.0338  -28.1423   22.8452 C   0  0  0  0  0  0
  -24.1496  -36.7158   23.2654 C   0  0  0  0  0  0
  -26.0906  -30.5363   21.4160 C   0  0  0  0  0  0
  -26.1573  -29.1024   20.7649 C   0  0  0  0  0  0
  -27.2735  -28.1131   20.7786 C   0  0  0  0  0  0
  -26.0058  -26.5650   19.5061 C   0  0  0  0  0  0
  -24.9307  -27.5028   19.4650 C   0  0  0  0  0  0
  -23.7639  -29.7013   20.1410 C   0  0  0  0  0  0
  -25.4147  -36.2898   24.0281 C   0  0  1  0  0  0
  -20.5974  -28.3783   23.1139 C   0  0  2  0  0  0
  -20.6804  -26.9441   22.5403 C   0  0  0  0  0  0
  -19.5781  -26.6371   21.5215 C   0  0  0  0  0  0
  -18.1964  -26.7949   22.1618 C   0  0  0  0  0  0
  -19.1604  -28.8927   23.2778 C   0  0  0  0  0  0
  -18.9510  -30.1510   23.8826 C   0  0  0  0  0  0
  -17.6500  -30.6604   24.0551 C   0  0  0  0  0  0
  -25.9123  -34.9287   23.4954 C   0  0  0  0  0  0
  -16.5389  -29.9087   23.6350 C   0  0  0  0  0  0
  -16.7318  -28.6510   23.0364 C   0  0  0  0  0  0
  -26.4591  -31.6506   25.0695 C   0  0  0  0  0  0
  -25.3656  -31.3820   26.1308 C   0  0  0  0  0  0
  -27.0522  -30.2844   24.6592 C   0  0  0  0  0  0
  -27.6039  -32.4366   25.7516 C   0  0  0  0  0  0
  -27.5560  -37.1743   24.8470 C   0  0  0  0  0  0
  -21.4415  -29.3032   22.3460 N   0  0  0  0  0  0
  -26.4276  -37.3655   23.9397 N   0  0  0  0  0  0
  -24.7847  -30.9457   22.0775 N   0  0  0  0  0  0
  -23.4210  -28.7917   23.3053 O   0  0  0  0  0  0
  -28.1836  -25.4896   20.2805 O   0  0  0  0  0  0
  -26.5764  -34.8860   22.4570 O   0  0  0  0  0  0
  -23.5858  -32.1072   23.6485 O   0  0  0  0  0  0
  -28.4470  -20.9673   19.2128 C   0  0  0  0  0  0
  -29.5808  -19.7166   21.2979 C   0  0  0  0  0  0
  -28.6230  -22.0637   20.2063 C   0  0  0  0  0  0
  -28.7705  -19.4721   19.2339 C   0  0  0  0  0  0
  -29.2462  -21.2226   21.2763 C   0  0  0  0  0  0
  -29.3938  -18.6270   20.2889 C   0  0  0  0  0  0
  -28.3509  -18.7063   17.9929 C   0  0  0  0  0  0
  -29.5411  -21.9780   22.5579 C   0  0  0  0  0  0
  -27.8657  -23.7757   20.1361 C   0  0  0  0  0  0
  -29.4741  -16.9080   20.3736 N   0  0  0  0  0  0
  -31.4271  -13.3134   19.1734 H   0  0  0  0  0  0
  -30.5911  -12.1969   20.2006 H   0  0  0  0  0  0
  -29.9955  -11.8020   17.7883 H   0  0  0  0  0  0
  -29.5217  -13.4735   17.6105 H   0  0  0  0  0  0
  -28.1373  -11.2981   19.1910 H   0  0  0  0  0  0
  -27.4511  -12.2566   17.9010 H   0  0  0  0  0  0
  -27.4698  -14.2327   19.2587 H   0  0  0  0  0  0
  -28.8705  -12.7174   21.5109 H   0  0  0  0  0  0
  -28.1974  -14.3241   21.6444 H   0  0  0  0  0  0
  -25.2792   -9.5674   22.4770 H   0  0  0  0  0  0
  -24.0010   -7.4637   22.7481 H   0  0  0  0  0  0
  -21.0866   -8.8803   19.8955 H   0  0  0  0  0  0
  -22.3747  -10.9685   19.6169 H   0  0  0  0  0  0
  -21.2023   -7.6155   23.9719 H   0  0  0  0  0  0
  -21.1481   -6.0527   25.9077 H   0  0  0  0  0  0
  -22.0592   -2.7614   23.2844 H   0  0  0  0  0  0
  -22.4033  -11.9827   22.4876 H   0  0  0  0  0  0
  -21.1004  -13.1149   22.2685 H   0  0  0  0  0  0
  -24.6126  -15.8437   20.5309 H   0  0  0  0  0  0
  -26.2203  -15.6467   20.0545 H   0  0  0  0  0  0
  -26.7500  -32.4945   23.0787 H   0  0  0  0  0  0
  -25.0049  -33.9334   25.0045 H   0  0  0  0  0  0
  -22.8352  -31.2406   21.3170 H   0  0  0  0  0  0
  -23.3765  -35.9482   23.3293 H   0  0  0  0  0  0
  -24.3557  -36.8842   22.2073 H   0  0  0  0  0  0
  -23.7257  -37.6332   23.6746 H   0  0  0  0  0  0
  -26.2929  -31.2625   20.6277 H   0  0  0  0  0  0
  -26.9416  -30.6031   22.0814 H   0  0  0  0  0  0
  -28.1686  -28.3902   21.3176 H   0  0  0  0  0  0
  -25.8384  -25.6243   19.0015 H   0  0  0  0  0  0
  -24.0331  -27.2213   18.9315 H   0  0  0  0  0  0
  -23.9402  -30.4625   19.3802 H   0  0  0  0  0  0
  -22.8685  -29.1691   19.8152 H   0  0  0  0  0  0
  -25.1359  -36.1665   25.0773 H   0  0  0  0  0  0
  -21.0055  -28.3409   24.1265 H   0  0  0  0  0  0
  -20.5667  -26.2407   23.3665 H   0  0  0  0  0  0
  -21.6665  -26.7385   22.1223 H   0  0  0  0  0  0
  -19.6938  -25.6262   21.1293 H   0  0  0  0  0  0
  -19.6724  -27.3140   20.6711 H   0  0  0  0  0  0
  -17.4232  -26.6687   21.4025 H   0  0  0  0  0  0
  -18.0358  -26.0112   22.9035 H   0  0  0  0  0  0
  -19.7984  -30.7345   24.2167 H   0  0  0  0  0  0
  -17.5048  -31.6274   24.5168 H   0  0  0  0  0  0
  -15.5386  -30.2966   23.7716 H   0  0  0  0  0  0
  -15.8718  -28.0806   22.7119 H   0  0  0  0  0  0
  -24.5866  -30.7144   25.7605 H   0  0  0  0  0  0
  -24.8818  -32.3042   26.4537 H   0  0  0  0  0  0
  -25.7833  -30.9112   27.0217 H   0  0  0  0  0  0
  -26.3235  -29.6458   24.1592 H   0  0  0  0  0  0
  -27.3952  -29.7293   25.5333 H   0  0  0  0  0  0
  -27.9215  -30.3966   24.0113 H   0  0  0  0  0  0
  -27.2572  -33.3730   26.1899 H   0  0  0  0  0  0
  -28.3951  -32.6828   25.0423 H   0  0  0  0  0  0
  -28.0594  -31.8629   26.5596 H   0  0  0  0  0  0
  -28.2567  -38.0045   24.7483 H   0  0  0  0  0  0
  -28.1064  -36.2565   24.6344 H   0  0  0  0  0  0
  -27.2268  -37.1437   25.8871 H   0  0  0  0  0  0
  -20.9719  -29.8688   21.6526 H   0  0  0  0  0  0
  -26.0106  -38.2707   24.1387 H   0  0  0  0  0  0
  -27.9415  -21.2998   18.3168 H   0  0  0  0  0  0
  -29.9821  -19.3575   22.2354 H   0  0  0  0  0  0
  -28.2553  -19.3627   17.1277 H   0  0  0  0  0  0
  -27.3912  -18.2161   18.1581 H   0  0  0  0  0  0
  -29.0867  -17.9410   17.7423 H   0  0  0  0  0  0
  -30.0234  -21.3488   23.3063 H   0  0  0  0  0  0
  -28.6188  -22.3681   22.9895 H   0  0  0  0  0  0
  -30.2032  -22.8203   22.3545 H   0  0  0  0  0  0
  -27.0349  -23.6586   20.8318 H   0  0  0  0  0  0
  -27.3841  -23.7399   19.1590 H   0  0  0  0  0  0
  -28.5240  -16.5699   20.4124 H   0  0  0  0  0  0
  1 25  1  0  0  0
  1 30  2  0  0  0
  1 80  1  0  0  0
  2  3  1  0  0  0
  2 25  1  0  0  0
  2 81  1  0  0  0
  2 82  1  0  0  0
  3  4  1  0  0  0
  3 83  1  0  0  0
  3 84  1  0  0  0
  4  5  1  0  0  0
  4 85  1  0  0  0
  4 86  1  0  0  0
  5  6  1  0  0  0
  5 26  1  0  0  0
  5 87  1  0  0  0
  6 25  1  0  0  0
  6 88  1  0  0  0
  6 89  1  0  0  0
  7  8  2  0  0  0
  7 26  1  0  0  0
  7 29  1  0  0  0
  8  9  1  0  0  0
  8 22  1  0  0  0
  9 10  1  0  0  0
  9 27  2  0  0  0
 10 11  2  0  0  0
 10 15  1  0  0  0
 11 12  1  0  0  0
 11 90  1  0  0  0
 12 13  2  0  0  0
 12 91  1  0  0  0
 13 14  1  0  0  0
 13 31  1  0  0  0
 14 15  2  0  0  0
 14 92  1  0  0  0
 15 93  1  0  0  0
 16 17  2  0  0  0
 16 21  1  0  0  0
 16 31  1  0  0  0
 17 18  1  0  0  0
 17 94  1  0  0  0
 18 19  2  0  0  0
 18 95  1  0  0  0
 19 20  1  0  0  0
 19 24  1  0  0  0
 20 21  2  0  0  0
 20 96  1  0  0  0
 21 23  1  0  0  0
 22 28  1  0  0  0
 22 32  2  0  0  0
 26 27  1  0  0  0
 28 97  1  0  0  0
 28 98  1  0  0  0
 29 99  1  0  0  0
 29100  1  0  0  0
 33 34  1  0  0  0
 33 66  1  0  0  0
 33 70  2  0  0  0
 34 36  1  0  0  0
 34 59  1  0  0  0
 34101  1  0  0  0
 35 44  2  0  0  0
 35 45  1  0  0  0
 35 68  1  0  0  0
 36 56  1  0  0  0
 36102  1  0  0  0
 37 39  1  0  0  0
 37 47  1  0  0  0
 37 66  1  0  0  0
 37103  1  0  0  0
 38 43  2  0  0  0
 38 46  1  0  0  0
 38 47  1  0  0  0
 39 64  1  0  0  0
 39 67  2  0  0  0
 40 52  1  0  0  0
 40 53  2  0  0  0
 40 58  1  0  0  0
 41104  1  0  0  0
 41105  1  0  0  0
 41106  1  0  0  0
 41 48  1  0  0  0
 42 43  1  0  0  0
 42 66  1  0  0  0
 42107  1  0  0  0
 42108  1  0  0  0
 43 44  1  0  0  0
 44109  1  0  0  0
 45 46  2  0  0  0
 45110  1  0  0  0
 46111  1  0  0  0
 47112  1  0  0  0
 47113  1  0  0  0
 48 56  1  0  0  0
 48 65  1  0  0  0
 48114  1  0  0  0
 49 50  1  0  0  0
 49 53  1  0  0  0
 49 64  1  0  0  0
 49115  1  0  0  0
 50 51  1  0  0  0
 50116  1  0  0  0
 50117  1  0  0  0
 51 52  1  0  0  0
 51118  1  0  0  0
 51119  1  0  0  0
 52120  1  0  0  0
 52121  1  0  0  0
 53 54  1  0  0  0
 54 55  2  0  0  0
 54122  1  0  0  0
 55 57  1  0  0  0
 55123  1  0  0  0
 56 69  2  0  0  0
 57 58  2  0  0  0
 57124  1  0  0  0
 58125  1  0  0  0
 59 60  1  0  0  0
 59 61  1  0  0  0
 59 62  1  0  0  0
 60126  1  0  0  0
 60127  1  0  0  0
 60128  1  0  0  0
 61129  1  0  0  0
 61130  1  0  0  0
 61131  1  0  0  0
 62132  1  0  0  0
 62133  1  0  0  0
 62134  1  0  0  0
 63 65  1  0  0  0
 63135  1  0  0  0
 63136  1  0  0  0
 63137  1  0  0  0
 64138  1  0  0  0
 65139  1  0  0  0
 68 79  1  0  0  0
 71 73  2  0  0  0
 71 74  1  0  0  0
 71140  1  0  0  0
 72 75  2  0  0  0
 72 76  1  0  0  0
 72141  1  0  0  0
 73 75  1  0  0  0
 73 79  1  0  0  0
 74 76  2  0  0  0
 74 77  1  0  0  0
 75 78  1  0  0  0
 76 80  1  0  0  0
 77142  1  0  0  0
 77143  1  0  0  0
 77144  1  0  0  0
 78145  1  0  0  0
 78146  1  0  0  0
 78147  1  0  0  0
 79148  1  0  0  0
 79149  1  0  0  0
 80150  1  0  0  0
M  ISO  4   1 100  68 101  79 101  80 100
M  END
> <chiral flag>
0

> <version>
0

> <s_m_source_file>
/data/baiqing/PycharmProjects/Reinvent-master-3.2/result/LINK_invent/BTK/process_docking_weight1_custom_product_contain_oxygen_bond_distance_aromatic_linkinvent_7_9_3/rearranged_h_0002.sdf

> <i_m_source_file_index>
58

> <r_mmod_Potential_Energy-OPLS-2005>
2262.70751953125

> <r_mmod_Stretch_Energy-OPLS-2005>
917.577331542969

> <r_mmod_Bend_Energy-OPLS-2005>
655.342224121094

> <r_mmod_Torsional_Energy-OPLS-2005>
258.717437744141

> <r_mmod_Improper_Torsional_Energy-OPLS-2005>
10.176064491272

> <r_mmod_Van_der_Waal_Energy-OPLS-2005>
130.060333251953

> <r_mmod_Electrostatic_Energy-OPLS-2005>
-361.068634033203

> <r_mmod_Solvation_Energy-OPLS-2005>
-211.298919677734

> <b_mmod_Minimization_Converged-OPLS-2005>
0

> <r_mmod_RMS_Derivative-OPLS-2005>
0.497664153575897

$$$$
58
                    3D
 Structure written by MMmdl.
146154  0  0  1  0            999 V2000
  -30.4098  -15.3368   20.3736 C   0  0  0  0  0  0
  -30.4408  -12.8687   19.5077 C   0  0  0  0  0  0
  -29.5353  -12.5850   18.2819 C   0  0  0  0  0  0
  -28.0893  -12.2926   18.7204 C   0  0  0  0  0  0
  -27.6067  -13.2774   19.8133 C   0  0  2  0  0  0
  -28.6433  -13.4856   20.9367 C   0  0  0  0  0  0
  -25.2381  -13.8241   20.5754 C   0  0  0  0  0  0
  -24.1739  -13.0428   20.9269 C   0  0  0  0  0  0
  -24.6400  -11.6927   20.8765 C   0  0  0  0  0  0
  -23.9095  -10.4288   21.0407 C   0  0  0  0  0  0
  -24.3638   -9.4202   21.9186 C   0  0  0  0  0  0
  -23.6304   -8.2241   22.0754 C   0  0  0  0  0  0
  -22.4286   -8.0282   21.3545 C   0  0  0  0  0  0
  -21.9928   -9.0256   20.4645 C   0  0  0  0  0  0
  -22.7265  -10.2131   20.3055 C   0  0  0  0  0  0
  -21.6855   -6.0738   22.5279 C   0  0  0  0  0  0
  -21.4016   -6.5641   23.8213 C   0  0  0  0  0  0
  -21.3660   -5.6793   24.9175 C   0  0  0  0  0  0
  -21.6044   -4.3056   24.7225 C   0  0  0  0  0  0
  -21.8819   -3.8148   23.4346 C   0  0  0  0  0  0
  -21.9193   -4.6965   22.3402 C   0  0  0  0  0  0
  -22.7755  -13.5180   21.1912 C   0  0  0  0  0  0
  -22.1662   -4.2151   21.0980 F   0  0  0  0  0  0
  -21.5628   -3.4539   25.7738 F   0  0  0  0  0  0
  -29.8543  -14.0215   20.2892 N   0  0  0  0  0  0
  -26.2805  -12.9519   20.3203 N   0  0  0  0  0  0
  -25.9336  -11.6622   20.5711 N   0  0  0  0  0  0
  -22.0414  -12.8161   22.0465 N   0  0  0  0  0  0
  -25.3995  -15.1978   20.4190 N   0  0  0  0  0  0
  -31.6452  -15.3236   20.2628 O   0  0  0  0  0  0
  -21.6644   -6.8882   21.4242 O   0  0  0  0  0  0
  -22.3435  -14.5481   20.6751 O   0  0  0  0  0  0
  -24.6676  -31.8201   23.1685 C   0  0  0  0  0  0
  -25.9338  -32.4572   23.8162 C   0  0  1  0  0  0
  -27.2180  -26.8797   20.1993 C   0  0  0  0  0  0
  -25.5988  -33.8388   24.2061 N   0  0  0  0  0  0
  -23.4850  -30.4306   21.5193 C   0  0  2  0  0  0
  -24.9397  -28.8067   20.1238 C   0  0  0  0  0  0
  -22.7690  -29.4425   22.4779 C   0  0  0  0  0  0
  -18.0327  -28.1412   22.8464 C   0  0  0  0  0  0
  -24.1494  -36.7198   23.2646 C   0  0  0  0  0  0
  -26.0581  -30.6102   21.4086 C   0  0  0  0  0  0
  -26.1264  -29.1921   20.7618 C   0  0  0  0  0  0
  -27.2620  -28.2521   20.7740 C   0  0  0  0  0  0
  -26.0007  -26.6626   19.5139 C   0  0  0  0  0  0
  -24.9036  -27.5611   19.4801 C   0  0  0  0  0  0
  -23.7300  -29.7426   20.1490 C   0  0  0  0  0  0
  -25.4136  -36.2957   24.0296 C   0  0  1  0  0  0
  -20.5954  -28.3762   23.1178 C   0  0  2  0  0  0
  -20.6803  -26.9439   22.5400 C   0  0  0  0  0  0
  -19.5775  -26.6378   21.5213 C   0  0  0  0  0  0
  -18.1959  -26.7944   22.1622 C   0  0  0  0  0  0
  -19.1589  -28.8909   23.2806 C   0  0  0  0  0  0
  -18.9497  -30.1497   23.8844 C   0  0  0  0  0  0
  -17.6489  -30.6599   24.0554 C   0  0  0  0  0  0
  -25.9106  -34.9341   23.5001 C   0  0  0  0  0  0
  -16.5380  -29.9084   23.6345 C   0  0  0  0  0  0
  -16.7308  -28.6506   23.0363 C   0  0  0  0  0  0
  -26.4571  -31.6530   25.0707 C   0  0  0  0  0  0
  -25.3683  -31.3795   26.1352 C   0  0  0  0  0  0
  -27.0477  -30.2889   24.6478 C   0  0  0  0  0  0
  -27.6052  -32.4351   25.7515 C   0  0  0  0  0  0
  -27.5571  -37.1755   24.8464 C   0  0  0  0  0  0
  -21.4356  -29.3046   22.3523 N   0  0  0  0  0  0
  -26.4277  -37.3698   23.9410 N   0  0  0  0  0  0
  -24.7586  -30.9817   22.0853 N   0  0  0  0  0  0
  -23.4215  -28.7995   23.3038 O   0  0  0  0  0  0
  -28.1994  -25.7389   20.1495 O   0  0  0  0  0  0
  -26.5719  -34.8882   22.4600 O   0  0  0  0  0  0
  -23.5734  -32.1195   23.6744 O   0  0  0  0  0  0
  -29.6170  -21.3581   18.1505 C   0  0  0  0  0  0
  -29.1631  -22.5601   18.7722 C   0  0  0  0  0  0
  -29.7001  -20.0783   18.7767 C   0  0  0  0  0  0
  -28.8431  -21.1896   20.7292 C   0  0  0  0  0  0
  -28.7045  -22.6131   20.1073 C   0  0  0  0  0  0
  -29.3522  -19.8473   20.1260 C   0  0  0  0  0  0
  -28.0129  -24.1129   20.6519 C   0  0  0  0  0  0
  -29.7602  -18.2554   20.7923 C   0  0  0  0  0  0
  -29.6303  -16.6179   20.3805 N   0  0  0  0  0  0
  -27.2051  -23.9643   21.5715 O   0  0  0  0  0  0
  -31.4487  -13.1014   19.1614 H   0  0  0  0  0  0
  -30.5422  -11.9803   20.1333 H   0  0  0  0  0  0
  -29.9292  -11.7501   17.7008 H   0  0  0  0  0  0
  -29.5448  -13.4517   17.6192 H   0  0  0  0  0  0
  -28.0630  -11.2746   19.1108 H   0  0  0  0  0  0
  -27.4169  -12.3093   17.8618 H   0  0  0  0  0  0
  -27.5079  -14.2338   19.2983 H   0  0  0  0  0  0
  -28.8386  -12.5610   21.4820 H   0  0  0  0  0  0
  -28.2711  -14.2060   21.6669 H   0  0  0  0  0  0
  -25.2778   -9.5677   22.4767 H   0  0  0  0  0  0
  -24.0008   -7.4631   22.7476 H   0  0  0  0  0  0
  -21.0859   -8.8781   19.8950 H   0  0  0  0  0  0
  -22.3724  -10.9673   19.6167 H   0  0  0  0  0  0
  -21.2009   -7.6149   23.9717 H   0  0  0  0  0  0
  -21.1482   -6.0523   25.9078 H   0  0  0  0  0  0
  -22.0597   -2.7610   23.2846 H   0  0  0  0  0  0
  -22.4048  -11.9832   22.4857 H   0  0  0  0  0  0
  -21.1023  -13.1164   22.2665 H   0  0  0  0  0  0
  -24.6268  -15.8449   20.5336 H   0  0  0  0  0  0
  -26.2366  -15.6421   20.0669 H   0  0  0  0  0  0
  -26.7411  -32.5101   23.0878 H   0  0  0  0  0  0
  -25.0077  -33.9461   25.0173 H   0  0  0  0  0  0
  -22.8008  -31.2634   21.3440 H   0  0  0  0  0  0
  -23.3773  -35.9510   23.3264 H   0  0  0  0  0  0
  -24.3572  -36.8893   22.2070 H   0  0  0  0  0  0
  -23.7233  -37.6364   23.6735 H   0  0  0  0  0  0
  -26.2416  -31.3445   20.6231 H   0  0  0  0  0  0
  -26.9169  -30.6735   22.0646 H   0  0  0  0  0  0
  -28.1665  -28.5534   21.2832 H   0  0  0  0  0  0
  -25.8716  -25.7155   19.0094 H   0  0  0  0  0  0
  -24.0056  -27.2593   18.9587 H   0  0  0  0  0  0
  -23.8942  -30.5086   19.3903 H   0  0  0  0  0  0
  -22.8383  -29.2015   19.8273 H   0  0  0  0  0  0
  -25.1335  -36.1746   25.0786 H   0  0  0  0  0  0
  -21.0040  -28.3371   24.1302 H   0  0  0  0  0  0
  -20.5682  -26.2382   23.3644 H   0  0  0  0  0  0
  -21.6665  -26.7411   22.1207 H   0  0  0  0  0  0
  -19.6934  -25.6274   21.1278 H   0  0  0  0  0  0
  -19.6713  -27.3158   20.6719 H   0  0  0  0  0  0
  -17.4226  -26.6684   21.4028 H   0  0  0  0  0  0
  -18.0355  -26.0099   22.9032 H   0  0  0  0  0  0
  -19.7972  -30.7328   24.2189 H   0  0  0  0  0  0
  -17.5040  -31.6274   24.5167 H   0  0  0  0  0  0
  -15.5377  -30.2968   23.7700 H   0  0  0  0  0  0
  -15.8709  -28.0806   22.7109 H   0  0  0  0  0  0
  -24.5885  -30.7124   25.7658 H   0  0  0  0  0  0
  -24.8851  -32.3000   26.4635 H   0  0  0  0  0  0
  -25.7901  -30.9055   27.0223 H   0  0  0  0  0  0
  -26.3159  -29.6551   24.1459 H   0  0  0  0  0  0
  -27.3959  -29.7272   25.5156 H   0  0  0  0  0  0
  -27.9120  -30.4055   23.9938 H   0  0  0  0  0  0
  -27.2612  -33.3700   26.1951 H   0  0  0  0  0  0
  -28.3938  -32.6834   25.0400 H   0  0  0  0  0  0
  -28.0636  -31.8573   26.5551 H   0  0  0  0  0  0
  -28.2558  -38.0079   24.7525 H   0  0  0  0  0  0
  -28.1098  -36.2605   24.6274 H   0  0  0  0  0  0
  -27.2288  -37.1373   25.8866 H   0  0  0  0  0  0
  -20.9622  -29.8729   21.6638 H   0  0  0  0  0  0
  -26.0120  -38.2752   24.1428 H   0  0  0  0  0  0
  -29.9295  -21.4236   17.1170 H   0  0  0  0  0  0
  -29.1306  -23.4643   18.1791 H   0  0  0  0  0  0
  -30.0944  -19.2520   18.2006 H   0  0  0  0  0  0
  -28.5397  -21.1315   21.7654 H   0  0  0  0  0  0
  -29.2972  -18.2876   21.7789 H   0  0  0  0  0  0
  -30.8236  -18.3584   21.0109 H   0  0  0  0  0  0
  -28.6552  -16.3885   20.2592 H   0  0  0  0  0  0
  1 25  1  0  0  0
  1 30  2  0  0  0
  1 79  1  0  0  0
  2  3  1  0  0  0
  2 25  1  0  0  0
  2 81  1  0  0  0
  2 82  1  0  0  0
  3  4  1  0  0  0
  3 83  1  0  0  0
  3 84  1  0  0  0
  4  5  1  0  0  0
  4 85  1  0  0  0
  4 86  1  0  0  0
  5  6  1  0  0  0
  5 26  1  0  0  0
  5 87  1  0  0  0
  6 25  1  0  0  0
  6 88  1  0  0  0
  6 89  1  0  0  0
  7  8  2  0  0  0
  7 26  1  0  0  0
  7 29  1  0  0  0
  8  9  1  0  0  0
  8 22  1  0  0  0
  9 10  1  0  0  0
  9 27  2  0  0  0
 10 11  2  0  0  0
 10 15  1  0  0  0
 11 12  1  0  0  0
 11 90  1  0  0  0
 12 13  2  0  0  0
 12 91  1  0  0  0
 13 14  1  0  0  0
 13 31  1  0  0  0
 14 15  2  0  0  0
 14 92  1  0  0  0
 15 93  1  0  0  0
 16 17  2  0  0  0
 16 21  1  0  0  0
 16 31  1  0  0  0
 17 18  1  0  0  0
 17 94  1  0  0  0
 18 19  2  0  0  0
 18 95  1  0  0  0
 19 20  1  0  0  0
 19 24  1  0  0  0
 20 21  2  0  0  0
 20 96  1  0  0  0
 21 23  1  0  0  0
 22 28  1  0  0  0
 22 32  2  0  0  0
 26 27  1  0  0  0
 28 97  1  0  0  0
 28 98  1  0  0  0
 29 99  1  0  0  0
 29100  1  0  0  0
 33 34  1  0  0  0
 33 66  1  0  0  0
 33 70  2  0  0  0
 34 36  1  0  0  0
 34 59  1  0  0  0
 34101  1  0  0  0
 35 44  2  0  0  0
 35 45  1  0  0  0
 35 68  1  0  0  0
 36 56  1  0  0  0
 36102  1  0  0  0
 37 39  1  0  0  0
 37 47  1  0  0  0
 37 66  1  0  0  0
 37103  1  0  0  0
 38 43  2  0  0  0
 38 46  1  0  0  0
 38 47  1  0  0  0
 39 64  1  0  0  0
 39 67  2  0  0  0
 40 52  1  0  0  0
 40 53  2  0  0  0
 40 58  1  0  0  0
 41104  1  0  0  0
 41105  1  0  0  0
 41106  1  0  0  0
 41 48  1  0  0  0
 42 43  1  0  0  0
 42 66  1  0  0  0
 42107  1  0  0  0
 42108  1  0  0  0
 43 44  1  0  0  0
 44109  1  0  0  0
 45 46  2  0  0  0
 45110  1  0  0  0
 46111  1  0  0  0
 47112  1  0  0  0
 47113  1  0  0  0
 48 56  1  0  0  0
 48 65  1  0  0  0
 48114  1  0  0  0
 49 50  1  0  0  0
 49 53  1  0  0  0
 49 64  1  0  0  0
 49115  1  0  0  0
 50 51  1  0  0  0
 50116  1  0  0  0
 50117  1  0  0  0
 51 52  1  0  0  0
 51118  1  0  0  0
 51119  1  0  0  0
 52120  1  0  0  0
 52121  1  0  0  0
 53 54  1  0  0  0
 54 55  2  0  0  0
 54122  1  0  0  0
 55 57  1  0  0  0
 55123  1  0  0  0
 56 69  2  0  0  0
 57 58  2  0  0  0
 57124  1  0  0  0
 58125  1  0  0  0
 59 60  1  0  0  0
 59 61  1  0  0  0
 59 62  1  0  0  0
 60126  1  0  0  0
 60127  1  0  0  0
 60128  1  0  0  0
 61129  1  0  0  0
 61130  1  0  0  0
 61131  1  0  0  0
 62132  1  0  0  0
 62133  1  0  0  0
 62134  1  0  0  0
 63 65  1  0  0  0
 63135  1  0  0  0
 63136  1  0  0  0
 63137  1  0  0  0
 64138  1  0  0  0
 65139  1  0  0  0
 68 77  1  0  0  0
 71 72  2  0  0  0
 71 73  1  0  0  0
 71140  1  0  0  0
 72 75  1  0  0  0
 72141  1  0  0  0
 73 76  2  0  0  0
 73142  1  0  0  0
 74 75  2  0  0  0
 74 76  1  0  0  0
 74143  1  0  0  0
 75 77  1  0  0  0
 76 78  1  0  0  0
 77 80  2  0  0  0
 78 79  1  0  0  0
 78144  1  0  0  0
 78145  1  0  0  0
 79146  1  0  0  0
M  ISO  4   1 100  68 101  77 101  79 100
M  END
> <chiral flag>
0

> <version>
0

> <s_m_source_file>
/data/baiqing/PycharmProjects/Reinvent-master-3.2/result/LINK_invent/BTK/process_docking_weight1_custom_product_contain_oxygen_bond_distance_aromatic_linkinvent_7_9_3/rearranged_h_0002.sdf

> <i_m_source_file_index>
59

> <r_mmod_Potential_Energy-OPLS-2005>
1455.11975097656

> <r_mmod_Stretch_Energy-OPLS-2005>
686.045471191406

> <r_mmod_Bend_Energy-OPLS-2005>
446.300048828125

> <r_mmod_Torsional_Energy-OPLS-2005>
232.818740844727

> <r_mmod_Improper_Torsional_Energy-OPLS-2005>
6.18646001815796

> <r_mmod_Van_der_Waal_Energy-OPLS-2005>
120.808937072754

> <r_mmod_Electrostatic_Energy-OPLS-2005>
-350.542907714844

> <r_mmod_Solvation_Energy-OPLS-2005>
-223.631927490234

> <b_mmod_Minimization_Converged-OPLS-2005>
0

> <r_mmod_RMS_Derivative-OPLS-2005>
0.0672496855258942

$$$$
59
                    3D
 Structure written by MMmdl.
160169  0  0  1  0            999 V2000
  -30.6341  -14.6561   20.4838 C   0  0  0  0  0  0
  -30.4383  -12.4029   19.4514 C   0  0  0  0  0  0
  -29.5064  -12.4899   18.2219 C   0  0  0  0  0  0
  -28.0267  -12.3371   18.6318 C   0  0  0  0  0  0
  -27.6485  -13.2196   19.8512 C   0  0  2  0  0  0
  -28.6971  -13.1041   20.9805 C   0  0  0  0  0  0
  -25.2546  -13.8181   20.5692 C   0  0  0  0  0  0
  -24.1847  -13.0457   20.9199 C   0  0  0  0  0  0
  -24.6400  -11.6899   20.8744 C   0  0  0  0  0  0
  -23.9068  -10.4279   21.0382 C   0  0  0  0  0  0
  -24.3613   -9.4191   21.9168 C   0  0  0  0  0  0
  -23.6284   -8.2241   22.0752 C   0  0  0  0  0  0
  -22.4281   -8.0267   21.3525 C   0  0  0  0  0  0
  -21.9905   -9.0250   20.4644 C   0  0  0  0  0  0
  -22.7235  -10.2127   20.3023 C   0  0  0  0  0  0
  -21.6862   -6.0723   22.5280 C   0  0  0  0  0  0
  -21.4035   -6.5621   23.8208 C   0  0  0  0  0  0
  -21.3650   -5.6775   24.9155 C   0  0  0  0  0  0
  -21.6025   -4.3033   24.7217 C   0  0  0  0  0  0
  -21.8829   -3.8130   23.4333 C   0  0  0  0  0  0
  -21.9197   -4.6954   22.3389 C   0  0  0  0  0  0
  -22.7839  -13.5196   21.1828 C   0  0  0  0  0  0
  -22.1665   -4.2129   21.0968 F   0  0  0  0  0  0
  -21.5605   -3.4526   25.7727 F   0  0  0  0  0  0
  -30.0087  -13.4414   20.4051 N   0  0  0  0  0  0
  -26.2966  -12.9376   20.3265 N   0  0  0  0  0  0
  -25.9316  -11.6521   20.5723 N   0  0  0  0  0  0
  -22.0485  -12.8200   22.0386 N   0  0  0  0  0  0
  -25.4195  -15.1918   20.4076 N   0  0  0  0  0  0
  -31.8282  -14.7843   20.1992 O   0  0  0  0  0  0
  -21.6640   -6.8869   21.4235 O   0  0  0  0  0  0
  -22.3497  -14.5468   20.6608 O   0  0  0  0  0  0
  -24.6308  -31.8556   23.1959 C   0  0  0  0  0  0
  -25.9107  -32.4759   23.8328 C   0  0  1  0  0  0
  -27.2325  -27.3188   20.0358 C   0  0  0  0  0  0
  -25.5930  -33.8587   24.2274 N   0  0  0  0  0  0
  -23.4263  -30.4803   21.5362 C   0  0  2  0  0  0
  -24.8630  -28.9279   20.1112 C   0  0  0  0  0  0
  -22.7539  -29.4561   22.4815 C   0  0  0  0  0  0
  -18.0310  -28.1429   22.8474 C   0  0  0  0  0  0
  -24.1473  -36.7275   23.2658 C   0  0  0  0  0  0
  -25.9711  -30.7729   21.3669 C   0  0  0  0  0  0
  -26.0383  -29.3986   20.7076 C   0  0  0  0  0  0
  -27.2216  -28.6037   20.6652 C   0  0  0  0  0  0
  -26.0140  -26.8843   19.4605 C   0  0  0  0  0  0
  -24.8493  -27.6706   19.4932 C   0  0  0  0  0  0
  -23.6410  -29.8149   20.1515 C   0  0  0  0  0  0
  -25.4102  -36.3083   24.0344 C   0  0  1  0  0  0
  -20.5931  -28.3716   23.1253 C   0  0  2  0  0  0
  -20.6779  -26.9425   22.5422 C   0  0  0  0  0  0
  -19.5761  -26.6406   21.5196 C   0  0  0  0  0  0
  -18.1945  -26.7976   22.1623 C   0  0  0  0  0  0
  -19.1582  -28.8881   23.2850 C   0  0  0  0  0  0
  -18.9524  -30.1505   23.8834 C   0  0  0  0  0  0
  -17.6530  -30.6621   24.0607 C   0  0  0  0  0  0
  -25.9054  -34.9455   23.5104 C   0  0  0  0  0  0
  -16.5407  -29.9151   23.6352 C   0  0  0  0  0  0
  -16.7306  -28.6589   23.0315 C   0  0  0  0  0  0
  -26.4466  -31.6583   25.0725 C   0  0  0  0  0  0
  -25.3706  -31.3764   26.1482 C   0  0  0  0  0  0
  -27.0299  -30.3007   24.6150 C   0  0  0  0  0  0
  -27.6020  -32.4322   25.7499 C   0  0  0  0  0  0
  -27.5553  -37.1789   24.8495 C   0  0  0  0  0  0
  -21.4234  -29.3049   22.3597 N   0  0  0  0  0  0
  -26.4273  -37.3792   23.9442 N   0  0  0  0  0  0
  -24.6955  -31.0554   22.0905 N   0  0  0  0  0  0
  -23.4260  -28.8076   23.2872 O   0  0  0  0  0  0
  -28.3857  -26.5165   19.9909 O   0  0  0  0  0  0
  -26.5633  -34.8925   22.4664 O   0  0  0  0  0  0
  -23.5442  -32.1376   23.7223 O   0  0  0  0  0  0
  -31.0659  -19.0751   21.9388 C   0  0  0  0  0  0
  -30.4133  -20.0095   21.1048 C   0  0  0  0  0  0
  -30.9019  -17.6786   21.7634 C   0  0  0  0  0  0
  -29.3963  -18.1440   19.9196 C   0  0  0  0  0  0
  -29.5450  -19.5680   20.0851 C   0  0  0  0  0  0
  -30.0743  -17.1727   20.7332 C   0  0  0  0  0  0
  -29.7428  -24.5688   19.0552 C   0  0  0  0  0  0
  -29.8332  -23.0298   18.7099 C   0  0  0  0  0  0
  -27.6666  -24.1210   20.5022 C   0  0  0  0  0  0
  -28.3463  -25.1153   19.4899 C   0  0  1  0  0  0
  -28.6897  -22.1647   19.3060 C   0  0  1  0  0  0
  -28.7647  -20.5635   19.1603 C   0  0  0  0  0  0
  -29.8030  -15.7395   20.6298 N   0  0  0  0  0  0
  -28.2864  -22.7515   20.6097 N   0  3  0  0  0  0
  -31.4797  -12.5242   19.1466 H   0  0  0  0  0  0
  -30.3750  -11.4213   19.9210 H   0  0  0  0  0  0
  -29.7773  -11.7212   17.4968 H   0  0  0  0  0  0
  -29.6437  -13.4486   17.7159 H   0  0  0  0  0  0
  -27.8514  -11.2858   18.8627 H   0  0  0  0  0  0
  -27.3757  -12.5648   17.7877 H   0  0  0  0  0  0
  -27.6554  -14.2482   19.4902 H   0  0  0  0  0  0
  -28.7137  -12.0896   21.3846 H   0  0  0  0  0  0
  -28.4382  -13.7540   21.8189 H   0  0  0  0  0  0
  -25.2762   -9.5665   22.4723 H   0  0  0  0  0  0
  -23.9982   -7.4632   22.7480 H   0  0  0  0  0  0
  -21.0832   -8.8758   19.8958 H   0  0  0  0  0  0
  -22.3691  -10.9649   19.6112 H   0  0  0  0  0  0
  -21.2066   -7.6141   23.9700 H   0  0  0  0  0  0
  -21.1451   -6.0505   25.9056 H   0  0  0  0  0  0
  -22.0626   -2.7593   23.2837 H   0  0  0  0  0  0
  -22.4149  -11.9896   22.4818 H   0  0  0  0  0  0
  -21.1077  -13.1194   22.2558 H   0  0  0  0  0  0
  -24.6425  -15.8311   20.5230 H   0  0  0  0  0  0
  -26.2477  -15.6420   20.0426 H   0  0  0  0  0  0
  -26.7128  -32.5365   23.1016 H   0  0  0  0  0  0
  -25.0069  -33.9710   25.0421 H   0  0  0  0  0  0
  -22.7243  -31.3033   21.3824 H   0  0  0  0  0  0
  -23.3737  -35.9607   23.3349 H   0  0  0  0  0  0
  -24.3597  -36.8882   22.2078 H   0  0  0  0  0  0
  -23.7215  -37.6483   23.6646 H   0  0  0  0  0  0
  -26.1212  -31.5244   20.5918 H   0  0  0  0  0  0
  -26.8528  -30.8216   21.9941 H   0  0  0  0  0  0
  -28.1314  -28.9710   21.1224 H   0  0  0  0  0  0
  -25.9206  -25.9305   18.9679 H   0  0  0  0  0  0
  -23.9452  -27.2926   19.0353 H   0  0  0  0  0  0
  -23.7952  -30.5861   19.3980 H   0  0  0  0  0  0
  -22.7590  -29.2571   19.8250 H   0  0  0  0  0  0
  -25.1286  -36.1933   25.0838 H   0  0  0  0  0  0
  -21.0060  -28.3279   24.1370 H   0  0  0  0  0  0
  -20.5696  -26.2338   23.3626 H   0  0  0  0  0  0
  -21.6661  -26.7436   22.1224 H   0  0  0  0  0  0
  -19.6931  -25.6315   21.1247 H   0  0  0  0  0  0
  -19.6713  -27.3197   20.6698 H   0  0  0  0  0  0
  -17.4248  -26.6746   21.4002 H   0  0  0  0  0  0
  -18.0289  -26.0143   22.9027 H   0  0  0  0  0  0
  -19.8007  -30.7346   24.2126 H   0  0  0  0  0  0
  -17.5116  -31.6271   24.5283 H   0  0  0  0  0  0
  -15.5433  -30.3075   23.7697 H   0  0  0  0  0  0
  -15.8702  -28.0949   22.6956 H   0  0  0  0  0  0
  -24.5885  -30.7081   25.7862 H   0  0  0  0  0  0
  -24.8896  -32.2973   26.4814 H   0  0  0  0  0  0
  -25.8097  -30.9039   27.0280 H   0  0  0  0  0  0
  -26.2866  -29.6821   24.1088 H   0  0  0  0  0  0
  -27.3998  -29.7228   25.4631 H   0  0  0  0  0  0
  -27.8764  -30.4415   23.9424 H   0  0  0  0  0  0
  -27.2588  -33.3639   26.2006 H   0  0  0  0  0  0
  -28.3831  -32.6869   25.0320 H   0  0  0  0  0  0
  -28.0635  -31.8483   26.5474 H   0  0  0  0  0  0
  -28.2598  -38.0041   24.7494 H   0  0  0  0  0  0
  -28.1018  -36.2607   24.6371 H   0  0  0  0  0  0
  -27.2286  -37.1497   25.8894 H   0  0  0  0  0  0
  -20.9371  -29.8949   21.6970 H   0  0  0  0  0  0
  -26.0152  -38.2871   24.1442 H   0  0  0  0  0  0
  -31.6915  -19.4439   22.7415 H   0  0  0  0  0  0
  -30.5786  -21.0635   21.2646 H   0  0  0  0  0  0
  -31.3909  -17.0038   22.4550 H   0  0  0  0  0  0
  -28.7510  -17.7811   19.1299 H   0  0  0  0  0  0
  -30.1127  -25.1381   18.1984 H   0  0  0  0  0  0
  -30.4351  -24.7767   19.8682 H   0  0  0  0  0  0
  -30.7984  -22.6463   19.0466 H   0  0  0  0  0  0
  -29.8489  -22.8893   17.6261 H   0  0  0  0  0  0
  -26.6242  -23.9880   20.2052 H   0  0  0  0  0  0
  -27.6322  -24.5656   21.4967 H   0  0  0  0  0  0
  -27.7862  -25.1023   18.5533 H   0  0  0  0  0  0
  -27.8395  -22.3894   18.6565 H   0  0  0  0  0  0
  -27.7350  -20.2022   19.1598 H   0  0  0  0  0  0
  -29.1129  -20.3640   18.1445 H   0  0  0  0  0  0
  -28.8279  -15.4862   20.6853 H   0  0  0  0  0  0
  -29.1158  -22.8261   21.1804 H   0  0  0  0  0  0
  -27.6434  -22.1385   21.0877 H   0  0  0  0  0  0
  1 25  1  0  0  0
  1 30  2  0  0  0
  1 83  1  0  0  0
  2  3  1  0  0  0
  2 25  1  0  0  0
  2 85  1  0  0  0
  2 86  1  0  0  0
  3  4  1  0  0  0
  3 87  1  0  0  0
  3 88  1  0  0  0
  4  5  1  0  0  0
  4 89  1  0  0  0
  4 90  1  0  0  0
  5  6  1  0  0  0
  5 26  1  0  0  0
  5 91  1  0  0  0
  6 25  1  0  0  0
  6 92  1  0  0  0
  6 93  1  0  0  0
  7  8  2  0  0  0
  7 26  1  0  0  0
  7 29  1  0  0  0
  8  9  1  0  0  0
  8 22  1  0  0  0
  9 10  1  0  0  0
  9 27  2  0  0  0
 10 11  2  0  0  0
 10 15  1  0  0  0
 11 12  1  0  0  0
 11 94  1  0  0  0
 12 13  2  0  0  0
 12 95  1  0  0  0
 13 14  1  0  0  0
 13 31  1  0  0  0
 14 15  2  0  0  0
 14 96  1  0  0  0
 15 97  1  0  0  0
 16 17  2  0  0  0
 16 21  1  0  0  0
 16 31  1  0  0  0
 17 18  1  0  0  0
 17 98  1  0  0  0
 18 19  2  0  0  0
 18 99  1  0  0  0
 19 20  1  0  0  0
 19 24  1  0  0  0
 20 21  2  0  0  0
 20100  1  0  0  0
 21 23  1  0  0  0
 22 28  1  0  0  0
 22 32  2  0  0  0
 26 27  1  0  0  0
 28101  1  0  0  0
 28102  1  0  0  0
 29103  1  0  0  0
 29104  1  0  0  0
 33 34  1  0  0  0
 33 66  1  0  0  0
 33 70  2  0  0  0
 34 36  1  0  0  0
 34 59  1  0  0  0
 34105  1  0  0  0
 35 44  2  0  0  0
 35 45  1  0  0  0
 35 68  1  0  0  0
 36 56  1  0  0  0
 36106  1  0  0  0
 37 39  1  0  0  0
 37 47  1  0  0  0
 37 66  1  0  0  0
 37107  1  0  0  0
 38 43  2  0  0  0
 38 46  1  0  0  0
 38 47  1  0  0  0
 39 64  1  0  0  0
 39 67  2  0  0  0
 40 52  1  0  0  0
 40 53  2  0  0  0
 40 58  1  0  0  0
 41108  1  0  0  0
 41109  1  0  0  0
 41110  1  0  0  0
 41 48  1  0  0  0
 42 43  1  0  0  0
 42 66  1  0  0  0
 42111  1  0  0  0
 42112  1  0  0  0
 43 44  1  0  0  0
 44113  1  0  0  0
 45 46  2  0  0  0
 45114  1  0  0  0
 46115  1  0  0  0
 47116  1  0  0  0
 47117  1  0  0  0
 48 56  1  0  0  0
 48 65  1  0  0  0
 48118  1  0  0  0
 49 50  1  0  0  0
 49 53  1  0  0  0
 49 64  1  0  0  0
 49119  1  0  0  0
 50 51  1  0  0  0
 50120  1  0  0  0
 50121  1  0  0  0
 51 52  1  0  0  0
 51122  1  0  0  0
 51123  1  0  0  0
 52124  1  0  0  0
 52125  1  0  0  0
 53 54  1  0  0  0
 54 55  2  0  0  0
 54126  1  0  0  0
 55 57  1  0  0  0
 55127  1  0  0  0
 56 69  2  0  0  0
 57 58  2  0  0  0
 57128  1  0  0  0
 58129  1  0  0  0
 59 60  1  0  0  0
 59 61  1  0  0  0
 59 62  1  0  0  0
 60130  1  0  0  0
 60131  1  0  0  0
 60132  1  0  0  0
 61133  1  0  0  0
 61134  1  0  0  0
 61135  1  0  0  0
 62136  1  0  0  0
 62137  1  0  0  0
 62138  1  0  0  0
 63 65  1  0  0  0
 63139  1  0  0  0
 63140  1  0  0  0
 63141  1  0  0  0
 64142  1  0  0  0
 65143  1  0  0  0
 68 80  1  0  0  0
 71 72  2  0  0  0
 71 73  1  0  0  0
 71144  1  0  0  0
 72 75  1  0  0  0
 72145  1  0  0  0
 73 76  2  0  0  0
 73146  1  0  0  0
 74 75  2  0  0  0
 74 76  1  0  0  0
 74147  1  0  0  0
 75 82  1  0  0  0
 76 83  1  0  0  0
 77 78  1  0  0  0
 77 80  1  0  0  0
 77148  1  0  0  0
 77149  1  0  0  0
 78 81  1  0  0  0
 78150  1  0  0  0
 78151  1  0  0  0
 79 80  1  0  0  0
 79 84  1  0  0  0
 79152  1  0  0  0
 79153  1  0  0  0
 80154  1  0  0  0
 81 82  1  0  0  0
 81 84  1  0  0  0
 81155  1  0  0  0
 82156  1  0  0  0
 82157  1  0  0  0
 83158  1  0  0  0
 84159  1  0  0  0
 84160  1  0  0  0
M  CHG  1  84   1
M  ISO  4   1 100  68 101  80 101  83 100
M  END
> <chiral flag>
0

> <version>
0

> <s_m_source_file>
/data/baiqing/PycharmProjects/Reinvent-master-3.2/result/LINK_invent/BTK/process_docking_weight1_custom_product_contain_oxygen_bond_distance_aromatic_linkinvent_7_9_3/rearranged_h_0002.sdf

> <i_m_source_file_index>
60

> <r_mmod_Potential_Energy-OPLS-2005>
40.879940032959

> <r_mmod_Stretch_Energy-OPLS-2005>
83.4993515014648

> <r_mmod_Bend_Energy-OPLS-2005>
163.064361572266

> <r_mmod_Torsional_Energy-OPLS-2005>
296.398529052734

> <r_mmod_Improper_Torsional_Energy-OPLS-2005>
6.78281164169312

> <r_mmod_Van_der_Waal_Energy-OPLS-2005>
141.627624511719

> <r_mmod_Electrostatic_Energy-OPLS-2005>
-248.488159179688

> <r_mmod_Solvation_Energy-OPLS-2005>
-455.355895996094

> <b_mmod_Minimization_Converged-OPLS-2005>
0

> <r_mmod_RMS_Derivative-OPLS-2005>
6.85937356948853

$$$$
60
                    3D
 Structure written by MMmdl.
157165  0  0  1  0            999 V2000
  -30.8088  -14.4059   20.6146 C   0  0  0  0  0  0
  -30.4021  -12.2901   19.4311 C   0  0  0  0  0  0
  -29.4850  -12.4966   18.2122 C   0  0  0  0  0  0
  -28.0134  -12.3557   18.6339 C   0  0  0  0  0  0
  -27.6643  -13.2149   19.8788 C   0  0  2  0  0  0
  -28.7082  -13.0354   21.0088 C   0  0  0  0  0  0
  -25.2597  -13.8184   20.5697 C   0  0  0  0  0  0
  -24.1841  -13.0438   20.9175 C   0  0  0  0  0  0
  -24.6413  -11.6919   20.8752 C   0  0  0  0  0  0
  -23.9078  -10.4289   21.0412 C   0  0  0  0  0  0
  -24.3623   -9.4198   21.9192 C   0  0  0  0  0  0
  -23.6284   -8.2235   22.0762 C   0  0  0  0  0  0
  -22.4271   -8.0278   21.3544 C   0  0  0  0  0  0
  -21.9918   -9.0261   20.4646 C   0  0  0  0  0  0
  -22.7255  -10.2131   20.3054 C   0  0  0  0  0  0
  -21.6853   -6.0728   22.5271 C   0  0  0  0  0  0
  -21.4013   -6.5636   23.8206 C   0  0  0  0  0  0
  -21.3657   -5.6790   24.9169 C   0  0  0  0  0  0
  -21.6042   -4.3050   24.7227 C   0  0  0  0  0  0
  -21.8825   -3.8143   23.4350 C   0  0  0  0  0  0
  -21.9195   -4.6954   22.3398 C   0  0  0  0  0  0
  -22.7857  -13.5230   21.1813 C   0  0  0  0  0  0
  -22.1662   -4.2131   21.0976 F   0  0  0  0  0  0
  -21.5633   -3.4542   25.7745 F   0  0  0  0  0  0
  -30.0489  -13.2880   20.4552 N   0  0  0  0  0  0
  -26.3047  -12.9375   20.3419 N   0  0  0  0  0  0
  -25.9344  -11.6532   20.5821 N   0  0  0  0  0  0
  -22.0511  -12.8216   22.0374 N   0  0  0  0  0  0
  -25.4325  -15.1893   20.4098 N   0  0  0  0  0  0
  -31.8359  -14.5855   19.9581 O   0  0  0  0  0  0
  -21.6644   -6.8871   21.4229 O   0  0  0  0  0  0
  -22.3543  -14.5536   20.6666 O   0  0  0  0  0  0
  -24.6125  -31.8699   23.2146 C   0  0  0  0  0  0
  -25.9044  -32.4835   23.8409 C   0  0  1  0  0  0
  -27.2351  -27.4529   20.0909 C   0  0  0  0  0  0
  -25.5924  -33.8638   24.2353 N   0  0  0  0  0  0
  -23.3993  -30.4907   21.5545 C   0  0  2  0  0  0
  -24.8442  -28.9625   20.1136 C   0  0  0  0  0  0
  -22.7401  -29.4621   22.5021 C   0  0  0  0  0  0
  -18.0252  -28.1348   22.8484 C   0  0  0  0  0  0
  -24.1487  -36.7313   23.2642 C   0  0  0  0  0  0
  -25.9242  -30.8392   21.3642 C   0  0  0  0  0  0
  -26.0002  -29.4737   20.7143 C   0  0  0  0  0  0
  -27.1964  -28.7238   20.7032 C   0  0  0  0  0  0
  -26.0616  -26.9551   19.4762 C   0  0  0  0  0  0
  -24.8675  -27.7010   19.4942 C   0  0  0  0  0  0
  -23.6083  -29.8307   20.1647 C   0  0  0  0  0  0
  -25.4111  -36.3130   24.0340 C   0  0  1  0  0  0
  -20.5846  -28.3634   23.1327 C   0  0  2  0  0  0
  -20.6761  -26.9372   22.5413 C   0  0  0  0  0  0
  -19.5743  -26.6382   21.5197 C   0  0  0  0  0  0
  -18.1916  -26.7904   22.1596 C   0  0  0  0  0  0
  -19.1504  -28.8814   23.2895 C   0  0  0  0  0  0
  -18.9438  -30.1426   23.8897 C   0  0  0  0  0  0
  -17.6449  -30.6577   24.0540 C   0  0  0  0  0  0
  -25.9035  -34.9502   23.5141 C   0  0  0  0  0  0
  -16.5342  -29.9073   23.6306 C   0  0  0  0  0  0
  -16.7245  -28.6489   23.0322 C   0  0  0  0  0  0
  -26.4506  -31.6607   25.0714 C   0  0  0  0  0  0
  -25.3781  -31.3662   26.1460 C   0  0  0  0  0  0
  -27.0294  -30.3055   24.6012 C   0  0  0  0  0  0
  -27.6073  -32.4346   25.7488 C   0  0  0  0  0  0
  -27.5585  -37.1821   24.8467 C   0  0  0  0  0  0
  -21.4130  -29.3014   22.3773 N   0  0  0  0  0  0
  -26.4304  -37.3812   23.9406 N   0  0  0  0  0  0
  -24.6628  -31.0800   22.1051 N   0  0  0  0  0  0
  -23.4186  -28.8182   23.3059 O   0  0  0  0  0  0
  -28.4347  -26.7750   20.0987 O   0  0  0  0  0  0
  -26.5578  -34.8959   22.4688 O   0  0  0  0  0  0
  -23.5322  -32.1485   23.7553 O   0  0  0  0  0  0
  -33.1949  -17.7682   22.1885 C   0  0  0  0  0  0
  -32.4706  -18.9632   22.3344 C   0  0  0  0  0  0
  -32.5136  -16.5657   21.9320 C   0  0  0  0  0  0
  -30.3787  -17.7390   22.0107 C   0  0  0  0  0  0
  -31.0607  -18.9596   22.2375 C   0  0  0  0  0  0
  -31.1002  -16.5382   21.8138 C   0  0  0  0  0  0
  -30.3009  -20.2389   22.4257 C   0  0  0  0  0  0
  -29.7560  -23.3208   20.7806 C   0  0  0  0  0  0
  -29.3020  -24.7594   21.0662 C   0  0  0  0  0  0
  -30.4329  -22.6936   22.0083 C   0  0  0  0  0  0
  -28.4578  -25.3576   19.9337 C   0  0  0  0  0  0
  -30.3982  -15.3283   21.5080 N   0  0  0  0  0  0
  -30.8111  -21.3010   21.7882 N   0  0  0  0  0  0
  -29.2904  -20.2810   23.1282 O   0  0  0  0  0  0
  -31.4492  -12.3427   19.1267 H   0  0  0  0  0  0
  -30.2735  -11.2892   19.8429 H   0  0  0  0  0  0
  -29.7223  -11.7637   17.4391 H   0  0  0  0  0  0
  -29.6573  -13.4796   17.7713 H   0  0  0  0  0  0
  -27.8352  -11.3013   18.8513 H   0  0  0  0  0  0
  -27.3551  -12.6085   17.8013 H   0  0  0  0  0  0
  -27.7008  -14.2561   19.5594 H   0  0  0  0  0  0
  -28.6701  -12.0203   21.4053 H   0  0  0  0  0  0
  -28.4692  -13.6891   21.8474 H   0  0  0  0  0  0
  -25.2764   -9.5665   22.4775 H   0  0  0  0  0  0
  -23.9985   -7.4631   22.7492 H   0  0  0  0  0  0
  -21.0852   -8.8784   19.8954 H   0  0  0  0  0  0
  -22.3726  -10.9671   19.6162 H   0  0  0  0  0  0
  -21.2005   -7.6147   23.9694 H   0  0  0  0  0  0
  -21.1474   -6.0531   25.9069 H   0  0  0  0  0  0
  -22.0610   -2.7601   23.2862 H   0  0  0  0  0  0
  -22.4136  -11.9866   22.4733 H   0  0  0  0  0  0
  -21.1122  -13.1232   22.2580 H   0  0  0  0  0  0
  -24.6713  -15.8512   20.5138 H   0  0  0  0  0  0
  -26.2959  -15.6246   20.1073 H   0  0  0  0  0  0
  -26.7112  -32.5560   23.1163 H   0  0  0  0  0  0
  -25.0133  -33.9789   25.0534 H   0  0  0  0  0  0
  -22.6888  -31.3069   21.4189 H   0  0  0  0  0  0
  -23.3758  -35.9635   23.3307 H   0  0  0  0  0  0
  -24.3584  -36.8915   22.2057 H   0  0  0  0  0  0
  -23.7235  -37.6522   23.6636 H   0  0  0  0  0  0
  -26.0282  -31.6035   20.5933 H   0  0  0  0  0  0
  -26.8164  -30.8998   21.9741 H   0  0  0  0  0  0
  -28.0944  -29.1155   21.1639 H   0  0  0  0  0  0
  -26.0478  -26.0100   18.9534 H   0  0  0  0  0  0
  -23.9805  -27.3059   19.0175 H   0  0  0  0  0  0
  -23.7275  -30.6125   19.4138 H   0  0  0  0  0  0
  -22.7304  -29.2588   19.8588 H   0  0  0  0  0  0
  -25.1278  -36.2012   25.0829 H   0  0  0  0  0  0
  -20.9907  -28.3205   24.1450 H   0  0  0  0  0  0
  -20.5710  -26.2219   23.3596 H   0  0  0  0  0  0
  -21.6629  -26.7470   22.1162 H   0  0  0  0  0  0
  -19.6913  -25.6307   21.1191 H   0  0  0  0  0  0
  -19.6676  -27.3225   20.6754 H   0  0  0  0  0  0
  -17.4184  -26.6649   21.3987 H   0  0  0  0  0  0
  -18.0281  -26.0045   22.8979 H   0  0  0  0  0  0
  -19.7935  -30.7206   24.2287 H   0  0  0  0  0  0
  -17.5021  -31.6248   24.5165 H   0  0  0  0  0  0
  -15.5347  -30.2971   23.7671 H   0  0  0  0  0  0
  -15.8632  -28.0838   22.7018 H   0  0  0  0  0  0
  -24.5967  -30.6996   25.7798 H   0  0  0  0  0  0
  -24.8951  -32.2782   26.4972 H   0  0  0  0  0  0
  -25.8169  -30.8804   27.0177 H   0  0  0  0  0  0
  -26.2752  -29.6845   24.1156 H   0  0  0  0  0  0
  -27.4171  -29.7280   25.4412 H   0  0  0  0  0  0
  -27.8567  -30.4367   23.9034 H   0  0  0  0  0  0
  -27.2652  -33.3636   26.2066 H   0  0  0  0  0  0
  -28.3886  -32.6938   25.0327 H   0  0  0  0  0  0
  -28.0723  -31.8467   26.5408 H   0  0  0  0  0  0
  -28.2613  -38.0128   24.7538 H   0  0  0  0  0  0
  -28.1084  -36.2643   24.6265 H   0  0  0  0  0  0
  -27.2281  -37.1452   25.8877 H   0  0  0  0  0  0
  -20.9329  -29.8735   21.6973 H   0  0  0  0  0  0
  -26.0193  -38.2888   24.1422 H   0  0  0  0  0  0
  -34.2746  -17.7719   22.2683 H   0  0  0  0  0  0
  -33.0064  -19.8811   22.5395 H   0  0  0  0  0  0
  -33.1010  -15.6642   21.8178 H   0  0  0  0  0  0
  -29.2985  -17.7456   21.9511 H   0  0  0  0  0  0
  -30.4465  -23.3280   19.9353 H   0  0  0  0  0  0
  -28.9024  -22.7156   20.4745 H   0  0  0  0  0  0
  -30.1807  -25.3773   21.2504 H   0  0  0  0  0  0
  -28.7207  -24.7870   21.9893 H   0  0  0  0  0  0
  -29.7888  -22.7863   22.8842 H   0  0  0  0  0  0
  -31.3375  -23.2527   22.2464 H   0  0  0  0  0  0
  -27.4810  -24.8751   19.9710 H   0  0  0  0  0  0
  -28.9013  -25.1326   18.9626 H   0  0  0  0  0  0
  -29.4852  -15.1974   21.9148 H   0  0  0  0  0  0
  -31.5896  -21.1199   21.1674 H   0  0  0  0  0  0
  1 25  1  0  0  0
  1 30  2  0  0  0
  1 82  1  0  0  0
  2  3  1  0  0  0
  2 25  1  0  0  0
  2 85  1  0  0  0
  2 86  1  0  0  0
  3  4  1  0  0  0
  3 87  1  0  0  0
  3 88  1  0  0  0
  4  5  1  0  0  0
  4 89  1  0  0  0
  4 90  1  0  0  0
  5  6  1  0  0  0
  5 26  1  0  0  0
  5 91  1  0  0  0
  6 25  1  0  0  0
  6 92  1  0  0  0
  6 93  1  0  0  0
  7  8  2  0  0  0
  7 26  1  0  0  0
  7 29  1  0  0  0
  8  9  1  0  0  0
  8 22  1  0  0  0
  9 10  1  0  0  0
  9 27  2  0  0  0
 10 11  2  0  0  0
 10 15  1  0  0  0
 11 12  1  0  0  0
 11 94  1  0  0  0
 12 13  2  0  0  0
 12 95  1  0  0  0
 13 14  1  0  0  0
 13 31  1  0  0  0
 14 15  2  0  0  0
 14 96  1  0  0  0
 15 97  1  0  0  0
 16 17  2  0  0  0
 16 21  1  0  0  0
 16 31  1  0  0  0
 17 18  1  0  0  0
 17 98  1  0  0  0
 18 19  2  0  0  0
 18 99  1  0  0  0
 19 20  1  0  0  0
 19 24  1  0  0  0
 20 21  2  0  0  0
 20100  1  0  0  0
 21 23  1  0  0  0
 22 28  1  0  0  0
 22 32  2  0  0  0
 26 27  1  0  0  0
 28101  1  0  0  0
 28102  1  0  0  0
 29103  1  0  0  0
 29104  1  0  0  0
 33 34  1  0  0  0
 33 66  1  0  0  0
 33 70  2  0  0  0
 34 36  1  0  0  0
 34 59  1  0  0  0
 34105  1  0  0  0
 35 44  2  0  0  0
 35 45  1  0  0  0
 35 68  1  0  0  0
 36 56  1  0  0  0
 36106  1  0  0  0
 37 39  1  0  0  0
 37 47  1  0  0  0
 37 66  1  0  0  0
 37107  1  0  0  0
 38 43  2  0  0  0
 38 46  1  0  0  0
 38 47  1  0  0  0
 39 64  1  0  0  0
 39 67  2  0  0  0
 40 52  1  0  0  0
 40 53  2  0  0  0
 40 58  1  0  0  0
 41108  1  0  0  0
 41109  1  0  0  0
 41110  1  0  0  0
 41 48  1  0  0  0
 42 43  1  0  0  0
 42 66  1  0  0  0
 42111  1  0  0  0
 42112  1  0  0  0
 43 44  1  0  0  0
 44113  1  0  0  0
 45 46  2  0  0  0
 45114  1  0  0  0
 46115  1  0  0  0
 47116  1  0  0  0
 47117  1  0  0  0
 48 56  1  0  0  0
 48 65  1  0  0  0
 48118  1  0  0  0
 49 50  1  0  0  0
 49 53  1  0  0  0
 49 64  1  0  0  0
 49119  1  0  0  0
 50 51  1  0  0  0
 50120  1  0  0  0
 50121  1  0  0  0
 51 52  1  0  0  0
 51122  1  0  0  0
 51123  1  0  0  0
 52124  1  0  0  0
 52125  1  0  0  0
 53 54  1  0  0  0
 54 55  2  0  0  0
 54126  1  0  0  0
 55 57  1  0  0  0
 55127  1  0  0  0
 56 69  2  0  0  0
 57 58  2  0  0  0
 57128  1  0  0  0
 58129  1  0  0  0
 59 60  1  0  0  0
 59 61  1  0  0  0
 59 62  1  0  0  0
 60130  1  0  0  0
 60131  1  0  0  0
 60132  1  0  0  0
 61133  1  0  0  0
 61134  1  0  0  0
 61135  1  0  0  0
 62136  1  0  0  0
 62137  1  0  0  0
 62138  1  0  0  0
 63 65  1  0  0  0
 63139  1  0  0  0
 63140  1  0  0  0
 63141  1  0  0  0
 64142  1  0  0  0
 65143  1  0  0  0
 68 81  1  0  0  0
 71 72  2  0  0  0
 71 73  1  0  0  0
 71144  1  0  0  0
 72 75  1  0  0  0
 72145  1  0  0  0
 73 76  2  0  0  0
 73146  1  0  0  0
 74 75  2  0  0  0
 74 76  1  0  0  0
 74147  1  0  0  0
 75 77  1  0  0  0
 76 82  1  0  0  0
 77 83  1  0  0  0
 77 84  2  0  0  0
 78 79  1  0  0  0
 78 80  1  0  0  0
 78148  1  0  0  0
 78149  1  0  0  0
 79 81  1  0  0  0
 79150  1  0  0  0
 79151  1  0  0  0
 80 83  1  0  0  0
 80152  1  0  0  0
 80153  1  0  0  0
 81154  1  0  0  0
 81155  1  0  0  0
 82156  1  0  0  0
 83157  1  0  0  0
M  ISO  4   1 100  68 101  81 101  82 100
M  END
> <chiral flag>
0

> <version>
0

> <s_m_source_file>
/data/baiqing/PycharmProjects/Reinvent-master-3.2/result/LINK_invent/BTK/process_docking_weight1_custom_product_contain_oxygen_bond_distance_aromatic_linkinvent_7_9_3/rearranged_h_0002.sdf

> <i_m_source_file_index>
61

> <r_mmod_Potential_Energy-OPLS-2005>
-120.534523010254

> <r_mmod_Stretch_Energy-OPLS-2005>
34.2773170471191

> <r_mmod_Bend_Energy-OPLS-2005>
97.4316787719727

> <r_mmod_Torsional_Energy-OPLS-2005>
228.261764526367

> <r_mmod_Improper_Torsional_Energy-OPLS-2005>
1.94049167633057

> <r_mmod_Van_der_Waal_Energy-OPLS-2005>
166.155792236328

> <r_mmod_Electrostatic_Energy-OPLS-2005>
-432.180847167969

> <r_mmod_Solvation_Energy-OPLS-2005>
-228.631439208984

> <b_mmod_Minimization_Converged-OPLS-2005>
0

> <r_mmod_RMS_Derivative-OPLS-2005>
3.67431449890137

$$$$
61
                    3D
 Structure written by MMmdl.
159167  0  0  1  0            999 V2000
  -30.7474  -14.3572   20.6678 C   0  0  0  0  0  0
  -30.4203  -12.2801   19.3724 C   0  0  0  0  0  0
  -29.4795  -12.5301   18.1781 C   0  0  0  0  0  0
  -27.9996  -12.4003   18.5923 C   0  0  0  0  0  0
  -27.6687  -13.1952   19.8822 C   0  0  2  0  0  0
  -28.7090  -12.8959   20.9817 C   0  0  0  0  0  0
  -25.2619  -13.8123   20.5652 C   0  0  0  0  0  0
  -24.1850  -13.0425   20.9138 C   0  0  0  0  0  0
  -24.6385  -11.6892   20.8705 C   0  0  0  0  0  0
  -23.9030  -10.4285   21.0373 C   0  0  0  0  0  0
  -24.3612   -9.4202   21.9131 C   0  0  0  0  0  0
  -23.6279   -8.2245   22.0722 C   0  0  0  0  0  0
  -22.4247   -8.0289   21.3547 C   0  0  0  0  0  0
  -21.9845   -9.0258   20.4667 C   0  0  0  0  0  0
  -22.7172  -10.2143   20.3060 C   0  0  0  0  0  0
  -21.6869   -6.0717   22.5263 C   0  0  0  0  0  0
  -21.4012   -6.5623   23.8187 C   0  0  0  0  0  0
  -21.3660   -5.6791   24.9161 C   0  0  0  0  0  0
  -21.6035   -4.3046   24.7219 C   0  0  0  0  0  0
  -21.8805   -3.8127   23.4347 C   0  0  0  0  0  0
  -21.9196   -4.6941   22.3398 C   0  0  0  0  0  0
  -22.7875  -13.5232   21.1831 C   0  0  0  0  0  0
  -22.1682   -4.2121   21.0984 F   0  0  0  0  0  0
  -21.5635   -3.4536   25.7740 F   0  0  0  0  0  0
  -30.0500  -13.2120   20.4444 N   0  0  0  0  0  0
  -26.3058  -12.9283   20.3378 N   0  0  0  0  0  0
  -25.9305  -11.6449   20.5741 N   0  0  0  0  0  0
  -22.0546  -12.8227   22.0426 N   0  0  0  0  0  0
  -25.4354  -15.1837   20.4082 N   0  0  0  0  0  0
  -31.8075  -14.6239   20.0906 O   0  0  0  0  0  0
  -21.6645   -6.8861   21.4229 O   0  0  0  0  0  0
  -22.3530  -14.5525   20.6667 O   0  0  0  0  0  0
  -24.6100  -31.8711   23.2145 C   0  0  0  0  0  0
  -25.9019  -32.4841   23.8419 C   0  0  1  0  0  0
  -27.2374  -27.4743   20.0815 C   0  0  0  0  0  0
  -25.5894  -33.8637   24.2345 N   0  0  0  0  0  0
  -23.3960  -30.4950   21.5537 C   0  0  2  0  0  0
  -24.8431  -28.9640   20.1207 C   0  0  0  0  0  0
  -22.7376  -29.4675   22.5003 C   0  0  0  0  0  0
  -18.0276  -28.1374   22.8498 C   0  0  0  0  0  0
  -24.1484  -36.7323   23.2630 C   0  0  0  0  0  0
  -25.9219  -30.8434   21.3674 C   0  0  0  0  0  0
  -25.9996  -29.4794   20.7196 C   0  0  0  0  0  0
  -27.2001  -28.7389   20.7028 C   0  0  0  0  0  0
  -26.0703  -26.9706   19.4686 C   0  0  0  0  0  0
  -24.8709  -27.7052   19.4966 C   0  0  0  0  0  0
  -23.6039  -29.8271   20.1685 C   0  0  0  0  0  0
  -25.4104  -36.3121   24.0333 C   0  0  1  0  0  0
  -20.5854  -28.3665   23.1319 C   0  0  2  0  0  0
  -20.6759  -26.9405   22.5416 C   0  0  0  0  0  0
  -19.5744  -26.6390   21.5203 C   0  0  0  0  0  0
  -18.1926  -26.7925   22.1614 C   0  0  0  0  0  0
  -19.1522  -28.8836   23.2909 C   0  0  0  0  0  0
  -18.9446  -30.1433   23.8928 C   0  0  0  0  0  0
  -17.6451  -30.6581   24.0570 C   0  0  0  0  0  0
  -25.9029  -34.9482   23.5134 C   0  0  0  0  0  0
  -16.5346  -29.9085   23.6315 C   0  0  0  0  0  0
  -16.7263  -28.6495   23.0348 C   0  0  0  0  0  0
  -26.4458  -31.6609   25.0728 C   0  0  0  0  0  0
  -25.3737  -31.3747   26.1490 C   0  0  0  0  0  0
  -27.0257  -30.3036   24.6097 C   0  0  0  0  0  0
  -27.6053  -32.4318   25.7478 C   0  0  0  0  0  0
  -27.5586  -37.1812   24.8459 C   0  0  0  0  0  0
  -21.4111  -29.3039   22.3727 N   0  0  0  0  0  0
  -26.4298  -37.3798   23.9404 N   0  0  0  0  0  0
  -24.6605  -31.0838   22.1036 N   0  0  0  0  0  0
  -23.4159  -28.8229   23.3048 O   0  0  0  0  0  0
  -28.4216  -26.7856   20.0079 O   0  0  0  0  0  0
  -26.5579  -34.8919   22.4686 O   0  0  0  0  0  0
  -23.5298  -32.1471   23.7544 O   0  0  0  0  0  0
  -27.4720  -16.9945   24.2538 C   0  0  0  0  0  0
  -28.5840  -16.3739   23.6542 C   0  0  0  0  0  0
  -27.1027  -18.2991   23.8735 C   0  0  0  0  0  0
  -28.9903  -18.3845   22.3336 C   0  0  0  0  0  0
  -29.3404  -17.0634   22.6786 C   0  0  0  0  0  0
  -27.8500  -18.9988   22.9004 C   0  0  0  0  0  0
  -30.4683  -16.3891   21.9571 C   0  0  0  0  0  0
  -27.4343  -20.3793   22.4836 C   0  0  0  0  0  0
  -28.2340  -23.1230   21.0157 C   0  0  0  0  0  0
  -27.8270  -24.4213   20.3141 C   0  0  0  0  0  0
  -27.3602  -21.9451   20.5541 C   0  0  0  0  0  0
  -28.5441  -25.6607   20.8709 C   0  0  0  0  0  0
  -30.1319  -15.1692   21.5327 N   0  0  0  0  0  0
  -27.7275  -20.7045   21.2188 N   0  0  0  0  0  0
  -31.5284  -16.9838   21.7316 O   0  0  0  0  0  0
  -26.8119  -21.1197   23.2475 O   0  0  0  0  0  0
  -31.4609  -12.3888   19.0607 H   0  0  0  0  0  0
  -30.3228  -11.2522   19.7236 H   0  0  0  0  0  0
  -29.6979  -11.8301   17.3710 H   0  0  0  0  0  0
  -29.6561  -13.5271   17.7732 H   0  0  0  0  0  0
  -27.7799  -11.3424   18.7371 H   0  0  0  0  0  0
  -27.3537  -12.7303   17.7772 H   0  0  0  0  0  0
  -27.7384  -14.2546   19.6358 H   0  0  0  0  0  0
  -28.6749  -11.8391   21.2499 H   0  0  0  0  0  0
  -28.4549  -13.4205   21.9022 H   0  0  0  0  0  0
  -25.2795   -9.5679   22.4650 H   0  0  0  0  0  0
  -24.0025   -7.4624   22.7401 H   0  0  0  0  0  0
  -21.0753   -8.8745   19.9000 H   0  0  0  0  0  0
  -22.3579  -10.9681   19.6181 H   0  0  0  0  0  0
  -21.2002   -7.6131   23.9672 H   0  0  0  0  0  0
  -21.1512   -6.0546   25.9061 H   0  0  0  0  0  0
  -22.0576   -2.7577   23.2862 H   0  0  0  0  0  0
  -22.4260  -11.9979   22.4904 H   0  0  0  0  0  0
  -21.1131  -13.1180   22.2629 H   0  0  0  0  0  0
  -24.6704  -15.8376   20.5319 H   0  0  0  0  0  0
  -26.2924  -15.6290   20.1031 H   0  0  0  0  0  0
  -26.7086  -32.5569   23.1181 H   0  0  0  0  0  0
  -25.0084  -33.9819   25.0515 H   0  0  0  0  0  0
  -22.6836  -31.3109   21.4148 H   0  0  0  0  0  0
  -23.3734  -35.9670   23.3309 H   0  0  0  0  0  0
  -24.3592  -36.8916   22.2045 H   0  0  0  0  0  0
  -23.7239  -37.6536   23.6623 H   0  0  0  0  0  0
  -26.0321  -31.6090   20.5985 H   0  0  0  0  0  0
  -26.8098  -30.8957   21.9846 H   0  0  0  0  0  0
  -28.0987  -29.1391   21.1514 H   0  0  0  0  0  0
  -26.0890  -26.0278   18.9428 H   0  0  0  0  0  0
  -23.9869  -27.3083   19.0179 H   0  0  0  0  0  0
  -23.7103  -30.6010   19.4062 H   0  0  0  0  0  0
  -22.7283  -29.2456   19.8741 H   0  0  0  0  0  0
  -25.1272  -36.2003   25.0826 H   0  0  0  0  0  0
  -20.9962  -28.3235   24.1435 H   0  0  0  0  0  0
  -20.5655  -26.2276   23.3600 H   0  0  0  0  0  0
  -21.6635  -26.7452   22.1219 H   0  0  0  0  0  0
  -19.6912  -25.6307   21.1221 H   0  0  0  0  0  0
  -19.6681  -27.3205   20.6738 H   0  0  0  0  0  0
  -17.4195  -26.6683   21.4011 H   0  0  0  0  0  0
  -18.0329  -26.0054   22.8997 H   0  0  0  0  0  0
  -19.7920  -30.7234   24.2318 H   0  0  0  0  0  0
  -17.5008  -31.6273   24.5158 H   0  0  0  0  0  0
  -15.5344  -30.3003   23.7614 H   0  0  0  0  0  0
  -15.8660  -28.0817   22.7057 H   0  0  0  0  0  0
  -24.5937  -30.7036   25.7866 H   0  0  0  0  0  0
  -24.8890  -32.2912   26.4862 H   0  0  0  0  0  0
  -25.8112  -30.9008   27.0285 H   0  0  0  0  0  0
  -26.2797  -29.6843   24.1099 H   0  0  0  0  0  0
  -27.3946  -29.7225   25.4557 H   0  0  0  0  0  0
  -27.8668  -30.4316   23.9284 H   0  0  0  0  0  0
  -27.2687  -33.3614   26.2073 H   0  0  0  0  0  0
  -28.3850  -32.6884   25.0296 H   0  0  0  0  0  0
  -28.0723  -31.8429   26.5378 H   0  0  0  0  0  0
  -28.2607  -38.0104   24.7499 H   0  0  0  0  0  0
  -28.1075  -36.2636   24.6289 H   0  0  0  0  0  0
  -27.2308  -37.1477   25.8864 H   0  0  0  0  0  0
  -20.9265  -29.8762   21.6953 H   0  0  0  0  0  0
  -26.0192  -38.2876   24.1404 H   0  0  0  0  0  0
  -26.8914  -16.4654   24.9985 H   0  0  0  0  0  0
  -28.8474  -15.3652   23.9423 H   0  0  0  0  0  0
  -26.2332  -18.7586   24.3216 H   0  0  0  0  0  0
  -29.5871  -18.9051   21.5968 H   0  0  0  0  0  0
  -28.1389  -23.2579   22.0939 H   0  0  0  0  0  0
  -29.2862  -22.9132   20.8161 H   0  0  0  0  0  0
  -26.7505  -24.5436   20.4298 H   0  0  0  0  0  0
  -28.0249  -24.3301   19.2445 H   0  0  0  0  0  0
  -27.4639  -21.8009   19.4774 H   0  0  0  0  0  0
  -26.3041  -22.1554   20.7363 H   0  0  0  0  0  0
  -29.6091  -25.4517   20.9647 H   0  0  0  0  0  0
  -28.1881  -25.8975   21.8744 H   0  0  0  0  0  0
  -29.2328  -14.8502   21.8485 H   0  0  0  0  0  0
  -28.1870  -19.9971   20.6623 H   0  0  0  0  0  0
  1 25  1  0  0  0
  1 30  2  0  0  0
  1 83  1  0  0  0
  2  3  1  0  0  0
  2 25  1  0  0  0
  2 87  1  0  0  0
  2 88  1  0  0  0
  3  4  1  0  0  0
  3 89  1  0  0  0
  3 90  1  0  0  0
  4  5  1  0  0  0
  4 91  1  0  0  0
  4 92  1  0  0  0
  5  6  1  0  0  0
  5 26  1  0  0  0
  5 93  1  0  0  0
  6 25  1  0  0  0
  6 94  1  0  0  0
  6 95  1  0  0  0
  7  8  2  0  0  0
  7 26  1  0  0  0
  7 29  1  0  0  0
  8  9  1  0  0  0
  8 22  1  0  0  0
  9 10  1  0  0  0
  9 27  2  0  0  0
 10 11  2  0  0  0
 10 15  1  0  0  0
 11 12  1  0  0  0
 11 96  1  0  0  0
 12 13  2  0  0  0
 12 97  1  0  0  0
 13 14  1  0  0  0
 13 31  1  0  0  0
 14 15  2  0  0  0
 14 98  1  0  0  0
 15 99  1  0  0  0
 16 17  2  0  0  0
 16 21  1  0  0  0
 16 31  1  0  0  0
 17 18  1  0  0  0
 17100  1  0  0  0
 18 19  2  0  0  0
 18101  1  0  0  0
 19 20  1  0  0  0
 19 24  1  0  0  0
 20 21  2  0  0  0
 20102  1  0  0  0
 21 23  1  0  0  0
 22 28  1  0  0  0
 22 32  2  0  0  0
 26 27  1  0  0  0
 28103  1  0  0  0
 28104  1  0  0  0
 29105  1  0  0  0
 29106  1  0  0  0
 33 34  1  0  0  0
 33 66  1  0  0  0
 33 70  2  0  0  0
 34 36  1  0  0  0
 34 59  1  0  0  0
 34107  1  0  0  0
 35 44  2  0  0  0
 35 45  1  0  0  0
 35 68  1  0  0  0
 36 56  1  0  0  0
 36108  1  0  0  0
 37 39  1  0  0  0
 37 47  1  0  0  0
 37 66  1  0  0  0
 37109  1  0  0  0
 38 43  2  0  0  0
 38 46  1  0  0  0
 38 47  1  0  0  0
 39 64  1  0  0  0
 39 67  2  0  0  0
 40 52  1  0  0  0
 40 53  2  0  0  0
 40 58  1  0  0  0
 41110  1  0  0  0
 41111  1  0  0  0
 41112  1  0  0  0
 41 48  1  0  0  0
 42 43  1  0  0  0
 42 66  1  0  0  0
 42113  1  0  0  0
 42114  1  0  0  0
 43 44  1  0  0  0
 44115  1  0  0  0
 45 46  2  0  0  0
 45116  1  0  0  0
 46117  1  0  0  0
 47118  1  0  0  0
 47119  1  0  0  0
 48 56  1  0  0  0
 48 65  1  0  0  0
 48120  1  0  0  0
 49 50  1  0  0  0
 49 53  1  0  0  0
 49 64  1  0  0  0
 49121  1  0  0  0
 50 51  1  0  0  0
 50122  1  0  0  0
 50123  1  0  0  0
 51 52  1  0  0  0
 51124  1  0  0  0
 51125  1  0  0  0
 52126  1  0  0  0
 52127  1  0  0  0
 53 54  1  0  0  0
 54 55  2  0  0  0
 54128  1  0  0  0
 55 57  1  0  0  0
 55129  1  0  0  0
 56 69  2  0  0  0
 57 58  2  0  0  0
 57130  1  0  0  0
 58131  1  0  0  0
 59 60  1  0  0  0
 59 61  1  0  0  0
 59 62  1  0  0  0
 60132  1  0  0  0
 60133  1  0  0  0
 60134  1  0  0  0
 61135  1  0  0  0
 61136  1  0  0  0
 61137  1  0  0  0
 62138  1  0  0  0
 62139  1  0  0  0
 62140  1  0  0  0
 63 65  1  0  0  0
 63141  1  0  0  0
 63142  1  0  0  0
 63143  1  0  0  0
 64144  1  0  0  0
 65145  1  0  0  0
 68 82  1  0  0  0
 71 72  2  0  0  0
 71 73  1  0  0  0
 71146  1  0  0  0
 72 75  1  0  0  0
 72147  1  0  0  0
 73 76  2  0  0  0
 73148  1  0  0  0
 74 75  2  0  0  0
 74 76  1  0  0  0
 74149  1  0  0  0
 75 77  1  0  0  0
 76 78  1  0  0  0
 77 83  1  0  0  0
 77 85  2  0  0  0
 78 84  1  0  0  0
 78 86  2  0  0  0
 79 80  1  0  0  0
 79 81  1  0  0  0
 79150  1  0  0  0
 79151  1  0  0  0
 80 82  1  0  0  0
 80152  1  0  0  0
 80153  1  0  0  0
 81 84  1  0  0  0
 81154  1  0  0  0
 81155  1  0  0  0
 82156  1  0  0  0
 82157  1  0  0  0
 83158  1  0  0  0
 84159  1  0  0  0
M  ISO  4   1 100  68 101  82 101  83 100
M  END
> <chiral flag>
0

> <version>
0

> <s_m_source_file>
/data/baiqing/PycharmProjects/Reinvent-master-3.2/result/LINK_invent/BTK/process_docking_weight1_custom_product_contain_oxygen_bond_distance_aromatic_linkinvent_7_9_3/rearranged_h_0002.sdf

> <i_m_source_file_index>
62

> <r_mmod_Potential_Energy-OPLS-2005>
-179.9931640625

> <r_mmod_Stretch_Energy-OPLS-2005>
30.6652488708496

> <r_mmod_Bend_Energy-OPLS-2005>
92.9256973266602

> <r_mmod_Torsional_Energy-OPLS-2005>
237.953460693359

> <r_mmod_Improper_Torsional_Energy-OPLS-2005>
3.26370143890381

> <r_mmod_Van_der_Waal_Energy-OPLS-2005>
161.895431518555

> <r_mmod_Electrostatic_Energy-OPLS-2005>
-468.867309570312

> <r_mmod_Solvation_Energy-OPLS-2005>
-245.409118652344

> <b_mmod_Minimization_Converged-OPLS-2005>
0

> <r_mmod_RMS_Derivative-OPLS-2005>
2.17908024787903

$$$$
62
                    3D
 Structure written by MMmdl.
147155  0  0  1  0            999 V2000
  -30.4173  -15.3377   20.3238 C   0  0  0  0  0  0
  -30.4429  -12.8496   19.5415 C   0  0  0  0  0  0
  -29.5466  -12.5835   18.3044 C   0  0  0  0  0  0
  -28.1044  -12.2845   18.7491 C   0  0  0  0  0  0
  -27.6144  -13.2854   19.8231 C   0  0  2  0  0  0
  -28.6408  -13.5037   20.9568 C   0  0  0  0  0  0
  -25.2393  -13.8315   20.5742 C   0  0  0  0  0  0
  -24.1767  -13.0477   20.9269 C   0  0  0  0  0  0
  -24.6425  -11.6978   20.8757 C   0  0  0  0  0  0
  -23.9107  -10.4331   21.0397 C   0  0  0  0  0  0
  -24.3650   -9.4247   21.9185 C   0  0  0  0  0  0
  -23.6341   -8.2267   22.0730 C   0  0  0  0  0  0
  -22.4321   -8.0295   21.3532 C   0  0  0  0  0  0
  -21.9958   -9.0264   20.4640 C   0  0  0  0  0  0
  -22.7264  -10.2157   20.3058 C   0  0  0  0  0  0
  -21.6874   -6.0761   22.5280 C   0  0  0  0  0  0
  -21.4046   -6.5657   23.8217 C   0  0  0  0  0  0
  -21.3646   -5.6789   24.9163 C   0  0  0  0  0  0
  -21.6025   -4.3052   24.7209 C   0  0  0  0  0  0
  -21.8832   -3.8168   23.4329 C   0  0  0  0  0  0
  -21.9212   -4.6993   22.3394 C   0  0  0  0  0  0
  -22.7765  -13.5177   21.1890 C   0  0  0  0  0  0
  -22.1680   -4.2182   21.0972 F   0  0  0  0  0  0
  -21.5611   -3.4531   25.7724 F   0  0  0  0  0  0
  -29.8736  -14.0115   20.3306 N   0  0  0  0  0  0
  -26.2831  -12.9589   20.3211 N   0  0  0  0  0  0
  -25.9354  -11.6678   20.5719 N   0  0  0  0  0  0
  -22.0445  -12.8139   22.0456 N   0  0  0  0  0  0
  -25.3995  -15.2044   20.4132 N   0  0  0  0  0  0
  -31.6343  -15.3268   20.0769 O   0  0  0  0  0  0
  -21.6653   -6.8903   21.4243 O   0  0  0  0  0  0
  -22.3409  -14.5439   20.6685 O   0  0  0  0  0  0
  -24.6639  -31.8206   23.1679 C   0  0  0  0  0  0
  -25.9293  -32.4590   23.8142 C   0  0  1  0  0  0
  -27.2301  -26.9041   20.1724 C   0  0  0  0  0  0
  -25.5954  -33.8394   24.2048 N   0  0  0  0  0  0
  -23.4792  -30.4275   21.5181 C   0  0  2  0  0  0
  -24.9341  -28.8092   20.1097 C   0  0  0  0  0  0
  -22.7677  -29.4404   22.4791 C   0  0  0  0  0  0
  -18.0352  -28.1409   22.8425 C   0  0  0  0  0  0
  -24.1483  -36.7212   23.2651 C   0  0  0  0  0  0
  -26.0495  -30.6193   21.4014 C   0  0  0  0  0  0
  -26.1180  -29.2050   20.7439 C   0  0  0  0  0  0
  -27.2524  -28.2708   20.7542 C   0  0  0  0  0  0
  -26.0147  -26.6667   19.4886 C   0  0  0  0  0  0
  -24.9079  -27.5614   19.4646 C   0  0  0  0  0  0
  -23.7205  -29.7400   20.1468 C   0  0  0  0  0  0
  -25.4127  -36.2987   24.0300 C   0  0  1  0  0  0
  -20.5945  -28.3771   23.1251 C   0  0  2  0  0  0
  -20.6866  -26.9462   22.5451 C   0  0  0  0  0  0
  -19.5886  -26.6385   21.5253 C   0  0  0  0  0  0
  -18.2023  -26.7962   22.1587 C   0  0  0  0  0  0
  -19.1571  -28.8900   23.2802 C   0  0  0  0  0  0
  -18.9412  -30.1468   23.8857 C   0  0  0  0  0  0
  -17.6405  -30.6562   24.0560 C   0  0  0  0  0  0
  -25.9091  -34.9370   23.4998 C   0  0  0  0  0  0
  -16.5346  -29.9031   23.6257 C   0  0  0  0  0  0
  -16.7313  -28.6471   23.0286 C   0  0  0  0  0  0
  -26.4537  -31.6556   25.0691 C   0  0  0  0  0  0
  -25.3640  -31.3820   26.1332 C   0  0  0  0  0  0
  -27.0445  -30.2923   24.6462 C   0  0  0  0  0  0
  -27.6023  -32.4380   25.7501 C   0  0  0  0  0  0
  -27.5556  -37.1767   24.8467 C   0  0  0  0  0  0
  -21.4334  -29.3040   22.3579 N   0  0  0  0  0  0
  -26.4283  -37.3719   23.9400 N   0  0  0  0  0  0
  -24.7524  -30.9844   22.0828 N   0  0  0  0  0  0
  -23.4211  -28.7995   23.3048 O   0  0  0  0  0  0
  -28.2434  -25.8023   20.2918 O   0  0  0  0  0  0
  -26.5733  -34.8890   22.4621 O   0  0  0  0  0  0
  -23.5697  -32.1187   23.6746 O   0  0  0  0  0  0
  -30.4574  -19.7735   18.2385 C   0  0  0  0  0  0
  -29.8838  -20.9571   18.7817 C   0  0  0  0  0  0
  -30.4003  -18.4795   18.8314 C   0  0  0  0  0  0
  -29.1298  -19.5344   20.5858 C   0  0  0  0  0  0
  -29.1807  -20.9844   20.0068 C   0  0  0  0  0  0
  -29.7276  -18.2014   20.0451 C   0  0  0  0  0  0
  -28.6918  -22.5849   20.5862 C   0  0  0  0  0  0
  -28.2563  -24.1938   19.8356 C   0  0  0  0  0  0
  -29.6525  -16.6185   20.4827 N   0  0  0  0  0  0
  -31.4638  -13.0457   19.2134 H   0  0  0  0  0  0
  -30.5154  -11.9574   20.1644 H   0  0  0  0  0  0
  -29.9397  -11.7591   17.7092 H   0  0  0  0  0  0
  -29.5554  -13.4598   17.6532 H   0  0  0  0  0  0
  -28.0917  -11.2763   19.1669 H   0  0  0  0  0  0
  -27.4290  -12.2662   17.8945 H   0  0  0  0  0  0
  -27.5241  -14.2363   19.2968 H   0  0  0  0  0  0
  -28.8133  -12.5874   21.5201 H   0  0  0  0  0  0
  -28.2689  -14.2421   21.6695 H   0  0  0  0  0  0
  -25.2781   -9.5713   22.4775 H   0  0  0  0  0  0
  -24.0042   -7.4642   22.7429 H   0  0  0  0  0  0
  -21.0895   -8.8773   19.8945 H   0  0  0  0  0  0
  -22.3705  -10.9694   19.6181 H   0  0  0  0  0  0
  -21.2075   -7.6176   23.9727 H   0  0  0  0  0  0
  -21.1425   -6.0520   25.9052 H   0  0  0  0  0  0
  -22.0630   -2.7639   23.2826 H   0  0  0  0  0  0
  -22.4127  -11.9798   22.4786 H   0  0  0  0  0  0
  -21.1051  -13.1114   22.2683 H   0  0  0  0  0  0
  -24.6295  -15.8519   20.5379 H   0  0  0  0  0  0
  -26.2130  -15.6399   19.9971 H   0  0  0  0  0  0
  -26.7351  -32.5122   23.0843 H   0  0  0  0  0  0
  -24.9998  -33.9460   25.0122 H   0  0  0  0  0  0
  -22.7922  -31.2575   21.3482 H   0  0  0  0  0  0
  -23.3772  -35.9518   23.3310 H   0  0  0  0  0  0
  -24.3539  -36.8869   22.2066 H   0  0  0  0  0  0
  -23.7203  -37.6376   23.6715 H   0  0  0  0  0  0
  -26.2310  -31.3606   20.6216 H   0  0  0  0  0  0
  -26.9075  -30.6781   22.0594 H   0  0  0  0  0  0
  -28.1442  -28.5719   21.2874 H   0  0  0  0  0  0
  -25.8772  -25.7137   18.9978 H   0  0  0  0  0  0
  -24.0029  -27.2483   18.9610 H   0  0  0  0  0  0
  -23.8816  -30.5135   19.3931 H   0  0  0  0  0  0
  -22.8297  -29.1979   19.8222 H   0  0  0  0  0  0
  -25.1318  -36.1809   25.0793 H   0  0  0  0  0  0
  -20.9948  -28.3479   24.1395 H   0  0  0  0  0  0
  -20.5743  -26.2411   23.3676 H   0  0  0  0  0  0
  -21.6731  -26.7458   22.1229 H   0  0  0  0  0  0
  -19.6986  -25.6270   21.1352 H   0  0  0  0  0  0
  -19.6945  -27.3099   20.6719 H   0  0  0  0  0  0
  -17.4345  -26.6759   21.3942 H   0  0  0  0  0  0
  -18.0367  -26.0090   22.8930 H   0  0  0  0  0  0
  -19.7873  -30.7321   24.2169 H   0  0  0  0  0  0
  -17.4839  -31.6204   24.5199 H   0  0  0  0  0  0
  -15.5330  -30.2906   23.7480 H   0  0  0  0  0  0
  -15.8730  -28.0789   22.6988 H   0  0  0  0  0  0
  -24.5838  -30.7160   25.7625 H   0  0  0  0  0  0
  -24.8813  -32.3031   26.4615 H   0  0  0  0  0  0
  -25.7848  -30.9075   27.0197 H   0  0  0  0  0  0
  -26.3124  -29.6587   24.1447 H   0  0  0  0  0  0
  -27.3929  -29.7315   25.5133 H   0  0  0  0  0  0
  -27.9081  -30.4088   23.9910 H   0  0  0  0  0  0
  -27.2583  -33.3725   26.1937 H   0  0  0  0  0  0
  -28.3918  -32.6858   25.0397 H   0  0  0  0  0  0
  -28.0600  -31.8599   26.5535 H   0  0  0  0  0  0
  -28.2578  -38.0056   24.7487 H   0  0  0  0  0  0
  -28.1053  -36.2577   24.6356 H   0  0  0  0  0  0
  -27.2263  -37.1481   25.8870 H   0  0  0  0  0  0
  -20.9514  -29.8813   21.6805 H   0  0  0  0  0  0
  -26.0153  -38.2777   24.1451 H   0  0  0  0  0  0
  -30.9796  -19.8670   17.2954 H   0  0  0  0  0  0
  -30.0180  -21.8837   18.2329 H   0  0  0  0  0  0
  -30.8617  -17.6670   18.2851 H   0  0  0  0  0  0
  -28.6059  -19.4490   21.5308 H   0  0  0  0  0  0
  -27.8770  -22.3691   21.2812 H   0  0  0  0  0  0
  -29.5245  -22.8445   21.2385 H   0  0  0  0  0  0
  -27.3031  -24.0277   19.3345 H   0  0  0  0  0  0
  -28.9624  -24.2545   19.0068 H   0  0  0  0  0  0
  -28.7484  -16.3975   20.8725 H   0  0  0  0  0  0
  1 25  1  0  0  0
  1 30  2  0  0  0
  1 79  1  0  0  0
  2  3  1  0  0  0
  2 25  1  0  0  0
  2 80  1  0  0  0
  2 81  1  0  0  0
  3  4  1  0  0  0
  3 82  1  0  0  0
  3 83  1  0  0  0
  4  5  1  0  0  0
  4 84  1  0  0  0
  4 85  1  0  0  0
  5  6  1  0  0  0
  5 26  1  0  0  0
  5 86  1  0  0  0
  6 25  1  0  0  0
  6 87  1  0  0  0
  6 88  1  0  0  0
  7  8  2  0  0  0
  7 26  1  0  0  0
  7 29  1  0  0  0
  8  9  1  0  0  0
  8 22  1  0  0  0
  9 10  1  0  0  0
  9 27  2  0  0  0
 10 11  2  0  0  0
 10 15  1  0  0  0
 11 12  1  0  0  0
 11 89  1  0  0  0
 12 13  2  0  0  0
 12 90  1  0  0  0
 13 14  1  0  0  0
 13 31  1  0  0  0
 14 15  2  0  0  0
 14 91  1  0  0  0
 15 92  1  0  0  0
 16 17  2  0  0  0
 16 21  1  0  0  0
 16 31  1  0  0  0
 17 18  1  0  0  0
 17 93  1  0  0  0
 18 19  2  0  0  0
 18 94  1  0  0  0
 19 20  1  0  0  0
 19 24  1  0  0  0
 20 21  2  0  0  0
 20 95  1  0  0  0
 21 23  1  0  0  0
 22 28  1  0  0  0
 22 32  2  0  0  0
 26 27  1  0  0  0
 28 96  1  0  0  0
 28 97  1  0  0  0
 29 98  1  0  0  0
 29 99  1  0  0  0
 33 34  1  0  0  0
 33 66  1  0  0  0
 33 70  2  0  0  0
 34 36  1  0  0  0
 34 59  1  0  0  0
 34100  1  0  0  0
 35 44  2  0  0  0
 35 45  1  0  0  0
 35 68  1  0  0  0
 36 56  1  0  0  0
 36101  1  0  0  0
 37 39  1  0  0  0
 37 47  1  0  0  0
 37 66  1  0  0  0
 37102  1  0  0  0
 38 43  2  0  0  0
 38 46  1  0  0  0
 38 47  1  0  0  0
 39 64  1  0  0  0
 39 67  2  0  0  0
 40 52  1  0  0  0
 40 53  2  0  0  0
 40 58  1  0  0  0
 41103  1  0  0  0
 41104  1  0  0  0
 41105  1  0  0  0
 41 48  1  0  0  0
 42 43  1  0  0  0
 42 66  1  0  0  0
 42106  1  0  0  0
 42107  1  0  0  0
 43 44  1  0  0  0
 44108  1  0  0  0
 45 46  2  0  0  0
 45109  1  0  0  0
 46110  1  0  0  0
 47111  1  0  0  0
 47112  1  0  0  0
 48 56  1  0  0  0
 48 65  1  0  0  0
 48113  1  0  0  0
 49 50  1  0  0  0
 49 53  1  0  0  0
 49 64  1  0  0  0
 49114  1  0  0  0
 50 51  1  0  0  0
 50115  1  0  0  0
 50116  1  0  0  0
 51 52  1  0  0  0
 51117  1  0  0  0
 51118  1  0  0  0
 52119  1  0  0  0
 52120  1  0  0  0
 53 54  1  0  0  0
 54 55  2  0  0  0
 54121  1  0  0  0
 55 57  1  0  0  0
 55122  1  0  0  0
 56 69  2  0  0  0
 57 58  2  0  0  0
 57123  1  0  0  0
 58124  1  0  0  0
 59 60  1  0  0  0
 59 61  1  0  0  0
 59 62  1  0  0  0
 60125  1  0  0  0
 60126  1  0  0  0
 60127  1  0  0  0
 61128  1  0  0  0
 61129  1  0  0  0
 61130  1  0  0  0
 62131  1  0  0  0
 62132  1  0  0  0
 62133  1  0  0  0
 63 65  1  0  0  0
 63134  1  0  0  0
 63135  1  0  0  0
 63136  1  0  0  0
 64137  1  0  0  0
 65138  1  0  0  0
 68 78  1  0  0  0
 71 72  2  0  0  0
 71 73  1  0  0  0
 71139  1  0  0  0
 72 75  1  0  0  0
 72140  1  0  0  0
 73 76  2  0  0  0
 73141  1  0  0  0
 74 75  2  0  0  0
 74 76  1  0  0  0
 74142  1  0  0  0
 75 77  1  0  0  0
 76 79  1  0  0  0
 77 78  1  0  0  0
 77143  1  0  0  0
 77144  1  0  0  0
 78145  1  0  0  0
 78146  1  0  0  0
 79147  1  0  0  0
M  ISO  4   1 100  68 101  78 101  79 100
M  END
> <chiral flag>
0

> <version>
0

> <s_m_source_file>
/data/baiqing/PycharmProjects/Reinvent-master-3.2/result/LINK_invent/BTK/process_docking_weight1_custom_product_contain_oxygen_bond_distance_aromatic_linkinvent_7_9_3/rearranged_h_0002.sdf

> <i_m_source_file_index>
63

> <r_mmod_Potential_Energy-OPLS-2005>
1413.70751953125

> <r_mmod_Stretch_Energy-OPLS-2005>
652.188598632812

> <r_mmod_Bend_Energy-OPLS-2005>
447.77783203125

> <r_mmod_Torsional_Energy-OPLS-2005>
226.55256652832

> <r_mmod_Improper_Torsional_Energy-OPLS-2005>
3.64749312400818

> <r_mmod_Van_der_Waal_Energy-OPLS-2005>
123.477447509766

> <r_mmod_Electrostatic_Energy-OPLS-2005>
-347.025146484375

> <r_mmod_Solvation_Energy-OPLS-2005>
-211.674667358398

> <b_mmod_Minimization_Converged-OPLS-2005>
0

> <r_mmod_RMS_Derivative-OPLS-2005>
5.35810518264771

$$$$
63
                    3D
 Structure written by MMmdl.
150158  0  0  1  0            999 V2000
  -30.6540  -14.6655   20.4863 C   0  0  0  0  0  0
  -30.4302  -12.4082   19.4686 C   0  0  0  0  0  0
  -29.5082  -12.4967   18.2332 C   0  0  0  0  0  0
  -28.0343  -12.3296   18.6478 C   0  0  0  0  0  0
  -27.6487  -13.2248   19.8566 C   0  0  2  0  0  0
  -28.6926  -13.1299   20.9921 C   0  0  0  0  0  0
  -25.2538  -13.8182   20.5686 C   0  0  0  0  0  0
  -24.1815  -13.0438   20.9194 C   0  0  0  0  0  0
  -24.6395  -11.6911   20.8742 C   0  0  0  0  0  0
  -23.9070  -10.4291   21.0405 C   0  0  0  0  0  0
  -24.3618   -9.4210   21.9190 C   0  0  0  0  0  0
  -23.6294   -8.2246   22.0761 C   0  0  0  0  0  0
  -22.4280   -8.0280   21.3547 C   0  0  0  0  0  0
  -21.9911   -9.0254   20.4649 C   0  0  0  0  0  0
  -22.7240  -10.2133   20.3057 C   0  0  0  0  0  0
  -21.6857   -6.0735   22.5283 C   0  0  0  0  0  0
  -21.4015   -6.5638   23.8217 C   0  0  0  0  0  0
  -21.3659   -5.6791   24.9177 C   0  0  0  0  0  0
  -21.6043   -4.3053   24.7228 C   0  0  0  0  0  0
  -21.8819   -3.8147   23.4349 C   0  0  0  0  0  0
  -21.9193   -4.6962   22.3405 C   0  0  0  0  0  0
  -22.7836  -13.5231   21.1849 C   0  0  0  0  0  0
  -22.1663   -4.2150   21.0981 F   0  0  0  0  0  0
  -21.5627   -3.4535   25.7739 F   0  0  0  0  0  0
  -30.0031  -13.4593   20.4179 N   0  0  0  0  0  0
  -26.2971  -12.9383   20.3302 N   0  0  0  0  0  0
  -25.9328  -11.6531   20.5764 N   0  0  0  0  0  0
  -22.0470  -12.8231   22.0401 N   0  0  0  0  0  0
  -25.4228  -15.1902   20.4090 N   0  0  0  0  0  0
  -31.8291  -14.7659   20.1273 O   0  0  0  0  0  0
  -21.6644   -6.8877   21.4246 O   0  0  0  0  0  0
  -22.3529  -14.5542   20.6697 O   0  0  0  0  0  0
  -24.6275  -31.8608   23.2032 C   0  0  0  0  0  0
  -25.9126  -32.4784   23.8366 C   0  0  1  0  0  0
  -27.2156  -27.3150   20.1374 C   0  0  0  0  0  0
  -25.5941  -33.8585   24.2298 N   0  0  0  0  0  0
  -23.4217  -30.4860   21.5443 C   0  0  2  0  0  0
  -24.8725  -28.9465   20.1052 C   0  0  0  0  0  0
  -22.7492  -29.4633   22.4916 C   0  0  0  0  0  0
  -18.0291  -28.1408   22.8505 C   0  0  0  0  0  0
  -24.1468  -36.7269   23.2642 C   0  0  0  0  0  0
  -25.9642  -30.7930   21.3752 C   0  0  0  0  0  0
  -26.0418  -29.4217   20.7173 C   0  0  0  0  0  0
  -27.2226  -28.6178   20.7259 C   0  0  0  0  0  0
  -26.0368  -26.9061   19.4771 C   0  0  0  0  0  0
  -24.8733  -27.6952   19.4711 C   0  0  0  0  0  0
  -23.6387  -29.8257   20.1574 C   0  0  0  0  0  0
  -25.4095  -36.3084   24.0345 C   0  0  1  0  0  0
  -20.5900  -28.3709   23.1279 C   0  0  2  0  0  0
  -20.6769  -26.9427   22.5412 C   0  0  0  0  0  0
  -19.5734  -26.6407   21.5221 C   0  0  0  0  0  0
  -18.1922  -26.7953   22.1641 C   0  0  0  0  0  0
  -19.1548  -28.8877   23.2886 C   0  0  0  0  0  0
  -18.9469  -30.1487   23.8898 C   0  0  0  0  0  0
  -17.6468  -30.6604   24.0579 C   0  0  0  0  0  0
  -25.9047  -34.9457   23.5113 C   0  0  0  0  0  0
  -16.5358  -29.9108   23.6345 C   0  0  0  0  0  0
  -16.7281  -28.6526   23.0365 C   0  0  0  0  0  0
  -26.4503  -31.6592   25.0732 C   0  0  0  0  0  0
  -25.3737  -31.3725   26.1457 C   0  0  0  0  0  0
  -27.0349  -30.3021   24.6177 C   0  0  0  0  0  0
  -27.6060  -32.4333   25.7501 C   0  0  0  0  0  0
  -27.5565  -37.1786   24.8476 C   0  0  0  0  0  0
  -21.4204  -29.3052   22.3655 N   0  0  0  0  0  0
  -26.4268  -37.3786   23.9435 N   0  0  0  0  0  0
  -24.6895  -31.0632   22.0976 N   0  0  0  0  0  0
  -23.4209  -28.8189   23.3013 O   0  0  0  0  0  0
  -28.2479  -26.3668   20.2148 O   0  0  0  0  0  0
  -26.5605  -34.8929   22.4676 O   0  0  0  0  0  0
  -23.5444  -32.1408   23.7358 O   0  0  0  0  0  0
  -27.9797  -22.7112   21.4582 C   0  0  0  0  0  0
  -29.6240  -23.5079   19.9076 C   0  0  0  0  0  0
  -28.4184  -21.3626   21.2805 C   0  0  0  0  0  0
  -30.0766  -22.1574   19.7448 C   0  0  0  0  0  0
  -28.5594  -23.8331   20.7864 C   0  0  0  0  0  0
  -29.4980  -21.0416   20.4206 C   0  0  0  0  0  0
  -28.0153  -25.2530   21.0947 C   0  0  0  0  0  0
  -30.4140  -17.2204   20.4980 C   0  0  0  0  0  0
  -29.4575  -18.4898   20.7160 C   0  0  0  0  0  0
  -29.9255  -15.8037   20.7399 N   0  0  0  0  0  0
  -27.3029  -25.4055   22.0942 O   0  0  0  0  0  0
  -30.0374  -19.7491   20.2139 O   0  0  0  0  0  0
  -31.4734  -12.5175   19.1658 H   0  0  0  0  0  0
  -30.3598  -11.4246   19.9358 H   0  0  0  0  0  0
  -29.7797  -11.7319   17.5041 H   0  0  0  0  0  0
  -29.6470  -13.4586   17.7371 H   0  0  0  0  0  0
  -27.8867  -11.2801   18.9061 H   0  0  0  0  0  0
  -27.3760  -12.5276   17.8015 H   0  0  0  0  0  0
  -27.6544  -14.2510   19.4887 H   0  0  0  0  0  0
  -28.7086  -12.1254   21.4167 H   0  0  0  0  0  0
  -28.4392  -13.8034   21.8116 H   0  0  0  0  0  0
  -25.2758   -9.5689   22.4771 H   0  0  0  0  0  0
  -24.0000   -7.4640   22.7481 H   0  0  0  0  0  0
  -21.0844   -8.8769   19.8956 H   0  0  0  0  0  0
  -22.3697  -10.9670   19.6166 H   0  0  0  0  0  0
  -21.2011   -7.6146   23.9721 H   0  0  0  0  0  0
  -21.1480   -6.0520   25.9080 H   0  0  0  0  0  0
  -22.0599   -2.7611   23.2850 H   0  0  0  0  0  0
  -22.4077  -11.9892   22.4797 H   0  0  0  0  0  0
  -21.1092  -13.1271   22.2601 H   0  0  0  0  0  0
  -24.6521  -15.8410   20.5132 H   0  0  0  0  0  0
  -26.2686  -15.6294   20.0694 H   0  0  0  0  0  0
  -26.7196  -32.5468   23.1120 H   0  0  0  0  0  0
  -25.0098  -33.9720   25.0450 H   0  0  0  0  0  0
  -22.7147  -31.3065   21.4024 H   0  0  0  0  0  0
  -23.3743  -35.9588   23.3314 H   0  0  0  0  0  0
  -24.3546  -36.8871   22.2051 H   0  0  0  0  0  0
  -23.7206  -37.6469   23.6647 H   0  0  0  0  0  0
  -26.0955  -31.5559   20.6063 H   0  0  0  0  0  0
  -26.8440  -30.8430   22.0054 H   0  0  0  0  0  0
  -28.1127  -28.9660   21.2298 H   0  0  0  0  0  0
  -25.9999  -25.9334   19.0060 H   0  0  0  0  0  0
  -23.9805  -27.3259   18.9843 H   0  0  0  0  0  0
  -23.7574  -30.6048   19.4032 H   0  0  0  0  0  0
  -22.7585  -29.2569   19.8518 H   0  0  0  0  0  0
  -25.1267  -36.1927   25.0837 H   0  0  0  0  0  0
  -21.0009  -28.3291   24.1397 H   0  0  0  0  0  0
  -20.5673  -26.2325   23.3618 H   0  0  0  0  0  0
  -21.6635  -26.7448   22.1203 H   0  0  0  0  0  0
  -19.6873  -25.6318   21.1252 H   0  0  0  0  0  0
  -19.6659  -27.3212   20.6746 H   0  0  0  0  0  0
  -17.4188  -26.6739   21.4044 H   0  0  0  0  0  0
  -18.0301  -26.0084   22.9026 H   0  0  0  0  0  0
  -19.7940  -30.7317   24.2256 H   0  0  0  0  0  0
  -17.5015  -31.6281   24.5189 H   0  0  0  0  0  0
  -15.5358  -30.3011   23.7664 H   0  0  0  0  0  0
  -15.8682  -28.0845   22.7082 H   0  0  0  0  0  0
  -24.5929  -30.7046   25.7796 H   0  0  0  0  0  0
  -24.8902  -32.2883   26.4868 H   0  0  0  0  0  0
  -25.8075  -30.8931   27.0240 H   0  0  0  0  0  0
  -26.2921  -29.6765   24.1207 H   0  0  0  0  0  0
  -27.4055  -29.7283   25.4678 H   0  0  0  0  0  0
  -27.8789  -30.4308   23.9396 H   0  0  0  0  0  0
  -27.2668  -33.3642   26.2054 H   0  0  0  0  0  0
  -28.3879  -32.6874   25.0335 H   0  0  0  0  0  0
  -28.0709  -31.8471   26.5435 H   0  0  0  0  0  0
  -28.2598  -38.0068   24.7530 H   0  0  0  0  0  0
  -28.1044  -36.2608   24.6290 H   0  0  0  0  0  0
  -27.2291  -37.1433   25.8881 H   0  0  0  0  0  0
  -20.9389  -29.8765   21.6844 H   0  0  0  0  0  0
  -26.0144  -38.2855   24.1461 H   0  0  0  0  0  0
  -27.1639  -22.8792   22.1486 H   0  0  0  0  0  0
  -30.1225  -24.3018   19.3684 H   0  0  0  0  0  0
  -27.9220  -20.5785   21.8337 H   0  0  0  0  0  0
  -30.9080  -21.9769   19.0777 H   0  0  0  0  0  0
  -31.3112  -17.3687   21.1013 H   0  0  0  0  0  0
  -30.7568  -17.2550   19.4630 H   0  0  0  0  0  0
  -29.2249  -18.5919   21.7760 H   0  0  0  0  0  0
  -28.5134  -18.3242   20.1961 H   0  0  0  0  0  0
  -28.9604  -15.6803   21.0096 H   0  0  0  0  0  0
  1 25  1  0  0  0
  1 30  2  0  0  0
  1 80  1  0  0  0
  2  3  1  0  0  0
  2 25  1  0  0  0
  2 83  1  0  0  0
  2 84  1  0  0  0
  3  4  1  0  0  0
  3 85  1  0  0  0
  3 86  1  0  0  0
  4  5  1  0  0  0
  4 87  1  0  0  0
  4 88  1  0  0  0
  5  6  1  0  0  0
  5 26  1  0  0  0
  5 89  1  0  0  0
  6 25  1  0  0  0
  6 90  1  0  0  0
  6 91  1  0  0  0
  7  8  2  0  0  0
  7 26  1  0  0  0
  7 29  1  0  0  0
  8  9  1  0  0  0
  8 22  1  0  0  0
  9 10  1  0  0  0
  9 27  2  0  0  0
 10 11  2  0  0  0
 10 15  1  0  0  0
 11 12  1  0  0  0
 11 92  1  0  0  0
 12 13  2  0  0  0
 12 93  1  0  0  0
 13 14  1  0  0  0
 13 31  1  0  0  0
 14 15  2  0  0  0
 14 94  1  0  0  0
 15 95  1  0  0  0
 16 17  2  0  0  0
 16 21  1  0  0  0
 16 31  1  0  0  0
 17 18  1  0  0  0
 17 96  1  0  0  0
 18 19  2  0  0  0
 18 97  1  0  0  0
 19 20  1  0  0  0
 19 24  1  0  0  0
 20 21  2  0  0  0
 20 98  1  0  0  0
 21 23  1  0  0  0
 22 28  1  0  0  0
 22 32  2  0  0  0
 26 27  1  0  0  0
 28 99  1  0  0  0
 28100  1  0  0  0
 29101  1  0  0  0
 29102  1  0  0  0
 33 34  1  0  0  0
 33 66  1  0  0  0
 33 70  2  0  0  0
 34 36  1  0  0  0
 34 59  1  0  0  0
 34103  1  0  0  0
 35 44  2  0  0  0
 35 45  1  0  0  0
 35 68  1  0  0  0
 36 56  1  0  0  0
 36104  1  0  0  0
 37 39  1  0  0  0
 37 47  1  0  0  0
 37 66  1  0  0  0
 37105  1  0  0  0
 38 43  2  0  0  0
 38 46  1  0  0  0
 38 47  1  0  0  0
 39 64  1  0  0  0
 39 67  2  0  0  0
 40 52  1  0  0  0
 40 53  2  0  0  0
 40 58  1  0  0  0
 41106  1  0  0  0
 41107  1  0  0  0
 41108  1  0  0  0
 41 48  1  0  0  0
 42 43  1  0  0  0
 42 66  1  0  0  0
 42109  1  0  0  0
 42110  1  0  0  0
 43 44  1  0  0  0
 44111  1  0  0  0
 45 46  2  0  0  0
 45112  1  0  0  0
 46113  1  0  0  0
 47114  1  0  0  0
 47115  1  0  0  0
 48 56  1  0  0  0
 48 65  1  0  0  0
 48116  1  0  0  0
 49 50  1  0  0  0
 49 53  1  0  0  0
 49 64  1  0  0  0
 49117  1  0  0  0
 50 51  1  0  0  0
 50118  1  0  0  0
 50119  1  0  0  0
 51 52  1  0  0  0
 51120  1  0  0  0
 51121  1  0  0  0
 52122  1  0  0  0
 52123  1  0  0  0
 53 54  1  0  0  0
 54 55  2  0  0  0
 54124  1  0  0  0
 55 57  1  0  0  0
 55125  1  0  0  0
 56 69  2  0  0  0
 57 58  2  0  0  0
 57126  1  0  0  0
 58127  1  0  0  0
 59 60  1  0  0  0
 59 61  1  0  0  0
 59 62  1  0  0  0
 60128  1  0  0  0
 60129  1  0  0  0
 60130  1  0  0  0
 61131  1  0  0  0
 61132  1  0  0  0
 61133  1  0  0  0
 62134  1  0  0  0
 62135  1  0  0  0
 62136  1  0  0  0
 63 65  1  0  0  0
 63137  1  0  0  0
 63138  1  0  0  0
 63139  1  0  0  0
 64140  1  0  0  0
 65141  1  0  0  0
 68 77  1  0  0  0
 71 73  2  0  0  0
 71 75  1  0  0  0
 71142  1  0  0  0
 72 74  1  0  0  0
 72 75  2  0  0  0
 72143  1  0  0  0
 73 76  1  0  0  0
 73144  1  0  0  0
 74 76  2  0  0  0
 74145  1  0  0  0
 75 77  1  0  0  0
 76 82  1  0  0  0
 77 81  2  0  0  0
 78 79  1  0  0  0
 78 80  1  0  0  0
 78146  1  0  0  0
 78147  1  0  0  0
 79 82  1  0  0  0
 79148  1  0  0  0
 79149  1  0  0  0
 80150  1  0  0  0
M  ISO  4   1 100  68 101  77 101  80 100
M  END
> <chiral flag>
0

> <version>
0

> <s_m_source_file>
/data/baiqing/PycharmProjects/Reinvent-master-3.2/result/LINK_invent/BTK/process_docking_weight1_custom_product_contain_oxygen_bond_distance_aromatic_linkinvent_7_9_3/rearranged_h_0002.sdf

> <i_m_source_file_index>
64

> <r_mmod_Potential_Energy-OPLS-2005>
89.8319244384766

> <r_mmod_Stretch_Energy-OPLS-2005>
92.9040374755859

> <r_mmod_Bend_Energy-OPLS-2005>
154.456848144531

> <r_mmod_Torsional_Energy-OPLS-2005>
219.159652709961

> <r_mmod_Improper_Torsional_Energy-OPLS-2005>
5.68591785430908

> <r_mmod_Van_der_Waal_Energy-OPLS-2005>
143.203216552734

> <r_mmod_Electrostatic_Energy-OPLS-2005>
-370.517456054688

> <r_mmod_Solvation_Energy-OPLS-2005>
-220.159820556641

> <b_mmod_Minimization_Converged-OPLS-2005>
0

> <r_mmod_RMS_Derivative-OPLS-2005>
1.51237535476685

$$$$
64
                    3D
 Structure written by MMmdl.
156164  0  0  1  0            999 V2000
  -30.6311  -14.6377   20.4127 C   0  0  0  0  0  0
  -30.4190  -12.3774   19.4461 C   0  0  0  0  0  0
  -29.5019  -12.5204   18.2111 C   0  0  0  0  0  0
  -28.0205  -12.3765   18.6117 C   0  0  0  0  0  0
  -27.6460  -13.2314   19.8557 C   0  0  2  0  0  0
  -28.6924  -13.0955   20.9840 C   0  0  0  0  0  0
  -25.2526  -13.8200   20.5723 C   0  0  0  0  0  0
  -24.1806  -13.0430   20.9208 C   0  0  0  0  0  0
  -24.6399  -11.6911   20.8693 C   0  0  0  0  0  0
  -23.9097  -10.4283   21.0401 C   0  0  0  0  0  0
  -24.3646   -9.4190   21.9182 C   0  0  0  0  0  0
  -23.6298   -8.2232   22.0777 C   0  0  0  0  0  0
  -22.4287   -8.0271   21.3575 C   0  0  0  0  0  0
  -21.9918   -9.0262   20.4702 C   0  0  0  0  0  0
  -22.7263  -10.2127   20.3089 C   0  0  0  0  0  0
  -21.6857   -6.0739   22.5296 C   0  0  0  0  0  0
  -21.4004   -6.5639   23.8228 C   0  0  0  0  0  0
  -21.3646   -5.6795   24.9187 C   0  0  0  0  0  0
  -21.6023   -4.3050   24.7231 C   0  0  0  0  0  0
  -21.8812   -3.8135   23.4346 C   0  0  0  0  0  0
  -21.9178   -4.6962   22.3404 C   0  0  0  0  0  0
  -22.7830  -13.5236   21.1835 C   0  0  0  0  0  0
  -22.1684   -4.2157   21.0975 F   0  0  0  0  0  0
  -21.5610   -3.4540   25.7731 F   0  0  0  0  0  0
  -30.0046  -13.4168   20.4120 N   0  0  0  0  0  0
  -26.2964  -12.9415   20.3283 N   0  0  0  0  0  0
  -25.9327  -11.6565   20.5689 N   0  0  0  0  0  0
  -22.0454  -12.8287   22.0406 N   0  0  0  0  0  0
  -25.4119  -15.1947   20.4195 N   0  0  0  0  0  0
  -31.8308  -14.7218   20.1384 O   0  0  0  0  0  0
  -21.6634   -6.8889   21.4270 O   0  0  0  0  0  0
  -22.3530  -14.5526   20.6639 O   0  0  0  0  0  0
  -24.6205  -31.8626   23.2031 C   0  0  0  0  0  0
  -25.9089  -32.4786   23.8340 C   0  0  1  0  0  0
  -27.2267  -27.3638   20.1315 C   0  0  0  0  0  0
  -25.5918  -33.8585   24.2265 N   0  0  0  0  0  0
  -23.4111  -30.4849   21.5438 C   0  0  2  0  0  0
  -24.8600  -28.9381   20.1177 C   0  0  0  0  0  0
  -22.7419  -29.4633   22.4942 C   0  0  0  0  0  0
  -18.0286  -28.1391   22.8490 C   0  0  0  0  0  0
  -24.1485  -36.7291   23.2637 C   0  0  0  0  0  0
  -25.9438  -30.8108   21.3644 C   0  0  0  0  0  0
  -26.0236  -29.4379   20.7180 C   0  0  0  0  0  0
  -27.2140  -28.6611   20.7151 C   0  0  0  0  0  0
  -26.0492  -26.8945   19.5186 C   0  0  0  0  0  0
  -24.8719  -27.6685   19.5110 C   0  0  0  0  0  0
  -23.6251  -29.8137   20.1608 C   0  0  0  0  0  0
  -25.4117  -36.3076   24.0317 C   0  0  1  0  0  0
  -20.5873  -28.3693   23.1301 C   0  0  2  0  0  0
  -20.6784  -26.9419   22.5425 C   0  0  0  0  0  0
  -19.5760  -26.6389   21.5225 C   0  0  0  0  0  0
  -18.1936  -26.7935   22.1624 C   0  0  0  0  0  0
  -19.1532  -28.8862   23.2891 C   0  0  0  0  0  0
  -18.9463  -30.1475   23.8905 C   0  0  0  0  0  0
  -17.6456  -30.6597   24.0579 C   0  0  0  0  0  0
  -25.9059  -34.9450   23.5085 C   0  0  0  0  0  0
  -16.5354  -29.9096   23.6335 C   0  0  0  0  0  0
  -16.7273  -28.6517   23.0355 C   0  0  0  0  0  0
  -26.4507  -31.6582   25.0688 C   0  0  0  0  0  0
  -25.3758  -31.3725   26.1423 C   0  0  0  0  0  0
  -27.0353  -30.3015   24.6103 C   0  0  0  0  0  0
  -27.6064  -32.4322   25.7467 C   0  0  0  0  0  0
  -27.5564  -37.1799   24.8460 C   0  0  0  0  0  0
  -21.4149  -29.3039   22.3660 N   0  0  0  0  0  0
  -26.4289  -37.3771   23.9392 N   0  0  0  0  0  0
  -24.6770  -31.0692   22.0951 N   0  0  0  0  0  0
  -23.4175  -28.8197   23.3013 O   0  0  0  0  0  0
  -28.3605  -26.5596   20.1129 O   0  0  0  0  0  0
  -26.5613  -34.8916   22.4646 O   0  0  0  0  0  0
  -23.5395  -32.1385   23.7414 O   0  0  0  0  0  0
  -30.8663  -17.5052   17.3408 C   0  0  0  0  0  0
  -30.8027  -18.8320   17.2097 C   0  0  0  0  0  0
  -30.4974  -16.7207   18.3594 C   0  0  0  0  0  0
  -30.2824  -19.7620   18.0169 C   0  0  0  0  0  0
  -29.5506  -18.2045   20.0395 C   0  0  0  0  0  0
  -30.0014  -16.9611   19.6039 C   0  0  0  0  0  0
  -29.6474  -19.5802   19.3418 C   0  0  0  0  0  0
  -28.7589  -22.7297   21.2492 C   0  0  0  0  0  0
  -28.3292  -23.9212   20.2913 C   0  0  0  0  0  0
  -28.4776  -21.2017   20.8932 C   0  0  0  0  0  0
  -28.3609  -25.3631   20.9574 C   0  0  0  0  0  0
  -29.2330  -20.7570   19.7219 N   0  0  0  0  0  0
  -29.8285  -15.7658   20.4117 N   0  0  0  0  0  0
  -31.4636  -12.4807   19.1483 H   0  0  0  0  0  0
  -30.3290  -11.3790   19.8813 H   0  0  0  0  0  0
  -29.7590  -11.7861   17.4463 H   0  0  0  0  0  0
  -29.6597  -13.4948   17.7462 H   0  0  0  0  0  0
  -27.8209  -11.3211   18.8031 H   0  0  0  0  0  0
  -27.3868  -12.6584   17.7686 H   0  0  0  0  0  0
  -27.6550  -14.2691   19.5194 H   0  0  0  0  0  0
  -28.6947  -12.0773   21.3767 H   0  0  0  0  0  0
  -28.4540  -13.7531   21.8220 H   0  0  0  0  0  0
  -25.2837   -9.5626   22.4738 H   0  0  0  0  0  0
  -23.9973   -7.4606   22.7524 H   0  0  0  0  0  0
  -21.0822   -8.8812   19.9042 H   0  0  0  0  0  0
  -22.3742  -10.9659   19.6169 H   0  0  0  0  0  0
  -21.2037   -7.6163   23.9759 H   0  0  0  0  0  0
  -21.1485   -6.0529   25.9101 H   0  0  0  0  0  0
  -22.0598   -2.7604   23.2869 H   0  0  0  0  0  0
  -22.4084  -12.0014   22.4901 H   0  0  0  0  0  0
  -21.1081  -13.1349   22.2624 H   0  0  0  0  0  0
  -24.6254  -15.8240   20.5438 H   0  0  0  0  0  0
  -26.2417  -15.6607   20.0727 H   0  0  0  0  0  0
  -26.7147  -32.5492   23.1086 H   0  0  0  0  0  0
  -25.0063  -33.9733   25.0402 H   0  0  0  0  0  0
  -22.7034  -31.3037   21.3998 H   0  0  0  0  0  0
  -23.3727  -35.9644   23.3327 H   0  0  0  0  0  0
  -24.3556  -36.8892   22.2044 H   0  0  0  0  0  0
  -23.7273  -37.6512   23.6653 H   0  0  0  0  0  0
  -26.0601  -31.5733   20.5935 H   0  0  0  0  0  0
  -26.8306  -30.8690   21.9828 H   0  0  0  0  0  0
  -28.1097  -29.0420   21.1859 H   0  0  0  0  0  0
  -26.0442  -25.9199   19.0495 H   0  0  0  0  0  0
  -23.9801  -27.2793   19.0392 H   0  0  0  0  0  0
  -23.7360  -30.5872   19.3985 H   0  0  0  0  0  0
  -22.7477  -29.2376   19.8627 H   0  0  0  0  0  0
  -25.1302  -36.1908   25.0812 H   0  0  0  0  0  0
  -20.9991  -28.3293   24.1412 H   0  0  0  0  0  0
  -20.5702  -26.2298   23.3621 H   0  0  0  0  0  0
  -21.6654  -26.7465   22.1204 H   0  0  0  0  0  0
  -19.6927  -25.6303   21.1252 H   0  0  0  0  0  0
  -19.6713  -27.3207   20.6764 H   0  0  0  0  0  0
  -17.4204  -26.6687   21.4028 H   0  0  0  0  0  0
  -18.0336  -26.0086   22.9028 H   0  0  0  0  0  0
  -19.7951  -30.7294   24.2249 H   0  0  0  0  0  0
  -17.5030  -31.6276   24.5180 H   0  0  0  0  0  0
  -15.5358  -30.3012   23.7678 H   0  0  0  0  0  0
  -15.8666  -28.0858   22.7056 H   0  0  0  0  0  0
  -24.5915  -30.7094   25.7739 H   0  0  0  0  0  0
  -24.8990  -32.2920   26.4845 H   0  0  0  0  0  0
  -25.8106  -30.8887   27.0178 H   0  0  0  0  0  0
  -26.2912  -29.6748   24.1171 H   0  0  0  0  0  0
  -27.4115  -29.7284   25.4582 H   0  0  0  0  0  0
  -27.8745  -30.4298   23.9261 H   0  0  0  0  0  0
  -27.2650  -33.3609   26.2048 H   0  0  0  0  0  0
  -28.3890  -32.6900   25.0315 H   0  0  0  0  0  0
  -28.0708  -31.8440   26.5387 H   0  0  0  0  0  0
  -28.2596  -38.0076   24.7476 H   0  0  0  0  0  0
  -28.1038  -36.2606   24.6330 H   0  0  0  0  0  0
  -27.2266  -37.1504   25.8858 H   0  0  0  0  0  0
  -20.9299  -29.8715   21.6844 H   0  0  0  0  0  0
  -26.0152  -38.2829   24.1429 H   0  0  0  0  0  0
  -31.2218  -16.9852   16.4584 H   0  0  0  0  0  0
  -31.1659  -19.2146   16.2624 H   0  0  0  0  0  0
  -30.5119  -15.6798   18.0679 H   0  0  0  0  0  0
  -30.2136  -20.7507   17.5773 H   0  0  0  0  0  0
  -29.0424  -18.2146   20.9943 H   0  0  0  0  0  0
  -28.2721  -22.9133   22.2100 H   0  0  0  0  0  0
  -29.8233  -22.8384   21.4638 H   0  0  0  0  0  0
  -27.3306  -23.7337   19.8939 H   0  0  0  0  0  0
  -29.0003  -23.9226   19.4297 H   0  0  0  0  0  0
  -27.4063  -21.0787   20.7144 H   0  0  0  0  0  0
  -28.7079  -20.5771   21.7559 H   0  0  0  0  0  0
  -29.2852  -25.4335   21.5332 H   0  0  0  0  0  0
  -27.5650  -25.4347   21.7019 H   0  0  0  0  0  0
  -28.9086  -15.6414   20.8054 H   0  0  0  0  0  0
  1 25  1  0  0  0
  1 30  2  0  0  0
  1 83  1  0  0  0
  2  3  1  0  0  0
  2 25  1  0  0  0
  2 84  1  0  0  0
  2 85  1  0  0  0
  3  4  1  0  0  0
  3 86  1  0  0  0
  3 87  1  0  0  0
  4  5  1  0  0  0
  4 88  1  0  0  0
  4 89  1  0  0  0
  5  6  1  0  0  0
  5 26  1  0  0  0
  5 90  1  0  0  0
  6 25  1  0  0  0
  6 91  1  0  0  0
  6 92  1  0  0  0
  7  8  2  0  0  0
  7 26  1  0  0  0
  7 29  1  0  0  0
  8  9  1  0  0  0
  8 22  1  0  0  0
  9 10  1  0  0  0
  9 27  2  0  0  0
 10 11  2  0  0  0
 10 15  1  0  0  0
 11 12  1  0  0  0
 11 93  1  0  0  0
 12 13  2  0  0  0
 12 94  1  0  0  0
 13 14  1  0  0  0
 13 31  1  0  0  0
 14 15  2  0  0  0
 14 95  1  0  0  0
 15 96  1  0  0  0
 16 17  2  0  0  0
 16 21  1  0  0  0
 16 31  1  0  0  0
 17 18  1  0  0  0
 17 97  1  0  0  0
 18 19  2  0  0  0
 18 98  1  0  0  0
 19 20  1  0  0  0
 19 24  1  0  0  0
 20 21  2  0  0  0
 20 99  1  0  0  0
 21 23  1  0  0  0
 22 28  1  0  0  0
 22 32  2  0  0  0
 26 27  1  0  0  0
 28100  1  0  0  0
 28101  1  0  0  0
 29102  1  0  0  0
 29103  1  0  0  0
 33 34  1  0  0  0
 33 66  1  0  0  0
 33 70  2  0  0  0
 34 36  1  0  0  0
 34 59  1  0  0  0
 34104  1  0  0  0
 35 44  2  0  0  0
 35 45  1  0  0  0
 35 68  1  0  0  0
 36 56  1  0  0  0
 36105  1  0  0  0
 37 39  1  0  0  0
 37 47  1  0  0  0
 37 66  1  0  0  0
 37106  1  0  0  0
 38 43  2  0  0  0
 38 46  1  0  0  0
 38 47  1  0  0  0
 39 64  1  0  0  0
 39 67  2  0  0  0
 40 52  1  0  0  0
 40 53  2  0  0  0
 40 58  1  0  0  0
 41107  1  0  0  0
 41108  1  0  0  0
 41109  1  0  0  0
 41 48  1  0  0  0
 42 43  1  0  0  0
 42 66  1  0  0  0
 42110  1  0  0  0
 42111  1  0  0  0
 43 44  1  0  0  0
 44112  1  0  0  0
 45 46  2  0  0  0
 45113  1  0  0  0
 46114  1  0  0  0
 47115  1  0  0  0
 47116  1  0  0  0
 48 56  1  0  0  0
 48 65  1  0  0  0
 48117  1  0  0  0
 49 50  1  0  0  0
 49 53  1  0  0  0
 49 64  1  0  0  0
 49118  1  0  0  0
 50 51  1  0  0  0
 50119  1  0  0  0
 50120  1  0  0  0
 51 52  1  0  0  0
 51121  1  0  0  0
 51122  1  0  0  0
 52123  1  0  0  0
 52124  1  0  0  0
 53 54  1  0  0  0
 54 55  2  0  0  0
 54125  1  0  0  0
 55 57  1  0  0  0
 55126  1  0  0  0
 56 69  2  0  0  0
 57 58  2  0  0  0
 57127  1  0  0  0
 58128  1  0  0  0
 59 60  1  0  0  0
 59 61  1  0  0  0
 59 62  1  0  0  0
 60129  1  0  0  0
 60130  1  0  0  0
 60131  1  0  0  0
 61132  1  0  0  0
 61133  1  0  0  0
 61134  1  0  0  0
 62135  1  0  0  0
 62136  1  0  0  0
 62137  1  0  0  0
 63 65  1  0  0  0
 63138  1  0  0  0
 63139  1  0  0  0
 63140  1  0  0  0
 64141  1  0  0  0
 65142  1  0  0  0
 68 81  1  0  0  0
 71 72  1  0  0  0
 71 73  2  0  0  0
 71143  1  0  0  0
 72 74  2  0  0  0
 72144  1  0  0  0
 73 76  1  0  0  0
 73145  1  0  0  0
 74 77  1  0  0  0
 74146  1  0  0  0
 75 76  2  0  0  0
 75 77  1  0  0  0
 75147  1  0  0  0
 76 83  1  0  0  0
 77 82  2  0  0  0
 78 79  1  0  0  0
 78 80  1  0  0  0
 78148  1  0  0  0
 78149  1  0  0  0
 79 81  1  0  0  0
 79150  1  0  0  0
 79151  1  0  0  0
 80 82  1  0  0  0
 80152  1  0  0  0
 80153  1  0  0  0
 81154  1  0  0  0
 81155  1  0  0  0
 83156  1  0  0  0
M  ISO  4   1 100  68 101  81 101  83 100
M  END
> <chiral flag>
0

> <version>
0

> <s_m_source_file>
/data/baiqing/PycharmProjects/Reinvent-master-3.2/result/LINK_invent/BTK/process_docking_weight1_custom_product_contain_oxygen_bond_distance_aromatic_linkinvent_7_9_3/rearranged_h_0002.sdf

> <i_m_source_file_index>
65

> <r_mmod_Potential_Energy-OPLS-2005>
125.840728759766

> <r_mmod_Stretch_Energy-OPLS-2005>
85.3978118896484

> <r_mmod_Bend_Energy-OPLS-2005>
192.413940429688

> <r_mmod_Torsional_Energy-OPLS-2005>
221.327255249023

> <r_mmod_Improper_Torsional_Energy-OPLS-2005>
9.47076320648193

> <r_mmod_Van_der_Waal_Energy-OPLS-2005>
138.1787109375

> <r_mmod_Electrostatic_Energy-OPLS-2005>
-345.608062744141

> <r_mmod_Solvation_Energy-OPLS-2005>
-216.69384765625

> <b_mmod_Minimization_Converged-OPLS-2005>
0

> <r_mmod_RMS_Derivative-OPLS-2005>
5.71142721176147

$$$$
65
                    3D
 Structure written by MMmdl.
146154  0  0  1  0            999 V2000
  -30.4831  -15.1826   20.3850 C   0  0  0  0  0  0
  -30.4364  -12.7514   19.5216 C   0  0  0  0  0  0
  -29.5297  -12.5600   18.2811 C   0  0  0  0  0  0
  -28.0767  -12.2956   18.7113 C   0  0  0  0  0  0
  -27.6147  -13.2687   19.8250 C   0  0  2  0  0  0
  -28.6507  -13.4188   20.9601 C   0  0  0  0  0  0
  -25.2399  -13.8238   20.5739 C   0  0  0  0  0  0
  -24.1746  -13.0434   20.9251 C   0  0  0  0  0  0
  -24.6394  -11.6928   20.8760 C   0  0  0  0  0  0
  -23.9088  -10.4287   21.0403 C   0  0  0  0  0  0
  -24.3634   -9.4200   21.9179 C   0  0  0  0  0  0
  -23.6301   -8.2238   22.0753 C   0  0  0  0  0  0
  -22.4283   -8.0276   21.3543 C   0  0  0  0  0  0
  -21.9920   -9.0252   20.4646 C   0  0  0  0  0  0
  -22.7258  -10.2127   20.3053 C   0  0  0  0  0  0
  -21.6855   -6.0733   22.5279 C   0  0  0  0  0  0
  -21.4019   -6.5641   23.8211 C   0  0  0  0  0  0
  -21.3660   -5.6795   24.9174 C   0  0  0  0  0  0
  -21.6041   -4.3057   24.7227 C   0  0  0  0  0  0
  -21.8817   -3.8147   23.4351 C   0  0  0  0  0  0
  -21.9192   -4.6960   22.3405 C   0  0  0  0  0  0
  -22.7762  -13.5180   21.1906 C   0  0  0  0  0  0
  -22.1659   -4.2145   21.0982 F   0  0  0  0  0  0
  -21.5626   -3.4543   25.7743 F   0  0  0  0  0  0
  -29.8955  -13.8944   20.3383 N   0  0  0  0  0  0
  -26.2827  -12.9506   20.3225 N   0  0  0  0  0  0
  -25.9330  -11.6617   20.5729 N   0  0  0  0  0  0
  -22.0434  -12.8156   22.0468 N   0  0  0  0  0  0
  -25.4030  -15.1972   20.4166 N   0  0  0  0  0  0
  -31.7004  -15.1794   20.1598 O   0  0  0  0  0  0
  -21.6644   -6.8877   21.4241 O   0  0  0  0  0  0
  -22.3433  -14.5479   20.6748 O   0  0  0  0  0  0
  -24.6595  -31.8293   23.1777 C   0  0  0  0  0  0
  -25.9302  -32.4617   23.8213 C   0  0  1  0  0  0
  -27.2077  -26.9694   20.1758 C   0  0  0  0  0  0
  -25.5986  -33.8431   24.2113 N   0  0  0  0  0  0
  -23.4718  -30.4468   21.5253 C   0  0  2  0  0  0
  -24.9249  -28.8501   20.1105 C   0  0  0  0  0  0
  -22.7648  -29.4474   22.4783 C   0  0  0  0  0  0
  -18.0318  -28.1413   22.8465 C   0  0  0  0  0  0
  -24.1486  -36.7224   23.2643 C   0  0  0  0  0  0
  -26.0405  -30.6471   21.4069 C   0  0  0  0  0  0
  -26.1074  -29.2417   20.7523 C   0  0  0  0  0  0
  -27.2449  -28.3188   20.7727 C   0  0  0  0  0  0
  -26.0065  -26.7420   19.4635 C   0  0  0  0  0  0
  -24.8962  -27.6167   19.4480 C   0  0  0  0  0  0
  -23.7112  -29.7741   20.1476 C   0  0  0  0  0  0
  -25.4121  -36.2980   24.0305 C   0  0  1  0  0  0
  -20.5943  -28.3754   23.1181 C   0  0  2  0  0  0
  -20.6794  -26.9437   22.5389 C   0  0  0  0  0  0
  -19.5765  -26.6380   21.5204 C   0  0  0  0  0  0
  -18.1947  -26.7947   22.1616 C   0  0  0  0  0  0
  -19.1583  -28.8901   23.2815 C   0  0  0  0  0  0
  -18.9501  -30.1489   23.8855 C   0  0  0  0  0  0
  -17.6499  -30.6604   24.0558 C   0  0  0  0  0  0
  -25.9091  -34.9365   23.5020 C   0  0  0  0  0  0
  -16.5386  -29.9097   23.6343 C   0  0  0  0  0  0
  -16.7303  -28.6515   23.0364 C   0  0  0  0  0  0
  -26.4565  -31.6552   25.0727 C   0  0  0  0  0  0
  -25.3701  -31.3798   26.1389 C   0  0  0  0  0  0
  -27.0468  -30.2922   24.6447 C   0  0  0  0  0  0
  -27.6053  -32.4368   25.7529 C   0  0  0  0  0  0
  -27.5574  -37.1748   24.8452 C   0  0  0  0  0  0
  -21.4321  -29.3063   22.3539 N   0  0  0  0  0  0
  -26.4261  -37.3721   23.9429 N   0  0  0  0  0  0
  -24.7447  -31.0001   22.0898 N   0  0  0  0  0  0
  -23.4217  -28.8013   23.2985 O   0  0  0  0  0  0
  -28.1630  -25.8308   20.2346 O   0  0  0  0  0  0
  -26.5689  -34.8894   22.4608 O   0  0  0  0  0  0
  -23.5675  -32.1244   23.6895 O   0  0  0  0  0  0
  -29.8014  -22.2551   20.1126 C   0  0  0  0  0  0
  -27.7067  -21.5018   20.6766 C   0  0  0  0  0  0
  -30.2544  -20.8368   20.1021 C   0  0  0  0  0  0
  -28.1551  -20.0870   20.6661 C   0  0  0  0  0  0
  -28.4622  -22.7321   20.4052 C   0  0  0  0  0  0
  -29.4901  -19.6151   20.3732 C   0  0  0  0  0  0
  -27.7066  -24.2627   20.4893 C   0  0  0  0  0  0
  -30.2005  -18.0291   20.3499 C   0  0  0  0  0  0
  -29.7497  -16.4539   20.4780 N   0  0  0  0  0  0
  -26.5263  -24.1554   20.8318 O   0  0  0  0  0  0
  -31.4609  -12.9350   19.1951 H   0  0  0  0  0  0
  -30.4786  -11.8370   20.1154 H   0  0  0  0  0  0
  -29.8952  -11.7377   17.6646 H   0  0  0  0  0  0
  -29.5696  -13.4545   17.6572 H   0  0  0  0  0  0
  -28.0282  -11.2707   19.0814 H   0  0  0  0  0  0
  -27.4057  -12.3428   17.8529 H   0  0  0  0  0  0
  -27.5392  -14.2404   19.3359 H   0  0  0  0  0  0
  -28.7975  -12.4799   21.4962 H   0  0  0  0  0  0
  -28.3053  -14.1472   21.6952 H   0  0  0  0  0  0
  -25.2779   -9.5672   22.4755 H   0  0  0  0  0  0
  -24.0006   -7.4631   22.7476 H   0  0  0  0  0  0
  -21.0849   -8.8773   19.8955 H   0  0  0  0  0  0
  -22.3713  -10.9664   19.6163 H   0  0  0  0  0  0
  -21.2018   -7.6150   23.9711 H   0  0  0  0  0  0
  -21.1482   -6.0531   25.9075 H   0  0  0  0  0  0
  -22.0595   -2.7608   23.2856 H   0  0  0  0  0  0
  -22.4085  -11.9828   22.4847 H   0  0  0  0  0  0
  -21.1045  -13.1146   22.2691 H   0  0  0  0  0  0
  -24.6299  -15.8451   20.5245 H   0  0  0  0  0  0
  -26.2422  -15.6392   20.0654 H   0  0  0  0  0  0
  -26.7370  -32.5169   23.0930 H   0  0  0  0  0  0
  -25.0111  -33.9521   25.0246 H   0  0  0  0  0  0
  -22.7829  -31.2782   21.3607 H   0  0  0  0  0  0
  -23.3765  -35.9534   23.3243 H   0  0  0  0  0  0
  -24.3568  -36.8932   22.2068 H   0  0  0  0  0  0
  -23.7225  -37.6390   23.6735 H   0  0  0  0  0  0
  -26.2190  -31.3894   20.6279 H   0  0  0  0  0  0
  -26.9023  -30.7017   22.0598 H   0  0  0  0  0  0
  -28.1357  -28.6103   21.3110 H   0  0  0  0  0  0
  -25.8847  -25.8058   18.9382 H   0  0  0  0  0  0
  -24.0019  -27.3133   18.9212 H   0  0  0  0  0  0
  -23.8695  -30.5487   19.3959 H   0  0  0  0  0  0
  -22.8201  -29.2331   19.8245 H   0  0  0  0  0  0
  -25.1307  -36.1767   25.0793 H   0  0  0  0  0  0
  -21.0042  -28.3363   24.1302 H   0  0  0  0  0  0
  -20.5658  -26.2381   23.3630 H   0  0  0  0  0  0
  -21.6658  -26.7400   22.1206 H   0  0  0  0  0  0
  -19.6919  -25.6273   21.1276 H   0  0  0  0  0  0
  -19.6706  -27.3154   20.6703 H   0  0  0  0  0  0
  -17.4210  -26.6690   21.4025 H   0  0  0  0  0  0
  -18.0346  -26.0099   22.9020 H   0  0  0  0  0  0
  -19.7980  -30.7311   24.2210 H   0  0  0  0  0  0
  -17.5057  -31.6281   24.5169 H   0  0  0  0  0  0
  -15.5390  -30.2997   23.7689 H   0  0  0  0  0  0
  -15.8698  -28.0824   22.7111 H   0  0  0  0  0  0
  -24.5880  -30.7149   25.7705 H   0  0  0  0  0  0
  -24.8894  -32.3003   26.4712 H   0  0  0  0  0  0
  -25.7937  -30.9029   27.0235 H   0  0  0  0  0  0
  -26.3137  -29.6598   24.1430 H   0  0  0  0  0  0
  -27.3987  -29.7284   25.5098 H   0  0  0  0  0  0
  -27.9078  -30.4113   23.9868 H   0  0  0  0  0  0
  -27.2610  -33.3706   26.1989 H   0  0  0  0  0  0
  -28.3927  -32.6883   25.0410 H   0  0  0  0  0  0
  -28.0655  -31.8584   26.5550 H   0  0  0  0  0  0
  -28.2521  -38.0113   24.7577 H   0  0  0  0  0  0
  -28.1140  -36.2646   24.6167 H   0  0  0  0  0  0
  -27.2306  -37.1253   25.8854 H   0  0  0  0  0  0
  -20.9554  -29.8806   21.6725 H   0  0  0  0  0  0
  -26.0105  -38.2761   24.1505 H   0  0  0  0  0  0
  -30.5420  -23.0092   19.8868 H   0  0  0  0  0  0
  -26.6633  -21.6376   20.9266 H   0  0  0  0  0  0
  -31.2993  -20.6883   19.8657 H   0  0  0  0  0  0
  -27.4154  -19.3357   20.9072 H   0  0  0  0  0  0
  -30.9792  -18.1106   21.1092 H   0  0  0  0  0  0
  -30.7611  -18.0352   19.4144 H   0  0  0  0  0  0
  -28.7586  -16.3279   20.6208 H   0  0  0  0  0  0
  1 25  1  0  0  0
  1 30  2  0  0  0
  1 79  1  0  0  0
  2  3  1  0  0  0
  2 25  1  0  0  0
  2 81  1  0  0  0
  2 82  1  0  0  0
  3  4  1  0  0  0
  3 83  1  0  0  0
  3 84  1  0  0  0
  4  5  1  0  0  0
  4 85  1  0  0  0
  4 86  1  0  0  0
  5  6  1  0  0  0
  5 26  1  0  0  0
  5 87  1  0  0  0
  6 25  1  0  0  0
  6 88  1  0  0  0
  6 89  1  0  0  0
  7  8  2  0  0  0
  7 26  1  0  0  0
  7 29  1  0  0  0
  8  9  1  0  0  0
  8 22  1  0  0  0
  9 10  1  0  0  0
  9 27  2  0  0  0
 10 11  2  0  0  0
 10 15  1  0  0  0
 11 12  1  0  0  0
 11 90  1  0  0  0
 12 13  2  0  0  0
 12 91  1  0  0  0
 13 14  1  0  0  0
 13 31  1  0  0  0
 14 15  2  0  0  0
 14 92  1  0  0  0
 15 93  1  0  0  0
 16 17  2  0  0  0
 16 21  1  0  0  0
 16 31  1  0  0  0
 17 18  1  0  0  0
 17 94  1  0  0  0
 18 19  2  0  0  0
 18 95  1  0  0  0
 19 20  1  0  0  0
 19 24  1  0  0  0
 20 21  2  0  0  0
 20 96  1  0  0  0
 21 23  1  0  0  0
 22 28  1  0  0  0
 22 32  2  0  0  0
 26 27  1  0  0  0
 28 97  1  0  0  0
 28 98  1  0  0  0
 29 99  1  0  0  0
 29100  1  0  0  0
 33 34  1  0  0  0
 33 66  1  0  0  0
 33 70  2  0  0  0
 34 36  1  0  0  0
 34 59  1  0  0  0
 34101  1  0  0  0
 35 44  2  0  0  0
 35 45  1  0  0  0
 35 68  1  0  0  0
 36 56  1  0  0  0
 36102  1  0  0  0
 37 39  1  0  0  0
 37 47  1  0  0  0
 37 66  1  0  0  0
 37103  1  0  0  0
 38 43  2  0  0  0
 38 46  1  0  0  0
 38 47  1  0  0  0
 39 64  1  0  0  0
 39 67  2  0  0  0
 40 52  1  0  0  0
 40 53  2  0  0  0
 40 58  1  0  0  0
 41104  1  0  0  0
 41105  1  0  0  0
 41106  1  0  0  0
 41 48  1  0  0  0
 42 43  1  0  0  0
 42 66  1  0  0  0
 42107  1  0  0  0
 42108  1  0  0  0
 43 44  1  0  0  0
 44109  1  0  0  0
 45 46  2  0  0  0
 45110  1  0  0  0
 46111  1  0  0  0
 47112  1  0  0  0
 47113  1  0  0  0
 48 56  1  0  0  0
 48 65  1  0  0  0
 48114  1  0  0  0
 49 50  1  0  0  0
 49 53  1  0  0  0
 49 64  1  0  0  0
 49115  1  0  0  0
 50 51  1  0  0  0
 50116  1  0  0  0
 50117  1  0  0  0
 51 52  1  0  0  0
 51118  1  0  0  0
 51119  1  0  0  0
 52120  1  0  0  0
 52121  1  0  0  0
 53 54  1  0  0  0
 54 55  2  0  0  0
 54122  1  0  0  0
 55 57  1  0  0  0
 55123  1  0  0  0
 56 69  2  0  0  0
 57 58  2  0  0  0
 57124  1  0  0  0
 58125  1  0  0  0
 59 60  1  0  0  0
 59 61  1  0  0  0
 59 62  1  0  0  0
 60126  1  0  0  0
 60127  1  0  0  0
 60128  1  0  0  0
 61129  1  0  0  0
 61130  1  0  0  0
 61131  1  0  0  0
 62132  1  0  0  0
 62133  1  0  0  0
 62134  1  0  0  0
 63 65  1  0  0  0
 63135  1  0  0  0
 63136  1  0  0  0
 63137  1  0  0  0
 64138  1  0  0  0
 65139  1  0  0  0
 68 77  1  0  0  0
 71 73  2  0  0  0
 71 75  1  0  0  0
 71140  1  0  0  0
 72 74  1  0  0  0
 72 75  2  0  0  0
 72141  1  0  0  0
 73 76  1  0  0  0
 73142  1  0  0  0
 74 76  2  0  0  0
 74143  1  0  0  0
 75 77  1  0  0  0
 76 78  1  0  0  0
 77 80  2  0  0  0
 78 79  1  0  0  0
 78144  1  0  0  0
 78145  1  0  0  0
 79146  1  0  0  0
M  ISO  4   1 100  68 101  77 101  79 100
M  END
> <chiral flag>
0

> <version>
0

> <s_m_source_file>
/data/baiqing/PycharmProjects/Reinvent-master-3.2/result/LINK_invent/BTK/process_docking_weight1_custom_product_contain_oxygen_bond_distance_aromatic_linkinvent_7_9_3/rearranged_h_0002.sdf

> <i_m_source_file_index>
66

> <r_mmod_Potential_Energy-OPLS-2005>
1085.07116699219

> <r_mmod_Stretch_Energy-OPLS-2005>
486.674896240234

> <r_mmod_Bend_Energy-OPLS-2005>
437.386505126953

> <r_mmod_Torsional_Energy-OPLS-2005>
199.433502197266

> <r_mmod_Improper_Torsional_Energy-OPLS-2005>
4.08563709259033

> <r_mmod_Van_der_Waal_Energy-OPLS-2005>
136.574249267578

> <r_mmod_Electrostatic_Energy-OPLS-2005>
-357.084655761719

> <r_mmod_Solvation_Energy-OPLS-2005>
-217.116302490234

> <b_mmod_Minimization_Converged-OPLS-2005>
0

> <r_mmod_RMS_Derivative-OPLS-2005>
0.776556968688965

$$$$
66
                    3D
 Structure written by MMmdl.
159167  0  0  1  0            999 V2000
  -30.7367  -14.4619   20.5929 C   0  0  0  0  0  0
  -30.4181  -12.3075   19.4263 C   0  0  0  0  0  0
  -29.4939  -12.5052   18.2089 C   0  0  0  0  0  0
  -28.0160  -12.3662   18.6218 C   0  0  0  0  0  0
  -27.6619  -13.2125   19.8741 C   0  0  2  0  0  0
  -28.7042  -13.0077   20.9973 C   0  0  0  0  0  0
  -25.2592  -13.8180   20.5698 C   0  0  0  0  0  0
  -24.1849  -13.0445   20.9191 C   0  0  0  0  0  0
  -24.6413  -11.6916   20.8748 C   0  0  0  0  0  0
  -23.9078  -10.4296   21.0413 C   0  0  0  0  0  0
  -24.3625   -9.4205   21.9189 C   0  0  0  0  0  0
  -23.6297   -8.2242   22.0753 C   0  0  0  0  0  0
  -22.4276   -8.0288   21.3546 C   0  0  0  0  0  0
  -21.9916   -9.0264   20.4646 C   0  0  0  0  0  0
  -22.7251  -10.2139   20.3058 C   0  0  0  0  0  0
  -21.6850   -6.0740   22.5287 C   0  0  0  0  0  0
  -21.4012   -6.5642   23.8224 C   0  0  0  0  0  0
  -21.3657   -5.6791   24.9184 C   0  0  0  0  0  0
  -21.6043   -4.3055   24.7231 C   0  0  0  0  0  0
  -21.8817   -3.8148   23.4353 C   0  0  0  0  0  0
  -21.9192   -4.6966   22.3409 C   0  0  0  0  0  0
  -22.7865  -13.5238   21.1846 C   0  0  0  0  0  0
  -22.1661   -4.2153   21.0986 F   0  0  0  0  0  0
  -21.5624   -3.4536   25.7742 F   0  0  0  0  0  0
  -30.0363  -13.3022   20.4428 N   0  0  0  0  0  0
  -26.3033  -12.9364   20.3369 N   0  0  0  0  0  0
  -25.9341  -11.6516   20.5766 N   0  0  0  0  0  0
  -22.0497  -12.8237   22.0401 N   0  0  0  0  0  0
  -25.4303  -15.1904   20.4116 N   0  0  0  0  0  0
  -31.8513  -14.6221   20.0882 O   0  0  0  0  0  0
  -21.6636   -6.8886   21.4249 O   0  0  0  0  0  0
  -22.3551  -14.5536   20.6678 O   0  0  0  0  0  0
  -24.6167  -31.8678   23.2099 C   0  0  0  0  0  0
  -25.9056  -32.4824   23.8395 C   0  0  1  0  0  0
  -27.2269  -27.4123   20.0964 C   0  0  0  0  0  0
  -25.5906  -33.8620   24.2330 N   0  0  0  0  0  0
  -23.4053  -30.4943   21.5511 C   0  0  2  0  0  0
  -24.8507  -28.9674   20.1079 C   0  0  0  0  0  0
  -22.7424  -29.4666   22.4974 C   0  0  0  0  0  0
  -18.0281  -28.1384   22.8492 C   0  0  0  0  0  0
  -24.1488  -36.7312   23.2641 C   0  0  0  0  0  0
  -25.9392  -30.8265   21.3687 C   0  0  0  0  0  0
  -26.0142  -29.4632   20.7099 C   0  0  0  0  0  0
  -27.2054  -28.6952   20.6997 C   0  0  0  0  0  0
  -26.0426  -26.9535   19.4665 C   0  0  0  0  0  0
  -24.8620  -27.7142   19.4799 C   0  0  0  0  0  0
  -23.6138  -29.8352   20.1626 C   0  0  0  0  0  0
  -25.4104  -36.3106   24.0343 C   0  0  1  0  0  0
  -20.5872  -28.3662   23.1307 C   0  0  2  0  0  0
  -20.6767  -26.9392   22.5410 C   0  0  0  0  0  0
  -19.5741  -26.6382   21.5209 C   0  0  0  0  0  0
  -18.1923  -26.7932   22.1624 C   0  0  0  0  0  0
  -19.1530  -28.8835   23.2905 C   0  0  0  0  0  0
  -18.9463  -30.1451   23.8904 C   0  0  0  0  0  0
  -17.6462  -30.6581   24.0566 C   0  0  0  0  0  0
  -25.9035  -34.9478   23.5131 C   0  0  0  0  0  0
  -16.5356  -29.9079   23.6331 C   0  0  0  0  0  0
  -16.7268  -28.6501   23.0340 C   0  0  0  0  0  0
  -26.4469  -31.6602   25.0731 C   0  0  0  0  0  0
  -25.3725  -31.3714   26.1476 C   0  0  0  0  0  0
  -27.0302  -30.3043   24.6118 C   0  0  0  0  0  0
  -27.6049  -32.4311   25.7492 C   0  0  0  0  0  0
  -27.5577  -37.1811   24.8473 C   0  0  0  0  0  0
  -21.4149  -29.3041   22.3723 N   0  0  0  0  0  0
  -26.4291  -37.3791   23.9416 N   0  0  0  0  0  0
  -24.6721  -31.0772   22.1009 N   0  0  0  0  0  0
  -23.4197  -28.8191   23.3003 O   0  0  0  0  0  0
  -28.3707  -26.6250   20.1517 O   0  0  0  0  0  0
  -26.5604  -34.8935   22.4698 O   0  0  0  0  0  0
  -23.5352  -32.1436   23.7477 O   0  0  0  0  0  0
  -32.3624  -18.3704   22.0384 C   0  0  0  0  0  0
  -31.4814  -19.4592   21.9037 C   0  0  0  0  0  0
  -31.9154  -17.0569   21.8038 C   0  0  0  0  0  0
  -29.6923  -17.9151   21.3061 C   0  0  0  0  0  0
  -30.1356  -19.2487   21.5274 C   0  0  0  0  0  0
  -30.5746  -16.8091   21.4261 C   0  0  0  0  0  0
  -28.2688  -20.4814   22.6582 C   0  0  0  0  0  0
  -29.2652  -24.2720   20.6137 C   0  0  0  0  0  0
  -29.7927  -21.8219   21.0917 C   0  0  0  0  0  0
  -28.1540  -25.1967   20.0457 C   0  0  0  0  0  0
  -29.1475  -20.4254   21.3934 C   0  0  1  0  0  0
  -30.0909  -15.4760   21.2094 N   0  0  0  0  0  0
  -28.7845  -22.8582   20.7307 N   0  3  0  0  0  0
  -31.4635  -12.3918   19.1236 H   0  0  0  0  0  0
  -30.3098  -11.2995   19.8301 H   0  0  0  0  0  0
  -29.7346  -11.7777   17.4327 H   0  0  0  0  0  0
  -29.6649  -13.4898   17.7714 H   0  0  0  0  0  0
  -27.8289  -11.3109   18.8237 H   0  0  0  0  0  0
  -27.3641  -12.6338   17.7897 H   0  0  0  0  0  0
  -27.7033  -14.2582   19.5695 H   0  0  0  0  0  0
  -28.6787  -11.9761   21.3518 H   0  0  0  0  0  0
  -28.4651  -13.6206   21.8674 H   0  0  0  0  0  0
  -25.2771   -9.5669   22.4766 H   0  0  0  0  0  0
  -24.0003   -7.4625   22.7468 H   0  0  0  0  0  0
  -21.0846   -8.8793   19.8953 H   0  0  0  0  0  0
  -22.3725  -10.9681   19.6165 H   0  0  0  0  0  0
  -21.2005   -7.6151   23.9732 H   0  0  0  0  0  0
  -21.1478   -6.0519   25.9088 H   0  0  0  0  0  0
  -22.0596   -2.7611   23.2853 H   0  0  0  0  0  0
  -22.4090  -11.9899   22.4809 H   0  0  0  0  0  0
  -21.1109  -13.1266   22.2582 H   0  0  0  0  0  0
  -24.6615  -15.8431   20.5189 H   0  0  0  0  0  0
  -26.2804  -15.6315   20.0833 H   0  0  0  0  0  0
  -26.7124  -32.5541   23.1151 H   0  0  0  0  0  0
  -25.0057  -33.9785   25.0471 H   0  0  0  0  0  0
  -22.6941  -31.3116   21.4151 H   0  0  0  0  0  0
  -23.3754  -35.9644   23.3316 H   0  0  0  0  0  0
  -24.3575  -36.8906   22.2052 H   0  0  0  0  0  0
  -23.7248  -37.6522   23.6642 H   0  0  0  0  0  0
  -26.0592  -31.5920   20.6012 H   0  0  0  0  0  0
  -26.8250  -30.8743   21.9913 H   0  0  0  0  0  0
  -28.0986  -29.0736   21.1774 H   0  0  0  0  0  0
  -25.9985  -26.0024   18.9578 H   0  0  0  0  0  0
  -23.9732  -27.3309   18.9974 H   0  0  0  0  0  0
  -23.7217  -30.6148   19.4081 H   0  0  0  0  0  0
  -22.7374  -29.2586   19.8626 H   0  0  0  0  0  0
  -25.1278  -36.1956   25.0835 H   0  0  0  0  0  0
  -20.9970  -28.3222   24.1422 H   0  0  0  0  0  0
  -20.5670  -26.2258   23.3599 H   0  0  0  0  0  0
  -21.6639  -26.7433   22.1202 H   0  0  0  0  0  0
  -19.6906  -25.6293   21.1229 H   0  0  0  0  0  0
  -19.6696  -27.3204   20.6753 H   0  0  0  0  0  0
  -17.4199  -26.6680   21.4028 H   0  0  0  0  0  0
  -18.0330  -26.0080   22.9024 H   0  0  0  0  0  0
  -19.7939  -30.7274   24.2261 H   0  0  0  0  0  0
  -17.5020  -31.6264   24.5162 H   0  0  0  0  0  0
  -15.5355  -30.2985   23.7660 H   0  0  0  0  0  0
  -15.8672  -28.0840   22.7025 H   0  0  0  0  0  0
  -24.5915  -30.7035   25.7824 H   0  0  0  0  0  0
  -24.8904  -32.2871   26.4910 H   0  0  0  0  0  0
  -25.8079  -30.8907   27.0250 H   0  0  0  0  0  0
  -26.2858  -29.6812   24.1148 H   0  0  0  0  0  0
  -27.4056  -29.7259   25.4571 H   0  0  0  0  0  0
  -27.8693  -30.4375   23.9284 H   0  0  0  0  0  0
  -27.2674  -33.3609   26.2084 H   0  0  0  0  0  0
  -28.3846  -32.6869   25.0305 H   0  0  0  0  0  0
  -28.0734  -31.8433   26.5401 H   0  0  0  0  0  0
  -28.2601  -38.0098   24.7500 H   0  0  0  0  0  0
  -28.1056  -36.2629   24.6306 H   0  0  0  0  0  0
  -27.2298  -37.1472   25.8877 H   0  0  0  0  0  0
  -20.9292  -29.8772   21.6971 H   0  0  0  0  0  0
  -26.0176  -38.2873   24.1404 H   0  0  0  0  0  0
  -33.3891  -18.5432   22.3317 H   0  0  0  0  0  0
  -31.8594  -20.4511   22.1037 H   0  0  0  0  0  0
  -32.6160  -16.2424   21.9267 H   0  0  0  0  0  0
  -28.6602  -17.7422   21.0346 H   0  0  0  0  0  0
  -27.7549  -19.5343   22.8236 H   0  0  0  0  0  0
  -27.5004  -21.2523   22.5969 H   0  0  0  0  0  0
  -28.8697  -20.6828   23.5464 H   0  0  0  0  0  0
  -29.5678  -24.6231   21.6009 H   0  0  0  0  0  0
  -30.1479  -24.3191   19.9747 H   0  0  0  0  0  0
  -30.4997  -21.7317   20.2654 H   0  0  0  0  0  0
  -30.3591  -22.1674   21.9575 H   0  0  0  0  0  0
  -27.2392  -24.9427   20.5852 H   0  0  0  0  0  0
  -27.9904  -24.9454   18.9966 H   0  0  0  0  0  0
  -28.5049  -20.1757   20.5476 H   0  0  0  0  0  0
  -29.1301  -15.2923   21.4550 H   0  0  0  0  0  0
  -28.0551  -22.8306   21.4262 H   0  0  0  0  0  0
  -28.3707  -22.5802   19.8528 H   0  0  0  0  0  0
  1 25  1  0  0  0
  1 30  2  0  0  0
  1 82  1  0  0  0
  2  3  1  0  0  0
  2 25  1  0  0  0
  2 84  1  0  0  0
  2 85  1  0  0  0
  3  4  1  0  0  0
  3 86  1  0  0  0
  3 87  1  0  0  0
  4  5  1  0  0  0
  4 88  1  0  0  0
  4 89  1  0  0  0
  5  6  1  0  0  0
  5 26  1  0  0  0
  5 90  1  0  0  0
  6 25  1  0  0  0
  6 91  1  0  0  0
  6 92  1  0  0  0
  7  8  2  0  0  0
  7 26  1  0  0  0
  7 29  1  0  0  0
  8  9  1  0  0  0
  8 22  1  0  0  0
  9 10  1  0  0  0
  9 27  2  0  0  0
 10 11  2  0  0  0
 10 15  1  0  0  0
 11 12  1  0  0  0
 11 93  1  0  0  0
 12 13  2  0  0  0
 12 94  1  0  0  0
 13 14  1  0  0  0
 13 31  1  0  0  0
 14 15  2  0  0  0
 14 95  1  0  0  0
 15 96  1  0  0  0
 16 17  2  0  0  0
 16 21  1  0  0  0
 16 31  1  0  0  0
 17 18  1  0  0  0
 17 97  1  0  0  0
 18 19  2  0  0  0
 18 98  1  0  0  0
 19 20  1  0  0  0
 19 24  1  0  0  0
 20 21  2  0  0  0
 20 99  1  0  0  0
 21 23  1  0  0  0
 22 28  1  0  0  0
 22 32  2  0  0  0
 26 27  1  0  0  0
 28100  1  0  0  0
 28101  1  0  0  0
 29102  1  0  0  0
 29103  1  0  0  0
 33 34  1  0  0  0
 33 66  1  0  0  0
 33 70  2  0  0  0
 34 36  1  0  0  0
 34 59  1  0  0  0
 34104  1  0  0  0
 35 44  2  0  0  0
 35 45  1  0  0  0
 35 68  1  0  0  0
 36 56  1  0  0  0
 36105  1  0  0  0
 37 39  1  0  0  0
 37 47  1  0  0  0
 37 66  1  0  0  0
 37106  1  0  0  0
 38 43  2  0  0  0
 38 46  1  0  0  0
 38 47  1  0  0  0
 39 64  1  0  0  0
 39 67  2  0  0  0
 40 52  1  0  0  0
 40 53  2  0  0  0
 40 58  1  0  0  0
 41107  1  0  0  0
 41108  1  0  0  0
 41109  1  0  0  0
 41 48  1  0  0  0
 42 43  1  0  0  0
 42 66  1  0  0  0
 42110  1  0  0  0
 42111  1  0  0  0
 43 44  1  0  0  0
 44112  1  0  0  0
 45 46  2  0  0  0
 45113  1  0  0  0
 46114  1  0  0  0
 47115  1  0  0  0
 47116  1  0  0  0
 48 56  1  0  0  0
 48 65  1  0  0  0
 48117  1  0  0  0
 49 50  1  0  0  0
 49 53  1  0  0  0
 49 64  1  0  0  0
 49118  1  0  0  0
 50 51  1  0  0  0
 50119  1  0  0  0
 50120  1  0  0  0
 51 52  1  0  0  0
 51121  1  0  0  0
 51122  1  0  0  0
 52123  1  0  0  0
 52124  1  0  0  0
 53 54  1  0  0  0
 54 55  2  0  0  0
 54125  1  0  0  0
 55 57  1  0  0  0
 55126  1  0  0  0
 56 69  2  0  0  0
 57 58  2  0  0  0
 57127  1  0  0  0
 58128  1  0  0  0
 59 60  1  0  0  0
 59 61  1  0  0  0
 59 62  1  0  0  0
 60129  1  0  0  0
 60130  1  0  0  0
 60131  1  0  0  0
 61132  1  0  0  0
 61133  1  0  0  0
 61134  1  0  0  0
 62135  1  0  0  0
 62136  1  0  0  0
 62137  1  0  0  0
 63 65  1  0  0  0
 63138  1  0  0  0
 63139  1  0  0  0
 63140  1  0  0  0
 64141  1  0  0  0
 65142  1  0  0  0
 68 80  1  0  0  0
 71 72  2  0  0  0
 71 73  1  0  0  0
 71143  1  0  0  0
 72 75  1  0  0  0
 72144  1  0  0  0
 73 76  2  0  0  0
 73145  1  0  0  0
 74 75  2  0  0  0
 74 76  1  0  0  0
 74146  1  0  0  0
 75 81  1  0  0  0
 76 82  1  0  0  0
 77147  1  0  0  0
 77148  1  0  0  0
 77149  1  0  0  0
 77 81  1  0  0  0
 78 80  1  0  0  0
 78 83  1  0  0  0
 78150  1  0  0  0
 78151  1  0  0  0
 79 81  1  0  0  0
 79 83  1  0  0  0
 79152  1  0  0  0
 79153  1  0  0  0
 80154  1  0  0  0
 80155  1  0  0  0
 81156  1  0  0  0
 82157  1  0  0  0
 83158  1  0  0  0
 83159  1  0  0  0
M  CHG  1  83   1
M  ISO  4   1 100  68 101  80 101  82 100
M  END
> <chiral flag>
0

> <version>
0

> <s_m_source_file>
/data/baiqing/PycharmProjects/Reinvent-master-3.2/result/LINK_invent/BTK/process_docking_weight1_custom_product_contain_oxygen_bond_distance_aromatic_linkinvent_7_9_3/rearranged_h_0002.sdf

> <i_m_source_file_index>
67

> <r_mmod_Potential_Energy-OPLS-2005>
-172.417724609375

> <r_mmod_Stretch_Energy-OPLS-2005>
43.7883491516113

> <r_mmod_Bend_Energy-OPLS-2005>
97.0989761352539

> <r_mmod_Torsional_Energy-OPLS-2005>
221.548721313477

> <r_mmod_Improper_Torsional_Energy-OPLS-2005>
3.0466890335083

> <r_mmod_Van_der_Waal_Energy-OPLS-2005>
160.210159301758

> <r_mmod_Electrostatic_Energy-OPLS-2005>
-251.817276000977

> <r_mmod_Solvation_Energy-OPLS-2005>
-462.408203125

> <b_mmod_Minimization_Converged-OPLS-2005>
0

> <r_mmod_RMS_Derivative-OPLS-2005>
1.44123709201813

$$$$
67
                    3D
 Structure written by MMmdl.
147155  0  0  1  0            999 V2000
  -30.4199  -15.1785   20.4077 C   0  0  0  0  0  0
  -30.4434  -12.7436   19.5359 C   0  0  0  0  0  0
  -29.5361  -12.5807   18.2885 C   0  0  0  0  0  0
  -28.0756  -12.3212   18.6994 C   0  0  0  0  0  0
  -27.6183  -13.2694   19.8376 C   0  0  2  0  0  0
  -28.6491  -13.3686   20.9817 C   0  0  0  0  0  0
  -25.2398  -13.8251   20.5735 C   0  0  0  0  0  0
  -24.1742  -13.0447   20.9244 C   0  0  0  0  0  0
  -24.6393  -11.6938   20.8752 C   0  0  0  0  0  0
  -23.9093  -10.4302   21.0411 C   0  0  0  0  0  0
  -24.3638   -9.4215   21.9178 C   0  0  0  0  0  0
  -23.6314   -8.2250   22.0747 C   0  0  0  0  0  0
  -22.4291   -8.0289   21.3545 C   0  0  0  0  0  0
  -21.9935   -9.0272   20.4646 C   0  0  0  0  0  0
  -22.7267  -10.2147   20.3058 C   0  0  0  0  0  0
  -21.6856   -6.0747   22.5280 C   0  0  0  0  0  0
  -21.4015   -6.5644   23.8214 C   0  0  0  0  0  0
  -21.3661   -5.6794   24.9171 C   0  0  0  0  0  0
  -21.6039   -4.3058   24.7224 C   0  0  0  0  0  0
  -21.8813   -3.8150   23.4345 C   0  0  0  0  0  0
  -21.9193   -4.6969   22.3401 C   0  0  0  0  0  0
  -22.7759  -13.5193   21.1916 C   0  0  0  0  0  0
  -22.1662   -4.2155   21.0985 F   0  0  0  0  0  0
  -21.5633   -3.4541   25.7739 F   0  0  0  0  0  0
  -29.9007  -13.8606   20.3858 N   0  0  0  0  0  0
  -26.2826  -12.9509   20.3243 N   0  0  0  0  0  0
  -25.9327  -11.6621   20.5714 N   0  0  0  0  0  0
  -22.0442  -12.8163   22.0481 N   0  0  0  0  0  0
  -25.4065  -15.1986   20.4180 N   0  0  0  0  0  0
  -31.6195  -15.2546   20.1039 O   0  0  0  0  0  0
  -21.6645   -6.8893   21.4244 O   0  0  0  0  0  0
  -22.3433  -14.5506   20.6779 O   0  0  0  0  0  0
  -24.6577  -31.8292   23.1741 C   0  0  0  0  0  0
  -25.9272  -32.4616   23.8213 C   0  0  1  0  0  0
  -27.2156  -26.9802   20.1894 C   0  0  0  0  0  0
  -25.5943  -33.8437   24.2122 N   0  0  0  0  0  0
  -23.4723  -30.4436   21.5204 C   0  0  2  0  0  0
  -24.9261  -28.8409   20.1091 C   0  0  0  0  0  0
  -22.7641  -29.4482   22.4765 C   0  0  0  0  0  0
  -18.0337  -28.1353   22.8534 C   0  0  0  0  0  0
  -24.1490  -36.7222   23.2652 C   0  0  0  0  0  0
  -26.0372  -30.6537   21.3993 C   0  0  0  0  0  0
  -26.1055  -29.2485   20.7451 C   0  0  0  0  0  0
  -27.2468  -28.3367   20.7623 C   0  0  0  0  0  0
  -26.0136  -26.7108   19.4999 C   0  0  0  0  0  0
  -24.9029  -27.5926   19.4648 C   0  0  0  0  0  0
  -23.7123  -29.7661   20.1432 C   0  0  0  0  0  0
  -25.4128  -36.2998   24.0319 C   0  0  1  0  0  0
  -20.5951  -28.3754   23.1160 C   0  0  2  0  0  0
  -20.6836  -26.9471   22.5281 C   0  0  0  0  0  0
  -19.5714  -26.6366   21.5196 C   0  0  0  0  0  0
  -18.1980  -26.7843   22.1789 C   0  0  0  0  0  0
  -19.1590  -28.8895   23.2811 C   0  0  0  0  0  0
  -18.9494  -30.1508   23.8787 C   0  0  0  0  0  0
  -17.6489  -30.6615   24.0459 C   0  0  0  0  0  0
  -25.9082  -34.9368   23.5047 C   0  0  0  0  0  0
  -16.5377  -29.9067   23.6299 C   0  0  0  0  0  0
  -16.7308  -28.6436   23.0417 C   0  0  0  0  0  0
  -26.4548  -31.6536   25.0708 C   0  0  0  0  0  0
  -25.3699  -31.3755   26.1372 C   0  0  0  0  0  0
  -27.0436  -30.2919   24.6397 C   0  0  0  0  0  0
  -27.6056  -32.4326   25.7501 C   0  0  0  0  0  0
  -27.5575  -37.1775   24.8477 C   0  0  0  0  0  0
  -21.4311  -29.3114   22.3557 N   0  0  0  0  0  0
  -26.4285  -37.3721   23.9410 N   0  0  0  0  0  0
  -24.7432  -31.0015   22.0853 N   0  0  0  0  0  0
  -23.4211  -28.7982   23.2937 O   0  0  0  0  0  0
  -28.2297  -25.9091   20.2855 O   0  0  0  0  0  0
  -26.5698  -34.8894   22.4640 O   0  0  0  0  0  0
  -23.5656  -32.1229   23.6866 O   0  0  0  0  0  0
  -30.0405  -20.3927   19.7329 C   0  0  0  0  0  0
  -28.2858  -20.2223   21.2111 C   0  0  0  0  0  0
  -30.2556  -18.9213   19.7784 C   0  0  0  0  0  0
  -28.4911  -18.7521   21.2474 C   0  0  0  0  0  0
  -29.0404  -21.1948   20.4368 C   0  0  0  0  0  0
  -29.4970  -17.9531   20.5530 C   0  0  0  0  0  0
  -29.0415  -22.9312   20.5599 C   0  0  0  0  0  0
  -27.9942  -24.3010   20.1489 C   0  0  0  0  0  0
  -29.5703  -16.3507   20.6420 N   0  0  0  0  0  0
  -31.4677  -12.9427   19.2166 H   0  0  0  0  0  0
  -30.4922  -11.8132   20.1030 H   0  0  0  0  0  0
  -29.8993  -11.7719   17.6550 H   0  0  0  0  0  0
  -29.5855  -13.4889   17.6849 H   0  0  0  0  0  0
  -28.0020  -11.2856   19.0331 H   0  0  0  0  0  0
  -27.4168  -12.4120   17.8353 H   0  0  0  0  0  0
  -27.5552  -14.2570   19.3783 H   0  0  0  0  0  0
  -28.7834  -12.4042   21.4725 H   0  0  0  0  0  0
  -28.2980  -14.0594   21.7504 H   0  0  0  0  0  0
  -25.2785   -9.5675   22.4752 H   0  0  0  0  0  0
  -24.0022   -7.4631   22.7451 H   0  0  0  0  0  0
  -21.0874   -8.8790   19.8948 H   0  0  0  0  0  0
  -22.3731  -10.9684   19.6165 H   0  0  0  0  0  0
  -21.2004   -7.6150   23.9716 H   0  0  0  0  0  0
  -21.1490   -6.0530   25.9075 H   0  0  0  0  0  0
  -22.0591   -2.7617   23.2846 H   0  0  0  0  0  0
  -22.4099  -11.9825   22.4840 H   0  0  0  0  0  0
  -21.1061  -13.1149   22.2726 H   0  0  0  0  0  0
  -24.6370  -15.8508   20.5231 H   0  0  0  0  0  0
  -26.2500  -15.6372   20.0746 H   0  0  0  0  0  0
  -26.7333  -32.5197   23.0929 H   0  0  0  0  0  0
  -25.0036  -33.9524   25.0241 H   0  0  0  0  0  0
  -22.7860  -31.2764   21.3532 H   0  0  0  0  0  0
  -23.3768  -35.9540   23.3304 H   0  0  0  0  0  0
  -24.3563  -36.8864   22.2066 H   0  0  0  0  0  0
  -23.7229  -37.6408   23.6699 H   0  0  0  0  0  0
  -26.2124  -31.3977   20.6219 H   0  0  0  0  0  0
  -26.8992  -30.7092   22.0515 H   0  0  0  0  0  0
  -28.1398  -28.6440   21.2902 H   0  0  0  0  0  0
  -25.9044  -25.7572   19.0039 H   0  0  0  0  0  0
  -24.0074  -27.2838   18.9412 H   0  0  0  0  0  0
  -23.8760  -30.5395   19.3916 H   0  0  0  0  0  0
  -22.8224  -29.2248   19.8171 H   0  0  0  0  0  0
  -25.1316  -36.1821   25.0814 H   0  0  0  0  0  0
  -21.0055  -28.3306   24.1266 H   0  0  0  0  0  0
  -20.5885  -26.2365   23.3497 H   0  0  0  0  0  0
  -21.6658  -26.7513   22.0941 H   0  0  0  0  0  0
  -19.6884  -25.6277   21.1232 H   0  0  0  0  0  0
  -19.6496  -27.3175   20.6705 H   0  0  0  0  0  0
  -17.4132  -26.6403   21.4344 H   0  0  0  0  0  0
  -18.0613  -26.0055   22.9317 H   0  0  0  0  0  0
  -19.7980  -30.7371   24.2072 H   0  0  0  0  0  0
  -17.5033  -31.6342   24.4949 H   0  0  0  0  0  0
  -15.5372  -30.2968   23.7612 H   0  0  0  0  0  0
  -15.8706  -28.0693   22.7248 H   0  0  0  0  0  0
  -24.5888  -30.7090   25.7689 H   0  0  0  0  0  0
  -24.8860  -32.2931   26.4734 H   0  0  0  0  0  0
  -25.7935  -30.8964   27.0211 H   0  0  0  0  0  0
  -26.3083  -29.6604   24.1385 H   0  0  0  0  0  0
  -27.3985  -29.7261   25.5027 H   0  0  0  0  0  0
  -27.9023  -30.4130   23.9782 H   0  0  0  0  0  0
  -27.2645  -33.3663   26.2005 H   0  0  0  0  0  0
  -28.3906  -32.6842   25.0348 H   0  0  0  0  0  0
  -28.0700  -31.8506   26.5480 H   0  0  0  0  0  0
  -28.2590  -38.0071   24.7496 H   0  0  0  0  0  0
  -28.1063  -36.2594   24.6329 H   0  0  0  0  0  0
  -27.2283  -37.1454   25.8877 H   0  0  0  0  0  0
  -20.9532  -29.8939   21.6821 H   0  0  0  0  0  0
  -26.0147  -38.2790   24.1409 H   0  0  0  0  0  0
  -30.7419  -20.9456   19.1256 H   0  0  0  0  0  0
  -27.5153  -20.6130   21.8621 H   0  0  0  0  0  0
  -31.0611  -18.5335   19.1705 H   0  0  0  0  0  0
  -27.8148  -18.2083   21.8916 H   0  0  0  0  0  0
  -29.9867  -23.1912   20.0848 H   0  0  0  0  0  0
  -29.2406  -23.0836   21.6200 H   0  0  0  0  0  0
  -27.0590  -24.1235   20.6812 H   0  0  0  0  0  0
  -27.7400  -24.1585   19.0980 H   0  0  0  0  0  0
  -28.6928  -15.9915   20.9849 H   0  0  0  0  0  0
  1 25  1  0  0  0
  1 30  2  0  0  0
  1 79  1  0  0  0
  2  3  1  0  0  0
  2 25  1  0  0  0
  2 80  1  0  0  0
  2 81  1  0  0  0
  3  4  1  0  0  0
  3 82  1  0  0  0
  3 83  1  0  0  0
  4  5  1  0  0  0
  4 84  1  0  0  0
  4 85  1  0  0  0
  5  6  1  0  0  0
  5 26  1  0  0  0
  5 86  1  0  0  0
  6 25  1  0  0  0
  6 87  1  0  0  0
  6 88  1  0  0  0
  7  8  2  0  0  0
  7 26  1  0  0  0
  7 29  1  0  0  0
  8  9  1  0  0  0
  8 22  1  0  0  0
  9 10  1  0  0  0
  9 27  2  0  0  0
 10 11  2  0  0  0
 10 15  1  0  0  0
 11 12  1  0  0  0
 11 89  1  0  0  0
 12 13  2  0  0  0
 12 90  1  0  0  0
 13 14  1  0  0  0
 13 31  1  0  0  0
 14 15  2  0  0  0
 14 91  1  0  0  0
 15 92  1  0  0  0
 16 17  2  0  0  0
 16 21  1  0  0  0
 16 31  1  0  0  0
 17 18  1  0  0  0
 17 93  1  0  0  0
 18 19  2  0  0  0
 18 94  1  0  0  0
 19 20  1  0  0  0
 19 24  1  0  0  0
 20 21  2  0  0  0
 20 95  1  0  0  0
 21 23  1  0  0  0
 22 28  1  0  0  0
 22 32  2  0  0  0
 26 27  1  0  0  0
 28 96  1  0  0  0
 28 97  1  0  0  0
 29 98  1  0  0  0
 29 99  1  0  0  0
 33 34  1  0  0  0
 33 66  1  0  0  0
 33 70  2  0  0  0
 34 36  1  0  0  0
 34 59  1  0  0  0
 34100  1  0  0  0
 35 44  2  0  0  0
 35 45  1  0  0  0
 35 68  1  0  0  0
 36 56  1  0  0  0
 36101  1  0  0  0
 37 39  1  0  0  0
 37 47  1  0  0  0
 37 66  1  0  0  0
 37102  1  0  0  0
 38 43  2  0  0  0
 38 46  1  0  0  0
 38 47  1  0  0  0
 39 64  1  0  0  0
 39 67  2  0  0  0
 40 52  1  0  0  0
 40 53  2  0  0  0
 40 58  1  0  0  0
 41103  1  0  0  0
 41104  1  0  0  0
 41105  1  0  0  0
 41 48  1  0  0  0
 42 43  1  0  0  0
 42 66  1  0  0  0
 42106  1  0  0  0
 42107  1  0  0  0
 43 44  1  0  0  0
 44108  1  0  0  0
 45 46  2  0  0  0
 45109  1  0  0  0
 46110  1  0  0  0
 47111  1  0  0  0
 47112  1  0  0  0
 48 56  1  0  0  0
 48 65  1  0  0  0
 48113  1  0  0  0
 49 50  1  0  0  0
 49 53  1  0  0  0
 49 64  1  0  0  0
 49114  1  0  0  0
 50 51  1  0  0  0
 50115  1  0  0  0
 50116  1  0  0  0
 51 52  1  0  0  0
 51117  1  0  0  0
 51118  1  0  0  0
 52119  1  0  0  0
 52120  1  0  0  0
 53 54  1  0  0  0
 54 55  2  0  0  0
 54121  1  0  0  0
 55 57  1  0  0  0
 55122  1  0  0  0
 56 69  2  0  0  0
 57 58  2  0  0  0
 57123  1  0  0  0
 58124  1  0  0  0
 59 60  1  0  0  0
 59 61  1  0  0  0
 59 62  1  0  0  0
 60125  1  0  0  0
 60126  1  0  0  0
 60127  1  0  0  0
 61128  1  0  0  0
 61129  1  0  0  0
 61130  1  0  0  0
 62131  1  0  0  0
 62132  1  0  0  0
 62133  1  0  0  0
 63 65  1  0  0  0
 63134  1  0  0  0
 63135  1  0  0  0
 63136  1  0  0  0
 64137  1  0  0  0
 65138  1  0  0  0
 68 78  1  0  0  0
 71 73  2  0  0  0
 71 75  1  0  0  0
 71139  1  0  0  0
 72 74  1  0  0  0
 72 75  2  0  0  0
 72140  1  0  0  0
 73 76  1  0  0  0
 73141  1  0  0  0
 74 76  2  0  0  0
 74142  1  0  0  0
 75 77  1  0  0  0
 76 79  1  0  0  0
 77 78  1  0  0  0
 77143  1  0  0  0
 77144  1  0  0  0
 78145  1  0  0  0
 78146  1  0  0  0
 79147  1  0  0  0
M  ISO  4   1 100  68 101  78 101  79 100
M  END
> <chiral flag>
0

> <version>
0

> <s_m_source_file>
/data/baiqing/PycharmProjects/Reinvent-master-3.2/result/LINK_invent/BTK/process_docking_weight1_custom_product_contain_oxygen_bond_distance_aromatic_linkinvent_7_9_3/rearranged_h_0002.sdf

> <i_m_source_file_index>
68

> <r_mmod_Potential_Energy-OPLS-2005>
1025.51647949219

> <r_mmod_Stretch_Energy-OPLS-2005>
450.272552490234

> <r_mmod_Bend_Energy-OPLS-2005>
407.48046875

> <r_mmod_Torsional_Energy-OPLS-2005>
218.750228881836

> <r_mmod_Improper_Torsional_Energy-OPLS-2005>
5.29044628143311

> <r_mmod_Van_der_Waal_Energy-OPLS-2005>
127.384757995605

> <r_mmod_Electrostatic_Energy-OPLS-2005>
-353.050445556641

> <r_mmod_Solvation_Energy-OPLS-2005>
-210.476058959961

> <b_mmod_Minimization_Converged-OPLS-2005>
0

> <r_mmod_RMS_Derivative-OPLS-2005>
2.94189381599426

$$$$
68
                    3D
 Structure written by MMmdl.
143150  0  0  1  0            999 V2000
  -30.3355  -15.5533   20.3377 C   0  0  0  0  0  0
  -30.4278  -13.0206   19.5356 C   0  0  0  0  0  0
  -29.5464  -12.6353   18.3151 C   0  0  0  0  0  0
  -28.1142  -12.2965   18.7563 C   0  0  0  0  0  0
  -27.5983  -13.2998   19.8136 C   0  0  2  0  0  0
  -28.6188  -13.6020   20.9348 C   0  0  0  0  0  0
  -25.2335  -13.8272   20.5783 C   0  0  0  0  0  0
  -24.1716  -13.0431   20.9280 C   0  0  0  0  0  0
  -24.6407  -11.6939   20.8763 C   0  0  0  0  0  0
  -23.9108  -10.4290   21.0398 C   0  0  0  0  0  0
  -24.3646   -9.4204   21.9179 C   0  0  0  0  0  0
  -23.6308   -8.2245   22.0753 C   0  0  0  0  0  0
  -22.4289   -8.0285   21.3544 C   0  0  0  0  0  0
  -21.9934   -9.0259   20.4644 C   0  0  0  0  0  0
  -22.7275  -10.2132   20.3050 C   0  0  0  0  0  0
  -21.6858   -6.0738   22.5278 C   0  0  0  0  0  0
  -21.4019   -6.5642   23.8212 C   0  0  0  0  0  0
  -21.3660   -5.6794   24.9173 C   0  0  0  0  0  0
  -21.6043   -4.3057   24.7224 C   0  0  0  0  0  0
  -21.8819   -3.8148   23.4345 C   0  0  0  0  0  0
  -21.9194   -4.6965   22.3402 C   0  0  0  0  0  0
  -22.7731  -13.5167   21.1917 C   0  0  0  0  0  0
  -22.1662   -4.2150   21.0979 F   0  0  0  0  0  0
  -21.5626   -3.4540   25.7737 F   0  0  0  0  0  0
  -29.8047  -14.1993   20.2827 N   0  0  0  0  0  0
  -26.2777  -12.9589   20.3227 N   0  0  0  0  0  0
  -25.9352  -11.6669   20.5705 N   0  0  0  0  0  0
  -22.0396  -12.8145   22.0471 N   0  0  0  0  0  0
  -25.3934  -15.2012   20.4226 N   0  0  0  0  0  0
  -31.5687  -15.5024   20.1771 O   0  0  0  0  0  0
  -21.6647   -6.8885   21.4242 O   0  0  0  0  0  0
  -22.3406  -14.5465   20.6752 O   0  0  0  0  0  0
  -24.6800  -31.8038   23.1543 C   0  0  0  0  0  0
  -25.9399  -32.4487   23.8074 C   0  0  1  0  0  0
  -27.2247  -26.7418   20.2123 C   0  0  0  0  0  0
  -25.5993  -33.8310   24.1966 N   0  0  0  0  0  0
  -23.5038  -30.4073   21.5074 C   0  0  2  0  0  0
  -24.9602  -28.7545   20.1181 C   0  0  0  0  0  0
  -22.7746  -29.4338   22.4723 C   0  0  0  0  0  0
  -18.0336  -28.1422   22.8456 C   0  0  0  0  0  0
  -24.1495  -36.7162   23.2653 C   0  0  0  0  0  0
  -26.0826  -30.5501   21.4119 C   0  0  0  0  0  0
  -26.1487  -29.1190   20.7619 C   0  0  0  0  0  0
  -27.2682  -28.1399   20.7756 C   0  0  0  0  0  0
  -26.0029  -26.5744   19.5148 C   0  0  0  0  0  0
  -24.9238  -27.5069   19.4714 C   0  0  0  0  0  0
  -23.7552  -29.7060   20.1417 C   0  0  0  0  0  0
  -25.4144  -36.2907   24.0285 C   0  0  1  0  0  0
  -20.5969  -28.3778   23.1151 C   0  0  2  0  0  0
  -20.6806  -26.9441   22.5404 C   0  0  0  0  0  0
  -19.5783  -26.6372   21.5218 C   0  0  0  0  0  0
  -18.1963  -26.7949   22.1618 C   0  0  0  0  0  0
  -19.1601  -28.8923   23.2785 C   0  0  0  0  0  0
  -18.9509  -30.1507   23.8830 C   0  0  0  0  0  0
  -17.6500  -30.6605   24.0552 C   0  0  0  0  0  0
  -25.9122  -34.9297   23.4960 C   0  0  0  0  0  0
  -16.5389  -29.9089   23.6351 C   0  0  0  0  0  0
  -16.7316  -28.6511   23.0366 C   0  0  0  0  0  0
  -26.4590  -31.6507   25.0681 C   0  0  0  0  0  0
  -25.3664  -31.3815   26.1302 C   0  0  0  0  0  0
  -27.0517  -30.2851   24.6551 C   0  0  0  0  0  0
  -27.6045  -32.4359   25.7497 C   0  0  0  0  0  0
  -27.5563  -37.1737   24.8467 C   0  0  0  0  0  0
  -21.4398  -29.3031   22.3473 N   0  0  0  0  0  0
  -26.4272  -37.3665   23.9408 N   0  0  0  0  0  0
  -24.7786  -30.9523   22.0774 N   0  0  0  0  0  0
  -23.4209  -28.7935   23.3052 O   0  0  0  0  0  0
  -28.2041  -25.5512   20.2801 O   0  0  0  0  0  0
  -26.5758  -34.8869   22.4574 O   0  0  0  0  0  0
  -23.5828  -32.1094   23.6523 O   0  0  0  0  0  0
  -28.7651  -20.2674   20.2904 C   0  0  0  0  0  0
  -29.0007  -22.1779   20.3080 C   0  0  0  0  0  0
  -29.8051  -18.6520   20.3467 C   0  0  0  0  0  0
  -28.0034  -23.8204   20.2032 C   0  0  0  0  0  0
  -29.5782  -16.9027   20.3825 N   0  0  0  0  0  0
  -31.4268  -13.2705   19.1767 H   0  0  0  0  0  0
  -30.5690  -12.1647   20.1980 H   0  0  0  0  0  0
  -29.9845  -11.7945   17.7757 H   0  0  0  0  0  0
  -29.5210  -13.4708   17.6137 H   0  0  0  0  0  0
  -28.1271  -11.2932   19.1840 H   0  0  0  0  0  0
  -27.4439  -12.2569   17.8969 H   0  0  0  0  0  0
  -27.4709  -14.2301   19.2582 H   0  0  0  0  0  0
  -28.8604  -12.7103   21.5153 H   0  0  0  0  0  0
  -28.2012  -14.3242   21.6380 H   0  0  0  0  0  0
  -25.2785   -9.5679   22.4764 H   0  0  0  0  0  0
  -24.0009   -7.4638   22.7481 H   0  0  0  0  0  0
  -21.0862   -8.8785   19.8952 H   0  0  0  0  0  0
  -22.3730  -10.9673   19.6163 H   0  0  0  0  0  0
  -21.2015   -7.6151   23.9715 H   0  0  0  0  0  0
  -21.1481   -6.0525   25.9076 H   0  0  0  0  0  0
  -22.0596   -2.7611   23.2846 H   0  0  0  0  0  0
  -22.4039  -11.9821   22.4865 H   0  0  0  0  0  0
  -21.1004  -13.1141   22.2671 H   0  0  0  0  0  0
  -24.6207  -15.8487   20.5359 H   0  0  0  0  0  0
  -26.2324  -15.6443   20.0726 H   0  0  0  0  0  0
  -26.7477  -32.4971   23.0784 H   0  0  0  0  0  0
  -25.0059  -33.9354   25.0062 H   0  0  0  0  0  0
  -22.8274  -31.2439   21.3201 H   0  0  0  0  0  0
  -23.3774  -35.9475   23.3272 H   0  0  0  0  0  0
  -24.3562  -36.8864   22.2076 H   0  0  0  0  0  0
  -23.7238  -37.6325   23.6753 H   0  0  0  0  0  0
  -26.2810  -31.2776   20.6238 H   0  0  0  0  0  0
  -26.9354  -30.6164   22.0750 H   0  0  0  0  0  0
  -28.1647  -28.4248   21.3080 H   0  0  0  0  0  0
  -25.8443  -25.6278   19.0182 H   0  0  0  0  0  0
  -24.0252  -27.2191   18.9430 H   0  0  0  0  0  0
  -23.9278  -30.4668   19.3796 H   0  0  0  0  0  0
  -22.8607  -29.1707   19.8189 H   0  0  0  0  0  0
  -25.1351  -36.1675   25.0775 H   0  0  0  0  0  0
  -21.0052  -28.3402   24.1277 H   0  0  0  0  0  0
  -20.5676  -26.2401   23.3662 H   0  0  0  0  0  0
  -21.6667  -26.7393   22.1218 H   0  0  0  0  0  0
  -19.6942  -25.6265   21.1292 H   0  0  0  0  0  0
  -19.6728  -27.3145   20.6718 H   0  0  0  0  0  0
  -17.4233  -26.6692   21.4021 H   0  0  0  0  0  0
  -18.0352  -26.0108   22.9031 H   0  0  0  0  0  0
  -19.7986  -30.7339   24.2170 H   0  0  0  0  0  0
  -17.5053  -31.6279   24.5166 H   0  0  0  0  0  0
  -15.5388  -30.2971   23.7716 H   0  0  0  0  0  0
  -15.8715  -28.0809   22.7122 H   0  0  0  0  0  0
  -24.5873  -30.7140   25.7600 H   0  0  0  0  0  0
  -24.8826  -32.3036   26.4537 H   0  0  0  0  0  0
  -25.7846  -30.9101   27.0204 H   0  0  0  0  0  0
  -26.3228  -29.6473   24.1543 H   0  0  0  0  0  0
  -27.3966  -29.7288   25.5278 H   0  0  0  0  0  0
  -27.9198  -30.3989   24.0055 H   0  0  0  0  0  0
  -27.2593  -33.3729   26.1879 H   0  0  0  0  0  0
  -28.3955  -32.6809   25.0396 H   0  0  0  0  0  0
  -28.0603  -31.8616   26.5574 H   0  0  0  0  0  0
  -28.2553  -38.0057   24.7511 H   0  0  0  0  0  0
  -28.1085  -36.2580   24.6299 H   0  0  0  0  0  0
  -27.2276  -37.1380   25.8868 H   0  0  0  0  0  0
  -20.9695  -29.8687   21.6544 H   0  0  0  0  0  0
  -26.0103  -38.2714   24.1421 H   0  0  0  0  0  0
  -28.1541  -20.1192   19.3998 H   0  0  0  0  0  0
  -28.0571  -20.1169   21.1057 H   0  0  0  0  0  0
  -29.7448  -22.3205   19.5244 H   0  0  0  0  0  0
  -29.5730  -22.3235   21.2244 H   0  0  0  0  0  0
  -30.4440  -18.8018   21.2176 H   0  0  0  0  0  0
  -30.4945  -18.7676   19.5099 H   0  0  0  0  0  0
  -27.2299  -23.6732   20.9571 H   0  0  0  0  0  0
  -27.4624  -23.7113   19.2633 H   0  0  0  0  0  0
  -28.5926  -16.6942   20.4591 H   0  0  0  0  0  0
  1 25  1  0  0  0
  1 30  2  0  0  0
  1 75  1  0  0  0
  2  3  1  0  0  0
  2 25  1  0  0  0
  2 76  1  0  0  0
  2 77  1  0  0  0
  3  4  1  0  0  0
  3 78  1  0  0  0
  3 79  1  0  0  0
  4  5  1  0  0  0
  4 80  1  0  0  0
  4 81  1  0  0  0
  5  6  1  0  0  0
  5 26  1  0  0  0
  5 82  1  0  0  0
  6 25  1  0  0  0
  6 83  1  0  0  0
  6 84  1  0  0  0
  7  8  2  0  0  0
  7 26  1  0  0  0
  7 29  1  0  0  0
  8  9  1  0  0  0
  8 22  1  0  0  0
  9 10  1  0  0  0
  9 27  2  0  0  0
 10 11  2  0  0  0
 10 15  1  0  0  0
 11 12  1  0  0  0
 11 85  1  0  0  0
 12 13  2  0  0  0
 12 86  1  0  0  0
 13 14  1  0  0  0
 13 31  1  0  0  0
 14 15  2  0  0  0
 14 87  1  0  0  0
 15 88  1  0  0  0
 16 17  2  0  0  0
 16 21  1  0  0  0
 16 31  1  0  0  0
 17 18  1  0  0  0
 17 89  1  0  0  0
 18 19  2  0  0  0
 18 90  1  0  0  0
 19 20  1  0  0  0
 19 24  1  0  0  0
 20 21  2  0  0  0
 20 91  1  0  0  0
 21 23  1  0  0  0
 22 28  1  0  0  0
 22 32  2  0  0  0
 26 27  1  0  0  0
 28 92  1  0  0  0
 28 93  1  0  0  0
 29 94  1  0  0  0
 29 95  1  0  0  0
 33 34  1  0  0  0
 33 66  1  0  0  0
 33 70  2  0  0  0
 34 36  1  0  0  0
 34 59  1  0  0  0
 34 96  1  0  0  0
 35 44  2  0  0  0
 35 45  1  0  0  0
 35 68  1  0  0  0
 36 56  1  0  0  0
 36 97  1  0  0  0
 37 39  1  0  0  0
 37 47  1  0  0  0
 37 66  1  0  0  0
 37 98  1  0  0  0
 38 43  2  0  0  0
 38 46  1  0  0  0
 38 47  1  0  0  0
 39 64  1  0  0  0
 39 67  2  0  0  0
 40 52  1  0  0  0
 40 53  2  0  0  0
 40 58  1  0  0  0
 41 99  1  0  0  0
 41100  1  0  0  0
 41101  1  0  0  0
 41 48  1  0  0  0
 42 43  1  0  0  0
 42 66  1  0  0  0
 42102  1  0  0  0
 42103  1  0  0  0
 43 44  1  0  0  0
 44104  1  0  0  0
 45 46  2  0  0  0
 45105  1  0  0  0
 46106  1  0  0  0
 47107  1  0  0  0
 47108  1  0  0  0
 48 56  1  0  0  0
 48 65  1  0  0  0
 48109  1  0  0  0
 49 50  1  0  0  0
 49 53  1  0  0  0
 49 64  1  0  0  0
 49110  1  0  0  0
 50 51  1  0  0  0
 50111  1  0  0  0
 50112  1  0  0  0
 51 52  1  0  0  0
 51113  1  0  0  0
 51114  1  0  0  0
 52115  1  0  0  0
 52116  1  0  0  0
 53 54  1  0  0  0
 54 55  2  0  0  0
 54117  1  0  0  0
 55 57  1  0  0  0
 55118  1  0  0  0
 56 69  2  0  0  0
 57 58  2  0  0  0
 57119  1  0  0  0
 58120  1  0  0  0
 59 60  1  0  0  0
 59 61  1  0  0  0
 59 62  1  0  0  0
 60121  1  0  0  0
 60122  1  0  0  0
 60123  1  0  0  0
 61124  1  0  0  0
 61125  1  0  0  0
 61126  1  0  0  0
 62127  1  0  0  0
 62128  1  0  0  0
 62129  1  0  0  0
 63 65  1  0  0  0
 63130  1  0  0  0
 63131  1  0  0  0
 63132  1  0  0  0
 64133  1  0  0  0
 65134  1  0  0  0
 68 74  1  0  0  0
 71 72  1  0  0  0
 71 73  1  0  0  0
 71135  1  0  0  0
 71136  1  0  0  0
 72 74  1  0  0  0
 72137  1  0  0  0
 72138  1  0  0  0
 73 75  1  0  0  0
 73139  1  0  0  0
 73140  1  0  0  0
 74141  1  0  0  0
 74142  1  0  0  0
 75143  1  0  0  0
M  ISO  4   1 100  68 101  74 101  75 100
M  END
> <chiral flag>
0

> <version>
0

> <s_m_source_file>
/data/baiqing/PycharmProjects/Reinvent-master-3.2/result/LINK_invent/BTK/process_docking_weight1_custom_product_contain_oxygen_bond_distance_aromatic_linkinvent_7_9_3/rearranged_h_0002.sdf

> <i_m_source_file_index>
69

> <r_mmod_Potential_Energy-OPLS-2005>
2236.59155273438

> <r_mmod_Stretch_Energy-OPLS-2005>
1088.18041992188

> <r_mmod_Bend_Energy-OPLS-2005>
600.093139648438

> <r_mmod_Torsional_Energy-OPLS-2005>
206.369812011719

> <r_mmod_Improper_Torsional_Energy-OPLS-2005>
3.66827178001404

> <r_mmod_Van_der_Waal_Energy-OPLS-2005>
110.215888977051

> <r_mmod_Electrostatic_Energy-OPLS-2005>
-352.887237548828

> <r_mmod_Solvation_Energy-OPLS-2005>
-215.827575683594

> <b_mmod_Minimization_Converged-OPLS-2005>
0

> <r_mmod_RMS_Derivative-OPLS-2005>
0.268112510442734

$$$$
69
                    3D
 Structure written by MMmdl.
155163  0  0  1  0            999 V2000
  -30.6947  -14.4466   20.5903 C   0  0  0  0  0  0
  -30.4252  -12.2945   19.4193 C   0  0  0  0  0  0
  -29.4932  -12.5070   18.2092 C   0  0  0  0  0  0
  -28.0179  -12.3624   18.6266 C   0  0  0  0  0  0
  -27.6658  -13.2023   19.8832 C   0  0  2  0  0  0
  -28.7012  -12.9651   21.0062 C   0  0  0  0  0  0
  -25.2601  -13.8153   20.5642 C   0  0  0  0  0  0
  -24.1855  -13.0456   20.9153 C   0  0  0  0  0  0
  -24.6402  -11.6911   20.8745 C   0  0  0  0  0  0
  -23.9072  -10.4310   21.0400 C   0  0  0  0  0  0
  -24.3632   -9.4221   21.9176 C   0  0  0  0  0  0
  -23.6308   -8.2258   22.0753 C   0  0  0  0  0  0
  -22.4286   -8.0306   21.3546 C   0  0  0  0  0  0
  -21.9918   -9.0274   20.4639 C   0  0  0  0  0  0
  -22.7248  -10.2148   20.3039 C   0  0  0  0  0  0
  -21.6869   -6.0748   22.5273 C   0  0  0  0  0  0
  -21.4024   -6.5641   23.8207 C   0  0  0  0  0  0
  -21.3650   -5.6786   24.9164 C   0  0  0  0  0  0
  -21.6035   -4.3048   24.7212 C   0  0  0  0  0  0
  -21.8823   -3.8147   23.4333 C   0  0  0  0  0  0
  -21.9201   -4.6972   22.3391 C   0  0  0  0  0  0
  -22.7888  -13.5264   21.1839 C   0  0  0  0  0  0
  -22.1672   -4.2162   21.0970 F   0  0  0  0  0  0
  -21.5622   -3.4528   25.7720 F   0  0  0  0  0  0
  -30.0410  -13.2612   20.4629 N   0  0  0  0  0  0
  -26.3043  -12.9316   20.3384 N   0  0  0  0  0  0
  -25.9327  -11.6483   20.5782 N   0  0  0  0  0  0
  -22.0535  -12.8247   22.0378 N   0  0  0  0  0  0
  -25.4341  -15.1872   20.3988 N   0  0  0  0  0  0
  -31.7868  -14.6819   20.0647 O   0  0  0  0  0  0
  -21.6649   -6.8902   21.4245 O   0  0  0  0  0  0
  -22.3571  -14.5593   20.6710 O   0  0  0  0  0  0
  -24.6096  -31.8691   23.2092 C   0  0  0  0  0  0
  -25.9011  -32.4826   23.8381 C   0  0  1  0  0  0
  -27.2422  -27.4451   20.0830 C   0  0  0  0  0  0
  -25.5875  -33.8621   24.2295 N   0  0  0  0  0  0
  -23.3963  -30.4961   21.5474 C   0  0  2  0  0  0
  -24.8428  -28.9586   20.1160 C   0  0  0  0  0  0
  -22.7345  -29.4711   22.4958 C   0  0  0  0  0  0
  -18.0234  -28.1432   22.8532 C   0  0  0  0  0  0
  -24.1491  -36.7316   23.2635 C   0  0  0  0  0  0
  -25.9237  -30.8386   21.3597 C   0  0  0  0  0  0
  -26.0019  -29.4721   20.7080 C   0  0  0  0  0  0
  -27.1984  -28.7218   20.6904 C   0  0  0  0  0  0
  -26.0530  -26.9350   19.5055 C   0  0  0  0  0  0
  -24.8627  -27.6876   19.5173 C   0  0  0  0  0  0
  -23.6027  -29.8218   20.1644 C   0  0  0  0  0  0
  -25.4115  -36.3098   24.0317 C   0  0  1  0  0  0
  -20.5831  -28.3695   23.1307 C   0  0  2  0  0  0
  -20.6698  -26.9432   22.5380 C   0  0  0  0  0  0
  -19.5653  -26.6422   21.5203 C   0  0  0  0  0  0
  -18.1855  -26.7968   22.1684 C   0  0  0  0  0  0
  -19.1497  -28.8868   23.2937 C   0  0  0  0  0  0
  -18.9444  -30.1481   23.8928 C   0  0  0  0  0  0
  -17.6462  -30.6651   24.0591 C   0  0  0  0  0  0
  -25.9033  -34.9467   23.5100 C   0  0  0  0  0  0
  -16.5341  -29.9167   23.6390 C   0  0  0  0  0  0
  -16.7230  -28.6596   23.0371 C   0  0  0  0  0  0
  -26.4453  -31.6594   25.0702 C   0  0  0  0  0  0
  -25.3721  -31.3723   26.1450 C   0  0  0  0  0  0
  -27.0297  -30.3041   24.6072 C   0  0  0  0  0  0
  -27.6019  -32.4309   25.7478 C   0  0  0  0  0  0
  -27.5581  -37.1803   24.8457 C   0  0  0  0  0  0
  -21.4064  -29.3112   22.3727 N   0  0  0  0  0  0
  -26.4310  -37.3777   23.9391 N   0  0  0  0  0  0
  -24.6617  -31.0808   22.0984 N   0  0  0  0  0  0
  -23.4126  -28.8201   23.2953 O   0  0  0  0  0  0
  -28.4507  -26.7718   20.0818 O   0  0  0  0  0  0
  -26.5605  -34.8918   22.4670 O   0  0  0  0  0  0
  -23.5299  -32.1462   23.7491 O   0  0  0  0  0  0
  -29.3724  -20.2204   21.9010 C   0  0  0  0  0  0
  -28.1949  -19.3500   19.9609 C   0  0  0  0  0  0
  -29.1610  -21.5419   21.4382 C   0  0  0  0  0  0
  -27.9858  -20.6651   19.5027 C   0  0  0  0  0  0
  -28.8934  -19.1121   21.1623 C   0  0  0  0  0  0
  -28.4696  -21.7762   20.2247 C   0  0  0  0  0  0
  -29.0578  -17.6760   21.6625 C   0  0  0  0  0  0
  -30.1551  -16.8562   20.9427 C   0  0  0  0  0  0
  -28.3253  -24.3145   20.4014 C   0  0  0  0  0  0
  -28.5816  -25.5003   19.4380 C   0  0  0  0  0  0
  -28.2499  -23.0497   19.6676 N   0  0  0  0  0  0
  -29.9867  -15.4181   21.1865 N   0  0  0  0  0  0
  -31.4676  -12.4003   19.1112 H   0  0  0  0  0  0
  -30.3344  -11.2753   19.7979 H   0  0  0  0  0  0
  -29.7283  -11.7893   17.4220 H   0  0  0  0  0  0
  -29.6610  -13.4971   17.7845 H   0  0  0  0  0  0
  -27.8346  -11.3070   18.8313 H   0  0  0  0  0  0
  -27.3613  -12.6284   17.7977 H   0  0  0  0  0  0
  -27.7161  -14.2541   19.5970 H   0  0  0  0  0  0
  -28.6641  -11.9295   21.3456 H   0  0  0  0  0  0
  -28.4519  -13.5562   21.8897 H   0  0  0  0  0  0
  -25.2788   -9.5695   22.4735 H   0  0  0  0  0  0
  -24.0023   -7.4643   22.7456 H   0  0  0  0  0  0
  -21.0858   -8.8785   19.8945 H   0  0  0  0  0  0
  -22.3716  -10.9689   19.6137 H   0  0  0  0  0  0
  -21.2027   -7.6148   23.9718 H   0  0  0  0  0  0
  -21.1463   -6.0508   25.9066 H   0  0  0  0  0  0
  -22.0618   -2.7616   23.2813 H   0  0  0  0  0  0
  -22.4179  -11.9939   22.4799 H   0  0  0  0  0  0
  -21.1139  -13.1245   22.2559 H   0  0  0  0  0  0
  -24.6615  -15.8410   20.4664 H   0  0  0  0  0  0
  -26.2825  -15.6160   20.0522 H   0  0  0  0  0  0
  -26.7083  -32.5543   23.1139 H   0  0  0  0  0  0
  -24.9978  -33.9793   25.0403 H   0  0  0  0  0  0
  -22.6874  -31.3139   21.4037 H   0  0  0  0  0  0
  -23.3735  -35.9672   23.3311 H   0  0  0  0  0  0
  -24.3572  -36.8930   22.2051 H   0  0  0  0  0  0
  -23.7277  -37.6529   23.6662 H   0  0  0  0  0  0
  -26.0318  -31.6104   20.5962 H   0  0  0  0  0  0
  -26.8119  -30.8917   21.9771 H   0  0  0  0  0  0
  -28.0950  -29.1252   21.1389 H   0  0  0  0  0  0
  -26.0127  -25.9620   19.0403 H   0  0  0  0  0  0
  -23.9685  -27.2823   19.0650 H   0  0  0  0  0  0
  -23.6975  -30.5885   19.3932 H   0  0  0  0  0  0
  -22.7298  -29.2291   19.8802 H   0  0  0  0  0  0
  -25.1298  -36.1949   25.0817 H   0  0  0  0  0  0
  -20.9979  -28.3236   24.1408 H   0  0  0  0  0  0
  -20.5596  -26.2289   23.3554 H   0  0  0  0  0  0
  -21.6545  -26.7446   22.1130 H   0  0  0  0  0  0
  -19.6785  -25.6338   21.1210 H   0  0  0  0  0  0
  -19.6587  -27.3205   20.6715 H   0  0  0  0  0  0
  -17.4065  -26.6693   21.4146 H   0  0  0  0  0  0
  -18.0278  -26.0142   22.9125 H   0  0  0  0  0  0
  -19.7938  -30.7280   24.2313 H   0  0  0  0  0  0
  -17.5036  -31.6344   24.5177 H   0  0  0  0  0  0
  -15.5356  -30.3078   23.7785 H   0  0  0  0  0  0
  -15.8584  -28.0980   22.7075 H   0  0  0  0  0  0
  -24.5868  -30.7089   25.7795 H   0  0  0  0  0  0
  -24.8943  -32.2900   26.4896 H   0  0  0  0  0  0
  -25.8070  -30.8892   27.0204 H   0  0  0  0  0  0
  -26.2856  -29.6794   24.1114 H   0  0  0  0  0  0
  -27.4064  -29.7276   25.4526 H   0  0  0  0  0  0
  -27.8682  -30.4356   23.9228 H   0  0  0  0  0  0
  -27.2618  -33.3584   26.2093 H   0  0  0  0  0  0
  -28.3832  -32.6898   25.0320 H   0  0  0  0  0  0
  -28.0681  -31.8403   26.5371 H   0  0  0  0  0  0
  -28.2591  -38.0106   24.7491 H   0  0  0  0  0  0
  -28.1083  -36.2620   24.6304 H   0  0  0  0  0  0
  -27.2280  -37.1482   25.8858 H   0  0  0  0  0  0
  -20.9172  -29.8930   21.7064 H   0  0  0  0  0  0
  -26.0180  -38.2852   24.1397 H   0  0  0  0  0  0
  -29.9018  -20.0672   22.8338 H   0  0  0  0  0  0
  -27.8094  -18.5219   19.3814 H   0  0  0  0  0  0
  -29.5504  -22.3614   22.0245 H   0  0  0  0  0  0
  -27.4390  -20.8109   18.5826 H   0  0  0  0  0  0
  -28.0954  -17.1743   21.5402 H   0  0  0  0  0  0
  -29.2513  -17.6940   22.7350 H   0  0  0  0  0  0
  -30.0817  -17.0160   19.8667 H   0  0  0  0  0  0
  -31.1514  -17.1912   21.2358 H   0  0  0  0  0  0
  -27.3877  -24.4692   20.9374 H   0  0  0  0  0  0
  -29.1169  -24.2974   21.1508 H   0  0  0  0  0  0
  -27.9816  -25.4330   18.5307 H   0  0  0  0  0  0
  -29.6107  -25.4332   19.0827 H   0  0  0  0  0  0
  -27.7989  -23.0872   18.7568 H   0  0  0  0  0  0
  -29.1291  -15.1286   21.6307 H   0  0  0  0  0  0
  1 25  1  0  0  0
  1 30  2  0  0  0
  1 82  1  0  0  0
  2  3  1  0  0  0
  2 25  1  0  0  0
  2 83  1  0  0  0
  2 84  1  0  0  0
  3  4  1  0  0  0
  3 85  1  0  0  0
  3 86  1  0  0  0
  4  5  1  0  0  0
  4 87  1  0  0  0
  4 88  1  0  0  0
  5  6  1  0  0  0
  5 26  1  0  0  0
  5 89  1  0  0  0
  6 25  1  0  0  0
  6 90  1  0  0  0
  6 91  1  0  0  0
  7  8  2  0  0  0
  7 26  1  0  0  0
  7 29  1  0  0  0
  8  9  1  0  0  0
  8 22  1  0  0  0
  9 10  1  0  0  0
  9 27  2  0  0  0
 10 11  2  0  0  0
 10 15  1  0  0  0
 11 12  1  0  0  0
 11 92  1  0  0  0
 12 13  2  0  0  0
 12 93  1  0  0  0
 13 14  1  0  0  0
 13 31  1  0  0  0
 14 15  2  0  0  0
 14 94  1  0  0  0
 15 95  1  0  0  0
 16 17  2  0  0  0
 16 21  1  0  0  0
 16 31  1  0  0  0
 17 18  1  0  0  0
 17 96  1  0  0  0
 18 19  2  0  0  0
 18 97  1  0  0  0
 19 20  1  0  0  0
 19 24  1  0  0  0
 20 21  2  0  0  0
 20 98  1  0  0  0
 21 23  1  0  0  0
 22 28  1  0  0  0
 22 32  2  0  0  0
 26 27  1  0  0  0
 28 99  1  0  0  0
 28100  1  0  0  0
 29101  1  0  0  0
 29102  1  0  0  0
 33 34  1  0  0  0
 33 66  1  0  0  0
 33 70  2  0  0  0
 34 36  1  0  0  0
 34 59  1  0  0  0
 34103  1  0  0  0
 35 44  2  0  0  0
 35 45  1  0  0  0
 35 68  1  0  0  0
 36 56  1  0  0  0
 36104  1  0  0  0
 37 39  1  0  0  0
 37 47  1  0  0  0
 37 66  1  0  0  0
 37105  1  0  0  0
 38 43  2  0  0  0
 38 46  1  0  0  0
 38 47  1  0  0  0
 39 64  1  0  0  0
 39 67  2  0  0  0
 40 52  1  0  0  0
 40 53  2  0  0  0
 40 58  1  0  0  0
 41106  1  0  0  0
 41107  1  0  0  0
 41108  1  0  0  0
 41 48  1  0  0  0
 42 43  1  0  0  0
 42 66  1  0  0  0
 42109  1  0  0  0
 42110  1  0  0  0
 43 44  1  0  0  0
 44111  1  0  0  0
 45 46  2  0  0  0
 45112  1  0  0  0
 46113  1  0  0  0
 47114  1  0  0  0
 47115  1  0  0  0
 48 56  1  0  0  0
 48 65  1  0  0  0
 48116  1  0  0  0
 49 50  1  0  0  0
 49 53  1  0  0  0
 49 64  1  0  0  0
 49117  1  0  0  0
 50 51  1  0  0  0
 50118  1  0  0  0
 50119  1  0  0  0
 51 52  1  0  0  0
 51120  1  0  0  0
 51121  1  0  0  0
 52122  1  0  0  0
 52123  1  0  0  0
 53 54  1  0  0  0
 54 55  2  0  0  0
 54124  1  0  0  0
 55 57  1  0  0  0
 55125  1  0  0  0
 56 69  2  0  0  0
 57 58  2  0  0  0
 57126  1  0  0  0
 58127  1  0  0  0
 59 60  1  0  0  0
 59 61  1  0  0  0
 59 62  1  0  0  0
 60128  1  0  0  0
 60129  1  0  0  0
 60130  1  0  0  0
 61131  1  0  0  0
 61132  1  0  0  0
 61133  1  0  0  0
 62134  1  0  0  0
 62135  1  0  0  0
 62136  1  0  0  0
 63 65  1  0  0  0
 63137  1  0  0  0
 63138  1  0  0  0
 63139  1  0  0  0
 64140  1  0  0  0
 65141  1  0  0  0
 68 80  1  0  0  0
 71 73  2  0  0  0
 71 75  1  0  0  0
 71142  1  0  0  0
 72 74  1  0  0  0
 72 75  2  0  0  0
 72143  1  0  0  0
 73 76  1  0  0  0
 73144  1  0  0  0
 74 76  2  0  0  0
 74145  1  0  0  0
 75 77  1  0  0  0
 76 81  1  0  0  0
 77 78  1  0  0  0
 77146  1  0  0  0
 77147  1  0  0  0
 78 82  1  0  0  0
 78148  1  0  0  0
 78149  1  0  0  0
 79 80  1  0  0  0
 79 81  1  0  0  0
 79150  1  0  0  0
 79151  1  0  0  0
 80152  1  0  0  0
 80153  1  0  0  0
 81154  1  0  0  0
 82155  1  0  0  0
M  ISO  4   1 100  68 101  80 101  82 100
M  END
> <chiral flag>
0

> <version>
0

> <s_m_source_file>
/data/baiqing/PycharmProjects/Reinvent-master-3.2/result/LINK_invent/BTK/process_docking_weight1_custom_product_contain_oxygen_bond_distance_aromatic_linkinvent_7_9_3/rearranged_h_0002.sdf

> <i_m_source_file_index>
70

> <r_mmod_Potential_Energy-OPLS-2005>
-99.2335586547852

> <r_mmod_Stretch_Energy-OPLS-2005>
35.8007392883301

> <r_mmod_Bend_Energy-OPLS-2005>
111.894660949707

> <r_mmod_Torsional_Energy-OPLS-2005>
187.771133422852

> <r_mmod_Improper_Torsional_Energy-OPLS-2005>
5.5199818611145

> <r_mmod_Van_der_Waal_Energy-OPLS-2005>
151.122802734375

> <r_mmod_Electrostatic_Energy-OPLS-2005>
-378.478302001953

> <r_mmod_Solvation_Energy-OPLS-2005>
-223.034317016602

> <b_mmod_Minimization_Converged-OPLS-2005>
0

> <r_mmod_RMS_Derivative-OPLS-2005>
3.27905893325806

$$$$
70
                    3D
 Structure written by MMmdl.
147155  0  0  1  0            999 V2000
  -30.3092  -15.6938   20.3635 C   0  0  0  0  0  0
  -30.4266  -13.1350   19.5680 C   0  0  0  0  0  0
  -29.5585  -12.6862   18.3537 C   0  0  0  0  0  0
  -28.1455  -12.3010   18.8028 C   0  0  0  0  0  0
  -27.6013  -13.3132   19.8284 C   0  0  2  0  0  0
  -28.6081  -13.6758   20.9529 C   0  0  0  0  0  0
  -25.2341  -13.8304   20.5824 C   0  0  0  0  0  0
  -24.1738  -13.0468   20.9307 C   0  0  0  0  0  0
  -24.6418  -11.6966   20.8746 C   0  0  0  0  0  0
  -23.9111  -10.4300   21.0387 C   0  0  0  0  0  0
  -24.3652   -9.4206   21.9158 C   0  0  0  0  0  0
  -23.6302   -8.2234   22.0731 C   0  0  0  0  0  0
  -22.4281   -8.0261   21.3531 C   0  0  0  0  0  0
  -21.9936   -9.0257   20.4628 C   0  0  0  0  0  0
  -22.7277  -10.2129   20.3033 C   0  0  0  0  0  0
  -21.6870   -6.0726   22.5275 C   0  0  0  0  0  0
  -21.4026   -6.5636   23.8207 C   0  0  0  0  0  0
  -21.3671   -5.6782   24.9174 C   0  0  0  0  0  0
  -21.6039   -4.3026   24.7228 C   0  0  0  0  0  0
  -21.8823   -3.8137   23.4351 C   0  0  0  0  0  0
  -21.9206   -4.6945   22.3404 C   0  0  0  0  0  0
  -22.7729  -13.5157   21.1942 C   0  0  0  0  0  0
  -22.1660   -4.2142   21.0973 F   0  0  0  0  0  0
  -21.5634   -3.4520   25.7749 F   0  0  0  0  0  0
  -29.7863  -14.3169   20.3156 N   0  0  0  0  0  0
  -26.2802  -12.9641   20.3304 N   0  0  0  0  0  0
  -25.9381  -11.6729   20.5747 N   0  0  0  0  0  0
  -22.0399  -12.8123   22.0470 N   0  0  0  0  0  0
  -25.3921  -15.2034   20.4234 N   0  0  0  0  0  0
  -31.5317  -15.6283   20.1184 O   0  0  0  0  0  0
  -21.6640   -6.8866   21.4233 O   0  0  0  0  0  0
  -22.3376  -14.5454   20.6751 O   0  0  0  0  0  0
  -24.6860  -31.7944   23.1498 C   0  0  0  0  0  0
  -25.9423  -32.4438   23.8044 C   0  0  1  0  0  0
  -27.2603  -26.6608   20.2664 C   0  0  0  0  0  0
  -25.5987  -33.8269   24.1921 N   0  0  0  0  0  0
  -23.5164  -30.3876   21.5003 C   0  0  2  0  0  0
  -24.9918  -28.7161   20.1219 C   0  0  0  0  0  0
  -22.7780  -29.4274   22.4712 C   0  0  0  0  0  0
  -18.0338  -28.1405   22.8452 C   0  0  0  0  0  0
  -24.1508  -36.7146   23.2652 C   0  0  0  0  0  0
  -26.0988  -30.5190   21.4219 C   0  0  0  0  0  0
  -26.1727  -29.0760   20.7842 C   0  0  0  0  0  0
  -27.2839  -28.0747   20.8247 C   0  0  0  0  0  0
  -26.0548  -26.5274   19.5268 C   0  0  0  0  0  0
  -24.9764  -27.4705   19.4658 C   0  0  0  0  0  0
  -23.7808  -29.6694   20.1406 C   0  0  0  0  0  0
  -25.4163  -36.2881   24.0272 C   0  0  1  0  0  0
  -20.5984  -28.3783   23.1134 C   0  0  2  0  0  0
  -20.6806  -26.9435   22.5419 C   0  0  0  0  0  0
  -19.5782  -26.6360   21.5225 C   0  0  0  0  0  0
  -18.1962  -26.7935   22.1618 C   0  0  0  0  0  0
  -19.1606  -28.8922   23.2770 C   0  0  0  0  0  0
  -18.9513  -30.1512   23.8809 C   0  0  0  0  0  0
  -17.6502  -30.6601   24.0558 C   0  0  0  0  0  0
  -25.9135  -34.9269   23.4932 C   0  0  0  0  0  0
  -16.5389  -29.9091   23.6354 C   0  0  0  0  0  0
  -16.7320  -28.6516   23.0372 C   0  0  0  0  0  0
  -26.4615  -31.6478   25.0671 C   0  0  0  0  0  0
  -25.3668  -31.3815   26.1282 C   0  0  0  0  0  0
  -27.0542  -30.2804   24.6591 C   0  0  0  0  0  0
  -27.6046  -32.4364   25.7501 C   0  0  0  0  0  0
  -27.5562  -37.1750   24.8473 C   0  0  0  0  0  0
  -21.4431  -29.3009   22.3450 N   0  0  0  0  0  0
  -26.4287  -37.3636   23.9384 N   0  0  0  0  0  0
  -24.7896  -30.9362   22.0759 N   0  0  0  0  0  0
  -23.4207  -28.7883   23.3083 O   0  0  0  0  0  0
  -28.2214  -25.4277   20.4353 O   0  0  0  0  0  0
  -26.5785  -34.8835   22.4554 O   0  0  0  0  0  0
  -23.5862  -32.1036   23.6408 O   0  0  0  0  0  0
  -29.7529  -20.7811   23.4491 C   0  0  0  0  0  0
  -29.4210  -22.1246   23.4444 C   0  0  0  0  0  0
  -29.6442  -20.0246   22.2812 C   0  0  0  0  0  0
  -28.9996  -22.7425   22.2645 C   0  0  0  0  0  0
  -29.2251  -20.4774   21.0002 C   0  0  0  0  0  0
  -28.8465  -22.1358   20.9822 C   0  0  0  0  0  0
  -29.4843  -18.8420   20.1252 C   0  0  0  0  0  0
  -28.2494  -23.6690   20.0874 C   0  0  0  0  0  0
  -29.5555  -17.0681   20.5041 N   0  0  0  0  0  0
  -31.4146  -13.4073   19.1950 H   0  0  0  0  0  0
  -30.6058  -12.2969   20.2467 H   0  0  0  0  0  0
  -30.0354  -11.8505   17.8383 H   0  0  0  0  0  0
  -29.4949  -13.5003   17.6293 H   0  0  0  0  0  0
  -28.1990  -11.3135   19.2626 H   0  0  0  0  0  0
  -27.4750  -12.2045   17.9484 H   0  0  0  0  0  0
  -27.4598  -14.2243   19.2439 H   0  0  0  0  0  0
  -28.8809  -12.8061   21.5509 H   0  0  0  0  0  0
  -28.1536  -14.3847   21.6446 H   0  0  0  0  0  0
  -25.2809   -9.5685   22.4737 H   0  0  0  0  0  0
  -24.0044   -7.4622   22.7433 H   0  0  0  0  0  0
  -21.0879   -8.8769   19.8918 H   0  0  0  0  0  0
  -22.3726  -10.9675   19.6127 H   0  0  0  0  0  0
  -21.2005   -7.6153   23.9722 H   0  0  0  0  0  0
  -21.1489   -6.0504   25.9079 H   0  0  0  0  0  0
  -22.0592   -2.7611   23.2854 H   0  0  0  0  0  0
  -22.4063  -11.9842   22.4958 H   0  0  0  0  0  0
  -21.0957  -13.1063   22.2625 H   0  0  0  0  0  0
  -24.6236  -15.8548   20.5321 H   0  0  0  0  0  0
  -26.2308  -15.6410   20.0703 H   0  0  0  0  0  0
  -26.7503  -32.4948   23.0756 H   0  0  0  0  0  0
  -25.0047  -33.9313   25.0018 H   0  0  0  0  0  0
  -22.8412  -31.2233   21.2986 H   0  0  0  0  0  0
  -23.3750  -35.9490   23.3317 H   0  0  0  0  0  0
  -24.3542  -36.8809   22.2053 H   0  0  0  0  0  0
  -23.7296  -37.6342   23.6735 H   0  0  0  0  0  0
  -26.2993  -31.2351   20.6239 H   0  0  0  0  0  0
  -26.9456  -30.5993   22.0889 H   0  0  0  0  0  0
  -28.1583  -28.3619   21.3907 H   0  0  0  0  0  0
  -25.8994  -25.5793   19.0347 H   0  0  0  0  0  0
  -24.0935  -27.1822   18.9124 H   0  0  0  0  0  0
  -23.9560  -30.4220   19.3722 H   0  0  0  0  0  0
  -22.8909  -29.1272   19.8219 H   0  0  0  0  0  0
  -25.1387  -36.1626   25.0758 H   0  0  0  0  0  0
  -21.0062  -28.3403   24.1266 H   0  0  0  0  0  0
  -20.5672  -26.2403   23.3682 H   0  0  0  0  0  0
  -21.6661  -26.7398   22.1224 H   0  0  0  0  0  0
  -19.6953  -25.6259   21.1290 H   0  0  0  0  0  0
  -19.6721  -27.3140   20.6714 H   0  0  0  0  0  0
  -17.4255  -26.6702   21.4016 H   0  0  0  0  0  0
  -18.0355  -26.0113   22.9030 H   0  0  0  0  0  0
  -19.7989  -30.7360   24.2149 H   0  0  0  0  0  0
  -17.5051  -31.6270   24.5159 H   0  0  0  0  0  0
  -15.5388  -30.2957   23.7731 H   0  0  0  0  0  0
  -15.8718  -28.0794   22.7134 H   0  0  0  0  0  0
  -24.5881  -30.7136   25.7616 H   0  0  0  0  0  0
  -24.8833  -32.3040   26.4492 H   0  0  0  0  0  0
  -25.7840  -30.9141   27.0201 H   0  0  0  0  0  0
  -26.3265  -29.6425   24.1577 H   0  0  0  0  0  0
  -27.3943  -29.7255   25.5344 H   0  0  0  0  0  0
  -27.9259  -30.3919   24.0139 H   0  0  0  0  0  0
  -27.2555  -33.3727   26.1850 H   0  0  0  0  0  0
  -28.3970  -32.6815   25.0426 H   0  0  0  0  0  0
  -28.0571  -31.8644   26.5607 H   0  0  0  0  0  0
  -28.2599  -38.0024   24.7452 H   0  0  0  0  0  0
  -28.1041  -36.2550   24.6407 H   0  0  0  0  0  0
  -27.2259  -37.1507   25.8870 H   0  0  0  0  0  0
  -20.9771  -29.8637   21.6473 H   0  0  0  0  0  0
  -26.0110  -38.2691   24.1342 H   0  0  0  0  0  0
  -30.1259  -20.3287   24.3583 H   0  0  0  0  0  0
  -29.4991  -22.6952   24.3621 H   0  0  0  0  0  0
  -29.9593  -18.9993   22.4057 H   0  0  0  0  0  0
  -28.7794  -23.7973   22.3830 H   0  0  0  0  0  0
  -30.4239  -19.0030   19.5937 H   0  0  0  0  0  0
  -28.7415  -18.8799   19.3264 H   0  0  0  0  0  0
  -27.2551  -23.4210   19.7160 H   0  0  0  0  0  0
  -28.8689  -23.6442   19.1935 H   0  0  0  0  0  0
  -28.6385  -16.8108   20.8345 H   0  0  0  0  0  0
  1 25  1  0  0  0
  1 30  2  0  0  0
  1 79  1  0  0  0
  2  3  1  0  0  0
  2 25  1  0  0  0
  2 80  1  0  0  0
  2 81  1  0  0  0
  3  4  1  0  0  0
  3 82  1  0  0  0
  3 83  1  0  0  0
  4  5  1  0  0  0
  4 84  1  0  0  0
  4 85  1  0  0  0
  5  6  1  0  0  0
  5 26  1  0  0  0
  5 86  1  0  0  0
  6 25  1  0  0  0
  6 87  1  0  0  0
  6 88  1  0  0  0
  7  8  2  0  0  0
  7 26  1  0  0  0
  7 29  1  0  0  0
  8  9  1  0  0  0
  8 22  1  0  0  0
  9 10  1  0  0  0
  9 27  2  0  0  0
 10 11  2  0  0  0
 10 15  1  0  0  0
 11 12  1  0  0  0
 11 89  1  0  0  0
 12 13  2  0  0  0
 12 90  1  0  0  0
 13 14  1  0  0  0
 13 31  1  0  0  0
 14 15  2  0  0  0
 14 91  1  0  0  0
 15 92  1  0  0  0
 16 17  2  0  0  0
 16 21  1  0  0  0
 16 31  1  0  0  0
 17 18  1  0  0  0
 17 93  1  0  0  0
 18 19  2  0  0  0
 18 94  1  0  0  0
 19 20  1  0  0  0
 19 24  1  0  0  0
 20 21  2  0  0  0
 20 95  1  0  0  0
 21 23  1  0  0  0
 22 28  1  0  0  0
 22 32  2  0  0  0
 26 27  1  0  0  0
 28 96  1  0  0  0
 28 97  1  0  0  0
 29 98  1  0  0  0
 29 99  1  0  0  0
 33 34  1  0  0  0
 33 66  1  0  0  0
 33 70  2  0  0  0
 34 36  1  0  0  0
 34 59  1  0  0  0
 34100  1  0  0  0
 35 44  2  0  0  0
 35 45  1  0  0  0
 35 68  1  0  0  0
 36 56  1  0  0  0
 36101  1  0  0  0
 37 39  1  0  0  0
 37 47  1  0  0  0
 37 66  1  0  0  0
 37102  1  0  0  0
 38 43  2  0  0  0
 38 46  1  0  0  0
 38 47  1  0  0  0
 39 64  1  0  0  0
 39 67  2  0  0  0
 40 52  1  0  0  0
 40 53  2  0  0  0
 40 58  1  0  0  0
 41103  1  0  0  0
 41104  1  0  0  0
 41105  1  0  0  0
 41 48  1  0  0  0
 42 43  1  0  0  0
 42 66  1  0  0  0
 42106  1  0  0  0
 42107  1  0  0  0
 43 44  1  0  0  0
 44108  1  0  0  0
 45 46  2  0  0  0
 45109  1  0  0  0
 46110  1  0  0  0
 47111  1  0  0  0
 47112  1  0  0  0
 48 56  1  0  0  0
 48 65  1  0  0  0
 48113  1  0  0  0
 49 50  1  0  0  0
 49 53  1  0  0  0
 49 64  1  0  0  0
 49114  1  0  0  0
 50 51  1  0  0  0
 50115  1  0  0  0
 50116  1  0  0  0
 51 52  1  0  0  0
 51117  1  0  0  0
 51118  1  0  0  0
 52119  1  0  0  0
 52120  1  0  0  0
 53 54  1  0  0  0
 54 55  2  0  0  0
 54121  1  0  0  0
 55 57  1  0  0  0
 55122  1  0  0  0
 56 69  2  0  0  0
 57 58  2  0  0  0
 57123  1  0  0  0
 58124  1  0  0  0
 59 60  1  0  0  0
 59 61  1  0  0  0
 59 62  1  0  0  0
 60125  1  0  0  0
 60126  1  0  0  0
 60127  1  0  0  0
 61128  1  0  0  0
 61129  1  0  0  0
 61130  1  0  0  0
 62131  1  0  0  0
 62132  1  0  0  0
 62133  1  0  0  0
 63 65  1  0  0  0
 63134  1  0  0  0
 63135  1  0  0  0
 63136  1  0  0  0
 64137  1  0  0  0
 65138  1  0  0  0
 68 78  1  0  0  0
 71 72  2  0  0  0
 71 73  1  0  0  0
 71139  1  0  0  0
 72 74  1  0  0  0
 72140  1  0  0  0
 73 75  2  0  0  0
 73141  1  0  0  0
 74 76  2  0  0  0
 74142  1  0  0  0
 75 76  1  0  0  0
 75 77  1  0  0  0
 76 78  1  0  0  0
 77 79  1  0  0  0
 77143  1  0  0  0
 77144  1  0  0  0
 78145  1  0  0  0
 78146  1  0  0  0
 79147  1  0  0  0
M  ISO  4   1 100  68 101  78 101  79 100
M  END
> <chiral flag>
0

> <version>
0

> <s_m_source_file>
/data/baiqing/PycharmProjects/Reinvent-master-3.2/result/LINK_invent/BTK/process_docking_weight1_custom_product_contain_oxygen_bond_distance_aromatic_linkinvent_7_9_3/rearranged_h_0002.sdf

> <i_m_source_file_index>
71

> <r_mmod_Potential_Energy-OPLS-2005>
2826.20043945312

> <r_mmod_Stretch_Energy-OPLS-2005>
1262.44714355469

> <r_mmod_Bend_Energy-OPLS-2005>
804.282165527344

> <r_mmod_Torsional_Energy-OPLS-2005>
219.274536132812

> <r_mmod_Improper_Torsional_Energy-OPLS-2005>
4.54312515258789

> <r_mmod_Van_der_Waal_Energy-OPLS-2005>
128.410491943359

> <r_mmod_Electrostatic_Energy-OPLS-2005>
-372.703125

> <r_mmod_Solvation_Energy-OPLS-2005>
-220.16291809082

> <b_mmod_Minimization_Converged-OPLS-2005>
0

> <r_mmod_RMS_Derivative-OPLS-2005>
5.85740661621094

$$$$
71
                    3D
 Structure written by MMmdl.
147155  0  0  1  0            999 V2000
  -30.4751  -15.1823   20.3805 C   0  0  0  0  0  0
  -30.4354  -12.7503   19.5208 C   0  0  0  0  0  0
  -29.5293  -12.5597   18.2802 C   0  0  0  0  0  0
  -28.0737  -12.3019   18.7063 C   0  0  0  0  0  0
  -27.6140  -13.2691   19.8262 C   0  0  2  0  0  0
  -28.6501  -13.4142   20.9608 C   0  0  0  0  0  0
  -25.2396  -13.8243   20.5741 C   0  0  0  0  0  0
  -24.1743  -13.0438   20.9256 C   0  0  0  0  0  0
  -24.6391  -11.6934   20.8765 C   0  0  0  0  0  0
  -23.9084  -10.4293   21.0410 C   0  0  0  0  0  0
  -24.3633   -9.4206   21.9185 C   0  0  0  0  0  0
  -23.6307   -8.2242   22.0750 C   0  0  0  0  0  0
  -22.4286   -8.0281   21.3544 C   0  0  0  0  0  0
  -21.9928   -9.0255   20.4643 C   0  0  0  0  0  0
  -22.7259  -10.2134   20.3055 C   0  0  0  0  0  0
  -21.6855   -6.0739   22.5281 C   0  0  0  0  0  0
  -21.4015   -6.5642   23.8214 C   0  0  0  0  0  0
  -21.3659   -5.6794   24.9175 C   0  0  0  0  0  0
  -21.6045   -4.3055   24.7226 C   0  0  0  0  0  0
  -21.8819   -3.8149   23.4346 C   0  0  0  0  0  0
  -21.9196   -4.6968   22.3404 C   0  0  0  0  0  0
  -22.7761  -13.5192   21.1912 C   0  0  0  0  0  0
  -22.1663   -4.2153   21.0981 F   0  0  0  0  0  0
  -21.5631   -3.4538   25.7738 F   0  0  0  0  0  0
  -29.8927  -13.8922   20.3375 N   0  0  0  0  0  0
  -26.2822  -12.9509   20.3229 N   0  0  0  0  0  0
  -25.9325  -11.6618   20.5732 N   0  0  0  0  0  0
  -22.0426  -12.8163   22.0464 N   0  0  0  0  0  0
  -25.4030  -15.1977   20.4173 N   0  0  0  0  0  0
  -31.6935  -15.1828   20.1597 O   0  0  0  0  0  0
  -21.6644   -6.8882   21.4241 O   0  0  0  0  0  0
  -22.3438  -14.5497   20.6759 O   0  0  0  0  0  0
  -24.6588  -31.8286   23.1761 C   0  0  0  0  0  0
  -25.9293  -32.4618   23.8201 C   0  0  1  0  0  0
  -27.2114  -26.9740   20.1745 C   0  0  0  0  0  0
  -25.5981  -33.8429   24.2108 N   0  0  0  0  0  0
  -23.4707  -30.4443   21.5237 C   0  0  2  0  0  0
  -24.9232  -28.8455   20.1093 C   0  0  0  0  0  0
  -22.7642  -29.4472   22.4790 C   0  0  0  0  0  0
  -18.0320  -28.1410   22.8475 C   0  0  0  0  0  0
  -24.1486  -36.7203   23.2645 C   0  0  0  0  0  0
  -26.0381  -30.6502   21.4006 C   0  0  0  0  0  0
  -26.1063  -29.2463   20.7427 C   0  0  0  0  0  0
  -27.2474  -28.3300   20.7549 C   0  0  0  0  0  0
  -26.0015  -26.7223   19.4877 C   0  0  0  0  0  0
  -24.8939  -27.6023   19.4623 C   0  0  0  0  0  0
  -23.7077  -29.7672   20.1472 C   0  0  0  0  0  0
  -25.4125  -36.2979   24.0306 C   0  0  1  0  0  0
  -20.5944  -28.3749   23.1193 C   0  0  2  0  0  0
  -20.6796  -26.9435   22.5401 C   0  0  0  0  0  0
  -19.5767  -26.6385   21.5213 C   0  0  0  0  0  0
  -18.1950  -26.7945   22.1627 C   0  0  0  0  0  0
  -19.1582  -28.8900   23.2826 C   0  0  0  0  0  0
  -18.9495  -30.1489   23.8861 C   0  0  0  0  0  0
  -17.6490  -30.6605   24.0555 C   0  0  0  0  0  0
  -25.9093  -34.9366   23.5024 C   0  0  0  0  0  0
  -16.5377  -29.9094   23.6348 C   0  0  0  0  0  0
  -16.7304  -28.6512   23.0375 C   0  0  0  0  0  0
  -26.4558  -31.6552   25.0712 C   0  0  0  0  0  0
  -25.3702  -31.3799   26.1381 C   0  0  0  0  0  0
  -27.0443  -30.2921   24.6420 C   0  0  0  0  0  0
  -27.6054  -32.4355   25.7514 C   0  0  0  0  0  0
  -27.5563  -37.1755   24.8468 C   0  0  0  0  0  0
  -21.4319  -29.3048   22.3543 N   0  0  0  0  0  0
  -26.4267  -37.3717   23.9420 N   0  0  0  0  0  0
  -24.7433  -30.9997   22.0872 N   0  0  0  0  0  0
  -23.4214  -28.8031   23.3007 O   0  0  0  0  0  0
  -28.1962  -25.8671   20.2637 O   0  0  0  0  0  0
  -26.5687  -34.8895   22.4609 O   0  0  0  0  0  0
  -23.5671  -32.1232   23.6885 O   0  0  0  0  0  0
  -28.2774  -20.1783   20.9076 C   0  0  0  0  0  0
  -30.1456  -20.7584   19.6963 C   0  0  0  0  0  0
  -27.8545  -21.6057   20.8710 C   0  0  0  0  0  0
  -29.7223  -22.1796   19.6571 C   0  0  0  0  0  0
  -29.4725  -19.6132   20.3050 C   0  0  0  0  0  0
  -28.5298  -22.7500   20.2537 C   0  0  0  0  0  0
  -30.1825  -18.0265   20.3361 C   0  0  0  0  0  0
  -27.8040  -24.3101   20.0193 C   0  0  0  0  0  0
  -29.7353  -16.4509   20.4631 N   0  0  0  0  0  0
  -31.4594  -12.9371   19.1947 H   0  0  0  0  0  0
  -30.4796  -11.8355   20.1142 H   0  0  0  0  0  0
  -29.8932  -11.7354   17.6652 H   0  0  0  0  0  0
  -29.5747  -13.4531   17.6556 H   0  0  0  0  0  0
  -28.0144  -11.2735   19.0644 H   0  0  0  0  0  0
  -27.4061  -12.3652   17.8463 H   0  0  0  0  0  0
  -27.5393  -14.2436   19.3423 H   0  0  0  0  0  0
  -28.7973  -12.4727   21.4919 H   0  0  0  0  0  0
  -28.3051  -14.1392   21.6999 H   0  0  0  0  0  0
  -25.2775   -9.5686   22.4766 H   0  0  0  0  0  0
  -24.0018   -7.4629   22.7465 H   0  0  0  0  0  0
  -21.0861   -8.8777   19.8943 H   0  0  0  0  0  0
  -22.3716  -10.9677   19.6168 H   0  0  0  0  0  0
  -21.2001   -7.6149   23.9719 H   0  0  0  0  0  0
  -21.1482   -6.0522   25.9080 H   0  0  0  0  0  0
  -22.0598   -2.7611   23.2844 H   0  0  0  0  0  0
  -22.4066  -11.9826   22.4836 H   0  0  0  0  0  0
  -21.1039  -13.1162   22.2684 H   0  0  0  0  0  0
  -24.6307  -15.8462   20.5268 H   0  0  0  0  0  0
  -26.2426  -15.6401   20.0678 H   0  0  0  0  0  0
  -26.7360  -32.5170   23.0915 H   0  0  0  0  0  0
  -25.0108  -33.9519   25.0247 H   0  0  0  0  0  0
  -22.7817  -31.2753   21.3586 H   0  0  0  0  0  0
  -23.3765  -35.9516   23.3288 H   0  0  0  0  0  0
  -24.3561  -36.8862   22.2063 H   0  0  0  0  0  0
  -23.7225  -37.6381   23.6704 H   0  0  0  0  0  0
  -26.2147  -31.3959   20.6243 H   0  0  0  0  0  0
  -26.8998  -30.7033   22.0539 H   0  0  0  0  0  0
  -28.1398  -28.6311   21.2848 H   0  0  0  0  0  0
  -25.8646  -25.7763   18.9864 H   0  0  0  0  0  0
  -23.9957  -27.2900   18.9472 H   0  0  0  0  0  0
  -23.8604  -30.5388   19.3918 H   0  0  0  0  0  0
  -22.8182  -29.2207   19.8291 H   0  0  0  0  0  0
  -25.1322  -36.1770   25.0795 H   0  0  0  0  0  0
  -21.0038  -28.3354   24.1314 H   0  0  0  0  0  0
  -20.5671  -26.2370   23.3639 H   0  0  0  0  0  0
  -21.6659  -26.7417   22.1202 H   0  0  0  0  0  0
  -19.6920  -25.6286   21.1269 H   0  0  0  0  0  0
  -19.6698  -27.3172   20.6723 H   0  0  0  0  0  0
  -17.4213  -26.6691   21.4036 H   0  0  0  0  0  0
  -18.0346  -26.0100   22.9037 H   0  0  0  0  0  0
  -19.7970  -30.7314   24.2214 H   0  0  0  0  0  0
  -17.5045  -31.6283   24.5161 H   0  0  0  0  0  0
  -15.5376  -30.2985   23.7697 H   0  0  0  0  0  0
  -15.8703  -28.0812   22.7124 H   0  0  0  0  0  0
  -24.5887  -30.7140   25.7706 H   0  0  0  0  0  0
  -24.8887  -32.3001   26.4697 H   0  0  0  0  0  0
  -25.7949  -30.9045   27.0232 H   0  0  0  0  0  0
  -26.3101  -29.6613   24.1393 H   0  0  0  0  0  0
  -27.3950  -29.7270   25.5066 H   0  0  0  0  0  0
  -27.9059  -30.4114   23.9849 H   0  0  0  0  0  0
  -27.2623  -33.3701   26.1969 H   0  0  0  0  0  0
  -28.3933  -32.6842   25.0392 H   0  0  0  0  0  0
  -28.0644  -31.8559   26.5535 H   0  0  0  0  0  0
  -28.2564  -38.0066   24.7527 H   0  0  0  0  0  0
  -28.1075  -36.2596   24.6281 H   0  0  0  0  0  0
  -27.2284  -37.1386   25.8872 H   0  0  0  0  0  0
  -20.9555  -29.8749   21.6692 H   0  0  0  0  0  0
  -26.0113  -38.2769   24.1454 H   0  0  0  0  0  0
  -27.6291  -19.4927   21.4361 H   0  0  0  0  0  0
  -31.0814  -20.5404   19.1999 H   0  0  0  0  0  0
  -26.9033  -21.8209   21.3381 H   0  0  0  0  0  0
  -30.3513  -22.8578   19.0974 H   0  0  0  0  0  0
  -30.9305  -18.1209   21.1241 H   0  0  0  0  0  0
  -30.7794  -18.0194   19.4234 H   0  0  0  0  0  0
  -26.8452  -24.2068   20.5276 H   0  0  0  0  0  0
  -27.5507  -24.2802   18.9596 H   0  0  0  0  0  0
  -28.7435  -16.3219   20.5965 H   0  0  0  0  0  0
  1 25  1  0  0  0
  1 30  2  0  0  0
  1 79  1  0  0  0
  2  3  1  0  0  0
  2 25  1  0  0  0
  2 80  1  0  0  0
  2 81  1  0  0  0
  3  4  1  0  0  0
  3 82  1  0  0  0
  3 83  1  0  0  0
  4  5  1  0  0  0
  4 84  1  0  0  0
  4 85  1  0  0  0
  5  6  1  0  0  0
  5 26  1  0  0  0
  5 86  1  0  0  0
  6 25  1  0  0  0
  6 87  1  0  0  0
  6 88  1  0  0  0
  7  8  2  0  0  0
  7 26  1  0  0  0
  7 29  1  0  0  0
  8  9  1  0  0  0
  8 22  1  0  0  0
  9 10  1  0  0  0
  9 27  2  0  0  0
 10 11  2  0  0  0
 10 15  1  0  0  0
 11 12  1  0  0  0
 11 89  1  0  0  0
 12 13  2  0  0  0
 12 90  1  0  0  0
 13 14  1  0  0  0
 13 31  1  0  0  0
 14 15  2  0  0  0
 14 91  1  0  0  0
 15 92  1  0  0  0
 16 17  2  0  0  0
 16 21  1  0  0  0
 16 31  1  0  0  0
 17 18  1  0  0  0
 17 93  1  0  0  0
 18 19  2  0  0  0
 18 94  1  0  0  0
 19 20  1  0  0  0
 19 24  1  0  0  0
 20 21  2  0  0  0
 20 95  1  0  0  0
 21 23  1  0  0  0
 22 28  1  0  0  0
 22 32  2  0  0  0
 26 27  1  0  0  0
 28 96  1  0  0  0
 28 97  1  0  0  0
 29 98  1  0  0  0
 29 99  1  0  0  0
 33 34  1  0  0  0
 33 66  1  0  0  0
 33 70  2  0  0  0
 34 36  1  0  0  0
 34 59  1  0  0  0
 34100  1  0  0  0
 35 44  2  0  0  0
 35 45  1  0  0  0
 35 68  1  0  0  0
 36 56  1  0  0  0
 36101  1  0  0  0
 37 39  1  0  0  0
 37 47  1  0  0  0
 37 66  1  0  0  0
 37102  1  0  0  0
 38 43  2  0  0  0
 38 46  1  0  0  0
 38 47  1  0  0  0
 39 64  1  0  0  0
 39 67  2  0  0  0
 40 52  1  0  0  0
 40 53  2  0  0  0
 40 58  1  0  0  0
 41103  1  0  0  0
 41104  1  0  0  0
 41105  1  0  0  0
 41 48  1  0  0  0
 42 43  1  0  0  0
 42 66  1  0  0  0
 42106  1  0  0  0
 42107  1  0  0  0
 43 44  1  0  0  0
 44108  1  0  0  0
 45 46  2  0  0  0
 45109  1  0  0  0
 46110  1  0  0  0
 47111  1  0  0  0
 47112  1  0  0  0
 48 56  1  0  0  0
 48 65  1  0  0  0
 48113  1  0  0  0
 49 50  1  0  0  0
 49 53  1  0  0  0
 49 64  1  0  0  0
 49114  1  0  0  0
 50 51  1  0  0  0
 50115  1  0  0  0
 50116  1  0  0  0
 51 52  1  0  0  0
 51117  1  0  0  0
 51118  1  0  0  0
 52119  1  0  0  0
 52120  1  0  0  0
 53 54  1  0  0  0
 54 55  2  0  0  0
 54121  1  0  0  0
 55 57  1  0  0  0
 55122  1  0  0  0
 56 69  2  0  0  0
 57 58  2  0  0  0
 57123  1  0  0  0
 58124  1  0  0  0
 59 60  1  0  0  0
 59 61  1  0  0  0
 59 62  1  0  0  0
 60125  1  0  0  0
 60126  1  0  0  0
 60127  1  0  0  0
 61128  1  0  0  0
 61129  1  0  0  0
 61130  1  0  0  0
 62131  1  0  0  0
 62132  1  0  0  0
 62133  1  0  0  0
 63 65  1  0  0  0
 63134  1  0  0  0
 63135  1  0  0  0
 63136  1  0  0  0
 64137  1  0  0  0
 65138  1  0  0  0
 68 78  1  0  0  0
 71 73  2  0  0  0
 71 75  1  0  0  0
 71139  1  0  0  0
 72 74  1  0  0  0
 72 75  2  0  0  0
 72140  1  0  0  0
 73 76  1  0  0  0
 73141  1  0  0  0
 74 76  2  0  0  0
 74142  1  0  0  0
 75 77  1  0  0  0
 76 78  1  0  0  0
 77 79  1  0  0  0
 77143  1  0  0  0
 77144  1  0  0  0
 78145  1  0  0  0
 78146  1  0  0  0
 79147  1  0  0  0
M  ISO  4   1 100  68 101  78 101  79 100
M  END
> <chiral flag>
0

> <version>
0

> <s_m_source_file>
/data/baiqing/PycharmProjects/Reinvent-master-3.2/result/LINK_invent/BTK/process_docking_weight1_custom_product_contain_oxygen_bond_distance_aromatic_linkinvent_7_9_3/rearranged_h_0002.sdf

> <i_m_source_file_index>
72

> <r_mmod_Potential_Energy-OPLS-2005>
1015.4599609375

> <r_mmod_Stretch_Energy-OPLS-2005>
443.456787109375

> <r_mmod_Bend_Energy-OPLS-2005>
422.297058105469

> <r_mmod_Torsional_Energy-OPLS-2005>
215.021911621094

> <r_mmod_Improper_Torsional_Energy-OPLS-2005>
7.18429374694824

> <r_mmod_Van_der_Waal_Energy-OPLS-2005>
133.087112426758

> <r_mmod_Electrostatic_Energy-OPLS-2005>
-379.332244873047

> <r_mmod_Solvation_Energy-OPLS-2005>
-213.699493408203

> <b_mmod_Minimization_Converged-OPLS-2005>
0

> <r_mmod_RMS_Derivative-OPLS-2005>
0.623550474643707

$$$$
72
                    3D
 Structure written by MMmdl.
159167  0  0  1  0            999 V2000
  -30.6245  -14.7177   20.4593 C   0  0  0  0  0  0
  -30.4266  -12.4362   19.4665 C   0  0  0  0  0  0
  -29.5066  -12.5069   18.2290 C   0  0  0  0  0  0
  -28.0303  -12.3399   18.6387 C   0  0  0  0  0  0
  -27.6413  -13.2317   19.8487 C   0  0  2  0  0  0
  -28.6859  -13.1559   20.9826 C   0  0  0  0  0  0
  -25.2493  -13.8196   20.5675 C   0  0  0  0  0  0
  -24.1791  -13.0441   20.9211 C   0  0  0  0  0  0
  -24.6394  -11.6923   20.8737 C   0  0  0  0  0  0
  -23.9071  -10.4297   21.0408 C   0  0  0  0  0  0
  -24.3626   -9.4213   21.9185 C   0  0  0  0  0  0
  -23.6306   -8.2240   22.0749 C   0  0  0  0  0  0
  -22.4285   -8.0282   21.3536 C   0  0  0  0  0  0
  -21.9917   -9.0257   20.4647 C   0  0  0  0  0  0
  -22.7237  -10.2142   20.3055 C   0  0  0  0  0  0
  -21.6854   -6.0740   22.5280 C   0  0  0  0  0  0
  -21.4019   -6.5639   23.8216 C   0  0  0  0  0  0
  -21.3656   -5.6787   24.9176 C   0  0  0  0  0  0
  -21.6040   -4.3052   24.7221 C   0  0  0  0  0  0
  -21.8816   -3.8148   23.4341 C   0  0  0  0  0  0
  -21.9192   -4.6970   22.3399 C   0  0  0  0  0  0
  -22.7806  -13.5222   21.1874 C   0  0  0  0  0  0
  -22.1655   -4.2154   21.0976 F   0  0  0  0  0  0
  -21.5640   -3.4534   25.7733 F   0  0  0  0  0  0
  -29.9884  -13.4991   20.3995 N   0  0  0  0  0  0
  -26.2932  -12.9409   20.3265 N   0  0  0  0  0  0
  -25.9321  -11.6547   20.5732 N   0  0  0  0  0  0
  -22.0453  -12.8211   22.0431 N   0  0  0  0  0  0
  -25.4154  -15.1919   20.4063 N   0  0  0  0  0  0
  -31.8166  -14.7892   20.1518 O   0  0  0  0  0  0
  -21.6636   -6.8886   21.4241 O   0  0  0  0  0  0
  -22.3480  -14.5528   20.6722 O   0  0  0  0  0  0
  -24.6293  -31.8566   23.1974 C   0  0  0  0  0  0
  -25.9120  -32.4760   23.8330 C   0  0  1  0  0  0
  -27.2231  -27.2795   20.1382 C   0  0  0  0  0  0
  -25.5921  -33.8563   24.2259 N   0  0  0  0  0  0
  -23.4259  -30.4769   21.5405 C   0  0  2  0  0  0
  -24.8731  -28.9169   20.1175 C   0  0  0  0  0  0
  -22.7499  -29.4606   22.4918 C   0  0  0  0  0  0
  -18.0292  -28.1380   22.8479 C   0  0  0  0  0  0
  -24.1488  -36.7285   23.2641 C   0  0  0  0  0  0
  -25.9691  -30.7760   21.3734 C   0  0  0  0  0  0
  -26.0437  -29.3977   20.7196 C   0  0  0  0  0  0
  -27.2251  -28.5928   20.7121 C   0  0  0  0  0  0
  -26.0326  -26.8524   19.5169 C   0  0  0  0  0  0
  -24.8708  -27.6513   19.5065 C   0  0  0  0  0  0
  -23.6442  -29.8048   20.1585 C   0  0  0  0  0  0
  -25.4115  -36.3078   24.0331 C   0  0  1  0  0  0
  -20.5895  -28.3694   23.1268 C   0  0  2  0  0  0
  -20.6774  -26.9408   22.5409 C   0  0  0  0  0  0
  -19.5750  -26.6380   21.5208 C   0  0  0  0  0  0
  -18.1933  -26.7923   22.1621 C   0  0  0  0  0  0
  -19.1546  -28.8855   23.2867 C   0  0  0  0  0  0
  -18.9467  -30.1456   23.8883 C   0  0  0  0  0  0
  -17.6468  -30.6581   24.0562 C   0  0  0  0  0  0
  -25.9055  -34.9448   23.5098 C   0  0  0  0  0  0
  -16.5359  -29.9079   23.6327 C   0  0  0  0  0  0
  -16.7282  -28.6499   23.0344 C   0  0  0  0  0  0
  -26.4489  -31.6584   25.0721 C   0  0  0  0  0  0
  -25.3712  -31.3736   26.1445 C   0  0  0  0  0  0
  -27.0342  -30.3006   24.6201 C   0  0  0  0  0  0
  -27.6043  -32.4331   25.7491 C   0  0  0  0  0  0
  -27.5580  -37.1799   24.8463 C   0  0  0  0  0  0
  -21.4210  -29.3044   22.3663 N   0  0  0  0  0  0
  -26.4290  -37.3778   23.9408 N   0  0  0  0  0  0
  -24.6937  -31.0549   22.0938 N   0  0  0  0  0  0
  -23.4208  -28.8147   23.3014 O   0  0  0  0  0  0
  -28.3357  -26.4197   20.1289 O   0  0  0  0  0  0
  -26.5638  -34.8921   22.4677 O   0  0  0  0  0  0
  -23.5445  -32.1380   23.7272 O   0  0  0  0  0  0
  -31.0046  -20.0856   20.5972 C   0  0  0  0  0  0
  -29.2749  -18.3912   20.3759 C   0  0  0  0  0  0
  -31.5449  -17.7054   20.8797 C   0  0  0  0  0  0
  -29.6432  -19.8050   20.3531 C   0  0  0  0  0  0
  -31.9438  -19.0608   20.8551 C   0  0  0  0  0  0
  -30.2133  -17.3063   20.6190 C   0  0  0  0  0  0
  -27.2094  -20.6253   20.0184 C   0  0  0  0  0  0
  -28.4947  -23.6977   19.8682 C   0  0  0  0  0  0
  -28.2240  -25.0462   20.7194 C   0  0  0  0  0  0
  -28.6918  -21.0290   19.9458 C   0  0  1  0  0  0
  -33.4036  -19.4147   21.1146 C   0  0  0  0  0  0
  -29.8503  -15.8612   20.6300 N   0  0  0  0  0  0
  -28.8741  -22.3996   20.6227 N   0  3  0  0  0  0
  -33.7317  -20.5749   20.5431 F   0  0  0  0  0  0
  -33.6076  -19.5160   22.4273 F   0  0  0  0  0  0
  -34.2152  -18.4751   20.6286 F   0  0  0  0  0  0
  -31.4690  -12.5510   19.1658 H   0  0  0  0  0  0
  -30.3616  -11.4566   19.9425 H   0  0  0  0  0  0
  -29.7850  -11.7403   17.5036 H   0  0  0  0  0  0
  -29.6407  -13.4654   17.7243 H   0  0  0  0  0  0
  -27.8750  -11.2903   18.8875 H   0  0  0  0  0  0
  -27.3771  -12.5494   17.7905 H   0  0  0  0  0  0
  -27.6394  -14.2550   19.4728 H   0  0  0  0  0  0
  -28.7139  -12.1567   21.4204 H   0  0  0  0  0  0
  -28.4271  -13.8374   21.7948 H   0  0  0  0  0  0
  -25.2785   -9.5695   22.4750 H   0  0  0  0  0  0
  -24.0026   -7.4630   22.7457 H   0  0  0  0  0  0
  -21.0854   -8.8775   19.8951 H   0  0  0  0  0  0
  -22.3704  -10.9677   19.6159 H   0  0  0  0  0  0
  -21.2007   -7.6150   23.9727 H   0  0  0  0  0  0
  -21.1482   -6.0513   25.9079 H   0  0  0  0  0  0
  -22.0601   -2.7611   23.2829 H   0  0  0  0  0  0
  -22.4068  -11.9884   22.4838 H   0  0  0  0  0  0
  -21.1063  -13.1220   22.2635 H   0  0  0  0  0  0
  -24.6408  -15.8385   20.5144 H   0  0  0  0  0  0
  -26.2519  -15.6345   20.0488 H   0  0  0  0  0  0
  -26.7192  -32.5412   23.1078 H   0  0  0  0  0  0
  -25.0061  -33.9709   25.0396 H   0  0  0  0  0  0
  -22.7211  -31.2976   21.3912 H   0  0  0  0  0  0
  -23.3759  -35.9606   23.3296 H   0  0  0  0  0  0
  -24.3579  -36.8916   22.2055 H   0  0  0  0  0  0
  -23.7225  -37.6477   23.6673 H   0  0  0  0  0  0
  -26.1075  -31.5362   20.6033 H   0  0  0  0  0  0
  -26.8467  -30.8243   22.0070 H   0  0  0  0  0  0
  -28.1277  -28.9616   21.1794 H   0  0  0  0  0  0
  -25.9967  -25.8828   19.0409 H   0  0  0  0  0  0
  -23.9732  -27.2763   19.0341 H   0  0  0  0  0  0
  -23.7717  -30.5782   19.3998 H   0  0  0  0  0  0
  -22.7620  -29.2383   19.8539 H   0  0  0  0  0  0
  -25.1291  -36.1934   25.0824 H   0  0  0  0  0  0
  -20.9986  -28.3269   24.1390 H   0  0  0  0  0  0
  -20.5657  -26.2308   23.3617 H   0  0  0  0  0  0
  -21.6645  -26.7418   22.1216 H   0  0  0  0  0  0
  -19.6910  -25.6289   21.1241 H   0  0  0  0  0  0
  -19.6683  -27.3192   20.6736 H   0  0  0  0  0  0
  -17.4201  -26.6672   21.4024 H   0  0  0  0  0  0
  -18.0326  -26.0066   22.9020 H   0  0  0  0  0  0
  -19.7949  -30.7274   24.2241 H   0  0  0  0  0  0
  -17.5025  -31.6255   24.5175 H   0  0  0  0  0  0
  -15.5358  -30.2975   23.7655 H   0  0  0  0  0  0
  -15.8684  -28.0820   22.7049 H   0  0  0  0  0  0
  -24.5881  -30.7092   25.7775 H   0  0  0  0  0  0
  -24.8910  -32.2907   26.4870 H   0  0  0  0  0  0
  -25.8032  -30.8916   27.0223 H   0  0  0  0  0  0
  -26.2930  -29.6748   24.1217 H   0  0  0  0  0  0
  -27.4019  -29.7277   25.4722 H   0  0  0  0  0  0
  -27.8806  -30.4289   23.9449 H   0  0  0  0  0  0
  -27.2654  -33.3641   26.2048 H   0  0  0  0  0  0
  -28.3860  -32.6875   25.0321 H   0  0  0  0  0  0
  -28.0702  -31.8469   26.5421 H   0  0  0  0  0  0
  -28.2596  -38.0099   24.7523 H   0  0  0  0  0  0
  -28.1084  -36.2634   24.6279 H   0  0  0  0  0  0
  -27.2307  -37.1431   25.8868 H   0  0  0  0  0  0
  -20.9394  -29.8780   21.6878 H   0  0  0  0  0  0
  -26.0174  -38.2856   24.1408 H   0  0  0  0  0  0
  -31.3583  -21.1052   20.5645 H   0  0  0  0  0  0
  -28.2506  -18.1197   20.1661 H   0  0  0  0  0  0
  -32.3038  -16.9736   21.1065 H   0  0  0  0  0  0
  -26.9936  -19.7881   19.3561 H   0  0  0  0  0  0
  -26.5524  -21.4393   19.7145 H   0  0  0  0  0  0
  -26.9312  -20.3319   21.0306 H   0  0  0  0  0  0
  -29.2922  -23.8980   19.1521 H   0  0  0  0  0  0
  -27.6051  -23.5110   19.2682 H   0  0  0  0  0  0
  -28.9429  -25.0521   21.5378 H   0  0  0  0  0  0
  -27.2573  -24.9480   21.2151 H   0  0  0  0  0  0
  -28.9245  -21.1985   18.8934 H   0  0  0  0  0  0
  -28.8663  -15.6669   20.7300 H   0  0  0  0  0  0
  -28.3584  -22.3607   21.4878 H   0  0  0  0  0  0
  -29.8436  -22.4851   20.8798 H   0  0  0  0  0  0
  1 25  1  0  0  0
  1 30  2  0  0  0
  1 82  1  0  0  0
  2  3  1  0  0  0
  2 25  1  0  0  0
  2 87  1  0  0  0
  2 88  1  0  0  0
  3  4  1  0  0  0
  3 89  1  0  0  0
  3 90  1  0  0  0
  4  5  1  0  0  0
  4 91  1  0  0  0
  4 92  1  0  0  0
  5  6  1  0  0  0
  5 26  1  0  0  0
  5 93  1  0  0  0
  6 25  1  0  0  0
  6 94  1  0  0  0
  6 95  1  0  0  0
  7  8  2  0  0  0
  7 26  1  0  0  0
  7 29  1  0  0  0
  8  9  1  0  0  0
  8 22  1  0  0  0
  9 10  1  0  0  0
  9 27  2  0  0  0
 10 11  2  0  0  0
 10 15  1  0  0  0
 11 12  1  0  0  0
 11 96  1  0  0  0
 12 13  2  0  0  0
 12 97  1  0  0  0
 13 14  1  0  0  0
 13 31  1  0  0  0
 14 15  2  0  0  0
 14 98  1  0  0  0
 15 99  1  0  0  0
 16 17  2  0  0  0
 16 21  1  0  0  0
 16 31  1  0  0  0
 17 18  1  0  0  0
 17100  1  0  0  0
 18 19  2  0  0  0
 18101  1  0  0  0
 19 20  1  0  0  0
 19 24  1  0  0  0
 20 21  2  0  0  0
 20102  1  0  0  0
 21 23  1  0  0  0
 22 28  1  0  0  0
 22 32  2  0  0  0
 26 27  1  0  0  0
 28103  1  0  0  0
 28104  1  0  0  0
 29105  1  0  0  0
 29106  1  0  0  0
 33 34  1  0  0  0
 33 66  1  0  0  0
 33 70  2  0  0  0
 34 36  1  0  0  0
 34 59  1  0  0  0
 34107  1  0  0  0
 35 44  2  0  0  0
 35 45  1  0  0  0
 35 68  1  0  0  0
 36 56  1  0  0  0
 36108  1  0  0  0
 37 39  1  0  0  0
 37 47  1  0  0  0
 37 66  1  0  0  0
 37109  1  0  0  0
 38 43  2  0  0  0
 38 46  1  0  0  0
 38 47  1  0  0  0
 39 64  1  0  0  0
 39 67  2  0  0  0
 40 52  1  0  0  0
 40 53  2  0  0  0
 40 58  1  0  0  0
 41110  1  0  0  0
 41111  1  0  0  0
 41112  1  0  0  0
 41 48  1  0  0  0
 42 43  1  0  0  0
 42 66  1  0  0  0
 42113  1  0  0  0
 42114  1  0  0  0
 43 44  1  0  0  0
 44115  1  0  0  0
 45 46  2  0  0  0
 45116  1  0  0  0
 46117  1  0  0  0
 47118  1  0  0  0
 47119  1  0  0  0
 48 56  1  0  0  0
 48 65  1  0  0  0
 48120  1  0  0  0
 49 50  1  0  0  0
 49 53  1  0  0  0
 49 64  1  0  0  0
 49121  1  0  0  0
 50 51  1  0  0  0
 50122  1  0  0  0
 50123  1  0  0  0
 51 52  1  0  0  0
 51124  1  0  0  0
 51125  1  0  0  0
 52126  1  0  0  0
 52127  1  0  0  0
 53 54  1  0  0  0
 54 55  2  0  0  0
 54128  1  0  0  0
 55 57  1  0  0  0
 55129  1  0  0  0
 56 69  2  0  0  0
 57 58  2  0  0  0
 57130  1  0  0  0
 58131  1  0  0  0
 59 60  1  0  0  0
 59 61  1  0  0  0
 59 62  1  0  0  0
 60132  1  0  0  0
 60133  1  0  0  0
 60134  1  0  0  0
 61135  1  0  0  0
 61136  1  0  0  0
 61137  1  0  0  0
 62138  1  0  0  0
 62139  1  0  0  0
 62140  1  0  0  0
 63 65  1  0  0  0
 63141  1  0  0  0
 63142  1  0  0  0
 63143  1  0  0  0
 64144  1  0  0  0
 65145  1  0  0  0
 68 79  1  0  0  0
 71 74  2  0  0  0
 71 75  1  0  0  0
 71146  1  0  0  0
 72 74  1  0  0  0
 72 76  2  0  0  0
 72147  1  0  0  0
 73 75  2  0  0  0
 73 76  1  0  0  0
 73148  1  0  0  0
 74 80  1  0  0  0
 75 81  1  0  0  0
 76 82  1  0  0  0
 77149  1  0  0  0
 77150  1  0  0  0
 77151  1  0  0  0
 77 80  1  0  0  0
 78 79  1  0  0  0
 78 83  1  0  0  0
 78152  1  0  0  0
 78153  1  0  0  0
 79154  1  0  0  0
 79155  1  0  0  0
 80 83  1  0  0  0
 80156  1  0  0  0
 81 84  1  0  0  0
 81 85  1  0  0  0
 81 86  1  0  0  0
 82157  1  0  0  0
 83158  1  0  0  0
 83159  1  0  0  0
M  CHG  1  83   1
M  ISO  4   1 100  68 101  79 101  82 100
M  END
> <chiral flag>
0

> <version>
0

> <s_m_source_file>
/data/baiqing/PycharmProjects/Reinvent-master-3.2/result/LINK_invent/BTK/process_docking_weight1_custom_product_contain_oxygen_bond_distance_aromatic_linkinvent_7_9_3/rearranged_h_0002.sdf

> <i_m_source_file_index>
73

> <r_mmod_Potential_Energy-OPLS-2005>
-9.73778343200684

> <r_mmod_Stretch_Energy-OPLS-2005>
120.073791503906

> <r_mmod_Bend_Energy-OPLS-2005>
156.915100097656

> <r_mmod_Torsional_Energy-OPLS-2005>
238.179321289062

> <r_mmod_Improper_Torsional_Energy-OPLS-2005>
5.89067268371582

> <r_mmod_Van_der_Waal_Energy-OPLS-2005>
139.723709106445

> <r_mmod_Electrostatic_Energy-OPLS-2005>
-267.528137207031

> <r_mmod_Solvation_Energy-OPLS-2005>
-474.622467041016

> <b_mmod_Minimization_Converged-OPLS-2005>
0

> <r_mmod_RMS_Derivative-OPLS-2005>
1.62708854675293

$$$$
73
                    3D
 Structure written by MMmdl.
149157  0  0  1  0            999 V2000
  -30.3022  -15.5729   20.3433 C   0  0  0  0  0  0
  -30.4352  -13.0313   19.5452 C   0  0  0  0  0  0
  -29.5537  -12.6448   18.3226 C   0  0  0  0  0  0
  -28.1207  -12.3002   18.7588 C   0  0  0  0  0  0
  -27.6024  -13.2986   19.8186 C   0  0  2  0  0  0
  -28.6207  -13.5923   20.9446 C   0  0  0  0  0  0
  -25.2336  -13.8243   20.5728 C   0  0  0  0  0  0
  -24.1747  -13.0420   20.9343 C   0  0  0  0  0  0
  -24.6434  -11.6929   20.8824 C   0  0  0  0  0  0
  -23.9123  -10.4284   21.0431 C   0  0  0  0  0  0
  -24.3654   -9.4188   21.9201 C   0  0  0  0  0  0
  -23.6311   -8.2232   22.0760 C   0  0  0  0  0  0
  -22.4293   -8.0283   21.3547 C   0  0  0  0  0  0
  -21.9946   -9.0266   20.4650 C   0  0  0  0  0  0
  -22.7294  -10.2137   20.3069 C   0  0  0  0  0  0
  -21.6855   -6.0739   22.5278 C   0  0  0  0  0  0
  -21.4015   -6.5641   23.8212 C   0  0  0  0  0  0
  -21.3659   -5.6793   24.9173 C   0  0  0  0  0  0
  -21.6044   -4.3056   24.7223 C   0  0  0  0  0  0
  -21.8818   -3.8149   23.4344 C   0  0  0  0  0  0
  -21.9193   -4.6966   22.3400 C   0  0  0  0  0  0
  -22.7760  -13.5171   21.1932 C   0  0  0  0  0  0
  -22.1662   -4.2152   21.0978 F   0  0  0  0  0  0
  -21.5628   -3.4539   25.7736 F   0  0  0  0  0  0
  -29.8088  -14.2011   20.3049 N   0  0  0  0  0  0
  -26.2799  -12.9572   20.3234 N   0  0  0  0  0  0
  -25.9378  -11.6662   20.5752 N   0  0  0  0  0  0
  -22.0374  -12.8167   22.0454 N   0  0  0  0  0  0
  -25.3796  -15.1954   20.3769 N   0  0  0  0  0  0
  -31.5312  -15.5606   20.1415 O   0  0  0  0  0  0
  -21.6644   -6.8887   21.4242 O   0  0  0  0  0  0
  -22.3516  -14.5493   20.6743 O   0  0  0  0  0  0
  -24.6819  -31.8031   23.1556 C   0  0  0  0  0  0
  -25.9410  -32.4485   23.8090 C   0  0  1  0  0  0
  -27.2284  -26.7263   20.2094 C   0  0  0  0  0  0
  -25.5998  -33.8309   24.1974 N   0  0  0  0  0  0
  -23.5076  -30.4071   21.5087 C   0  0  2  0  0  0
  -24.9669  -28.7565   20.1198 C   0  0  0  0  0  0
  -22.7762  -29.4331   22.4719 C   0  0  0  0  0  0
  -18.0338  -28.1421   22.8456 C   0  0  0  0  0  0
  -24.1496  -36.7161   23.2651 C   0  0  0  0  0  0
  -26.0882  -30.5419   21.4209 C   0  0  0  0  0  0
  -26.1547  -29.1090   20.7725 C   0  0  0  0  0  0
  -27.2698  -28.1194   20.7934 C   0  0  0  0  0  0
  -26.0091  -26.5866   19.4968 C   0  0  0  0  0  0
  -24.9312  -27.5185   19.4596 C   0  0  0  0  0  0
  -23.7622  -29.7086   20.1429 C   0  0  0  0  0  0
  -25.4144  -36.2906   24.0284 C   0  0  1  0  0  0
  -20.5974  -28.3781   23.1144 C   0  0  2  0  0  0
  -20.6806  -26.9441   22.5402 C   0  0  0  0  0  0
  -19.5781  -26.6371   21.5216 C   0  0  0  0  0  0
  -18.1964  -26.7949   22.1620 C   0  0  0  0  0  0
  -19.1604  -28.8925   23.2781 C   0  0  0  0  0  0
  -18.9509  -30.1508   23.8826 C   0  0  0  0  0  0
  -17.6499  -30.6603   24.0550 C   0  0  0  0  0  0
  -25.9122  -34.9294   23.4963 C   0  0  0  0  0  0
  -16.5389  -29.9085   23.6350 C   0  0  0  0  0  0
  -16.7318  -28.6507   23.0366 C   0  0  0  0  0  0
  -26.4594  -31.6509   25.0702 C   0  0  0  0  0  0
  -25.3663  -31.3825   26.1319 C   0  0  0  0  0  0
  -27.0521  -30.2845   24.6596 C   0  0  0  0  0  0
  -27.6047  -32.4365   25.7516 C   0  0  0  0  0  0
  -27.5566  -37.1738   24.8465 C   0  0  0  0  0  0
  -21.4411  -29.3032   22.3467 N   0  0  0  0  0  0
  -26.4273  -37.3663   23.9406 N   0  0  0  0  0  0
  -24.7822  -30.9496   22.0807 N   0  0  0  0  0  0
  -23.4215  -28.7919   23.3046 O   0  0  0  0  0  0
  -28.1680  -25.4919   20.2556 O   0  0  0  0  0  0
  -26.5756  -34.8864   22.4576 O   0  0  0  0  0  0
  -23.5841  -32.1097   23.6517 O   0  0  0  0  0  0
  -29.7838  -21.2848   19.9967 C   0  0  0  0  0  0
  -30.1133  -19.7741   20.0199 C   0  0  0  0  0  0
  -27.7598  -20.8301   20.7512 C   0  0  0  0  0  0
  -28.5336  -22.0333   20.3533 C   0  0  0  0  0  0
  -28.0583  -19.3384   20.7879 C   0  0  0  0  0  0
  -29.2883  -18.5824   20.4110 C   0  0  0  0  0  0
  -27.7849  -23.7131   20.3507 C   0  0  0  0  0  0
  -26.8858  -18.5138   21.3120 C   0  0  0  0  0  0
  -29.4555  -16.8655   20.4451 N   0  0  0  0  0  0
  -25.8070  -18.4157   20.3195 N   0  3  0  0  0  0
  -26.5657  -23.5764   20.4755 O   0  0  0  0  0  0
  -31.4321  -13.2920   19.1881 H   0  0  0  0  0  0
  -30.5839  -12.1723   20.2017 H   0  0  0  0  0  0
  -29.9954  -11.8068   17.7817 H   0  0  0  0  0  0
  -29.5271  -13.4816   17.6231 H   0  0  0  0  0  0
  -28.1337  -11.2952   19.1824 H   0  0  0  0  0  0
  -27.4525  -12.2637   17.8975 H   0  0  0  0  0  0
  -27.4799  -14.2323   19.2687 H   0  0  0  0  0  0
  -28.8630  -12.6942   21.5150 H   0  0  0  0  0  0
  -28.1972  -14.3025   21.6564 H   0  0  0  0  0  0
  -25.2792   -9.5652   22.4790 H   0  0  0  0  0  0
  -24.0008   -7.4617   22.7479 H   0  0  0  0  0  0
  -21.0878   -8.8800   19.8951 H   0  0  0  0  0  0
  -22.3760  -10.9685   19.6185 H   0  0  0  0  0  0
  -21.2009   -7.6149   23.9716 H   0  0  0  0  0  0
  -21.1481   -6.0523   25.9076 H   0  0  0  0  0  0
  -22.0597   -2.7611   23.2843 H   0  0  0  0  0  0
  -22.3974  -11.9833   22.4864 H   0  0  0  0  0  0
  -21.0981  -13.1189   22.2615 H   0  0  0  0  0  0
  -24.4595  -15.5899   20.2131 H   0  0  0  0  0  0
  -26.0035  -15.3807   19.6027 H   0  0  0  0  0  0
  -26.7492  -32.4966   23.0803 H   0  0  0  0  0  0
  -25.0064  -33.9356   25.0071 H   0  0  0  0  0  0
  -22.8318  -31.2442   21.3214 H   0  0  0  0  0  0
  -23.3775  -35.9472   23.3266 H   0  0  0  0  0  0
  -24.3564  -36.8867   22.2075 H   0  0  0  0  0  0
  -23.7239  -37.6322   23.6755 H   0  0  0  0  0  0
  -26.2905  -31.2677   20.6321 H   0  0  0  0  0  0
  -26.9395  -30.6093   22.0858 H   0  0  0  0  0  0
  -28.1615  -28.3931   21.3392 H   0  0  0  0  0  0
  -25.8461  -25.6525   18.9791 H   0  0  0  0  0  0
  -24.0369  -27.2399   18.9193 H   0  0  0  0  0  0
  -23.9369  -30.4707   19.3826 H   0  0  0  0  0  0
  -22.8680  -29.1744   19.8170 H   0  0  0  0  0  0
  -25.1352  -36.1675   25.0775 H   0  0  0  0  0  0
  -21.0057  -28.3405   24.1270 H   0  0  0  0  0  0
  -20.5671  -26.2405   23.3664 H   0  0  0  0  0  0
  -21.6668  -26.7385   22.1220 H   0  0  0  0  0  0
  -19.6936  -25.6263   21.1293 H   0  0  0  0  0  0
  -19.6724  -27.3142   20.6715 H   0  0  0  0  0  0
  -17.4233  -26.6691   21.4023 H   0  0  0  0  0  0
  -18.0352  -26.0108   22.9032 H   0  0  0  0  0  0
  -19.7984  -30.7344   24.2165 H   0  0  0  0  0  0
  -17.5048  -31.6276   24.5167 H   0  0  0  0  0  0
  -15.5385  -30.2963   23.7714 H   0  0  0  0  0  0
  -15.8720  -28.0801   22.7122 H   0  0  0  0  0  0
  -24.5871  -30.7148   25.7623 H   0  0  0  0  0  0
  -24.8825  -32.3047   26.4547 H   0  0  0  0  0  0
  -25.7843  -30.9121   27.0228 H   0  0  0  0  0  0
  -26.3236  -29.6464   24.1583 H   0  0  0  0  0  0
  -27.3941  -29.7288   25.5337 H   0  0  0  0  0  0
  -27.9224  -30.3968   24.0128 H   0  0  0  0  0  0
  -27.2589  -33.3735   26.1896 H   0  0  0  0  0  0
  -28.3957  -32.6818   25.0417 H   0  0  0  0  0  0
  -28.0605  -31.8628   26.5595 H   0  0  0  0  0  0
  -28.2553  -38.0061   24.7512 H   0  0  0  0  0  0
  -28.1091  -36.2584   24.6294 H   0  0  0  0  0  0
  -27.2280  -37.1376   25.8867 H   0  0  0  0  0  0
  -20.9710  -29.8698   21.6545 H   0  0  0  0  0  0
  -26.0104  -38.2713   24.1418 H   0  0  0  0  0  0
  -30.5869  -21.9131   19.6374 H   0  0  0  0  0  0
  -31.1104  -19.5317   19.6796 H   0  0  0  0  0  0
  -26.7636  -21.0845   21.0850 H   0  0  0  0  0  0
  -26.4974  -18.9717   22.2228 H   0  0  0  0  0  0
  -27.2031  -17.5120   21.5994 H   0  0  0  0  0  0
  -28.5411  -16.4760   20.6135 H   0  0  0  0  0  0
  -25.4093  -19.3186   20.1373 H   0  0  0  0  0  0
  -25.0853  -17.8155   20.6762 H   0  0  0  0  0  0
  -26.1517  -18.0356   19.4580 H   0  0  0  0  0  0
  1 25  1  0  0  0
  1 30  2  0  0  0
  1 79  1  0  0  0
  2  3  1  0  0  0
  2 25  1  0  0  0
  2 82  1  0  0  0
  2 83  1  0  0  0
  3  4  1  0  0  0
  3 84  1  0  0  0
  3 85  1  0  0  0
  4  5  1  0  0  0
  4 86  1  0  0  0
  4 87  1  0  0  0
  5  6  1  0  0  0
  5 26  1  0  0  0
  5 88  1  0  0  0
  6 25  1  0  0  0
  6 89  1  0  0  0
  6 90  1  0  0  0
  7  8  2  0  0  0
  7 26  1  0  0  0
  7 29  1  0  0  0
  8  9  1  0  0  0
  8 22  1  0  0  0
  9 10  1  0  0  0
  9 27  2  0  0  0
 10 11  2  0  0  0
 10 15  1  0  0  0
 11 12  1  0  0  0
 11 91  1  0  0  0
 12 13  2  0  0  0
 12 92  1  0  0  0
 13 14  1  0  0  0
 13 31  1  0  0  0
 14 15  2  0  0  0
 14 93  1  0  0  0
 15 94  1  0  0  0
 16 17  2  0  0  0
 16 21  1  0  0  0
 16 31  1  0  0  0
 17 18  1  0  0  0
 17 95  1  0  0  0
 18 19  2  0  0  0
 18 96  1  0  0  0
 19 20  1  0  0  0
 19 24  1  0  0  0
 20 21  2  0  0  0
 20 97  1  0  0  0
 21 23  1  0  0  0
 22 28  1  0  0  0
 22 32  2  0  0  0
 26 27  1  0  0  0
 28 98  1  0  0  0
 28 99  1  0  0  0
 29100  1  0  0  0
 29101  1  0  0  0
 33 34  1  0  0  0
 33 66  1  0  0  0
 33 70  2  0  0  0
 34 36  1  0  0  0
 34 59  1  0  0  0
 34102  1  0  0  0
 35 44  2  0  0  0
 35 45  1  0  0  0
 35 68  1  0  0  0
 36 56  1  0  0  0
 36103  1  0  0  0
 37 39  1  0  0  0
 37 47  1  0  0  0
 37 66  1  0  0  0
 37104  1  0  0  0
 38 43  2  0  0  0
 38 46  1  0  0  0
 38 47  1  0  0  0
 39 64  1  0  0  0
 39 67  2  0  0  0
 40 52  1  0  0  0
 40 53  2  0  0  0
 40 58  1  0  0  0
 41105  1  0  0  0
 41106  1  0  0  0
 41107  1  0  0  0
 41 48  1  0  0  0
 42 43  1  0  0  0
 42 66  1  0  0  0
 42108  1  0  0  0
 42109  1  0  0  0
 43 44  1  0  0  0
 44110  1  0  0  0
 45 46  2  0  0  0
 45111  1  0  0  0
 46112  1  0  0  0
 47113  1  0  0  0
 47114  1  0  0  0
 48 56  1  0  0  0
 48 65  1  0  0  0
 48115  1  0  0  0
 49 50  1  0  0  0
 49 53  1  0  0  0
 49 64  1  0  0  0
 49116  1  0  0  0
 50 51  1  0  0  0
 50117  1  0  0  0
 50118  1  0  0  0
 51 52  1  0  0  0
 51119  1  0  0  0
 51120  1  0  0  0
 52121  1  0  0  0
 52122  1  0  0  0
 53 54  1  0  0  0
 54 55  2  0  0  0
 54123  1  0  0  0
 55 57  1  0  0  0
 55124  1  0  0  0
 56 69  2  0  0  0
 57 58  2  0  0  0
 57125  1  0  0  0
 58126  1  0  0  0
 59 60  1  0  0  0
 59 61  1  0  0  0
 59 62  1  0  0  0
 60127  1  0  0  0
 60128  1  0  0  0
 60129  1  0  0  0
 61130  1  0  0  0
 61131  1  0  0  0
 61132  1  0  0  0
 62133  1  0  0  0
 62134  1  0  0  0
 62135  1  0  0  0
 63 65  1  0  0  0
 63136  1  0  0  0
 63137  1  0  0  0
 63138  1  0  0  0
 64139  1  0  0  0
 65140  1  0  0  0
 68 77  1  0  0  0
 71 72  2  0  0  0
 71 74  1  0  0  0
 71141  1  0  0  0
 72 76  1  0  0  0
 72142  1  0  0  0
 73 74  2  0  0  0
 73 75  1  0  0  0
 73143  1  0  0  0
 74 77  1  0  0  0
 75 76  2  0  0  0
 75 78  1  0  0  0
 76 79  1  0  0  0
 77 81  2  0  0  0
 78 80  1  0  0  0
 78144  1  0  0  0
 78145  1  0  0  0
 79146  1  0  0  0
 80147  1  0  0  0
 80148  1  0  0  0
 80149  1  0  0  0
M  CHG  1  80   1
M  ISO  4   1 100  68 101  77 101  79 100
M  END
> <chiral flag>
0

> <version>
0

> <s_m_source_file>
/data/baiqing/PycharmProjects/Reinvent-master-3.2/result/LINK_invent/BTK/process_docking_weight1_custom_product_contain_oxygen_bond_distance_aromatic_linkinvent_7_9_3/rearranged_h_0002.sdf

> <i_m_source_file_index>
74

> <r_mmod_Potential_Energy-OPLS-2005>
2040.51440429688

> <r_mmod_Stretch_Energy-OPLS-2005>
979.653381347656

> <r_mmod_Bend_Energy-OPLS-2005>
698.207824707031

> <r_mmod_Torsional_Energy-OPLS-2005>
215.413116455078

> <r_mmod_Improper_Torsional_Energy-OPLS-2005>
9.43814373016357

> <r_mmod_Van_der_Waal_Energy-OPLS-2005>
131.366790771484

> <r_mmod_Electrostatic_Energy-OPLS-2005>
-307.93212890625

> <r_mmod_Solvation_Energy-OPLS-2005>
-522.306701660156

> <b_mmod_Minimization_Converged-OPLS-2005>
0

> <r_mmod_RMS_Derivative-OPLS-2005>
0.102729998528957

$$$$
74
                    3D
 Structure written by MMmdl.
161170  0  0  1  0            999 V2000
  -30.7419  -14.4297   20.6460 C   0  0  0  0  0  0
  -30.4189  -12.3149   19.4044 C   0  0  0  0  0  0
  -29.4852  -12.5175   18.1959 C   0  0  0  0  0  0
  -28.0101  -12.3697   18.6148 C   0  0  0  0  0  0
  -27.6610  -13.2058   19.8744 C   0  0  2  0  0  0
  -28.7021  -12.9765   20.9914 C   0  0  0  0  0  0
  -25.2585  -13.8160   20.5674 C   0  0  0  0  0  0
  -24.1832  -13.0438   20.9166 C   0  0  0  0  0  0
  -24.6384  -11.6905   20.8728 C   0  0  0  0  0  0
  -23.9050  -10.4292   21.0401 C   0  0  0  0  0  0
  -24.3605   -9.4212   21.9181 C   0  0  0  0  0  0
  -23.6285   -8.2245   22.0754 C   0  0  0  0  0  0
  -22.4268   -8.0279   21.3543 C   0  0  0  0  0  0
  -21.9900   -9.0250   20.4644 C   0  0  0  0  0  0
  -22.7223  -10.2131   20.3052 C   0  0  0  0  0  0
  -21.6852   -6.0732   22.5278 C   0  0  0  0  0  0
  -21.4013   -6.5637   23.8211 C   0  0  0  0  0  0
  -21.3660   -5.6791   24.9173 C   0  0  0  0  0  0
  -21.6046   -4.3055   24.7226 C   0  0  0  0  0  0
  -21.8819   -3.8143   23.4347 C   0  0  0  0  0  0
  -21.9193   -4.6959   22.3402 C   0  0  0  0  0  0
  -22.7858  -13.5241   21.1838 C   0  0  0  0  0  0
  -22.1660   -4.2146   21.0980 F   0  0  0  0  0  0
  -21.5632   -3.4539   25.7739 F   0  0  0  0  0  0
  -30.0347  -13.2850   20.4421 N   0  0  0  0  0  0
  -26.3018  -12.9326   20.3364 N   0  0  0  0  0  0
  -25.9310  -11.6486   20.5757 N   0  0  0  0  0  0
  -22.0500  -12.8231   22.0394 N   0  0  0  0  0  0
  -25.4327  -15.1876   20.4090 N   0  0  0  0  0  0
  -31.8214  -14.6578   20.0924 O   0  0  0  0  0  0
  -21.6637   -6.8874   21.4238 O   0  0  0  0  0  0
  -22.3545  -14.5554   20.6701 O   0  0  0  0  0  0
  -24.6139  -31.8686   23.2109 C   0  0  0  0  0  0
  -25.9033  -32.4827   23.8408 C   0  0  1  0  0  0
  -27.2381  -27.4403   20.1064 C   0  0  0  0  0  0
  -25.5892  -33.8626   24.2341 N   0  0  0  0  0  0
  -23.4027  -30.4917   21.5503 C   0  0  2  0  0  0
  -24.8526  -28.9586   20.1168 C   0  0  0  0  0  0
  -22.7409  -29.4666   22.4991 C   0  0  0  0  0  0
  -18.0271  -28.1380   22.8494 C   0  0  0  0  0  0
  -24.1484  -36.7320   23.2641 C   0  0  0  0  0  0
  -25.9301  -30.8392   21.3618 C   0  0  0  0  0  0
  -26.0116  -29.4730   20.7131 C   0  0  0  0  0  0
  -27.2112  -28.7245   20.7039 C   0  0  0  0  0  0
  -26.0667  -26.9461   19.4980 C   0  0  0  0  0  0
  -24.8741  -27.6933   19.5052 C   0  0  0  0  0  0
  -23.6122  -29.8225   20.1656 C   0  0  0  0  0  0
  -25.4105  -36.3117   24.0343 C   0  0  1  0  0  0
  -20.5862  -28.3670   23.1316 C   0  0  2  0  0  0
  -20.6765  -26.9406   22.5416 C   0  0  0  0  0  0
  -19.5743  -26.6389   21.5213 C   0  0  0  0  0  0
  -18.1919  -26.7929   22.1622 C   0  0  0  0  0  0
  -19.1521  -28.8841   23.2903 C   0  0  0  0  0  0
  -18.9450  -30.1446   23.8916 C   0  0  0  0  0  0
  -17.6453  -30.6588   24.0568 C   0  0  0  0  0  0
  -25.9028  -34.9478   23.5139 C   0  0  0  0  0  0
  -16.5345  -29.9091   23.6327 C   0  0  0  0  0  0
  -16.7261  -28.6507   23.0350 C   0  0  0  0  0  0
  -26.4465  -31.6597   25.0727 C   0  0  0  0  0  0
  -25.3743  -31.3700   26.1486 C   0  0  0  0  0  0
  -27.0283  -30.3041   24.6083 C   0  0  0  0  0  0
  -27.6058  -32.4304   25.7476 C   0  0  0  0  0  0
  -27.5577  -37.1820   24.8470 C   0  0  0  0  0  0
  -21.4139  -29.3038   22.3727 N   0  0  0  0  0  0
  -26.4297  -37.3794   23.9404 N   0  0  0  0  0  0
  -24.6672  -31.0801   22.0999 N   0  0  0  0  0  0
  -23.4183  -28.8207   23.3031 O   0  0  0  0  0  0
  -28.3582  -26.6384   20.0503 O   0  0  0  0  0  0
  -26.5590  -34.8925   22.4701 O   0  0  0  0  0  0
  -23.5332  -32.1429   23.7508 O   0  0  0  0  0  0
  -31.5451  -19.8100   20.4980 C   0  0  0  0  0  0
  -29.4633  -19.9559   21.7407 C   0  0  0  0  0  0
  -31.6377  -18.4361   20.8083 C   0  0  0  0  0  0
  -29.5572  -18.5792   22.0540 C   0  0  0  0  0  0
  -30.4823  -20.5971   20.9975 C   0  0  0  0  0  0
  -30.6696  -17.8191   21.6279 C   0  0  0  0  0  0
  -28.9202  -26.1295   21.1837 C   0  0  0  0  0  0
  -29.4630  -22.6843   19.8288 C   0  0  0  0  0  0
  -30.4048  -22.8921   22.1349 C   0  0  0  0  0  0
  -29.6294  -24.2172   19.6325 C   0  0  0  0  0  0
  -30.5811  -24.4088   21.9210 C   0  0  0  0  0  0
  -30.5111  -22.1224   20.8065 C   0  0  0  0  0  0
  -30.9109  -16.4050   22.1623 C   0  0  0  0  0  0
  -29.6414  -24.9453   20.9205 N   0  0  0  0  0  0
  -30.1979  -15.3074   21.5038 N   0  0  0  0  0  0
  -28.8123  -26.6608   22.2940 O   0  0  0  0  0  0
  -31.4611  -12.4197   19.0976 H   0  0  0  0  0  0
  -30.3266  -11.2995   19.7930 H   0  0  0  0  0  0
  -29.7235  -11.7991   17.4104 H   0  0  0  0  0  0
  -29.6482  -13.5072   17.7661 H   0  0  0  0  0  0
  -27.8250  -11.3126   18.8094 H   0  0  0  0  0  0
  -27.3542  -12.6446   17.7880 H   0  0  0  0  0  0
  -27.7098  -14.2558   19.5847 H   0  0  0  0  0  0
  -28.6794  -11.9368   21.3212 H   0  0  0  0  0  0
  -28.4498  -13.5621   21.8755 H   0  0  0  0  0  0
  -25.2750   -9.5693   22.4753 H   0  0  0  0  0  0
  -23.9999   -7.4639   22.7474 H   0  0  0  0  0  0
  -21.0833   -8.8760   19.8949 H   0  0  0  0  0  0
  -22.3679  -10.9667   19.6160 H   0  0  0  0  0  0
  -21.2003   -7.6145   23.9713 H   0  0  0  0  0  0
  -21.1482   -6.0522   25.9076 H   0  0  0  0  0  0
  -22.0598   -2.7606   23.2849 H   0  0  0  0  0  0
  -22.4114  -11.9883   22.4766 H   0  0  0  0  0  0
  -21.1123  -13.1260   22.2612 H   0  0  0  0  0  0
  -24.6717  -15.8487   20.5206 H   0  0  0  0  0  0
  -26.2949  -15.6238   20.1056 H   0  0  0  0  0  0
  -26.7110  -32.5552   23.1185 H   0  0  0  0  0  0
  -25.0055  -33.9791   25.0496 H   0  0  0  0  0  0
  -22.6911  -31.3080   21.4100 H   0  0  0  0  0  0
  -23.3740  -35.9659   23.3315 H   0  0  0  0  0  0
  -24.3578  -36.8921   22.2053 H   0  0  0  0  0  0
  -23.7242  -37.6530   23.6647 H   0  0  0  0  0  0
  -26.0368  -31.6033   20.5906 H   0  0  0  0  0  0
  -26.8196  -30.8975   21.9770 H   0  0  0  0  0  0
  -28.1064  -29.1227   21.1612 H   0  0  0  0  0  0
  -26.0778  -25.9741   19.0250 H   0  0  0  0  0  0
  -23.9846  -27.2917   19.0397 H   0  0  0  0  0  0
  -23.7175  -30.5963   19.4042 H   0  0  0  0  0  0
  -22.7373  -29.2394   19.8719 H   0  0  0  0  0  0
  -25.1282  -36.1990   25.0837 H   0  0  0  0  0  0
  -20.9953  -28.3233   24.1437 H   0  0  0  0  0  0
  -20.5672  -26.2276   23.3602 H   0  0  0  0  0  0
  -21.6635  -26.7452   22.1206 H   0  0  0  0  0  0
  -19.6906  -25.6304   21.1233 H   0  0  0  0  0  0
  -19.6684  -27.3209   20.6752 H   0  0  0  0  0  0
  -17.4192  -26.6686   21.4020 H   0  0  0  0  0  0
  -18.0313  -26.0062   22.9008 H   0  0  0  0  0  0
  -19.7925  -30.7259   24.2293 H   0  0  0  0  0  0
  -17.5008  -31.6270   24.5165 H   0  0  0  0  0  0
  -15.5347  -30.3004   23.7642 H   0  0  0  0  0  0
  -15.8658  -28.0837   22.7055 H   0  0  0  0  0  0
  -24.5889  -30.7079   25.7822 H   0  0  0  0  0  0
  -24.8967  -32.2855   26.4986 H   0  0  0  0  0  0
  -25.8101  -30.8821   27.0214 H   0  0  0  0  0  0
  -26.2814  -29.6806   24.1154 H   0  0  0  0  0  0
  -27.4075  -29.7272   25.4528 H   0  0  0  0  0  0
  -27.8641  -30.4359   23.9207 H   0  0  0  0  0  0
  -27.2705  -33.3617   26.2053 H   0  0  0  0  0  0
  -28.3864  -32.6835   25.0289 H   0  0  0  0  0  0
  -28.0721  -31.8415   26.5385 H   0  0  0  0  0  0
  -28.2623  -38.0088   24.7478 H   0  0  0  0  0  0
  -28.1043  -36.2619   24.6346 H   0  0  0  0  0  0
  -27.2289  -37.1534   25.8873 H   0  0  0  0  0  0
  -20.9296  -29.8766   21.6957 H   0  0  0  0  0  0
  -26.0190  -38.2880   24.1377 H   0  0  0  0  0  0
  -32.3336  -20.2684   19.9166 H   0  0  0  0  0  0
  -28.6319  -20.5298   22.1257 H   0  0  0  0  0  0
  -32.4946  -17.8711   20.4665 H   0  0  0  0  0  0
  -28.8029  -18.1246   22.6818 H   0  0  0  0  0  0
  -29.5538  -22.1832   18.8642 H   0  0  0  0  0  0
  -28.4593  -22.4651   20.1954 H   0  0  0  0  0  0
  -29.4419  -22.7019   22.6101 H   0  0  0  0  0  0
  -31.1666  -22.5356   22.8296 H   0  0  0  0  0  0
  -28.8367  -24.5563   18.9650 H   0  0  0  0  0  0
  -30.5675  -24.4251   19.1158 H   0  0  0  0  0  0
  -31.5957  -24.6167   21.5779 H   0  0  0  0  0  0
  -30.4857  -24.9124   22.8844 H   0  0  0  0  0  0
  -31.4903  -22.3584   20.3860 H   0  0  0  0  0  0
  -30.6211  -16.3920   23.2138 H   0  0  0  0  0  0
  -31.9849  -16.2070   22.1703 H   0  0  0  0  0  0
  -29.2931  -15.0657   21.8780 H   0  0  0  0  0  0
  1 25  1  0  0  0
  1 30  2  0  0  0
  1 85  1  0  0  0
  2  3  1  0  0  0
  2 25  1  0  0  0
  2 87  1  0  0  0
  2 88  1  0  0  0
  3  4  1  0  0  0
  3 89  1  0  0  0
  3 90  1  0  0  0
  4  5  1  0  0  0
  4 91  1  0  0  0
  4 92  1  0  0  0
  5  6  1  0  0  0
  5 26  1  0  0  0
  5 93  1  0  0  0
  6 25  1  0  0  0
  6 94  1  0  0  0
  6 95  1  0  0  0
  7  8  2  0  0  0
  7 26  1  0  0  0
  7 29  1  0  0  0
  8  9  1  0  0  0
  8 22  1  0  0  0
  9 10  1  0  0  0
  9 27  2  0  0  0
 10 11  2  0  0  0
 10 15  1  0  0  0
 11 12  1  0  0  0
 11 96  1  0  0  0
 12 13  2  0  0  0
 12 97  1  0  0  0
 13 14  1  0  0  0
 13 31  1  0  0  0
 14 15  2  0  0  0
 14 98  1  0  0  0
 15 99  1  0  0  0
 16 17  2  0  0  0
 16 21  1  0  0  0
 16 31  1  0  0  0
 17 18  1  0  0  0
 17100  1  0  0  0
 18 19  2  0  0  0
 18101  1  0  0  0
 19 20  1  0  0  0
 19 24  1  0  0  0
 20 21  2  0  0  0
 20102  1  0  0  0
 21 23  1  0  0  0
 22 28  1  0  0  0
 22 32  2  0  0  0
 26 27  1  0  0  0
 28103  1  0  0  0
 28104  1  0  0  0
 29105  1  0  0  0
 29106  1  0  0  0
 33 34  1  0  0  0
 33 66  1  0  0  0
 33 70  2  0  0  0
 34 36  1  0  0  0
 34 59  1  0  0  0
 34107  1  0  0  0
 35 44  2  0  0  0
 35 45  1  0  0  0
 35 68  1  0  0  0
 36 56  1  0  0  0
 36108  1  0  0  0
 37 39  1  0  0  0
 37 47  1  0  0  0
 37 66  1  0  0  0
 37109  1  0  0  0
 38 43  2  0  0  0
 38 46  1  0  0  0
 38 47  1  0  0  0
 39 64  1  0  0  0
 39 67  2  0  0  0
 40 52  1  0  0  0
 40 53  2  0  0  0
 40 58  1  0  0  0
 41110  1  0  0  0
 41111  1  0  0  0
 41112  1  0  0  0
 41 48  1  0  0  0
 42 43  1  0  0  0
 42 66  1  0  0  0
 42113  1  0  0  0
 42114  1  0  0  0
 43 44  1  0  0  0
 44115  1  0  0  0
 45 46  2  0  0  0
 45116  1  0  0  0
 46117  1  0  0  0
 47118  1  0  0  0
 47119  1  0  0  0
 48 56  1  0  0  0
 48 65  1  0  0  0
 48120  1  0  0  0
 49 50  1  0  0  0
 49 53  1  0  0  0
 49 64  1  0  0  0
 49121  1  0  0  0
 50 51  1  0  0  0
 50122  1  0  0  0
 50123  1  0  0  0
 51 52  1  0  0  0
 51124  1  0  0  0
 51125  1  0  0  0
 52126  1  0  0  0
 52127  1  0  0  0
 53 54  1  0  0  0
 54 55  2  0  0  0
 54128  1  0  0  0
 55 57  1  0  0  0
 55129  1  0  0  0
 56 69  2  0  0  0
 57 58  2  0  0  0
 57130  1  0  0  0
 58131  1  0  0  0
 59 60  1  0  0  0
 59 61  1  0  0  0
 59 62  1  0  0  0
 60132  1  0  0  0
 60133  1  0  0  0
 60134  1  0  0  0
 61135  1  0  0  0
 61136  1  0  0  0
 61137  1  0  0  0
 62138  1  0  0  0
 62139  1  0  0  0
 62140  1  0  0  0
 63 65  1  0  0  0
 63141  1  0  0  0
 63142  1  0  0  0
 63143  1  0  0  0
 64144  1  0  0  0
 65145  1  0  0  0
 68 77  1  0  0  0
 71 73  2  0  0  0
 71 75  1  0  0  0
 71146  1  0  0  0
 72 74  1  0  0  0
 72 75  2  0  0  0
 72147  1  0  0  0
 73 76  1  0  0  0
 73148  1  0  0  0
 74 76  2  0  0  0
 74149  1  0  0  0
 75 82  1  0  0  0
 76 83  1  0  0  0
 77 84  1  0  0  0
 77 86  2  0  0  0
 78 80  1  0  0  0
 78 82  1  0  0  0
 78150  1  0  0  0
 78151  1  0  0  0
 79 81  1  0  0  0
 79 82  1  0  0  0
 79152  1  0  0  0
 79153  1  0  0  0
 80 84  1  0  0  0
 80154  1  0  0  0
 80155  1  0  0  0
 81 84  1  0  0  0
 81156  1  0  0  0
 81157  1  0  0  0
 82158  1  0  0  0
 83 85  1  0  0  0
 83159  1  0  0  0
 83160  1  0  0  0
 85161  1  0  0  0
M  ISO  4   1 100  68 101  77 101  85 100
M  END
> <chiral flag>
0

> <version>
0

> <s_m_source_file>
/data/baiqing/PycharmProjects/Reinvent-master-3.2/result/LINK_invent/BTK/process_docking_weight1_custom_product_contain_oxygen_bond_distance_aromatic_linkinvent_7_9_3/rearranged_h_0002.sdf

> <i_m_source_file_index>
75

> <r_mmod_Potential_Energy-OPLS-2005>
-23.1885738372803

> <r_mmod_Stretch_Energy-OPLS-2005>
40.0117111206055

> <r_mmod_Bend_Energy-OPLS-2005>
98.706298828125

> <r_mmod_Torsional_Energy-OPLS-2005>
265.560913085938

> <r_mmod_Improper_Torsional_Energy-OPLS-2005>
3.01319932937622

> <r_mmod_Van_der_Waal_Energy-OPLS-2005>
159.989700317383

> <r_mmod_Electrostatic_Energy-OPLS-2005>
-378.018035888672

> <r_mmod_Solvation_Energy-OPLS-2005>
-222.174545288086

> <b_mmod_Minimization_Converged-OPLS-2005>
0

> <r_mmod_RMS_Derivative-OPLS-2005>
0.386597156524658

$$$$
75
                    3D
 Structure written by MMmdl.
187195  0  0  1  0            999 V2000
  -30.7312  -14.4110   20.6514 C   0  0  0  0  0  0
  -30.4240  -12.2983   19.4059 C   0  0  0  0  0  0
  -29.4929  -12.5276   18.1991 C   0  0  0  0  0  0
  -28.0157  -12.3756   18.6122 C   0  0  0  0  0  0
  -27.6660  -13.2003   19.8794 C   0  0  2  0  0  0
  -28.7035  -12.9441   20.9950 C   0  0  0  0  0  0
  -25.2600  -13.8143   20.5674 C   0  0  0  0  0  0
  -24.1845  -13.0440   20.9154 C   0  0  0  0  0  0
  -24.6394  -11.6887   20.8716 C   0  0  0  0  0  0
  -23.9053  -10.4294   21.0398 C   0  0  0  0  0  0
  -24.3611   -9.4205   21.9180 C   0  0  0  0  0  0
  -23.6289   -8.2243   22.0750 C   0  0  0  0  0  0
  -22.4264   -8.0286   21.3547 C   0  0  0  0  0  0
  -21.9904   -9.0252   20.4642 C   0  0  0  0  0  0
  -22.7228  -10.2131   20.3050 C   0  0  0  0  0  0
  -21.6855   -6.0731   22.5278 C   0  0  0  0  0  0
  -21.4015   -6.5640   23.8210 C   0  0  0  0  0  0
  -21.3657   -5.6791   24.9175 C   0  0  0  0  0  0
  -21.6050   -4.3057   24.7225 C   0  0  0  0  0  0
  -21.8816   -3.8144   23.4351 C   0  0  0  0  0  0
  -21.9190   -4.6959   22.3403 C   0  0  0  0  0  0
  -22.7874  -13.5235   21.1834 C   0  0  0  0  0  0
  -22.1659   -4.2150   21.0982 F   0  0  0  0  0  0
  -21.5628   -3.4539   25.7738 F   0  0  0  0  0  0
  -30.0434  -13.2534   20.4572 N   0  0  0  0  0  0
  -26.3043  -12.9307   20.3364 N   0  0  0  0  0  0
  -25.9318  -11.6474   20.5746 N   0  0  0  0  0  0
  -22.0513  -12.8238   22.0388 N   0  0  0  0  0  0
  -25.4347  -15.1868   20.4092 N   0  0  0  0  0  0
  -31.8003  -14.6561   20.0834 O   0  0  0  0  0  0
  -21.6637   -6.8875   21.4239 O   0  0  0  0  0  0
  -22.3559  -14.5555   20.6684 O   0  0  0  0  0  0
  -24.6094  -31.8664   23.2072 C   0  0  0  0  0  0
  -25.8991  -32.4794   23.8350 C   0  0  1  0  0  0
  -27.2278  -27.4686   20.0649 C   0  0  0  0  0  0
  -25.5819  -33.8594   24.2269 N   0  0  0  0  0  0
  -23.3930  -30.4895   21.5506 C   0  0  2  0  0  0
  -24.8349  -28.9522   20.1195 C   0  0  0  0  0  0
  -22.7364  -29.4663   22.5015 C   0  0  0  0  0  0
  -18.0285  -28.1348   22.8505 C   0  0  0  0  0  0
  -24.1461  -36.7376   23.2622 C   0  0  0  0  0  0
  -25.9187  -30.8389   21.3570 C   0  0  0  0  0  0
  -25.9944  -29.4738   20.7081 C   0  0  0  0  0  0
  -27.1933  -28.7344   20.6861 C   0  0  0  0  0  0
  -26.0502  -26.9378   19.5081 C   0  0  0  0  0  0
  -24.8553  -27.6789   19.5237 C   0  0  0  0  0  0
  -23.5925  -29.8102   20.1698 C   0  0  0  0  0  0
  -25.4066  -36.3095   24.0316 C   0  0  1  0  0  0
  -20.5863  -28.3655   23.1325 C   0  0  2  0  0  0
  -20.6780  -26.9399   22.5395 C   0  0  0  0  0  0
  -19.5764  -26.6358   21.5188 C   0  0  0  0  0  0
  -18.1941  -26.7906   22.1605 C   0  0  0  0  0  0
  -19.1529  -28.8815   23.2913 C   0  0  0  0  0  0
  -18.9442  -30.1430   23.8898 C   0  0  0  0  0  0
  -17.6441  -30.6548   24.0567 C   0  0  0  0  0  0
  -25.9008  -34.9457   23.5089 C   0  0  0  0  0  0
  -16.5341  -29.9045   23.6329 C   0  0  0  0  0  0
  -16.7274  -28.6468   23.0347 C   0  0  0  0  0  0
  -26.4436  -31.6617   25.0703 C   0  0  0  0  0  0
  -25.3678  -31.3752   26.1448 C   0  0  0  0  0  0
  -27.0377  -30.3062   24.6169 C   0  0  0  0  0  0
  -27.5993  -32.4460   25.7373 C   0  0  0  0  0  0
  -27.5556  -37.1831   24.8414 C   0  0  0  0  0  0
  -21.4094  -29.3028   22.3731 N   0  0  0  0  0  0
  -26.4241  -37.3792   23.9396 N   0  0  0  0  0  0
  -24.6584  -31.0779   22.0978 N   0  0  0  0  0  0
  -23.4164  -28.8252   23.3064 O   0  0  0  0  0  0
  -28.3744  -26.7259   19.9615 O   0  0  0  0  0  0
  -26.5600  -34.8897   22.4668 O   0  0  0  0  0  0
  -23.5298  -32.1437   23.7481 O   0  0  0  0  0  0
  -29.7533  -18.6379   23.0346 C   0  0  0  0  0  0
  -32.0683  -18.4096   22.3243 C   0  0  0  0  0  0
  -29.4667  -17.3645   22.5063 C   0  0  0  0  0  0
  -31.7828  -17.1339   21.7930 C   0  0  0  0  0  0
  -31.0615  -19.1576   22.9687 C   0  0  0  0  0  0
  -30.4776  -16.5916   21.8946 C   0  0  0  0  0  0
  -31.0646  -22.8724   23.1723 C   0  0  0  0  0  0
  -31.3944  -20.4721   23.6568 C   0  0  0  0  0  0
  -31.3635  -24.0350   22.2119 C   0  0  0  0  0  0
  -31.0577  -25.4283   22.8120 C   0  0  0  0  0  0
  -31.7240  -26.5900   22.0503 C   0  0  0  0  0  0
  -31.1480  -27.9690   22.4260 C   0  0  0  0  0  0
  -31.7110  -29.1006   21.5467 C   0  0  0  0  0  0
  -30.9068  -30.4096   21.6506 C   0  0  0  0  0  0
  -31.0919  -31.3854   20.4681 C   0  0  0  0  0  0
  -30.1756  -31.1170   19.2557 C   0  0  0  0  0  0
  -30.8071  -30.2853   18.1224 C   0  0  0  0  0  0
  -29.8218  -29.9482   16.9833 C   0  0  0  0  0  0
  -28.6631  -28.9963   17.3542 C   0  0  0  0  0  0
  -29.0792  -27.5561   17.7185 C   0  0  0  0  0  0
  -29.4234  -27.3270   19.2083 C   0  0  0  0  0  0
  -30.1131  -15.2826   21.4680 N   0  0  0  0  0  0
  -31.3871  -21.6341   22.7701 N   0  0  0  0  0  0
  -30.5785  -23.0922   24.2837 O   0  0  0  0  0  0
  -31.4682  -12.4012   19.1049 H   0  0  0  0  0  0
  -30.3239  -11.2772   19.7774 H   0  0  0  0  0  0
  -29.7324  -11.8278   17.3972 H   0  0  0  0  0  0
  -29.6584  -13.5274   17.7934 H   0  0  0  0  0  0
  -27.8291  -11.3169   18.7976 H   0  0  0  0  0  0
  -27.3625  -12.6593   17.7862 H   0  0  0  0  0  0
  -27.7225  -14.2536   19.6041 H   0  0  0  0  0  0
  -28.6737  -11.8985   21.3044 H   0  0  0  0  0  0
  -28.4480  -13.5067   21.8930 H   0  0  0  0  0  0
  -25.2760   -9.5686   22.4747 H   0  0  0  0  0  0
  -23.9999   -7.4637   22.7477 H   0  0  0  0  0  0
  -21.0831   -8.8768   19.8956 H   0  0  0  0  0  0
  -22.3686  -10.9667   19.6158 H   0  0  0  0  0  0
  -21.2008   -7.6150   23.9716 H   0  0  0  0  0  0
  -21.1485   -6.0525   25.9080 H   0  0  0  0  0  0
  -22.0598   -2.7611   23.2849 H   0  0  0  0  0  0
  -22.4121  -11.9888   22.4768 H   0  0  0  0  0  0
  -21.1142  -13.1272   22.2607 H   0  0  0  0  0  0
  -24.6698  -15.8445   20.5157 H   0  0  0  0  0  0
  -26.2942  -15.6259   20.1023 H   0  0  0  0  0  0
  -26.7053  -32.5495   23.1115 H   0  0  0  0  0  0
  -24.9826  -33.9730   25.0314 H   0  0  0  0  0  0
  -22.6763  -31.3021   21.4127 H   0  0  0  0  0  0
  -23.3636  -35.9802   23.3258 H   0  0  0  0  0  0
  -24.3550  -36.9028   22.2037 H   0  0  0  0  0  0
  -23.7313  -37.6614   23.6666 H   0  0  0  0  0  0
  -26.0250  -31.6046   20.5872 H   0  0  0  0  0  0
  -26.8112  -30.8894   21.9696 H   0  0  0  0  0  0
  -28.0875  -29.1355   21.1314 H   0  0  0  0  0  0
  -26.0660  -25.9644   19.0373 H   0  0  0  0  0  0
  -23.9636  -27.2642   19.0756 H   0  0  0  0  0  0
  -23.6724  -30.5721   19.3945 H   0  0  0  0  0  0
  -22.7254  -29.2067   19.8956 H   0  0  0  0  0  0
  -25.1238  -36.1943   25.0809 H   0  0  0  0  0  0
  -20.9995  -28.3220   24.1436 H   0  0  0  0  0  0
  -20.5661  -26.2281   23.3575 H   0  0  0  0  0  0
  -21.6659  -26.7416   22.1202 H   0  0  0  0  0  0
  -19.6935  -25.6253   21.1257 H   0  0  0  0  0  0
  -19.6716  -27.3140   20.6696 H   0  0  0  0  0  0
  -17.4223  -26.6659   21.3998 H   0  0  0  0  0  0
  -18.0346  -26.0000   22.8960 H   0  0  0  0  0  0
  -19.7902  -30.7272   24.2247 H   0  0  0  0  0  0
  -17.4976  -31.6225   24.5161 H   0  0  0  0  0  0
  -15.5345  -30.2930   23.7610 H   0  0  0  0  0  0
  -15.8694  -28.0753   22.7056 H   0  0  0  0  0  0
  -24.5739  -30.7264   25.7732 H   0  0  0  0  0  0
  -24.8997  -32.2943   26.4978 H   0  0  0  0  0  0
  -25.7985  -30.8777   27.0147 H   0  0  0  0  0  0
  -26.3049  -29.6724   24.1182 H   0  0  0  0  0  0
  -27.4142  -29.7382   25.4692 H   0  0  0  0  0  0
  -27.8811  -30.4386   23.9399 H   0  0  0  0  0  0
  -27.2540  -33.3697   26.2028 H   0  0  0  0  0  0
  -28.3630  -32.7204   25.0080 H   0  0  0  0  0  0
  -28.0890  -31.8625   26.5161 H   0  0  0  0  0  0
  -28.2556  -38.0140   24.7439 H   0  0  0  0  0  0
  -28.1075  -36.2671   24.6234 H   0  0  0  0  0  0
  -27.2303  -37.1491   25.8828 H   0  0  0  0  0  0
  -20.9246  -29.8765   21.6975 H   0  0  0  0  0  0
  -26.0093  -38.2851   24.1421 H   0  0  0  0  0  0
  -28.9700  -19.2010   23.5224 H   0  0  0  0  0  0
  -33.0767  -18.7954   22.2673 H   0  0  0  0  0  0
  -28.4602  -16.9789   22.5956 H   0  0  0  0  0  0
  -32.5923  -16.5781   21.3425 H   0  0  0  0  0  0
  -32.3835  -20.3944   24.1114 H   0  0  0  0  0  0
  -30.6990  -20.6011   24.4888 H   0  0  0  0  0  0
  -30.8015  -23.8898   21.2872 H   0  0  0  0  0  0
  -32.4198  -23.9839   21.9451 H   0  0  0  0  0  0
  -31.3761  -25.4759   23.8552 H   0  0  0  0  0  0
  -29.9741  -25.5598   22.8225 H   0  0  0  0  0  0
  -31.5986  -26.4291   20.9800 H   0  0  0  0  0  0
  -32.8017  -26.5781   22.2266 H   0  0  0  0  0  0
  -31.3346  -28.1896   23.4789 H   0  0  0  0  0  0
  -30.0630  -27.9362   22.3152 H   0  0  0  0  0  0
  -31.7321  -28.7635   20.5149 H   0  0  0  0  0  0
  -32.7531  -29.2913   21.8040 H   0  0  0  0  0  0
  -31.1930  -30.9117   22.5750 H   0  0  0  0  0  0
  -29.8450  -30.2043   21.7702 H   0  0  0  0  0  0
  -32.1388  -31.4515   20.1694 H   0  0  0  0  0  0
  -30.8347  -32.3795   20.8362 H   0  0  0  0  0  0
  -29.8861  -32.0774   18.8265 H   0  0  0  0  0  0
  -29.2452  -30.6632   19.5941 H   0  0  0  0  0  0
  -31.2613  -29.3701   18.4923 H   0  0  0  0  0  0
  -31.6391  -30.8557   17.7055 H   0  0  0  0  0  0
  -30.3792  -29.5180   16.1483 H   0  0  0  0  0  0
  -29.3957  -30.8744   16.5925 H   0  0  0  0  0  0
  -28.0391  -29.4179   18.1409 H   0  0  0  0  0  0
  -28.0080  -28.9403   16.4837 H   0  0  0  0  0  0
  -29.9336  -27.2715   17.1048 H   0  0  0  0  0  0
  -28.2831  -26.8733   17.4215 H   0  0  0  0  0  0
  -29.7568  -28.2410   19.6903 H   0  0  0  0  0  0
  -30.2597  -26.6312   19.2445 H   0  0  0  0  0  0
  -29.2181  -14.9543   21.7973 H   0  0  0  0  0  0
  -31.7564  -21.5066   21.8377 H   0  0  0  0  0  0
  1 25  1  0  0  0
  1 30  2  0  0  0
  1 92  1  0  0  0
  2  3  1  0  0  0
  2 25  1  0  0  0
  2 95  1  0  0  0
  2 96  1  0  0  0
  3  4  1  0  0  0
  3 97  1  0  0  0
  3 98  1  0  0  0
  4  5  1  0  0  0
  4 99  1  0  0  0
  4100  1  0  0  0
  5  6  1  0  0  0
  5 26  1  0  0  0
  5101  1  0  0  0
  6 25  1  0  0  0
  6102  1  0  0  0
  6103  1  0  0  0
  7  8  2  0  0  0
  7 26  1  0  0  0
  7 29  1  0  0  0
  8  9  1  0  0  0
  8 22  1  0  0  0
  9 10  1  0  0  0
  9 27  2  0  0  0
 10 11  2  0  0  0
 10 15  1  0  0  0
 11 12  1  0  0  0
 11104  1  0  0  0
 12 13  2  0  0  0
 12105  1  0  0  0
 13 14  1  0  0  0
 13 31  1  0  0  0
 14 15  2  0  0  0
 14106  1  0  0  0
 15107  1  0  0  0
 16 17  2  0  0  0
 16 21  1  0  0  0
 16 31  1  0  0  0
 17 18  1  0  0  0
 17108  1  0  0  0
 18 19  2  0  0  0
 18109  1  0  0  0
 19 20  1  0  0  0
 19 24  1  0  0  0
 20 21  2  0  0  0
 20110  1  0  0  0
 21 23  1  0  0  0
 22 28  1  0  0  0
 22 32  2  0  0  0
 26 27  1  0  0  0
 28111  1  0  0  0
 28112  1  0  0  0
 29113  1  0  0  0
 29114  1  0  0  0
 33 34  1  0  0  0
 33 66  1  0  0  0
 33 70  2  0  0  0
 34 36  1  0  0  0
 34 59  1  0  0  0
 34115  1  0  0  0
 35 44  2  0  0  0
 35 45  1  0  0  0
 35 68  1  0  0  0
 36 56  1  0  0  0
 36116  1  0  0  0
 37 39  1  0  0  0
 37 47  1  0  0  0
 37 66  1  0  0  0
 37117  1  0  0  0
 38 43  2  0  0  0
 38 46  1  0  0  0
 38 47  1  0  0  0
 39 64  1  0  0  0
 39 67  2  0  0  0
 40 52  1  0  0  0
 40 53  2  0  0  0
 40 58  1  0  0  0
 41118  1  0  0  0
 41119  1  0  0  0
 41120  1  0  0  0
 41 48  1  0  0  0
 42 43  1  0  0  0
 42 66  1  0  0  0
 42121  1  0  0  0
 42122  1  0  0  0
 43 44  1  0  0  0
 44123  1  0  0  0
 45 46  2  0  0  0
 45124  1  0  0  0
 46125  1  0  0  0
 47126  1  0  0  0
 47127  1  0  0  0
 48 56  1  0  0  0
 48 65  1  0  0  0
 48128  1  0  0  0
 49 50  1  0  0  0
 49 53  1  0  0  0
 49 64  1  0  0  0
 49129  1  0  0  0
 50 51  1  0  0  0
 50130  1  0  0  0
 50131  1  0  0  0
 51 52  1  0  0  0
 51132  1  0  0  0
 51133  1  0  0  0
 52134  1  0  0  0
 52135  1  0  0  0
 53 54  1  0  0  0
 54 55  2  0  0  0
 54136  1  0  0  0
 55 57  1  0  0  0
 55137  1  0  0  0
 56 69  2  0  0  0
 57 58  2  0  0  0
 57138  1  0  0  0
 58139  1  0  0  0
 59 60  1  0  0  0
 59 61  1  0  0  0
 59 62  1  0  0  0
 60140  1  0  0  0
 60141  1  0  0  0
 60142  1  0  0  0
 61143  1  0  0  0
 61144  1  0  0  0
 61145  1  0  0  0
 62146  1  0  0  0
 62147  1  0  0  0
 62148  1  0  0  0
 63 65  1  0  0  0
 63149  1  0  0  0
 63150  1  0  0  0
 63151  1  0  0  0
 64152  1  0  0  0
 65153  1  0  0  0
 68 91  1  0  0  0
 71 73  2  0  0  0
 71 75  1  0  0  0
 71154  1  0  0  0
 72 74  1  0  0  0
 72 75  2  0  0  0
 72155  1  0  0  0
 73 76  1  0  0  0
 73156  1  0  0  0
 74 76  2  0  0  0
 74157  1  0  0  0
 75 78  1  0  0  0
 76 92  1  0  0  0
 77 79  1  0  0  0
 77 93  1  0  0  0
 77 94  2  0  0  0
 78 93  1  0  0  0
 78158  1  0  0  0
 78159  1  0  0  0
 79 80  1  0  0  0
 79160  1  0  0  0
 79161  1  0  0  0
 80 81  1  0  0  0
 80162  1  0  0  0
 80163  1  0  0  0
 81 82  1  0  0  0
 81164  1  0  0  0
 81165  1  0  0  0
 82 83  1  0  0  0
 82166  1  0  0  0
 82167  1  0  0  0
 83 84  1  0  0  0
 83168  1  0  0  0
 83169  1  0  0  0
 84 85  1  0  0  0
 84170  1  0  0  0
 84171  1  0  0  0
 85 86  1  0  0  0
 85172  1  0  0  0
 85173  1  0  0  0
 86 87  1  0  0  0
 86174  1  0  0  0
 86175  1  0  0  0
 87 88  1  0  0  0
 87176  1  0  0  0
 87177  1  0  0  0
 88 89  1  0  0  0
 88178  1  0  0  0
 88179  1  0  0  0
 89 90  1  0  0  0
 89180  1  0  0  0
 89181  1  0  0  0
 90 91  1  0  0  0
 90182  1  0  0  0
 90183  1  0  0  0
 91184  1  0  0  0
 91185  1  0  0  0
 92186  1  0  0  0
 93187  1  0  0  0
M  ISO  4   1 100  68 101  91 101  92 100
M  END
> <chiral flag>
0

> <version>
0

> <s_m_source_file>
/data/baiqing/PycharmProjects/Reinvent-master-3.2/result/LINK_invent/BTK/process_docking_weight1_custom_product_contain_oxygen_bond_distance_aromatic_linkinvent_7_9_3/rearranged_h_0002.sdf

> <i_m_source_file_index>
76

> <r_mmod_Potential_Energy-OPLS-2005>
-98.6737289428711

> <r_mmod_Stretch_Energy-OPLS-2005>
34.5767784118652

> <r_mmod_Bend_Energy-OPLS-2005>
110.877716064453

> <r_mmod_Torsional_Energy-OPLS-2005>
264.694061279297

> <r_mmod_Improper_Torsional_Energy-OPLS-2005>
2.53189063072205

> <r_mmod_Van_der_Waal_Energy-OPLS-2005>
139.322448730469

> <r_mmod_Electrostatic_Energy-OPLS-2005>
-437.395843505859

> <r_mmod_Solvation_Energy-OPLS-2005>
-221.399169921875

> <b_mmod_Minimization_Converged-OPLS-2005>
0

> <r_mmod_RMS_Derivative-OPLS-2005>
3.3182384967804

$$$$
76
                    3D
 Structure written by MMmdl.
147155  0  0  1  0            999 V2000
  -30.4075  -15.3385   20.3686 C   0  0  0  0  0  0
  -30.4394  -12.8683   19.5103 C   0  0  0  0  0  0
  -29.5353  -12.5855   18.2833 C   0  0  0  0  0  0
  -28.0893  -12.2930   18.7211 C   0  0  0  0  0  0
  -27.6063  -13.2779   19.8137 C   0  0  2  0  0  0
  -28.6417  -13.4868   20.9380 C   0  0  0  0  0  0
  -25.2377  -13.8243   20.5753 C   0  0  0  0  0  0
  -24.1737  -13.0429   20.9269 C   0  0  0  0  0  0
  -24.6398  -11.6928   20.8766 C   0  0  0  0  0  0
  -23.9094  -10.4288   21.0407 C   0  0  0  0  0  0
  -24.3638   -9.4202   21.9186 C   0  0  0  0  0  0
  -23.6304   -8.2241   22.0755 C   0  0  0  0  0  0
  -22.4285   -8.0282   21.3545 C   0  0  0  0  0  0
  -21.9928   -9.0257   20.4645 C   0  0  0  0  0  0
  -22.7265  -10.2131   20.3055 C   0  0  0  0  0  0
  -21.6855   -6.0738   22.5279 C   0  0  0  0  0  0
  -21.4016   -6.5641   23.8213 C   0  0  0  0  0  0
  -21.3660   -5.6793   24.9174 C   0  0  0  0  0  0
  -21.6044   -4.3056   24.7225 C   0  0  0  0  0  0
  -21.8819   -3.8148   23.4346 C   0  0  0  0  0  0
  -21.9193   -4.6965   22.3402 C   0  0  0  0  0  0
  -22.7753  -13.5180   21.1913 C   0  0  0  0  0  0
  -22.1661   -4.2151   21.0979 F   0  0  0  0  0  0
  -21.5628   -3.4539   25.7737 F   0  0  0  0  0  0
  -29.8534  -14.0220   20.2918 N   0  0  0  0  0  0
  -26.2801  -12.9521   20.3202 N   0  0  0  0  0  0
  -25.9334  -11.6624   20.5711 N   0  0  0  0  0  0
  -22.0412  -12.8161   22.0465 N   0  0  0  0  0  0
  -25.3993  -15.1980   20.4188 N   0  0  0  0  0  0
  -31.6420  -15.3254   20.2462 O   0  0  0  0  0  0
  -21.6644   -6.8882   21.4242 O   0  0  0  0  0  0
  -22.3433  -14.5481   20.6751 O   0  0  0  0  0  0
  -24.6676  -31.8193   23.1665 C   0  0  0  0  0  0
  -25.9335  -32.4567   23.8148 C   0  0  1  0  0  0
  -27.2191  -26.8807   20.2005 C   0  0  0  0  0  0
  -25.5984  -33.8383   24.2051 N   0  0  0  0  0  0
  -23.4844  -30.4287   21.5177 C   0  0  2  0  0  0
  -24.9377  -28.8020   20.1222 C   0  0  0  0  0  0
  -22.7687  -29.4421   22.4778 C   0  0  0  0  0  0
  -18.0326  -28.1411   22.8465 C   0  0  0  0  0  0
  -24.1494  -36.7197   23.2648 C   0  0  0  0  0  0
  -26.0566  -30.6118   21.4026 C   0  0  0  0  0  0
  -26.1252  -29.1943   20.7534 C   0  0  0  0  0  0
  -27.2630  -28.2590   20.7592 C   0  0  0  0  0  0
  -25.9986  -26.6489   19.5275 C   0  0  0  0  0  0
  -24.9018  -27.5500   19.4879 C   0  0  0  0  0  0
  -23.7278  -29.7379   20.1478 C   0  0  0  0  0  0
  -25.4137  -36.2954   24.0296 C   0  0  1  0  0  0
  -20.5953  -28.3760   23.1180 C   0  0  2  0  0  0
  -20.6801  -26.9438   22.5402 C   0  0  0  0  0  0
  -19.5775  -26.6377   21.5215 C   0  0  0  0  0  0
  -18.1957  -26.7943   22.1622 C   0  0  0  0  0  0
  -19.1588  -28.8907   23.2808 C   0  0  0  0  0  0
  -18.9497  -30.1496   23.8845 C   0  0  0  0  0  0
  -17.6489  -30.6599   24.0554 C   0  0  0  0  0  0
  -25.9105  -34.9339   23.4997 C   0  0  0  0  0  0
  -16.5379  -29.9085   23.6345 C   0  0  0  0  0  0
  -16.7307  -28.6506   23.0363 C   0  0  0  0  0  0
  -26.4569  -31.6528   25.0695 C   0  0  0  0  0  0
  -25.3682  -31.3791   26.1341 C   0  0  0  0  0  0
  -27.0475  -30.2890   24.6459 C   0  0  0  0  0  0
  -27.6050  -32.4348   25.7505 C   0  0  0  0  0  0
  -27.5568  -37.1756   24.8467 C   0  0  0  0  0  0
  -21.4353  -29.3043   22.3525 N   0  0  0  0  0  0
  -26.4278  -37.3695   23.9408 N   0  0  0  0  0  0
  -24.7582  -30.9814   22.0825 N   0  0  0  0  0  0
  -23.4213  -28.7999   23.3043 O   0  0  0  0  0  0
  -28.2246  -25.7619   20.1857 O   0  0  0  0  0  0
  -26.5721  -34.8883   22.4598 O   0  0  0  0  0  0
  -23.5734  -32.1182   23.6731 O   0  0  0  0  0  0
  -28.9453  -21.1695   17.9988 C   0  0  0  0  0  0
  -29.2196  -19.9454   18.6761 C   0  0  0  0  0  0
  -28.6601  -22.4175   18.6269 C   0  0  0  0  0  0
  -28.9239  -21.2205   20.7003 C   0  0  0  0  0  0
  -29.2567  -19.8277   20.0822 C   0  0  0  0  0  0
  -28.6045  -22.5905   20.0271 C   0  0  0  0  0  0
  -29.8038  -18.2707   20.7308 C   0  0  0  0  0  0
  -28.0097  -24.1588   20.6024 C   0  0  0  0  0  0
  -29.6295  -16.6212   20.3858 N   0  0  0  0  0  0
  -31.4482  -13.0988   19.1653 H   0  0  0  0  0  0
  -30.5387  -11.9797   20.1359 H   0  0  0  0  0  0
  -29.9296  -11.7509   17.7022 H   0  0  0  0  0  0
  -29.5454  -13.4526   17.6211 H   0  0  0  0  0  0
  -28.0631  -11.2750   19.1117 H   0  0  0  0  0  0
  -27.4172  -12.3093   17.8623 H   0  0  0  0  0  0
  -27.5076  -14.2341   19.2984 H   0  0  0  0  0  0
  -28.8363  -12.5627   21.4844 H   0  0  0  0  0  0
  -28.2690  -14.2079   21.6672 H   0  0  0  0  0  0
  -25.2779   -9.5677   22.4767 H   0  0  0  0  0  0
  -24.0008   -7.4632   22.7477 H   0  0  0  0  0  0
  -21.0859   -8.8781   19.8951 H   0  0  0  0  0  0
  -22.3724  -10.9673   19.6167 H   0  0  0  0  0  0
  -21.2010   -7.6149   23.9716 H   0  0  0  0  0  0
  -21.1482   -6.0523   25.9077 H   0  0  0  0  0  0
  -22.0597   -2.7610   23.2845 H   0  0  0  0  0  0
  -22.4047  -11.9832   22.4857 H   0  0  0  0  0  0
  -21.1022  -13.1164   22.2666 H   0  0  0  0  0  0
  -24.6265  -15.8451   20.5329 H   0  0  0  0  0  0
  -26.2357  -15.6418   20.0643 H   0  0  0  0  0  0
  -26.7408  -32.5095   23.0864 H   0  0  0  0  0  0
  -25.0072  -33.9453   25.0163 H   0  0  0  0  0  0
  -22.8002  -31.2613   21.3415 H   0  0  0  0  0  0
  -23.3771  -35.9511   23.3272 H   0  0  0  0  0  0
  -24.3570  -36.8885   22.2070 H   0  0  0  0  0  0
  -23.7237  -37.6366   23.6734 H   0  0  0  0  0  0
  -26.2389  -31.3476   20.6182 H   0  0  0  0  0  0
  -26.9157  -30.6743   22.0585 H   0  0  0  0  0  0
  -28.1689  -28.5669   21.2622 H   0  0  0  0  0  0
  -25.8699  -25.6954   19.0348 H   0  0  0  0  0  0
  -24.0014  -27.2428   18.9738 H   0  0  0  0  0  0
  -23.8906  -30.5027   19.3876 H   0  0  0  0  0  0
  -22.8360  -29.1960   19.8281 H   0  0  0  0  0  0
  -25.1338  -36.1743   25.0787 H   0  0  0  0  0  0
  -21.0037  -28.3369   24.1305 H   0  0  0  0  0  0
  -20.5680  -26.2380   23.3646 H   0  0  0  0  0  0
  -21.6664  -26.7409   22.1210 H   0  0  0  0  0  0
  -19.6934  -25.6274   21.1279 H   0  0  0  0  0  0
  -19.6713  -27.3158   20.6722 H   0  0  0  0  0  0
  -17.4226  -26.6685   21.4027 H   0  0  0  0  0  0
  -18.0352  -26.0099   22.9032 H   0  0  0  0  0  0
  -19.7972  -30.7327   24.2191 H   0  0  0  0  0  0
  -17.5039  -31.6274   24.5166 H   0  0  0  0  0  0
  -15.5377  -30.2969   23.7699 H   0  0  0  0  0  0
  -15.8708  -28.0806   22.7109 H   0  0  0  0  0  0
  -24.5883  -30.7122   25.7647 H   0  0  0  0  0  0
  -24.8852  -32.2996   26.4628 H   0  0  0  0  0  0
  -25.7902  -30.9048   27.0211 H   0  0  0  0  0  0
  -26.3154  -29.6552   24.1444 H   0  0  0  0  0  0
  -27.3969  -29.7271   25.5132 H   0  0  0  0  0  0
  -27.9108  -30.4062   23.9907 H   0  0  0  0  0  0
  -27.2610  -33.3698   26.1940 H   0  0  0  0  0  0
  -28.3937  -32.6831   25.0390 H   0  0  0  0  0  0
  -28.0634  -31.8571   26.5540 H   0  0  0  0  0  0
  -28.2565  -38.0071   24.7512 H   0  0  0  0  0  0
  -28.1085  -36.2596   24.6297 H   0  0  0  0  0  0
  -27.2284  -37.1400   25.8869 H   0  0  0  0  0  0
  -20.9620  -29.8722   21.6636 H   0  0  0  0  0  0
  -26.0121  -38.2751   24.1416 H   0  0  0  0  0  0
  -28.9516  -21.1496   16.9175 H   0  0  0  0  0  0
  -29.4437  -19.0700   18.0814 H   0  0  0  0  0  0
  -28.4390  -23.2690   17.9978 H   0  0  0  0  0  0
  -28.9082  -21.2402   21.7811 H   0  0  0  0  0  0
  -29.5077  -18.3294   21.7784 H   0  0  0  0  0  0
  -30.8867  -18.3942   20.7676 H   0  0  0  0  0  0
  -28.2486  -24.1429   21.6657 H   0  0  0  0  0  0
  -26.9275  -24.0300   20.5824 H   0  0  0  0  0  0
  -28.6486  -16.3991   20.3052 H   0  0  0  0  0  0
  1 25  1  0  0  0
  1 30  2  0  0  0
  1 79  1  0  0  0
  2  3  1  0  0  0
  2 25  1  0  0  0
  2 80  1  0  0  0
  2 81  1  0  0  0
  3  4  1  0  0  0
  3 82  1  0  0  0
  3 83  1  0  0  0
  4  5  1  0  0  0
  4 84  1  0  0  0
  4 85  1  0  0  0
  5  6  1  0  0  0
  5 26  1  0  0  0
  5 86  1  0  0  0
  6 25  1  0  0  0
  6 87  1  0  0  0
  6 88  1  0  0  0
  7  8  2  0  0  0
  7 26  1  0  0  0
  7 29  1  0  0  0
  8  9  1  0  0  0
  8 22  1  0  0  0
  9 10  1  0  0  0
  9 27  2  0  0  0
 10 11  2  0  0  0
 10 15  1  0  0  0
 11 12  1  0  0  0
 11 89  1  0  0  0
 12 13  2  0  0  0
 12 90  1  0  0  0
 13 14  1  0  0  0
 13 31  1  0  0  0
 14 15  2  0  0  0
 14 91  1  0  0  0
 15 92  1  0  0  0
 16 17  2  0  0  0
 16 21  1  0  0  0
 16 31  1  0  0  0
 17 18  1  0  0  0
 17 93  1  0  0  0
 18 19  2  0  0  0
 18 94  1  0  0  0
 19 20  1  0  0  0
 19 24  1  0  0  0
 20 21  2  0  0  0
 20 95  1  0  0  0
 21 23  1  0  0  0
 22 28  1  0  0  0
 22 32  2  0  0  0
 26 27  1  0  0  0
 28 96  1  0  0  0
 28 97  1  0  0  0
 29 98  1  0  0  0
 29 99  1  0  0  0
 33 34  1  0  0  0
 33 66  1  0  0  0
 33 70  2  0  0  0
 34 36  1  0  0  0
 34 59  1  0  0  0
 34100  1  0  0  0
 35 44  2  0  0  0
 35 45  1  0  0  0
 35 68  1  0  0  0
 36 56  1  0  0  0
 36101  1  0  0  0
 37 39  1  0  0  0
 37 47  1  0  0  0
 37 66  1  0  0  0
 37102  1  0  0  0
 38 43  2  0  0  0
 38 46  1  0  0  0
 38 47  1  0  0  0
 39 64  1  0  0  0
 39 67  2  0  0  0
 40 52  1  0  0  0
 40 53  2  0  0  0
 40 58  1  0  0  0
 41103  1  0  0  0
 41104  1  0  0  0
 41105  1  0  0  0
 41 48  1  0  0  0
 42 43  1  0  0  0
 42 66  1  0  0  0
 42106  1  0  0  0
 42107  1  0  0  0
 43 44  1  0  0  0
 44108  1  0  0  0
 45 46  2  0  0  0
 45109  1  0  0  0
 46110  1  0  0  0
 47111  1  0  0  0
 47112  1  0  0  0
 48 56  1  0  0  0
 48 65  1  0  0  0
 48113  1  0  0  0
 49 50  1  0  0  0
 49 53  1  0  0  0
 49 64  1  0  0  0
 49114  1  0  0  0
 50 51  1  0  0  0
 50115  1  0  0  0
 50116  1  0  0  0
 51 52  1  0  0  0
 51117  1  0  0  0
 51118  1  0  0  0
 52119  1  0  0  0
 52120  1  0  0  0
 53 54  1  0  0  0
 54 55  2  0  0  0
 54121  1  0  0  0
 55 57  1  0  0  0
 55122  1  0  0  0
 56 69  2  0  0  0
 57 58  2  0  0  0
 57123  1  0  0  0
 58124  1  0  0  0
 59 60  1  0  0  0
 59 61  1  0  0  0
 59 62  1  0  0  0
 60125  1  0  0  0
 60126  1  0  0  0
 60127  1  0  0  0
 61128  1  0  0  0
 61129  1  0  0  0
 61130  1  0  0  0
 62131  1  0  0  0
 62132  1  0  0  0
 62133  1  0  0  0
 63 65  1  0  0  0
 63134  1  0  0  0
 63135  1  0  0  0
 63136  1  0  0  0
 64137  1  0  0  0
 65138  1  0  0  0
 68 78  1  0  0  0
 71 72  2  0  0  0
 71 73  1  0  0  0
 71139  1  0  0  0
 72 75  1  0  0  0
 72140  1  0  0  0
 73 76  2  0  0  0
 73141  1  0  0  0
 74 75  2  0  0  0
 74 76  1  0  0  0
 74142  1  0  0  0
 75 77  1  0  0  0
 76 78  1  0  0  0
 77 79  1  0  0  0
 77143  1  0  0  0
 77144  1  0  0  0
 78145  1  0  0  0
 78146  1  0  0  0
 79147  1  0  0  0
M  ISO  4   1 100  68 101  78 101  79 100
M  END
> <chiral flag>
0

> <version>
0

> <s_m_source_file>
/data/baiqing/PycharmProjects/Reinvent-master-3.2/result/LINK_invent/BTK/process_docking_weight1_custom_product_contain_oxygen_bond_distance_aromatic_linkinvent_7_9_3/rearranged_h_0002.sdf

> <i_m_source_file_index>
77

> <r_mmod_Potential_Energy-OPLS-2005>
1401.74060058594

> <r_mmod_Stretch_Energy-OPLS-2005>
643.052795410156

> <r_mmod_Bend_Energy-OPLS-2005>
451.203063964844

> <r_mmod_Torsional_Energy-OPLS-2005>
238.437026977539

> <r_mmod_Improper_Torsional_Energy-OPLS-2005>
6.01917123794556

> <r_mmod_Van_der_Waal_Energy-OPLS-2005>
122.058601379395

> <r_mmod_Electrostatic_Energy-OPLS-2005>
-377.779266357422

> <r_mmod_Solvation_Energy-OPLS-2005>
-214.792663574219

> <b_mmod_Minimization_Converged-OPLS-2005>
1

> <r_mmod_RMS_Derivative-OPLS-2005>
0.046136412769556

$$$$
77
                    3D
 Structure written by MMmdl.
162171  0  0  1  0            999 V2000
  -30.5854  -14.6532   20.4646 C   0  0  0  0  0  0
  -30.4393  -12.3926   19.4468 C   0  0  0  0  0  0
  -29.5013  -12.4798   18.2209 C   0  0  0  0  0  0
  -28.0250  -12.3218   18.6393 C   0  0  0  0  0  0
  -27.6471  -13.2089   19.8540 C   0  0  2  0  0  0
  -28.6913  -13.0790   20.9850 C   0  0  0  0  0  0
  -25.2563  -13.8162   20.5665 C   0  0  0  0  0  0
  -24.1832  -13.0438   20.9198 C   0  0  0  0  0  0
  -24.6385  -11.6900   20.8752 C   0  0  0  0  0  0
  -23.9067  -10.4284   21.0417 C   0  0  0  0  0  0
  -24.3624   -9.4201   21.9194 C   0  0  0  0  0  0
  -23.6299   -8.2236   22.0756 C   0  0  0  0  0  0
  -22.4285   -8.0277   21.3541 C   0  0  0  0  0  0
  -21.9925   -9.0249   20.4642 C   0  0  0  0  0  0
  -22.7251  -10.2127   20.3054 C   0  0  0  0  0  0
  -21.6860   -6.0749   22.5288 C   0  0  0  0  0  0
  -21.4018   -6.5652   23.8218 C   0  0  0  0  0  0
  -21.3651   -5.6799   24.9174 C   0  0  0  0  0  0
  -21.6026   -4.3055   24.7218 C   0  0  0  0  0  0
  -21.8833   -3.8158   23.4338 C   0  0  0  0  0  0
  -21.9198   -4.6979   22.3403 C   0  0  0  0  0  0
  -22.7856  -13.5230   21.1850 C   0  0  0  0  0  0
  -22.1672   -4.2165   21.0974 F   0  0  0  0  0  0
  -21.5613   -3.4532   25.7729 F   0  0  0  0  0  0
  -30.0009  -13.4178   20.4138 N   0  0  0  0  0  0
  -26.2958  -12.9313   20.3284 N   0  0  0  0  0  0
  -25.9310  -11.6479   20.5770 N   0  0  0  0  0  0
  -22.0517  -12.8203   22.0393 N   0  0  0  0  0  0
  -25.4290  -15.1868   20.4031 N   0  0  0  0  0  0
  -31.7617  -14.8243   20.1297 O   0  0  0  0  0  0
  -21.6637   -6.8886   21.4244 O   0  0  0  0  0  0
  -22.3549  -14.5546   20.6715 O   0  0  0  0  0  0
  -24.6214  -31.8597   23.2000 C   0  0  0  0  0  0
  -25.9060  -32.4769   23.8322 C   0  0  1  0  0  0
  -27.2156  -27.3218   20.1144 C   0  0  0  0  0  0
  -25.5894  -33.8576   24.2246 N   0  0  0  0  0  0
  -23.4116  -30.4811   21.5448 C   0  0  2  0  0  0
  -24.8539  -28.9281   20.1094 C   0  0  0  0  0  0
  -22.7429  -29.4629   22.4977 C   0  0  0  0  0  0
  -18.0286  -28.1390   22.8492 C   0  0  0  0  0  0
  -24.1482  -36.7293   23.2652 C   0  0  0  0  0  0
  -25.9467  -30.7858   21.3678 C   0  0  0  0  0  0
  -26.0127  -29.4071   20.7271 C   0  0  0  0  0  0
  -27.1882  -28.6089   20.7335 C   0  0  0  0  0  0
  -26.0486  -26.9013   19.4484 C   0  0  0  0  0  0
  -24.8721  -27.6791   19.4642 C   0  0  0  0  0  0
  -23.6214  -29.8073   20.1612 C   0  0  0  0  0  0
  -25.4106  -36.3078   24.0331 C   0  0  1  0  0  0
  -20.5872  -28.3683   23.1316 C   0  0  2  0  0  0
  -20.6804  -26.9413   22.5442 C   0  0  0  0  0  0
  -19.5758  -26.6375   21.5259 C   0  0  0  0  0  0
  -18.1921  -26.7950   22.1629 C   0  0  0  0  0  0
  -19.1537  -28.8856   23.2903 C   0  0  0  0  0  0
  -18.9463  -30.1471   23.8897 C   0  0  0  0  0  0
  -17.6468  -30.6609   24.0585 C   0  0  0  0  0  0
  -25.9036  -34.9452   23.5092 C   0  0  0  0  0  0
  -16.5356  -29.9114   23.6345 C   0  0  0  0  0  0
  -16.7273  -28.6532   23.0346 C   0  0  0  0  0  0
  -26.4465  -31.6585   25.0688 C   0  0  0  0  0  0
  -25.3699  -31.3704   26.1414 C   0  0  0  0  0  0
  -27.0335  -30.3048   24.6091 C   0  0  0  0  0  0
  -27.6023  -32.4327   25.7448 C   0  0  0  0  0  0
  -27.5561  -37.1796   24.8467 C   0  0  0  0  0  0
  -21.4153  -29.3037   22.3714 N   0  0  0  0  0  0
  -26.4267  -37.3785   23.9411 N   0  0  0  0  0  0
  -24.6797  -31.0597   22.0947 N   0  0  0  0  0  0
  -23.4169  -28.8224   23.3091 O   0  0  0  0  0  0
  -28.4028  -26.5841   20.1149 O   0  0  0  0  0  0
  -26.5642  -34.8923   22.4681 O   0  0  0  0  0  0
  -23.5377  -32.1405   23.7320 O   0  0  0  0  0  0
  -24.1943  -24.6356   22.8289 C   0  0  0  0  0  0
  -23.9967  -24.1701   21.5159 C   0  0  0  0  0  0
  -25.4980  -24.8851   23.2956 C   0  0  0  0  0  0
  -25.1025  -23.9658   20.6680 C   0  0  0  0  0  0
  -26.6053  -24.6895   22.4459 C   0  0  0  0  0  0
  -28.4293  -20.3161   19.0850 C   0  0  0  0  0  0
  -28.5973  -20.4258   21.4786 C   0  0  0  0  0  0
  -28.1751  -21.7223   19.0386 C   0  0  0  0  0  0
  -28.3472  -21.8325   21.4308 C   0  0  0  0  0  0
  -28.6198  -19.6213   20.3098 C   0  0  0  0  0  0
  -26.4151  -24.2386   21.1179 C   0  0  0  0  0  0
  -28.0914  -22.5222   20.2116 C   0  0  0  0  0  0
  -28.6866  -25.1707   20.2094 C   0  0  0  0  0  0
  -28.6121  -18.0475   20.3829 C   0  0  0  0  0  0
  -29.9461  -17.1901   20.5191 C   0  0  0  0  0  0
  -27.5905  -24.0284   20.1563 C   0  0  2  0  0  0
  -29.7332  -15.7050   20.6808 N   0  0  0  0  0  0
  -29.8675  -24.8234   20.2927 O   0  0  0  0  0  0
  -31.4758  -12.5377   19.1337 H   0  0  0  0  0  0
  -30.3978  -11.4008   19.9009 H   0  0  0  0  0  0
  -29.7619  -11.7124   17.4907 H   0  0  0  0  0  0
  -29.6356  -13.4387   17.7189 H   0  0  0  0  0  0
  -27.8635  -11.2709   18.8860 H   0  0  0  0  0  0
  -27.3675  -12.5322   17.7951 H   0  0  0  0  0  0
  -27.6601  -14.2369   19.4912 H   0  0  0  0  0  0
  -28.7091  -12.0637   21.3832 H   0  0  0  0  0  0
  -28.4418  -13.7302   21.8259 H   0  0  0  0  0  0
  -25.2772   -9.5668   22.4762 H   0  0  0  0  0  0
  -24.0002   -7.4629   22.7474 H   0  0  0  0  0  0
  -21.0865   -8.8769   19.8947 H   0  0  0  0  0  0
  -22.3728  -10.9659   19.6149 H   0  0  0  0  0  0
  -21.2027   -7.6153   23.9733 H   0  0  0  0  0  0
  -21.1448   -6.0512   25.9067 H   0  0  0  0  0  0
  -22.0620   -2.7623   23.2832 H   0  0  0  0  0  0
  -22.4133  -11.9828   22.4727 H   0  0  0  0  0  0
  -21.1122  -13.1207   22.2625 H   0  0  0  0  0  0
  -24.6567  -15.8368   20.4989 H   0  0  0  0  0  0
  -26.2573  -15.6167   20.0119 H   0  0  0  0  0  0
  -26.7098  -32.5432   23.1041 H   0  0  0  0  0  0
  -25.0101  -33.9715   25.0441 H   0  0  0  0  0  0
  -22.7096  -31.3056   21.4000 H   0  0  0  0  0  0
  -23.3741  -35.9628   23.3313 H   0  0  0  0  0  0
  -24.3607  -36.8923   22.2066 H   0  0  0  0  0  0
  -23.7206  -37.6484   23.6694 H   0  0  0  0  0  0
  -26.0656  -31.5332   20.5817 H   0  0  0  0  0  0
  -26.8344  -30.8508   21.9849 H   0  0  0  0  0  0
  -28.0818  -28.9755   21.2192 H   0  0  0  0  0  0
  -26.0323  -25.9710   18.9027 H   0  0  0  0  0  0
  -23.9892  -27.3161   18.9578 H   0  0  0  0  0  0
  -23.7346  -30.5812   19.4010 H   0  0  0  0  0  0
  -22.7391  -29.2351   19.8653 H   0  0  0  0  0  0
  -25.1278  -36.1953   25.0821 H   0  0  0  0  0  0
  -20.9953  -28.3249   24.1434 H   0  0  0  0  0  0
  -20.5802  -26.2260   23.3628 H   0  0  0  0  0  0
  -21.6666  -26.7519   22.1164 H   0  0  0  0  0  0
  -19.6951  -25.6297   21.1255 H   0  0  0  0  0  0
  -19.6704  -27.3227   20.6826 H   0  0  0  0  0  0
  -17.4222  -26.6740   21.3994 H   0  0  0  0  0  0
  -18.0271  -26.0095   22.9005 H   0  0  0  0  0  0
  -19.7955  -30.7298   24.2227 H   0  0  0  0  0  0
  -17.5034  -31.6279   24.5207 H   0  0  0  0  0  0
  -15.5363  -30.3017   23.7678 H   0  0  0  0  0  0
  -15.8670  -28.0868   22.7033 H   0  0  0  0  0  0
  -24.5905  -30.7012   25.7756 H   0  0  0  0  0  0
  -24.8844  -32.2858   26.4815 H   0  0  0  0  0  0
  -25.8002  -30.8916   27.0213 H   0  0  0  0  0  0
  -26.2906  -29.6766   24.1159 H   0  0  0  0  0  0
  -27.4164  -29.7313   25.4542 H   0  0  0  0  0  0
  -27.8692  -30.4417   23.9215 H   0  0  0  0  0  0
  -27.2665  -33.3674   26.1951 H   0  0  0  0  0  0
  -28.3861  -32.6804   25.0281 H   0  0  0  0  0  0
  -28.0650  -31.8489   26.5415 H   0  0  0  0  0  0
  -28.2578  -38.0109   24.7574 H   0  0  0  0  0  0
  -28.1042  -36.2636   24.6212 H   0  0  0  0  0  0
  -27.2290  -37.1362   25.8878 H   0  0  0  0  0  0
  -20.9318  -29.8713   21.6893 H   0  0  0  0  0  0
  -26.0139  -38.2848   24.1456 H   0  0  0  0  0  0
  -23.3431  -24.7994   23.4776 H   0  0  0  0  0  0
  -22.9969  -23.9734   21.1527 H   0  0  0  0  0  0
  -25.6485  -25.2350   24.3069 H   0  0  0  0  0  0
  -24.9367  -23.6183   19.6569 H   0  0  0  0  0  0
  -27.6003  -24.8938   22.8147 H   0  0  0  0  0  0
  -28.4055  -19.7582   18.1588 H   0  0  0  0  0  0
  -28.7056  -19.9505   22.4436 H   0  0  0  0  0  0
  -27.9809  -22.1761   18.0754 H   0  0  0  0  0  0
  -28.2833  -22.3762   22.3620 H   0  0  0  0  0  0
  -28.0805  -17.6982   19.4976 H   0  0  0  0  0  0
  -27.9517  -17.7850   21.2117 H   0  0  0  0  0  0
  -30.5121  -17.5428   21.3825 H   0  0  0  0  0  0
  -30.5805  -17.3629   19.6484 H   0  0  0  0  0  0
  -27.1732  -24.1309   19.1564 H   0  0  0  0  0  0
  -28.7954  -15.4266   20.9247 H   0  0  0  0  0  0
  1 25  1  0  0  0
  1 30  2  0  0  0
  1 87  1  0  0  0
  2  3  1  0  0  0
  2 25  1  0  0  0
  2 89  1  0  0  0
  2 90  1  0  0  0
  3  4  1  0  0  0
  3 91  1  0  0  0
  3 92  1  0  0  0
  4  5  1  0  0  0
  4 93  1  0  0  0
  4 94  1  0  0  0
  5  6  1  0  0  0
  5 26  1  0  0  0
  5 95  1  0  0  0
  6 25  1  0  0  0
  6 96  1  0  0  0
  6 97  1  0  0  0
  7  8  2  0  0  0
  7 26  1  0  0  0
  7 29  1  0  0  0
  8  9  1  0  0  0
  8 22  1  0  0  0
  9 10  1  0  0  0
  9 27  2  0  0  0
 10 11  2  0  0  0
 10 15  1  0  0  0
 11 12  1  0  0  0
 11 98  1  0  0  0
 12 13  2  0  0  0
 12 99  1  0  0  0
 13 14  1  0  0  0
 13 31  1  0  0  0
 14 15  2  0  0  0
 14100  1  0  0  0
 15101  1  0  0  0
 16 17  2  0  0  0
 16 21  1  0  0  0
 16 31  1  0  0  0
 17 18  1  0  0  0
 17102  1  0  0  0
 18 19  2  0  0  0
 18103  1  0  0  0
 19 20  1  0  0  0
 19 24  1  0  0  0
 20 21  2  0  0  0
 20104  1  0  0  0
 21 23  1  0  0  0
 22 28  1  0  0  0
 22 32  2  0  0  0
 26 27  1  0  0  0
 28105  1  0  0  0
 28106  1  0  0  0
 29107  1  0  0  0
 29108  1  0  0  0
 33 34  1  0  0  0
 33 66  1  0  0  0
 33 70  2  0  0  0
 34 36  1  0  0  0
 34 59  1  0  0  0
 34109  1  0  0  0
 35 44  2  0  0  0
 35 45  1  0  0  0
 35 68  1  0  0  0
 36 56  1  0  0  0
 36110  1  0  0  0
 37 39  1  0  0  0
 37 47  1  0  0  0
 37 66  1  0  0  0
 37111  1  0  0  0
 38 43  2  0  0  0
 38 46  1  0  0  0
 38 47  1  0  0  0
 39 64  1  0  0  0
 39 67  2  0  0  0
 40 52  1  0  0  0
 40 53  2  0  0  0
 40 58  1  0  0  0
 41112  1  0  0  0
 41113  1  0  0  0
 41114  1  0  0  0
 41 48  1  0  0  0
 42 43  1  0  0  0
 42 66  1  0  0  0
 42115  1  0  0  0
 42116  1  0  0  0
 43 44  1  0  0  0
 44117  1  0  0  0
 45 46  2  0  0  0
 45118  1  0  0  0
 46119  1  0  0  0
 47120  1  0  0  0
 47121  1  0  0  0
 48 56  1  0  0  0
 48 65  1  0  0  0
 48122  1  0  0  0
 49 50  1  0  0  0
 49 53  1  0  0  0
 49 64  1  0  0  0
 49123  1  0  0  0
 50 51  1  0  0  0
 50124  1  0  0  0
 50125  1  0  0  0
 51 52  1  0  0  0
 51126  1  0  0  0
 51127  1  0  0  0
 52128  1  0  0  0
 52129  1  0  0  0
 53 54  1  0  0  0
 54 55  2  0  0  0
 54130  1  0  0  0
 55 57  1  0  0  0
 55131  1  0  0  0
 56 69  2  0  0  0
 57 58  2  0  0  0
 57132  1  0  0  0
 58133  1  0  0  0
 59 60  1  0  0  0
 59 61  1  0  0  0
 59 62  1  0  0  0
 60134  1  0  0  0
 60135  1  0  0  0
 60136  1  0  0  0
 61137  1  0  0  0
 61138  1  0  0  0
 61139  1  0  0  0
 62140  1  0  0  0
 62141  1  0  0  0
 62142  1  0  0  0
 63 65  1  0  0  0
 63143  1  0  0  0
 63144  1  0  0  0
 63145  1  0  0  0
 64146  1  0  0  0
 65147  1  0  0  0
 68 83  1  0  0  0
 71 72  2  0  0  0
 71 73  1  0  0  0
 71148  1  0  0  0
 72 74  1  0  0  0
 72149  1  0  0  0
 73 75  2  0  0  0
 73150  1  0  0  0
 74 81  2  0  0  0
 74151  1  0  0  0
 75 81  1  0  0  0
 75152  1  0  0  0
 76 78  2  0  0  0
 76 80  1  0  0  0
 76153  1  0  0  0
 77 79  1  0  0  0
 77 80  2  0  0  0
 77154  1  0  0  0
 78 82  1  0  0  0
 78155  1  0  0  0
 79 82  2  0  0  0
 79156  1  0  0  0
 80 84  1  0  0  0
 81 86  1  0  0  0
 82 86  1  0  0  0
 83 88  2  0  0  0
 83 86  1  0  0  0
 84 85  1  0  0  0
 84157  1  0  0  0
 84158  1  0  0  0
 85 87  1  0  0  0
 85159  1  0  0  0
 85160  1  0  0  0
 86161  1  0  0  0
 87162  1  0  0  0
M  ISO  4   1 100  68 101  83 101  87 100
M  END
> <chiral flag>
0

> <version>
0

> <s_m_source_file>
/data/baiqing/PycharmProjects/Reinvent-master-3.2/result/LINK_invent/BTK/process_docking_weight1_custom_product_contain_oxygen_bond_distance_aromatic_linkinvent_7_9_3/rearranged_h_0002.sdf

> <i_m_source_file_index>
78

> <r_mmod_Potential_Energy-OPLS-2005>
170.893295288086

> <r_mmod_Stretch_Energy-OPLS-2005>
87.1406860351562

> <r_mmod_Bend_Energy-OPLS-2005>
168.753295898438

> <r_mmod_Torsional_Energy-OPLS-2005>
214.195709228516

> <r_mmod_Improper_Torsional_Energy-OPLS-2005>
7.69109869003296

> <r_mmod_Van_der_Waal_Energy-OPLS-2005>
139.543914794922

> <r_mmod_Electrostatic_Energy-OPLS-2005>
-267.752777099609

> <r_mmod_Solvation_Energy-OPLS-2005>
-226.257125854492

> <b_mmod_Minimization_Converged-OPLS-2005>
0

> <r_mmod_RMS_Derivative-OPLS-2005>
3.79385662078857

$$$$
78
                    3D
 Structure written by MMmdl.
147155  0  0  1  0            999 V2000
  -30.3056  -15.5909   20.3155 C   0  0  0  0  0  0
  -30.4390  -13.0438   19.5403 C   0  0  0  0  0  0
  -29.5585  -12.6371   18.3244 C   0  0  0  0  0  0
  -28.1252  -12.2991   18.7648 C   0  0  0  0  0  0
  -27.6040  -13.3026   19.8184 C   0  0  2  0  0  0
  -28.6253  -13.6060   20.9382 C   0  0  0  0  0  0
  -25.2354  -13.8285   20.5784 C   0  0  0  0  0  0
  -24.1724  -13.0453   20.9298 C   0  0  0  0  0  0
  -24.6426  -11.6955   20.8789 C   0  0  0  0  0  0
  -23.9122  -10.4308   21.0434 C   0  0  0  0  0  0
  -24.3650   -9.4215   21.9209 C   0  0  0  0  0  0
  -23.6299   -8.2263   22.0776 C   0  0  0  0  0  0
  -22.4283   -8.0322   21.3573 C   0  0  0  0  0  0
  -21.9935   -9.0302   20.4676 C   0  0  0  0  0  0
  -22.7294  -10.2170   20.3086 C   0  0  0  0  0  0
  -21.6861   -6.0761   22.5290 C   0  0  0  0  0  0
  -21.4022   -6.5655   23.8230 C   0  0  0  0  0  0
  -21.3652   -5.6804   24.9181 C   0  0  0  0  0  0
  -21.6034   -4.3064   24.7228 C   0  0  0  0  0  0
  -21.8812   -3.8162   23.4344 C   0  0  0  0  0  0
  -21.9193   -4.6981   22.3405 C   0  0  0  0  0  0
  -22.7733  -13.5204   21.1909 C   0  0  0  0  0  0
  -22.1652   -4.2169   21.0979 F   0  0  0  0  0  0
  -21.5613   -3.4545   25.7733 F   0  0  0  0  0  0
  -29.8079  -14.2187   20.2893 N   0  0  0  0  0  0
  -26.2811  -12.9609   20.3249 N   0  0  0  0  0  0
  -25.9378  -11.6690   20.5725 N   0  0  0  0  0  0
  -22.0344  -12.8239   22.0461 N   0  0  0  0  0  0
  -25.3933  -15.2024   20.4167 N   0  0  0  0  0  0
  -31.5354  -15.5643   20.1222 O   0  0  0  0  0  0
  -21.6647   -6.8914   21.4261 O   0  0  0  0  0  0
  -22.3441  -14.5504   20.6723 O   0  0  0  0  0  0
  -24.6839  -31.7985   23.1533 C   0  0  0  0  0  0
  -25.9418  -32.4452   23.8076 C   0  0  1  0  0  0
  -27.2302  -26.7089   20.2037 C   0  0  0  0  0  0
  -25.5990  -33.8283   24.1953 N   0  0  0  0  0  0
  -23.5107  -30.4017   21.5058 C   0  0  2  0  0  0
  -24.9690  -28.7449   20.1155 C   0  0  0  0  0  0
  -22.7761  -29.4308   22.4709 C   0  0  0  0  0  0
  -18.0337  -28.1417   22.8454 C   0  0  0  0  0  0
  -24.1504  -36.7158   23.2658 C   0  0  0  0  0  0
  -26.0923  -30.5315   21.4198 C   0  0  0  0  0  0
  -26.1584  -29.0983   20.7649 C   0  0  0  0  0  0
  -27.2729  -28.1087   20.7785 C   0  0  0  0  0  0
  -26.0092  -26.5650   19.4959 C   0  0  0  0  0  0
  -24.9333  -27.5028   19.4577 C   0  0  0  0  0  0
  -23.7644  -29.6994   20.1409 C   0  0  0  0  0  0
  -25.4158  -36.2892   24.0282 C   0  0  1  0  0  0
  -20.5971  -28.3774   23.1133 C   0  0  2  0  0  0
  -20.6816  -26.9435   22.5397 C   0  0  0  0  0  0
  -19.5790  -26.6373   21.5211 C   0  0  0  0  0  0
  -18.1970  -26.7945   22.1620 C   0  0  0  0  0  0
  -19.1605  -28.8924   23.2776 C   0  0  0  0  0  0
  -18.9507  -30.1513   23.8815 C   0  0  0  0  0  0
  -17.6494  -30.6599   24.0546 C   0  0  0  0  0  0
  -25.9131  -34.9274   23.4961 C   0  0  0  0  0  0
  -16.5383  -29.9080   23.6350 C   0  0  0  0  0  0
  -16.7315  -28.6508   23.0361 C   0  0  0  0  0  0
  -26.4583  -31.6501   25.0709 C   0  0  0  0  0  0
  -25.3649  -31.3820   26.1324 C   0  0  0  0  0  0
  -27.0519  -30.2836   24.6635 C   0  0  0  0  0  0
  -27.6031  -32.4367   25.7517 C   0  0  0  0  0  0
  -27.5576  -37.1742   24.8474 C   0  0  0  0  0  0
  -21.4413  -29.3016   22.3443 N   0  0  0  0  0  0
  -26.4290  -37.3647   23.9392 N   0  0  0  0  0  0
  -24.7859  -30.9437   22.0780 N   0  0  0  0  0  0
  -23.4203  -28.7904   23.3049 O   0  0  0  0  0  0
  -28.1815  -25.4836   20.2880 O   0  0  0  0  0  0
  -26.5777  -34.8842   22.4579 O   0  0  0  0  0  0
  -23.5863  -32.1049   23.6491 O   0  0  0  0  0  0
  -28.7204  -21.1038   21.3336 C   0  0  0  0  0  0
  -29.0478  -19.6080   21.3845 C   0  0  0  0  0  0
  -29.0022  -21.0707   19.1329 C   0  0  0  0  0  0
  -28.6464  -22.0646   20.1965 C   0  0  0  0  0  0
  -29.3323  -19.5696   19.1677 C   0  0  0  0  0  0
  -29.4057  -18.6217   20.3208 C   0  0  0  0  0  0
  -29.5456  -18.9220   17.8057 C   0  0  0  0  0  0
  -27.9033  -23.7751   20.0254 C   0  0  0  0  0  0
  -29.4801  -16.9036   20.3974 N   0  0  0  0  0  0
  -31.4334  -13.3074   19.1772 H   0  0  0  0  0  0
  -30.5964  -12.1918   20.2048 H   0  0  0  0  0  0
  -30.0008  -11.7879   17.8020 H   0  0  0  0  0  0
  -29.5330  -13.4595   17.6081 H   0  0  0  0  0  0
  -28.1426  -11.2981   19.1976 H   0  0  0  0  0  0
  -27.4568  -12.2550   17.9043 H   0  0  0  0  0  0
  -27.4777  -14.2321   19.2620 H   0  0  0  0  0  0
  -28.8740  -12.7086   21.5065 H   0  0  0  0  0  0
  -28.2041  -14.3184   21.6495 H   0  0  0  0  0  0
  -25.2791   -9.5672   22.4798 H   0  0  0  0  0  0
  -23.9989   -7.4655   22.7512 H   0  0  0  0  0  0
  -21.0854   -8.8871   19.8997 H   0  0  0  0  0  0
  -22.3768  -10.9726   19.6211 H   0  0  0  0  0  0
  -21.2027   -7.6168   23.9740 H   0  0  0  0  0  0
  -21.1468   -6.0527   25.9087 H   0  0  0  0  0  0
  -22.0586   -2.7625   23.2850 H   0  0  0  0  0  0
  -22.3922  -11.9917   22.4904 H   0  0  0  0  0  0
  -21.0973  -13.1343   22.2641 H   0  0  0  0  0  0
  -24.6122  -15.8406   20.5232 H   0  0  0  0  0  0
  -26.2130  -15.6467   20.0251 H   0  0  0  0  0  0
  -26.7498  -32.4911   23.0790 H   0  0  0  0  0  0
  -25.0017  -33.9305   25.0021 H   0  0  0  0  0  0
  -22.8361  -31.2399   21.3171 H   0  0  0  0  0  0
  -23.3762  -35.9496   23.3299 H   0  0  0  0  0  0
  -24.3565  -36.8833   22.2080 H   0  0  0  0  0  0
  -23.7270  -37.6338   23.6739 H   0  0  0  0  0  0
  -26.3026  -31.2582   20.6342 H   0  0  0  0  0  0
  -26.9417  -30.5929   22.0886 H   0  0  0  0  0  0
  -28.1665  -28.3830   21.3228 H   0  0  0  0  0  0
  -25.8433  -25.6253   18.9879 H   0  0  0  0  0  0
  -24.0371  -27.2234   18.9204 H   0  0  0  0  0  0
  -23.9339  -30.4601   19.3778 H   0  0  0  0  0  0
  -22.8693  -29.1649   19.8197 H   0  0  0  0  0  0
  -25.1362  -36.1677   25.0773 H   0  0  0  0  0  0
  -21.0048  -28.3410   24.1259 H   0  0  0  0  0  0
  -20.5677  -26.2390   23.3655 H   0  0  0  0  0  0
  -21.6679  -26.7385   22.1204 H   0  0  0  0  0  0
  -19.6946  -25.6267   21.1290 H   0  0  0  0  0  0
  -19.6735  -27.3129   20.6700 H   0  0  0  0  0  0
  -17.4229  -26.6656   21.4035 H   0  0  0  0  0  0
  -18.0386  -26.0108   22.9043 H   0  0  0  0  0  0
  -19.7976  -30.7370   24.2137 H   0  0  0  0  0  0
  -17.5032  -31.6267   24.5168 H   0  0  0  0  0  0
  -15.5381  -30.2954   23.7726 H   0  0  0  0  0  0
  -15.8713  -28.0808   22.7112 H   0  0  0  0  0  0
  -24.5804  -30.7217   25.7598 H   0  0  0  0  0  0
  -24.8880  -32.3053   26.4630 H   0  0  0  0  0  0
  -25.7806  -30.9024   27.0196 H   0  0  0  0  0  0
  -26.3242  -29.6438   24.1631 H   0  0  0  0  0  0
  -27.3920  -29.7295   25.5394 H   0  0  0  0  0  0
  -27.9233  -30.3936   24.0179 H   0  0  0  0  0  0
  -27.2550  -33.3704   26.1945 H   0  0  0  0  0  0
  -28.3911  -32.6881   25.0405 H   0  0  0  0  0  0
  -28.0631  -31.8619   26.5565 H   0  0  0  0  0  0
  -28.2583  -38.0043   24.7469 H   0  0  0  0  0  0
  -28.1069  -36.2558   24.6356 H   0  0  0  0  0  0
  -27.2272  -37.1450   25.8871 H   0  0  0  0  0  0
  -20.9713  -29.8651   21.6493 H   0  0  0  0  0  0
  -26.0127  -38.2706   24.1349 H   0  0  0  0  0  0
  -28.4393  -21.5279   22.2890 H   0  0  0  0  0  0
  -28.9662  -19.1779   22.3729 H   0  0  0  0  0  0
  -28.9592  -21.4904   18.1376 H   0  0  0  0  0  0
  -29.8995  -19.6366   17.0579 H   0  0  0  0  0  0
  -28.6105  -18.4870   17.4450 H   0  0  0  0  0  0
  -30.2885  -18.1244   17.8786 H   0  0  0  0  0  0
  -26.9319  -23.6357   20.5010 H   0  0  0  0  0  0
  -27.6642  -23.7756   18.9615 H   0  0  0  0  0  0
  -28.5441  -16.5726   20.5794 H   0  0  0  0  0  0
  1 25  1  0  0  0
  1 30  2  0  0  0
  1 79  1  0  0  0
  2  3  1  0  0  0
  2 25  1  0  0  0
  2 80  1  0  0  0
  2 81  1  0  0  0
  3  4  1  0  0  0
  3 82  1  0  0  0
  3 83  1  0  0  0
  4  5  1  0  0  0
  4 84  1  0  0  0
  4 85  1  0  0  0
  5  6  1  0  0  0
  5 26  1  0  0  0
  5 86  1  0  0  0
  6 25  1  0  0  0
  6 87  1  0  0  0
  6 88  1  0  0  0
  7  8  2  0  0  0
  7 26  1  0  0  0
  7 29  1  0  0  0
  8  9  1  0  0  0
  8 22  1  0  0  0
  9 10  1  0  0  0
  9 27  2  0  0  0
 10 11  2  0  0  0
 10 15  1  0  0  0
 11 12  1  0  0  0
 11 89  1  0  0  0
 12 13  2  0  0  0
 12 90  1  0  0  0
 13 14  1  0  0  0
 13 31  1  0  0  0
 14 15  2  0  0  0
 14 91  1  0  0  0
 15 92  1  0  0  0
 16 17  2  0  0  0
 16 21  1  0  0  0
 16 31  1  0  0  0
 17 18  1  0  0  0
 17 93  1  0  0  0
 18 19  2  0  0  0
 18 94  1  0  0  0
 19 20  1  0  0  0
 19 24  1  0  0  0
 20 21  2  0  0  0
 20 95  1  0  0  0
 21 23  1  0  0  0
 22 28  1  0  0  0
 22 32  2  0  0  0
 26 27  1  0  0  0
 28 96  1  0  0  0
 28 97  1  0  0  0
 29 98  1  0  0  0
 29 99  1  0  0  0
 33 34  1  0  0  0
 33 66  1  0  0  0
 33 70  2  0  0  0
 34 36  1  0  0  0
 34 59  1  0  0  0
 34100  1  0  0  0
 35 44  2  0  0  0
 35 45  1  0  0  0
 35 68  1  0  0  0
 36 56  1  0  0  0
 36101  1  0  0  0
 37 39  1  0  0  0
 37 47  1  0  0  0
 37 66  1  0  0  0
 37102  1  0  0  0
 38 43  2  0  0  0
 38 46  1  0  0  0
 38 47  1  0  0  0
 39 64  1  0  0  0
 39 67  2  0  0  0
 40 52  1  0  0  0
 40 53  2  0  0  0
 40 58  1  0  0  0
 41103  1  0  0  0
 41104  1  0  0  0
 41105  1  0  0  0
 41 48  1  0  0  0
 42 43  1  0  0  0
 42 66  1  0  0  0
 42106  1  0  0  0
 42107  1  0  0  0
 43 44  1  0  0  0
 44108  1  0  0  0
 45 46  2  0  0  0
 45109  1  0  0  0
 46110  1  0  0  0
 47111  1  0  0  0
 47112  1  0  0  0
 48 56  1  0  0  0
 48 65  1  0  0  0
 48113  1  0  0  0
 49 50  1  0  0  0
 49 53  1  0  0  0
 49 64  1  0  0  0
 49114  1  0  0  0
 50 51  1  0  0  0
 50115  1  0  0  0
 50116  1  0  0  0
 51 52  1  0  0  0
 51117  1  0  0  0
 51118  1  0  0  0
 52119  1  0  0  0
 52120  1  0  0  0
 53 54  1  0  0  0
 54 55  2  0  0  0
 54121  1  0  0  0
 55 57  1  0  0  0
 55122  1  0  0  0
 56 69  2  0  0  0
 57 58  2  0  0  0
 57123  1  0  0  0
 58124  1  0  0  0
 59 60  1  0  0  0
 59 61  1  0  0  0
 59 62  1  0  0  0
 60125  1  0  0  0
 60126  1  0  0  0
 60127  1  0  0  0
 61128  1  0  0  0
 61129  1  0  0  0
 61130  1  0  0  0
 62131  1  0  0  0
 62132  1  0  0  0
 62133  1  0  0  0
 63 65  1  0  0  0
 63134  1  0  0  0
 63135  1  0  0  0
 63136  1  0  0  0
 64137  1  0  0  0
 65138  1  0  0  0
 68 78  1  0  0  0
 71 72  2  0  0  0
 71 74  1  0  0  0
 71139  1  0  0  0
 72 76  1  0  0  0
 72140  1  0  0  0
 73 74  2  0  0  0
 73 75  1  0  0  0
 73141  1  0  0  0
 74 78  1  0  0  0
 75 76  2  0  0  0
 75 77  1  0  0  0
 76 79  1  0  0  0
 77142  1  0  0  0
 77143  1  0  0  0
 77144  1  0  0  0
 78145  1  0  0  0
 78146  1  0  0  0
 79147  1  0  0  0
M  ISO  4   1 100  68 101  78 101  79 100
M  END
> <chiral flag>
0

> <version>
0

> <s_m_source_file>
/data/baiqing/PycharmProjects/Reinvent-master-3.2/result/LINK_invent/BTK/process_docking_weight1_custom_product_contain_oxygen_bond_distance_aromatic_linkinvent_7_9_3/rearranged_h_0002.sdf

> <i_m_source_file_index>
79

> <r_mmod_Potential_Energy-OPLS-2005>
2252.31005859375

> <r_mmod_Stretch_Energy-OPLS-2005>
917.401550292969

> <r_mmod_Bend_Energy-OPLS-2005>
649.210205078125

> <r_mmod_Torsional_Energy-OPLS-2005>
259.007171630859

> <r_mmod_Improper_Torsional_Energy-OPLS-2005>
10.5041561126709

> <r_mmod_Van_der_Waal_Energy-OPLS-2005>
130.28239440918

> <r_mmod_Electrostatic_Energy-OPLS-2005>
-365.772888183594

> <r_mmod_Solvation_Energy-OPLS-2005>
-212.011962890625

> <b_mmod_Minimization_Converged-OPLS-2005>
0

> <r_mmod_RMS_Derivative-OPLS-2005>
2.78072738647461

$$$$
79
                    3D
 Structure written by MMmdl.
162170  0  0  1  0            999 V2000
  -30.7309  -14.4224   20.5062 C   0  0  0  0  0  0
  -30.4077  -12.2574   19.4318 C   0  0  0  0  0  0
  -29.4947  -12.4806   18.2088 C   0  0  0  0  0  0
  -28.0128  -12.3628   18.6156 C   0  0  0  0  0  0
  -27.6601  -13.2092   19.8701 C   0  0  2  0  0  0
  -28.7019  -13.0119   20.9970 C   0  0  0  0  0  0
  -25.2577  -13.8172   20.5682 C   0  0  0  0  0  0
  -24.1831  -13.0437   20.9174 C   0  0  0  0  0  0
  -24.6395  -11.6910   20.8731 C   0  0  0  0  0  0
  -23.9063  -10.4297   21.0403 C   0  0  0  0  0  0
  -24.3619   -9.4210   21.9174 C   0  0  0  0  0  0
  -23.6294   -8.2246   22.0745 C   0  0  0  0  0  0
  -22.4269   -8.0289   21.3547 C   0  0  0  0  0  0
  -21.9913   -9.0257   20.4642 C   0  0  0  0  0  0
  -22.7240  -10.2136   20.3051 C   0  0  0  0  0  0
  -21.6854   -6.0733   22.5277 C   0  0  0  0  0  0
  -21.4017   -6.5635   23.8212 C   0  0  0  0  0  0
  -21.3661   -5.6783   24.9171 C   0  0  0  0  0  0
  -21.6051   -4.3049   24.7220 C   0  0  0  0  0  0
  -21.8819   -3.8144   23.4341 C   0  0  0  0  0  0
  -21.9195   -4.6961   22.3400 C   0  0  0  0  0  0
  -22.7859  -13.5238   21.1838 C   0  0  0  0  0  0
  -22.1658   -4.2150   21.0977 F   0  0  0  0  0  0
  -21.5631   -3.4534   25.7732 F   0  0  0  0  0  0
  -30.0380  -13.2609   20.4374 N   0  0  0  0  0  0
  -26.3018  -12.9351   20.3352 N   0  0  0  0  0  0
  -25.9321  -11.6505   20.5766 N   0  0  0  0  0  0
  -22.0503  -12.8232   22.0405 N   0  0  0  0  0  0
  -25.4276  -15.1894   20.4089 N   0  0  0  0  0  0
  -31.9141  -14.5224   20.1689 O   0  0  0  0  0  0
  -21.6640   -6.8881   21.4240 O   0  0  0  0  0  0
  -22.3547  -14.5549   20.6687 O   0  0  0  0  0  0
  -24.6110  -31.8718   23.2121 C   0  0  0  0  0  0
  -25.9017  -32.4844   23.8409 C   0  0  1  0  0  0
  -27.2351  -27.4676   20.0921 C   0  0  0  0  0  0
  -25.5899  -33.8643   24.2353 N   0  0  0  0  0  0
  -23.3965  -30.4966   21.5514 C   0  0  2  0  0  0
  -24.8401  -28.9655   20.1148 C   0  0  0  0  0  0
  -22.7387  -29.4684   22.4984 C   0  0  0  0  0  0
  -18.0274  -28.1377   22.8496 C   0  0  0  0  0  0
  -24.1484  -36.7314   23.2639 C   0  0  0  0  0  0
  -25.9206  -30.8484   21.3573 C   0  0  0  0  0  0
  -25.9967  -29.4841   20.7082 C   0  0  0  0  0  0
  -27.1947  -28.7416   20.6942 C   0  0  0  0  0  0
  -26.0583  -26.9580   19.4906 C   0  0  0  0  0  0
  -24.8635  -27.6996   19.5058 C   0  0  0  0  0  0
  -23.6012  -29.8292   20.1651 C   0  0  0  0  0  0
  -25.4107  -36.3133   24.0346 C   0  0  1  0  0  0
  -20.5863  -28.3662   23.1324 C   0  0  2  0  0  0
  -20.6762  -26.9404   22.5413 C   0  0  0  0  0  0
  -19.5738  -26.6386   21.5214 C   0  0  0  0  0  0
  -18.1918  -26.7926   22.1628 C   0  0  0  0  0  0
  -19.1523  -28.8835   23.2909 C   0  0  0  0  0  0
  -18.9456  -30.1441   23.8922 C   0  0  0  0  0  0
  -17.6461  -30.6589   24.0580 C   0  0  0  0  0  0
  -25.9029  -34.9493   23.5142 C   0  0  0  0  0  0
  -16.5351  -29.9097   23.6328 C   0  0  0  0  0  0
  -16.7263  -28.6512   23.0346 C   0  0  0  0  0  0
  -26.4456  -31.6615   25.0725 C   0  0  0  0  0  0
  -25.3741  -31.3708   26.1477 C   0  0  0  0  0  0
  -27.0279  -30.3073   24.6055 C   0  0  0  0  0  0
  -27.6049  -32.4317   25.7477 C   0  0  0  0  0  0
  -27.5578  -37.1808   24.8470 C   0  0  0  0  0  0
  -21.4118  -29.3039   22.3726 N   0  0  0  0  0  0
  -26.4298  -37.3811   23.9408 N   0  0  0  0  0  0
  -24.6613  -31.0856   22.0998 N   0  0  0  0  0  0
  -23.4177  -28.8221   23.3009 O   0  0  0  0  0  0
  -28.4328  -26.7894   20.1197 O   0  0  0  0  0  0
  -26.5581  -34.8939   22.4693 O   0  0  0  0  0  0
  -23.5312  -32.1440   23.7537 O   0  0  0  0  0  0
  -30.7418  -19.1316   19.9906 C   0  0  0  0  0  0
  -30.9325  -17.8508   17.9269 C   0  0  0  0  0  0
  -30.3349  -17.9674   20.6806 C   0  0  0  0  0  0
  -30.5183  -16.6967   18.6075 C   0  0  0  0  0  0
  -31.0712  -19.0680   18.6178 C   0  0  0  0  0  0
  -30.2676  -16.7336   20.0000 C   0  0  0  0  0  0
  -31.6085  -20.2794   17.8737 C   0  0  0  0  0  0
  -30.6820  -20.7387   16.7319 C   0  0  0  0  0  0
  -29.4194  -21.4600   17.2278 C   0  0  0  0  0  0
  -29.6787  -22.9487   17.5083 C   0  0  0  0  0  0
  -28.7490  -25.0120   18.5128 C   0  0  0  0  0  0
  -28.4220  -25.3738   19.9671 C   0  0  0  0  0  0
  -29.9946  -15.5278   20.7031 N   0  0  0  0  0  0
  -28.5754  -23.5641   18.2668 N   0  3  0  0  0  0
  -31.4572  -12.3173   19.1377 H   0  0  0  0  0  0
  -30.2716  -11.2546   19.8390 H   0  0  0  0  0  0
  -29.7270  -11.7546   17.4292 H   0  0  0  0  0  0
  -29.6818  -13.4636   17.7749 H   0  0  0  0  0  0
  -27.8087  -11.3099   18.8118 H   0  0  0  0  0  0
  -27.3723  -12.6462   17.7798 H   0  0  0  0  0  0
  -27.6974  -14.2532   19.5601 H   0  0  0  0  0  0
  -28.6578  -11.9939   21.3855 H   0  0  0  0  0  0
  -28.4907  -13.6658   21.8441 H   0  0  0  0  0  0
  -25.2763   -9.5685   22.4746 H   0  0  0  0  0  0
  -24.0003   -7.4640   22.7467 H   0  0  0  0  0  0
  -21.0841   -8.8781   19.8955 H   0  0  0  0  0  0
  -22.3698  -10.9672   19.6167 H   0  0  0  0  0  0
  -21.2009   -7.6142   23.9717 H   0  0  0  0  0  0
  -21.1485   -6.0511   25.9076 H   0  0  0  0  0  0
  -22.0599   -2.7608   23.2837 H   0  0  0  0  0  0
  -22.4098  -11.9894   22.4805 H   0  0  0  0  0  0
  -21.1127  -13.1272   22.2609 H   0  0  0  0  0  0
  -24.6579  -15.8418   20.5170 H   0  0  0  0  0  0
  -26.2775  -15.6339   20.0862 H   0  0  0  0  0  0
  -26.7093  -32.5575   23.1184 H   0  0  0  0  0  0
  -25.0110  -33.9820   25.0538 H   0  0  0  0  0  0
  -22.6851  -31.3137   21.4142 H   0  0  0  0  0  0
  -23.3756  -35.9635   23.3325 H   0  0  0  0  0  0
  -24.3582  -36.8896   22.2048 H   0  0  0  0  0  0
  -23.7215  -37.6522   23.6625 H   0  0  0  0  0  0
  -26.0219  -31.6140   20.5863 H   0  0  0  0  0  0
  -26.8129  -30.9062   21.9683 H   0  0  0  0  0  0
  -28.0892  -29.1413   21.1515 H   0  0  0  0  0  0
  -26.0416  -25.9989   18.9973 H   0  0  0  0  0  0
  -23.9731  -27.2950   19.0436 H   0  0  0  0  0  0
  -23.7062  -30.6041   19.4039 H   0  0  0  0  0  0
  -22.7257  -29.2462   19.8732 H   0  0  0  0  0  0
  -25.1280  -36.2014   25.0841 H   0  0  0  0  0  0
  -20.9972  -28.3224   24.1438 H   0  0  0  0  0  0
  -20.5671  -26.2275   23.3595 H   0  0  0  0  0  0
  -21.6631  -26.7447   22.1209 H   0  0  0  0  0  0
  -19.6904  -25.6300   21.1234 H   0  0  0  0  0  0
  -19.6682  -27.3210   20.6755 H   0  0  0  0  0  0
  -17.4192  -26.6692   21.4026 H   0  0  0  0  0  0
  -18.0310  -26.0061   22.9013 H   0  0  0  0  0  0
  -19.7936  -30.7247   24.2297 H   0  0  0  0  0  0
  -17.5026  -31.6274   24.5170 H   0  0  0  0  0  0
  -15.5355  -30.3014   23.7635 H   0  0  0  0  0  0
  -15.8665  -28.0852   22.7034 H   0  0  0  0  0  0
  -24.5911  -30.7064   25.7809 H   0  0  0  0  0  0
  -24.8943  -32.2864   26.4947 H   0  0  0  0  0  0
  -25.8101  -30.8861   27.0221 H   0  0  0  0  0  0
  -26.2808  -29.6857   24.1112 H   0  0  0  0  0  0
  -27.4082  -29.7285   25.4481 H   0  0  0  0  0  0
  -27.8628  -30.4425   23.9175 H   0  0  0  0  0  0
  -27.2684  -33.3603   26.2098 H   0  0  0  0  0  0
  -28.3829  -32.6896   25.0281 H   0  0  0  0  0  0
  -28.0749  -31.8417   26.5357 H   0  0  0  0  0  0
  -28.2617  -38.0088   24.7515 H   0  0  0  0  0  0
  -28.1057  -36.2620   24.6309 H   0  0  0  0  0  0
  -27.2295  -37.1471   25.8876 H   0  0  0  0  0  0
  -20.9251  -29.8782   21.6985 H   0  0  0  0  0  0
  -26.0202  -38.2896   24.1411 H   0  0  0  0  0  0
  -30.8332  -20.0648   20.5293 H   0  0  0  0  0  0
  -31.1743  -17.7860   16.8753 H   0  0  0  0  0  0
  -30.1275  -18.0196   21.7403 H   0  0  0  0  0  0
  -30.4487  -15.7706   18.0548 H   0  0  0  0  0  0
  -32.5793  -20.0066   17.4579 H   0  0  0  0  0  0
  -31.8096  -21.0926   18.5717 H   0  0  0  0  0  0
  -31.2336  -21.4020   16.0643 H   0  0  0  0  0  0
  -30.4015  -19.8838   16.1155 H   0  0  0  0  0  0
  -29.0310  -20.9552   18.1136 H   0  0  0  0  0  0
  -28.6398  -21.3790   16.4703 H   0  0  0  0  0  0
  -29.8176  -23.4836   16.5661 H   0  0  0  0  0  0
  -30.6019  -23.0685   18.0772 H   0  0  0  0  0  0
  -29.7736  -25.3256   18.3026 H   0  0  0  0  0  0
  -28.1111  -25.5599   17.8193 H   0  0  0  0  0  0
  -27.4887  -24.9255   20.3101 H   0  0  0  0  0  0
  -29.1924  -24.9655   20.6211 H   0  0  0  0  0  0
  -29.0739  -15.4181   21.1005 H   0  0  0  0  0  0
  -28.4993  -23.0843   19.1503 H   0  0  0  0  0  0
  -27.7079  -23.4215   17.7722 H   0  0  0  0  0  0
  1 25  1  0  0  0
  1 30  2  0  0  0
  1 83  1  0  0  0
  2  3  1  0  0  0
  2 25  1  0  0  0
  2 85  1  0  0  0
  2 86  1  0  0  0
  3  4  1  0  0  0
  3 87  1  0  0  0
  3 88  1  0  0  0
  4  5  1  0  0  0
  4 89  1  0  0  0
  4 90  1  0  0  0
  5  6  1  0  0  0
  5 26  1  0  0  0
  5 91  1  0  0  0
  6 25  1  0  0  0
  6 92  1  0  0  0
  6 93  1  0  0  0
  7  8  2  0  0  0
  7 26  1  0  0  0
  7 29  1  0  0  0
  8  9  1  0  0  0
  8 22  1  0  0  0
  9 10  1  0  0  0
  9 27  2  0  0  0
 10 11  2  0  0  0
 10 15  1  0  0  0
 11 12  1  0  0  0
 11 94  1  0  0  0
 12 13  2  0  0  0
 12 95  1  0  0  0
 13 14  1  0  0  0
 13 31  1  0  0  0
 14 15  2  0  0  0
 14 96  1  0  0  0
 15 97  1  0  0  0
 16 17  2  0  0  0
 16 21  1  0  0  0
 16 31  1  0  0  0
 17 18  1  0  0  0
 17 98  1  0  0  0
 18 19  2  0  0  0
 18 99  1  0  0  0
 19 20  1  0  0  0
 19 24  1  0  0  0
 20 21  2  0  0  0
 20100  1  0  0  0
 21 23  1  0  0  0
 22 28  1  0  0  0
 22 32  2  0  0  0
 26 27  1  0  0  0
 28101  1  0  0  0
 28102  1  0  0  0
 29103  1  0  0  0
 29104  1  0  0  0
 33 34  1  0  0  0
 33 66  1  0  0  0
 33 70  2  0  0  0
 34 36  1  0  0  0
 34 59  1  0  0  0
 34105  1  0  0  0
 35 44  2  0  0  0
 35 45  1  0  0  0
 35 68  1  0  0  0
 36 56  1  0  0  0
 36106  1  0  0  0
 37 39  1  0  0  0
 37 47  1  0  0  0
 37 66  1  0  0  0
 37107  1  0  0  0
 38 43  2  0  0  0
 38 46  1  0  0  0
 38 47  1  0  0  0
 39 64  1  0  0  0
 39 67  2  0  0  0
 40 52  1  0  0  0
 40 53  2  0  0  0
 40 58  1  0  0  0
 41108  1  0  0  0
 41109  1  0  0  0
 41110  1  0  0  0
 41 48  1  0  0  0
 42 43  1  0  0  0
 42 66  1  0  0  0
 42111  1  0  0  0
 42112  1  0  0  0
 43 44  1  0  0  0
 44113  1  0  0  0
 45 46  2  0  0  0
 45114  1  0  0  0
 46115  1  0  0  0
 47116  1  0  0  0
 47117  1  0  0  0
 48 56  1  0  0  0
 48 65  1  0  0  0
 48118  1  0  0  0
 49 50  1  0  0  0
 49 53  1  0  0  0
 49 64  1  0  0  0
 49119  1  0  0  0
 50 51  1  0  0  0
 50120  1  0  0  0
 50121  1  0  0  0
 51 52  1  0  0  0
 51122  1  0  0  0
 51123  1  0  0  0
 52124  1  0  0  0
 52125  1  0  0  0
 53 54  1  0  0  0
 54 55  2  0  0  0
 54126  1  0  0  0
 55 57  1  0  0  0
 55127  1  0  0  0
 56 69  2  0  0  0
 57 58  2  0  0  0
 57128  1  0  0  0
 58129  1  0  0  0
 59 60  1  0  0  0
 59 61  1  0  0  0
 59 62  1  0  0  0
 60130  1  0  0  0
 60131  1  0  0  0
 60132  1  0  0  0
 61133  1  0  0  0
 61134  1  0  0  0
 61135  1  0  0  0
 62136  1  0  0  0
 62137  1  0  0  0
 62138  1  0  0  0
 63 65  1  0  0  0
 63139  1  0  0  0
 63140  1  0  0  0
 63141  1  0  0  0
 64142  1  0  0  0
 65143  1  0  0  0
 68 82  1  0  0  0
 71 73  2  0  0  0
 71 75  1  0  0  0
 71144  1  0  0  0
 72 74  1  0  0  0
 72 75  2  0  0  0
 72145  1  0  0  0
 73 76  1  0  0  0
 73146  1  0  0  0
 74 76  2  0  0  0
 74147  1  0  0  0
 75 77  1  0  0  0
 76 83  1  0  0  0
 77 78  1  0  0  0
 77148  1  0  0  0
 77149  1  0  0  0
 78 79  1  0  0  0
 78150  1  0  0  0
 78151  1  0  0  0
 79 80  1  0  0  0
 79152  1  0  0  0
 79153  1  0  0  0
 80 84  1  0  0  0
 80154  1  0  0  0
 80155  1  0  0  0
 81 82  1  0  0  0
 81 84  1  0  0  0
 81156  1  0  0  0
 81157  1  0  0  0
 82158  1  0  0  0
 82159  1  0  0  0
 83160  1  0  0  0
 84161  1  0  0  0
 84162  1  0  0  0
M  CHG  1  84   1
M  ISO  4   1 100  68 101  82 101  83 100
M  END
> <chiral flag>
0

> <version>
0

> <s_m_source_file>
/data/baiqing/PycharmProjects/Reinvent-master-3.2/result/LINK_invent/BTK/process_docking_weight1_custom_product_contain_oxygen_bond_distance_aromatic_linkinvent_7_9_3/rearranged_h_0002.sdf

> <i_m_source_file_index>
80

> <r_mmod_Potential_Energy-OPLS-2005>
-136.684646606445

> <r_mmod_Stretch_Energy-OPLS-2005>
30.9294738769531

> <r_mmod_Bend_Energy-OPLS-2005>
89.5448760986328

> <r_mmod_Torsional_Energy-OPLS-2005>
258.934326171875

> <r_mmod_Improper_Torsional_Energy-OPLS-2005>
7.48716831207275

> <r_mmod_Van_der_Waal_Energy-OPLS-2005>
157.872299194336

> <r_mmod_Electrostatic_Energy-OPLS-2005>
-238.163818359375

> <r_mmod_Solvation_Energy-OPLS-2005>
-460.415954589844

> <b_mmod_Minimization_Converged-OPLS-2005>
0

> <r_mmod_RMS_Derivative-OPLS-2005>
1.55630791187286

$$$$
80
                    3D
 Structure written by MMmdl.
148156  0  0  1  0            999 V2000
  -30.4788  -15.1874   20.3787 C   0  0  0  0  0  0
  -30.4369  -12.7547   19.5188 C   0  0  0  0  0  0
  -29.5305  -12.5630   18.2785 C   0  0  0  0  0  0
  -28.0752  -12.3031   18.7051 C   0  0  0  0  0  0
  -27.6145  -13.2704   19.8247 C   0  0  2  0  0  0
  -28.6515  -13.4179   20.9586 C   0  0  0  0  0  0
  -25.2399  -13.8241   20.5740 C   0  0  0  0  0  0
  -24.1747  -13.0435   20.9255 C   0  0  0  0  0  0
  -24.6398  -11.6931   20.8764 C   0  0  0  0  0  0
  -23.9092  -10.4291   21.0408 C   0  0  0  0  0  0
  -24.3636   -9.4204   21.9185 C   0  0  0  0  0  0
  -23.6304   -8.2243   22.0755 C   0  0  0  0  0  0
  -22.4286   -8.0283   21.3545 C   0  0  0  0  0  0
  -21.9927   -9.0258   20.4647 C   0  0  0  0  0  0
  -22.7263  -10.2133   20.3056 C   0  0  0  0  0  0
  -21.6856   -6.0738   22.5278 C   0  0  0  0  0  0
  -21.4017   -6.5641   23.8212 C   0  0  0  0  0  0
  -21.3660   -5.6793   24.9173 C   0  0  0  0  0  0
  -21.6044   -4.3056   24.7224 C   0  0  0  0  0  0
  -21.8818   -3.8148   23.4344 C   0  0  0  0  0  0
  -21.9193   -4.6965   22.3401 C   0  0  0  0  0  0
  -22.7764  -13.5191   21.1900 C   0  0  0  0  0  0
  -22.1661   -4.2151   21.0978 F   0  0  0  0  0  0
  -21.5628   -3.4539   25.7736 F   0  0  0  0  0  0
  -29.8938  -13.8977   20.3346 N   0  0  0  0  0  0
  -26.2827  -12.9511   20.3223 N   0  0  0  0  0  0
  -25.9334  -11.6620   20.5729 N   0  0  0  0  0  0
  -22.0421  -12.8175   22.0453 N   0  0  0  0  0  0
  -25.4030  -15.1975   20.4166 N   0  0  0  0  0  0
  -31.6977  -15.1808   20.1651 O   0  0  0  0  0  0
  -21.6645   -6.8883   21.4241 O   0  0  0  0  0  0
  -22.3445  -14.5492   20.6737 O   0  0  0  0  0  0
  -24.6593  -31.8287   23.1758 C   0  0  0  0  0  0
  -25.9293  -32.4615   23.8203 C   0  0  1  0  0  0
  -27.2135  -26.9718   20.1719 C   0  0  0  0  0  0
  -25.5977  -33.8428   24.2107 N   0  0  0  0  0  0
  -23.4717  -30.4440   21.5246 C   0  0  2  0  0  0
  -24.9245  -28.8450   20.1104 C   0  0  0  0  0  0
  -22.7650  -29.4469   22.4798 C   0  0  0  0  0  0
  -18.0320  -28.1406   22.8469 C   0  0  0  0  0  0
  -24.1494  -36.7220   23.2646 C   0  0  0  0  0  0
  -26.0398  -30.6490   21.4014 C   0  0  0  0  0  0
  -26.1083  -29.2447   20.7432 C   0  0  0  0  0  0
  -27.2496  -28.3279   20.7534 C   0  0  0  0  0  0
  -26.0021  -26.7230   19.4854 C   0  0  0  0  0  0
  -24.8946  -27.6030   19.4617 C   0  0  0  0  0  0
  -23.7090  -29.7669   20.1482 C   0  0  0  0  0  0
  -25.4133  -36.2985   24.0303 C   0  0  1  0  0  0
  -20.5944  -28.3750   23.1195 C   0  0  2  0  0  0
  -20.6800  -26.9436   22.5400 C   0  0  0  0  0  0
  -19.5771  -26.6378   21.5214 C   0  0  0  0  0  0
  -18.1954  -26.7939   22.1624 C   0  0  0  0  0  0
  -19.1581  -28.8898   23.2820 C   0  0  0  0  0  0
  -18.9491  -30.1488   23.8854 C   0  0  0  0  0  0
  -17.6484  -30.6597   24.0556 C   0  0  0  0  0  0
  -25.9094  -34.9365   23.5022 C   0  0  0  0  0  0
  -16.5375  -29.9084   23.6342 C   0  0  0  0  0  0
  -16.7302  -28.6504   23.0362 C   0  0  0  0  0  0
  -26.4555  -31.6543   25.0713 C   0  0  0  0  0  0
  -25.3689  -31.3782   26.1374 C   0  0  0  0  0  0
  -27.0447  -30.2913   24.6422 C   0  0  0  0  0  0
  -27.6052  -32.4345   25.7514 C   0  0  0  0  0  0
  -27.5572  -37.1770   24.8466 C   0  0  0  0  0  0
  -21.4325  -29.3047   22.3547 N   0  0  0  0  0  0
  -26.4284  -37.3714   23.9405 N   0  0  0  0  0  0
  -24.7447  -30.9992   22.0877 N   0  0  0  0  0  0
  -23.4217  -28.8028   23.3017 O   0  0  0  0  0  0
  -28.1977  -25.8624   20.2569 O   0  0  0  0  0  0
  -26.5698  -34.8890   22.4614 O   0  0  0  0  0  0
  -23.5672  -32.1239   23.6874 O   0  0  0  0  0  0
  -31.1168  -18.0525   19.1404 C   0  0  0  0  0  0
  -29.7533  -22.2346   20.7191 C   0  0  0  0  0  0
  -27.7789  -21.5187   19.7803 C   0  0  0  0  0  0
  -30.1887  -20.8127   20.7810 C   0  0  0  0  0  0
  -28.2122  -20.0998   19.8425 C   0  0  0  0  0  0
  -28.4938  -22.7274   20.1935 C   0  0  0  0  0  0
  -29.4761  -19.6046   20.3516 C   0  0  0  0  0  0
  -27.7894  -24.3077   20.0231 C   0  0  0  0  0  0
  -30.2074  -18.0237   20.2997 C   0  0  1  0  0  0
  -31.8299  -18.0722   18.2240 N   0  0  0  0  0  0
  -29.7432  -16.4569   20.4593 N   0  0  0  0  0  0
  -31.4606  -12.9412   19.1914 H   0  0  0  0  0  0
  -30.4821  -11.8401   20.1124 H   0  0  0  0  0  0
  -29.8955  -11.7395   17.6631 H   0  0  0  0  0  0
  -29.5748  -13.4566   17.6539 H   0  0  0  0  0  0
  -28.0176  -11.2750   19.0641 H   0  0  0  0  0  0
  -27.4072  -12.3647   17.8451 H   0  0  0  0  0  0
  -27.5387  -14.2445   19.3401 H   0  0  0  0  0  0
  -28.8003  -12.4764   21.4895 H   0  0  0  0  0  0
  -28.3060  -14.1419   21.6984 H   0  0  0  0  0  0
  -25.2778   -9.5679   22.4765 H   0  0  0  0  0  0
  -24.0008   -7.4635   22.7477 H   0  0  0  0  0  0
  -21.0857   -8.8782   19.8954 H   0  0  0  0  0  0
  -22.3721  -10.9674   19.6167 H   0  0  0  0  0  0
  -21.2012   -7.6150   23.9715 H   0  0  0  0  0  0
  -21.1483   -6.0524   25.9076 H   0  0  0  0  0  0
  -22.0597   -2.7610   23.2843 H   0  0  0  0  0  0
  -22.4054  -11.9849   22.4852 H   0  0  0  0  0  0
  -21.1031  -13.1181   22.2652 H   0  0  0  0  0  0
  -24.6297  -15.8447   20.5268 H   0  0  0  0  0  0
  -26.2378  -15.6387   20.0549 H   0  0  0  0  0  0
  -26.7363  -32.5167   23.0922 H   0  0  0  0  0  0
  -25.0078  -33.9515   25.0227 H   0  0  0  0  0  0
  -22.7827  -31.2749   21.3593 H   0  0  0  0  0  0
  -23.3765  -35.9543   23.3285 H   0  0  0  0  0  0
  -24.3572  -36.8886   22.2065 H   0  0  0  0  0  0
  -23.7244  -37.6402   23.6712 H   0  0  0  0  0  0
  -26.2166  -31.3941   20.6246 H   0  0  0  0  0  0
  -26.9013  -30.7028   22.0551 H   0  0  0  0  0  0
  -28.1430  -28.6288   21.2823 H   0  0  0  0  0  0
  -25.8622  -25.7799   18.9804 H   0  0  0  0  0  0
  -23.9960  -27.2925   18.9463 H   0  0  0  0  0  0
  -23.8608  -30.5389   19.3929 H   0  0  0  0  0  0
  -22.8195  -29.2201   19.8304 H   0  0  0  0  0  0
  -25.1330  -36.1791   25.0795 H   0  0  0  0  0  0
  -21.0032  -28.3354   24.1318 H   0  0  0  0  0  0
  -20.5688  -26.2367   23.3637 H   0  0  0  0  0  0
  -21.6662  -26.7420   22.1202 H   0  0  0  0  0  0
  -19.6932  -25.6278   21.1272 H   0  0  0  0  0  0
  -19.6708  -27.3165   20.6724 H   0  0  0  0  0  0
  -17.4223  -26.6681   21.4029 H   0  0  0  0  0  0
  -18.0351  -26.0092   22.9032 H   0  0  0  0  0  0
  -19.7966  -30.7317   24.2204 H   0  0  0  0  0  0
  -17.5035  -31.6272   24.5167 H   0  0  0  0  0  0
  -15.5373  -30.2971   23.7690 H   0  0  0  0  0  0
  -15.8703  -28.0807   22.7102 H   0  0  0  0  0  0
  -24.5886  -30.7116   25.7684 H   0  0  0  0  0  0
  -24.8862  -32.2979   26.4687 H   0  0  0  0  0  0
  -25.7927  -30.9024   27.0226 H   0  0  0  0  0  0
  -26.3108  -29.6596   24.1406 H   0  0  0  0  0  0
  -27.3967  -29.7269   25.5067 H   0  0  0  0  0  0
  -27.9055  -30.4103   23.9839 H   0  0  0  0  0  0
  -27.2623  -33.3685   26.1978 H   0  0  0  0  0  0
  -28.3922  -32.6842   25.0385 H   0  0  0  0  0  0
  -28.0655  -31.8547   26.5524 H   0  0  0  0  0  0
  -28.2576  -38.0078   24.7507 H   0  0  0  0  0  0
  -28.1080  -36.2603   24.6303 H   0  0  0  0  0  0
  -27.2284  -37.1424   25.8868 H   0  0  0  0  0  0
  -20.9570  -29.8746   21.6690 H   0  0  0  0  0  0
  -26.0136  -38.2776   24.1405 H   0  0  0  0  0  0
  -30.4468  -22.9770   21.0892 H   0  0  0  0  0  0
  -26.7984  -21.6847   19.3556 H   0  0  0  0  0  0
  -31.1832  -20.6533   21.1749 H   0  0  0  0  0  0
  -27.5298  -19.3650   19.4377 H   0  0  0  0  0  0
  -26.8552  -24.2065   20.5765 H   0  0  0  0  0  0
  -27.4897  -24.2920   18.9755 H   0  0  0  0  0  0
  -30.9013  -18.1007   21.1366 H   0  0  0  0  0  0
  -28.7510  -16.3457   20.5901 H   0  0  0  0  0  0
  1 25  1  0  0  0
  1 30  2  0  0  0
  1 81  1  0  0  0
  2  3  1  0  0  0
  2 25  1  0  0  0
  2 82  1  0  0  0
  2 83  1  0  0  0
  3  4  1  0  0  0
  3 84  1  0  0  0
  3 85  1  0  0  0
  4  5  1  0  0  0
  4 86  1  0  0  0
  4 87  1  0  0  0
  5  6  1  0  0  0
  5 26  1  0  0  0
  5 88  1  0  0  0
  6 25  1  0  0  0
  6 89  1  0  0  0
  6 90  1  0  0  0
  7  8  2  0  0  0
  7 26  1  0  0  0
  7 29  1  0  0  0
  8  9  1  0  0  0
  8 22  1  0  0  0
  9 10  1  0  0  0
  9 27  2  0  0  0
 10 11  2  0  0  0
 10 15  1  0  0  0
 11 12  1  0  0  0
 11 91  1  0  0  0
 12 13  2  0  0  0
 12 92  1  0  0  0
 13 14  1  0  0  0
 13 31  1  0  0  0
 14 15  2  0  0  0
 14 93  1  0  0  0
 15 94  1  0  0  0
 16 17  2  0  0  0
 16 21  1  0  0  0
 16 31  1  0  0  0
 17 18  1  0  0  0
 17 95  1  0  0  0
 18 19  2  0  0  0
 18 96  1  0  0  0
 19 20  1  0  0  0
 19 24  1  0  0  0
 20 21  2  0  0  0
 20 97  1  0  0  0
 21 23  1  0  0  0
 22 28  1  0  0  0
 22 32  2  0  0  0
 26 27  1  0  0  0
 28 98  1  0  0  0
 28 99  1  0  0  0
 29100  1  0  0  0
 29101  1  0  0  0
 33 34  1  0  0  0
 33 66  1  0  0  0
 33 70  2  0  0  0
 34 36  1  0  0  0
 34 59  1  0  0  0
 34102  1  0  0  0
 35 44  2  0  0  0
 35 45  1  0  0  0
 35 68  1  0  0  0
 36 56  1  0  0  0
 36103  1  0  0  0
 37 39  1  0  0  0
 37 47  1  0  0  0
 37 66  1  0  0  0
 37104  1  0  0  0
 38 43  2  0  0  0
 38 46  1  0  0  0
 38 47  1  0  0  0
 39 64  1  0  0  0
 39 67  2  0  0  0
 40 52  1  0  0  0
 40 53  2  0  0  0
 40 58  1  0  0  0
 41105  1  0  0  0
 41106  1  0  0  0
 41107  1  0  0  0
 41 48  1  0  0  0
 42 43  1  0  0  0
 42 66  1  0  0  0
 42108  1  0  0  0
 42109  1  0  0  0
 43 44  1  0  0  0
 44110  1  0  0  0
 45 46  2  0  0  0
 45111  1  0  0  0
 46112  1  0  0  0
 47113  1  0  0  0
 47114  1  0  0  0
 48 56  1  0  0  0
 48 65  1  0  0  0
 48115  1  0  0  0
 49 50  1  0  0  0
 49 53  1  0  0  0
 49 64  1  0  0  0
 49116  1  0  0  0
 50 51  1  0  0  0
 50117  1  0  0  0
 50118  1  0  0  0
 51 52  1  0  0  0
 51119  1  0  0  0
 51120  1  0  0  0
 52121  1  0  0  0
 52122  1  0  0  0
 53 54  1  0  0  0
 54 55  2  0  0  0
 54123  1  0  0  0
 55 57  1  0  0  0
 55124  1  0  0  0
 56 69  2  0  0  0
 57 58  2  0  0  0
 57125  1  0  0  0
 58126  1  0  0  0
 59 60  1  0  0  0
 59 61  1  0  0  0
 59 62  1  0  0  0
 60127  1  0  0  0
 60128  1  0  0  0
 60129  1  0  0  0
 61130  1  0  0  0
 61131  1  0  0  0
 61132  1  0  0  0
 62133  1  0  0  0
 62134  1  0  0  0
 62135  1  0  0  0
 63 65  1  0  0  0
 63136  1  0  0  0
 63137  1  0  0  0
 63138  1  0  0  0
 64139  1  0  0  0
 65140  1  0  0  0
 68 78  1  0  0  0
 71 80  3  0  0  0
 71 79  1  0  0  0
 72 74  2  0  0  0
 72 76  1  0  0  0
 72141  1  0  0  0
 73 75  1  0  0  0
 73 76  2  0  0  0
 73142  1  0  0  0
 74 77  1  0  0  0
 74143  1  0  0  0
 75 77  2  0  0  0
 75144  1  0  0  0
 76 78  1  0  0  0
 77 79  1  0  0  0
 78145  1  0  0  0
 78146  1  0  0  0
 79 81  1  0  0  0
 79147  1  0  0  0
 81148  1  0  0  0
M  ISO  4   1 100  68 101  78 101  81 100
M  END
> <chiral flag>
0

> <version>
0

> <s_m_source_file>
/data/baiqing/PycharmProjects/Reinvent-master-3.2/result/LINK_invent/BTK/process_docking_weight1_custom_product_contain_oxygen_bond_distance_aromatic_linkinvent_7_9_3/rearranged_h_0002.sdf

> <i_m_source_file_index>
81

> <r_mmod_Potential_Energy-OPLS-2005>
979.754211425781

> <r_mmod_Stretch_Energy-OPLS-2005>
448.264221191406

> <r_mmod_Bend_Energy-OPLS-2005>
432.423217773438

> <r_mmod_Torsional_Energy-OPLS-2005>
209.541046142578

> <r_mmod_Improper_Torsional_Energy-OPLS-2005>
5.21576642990112

> <r_mmod_Van_der_Waal_Energy-OPLS-2005>
130.282577514648

> <r_mmod_Electrostatic_Energy-OPLS-2005>
-397.730865478516

> <r_mmod_Solvation_Energy-OPLS-2005>
-238.874893188477

> <b_mmod_Minimization_Converged-OPLS-2005>
0

> <r_mmod_RMS_Derivative-OPLS-2005>
0.174929484724998

$$$$
81
                    3D
 Structure written by MMmdl.
162170  0  0  1  0            999 V2000
  -30.3931  -15.3170   20.3444 C   0  0  0  0  0  0
  -30.4358  -12.8348   19.5496 C   0  0  0  0  0  0
  -29.5462  -12.6090   18.2988 C   0  0  0  0  0  0
  -28.0918  -12.3213   18.7078 C   0  0  0  0  0  0
  -27.6104  -13.2860   19.8209 C   0  0  2  0  0  0
  -28.6360  -13.4596   20.9631 C   0  0  0  0  0  0
  -25.2382  -13.8273   20.5729 C   0  0  0  0  0  0
  -24.1740  -13.0434   20.9223 C   0  0  0  0  0  0
  -24.6403  -11.6931   20.8679 C   0  0  0  0  0  0
  -23.9103  -10.4289   21.0340 C   0  0  0  0  0  0
  -24.3637   -9.4223   21.9146 C   0  0  0  0  0  0
  -23.6302   -8.2261   22.0734 C   0  0  0  0  0  0
  -22.4297   -8.0277   21.3515 C   0  0  0  0  0  0
  -21.9928   -9.0254   20.4636 C   0  0  0  0  0  0
  -22.7254  -10.2131   20.3018 C   0  0  0  0  0  0
  -21.6870   -6.0726   22.5266 C   0  0  0  0  0  0
  -21.4036   -6.5621   23.8204 C   0  0  0  0  0  0
  -21.3662   -5.6775   24.9162 C   0  0  0  0  0  0
  -21.6054   -4.3040   24.7218 C   0  0  0  0  0  0
  -21.8827   -3.8132   23.4346 C   0  0  0  0  0  0
  -21.9207   -4.6949   22.3405 C   0  0  0  0  0  0
  -22.7756  -13.5172   21.1870 C   0  0  0  0  0  0
  -22.1656   -4.2135   21.0974 F   0  0  0  0  0  0
  -21.5641   -3.4522   25.7732 F   0  0  0  0  0  0
  -29.8726  -13.9851   20.3616 N   0  0  0  0  0  0
  -26.2803  -12.9562   20.3146 N   0  0  0  0  0  0
  -25.9340  -11.6650   20.5597 N   0  0  0  0  0  0
  -22.0417  -12.8157   22.0430 N   0  0  0  0  0  0
  -25.4044  -15.2023   20.4259 N   0  0  0  0  0  0
  -31.5944  -15.3311   20.0324 O   0  0  0  0  0  0
  -21.6662   -6.8870   21.4225 O   0  0  0  0  0  0
  -22.3429  -14.5469   20.6708 O   0  0  0  0  0  0
  -24.6666  -31.8169   23.1659 C   0  0  0  0  0  0
  -25.9335  -32.4554   23.8139 C   0  0  1  0  0  0
  -27.2287  -26.8808   20.1852 C   0  0  0  0  0  0
  -25.5998  -33.8379   24.2055 N   0  0  0  0  0  0
  -23.4854  -30.4214   21.5180 C   0  0  2  0  0  0
  -24.9437  -28.8026   20.1080 C   0  0  0  0  0  0
  -22.7688  -29.4377   22.4787 C   0  0  0  0  0  0
  -18.0329  -28.1404   22.8464 C   0  0  0  0  0  0
  -24.1502  -36.7179   23.2649 C   0  0  0  0  0  0
  -26.0573  -30.6051   21.4081 C   0  0  0  0  0  0
  -26.1250  -29.1921   20.7469 C   0  0  0  0  0  0
  -27.2570  -28.2538   20.7590 C   0  0  0  0  0  0
  -26.0177  -26.6545   19.4903 C   0  0  0  0  0  0
  -24.9178  -27.5564   19.4587 C   0  0  0  0  0  0
  -23.7272  -29.7306   20.1474 C   0  0  0  0  0  0
  -25.4149  -36.2941   24.0298 C   0  0  1  0  0  0
  -20.5952  -28.3731   23.1198 C   0  0  2  0  0  0
  -20.6801  -26.9404   22.5418 C   0  0  0  0  0  0
  -19.5775  -26.6360   21.5226 C   0  0  0  0  0  0
  -18.1948  -26.7940   22.1620 C   0  0  0  0  0  0
  -19.1592  -28.8898   23.2808 C   0  0  0  0  0  0
  -18.9497  -30.1503   23.8817 C   0  0  0  0  0  0
  -17.6486  -30.6591   24.0549 C   0  0  0  0  0  0
  -25.9110  -34.9331   23.4997 C   0  0  0  0  0  0
  -16.5372  -29.9065   23.6364 C   0  0  0  0  0  0
  -16.7312  -28.6497   23.0360 C   0  0  0  0  0  0
  -26.4590  -31.6522   25.0695 C   0  0  0  0  0  0
  -25.3726  -31.3771   26.1357 C   0  0  0  0  0  0
  -27.0499  -30.2873   24.6476 C   0  0  0  0  0  0
  -27.6048  -32.4375   25.7514 C   0  0  0  0  0  0
  -27.5571  -37.1737   24.8462 C   0  0  0  0  0  0
  -21.4357  -29.3015   22.3546 N   0  0  0  0  0  0
  -26.4276  -37.3682   23.9404 N   0  0  0  0  0  0
  -24.7587  -30.9754   22.0845 N   0  0  0  0  0  0
  -23.4207  -28.7964   23.3063 O   0  0  0  0  0  0
  -28.2305  -25.7609   20.3007 O   0  0  0  0  0  0
  -26.5702  -34.8860   22.4587 O   0  0  0  0  0  0
  -23.5718  -32.1187   23.6689 O   0  0  0  0  0  0
  -28.7623  -20.7378   18.6239 C   0  0  0  0  0  0
  -28.8396  -19.4757   17.9789 C   0  0  0  0  0  0
  -29.2810  -19.5138   20.6348 C   0  0  0  0  0  0
  -28.9447  -20.9052   20.0083 C   0  0  0  0  0  0
  -29.1055  -18.2123   18.5972 C   0  0  0  0  0  0
  -29.4205  -18.0994   19.9928 C   0  0  0  0  0  0
  -30.1356  -16.8737   16.6988 C   0  0  0  0  0  0
  -27.6040  -16.9281   16.9617 C   0  0  0  0  0  0
  -30.3516  -22.9376   20.7759 C   0  0  0  0  0  0
  -28.2434  -22.4572   22.0092 C   0  0  0  0  0  0
  -28.1302  -24.1234   19.9509 C   0  0  0  0  0  0
  -28.9650  -16.9796   17.6864 C   0  0  0  0  0  0
  -28.8675  -22.5717   20.6105 C   0  0  0  0  0  0
  -29.6261  -16.5836   20.5916 N   0  0  0  0  0  0
  -31.4588  -13.0351   19.2312 H   0  0  0  0  0  0
  -30.4956  -11.9246   20.1490 H   0  0  0  0  0  0
  -29.9389  -11.7901   17.6936 H   0  0  0  0  0  0
  -29.5759  -13.5018   17.6725 H   0  0  0  0  0  0
  -28.0449  -11.2932   19.0664 H   0  0  0  0  0  0
  -27.4343  -12.3738   17.8383 H   0  0  0  0  0  0
  -27.5219  -14.2532   19.3235 H   0  0  0  0  0  0
  -28.8052  -12.5209   21.4893 H   0  0  0  0  0  0
  -28.2618  -14.1684   21.7036 H   0  0  0  0  0  0
  -25.2770   -9.5734   22.4726 H   0  0  0  0  0  0
  -24.0027   -7.4682   22.7467 H   0  0  0  0  0  0
  -21.0862   -8.8761   19.8951 H   0  0  0  0  0  0
  -22.3686  -10.9659   19.6132 H   0  0  0  0  0  0
  -21.2011   -7.6130   23.9708 H   0  0  0  0  0  0
  -21.1472   -6.0495   25.9070 H   0  0  0  0  0  0
  -22.0602   -2.7585   23.2850 H   0  0  0  0  0  0
  -22.4033  -11.9834   22.4855 H   0  0  0  0  0  0
  -21.1019  -13.1158   22.2572 H   0  0  0  0  0  0
  -24.6418  -15.8547   20.5719 H   0  0  0  0  0  0
  -26.2532  -15.6496   20.1041 H   0  0  0  0  0  0
  -26.7402  -32.5053   23.0837 H   0  0  0  0  0  0
  -25.0137  -33.9453   25.0197 H   0  0  0  0  0  0
  -22.8013  -31.2532   21.3405 H   0  0  0  0  0  0
  -23.3792  -35.9478   23.3274 H   0  0  0  0  0  0
  -24.3575  -36.8872   22.2070 H   0  0  0  0  0  0
  -23.7219  -37.6333   23.6751 H   0  0  0  0  0  0
  -26.2433  -31.3474   20.6310 H   0  0  0  0  0  0
  -26.9161  -30.6564   22.0662 H   0  0  0  0  0  0
  -28.1478  -28.5503   21.2924 H   0  0  0  0  0  0
  -25.8841  -25.7041   18.9955 H   0  0  0  0  0  0
  -24.0205  -27.2503   18.9392 H   0  0  0  0  0  0
  -23.8703  -30.4961   19.3852 H   0  0  0  0  0  0
  -22.8405  -29.1749   19.8403 H   0  0  0  0  0  0
  -25.1351  -36.1735   25.0780 H   0  0  0  0  0  0
  -21.0009  -28.3330   24.1338 H   0  0  0  0  0  0
  -20.5678  -26.2336   23.3655 H   0  0  0  0  0  0
  -21.6658  -26.7384   22.1201 H   0  0  0  0  0  0
  -19.6919  -25.6257   21.1289 H   0  0  0  0  0  0
  -19.6734  -27.3157   20.6745 H   0  0  0  0  0  0
  -17.4226  -26.6718   21.4005 H   0  0  0  0  0  0
  -18.0302  -26.0100   22.9026 H   0  0  0  0  0  0
  -19.7970  -30.7368   24.2105 H   0  0  0  0  0  0
  -17.5029  -31.6265   24.5162 H   0  0  0  0  0  0
  -15.5364  -30.2926   23.7756 H   0  0  0  0  0  0
  -15.8711  -28.0801   22.7094 H   0  0  0  0  0  0
  -24.5928  -30.7098   25.7687 H   0  0  0  0  0  0
  -24.8892  -32.2961   26.4674 H   0  0  0  0  0  0
  -25.7966  -30.9021   27.0209 H   0  0  0  0  0  0
  -26.3183  -29.6536   24.1447 H   0  0  0  0  0  0
  -27.3970  -29.7255   25.5157 H   0  0  0  0  0  0
  -27.9152  -30.4044   23.9950 H   0  0  0  0  0  0
  -27.2587  -33.3737   26.1912 H   0  0  0  0  0  0
  -28.3949  -32.6847   25.0418 H   0  0  0  0  0  0
  -28.0627  -31.8633   26.5573 H   0  0  0  0  0  0
  -28.2547  -38.0069   24.7533 H   0  0  0  0  0  0
  -28.1106  -36.2592   24.6286 H   0  0  0  0  0  0
  -27.2278  -37.1366   25.8855 H   0  0  0  0  0  0
  -20.9620  -29.8673   21.6643 H   0  0  0  0  0  0
  -26.0132  -38.2732   24.1437 H   0  0  0  0  0  0
  -28.5550  -21.6101   18.0183 H   0  0  0  0  0  0
  -28.6512  -19.4928   16.9152 H   0  0  0  0  0  0
  -29.4470  -19.5352   21.7024 H   0  0  0  0  0  0
  -31.0837  -16.7871   17.2287 H   0  0  0  0  0  0
  -30.1973  -17.7469   16.0485 H   0  0  0  0  0  0
  -30.0406  -15.9907   16.0657 H   0  0  0  0  0  0
  -26.7778  -16.9868   17.6706 H   0  0  0  0  0  0
  -27.4848  -15.9896   16.4200 H   0  0  0  0  0  0
  -27.4765  -17.7319   16.2380 H   0  0  0  0  0  0
  -30.8865  -22.1938   21.3694 H   0  0  0  0  0  0
  -30.4791  -23.9017   21.2700 H   0  0  0  0  0  0
  -30.8436  -22.9948   19.8052 H   0  0  0  0  0  0
  -28.7668  -21.7322   22.6323 H   0  0  0  0  0  0
  -27.2006  -22.1462   21.9463 H   0  0  0  0  0  0
  -28.2701  -23.4142   22.5308 H   0  0  0  0  0  0
  -27.0601  -23.9217   19.9156 H   0  0  0  0  0  0
  -28.4293  -24.1137   18.9031 H   0  0  0  0  0  0
  -28.9692  -16.0675   18.2690 H   0  0  0  0  0  0
  -28.8377  -16.3415   21.1737 H   0  0  0  0  0  0
  1 25  1  0  0  0
  1 30  2  0  0  0
  1 84  1  0  0  0
  2  3  1  0  0  0
  2 25  1  0  0  0
  2 85  1  0  0  0
  2 86  1  0  0  0
  3  4  1  0  0  0
  3 87  1  0  0  0
  3 88  1  0  0  0
  4  5  1  0  0  0
  4 89  1  0  0  0
  4 90  1  0  0  0
  5  6  1  0  0  0
  5 26  1  0  0  0
  5 91  1  0  0  0
  6 25  1  0  0  0
  6 92  1  0  0  0
  6 93  1  0  0  0
  7  8  2  0  0  0
  7 26  1  0  0  0
  7 29  1  0  0  0
  8  9  1  0  0  0
  8 22  1  0  0  0
  9 10  1  0  0  0
  9 27  2  0  0  0
 10 11  2  0  0  0
 10 15  1  0  0  0
 11 12  1  0  0  0
 11 94  1  0  0  0
 12 13  2  0  0  0
 12 95  1  0  0  0
 13 14  1  0  0  0
 13 31  1  0  0  0
 14 15  2  0  0  0
 14 96  1  0  0  0
 15 97  1  0  0  0
 16 17  2  0  0  0
 16 21  1  0  0  0
 16 31  1  0  0  0
 17 18  1  0  0  0
 17 98  1  0  0  0
 18 19  2  0  0  0
 18 99  1  0  0  0
 19 20  1  0  0  0
 19 24  1  0  0  0
 20 21  2  0  0  0
 20100  1  0  0  0
 21 23  1  0  0  0
 22 28  1  0  0  0
 22 32  2  0  0  0
 26 27  1  0  0  0
 28101  1  0  0  0
 28102  1  0  0  0
 29103  1  0  0  0
 29104  1  0  0  0
 33 34  1  0  0  0
 33 66  1  0  0  0
 33 70  2  0  0  0
 34 36  1  0  0  0
 34 59  1  0  0  0
 34105  1  0  0  0
 35 44  2  0  0  0
 35 45  1  0  0  0
 35 68  1  0  0  0
 36 56  1  0  0  0
 36106  1  0  0  0
 37 39  1  0  0  0
 37 47  1  0  0  0
 37 66  1  0  0  0
 37107  1  0  0  0
 38 43  2  0  0  0
 38 46  1  0  0  0
 38 47  1  0  0  0
 39 64  1  0  0  0
 39 67  2  0  0  0
 40 52  1  0  0  0
 40 53  2  0  0  0
 40 58  1  0  0  0
 41108  1  0  0  0
 41109  1  0  0  0
 41110  1  0  0  0
 41 48  1  0  0  0
 42 43  1  0  0  0
 42 66  1  0  0  0
 42111  1  0  0  0
 42112  1  0  0  0
 43 44  1  0  0  0
 44113  1  0  0  0
 45 46  2  0  0  0
 45114  1  0  0  0
 46115  1  0  0  0
 47116  1  0  0  0
 47117  1  0  0  0
 48 56  1  0  0  0
 48 65  1  0  0  0
 48118  1  0  0  0
 49 50  1  0  0  0
 49 53  1  0  0  0
 49 64  1  0  0  0
 49119  1  0  0  0
 50 51  1  0  0  0
 50120  1  0  0  0
 50121  1  0  0  0
 51 52  1  0  0  0
 51122  1  0  0  0
 51123  1  0  0  0
 52124  1  0  0  0
 52125  1  0  0  0
 53 54  1  0  0  0
 54 55  2  0  0  0
 54126  1  0  0  0
 55 57  1  0  0  0
 55127  1  0  0  0
 56 69  2  0  0  0
 57 58  2  0  0  0
 57128  1  0  0  0
 58129  1  0  0  0
 59 60  1  0  0  0
 59 61  1  0  0  0
 59 62  1  0  0  0
 60130  1  0  0  0
 60131  1  0  0  0
 60132  1  0  0  0
 61133  1  0  0  0
 61134  1  0  0  0
 61135  1  0  0  0
 62136  1  0  0  0
 62137  1  0  0  0
 62138  1  0  0  0
 63 65  1  0  0  0
 63139  1  0  0  0
 63140  1  0  0  0
 63141  1  0  0  0
 64142  1  0  0  0
 65143  1  0  0  0
 68 81  1  0  0  0
 71 72  2  0  0  0
 71 74  1  0  0  0
 71144  1  0  0  0
 72 75  1  0  0  0
 72145  1  0  0  0
 73 74  2  0  0  0
 73 76  1  0  0  0
 73146  1  0  0  0
 74 83  1  0  0  0
 75 76  2  0  0  0
 75 82  1  0  0  0
 76 84  1  0  0  0
 77147  1  0  0  0
 77148  1  0  0  0
 77149  1  0  0  0
 77 82  1  0  0  0
 78 82  1  0  0  0
 78150  1  0  0  0
 78151  1  0  0  0
 78152  1  0  0  0
 79153  1  0  0  0
 79154  1  0  0  0
 79155  1  0  0  0
 79 83  1  0  0  0
 80 83  1  0  0  0
 80156  1  0  0  0
 80157  1  0  0  0
 80158  1  0  0  0
 81 83  1  0  0  0
 81159  1  0  0  0
 81160  1  0  0  0
 82161  1  0  0  0
 84162  1  0  0  0
M  ISO  4   1 100  68 101  81 101  84 100
M  END
> <chiral flag>
0

> <version>
0

> <s_m_source_file>
/data/baiqing/PycharmProjects/Reinvent-master-3.2/result/LINK_invent/BTK/process_docking_weight1_custom_product_contain_oxygen_bond_distance_aromatic_linkinvent_7_9_3/rearranged_h_0002.sdf

> <i_m_source_file_index>
82

> <r_mmod_Potential_Energy-OPLS-2005>
1448.23779296875

> <r_mmod_Stretch_Energy-OPLS-2005>
674.76806640625

> <r_mmod_Bend_Energy-OPLS-2005>
456.65283203125

> <r_mmod_Torsional_Energy-OPLS-2005>
255.458831787109

> <r_mmod_Improper_Torsional_Energy-OPLS-2005>
4.3951997756958

> <r_mmod_Van_der_Waal_Energy-OPLS-2005>
119.364875793457

> <r_mmod_Electrostatic_Energy-OPLS-2005>
-384.379699707031

> <r_mmod_Solvation_Energy-OPLS-2005>
-200.575500488281

> <b_mmod_Minimization_Converged-OPLS-2005>
0

> <r_mmod_RMS_Derivative-OPLS-2005>
3.21012234687805

$$$$
82
                    3D
 Structure written by MMmdl.
154162  0  0  1  0            999 V2000
  -30.6781  -14.5756   20.5067 C   0  0  0  0  0  0
  -30.4152  -12.3573   19.4332 C   0  0  0  0  0  0
  -29.4939  -12.4998   18.2041 C   0  0  0  0  0  0
  -28.0149  -12.3559   18.6179 C   0  0  0  0  0  0
  -27.6484  -13.2221   19.8552 C   0  0  2  0  0  0
  -28.6947  -13.0852   20.9818 C   0  0  0  0  0  0
  -25.2557  -13.8187   20.5691 C   0  0  0  0  0  0
  -24.1836  -13.0432   20.9210 C   0  0  0  0  0  0
  -24.6412  -11.6908   20.8749 C   0  0  0  0  0  0
  -23.9088  -10.4285   21.0421 C   0  0  0  0  0  0
  -24.3630   -9.4199   21.9202 C   0  0  0  0  0  0
  -23.6305   -8.2234   22.0763 C   0  0  0  0  0  0
  -22.4288   -8.0284   21.3557 C   0  0  0  0  0  0
  -21.9929   -9.0263   20.4659 C   0  0  0  0  0  0
  -22.7266  -10.2138   20.3065 C   0  0  0  0  0  0
  -21.6853   -6.0741   22.5292 C   0  0  0  0  0  0
  -21.4014   -6.5638   23.8232 C   0  0  0  0  0  0
  -21.3663   -5.6794   24.9188 C   0  0  0  0  0  0
  -21.6030   -4.3059   24.7241 C   0  0  0  0  0  0
  -21.8819   -3.8147   23.4365 C   0  0  0  0  0  0
  -21.9196   -4.6962   22.3416 C   0  0  0  0  0  0
  -22.7861  -13.5230   21.1868 C   0  0  0  0  0  0
  -22.1665   -4.2141   21.1001 F   0  0  0  0  0  0
  -21.5624   -3.4545   25.7759 F   0  0  0  0  0  0
  -30.0079  -13.3913   20.4004 N   0  0  0  0  0  0
  -26.2973  -12.9378   20.3296 N   0  0  0  0  0  0
  -25.9339  -11.6523   20.5749 N   0  0  0  0  0  0
  -22.0508  -12.8213   22.0416 N   0  0  0  0  0  0
  -25.4257  -15.1906   20.4108 N   0  0  0  0  0  0
  -31.8576  -14.6825   20.1604 O   0  0  0  0  0  0
  -21.6650   -6.8881   21.4258 O   0  0  0  0  0  0
  -22.3555  -14.5548   20.6734 O   0  0  0  0  0  0
  -24.6206  -31.8612   23.2067 C   0  0  0  0  0  0
  -25.9070  -32.4784   23.8375 C   0  0  1  0  0  0
  -27.2150  -27.3711   20.1120 C   0  0  0  0  0  0
  -25.5893  -33.8585   24.2305 N   0  0  0  0  0  0
  -23.4122  -30.4837   21.5505 C   0  0  2  0  0  0
  -24.8562  -28.9476   20.1092 C   0  0  0  0  0  0
  -22.7456  -29.4598   22.4987 C   0  0  0  0  0  0
  -18.0276  -28.1374   22.8475 C   0  0  0  0  0  0
  -24.1492  -36.7295   23.2646 C   0  0  0  0  0  0
  -25.9466  -30.8129   21.3664 C   0  0  0  0  0  0
  -26.0229  -29.4443   20.7082 C   0  0  0  0  0  0
  -27.2112  -28.6652   20.6981 C   0  0  0  0  0  0
  -26.0332  -26.9055   19.5029 C   0  0  0  0  0  0
  -24.8596  -27.6825   19.4980 C   0  0  0  0  0  0
  -23.6221  -29.8215   20.1631 C   0  0  0  0  0  0
  -25.4110  -36.3081   24.0338 C   0  0  1  0  0  0
  -20.5869  -28.3641   23.1322 C   0  0  2  0  0  0
  -20.6767  -26.9375   22.5419 C   0  0  0  0  0  0
  -19.5752  -26.6379   21.5217 C   0  0  0  0  0  0
  -18.1927  -26.7919   22.1622 C   0  0  0  0  0  0
  -19.1526  -28.8833   23.2878 C   0  0  0  0  0  0
  -18.9458  -30.1448   23.8877 C   0  0  0  0  0  0
  -17.6449  -30.6582   24.0562 C   0  0  0  0  0  0
  -25.9033  -34.9449   23.5129 C   0  0  0  0  0  0
  -16.5340  -29.9072   23.6332 C   0  0  0  0  0  0
  -16.7251  -28.6497   23.0332 C   0  0  0  0  0  0
  -26.4475  -31.6586   25.0726 C   0  0  0  0  0  0
  -25.3713  -31.3720   26.1460 C   0  0  0  0  0  0
  -27.0326  -30.3023   24.6145 C   0  0  0  0  0  0
  -27.6052  -32.4318   25.7477 C   0  0  0  0  0  0
  -27.5582  -37.1792   24.8469 C   0  0  0  0  0  0
  -21.4171  -29.3007   22.3740 N   0  0  0  0  0  0
  -26.4294  -37.3769   23.9420 N   0  0  0  0  0  0
  -24.6791  -31.0669   22.0995 N   0  0  0  0  0  0
  -23.4204  -28.8154   23.3058 O   0  0  0  0  0  0
  -28.3313  -26.5469   20.1228 O   0  0  0  0  0  0
  -26.5607  -34.8901   22.4696 O   0  0  0  0  0  0
  -23.5374  -32.1411   23.7417 O   0  0  0  0  0  0
  -31.9303  -18.2364   22.6464 C   0  0  0  0  0  0
  -31.4598  -19.4508   22.1221 C   0  0  0  0  0  0
  -31.4144  -17.0185   22.1811 C   0  0  0  0  0  0
  -29.9044  -18.2400   20.6862 C   0  0  0  0  0  0
  -30.4391  -19.4914   21.1455 C   0  0  0  0  0  0
  -30.4136  -16.9868   21.1845 C   0  0  0  0  0  0
  -30.0703  -20.8799   20.6235 C   0  0  0  0  0  0
  -28.5533  -23.9338   20.1674 C   0  0  0  0  0  0
  -28.4109  -22.7123   21.1503 C   0  0  0  0  0  0
  -28.1794  -25.2974   20.8630 C   0  0  0  0  0  0
  -29.9287  -15.6886   20.7656 N   0  0  0  0  0  0
  -28.8037  -21.3259   20.7480 N   0  0  0  0  0  0
  -30.9748  -21.6397   20.2668 O   0  0  0  0  0  0
  -31.4629  -12.4414   19.1403 H   0  0  0  0  0  0
  -30.3067  -11.3648   19.8762 H   0  0  0  0  0  0
  -29.7449  -11.7489   17.4548 H   0  0  0  0  0  0
  -29.6508  -13.4701   17.7291 H   0  0  0  0  0  0
  -27.8339  -11.3028   18.8352 H   0  0  0  0  0  0
  -27.3649  -12.6079   17.7786 H   0  0  0  0  0  0
  -27.6656  -14.2582   19.5159 H   0  0  0  0  0  0
  -28.6901  -12.0737   21.3906 H   0  0  0  0  0  0
  -28.4607  -13.7511   21.8147 H   0  0  0  0  0  0
  -25.2774   -9.5656   22.4788 H   0  0  0  0  0  0
  -24.0008   -7.4611   22.7472 H   0  0  0  0  0  0
  -21.0858   -8.8793   19.8962 H   0  0  0  0  0  0
  -22.3744  -10.9680   19.6164 H   0  0  0  0  0  0
  -21.2006   -7.6147   23.9725 H   0  0  0  0  0  0
  -21.1489   -6.0533   25.9091 H   0  0  0  0  0  0
  -22.0593   -2.7608   23.2885 H   0  0  0  0  0  0
  -22.4145  -11.9859   22.4757 H   0  0  0  0  0  0
  -21.1126  -13.1230   22.2635 H   0  0  0  0  0  0
  -24.6556  -15.8422   20.5168 H   0  0  0  0  0  0
  -26.2667  -15.6308   20.0613 H   0  0  0  0  0  0
  -26.7141  -32.5468   23.1124 H   0  0  0  0  0  0
  -25.0013  -33.9720   25.0434 H   0  0  0  0  0  0
  -22.7039  -31.3031   21.4143 H   0  0  0  0  0  0
  -23.3732  -35.9646   23.3319 H   0  0  0  0  0  0
  -24.3590  -36.8910   22.2062 H   0  0  0  0  0  0
  -23.7248  -37.6502   23.6655 H   0  0  0  0  0  0
  -26.0654  -31.5832   20.6023 H   0  0  0  0  0  0
  -26.8303  -30.8621   21.9922 H   0  0  0  0  0  0
  -28.1144  -29.0392   21.1636 H   0  0  0  0  0  0
  -26.0176  -25.9280   19.0430 H   0  0  0  0  0  0
  -23.9627  -27.3031   19.0263 H   0  0  0  0  0  0
  -23.7289  -30.6026   19.4105 H   0  0  0  0  0  0
  -22.7423  -29.2477   19.8635 H   0  0  0  0  0  0
  -25.1282  -36.1967   25.0826 H   0  0  0  0  0  0
  -20.9933  -28.3201   24.1454 H   0  0  0  0  0  0
  -20.5721  -26.2221   23.3599 H   0  0  0  0  0  0
  -21.6632  -26.7452   22.1194 H   0  0  0  0  0  0
  -19.6919  -25.6301   21.1229 H   0  0  0  0  0  0
  -19.6715  -27.3202   20.6764 H   0  0  0  0  0  0
  -17.4199  -26.6661   21.4007 H   0  0  0  0  0  0
  -18.0316  -26.0070   22.9027 H   0  0  0  0  0  0
  -19.7935  -30.7277   24.2228 H   0  0  0  0  0  0
  -17.5003  -31.6264   24.5153 H   0  0  0  0  0  0
  -15.5330  -30.2957   23.7700 H   0  0  0  0  0  0
  -15.8657  -28.0840   22.7015 H   0  0  0  0  0  0
  -24.5902  -30.7052   25.7795 H   0  0  0  0  0  0
  -24.8856  -32.2877   26.4843 H   0  0  0  0  0  0
  -25.8026  -30.8941   27.0269 H   0  0  0  0  0  0
  -26.2904  -29.6764   24.1172 H   0  0  0  0  0  0
  -27.4057  -29.7277   25.4631 H   0  0  0  0  0  0
  -27.8748  -30.4328   23.9347 H   0  0  0  0  0  0
  -27.2687  -33.3634   26.2044 H   0  0  0  0  0  0
  -28.3851  -32.6846   25.0288 H   0  0  0  0  0  0
  -28.0720  -31.8441   26.5404 H   0  0  0  0  0  0
  -28.2581  -38.0099   24.7501 H   0  0  0  0  0  0
  -28.1085  -36.2621   24.6304 H   0  0  0  0  0  0
  -27.2291  -37.1452   25.8866 H   0  0  0  0  0  0
  -20.9352  -29.8705   21.6936 H   0  0  0  0  0  0
  -26.0188  -38.2852   24.1415 H   0  0  0  0  0  0
  -32.6973  -18.2389   23.4088 H   0  0  0  0  0  0
  -31.8955  -20.3721   22.4824 H   0  0  0  0  0  0
  -31.8026  -16.1058   22.6108 H   0  0  0  0  0  0
  -29.1470  -18.2461   19.9149 H   0  0  0  0  0  0
  -27.9114  -23.7848   19.3003 H   0  0  0  0  0  0
  -29.5751  -23.9903   19.7924 H   0  0  0  0  0  0
  -27.3619  -22.6542   21.4492 H   0  0  0  0  0  0
  -28.9525  -22.9459   22.0680 H   0  0  0  0  0  0
  -28.8144  -25.4042   21.7424 H   0  0  0  0  0  0
  -27.1707  -25.2021   21.2715 H   0  0  0  0  0  0
  -28.9287  -15.5615   20.7467 H   0  0  0  0  0  0
  -28.1315  -20.6064   20.9841 H   0  0  0  0  0  0
  1 25  1  0  0  0
  1 30  2  0  0  0
  1 81  1  0  0  0
  2  3  1  0  0  0
  2 25  1  0  0  0
  2 84  1  0  0  0
  2 85  1  0  0  0
  3  4  1  0  0  0
  3 86  1  0  0  0
  3 87  1  0  0  0
  4  5  1  0  0  0
  4 88  1  0  0  0
  4 89  1  0  0  0
  5  6  1  0  0  0
  5 26  1  0  0  0
  5 90  1  0  0  0
  6 25  1  0  0  0
  6 91  1  0  0  0
  6 92  1  0  0  0
  7  8  2  0  0  0
  7 26  1  0  0  0
  7 29  1  0  0  0
  8  9  1  0  0  0
  8 22  1  0  0  0
  9 10  1  0  0  0
  9 27  2  0  0  0
 10 11  2  0  0  0
 10 15  1  0  0  0
 11 12  1  0  0  0
 11 93  1  0  0  0
 12 13  2  0  0  0
 12 94  1  0  0  0
 13 14  1  0  0  0
 13 31  1  0  0  0
 14 15  2  0  0  0
 14 95  1  0  0  0
 15 96  1  0  0  0
 16 17  2  0  0  0
 16 21  1  0  0  0
 16 31  1  0  0  0
 17 18  1  0  0  0
 17 97  1  0  0  0
 18 19  2  0  0  0
 18 98  1  0  0  0
 19 20  1  0  0  0
 19 24  1  0  0  0
 20 21  2  0  0  0
 20 99  1  0  0  0
 21 23  1  0  0  0
 22 28  1  0  0  0
 22 32  2  0  0  0
 26 27  1  0  0  0
 28100  1  0  0  0
 28101  1  0  0  0
 29102  1  0  0  0
 29103  1  0  0  0
 33 34  1  0  0  0
 33 66  1  0  0  0
 33 70  2  0  0  0
 34 36  1  0  0  0
 34 59  1  0  0  0
 34104  1  0  0  0
 35 44  2  0  0  0
 35 45  1  0  0  0
 35 68  1  0  0  0
 36 56  1  0  0  0
 36105  1  0  0  0
 37 39  1  0  0  0
 37 47  1  0  0  0
 37 66  1  0  0  0
 37106  1  0  0  0
 38 43  2  0  0  0
 38 46  1  0  0  0
 38 47  1  0  0  0
 39 64  1  0  0  0
 39 67  2  0  0  0
 40 52  1  0  0  0
 40 53  2  0  0  0
 40 58  1  0  0  0
 41107  1  0  0  0
 41108  1  0  0  0
 41109  1  0  0  0
 41 48  1  0  0  0
 42 43  1  0  0  0
 42 66  1  0  0  0
 42110  1  0  0  0
 42111  1  0  0  0
 43 44  1  0  0  0
 44112  1  0  0  0
 45 46  2  0  0  0
 45113  1  0  0  0
 46114  1  0  0  0
 47115  1  0  0  0
 47116  1  0  0  0
 48 56  1  0  0  0
 48 65  1  0  0  0
 48117  1  0  0  0
 49 50  1  0  0  0
 49 53  1  0  0  0
 49 64  1  0  0  0
 49118  1  0  0  0
 50 51  1  0  0  0
 50119  1  0  0  0
 50120  1  0  0  0
 51 52  1  0  0  0
 51121  1  0  0  0
 51122  1  0  0  0
 52123  1  0  0  0
 52124  1  0  0  0
 53 54  1  0  0  0
 54 55  2  0  0  0
 54125  1  0  0  0
 55 57  1  0  0  0
 55126  1  0  0  0
 56 69  2  0  0  0
 57 58  2  0  0  0
 57127  1  0  0  0
 58128  1  0  0  0
 59 60  1  0  0  0
 59 61  1  0  0  0
 59 62  1  0  0  0
 60129  1  0  0  0
 60130  1  0  0  0
 60131  1  0  0  0
 61132  1  0  0  0
 61133  1  0  0  0
 61134  1  0  0  0
 62135  1  0  0  0
 62136  1  0  0  0
 62137  1  0  0  0
 63 65  1  0  0  0
 63138  1  0  0  0
 63139  1  0  0  0
 63140  1  0  0  0
 64141  1  0  0  0
 65142  1  0  0  0
 68 80  1  0  0  0
 71 72  2  0  0  0
 71 73  1  0  0  0
 71143  1  0  0  0
 72 75  1  0  0  0
 72144  1  0  0  0
 73 76  2  0  0  0
 73145  1  0  0  0
 74 75  2  0  0  0
 74 76  1  0  0  0
 74146  1  0  0  0
 75 77  1  0  0  0
 76 81  1  0  0  0
 77 82  1  0  0  0
 77 83  2  0  0  0
 78 79  1  0  0  0
 78 80  1  0  0  0
 78147  1  0  0  0
 78148  1  0  0  0
 79 82  1  0  0  0
 79149  1  0  0  0
 79150  1  0  0  0
 80151  1  0  0  0
 80152  1  0  0  0
 81153  1  0  0  0
 82154  1  0  0  0
M  ISO  4   1 100  68 101  80 101  81 100
M  END
> <chiral flag>
0

> <version>
0

> <s_m_source_file>
/data/baiqing/PycharmProjects/Reinvent-master-3.2/result/LINK_invent/BTK/process_docking_weight1_custom_product_contain_oxygen_bond_distance_aromatic_linkinvent_7_9_3/rearranged_h_0002.sdf

> <i_m_source_file_index>
83

> <r_mmod_Potential_Energy-OPLS-2005>
-6.84075784683228

> <r_mmod_Stretch_Energy-OPLS-2005>
57.7708206176758

> <r_mmod_Bend_Energy-OPLS-2005>
122.469619750977

> <r_mmod_Torsional_Energy-OPLS-2005>
278.912048339844

> <r_mmod_Improper_Torsional_Energy-OPLS-2005>
10.5075798034668

> <r_mmod_Van_der_Waal_Energy-OPLS-2005>
143.249465942383

> <r_mmod_Electrostatic_Energy-OPLS-2005>
-409.116546630859

> <r_mmod_Solvation_Energy-OPLS-2005>
-243.69189453125

> <b_mmod_Minimization_Converged-OPLS-2005>
0

> <r_mmod_RMS_Derivative-OPLS-2005>
3.05263543128967

$$$$
83
                    3D
 Structure written by MMmdl.
168176  0  0  1  0            999 V2000
  -30.7125  -14.3844   20.6196 C   0  0  0  0  0  0
  -30.4272  -12.2644   19.4026 C   0  0  0  0  0  0
  -29.4936  -12.5051   18.1984 C   0  0  0  0  0  0
  -28.0145  -12.3641   18.6122 C   0  0  0  0  0  0
  -27.6717  -13.1885   19.8805 C   0  0  2  0  0  0
  -28.7074  -12.9092   20.9925 C   0  0  0  0  0  0
  -25.2659  -13.8128   20.5674 C   0  0  0  0  0  0
  -24.1875  -13.0436   20.9118 C   0  0  0  0  0  0
  -24.6396  -11.6890   20.8711 C   0  0  0  0  0  0
  -23.9057  -10.4283   21.0405 C   0  0  0  0  0  0
  -24.3611   -9.4195   21.9184 C   0  0  0  0  0  0
  -23.6289   -8.2231   22.0762 C   0  0  0  0  0  0
  -22.4268   -8.0273   21.3554 C   0  0  0  0  0  0
  -21.9897   -9.0250   20.4659 C   0  0  0  0  0  0
  -22.7227  -10.2126   20.3060 C   0  0  0  0  0  0
  -21.6848   -6.0730   22.5289 C   0  0  0  0  0  0
  -21.4009   -6.5638   23.8219 C   0  0  0  0  0  0
  -21.3660   -5.6794   24.9182 C   0  0  0  0  0  0
  -21.6046   -4.3057   24.7232 C   0  0  0  0  0  0
  -21.8818   -3.8146   23.4354 C   0  0  0  0  0  0
  -21.9188   -4.6960   22.3411 C   0  0  0  0  0  0
  -22.7905  -13.5259   21.1802 C   0  0  0  0  0  0
  -22.1664   -4.2148   21.0987 F   0  0  0  0  0  0
  -21.5626   -3.4546   25.7744 F   0  0  0  0  0  0
  -30.0538  -13.2082   20.4636 N   0  0  0  0  0  0
  -26.3083  -12.9269   20.3375 N   0  0  0  0  0  0
  -25.9315  -11.6445   20.5747 N   0  0  0  0  0  0
  -22.0539  -12.8280   22.0368 N   0  0  0  0  0  0
  -25.4430  -15.1850   20.4167 N   0  0  0  0  0  0
  -31.7709  -14.6651   20.0459 O   0  0  0  0  0  0
  -21.6627   -6.8876   21.4253 O   0  0  0  0  0  0
  -22.3600  -14.5562   20.6638 O   0  0  0  0  0  0
  -24.6122  -31.8735   23.2199 C   0  0  0  0  0  0
  -25.9055  -32.4846   23.8446 C   0  0  1  0  0  0
  -27.2272  -27.4760   20.0489 C   0  0  0  0  0  0
  -25.5937  -33.8650   24.2357 N   0  0  0  0  0  0
  -23.3943  -30.5034   21.5618 C   0  0  2  0  0  0
  -24.8325  -28.9788   20.1199 C   0  0  0  0  0  0
  -22.7388  -29.4705   22.5042 C   0  0  0  0  0  0
  -18.0307  -28.1409   22.8420 C   0  0  0  0  0  0
  -24.1500  -36.7328   23.2609 C   0  0  0  0  0  0
  -25.9248  -30.8421   21.3760 C   0  0  0  0  0  0
  -25.9951  -29.4850   20.7117 C   0  0  0  0  0  0
  -27.1933  -28.7380   20.6791 C   0  0  0  0  0  0
  -26.0397  -26.9864   19.4533 C   0  0  0  0  0  0
  -24.8456  -27.7218   19.4985 C   0  0  0  0  0  0
  -23.5983  -29.8460   20.1737 C   0  0  0  0  0  0
  -25.4121  -36.3119   24.0307 C   0  0  1  0  0  0
  -20.5878  -28.3675   23.1351 C   0  0  2  0  0  0
  -20.6800  -26.9437   22.5403 C   0  0  0  0  0  0
  -19.5843  -26.6515   21.5110 C   0  0  0  0  0  0
  -18.1983  -26.8005   22.1450 C   0  0  0  0  0  0
  -19.1538  -28.8851   23.2906 C   0  0  0  0  0  0
  -18.9437  -30.1436   23.8958 C   0  0  0  0  0  0
  -17.6432  -30.6550   24.0616 C   0  0  0  0  0  0
  -25.9045  -34.9479   23.5111 C   0  0  0  0  0  0
  -16.5338  -29.9055   23.6332 C   0  0  0  0  0  0
  -16.7288  -28.6512   23.0268 C   0  0  0  0  0  0
  -26.4501  -31.6620   25.0766 C   0  0  0  0  0  0
  -25.3783  -31.3740   26.1532 C   0  0  0  0  0  0
  -27.0289  -30.3028   24.6172 C   0  0  0  0  0  0
  -27.6116  -32.4321   25.7488 C   0  0  0  0  0  0
  -27.5590  -37.1826   24.8452 C   0  0  0  0  0  0
  -21.4130  -29.3059   22.3775 N   0  0  0  0  0  0
  -26.4311  -37.3798   23.9385 N   0  0  0  0  0  0
  -24.6610  -31.0871   22.1089 N   0  0  0  0  0  0
  -23.4177  -28.8234   23.3062 O   0  0  0  0  0  0
  -28.4217  -26.7855   20.0322 O   0  0  0  0  0  0
  -26.5581  -34.8894   22.4660 O   0  0  0  0  0  0
  -23.5335  -32.1482   23.7629 O   0  0  0  0  0  0
  -27.8471  -18.1864   21.5449 C   0  0  0  0  0  0
  -29.0225  -18.2464   19.4096 C   0  0  0  0  0  0
  -28.5570  -17.0303   21.9073 C   0  0  0  0  0  0
  -29.7394  -17.0889   19.7743 C   0  0  0  0  0  0
  -28.0688  -18.7925   20.2927 C   0  0  0  0  0  0
  -29.4962  -16.4641   21.0242 C   0  0  0  0  0  0
  -27.2955  -20.0428   19.9363 C   0  0  0  0  0  0
  -25.3156  -23.6969   20.9788 C   0  0  0  0  0  0
  -26.5708  -23.6683   20.0855 C   0  0  0  0  0  0
  -24.1275  -22.8450   20.4818 C   0  0  0  0  0  0
  -27.7238  -24.5264   20.6428 C   0  0  0  0  0  0
  -25.9516  -19.7558   19.2377 C   0  0  0  0  0  0
  -24.4070  -21.3328   20.3851 C   0  0  0  0  0  0
  -28.4241  -25.4248   19.5999 C   0  0  0  0  0  0
  -30.1030  -15.2501   21.4342 N   0  0  0  0  0  0
  -25.1160  -20.9707   19.1362 N   0  3  0  0  0  0
  -31.4717  -12.3703   19.1035 H   0  0  0  0  0  0
  -30.3275  -11.2411   19.7677 H   0  0  0  0  0  0
  -29.7266  -11.8041   17.3955 H   0  0  0  0  0  0
  -29.6680  -13.5029   17.7935 H   0  0  0  0  0  0
  -27.8222  -11.3060   18.7961 H   0  0  0  0  0  0
  -27.3605  -12.6513   17.7883 H   0  0  0  0  0  0
  -27.7350  -14.2418   19.6074 H   0  0  0  0  0  0
  -28.6650  -11.8593   21.2867 H   0  0  0  0  0  0
  -28.4579  -13.4637   21.8966 H   0  0  0  0  0  0
  -25.2759   -9.5671   22.4758 H   0  0  0  0  0  0
  -23.9998   -7.4617   22.7485 H   0  0  0  0  0  0
  -21.0818   -8.8770   19.8975 H   0  0  0  0  0  0
  -22.3689  -10.9663   19.6166 H   0  0  0  0  0  0
  -21.2004   -7.6149   23.9728 H   0  0  0  0  0  0
  -21.1489   -6.0523   25.9087 H   0  0  0  0  0  0
  -22.0597   -2.7612   23.2856 H   0  0  0  0  0  0
  -22.4139  -11.9949   22.4781 H   0  0  0  0  0  0
  -21.1171  -13.1353   22.2582 H   0  0  0  0  0  0
  -24.6875  -15.8440   20.5637 H   0  0  0  0  0  0
  -26.3236  -15.6319   20.1944 H   0  0  0  0  0  0
  -26.7115  -32.5550   23.1202 H   0  0  0  0  0  0
  -25.0143  -33.9853   25.0529 H   0  0  0  0  0  0
  -22.6781  -31.3184   21.4339 H   0  0  0  0  0  0
  -23.3740  -35.9687   23.3305 H   0  0  0  0  0  0
  -24.3609  -36.8910   22.2018 H   0  0  0  0  0  0
  -23.7266  -37.6545   23.6605 H   0  0  0  0  0  0
  -26.0499  -31.6214   20.6236 H   0  0  0  0  0  0
  -26.8076  -30.8750   22.0028 H   0  0  0  0  0  0
  -28.0946  -29.1315   21.1284 H   0  0  0  0  0  0
  -26.0040  -26.0498   18.9253 H   0  0  0  0  0  0
  -23.9491  -27.3276   19.0395 H   0  0  0  0  0  0
  -23.7066  -30.6274   19.4205 H   0  0  0  0  0  0
  -22.7202  -29.2704   19.8754 H   0  0  0  0  0  0
  -25.1300  -36.1992   25.0800 H   0  0  0  0  0  0
  -20.9946  -28.3211   24.1482 H   0  0  0  0  0  0
  -20.5624  -26.2269   23.3543 H   0  0  0  0  0  0
  -21.6714  -26.7492   22.1269 H   0  0  0  0  0  0
  -19.7031  -25.6485   21.1001 H   0  0  0  0  0  0
  -19.6833  -27.3440   20.6734 H   0  0  0  0  0  0
  -17.4341  -26.6864   21.3739 H   0  0  0  0  0  0
  -18.0246  -26.0086   22.8751 H   0  0  0  0  0  0
  -19.7897  -30.7247   24.2385 H   0  0  0  0  0  0
  -17.4971  -31.6198   24.5283 H   0  0  0  0  0  0
  -15.5333  -30.2922   23.7707 H   0  0  0  0  0  0
  -15.8707  -28.0855   22.6903 H   0  0  0  0  0  0
  -24.5994  -30.7018   25.7912 H   0  0  0  0  0  0
  -24.8923  -32.2887   26.4930 H   0  0  0  0  0  0
  -25.8173  -30.8986   27.0312 H   0  0  0  0  0  0
  -26.2839  -29.6809   24.1190 H   0  0  0  0  0  0
  -27.3963  -29.7257   25.4666 H   0  0  0  0  0  0
  -27.8724  -30.4282   23.9383 H   0  0  0  0  0  0
  -27.2766  -33.3603   26.2138 H   0  0  0  0  0  0
  -28.3858  -32.6907   25.0247 H   0  0  0  0  0  0
  -28.0847  -31.8376   26.5317 H   0  0  0  0  0  0
  -28.2623  -38.0108   24.7504 H   0  0  0  0  0  0
  -28.1069  -36.2645   24.6285 H   0  0  0  0  0  0
  -27.2319  -37.1493   25.8857 H   0  0  0  0  0  0
  -20.9281  -29.8770   21.6998 H   0  0  0  0  0  0
  -26.0190  -38.2874   24.1379 H   0  0  0  0  0  0
  -27.1262  -18.6027   22.2346 H   0  0  0  0  0  0
  -29.2065  -18.7097   18.4492 H   0  0  0  0  0  0
  -28.3597  -16.5751   22.8676 H   0  0  0  0  0  0
  -30.4560  -16.6869   19.0705 H   0  0  0  0  0  0
  -27.9174  -20.6779   19.3028 H   0  0  0  0  0  0
  -27.1405  -20.5955   20.8634 H   0  0  0  0  0  0
  -24.9721  -24.7304   21.0592 H   0  0  0  0  0  0
  -25.5803  -23.3977   21.9941 H   0  0  0  0  0  0
  -26.2976  -23.9579   19.0712 H   0  0  0  0  0  0
  -26.9527  -22.6597   20.0014 H   0  0  0  0  0  0
  -23.7460  -23.2277   19.5346 H   0  0  0  0  0  0
  -23.3142  -22.9824   21.1959 H   0  0  0  0  0  0
  -28.4683  -23.8717   21.0987 H   0  0  0  0  0  0
  -27.3605  -25.1391   21.4680 H   0  0  0  0  0  0
  -25.3944  -18.9739   19.7571 H   0  0  0  0  0  0
  -26.1485  -19.3798   18.2324 H   0  0  0  0  0  0
  -23.4691  -20.7765   20.4043 H   0  0  0  0  0  0
  -24.9546  -21.0103   21.2712 H   0  0  0  0  0  0
  -28.0170  -25.3274   18.5926 H   0  0  0  0  0  0
  -29.4639  -25.1114   19.5022 H   0  0  0  0  0  0
  -29.5808  -14.7816   22.1588 H   0  0  0  0  0  0
  -24.4241  -20.8263   18.4170 H   0  0  0  0  0  0
  -25.6948  -21.7397   18.8421 H   0  0  0  0  0  0
  1 25  1  0  0  0
  1 30  2  0  0  0
  1 85  1  0  0  0
  2  3  1  0  0  0
  2 25  1  0  0  0
  2 87  1  0  0  0
  2 88  1  0  0  0
  3  4  1  0  0  0
  3 89  1  0  0  0
  3 90  1  0  0  0
  4  5  1  0  0  0
  4 91  1  0  0  0
  4 92  1  0  0  0
  5  6  1  0  0  0
  5 26  1  0  0  0
  5 93  1  0  0  0
  6 25  1  0  0  0
  6 94  1  0  0  0
  6 95  1  0  0  0
  7  8  2  0  0  0
  7 26  1  0  0  0
  7 29  1  0  0  0
  8  9  1  0  0  0
  8 22  1  0  0  0
  9 10  1  0  0  0
  9 27  2  0  0  0
 10 11  2  0  0  0
 10 15  1  0  0  0
 11 12  1  0  0  0
 11 96  1  0  0  0
 12 13  2  0  0  0
 12 97  1  0  0  0
 13 14  1  0  0  0
 13 31  1  0  0  0
 14 15  2  0  0  0
 14 98  1  0  0  0
 15 99  1  0  0  0
 16 17  2  0  0  0
 16 21  1  0  0  0
 16 31  1  0  0  0
 17 18  1  0  0  0
 17100  1  0  0  0
 18 19  2  0  0  0
 18101  1  0  0  0
 19 20  1  0  0  0
 19 24  1  0  0  0
 20 21  2  0  0  0
 20102  1  0  0  0
 21 23  1  0  0  0
 22 28  1  0  0  0
 22 32  2  0  0  0
 26 27  1  0  0  0
 28103  1  0  0  0
 28104  1  0  0  0
 29105  1  0  0  0
 29106  1  0  0  0
 33 34  1  0  0  0
 33 66  1  0  0  0
 33 70  2  0  0  0
 34 36  1  0  0  0
 34 59  1  0  0  0
 34107  1  0  0  0
 35 44  2  0  0  0
 35 45  1  0  0  0
 35 68  1  0  0  0
 36 56  1  0  0  0
 36108  1  0  0  0
 37 39  1  0  0  0
 37 47  1  0  0  0
 37 66  1  0  0  0
 37109  1  0  0  0
 38 43  2  0  0  0
 38 46  1  0  0  0
 38 47  1  0  0  0
 39 64  1  0  0  0
 39 67  2  0  0  0
 40 52  1  0  0  0
 40 53  2  0  0  0
 40 58  1  0  0  0
 41110  1  0  0  0
 41111  1  0  0  0
 41112  1  0  0  0
 41 48  1  0  0  0
 42 43  1  0  0  0
 42 66  1  0  0  0
 42113  1  0  0  0
 42114  1  0  0  0
 43 44  1  0  0  0
 44115  1  0  0  0
 45 46  2  0  0  0
 45116  1  0  0  0
 46117  1  0  0  0
 47118  1  0  0  0
 47119  1  0  0  0
 48 56  1  0  0  0
 48 65  1  0  0  0
 48120  1  0  0  0
 49 50  1  0  0  0
 49 53  1  0  0  0
 49 64  1  0  0  0
 49121  1  0  0  0
 50 51  1  0  0  0
 50122  1  0  0  0
 50123  1  0  0  0
 51 52  1  0  0  0
 51124  1  0  0  0
 51125  1  0  0  0
 52126  1  0  0  0
 52127  1  0  0  0
 53 54  1  0  0  0
 54 55  2  0  0  0
 54128  1  0  0  0
 55 57  1  0  0  0
 55129  1  0  0  0
 56 69  2  0  0  0
 57 58  2  0  0  0
 57130  1  0  0  0
 58131  1  0  0  0
 59 60  1  0  0  0
 59 61  1  0  0  0
 59 62  1  0  0  0
 60132  1  0  0  0
 60133  1  0  0  0
 60134  1  0  0  0
 61135  1  0  0  0
 61136  1  0  0  0
 61137  1  0  0  0
 62138  1  0  0  0
 62139  1  0  0  0
 62140  1  0  0  0
 63 65  1  0  0  0
 63141  1  0  0  0
 63142  1  0  0  0
 63143  1  0  0  0
 64144  1  0  0  0
 65145  1  0  0  0
 68 84  1  0  0  0
 71 73  2  0  0  0
 71 75  1  0  0  0
 71146  1  0  0  0
 72 74  1  0  0  0
 72 75  2  0  0  0
 72147  1  0  0  0
 73 76  1  0  0  0
 73148  1  0  0  0
 74 76  2  0  0  0
 74149  1  0  0  0
 75 77  1  0  0  0
 76 85  1  0  0  0
 77 82  1  0  0  0
 77150  1  0  0  0
 77151  1  0  0  0
 78 79  1  0  0  0
 78 80  1  0  0  0
 78152  1  0  0  0
 78153  1  0  0  0
 79 81  1  0  0  0
 79154  1  0  0  0
 79155  1  0  0  0
 80 83  1  0  0  0
 80156  1  0  0  0
 80157  1  0  0  0
 81 84  1  0  0  0
 81158  1  0  0  0
 81159  1  0  0  0
 82 86  1  0  0  0
 82160  1  0  0  0
 82161  1  0  0  0
 83 86  1  0  0  0
 83162  1  0  0  0
 83163  1  0  0  0
 84164  1  0  0  0
 84165  1  0  0  0
 85166  1  0  0  0
 86167  1  0  0  0
 86168  1  0  0  0
M  CHG  1  86   1
M  ISO  4   1 100  68 101  84 101  85 100
M  END
> <chiral flag>
0

> <version>
0

> <s_m_source_file>
/data/baiqing/PycharmProjects/Reinvent-master-3.2/result/LINK_invent/BTK/process_docking_weight1_custom_product_contain_oxygen_bond_distance_aromatic_linkinvent_7_9_3/rearranged_h_0002.sdf

> <i_m_source_file_index>
84

> <r_mmod_Potential_Energy-OPLS-2005>
-161.503768920898

> <r_mmod_Stretch_Energy-OPLS-2005>
32.1185111999512

> <r_mmod_Bend_Energy-OPLS-2005>
101.10612487793

> <r_mmod_Torsional_Energy-OPLS-2005>
263.954925537109

> <r_mmod_Improper_Torsional_Energy-OPLS-2005>
5.31408643722534

> <r_mmod_Van_der_Waal_Energy-OPLS-2005>
154.322570800781

> <r_mmod_Electrostatic_Energy-OPLS-2005>
-253.981658935547

> <r_mmod_Solvation_Energy-OPLS-2005>
-473.866577148438

> <b_mmod_Minimization_Converged-OPLS-2005>
0

> <r_mmod_RMS_Derivative-OPLS-2005>
2.69862461090088

$$$$
84
                    3D
 Structure written by MMmdl.
150158  0  0  1  0            999 V2000
  -30.4779  -15.1834   20.3790 C   0  0  0  0  0  0
  -30.4362  -12.7511   19.5192 C   0  0  0  0  0  0
  -29.5296  -12.5609   18.2788 C   0  0  0  0  0  0
  -28.0742  -12.3022   18.7054 C   0  0  0  0  0  0
  -27.6145  -13.2698   19.8253 C   0  0  2  0  0  0
  -28.6512  -13.4150   20.9595 C   0  0  0  0  0  0
  -25.2400  -13.8243   20.5743 C   0  0  0  0  0  0
  -24.1746  -13.0438   20.9256 C   0  0  0  0  0  0
  -24.6394  -11.6933   20.8764 C   0  0  0  0  0  0
  -23.9089  -10.4293   21.0408 C   0  0  0  0  0  0
  -24.3635   -9.4206   21.9185 C   0  0  0  0  0  0
  -23.6304   -8.2243   22.0754 C   0  0  0  0  0  0
  -22.4285   -8.0283   21.3545 C   0  0  0  0  0  0
  -21.9926   -9.0257   20.4645 C   0  0  0  0  0  0
  -22.7261  -10.2134   20.3055 C   0  0  0  0  0  0
  -21.6856   -6.0739   22.5279 C   0  0  0  0  0  0
  -21.4016   -6.5642   23.8213 C   0  0  0  0  0  0
  -21.3659   -5.6794   24.9175 C   0  0  0  0  0  0
  -21.6043   -4.3056   24.7225 C   0  0  0  0  0  0
  -21.8819   -3.8149   23.4346 C   0  0  0  0  0  0
  -21.9194   -4.6966   22.3402 C   0  0  0  0  0  0
  -22.7764  -13.5192   21.1904 C   0  0  0  0  0  0
  -22.1662   -4.2152   21.0980 F   0  0  0  0  0  0
  -21.5627   -3.4539   25.7737 F   0  0  0  0  0  0
  -29.8940  -13.8934   20.3360 N   0  0  0  0  0  0
  -26.2825  -12.9510   20.3226 N   0  0  0  0  0  0
  -25.9330  -11.6620   20.5730 N   0  0  0  0  0  0
  -22.0423  -12.8171   22.0456 N   0  0  0  0  0  0
  -25.4035  -15.1977   20.4175 N   0  0  0  0  0  0
  -31.6965  -15.1816   20.1600 O   0  0  0  0  0  0
  -21.6644   -6.8883   21.4242 O   0  0  0  0  0  0
  -22.3443  -14.5494   20.6745 O   0  0  0  0  0  0
  -24.6591  -31.8287   23.1756 C   0  0  0  0  0  0
  -25.9293  -32.4615   23.8200 C   0  0  1  0  0  0
  -27.2139  -26.9738   20.1730 C   0  0  0  0  0  0
  -25.5978  -33.8428   24.2106 N   0  0  0  0  0  0
  -23.4714  -30.4437   21.5241 C   0  0  2  0  0  0
  -24.9240  -28.8443   20.1101 C   0  0  0  0  0  0
  -22.7648  -29.4470   22.4795 C   0  0  0  0  0  0
  -18.0319  -28.1409   22.8469 C   0  0  0  0  0  0
  -24.1492  -36.7217   23.2645 C   0  0  0  0  0  0
  -26.0390  -30.6499   21.4004 C   0  0  0  0  0  0
  -26.1075  -29.2456   20.7425 C   0  0  0  0  0  0
  -27.2493  -28.3301   20.7529 C   0  0  0  0  0  0
  -26.0032  -26.7215   19.4873 C   0  0  0  0  0  0
  -24.8948  -27.6012   19.4627 C   0  0  0  0  0  0
  -23.7084  -29.7661   20.1477 C   0  0  0  0  0  0
  -25.4131  -36.2983   24.0302 C   0  0  1  0  0  0
  -20.5944  -28.3750   23.1195 C   0  0  2  0  0  0
  -20.6798  -26.9436   22.5401 C   0  0  0  0  0  0
  -19.5771  -26.6381   21.5213 C   0  0  0  0  0  0
  -18.1953  -26.7942   22.1623 C   0  0  0  0  0  0
  -19.1581  -28.8899   23.2821 C   0  0  0  0  0  0
  -18.9491  -30.1489   23.8856 C   0  0  0  0  0  0
  -17.6486  -30.6599   24.0556 C   0  0  0  0  0  0
  -25.9095  -34.9364   23.5021 C   0  0  0  0  0  0
  -16.5376  -29.9088   23.6344 C   0  0  0  0  0  0
  -16.7302  -28.6508   23.0363 C   0  0  0  0  0  0
  -26.4556  -31.6544   25.0711 C   0  0  0  0  0  0
  -25.3693  -31.3783   26.1373 C   0  0  0  0  0  0
  -27.0448  -30.2916   24.6417 C   0  0  0  0  0  0
  -27.6052  -32.4347   25.7512 C   0  0  0  0  0  0
  -27.5570  -37.1766   24.8466 C   0  0  0  0  0  0
  -21.4322  -29.3048   22.3547 N   0  0  0  0  0  0
  -26.4279  -37.3715   23.9408 N   0  0  0  0  0  0
  -24.7442  -30.9994   22.0871 N   0  0  0  0  0  0
  -23.4216  -28.8030   23.3015 O   0  0  0  0  0  0
  -28.2008  -25.8684   20.2603 O   0  0  0  0  0  0
  -26.5696  -34.8891   22.4612 O   0  0  0  0  0  0
  -23.5671  -32.1236   23.6877 O   0  0  0  0  0  0
  -28.3068  -20.1879   20.9312 C   0  0  0  0  0  0
  -27.8880  -21.6143   20.8953 C   0  0  0  0  0  0
  -30.1371  -20.7554   19.6590 C   0  0  0  0  0  0
  -29.4801  -19.6159   20.2977 C   0  0  0  0  0  0
  -28.5478  -22.7506   20.2480 C   0  0  0  0  0  0
  -29.7283  -22.1878   19.6111 C   0  0  0  0  0  0
  -30.1903  -18.0290   20.3347 C   0  0  0  0  0  0
  -27.8098  -24.3082   20.0304 C   0  0  0  0  0  0
  -30.5846  -23.1586   18.8021 C   0  0  0  0  0  0
  -29.7404  -16.4536   20.4595 N   0  0  0  0  0  0
  -31.7014  -22.5947   18.3393 F   0  0  0  0  0  0
  -29.8872  -23.6105   17.7597 F   0  0  0  0  0  0
  -30.9353  -24.1962   19.5618 F   0  0  0  0  0  0
  -31.4601  -12.9371   19.1924 H   0  0  0  0  0  0
  -30.4804  -11.8359   20.1121 H   0  0  0  0  0  0
  -29.8933  -11.7372   17.6629 H   0  0  0  0  0  0
  -29.5744  -13.4549   17.6548 H   0  0  0  0  0  0
  -28.0159  -11.2739   19.0643 H   0  0  0  0  0  0
  -27.4061  -12.3643   17.8456 H   0  0  0  0  0  0
  -27.5395  -14.2443   19.3413 H   0  0  0  0  0  0
  -28.7989  -12.4731   21.4898 H   0  0  0  0  0  0
  -28.3068  -14.1394   21.6993 H   0  0  0  0  0  0
  -25.2776   -9.5681   22.4766 H   0  0  0  0  0  0
  -24.0010   -7.4633   22.7473 H   0  0  0  0  0  0
  -21.0858   -8.8780   19.8950 H   0  0  0  0  0  0
  -22.3719  -10.9675   19.6167 H   0  0  0  0  0  0
  -21.2010   -7.6151   23.9718 H   0  0  0  0  0  0
  -21.1481   -6.0524   25.9078 H   0  0  0  0  0  0
  -22.0597   -2.7611   23.2845 H   0  0  0  0  0  0
  -22.4059  -11.9841   22.4845 H   0  0  0  0  0  0
  -21.1033  -13.1173   22.2660 H   0  0  0  0  0  0
  -24.6319  -15.8464   20.5296 H   0  0  0  0  0  0
  -26.2423  -15.6395   20.0649 H   0  0  0  0  0  0
  -26.7361  -32.5168   23.0917 H   0  0  0  0  0  0
  -25.0086  -33.9515   25.0229 H   0  0  0  0  0  0
  -22.7823  -31.2746   21.3585 H   0  0  0  0  0  0
  -23.3765  -35.9537   23.3283 H   0  0  0  0  0  0
  -24.3571  -36.8885   22.2065 H   0  0  0  0  0  0
  -23.7239  -37.6396   23.6713 H   0  0  0  0  0  0
  -26.2155  -31.3951   20.6236 H   0  0  0  0  0  0
  -26.9007  -30.7036   22.0539 H   0  0  0  0  0  0
  -28.1428  -28.6322   21.2807 H   0  0  0  0  0  0
  -25.8667  -25.7761   18.9852 H   0  0  0  0  0  0
  -23.9962  -27.2891   18.9482 H   0  0  0  0  0  0
  -23.8602  -30.5377   19.3921 H   0  0  0  0  0  0
  -22.8189  -29.2191   19.8299 H   0  0  0  0  0  0
  -25.1329  -36.1784   25.0794 H   0  0  0  0  0  0
  -21.0033  -28.3353   24.1317 H   0  0  0  0  0  0
  -20.5683  -26.2368   23.3637 H   0  0  0  0  0  0
  -21.6662  -26.7420   22.1204 H   0  0  0  0  0  0
  -19.6930  -25.6281   21.1271 H   0  0  0  0  0  0
  -19.6707  -27.3166   20.6723 H   0  0  0  0  0  0
  -17.4221  -26.6685   21.4028 H   0  0  0  0  0  0
  -18.0350  -26.0096   22.9031 H   0  0  0  0  0  0
  -19.7966  -30.7318   24.2206 H   0  0  0  0  0  0
  -17.5038  -31.6274   24.5167 H   0  0  0  0  0  0
  -15.5374  -30.2976   23.7693 H   0  0  0  0  0  0
  -15.8702  -28.0812   22.7104 H   0  0  0  0  0  0
  -24.5890  -30.7115   25.7686 H   0  0  0  0  0  0
  -24.8865  -32.2981   26.4683 H   0  0  0  0  0  0
  -25.7935  -30.9030   27.0226 H   0  0  0  0  0  0
  -26.3109  -29.6600   24.1398 H   0  0  0  0  0  0
  -27.3966  -29.7269   25.5062 H   0  0  0  0  0  0
  -27.9058  -30.4106   23.9836 H   0  0  0  0  0  0
  -27.2621  -33.3687   26.1976 H   0  0  0  0  0  0
  -28.3924  -32.6846   25.0386 H   0  0  0  0  0  0
  -28.0652  -31.8550   26.5524 H   0  0  0  0  0  0
  -28.2572  -38.0077   24.7515 H   0  0  0  0  0  0
  -28.1082  -36.2604   24.6293 H   0  0  0  0  0  0
  -27.2288  -37.1410   25.8869 H   0  0  0  0  0  0
  -20.9565  -29.8745   21.6689 H   0  0  0  0  0  0
  -26.0130  -38.2774   24.1417 H   0  0  0  0  0  0
  -27.6757  -19.5082   21.4879 H   0  0  0  0  0  0
  -26.9534  -21.8375   21.3907 H   0  0  0  0  0  0
  -31.0542  -20.5095   19.1449 H   0  0  0  0  0  0
  -30.9306  -18.1239   21.1298 H   0  0  0  0  0  0
  -30.7966  -18.0202   19.4282 H   0  0  0  0  0  0
  -26.8676  -24.2038   20.5688 H   0  0  0  0  0  0
  -27.5233  -24.2736   18.9795 H   0  0  0  0  0  0
  -28.7482  -16.3264   20.5922 H   0  0  0  0  0  0
  1 25  1  0  0  0
  1 30  2  0  0  0
  1 80  1  0  0  0
  2  3  1  0  0  0
  2 25  1  0  0  0
  2 84  1  0  0  0
  2 85  1  0  0  0
  3  4  1  0  0  0
  3 86  1  0  0  0
  3 87  1  0  0  0
  4  5  1  0  0  0
  4 88  1  0  0  0
  4 89  1  0  0  0
  5  6  1  0  0  0
  5 26  1  0  0  0
  5 90  1  0  0  0
  6 25  1  0  0  0
  6 91  1  0  0  0
  6 92  1  0  0  0
  7  8  2  0  0  0
  7 26  1  0  0  0
  7 29  1  0  0  0
  8  9  1  0  0  0
  8 22  1  0  0  0
  9 10  1  0  0  0
  9 27  2  0  0  0
 10 11  2  0  0  0
 10 15  1  0  0  0
 11 12  1  0  0  0
 11 93  1  0  0  0
 12 13  2  0  0  0
 12 94  1  0  0  0
 13 14  1  0  0  0
 13 31  1  0  0  0
 14 15  2  0  0  0
 14 95  1  0  0  0
 15 96  1  0  0  0
 16 17  2  0  0  0
 16 21  1  0  0  0
 16 31  1  0  0  0
 17 18  1  0  0  0
 17 97  1  0  0  0
 18 19  2  0  0  0
 18 98  1  0  0  0
 19 20  1  0  0  0
 19 24  1  0  0  0
 20 21  2  0  0  0
 20 99  1  0  0  0
 21 23  1  0  0  0
 22 28  1  0  0  0
 22 32  2  0  0  0
 26 27  1  0  0  0
 28100  1  0  0  0
 28101  1  0  0  0
 29102  1  0  0  0
 29103  1  0  0  0
 33 34  1  0  0  0
 33 66  1  0  0  0
 33 70  2  0  0  0
 34 36  1  0  0  0
 34 59  1  0  0  0
 34104  1  0  0  0
 35 44  2  0  0  0
 35 45  1  0  0  0
 35 68  1  0  0  0
 36 56  1  0  0  0
 36105  1  0  0  0
 37 39  1  0  0  0
 37 47  1  0  0  0
 37 66  1  0  0  0
 37106  1  0  0  0
 38 43  2  0  0  0
 38 46  1  0  0  0
 38 47  1  0  0  0
 39 64  1  0  0  0
 39 67  2  0  0  0
 40 52  1  0  0  0
 40 53  2  0  0  0
 40 58  1  0  0  0
 41107  1  0  0  0
 41108  1  0  0  0
 41109  1  0  0  0
 41 48  1  0  0  0
 42 43  1  0  0  0
 42 66  1  0  0  0
 42110  1  0  0  0
 42111  1  0  0  0
 43 44  1  0  0  0
 44112  1  0  0  0
 45 46  2  0  0  0
 45113  1  0  0  0
 46114  1  0  0  0
 47115  1  0  0  0
 47116  1  0  0  0
 48 56  1  0  0  0
 48 65  1  0  0  0
 48117  1  0  0  0
 49 50  1  0  0  0
 49 53  1  0  0  0
 49 64  1  0  0  0
 49118  1  0  0  0
 50 51  1  0  0  0
 50119  1  0  0  0
 50120  1  0  0  0
 51 52  1  0  0  0
 51121  1  0  0  0
 51122  1  0  0  0
 52123  1  0  0  0
 52124  1  0  0  0
 53 54  1  0  0  0
 54 55  2  0  0  0
 54125  1  0  0  0
 55 57  1  0  0  0
 55126  1  0  0  0
 56 69  2  0  0  0
 57 58  2  0  0  0
 57127  1  0  0  0
 58128  1  0  0  0
 59 60  1  0  0  0
 59 61  1  0  0  0
 59 62  1  0  0  0
 60129  1  0  0  0
 60130  1  0  0  0
 60131  1  0  0  0
 61132  1  0  0  0
 61133  1  0  0  0
 61134  1  0  0  0
 62135  1  0  0  0
 62136  1  0  0  0
 62137  1  0  0  0
 63 65  1  0  0  0
 63138  1  0  0  0
 63139  1  0  0  0
 63140  1  0  0  0
 64141  1  0  0  0
 65142  1  0  0  0
 68 78  1  0  0  0
 71 72  2  0  0  0
 71 74  1  0  0  0
 71143  1  0  0  0
 72 75  1  0  0  0
 72144  1  0  0  0
 73 74  2  0  0  0
 73 76  1  0  0  0
 73145  1  0  0  0
 74 77  1  0  0  0
 75 76  2  0  0  0
 75 78  1  0  0  0
 76 79  1  0  0  0
 77 80  1  0  0  0
 77146  1  0  0  0
 77147  1  0  0  0
 78148  1  0  0  0
 78149  1  0  0  0
 79 81  1  0  0  0
 79 82  1  0  0  0
 79 83  1  0  0  0
 80150  1  0  0  0
M  ISO  4   1 100  68 101  78 101  80 100
M  END
> <chiral flag>
0

> <version>
0

> <s_m_source_file>
/data/baiqing/PycharmProjects/Reinvent-master-3.2/result/LINK_invent/BTK/process_docking_weight1_custom_product_contain_oxygen_bond_distance_aromatic_linkinvent_7_9_3/rearranged_h_0002.sdf

> <i_m_source_file_index>
85

> <r_mmod_Potential_Energy-OPLS-2005>
1035.03076171875

> <r_mmod_Stretch_Energy-OPLS-2005>
447.944610595703

> <r_mmod_Bend_Energy-OPLS-2005>
420.913482666016

> <r_mmod_Torsional_Energy-OPLS-2005>
215.678131103516

> <r_mmod_Improper_Torsional_Energy-OPLS-2005>
7.23394060134888

> <r_mmod_Van_der_Waal_Energy-OPLS-2005>
134.752975463867

> <r_mmod_Electrostatic_Energy-OPLS-2005>
-366.884735107422

> <r_mmod_Solvation_Energy-OPLS-2005>
-211.836471557617

> <b_mmod_Minimization_Converged-OPLS-2005>
0

> <r_mmod_RMS_Derivative-OPLS-2005>
0.170318722724915

$$$$
85
                    3D
 Structure written by MMmdl.
151159  0  0  1  0            999 V2000
  -30.6101  -14.6485   20.4966 C   0  0  0  0  0  0
  -30.4378  -12.3974   19.4524 C   0  0  0  0  0  0
  -29.5110  -12.5272   18.2226 C   0  0  0  0  0  0
  -28.0321  -12.3602   18.6315 C   0  0  0  0  0  0
  -27.6546  -13.2185   19.8681 C   0  0  2  0  0  0
  -28.6985  -13.0643   20.9978 C   0  0  0  0  0  0
  -25.2574  -13.8164   20.5698 C   0  0  0  0  0  0
  -24.1825  -13.0439   20.9182 C   0  0  0  0  0  0
  -24.6392  -11.6907   20.8731 C   0  0  0  0  0  0
  -23.9055  -10.4299   21.0405 C   0  0  0  0  0  0
  -24.3613   -9.4213   21.9179 C   0  0  0  0  0  0
  -23.6285   -8.2248   22.0756 C   0  0  0  0  0  0
  -22.4263   -8.0278   21.3553 C   0  0  0  0  0  0
  -21.9898   -9.0254   20.4661 C   0  0  0  0  0  0
  -22.7227  -10.2132   20.3059 C   0  0  0  0  0  0
  -21.6852   -6.0730   22.5286 C   0  0  0  0  0  0
  -21.4013   -6.5637   23.8214 C   0  0  0  0  0  0
  -21.3669   -5.6791   24.9178 C   0  0  0  0  0  0
  -21.6041   -4.3052   24.7227 C   0  0  0  0  0  0
  -21.8819   -3.8145   23.4347 C   0  0  0  0  0  0
  -21.9195   -4.6965   22.3402 C   0  0  0  0  0  0
  -22.7856  -13.5241   21.1833 C   0  0  0  0  0  0
  -22.1668   -4.2155   21.0979 F   0  0  0  0  0  0
  -21.5631   -3.4530   25.7742 F   0  0  0  0  0  0
  -30.0127  -13.4148   20.4353 N   0  0  0  0  0  0
  -26.2993  -12.9343   20.3314 N   0  0  0  0  0  0
  -25.9317  -11.6501   20.5729 N   0  0  0  0  0  0
  -22.0496  -12.8253   22.0398 N   0  0  0  0  0  0
  -25.4292  -15.1887   20.4150 N   0  0  0  0  0  0
  -31.7715  -14.8101   20.1113 O   0  0  0  0  0  0
  -21.6640   -6.8866   21.4239 O   0  0  0  0  0  0
  -22.3555  -14.5555   20.6686 O   0  0  0  0  0  0
  -24.6258  -31.8613   23.2019 C   0  0  0  0  0  0
  -25.9109  -32.4789   23.8353 C   0  0  1  0  0  0
  -27.2264  -27.3173   20.1160 C   0  0  0  0  0  0
  -25.5924  -33.8593   24.2286 N   0  0  0  0  0  0
  -23.4196  -30.4823   21.5460 C   0  0  2  0  0  0
  -24.8647  -28.9345   20.1143 C   0  0  0  0  0  0
  -22.7482  -29.4627   22.4959 C   0  0  0  0  0  0
  -18.0288  -28.1362   22.8483 C   0  0  0  0  0  0
  -24.1486  -36.7295   23.2636 C   0  0  0  0  0  0
  -25.9599  -30.7897   21.3724 C   0  0  0  0  0  0
  -26.0343  -29.4161   20.7152 C   0  0  0  0  0  0
  -27.2170  -28.6187   20.7071 C   0  0  0  0  0  0
  -26.0325  -26.8901   19.4890 C   0  0  0  0  0  0
  -24.8650  -27.6766   19.4940 C   0  0  0  0  0  0
  -23.6320  -29.8137   20.1628 C   0  0  0  0  0  0
  -25.4109  -36.3090   24.0331 C   0  0  1  0  0  0
  -20.5891  -28.3672   23.1282 C   0  0  2  0  0  0
  -20.6787  -26.9400   22.5409 C   0  0  0  0  0  0
  -19.5754  -26.6370   21.5213 C   0  0  0  0  0  0
  -18.1929  -26.7904   22.1624 C   0  0  0  0  0  0
  -19.1546  -28.8838   23.2867 C   0  0  0  0  0  0
  -18.9471  -30.1440   23.8879 C   0  0  0  0  0  0
  -17.6474  -30.6573   24.0549 C   0  0  0  0  0  0
  -25.9044  -34.9461   23.5103 C   0  0  0  0  0  0
  -16.5359  -29.9068   23.6324 C   0  0  0  0  0  0
  -16.7279  -28.6481   23.0354 C   0  0  0  0  0  0
  -26.4484  -31.6604   25.0731 C   0  0  0  0  0  0
  -25.3713  -31.3765   26.1464 C   0  0  0  0  0  0
  -27.0334  -30.3033   24.6183 C   0  0  0  0  0  0
  -27.6037  -32.4345   25.7507 C   0  0  0  0  0  0
  -27.5578  -37.1795   24.8455 C   0  0  0  0  0  0
  -21.4202  -29.3027   22.3689 N   0  0  0  0  0  0
  -26.4278  -37.3792   23.9414 N   0  0  0  0  0  0
  -24.6877  -31.0612   22.0971 N   0  0  0  0  0  0
  -23.4200  -28.8172   23.3046 O   0  0  0  0  0  0
  -28.3485  -26.4726   20.1646 O   0  0  0  0  0  0
  -26.5620  -34.8932   22.4675 O   0  0  0  0  0  0
  -23.5420  -32.1416   23.7336 O   0  0  0  0  0  0
  -30.9280  -19.2579   19.9032 C   0  0  0  0  0  0
  -28.8812  -19.4115   21.1484 C   0  0  0  0  0  0
  -30.9095  -17.8340   19.9975 C   0  0  0  0  0  0
  -28.8594  -17.9822   21.2429 C   0  0  0  0  0  0
  -29.9333  -20.0960   20.4851 C   0  0  0  0  0  0
  -29.8796  -17.1491   20.6961 C   0  0  0  0  0  0
  -30.1386  -21.6289   20.5168 C   0  0  0  0  0  0
  -29.3441  -24.0434   20.4143 C   0  0  0  0  0  0
  -28.1474  -25.0099   20.0155 C   0  0  0  0  0  0
  -29.7935  -15.6915   20.8602 N   0  0  0  0  0  0
  -29.1310  -22.5420   20.3681 N   0  0  0  0  0  0
  -31.2958  -22.0305   20.6566 O   0  0  0  0  0  0
  -31.4830  -12.5178   19.1611 H   0  0  0  0  0  0
  -30.3580  -11.3977   19.8806 H   0  0  0  0  0  0
  -29.7773  -11.7899   17.4623 H   0  0  0  0  0  0
  -29.6531  -13.5057   17.7610 H   0  0  0  0  0  0
  -27.8632  -11.3038   18.8441 H   0  0  0  0  0  0
  -27.3807  -12.6109   17.7942 H   0  0  0  0  0  0
  -27.6748  -14.2565   19.5349 H   0  0  0  0  0  0
  -28.7092  -12.0402   21.3737 H   0  0  0  0  0  0
  -28.4452  -13.6877   21.8567 H   0  0  0  0  0  0
  -25.2758   -9.5691   22.4751 H   0  0  0  0  0  0
  -24.0019   -7.4628   22.7455 H   0  0  0  0  0  0
  -21.0836   -8.8775   19.8950 H   0  0  0  0  0  0
  -22.3694  -10.9676   19.6177 H   0  0  0  0  0  0
  -21.2008   -7.6149   23.9717 H   0  0  0  0  0  0
  -21.1490   -6.0521   25.9080 H   0  0  0  0  0  0
  -22.0588   -2.7604   23.2838 H   0  0  0  0  0  0
  -22.4101  -11.9940   22.4840 H   0  0  0  0  0  0
  -21.1114  -13.1296   22.2570 H   0  0  0  0  0  0
  -24.6578  -15.8386   20.5162 H   0  0  0  0  0  0
  -26.2742  -15.6296   20.0745 H   0  0  0  0  0  0
  -26.7176  -32.5449   23.1099 H   0  0  0  0  0  0
  -25.0076  -33.9752   25.0432 H   0  0  0  0  0  0
  -22.7105  -31.3008   21.4028 H   0  0  0  0  0  0
  -23.3761  -35.9614   23.3289 H   0  0  0  0  0  0
  -24.3567  -36.8932   22.2052 H   0  0  0  0  0  0
  -23.7239  -37.6490   23.6668 H   0  0  0  0  0  0
  -26.0907  -31.5516   20.6029 H   0  0  0  0  0  0
  -26.8405  -30.8389   22.0015 H   0  0  0  0  0  0
  -28.1138  -28.9825   21.1895 H   0  0  0  0  0  0
  -25.9716  -25.9324   18.9970 H   0  0  0  0  0  0
  -23.9674  -27.3005   19.0244 H   0  0  0  0  0  0
  -23.7467  -30.5869   19.4032 H   0  0  0  0  0  0
  -22.7519  -29.2398   19.8657 H   0  0  0  0  0  0
  -25.1286  -36.1938   25.0823 H   0  0  0  0  0  0
  -20.9965  -28.3251   24.1411 H   0  0  0  0  0  0
  -20.5695  -26.2286   23.3612 H   0  0  0  0  0  0
  -21.6657  -26.7432   22.1205 H   0  0  0  0  0  0
  -19.6920  -25.6281   21.1243 H   0  0  0  0  0  0
  -19.6682  -27.3185   20.6744 H   0  0  0  0  0  0
  -17.4209  -26.6656   21.4020 H   0  0  0  0  0  0
  -18.0312  -26.0040   22.9010 H   0  0  0  0  0  0
  -19.7953  -30.7259   24.2236 H   0  0  0  0  0  0
  -17.5033  -31.6256   24.5147 H   0  0  0  0  0  0
  -15.5362  -30.2967   23.7657 H   0  0  0  0  0  0
  -15.8675  -28.0794   22.7080 H   0  0  0  0  0  0
  -24.5847  -30.7155   25.7806 H   0  0  0  0  0  0
  -24.8948  -32.2948   26.4908 H   0  0  0  0  0  0
  -25.8024  -30.8925   27.0238 H   0  0  0  0  0  0
  -26.2923  -29.6791   24.1181 H   0  0  0  0  0  0
  -27.4019  -29.7279   25.4685 H   0  0  0  0  0  0
  -27.8789  -30.4340   23.9429 H   0  0  0  0  0  0
  -27.2634  -33.3635   26.2096 H   0  0  0  0  0  0
  -28.3840  -32.6931   25.0338 H   0  0  0  0  0  0
  -28.0714  -31.8474   26.5419 H   0  0  0  0  0  0
  -28.2580  -38.0105   24.7530 H   0  0  0  0  0  0
  -28.1086  -36.2644   24.6237 H   0  0  0  0  0  0
  -27.2289  -37.1396   25.8851 H   0  0  0  0  0  0
  -20.9385  -29.8742   21.6892 H   0  0  0  0  0  0
  -26.0160  -38.2860   24.1436 H   0  0  0  0  0  0
  -31.7576  -19.7219   19.3875 H   0  0  0  0  0  0
  -28.0976  -19.9795   21.6298 H   0  0  0  0  0  0
  -31.7110  -17.2813   19.5279 H   0  0  0  0  0  0
  -28.0385  -17.5229   21.7782 H   0  0  0  0  0  0
  -29.6618  -24.2967   21.4266 H   0  0  0  0  0  0
  -30.1931  -24.2874   19.7728 H   0  0  0  0  0  0
  -27.2786  -24.7163   20.6069 H   0  0  0  0  0  0
  -27.8994  -24.8077   18.9725 H   0  0  0  0  0  0
  -28.9141  -15.3707   21.2374 H   0  0  0  0  0  0
  -28.1923  -22.1944   20.2317 H   0  0  0  0  0  0
  1 25  1  0  0  0
  1 30  2  0  0  0
  1 80  1  0  0  0
  2  3  1  0  0  0
  2 25  1  0  0  0
  2 83  1  0  0  0
  2 84  1  0  0  0
  3  4  1  0  0  0
  3 85  1  0  0  0
  3 86  1  0  0  0
  4  5  1  0  0  0
  4 87  1  0  0  0
  4 88  1  0  0  0
  5  6  1  0  0  0
  5 26  1  0  0  0
  5 89  1  0  0  0
  6 25  1  0  0  0
  6 90  1  0  0  0
  6 91  1  0  0  0
  7  8  2  0  0  0
  7 26  1  0  0  0
  7 29  1  0  0  0
  8  9  1  0  0  0
  8 22  1  0  0  0
  9 10  1  0  0  0
  9 27  2  0  0  0
 10 11  2  0  0  0
 10 15  1  0  0  0
 11 12  1  0  0  0
 11 92  1  0  0  0
 12 13  2  0  0  0
 12 93  1  0  0  0
 13 14  1  0  0  0
 13 31  1  0  0  0
 14 15  2  0  0  0
 14 94  1  0  0  0
 15 95  1  0  0  0
 16 17  2  0  0  0
 16 21  1  0  0  0
 16 31  1  0  0  0
 17 18  1  0  0  0
 17 96  1  0  0  0
 18 19  2  0  0  0
 18 97  1  0  0  0
 19 20  1  0  0  0
 19 24  1  0  0  0
 20 21  2  0  0  0
 20 98  1  0  0  0
 21 23  1  0  0  0
 22 28  1  0  0  0
 22 32  2  0  0  0
 26 27  1  0  0  0
 28 99  1  0  0  0
 28100  1  0  0  0
 29101  1  0  0  0
 29102  1  0  0  0
 33 34  1  0  0  0
 33 66  1  0  0  0
 33 70  2  0  0  0
 34 36  1  0  0  0
 34 59  1  0  0  0
 34103  1  0  0  0
 35 44  2  0  0  0
 35 45  1  0  0  0
 35 68  1  0  0  0
 36 56  1  0  0  0
 36104  1  0  0  0
 37 39  1  0  0  0
 37 47  1  0  0  0
 37 66  1  0  0  0
 37105  1  0  0  0
 38 43  2  0  0  0
 38 46  1  0  0  0
 38 47  1  0  0  0
 39 64  1  0  0  0
 39 67  2  0  0  0
 40 52  1  0  0  0
 40 53  2  0  0  0
 40 58  1  0  0  0
 41106  1  0  0  0
 41107  1  0  0  0
 41108  1  0  0  0
 41 48  1  0  0  0
 42 43  1  0  0  0
 42 66  1  0  0  0
 42109  1  0  0  0
 42110  1  0  0  0
 43 44  1  0  0  0
 44111  1  0  0  0
 45 46  2  0  0  0
 45112  1  0  0  0
 46113  1  0  0  0
 47114  1  0  0  0
 47115  1  0  0  0
 48 56  1  0  0  0
 48 65  1  0  0  0
 48116  1  0  0  0
 49 50  1  0  0  0
 49 53  1  0  0  0
 49 64  1  0  0  0
 49117  1  0  0  0
 50 51  1  0  0  0
 50118  1  0  0  0
 50119  1  0  0  0
 51 52  1  0  0  0
 51120  1  0  0  0
 51121  1  0  0  0
 52122  1  0  0  0
 52123  1  0  0  0
 53 54  1  0  0  0
 54 55  2  0  0  0
 54124  1  0  0  0
 55 57  1  0  0  0
 55125  1  0  0  0
 56 69  2  0  0  0
 57 58  2  0  0  0
 57126  1  0  0  0
 58127  1  0  0  0
 59 60  1  0  0  0
 59 61  1  0  0  0
 59 62  1  0  0  0
 60128  1  0  0  0
 60129  1  0  0  0
 60130  1  0  0  0
 61131  1  0  0  0
 61132  1  0  0  0
 61133  1  0  0  0
 62134  1  0  0  0
 62135  1  0  0  0
 62136  1  0  0  0
 63 65  1  0  0  0
 63137  1  0  0  0
 63138  1  0  0  0
 63139  1  0  0  0
 64140  1  0  0  0
 65141  1  0  0  0
 68 79  1  0  0  0
 71 73  2  0  0  0
 71 75  1  0  0  0
 71142  1  0  0  0
 72 74  1  0  0  0
 72 75  2  0  0  0
 72143  1  0  0  0
 73 76  1  0  0  0
 73144  1  0  0  0
 74 76  2  0  0  0
 74145  1  0  0  0
 75 77  1  0  0  0
 76 80  1  0  0  0
 77 81  1  0  0  0
 77 82  2  0  0  0
 78 79  1  0  0  0
 78 81  1  0  0  0
 78146  1  0  0  0
 78147  1  0  0  0
 79148  1  0  0  0
 79149  1  0  0  0
 80150  1  0  0  0
 81151  1  0  0  0
M  ISO  4   1 100  68 101  79 101  80 100
M  END
> <chiral flag>
0

> <version>
0

> <s_m_source_file>
/data/baiqing/PycharmProjects/Reinvent-master-3.2/result/LINK_invent/BTK/process_docking_weight1_custom_product_contain_oxygen_bond_distance_aromatic_linkinvent_7_9_3/rearranged_h_0002.sdf

> <i_m_source_file_index>
86

> <r_mmod_Potential_Energy-OPLS-2005>
-20.1527366638184

> <r_mmod_Stretch_Energy-OPLS-2005>
80.7307205200195

> <r_mmod_Bend_Energy-OPLS-2005>
139.29328918457

> <r_mmod_Torsional_Energy-OPLS-2005>
221.9248046875

> <r_mmod_Improper_Torsional_Energy-OPLS-2005>
4.54523420333862

> <r_mmod_Van_der_Waal_Energy-OPLS-2005>
146.996185302734

> <r_mmod_Electrostatic_Energy-OPLS-2005>
-423.341766357422

> <r_mmod_Solvation_Energy-OPLS-2005>
-239.833206176758

> <b_mmod_Minimization_Converged-OPLS-2005>
0

> <r_mmod_RMS_Derivative-OPLS-2005>
2.48203277587891

$$$$
86
                    3D
 Structure written by MMmdl.
148156  0  0  1  0            999 V2000
  -30.5066  -14.9122   20.4364 C   0  0  0  0  0  0
  -30.4572  -12.5594   19.4935 C   0  0  0  0  0  0
  -29.5282  -12.5199   18.2554 C   0  0  0  0  0  0
  -28.0576  -12.3117   18.6710 C   0  0  0  0  0  0
  -27.6394  -13.2328   19.8459 C   0  0  2  0  0  0
  -28.6827  -13.2097   20.9842 C   0  0  0  0  0  0
  -25.2503  -13.8179   20.5680 C   0  0  0  0  0  0
  -24.1804  -13.0432   20.9234 C   0  0  0  0  0  0
  -24.6391  -11.6909   20.8755 C   0  0  0  0  0  0
  -23.9061  -10.4290   21.0411 C   0  0  0  0  0  0
  -24.3611   -9.4205   21.9186 C   0  0  0  0  0  0
  -23.6288   -8.2238   22.0750 C   0  0  0  0  0  0
  -22.4271   -8.0275   21.3541 C   0  0  0  0  0  0
  -21.9904   -9.0252   20.4648 C   0  0  0  0  0  0
  -22.7230  -10.2135   20.3062 C   0  0  0  0  0  0
  -21.6854   -6.0729   22.5277 C   0  0  0  0  0  0
  -21.4013   -6.5632   23.8208 C   0  0  0  0  0  0
  -21.3661   -5.6786   24.9171 C   0  0  0  0  0  0
  -21.6045   -4.3047   24.7224 C   0  0  0  0  0  0
  -21.8820   -3.8140   23.4344 C   0  0  0  0  0  0
  -21.9192   -4.6957   22.3400 C   0  0  0  0  0  0
  -22.7825  -13.5222   21.1889 C   0  0  0  0  0  0
  -22.1662   -4.2144   21.0978 F   0  0  0  0  0  0
  -21.5632   -3.4531   25.7736 F   0  0  0  0  0  0
  -29.9671  -13.6300   20.4031 N   0  0  0  0  0  0
  -26.2923  -12.9383   20.3242 N   0  0  0  0  0  0
  -25.9319  -11.6532   20.5738 N   0  0  0  0  0  0
  -22.0468  -12.8219   22.0447 N   0  0  0  0  0  0
  -25.4177  -15.1897   20.4031 N   0  0  0  0  0  0
  -31.6939  -15.0568   20.1209 O   0  0  0  0  0  0
  -21.6638   -6.8871   21.4237 O   0  0  0  0  0  0
  -22.3514  -14.5527   20.6726 O   0  0  0  0  0  0
  -24.6416  -31.8453   23.1901 C   0  0  0  0  0  0
  -25.9200  -32.4701   23.8277 C   0  0  1  0  0  0
  -27.2194  -27.1518   20.1453 C   0  0  0  0  0  0
  -25.5965  -33.8506   24.2202 N   0  0  0  0  0  0
  -23.4439  -30.4666   21.5351 C   0  0  2  0  0  0
  -24.8937  -28.8974   20.1099 C   0  0  0  0  0  0
  -22.7560  -29.4552   22.4860 C   0  0  0  0  0  0
  -18.0312  -28.1393   22.8469 C   0  0  0  0  0  0
  -24.1494  -36.7247   23.2641 C   0  0  0  0  0  0
  -25.9996  -30.7244   21.3866 C   0  0  0  0  0  0
  -26.0718  -29.3381   20.7263 C   0  0  0  0  0  0
  -27.2360  -28.4820   20.7257 C   0  0  0  0  0  0
  -26.0120  -26.8101   19.4939 C   0  0  0  0  0  0
  -24.8768  -27.6464   19.4781 C   0  0  0  0  0  0
  -23.6696  -29.7981   20.1537 C   0  0  0  0  0  0
  -25.4127  -36.3034   24.0317 C   0  0  1  0  0  0
  -20.5919  -28.3710   23.1237 C   0  0  2  0  0  0
  -20.6792  -26.9413   22.5410 C   0  0  0  0  0  0
  -19.5774  -26.6379   21.5205 C   0  0  0  0  0  0
  -18.1953  -26.7936   22.1610 C   0  0  0  0  0  0
  -19.1566  -28.8871   23.2846 C   0  0  0  0  0  0
  -18.9483  -30.1470   23.8866 C   0  0  0  0  0  0
  -17.6479  -30.6586   24.0558 C   0  0  0  0  0  0
  -25.9073  -34.9409   23.5067 C   0  0  0  0  0  0
  -16.5370  -29.9077   23.6341 C   0  0  0  0  0  0
  -16.7296  -28.6502   23.0351 C   0  0  0  0  0  0
  -26.4529  -31.6562   25.0707 C   0  0  0  0  0  0
  -25.3724  -31.3768   26.1419 C   0  0  0  0  0  0
  -27.0377  -30.2956   24.6276 C   0  0  0  0  0  0
  -27.6086  -32.4308   25.7471 C   0  0  0  0  0  0
  -27.5583  -37.1776   24.8464 C   0  0  0  0  0  0
  -21.4255  -29.3039   22.3609 N   0  0  0  0  0  0
  -26.4289  -37.3749   23.9414 N   0  0  0  0  0  0
  -24.7147  -31.0329   22.0924 N   0  0  0  0  0  0
  -23.4217  -28.8100   23.2999 O   0  0  0  0  0  0
  -28.2775  -26.1735   20.2098 O   0  0  0  0  0  0
  -26.5645  -34.8903   22.4634 O   0  0  0  0  0  0
  -23.5543  -32.1324   23.7138 O   0  0  0  0  0  0
  -28.2153  -18.0953   20.7491 C   0  0  0  0  0  0
  -30.4833  -18.5413   20.2926 C   0  0  0  0  0  0
  -27.9193  -19.5039   20.6778 C   0  0  0  0  0  0
  -30.1796  -19.9799   20.2323 C   0  0  0  0  0  0
  -29.5053  -17.5105   20.5545 C   0  0  0  0  0  0
  -28.8633  -20.5436   20.4177 C   0  0  0  0  0  0
  -28.9684  -23.3056   20.2949 C   0  0  0  0  0  0
  -27.9754  -24.6526   20.0919 C   0  0  0  0  0  0
  -29.6169  -15.9865   20.6674 N   0  0  0  0  0  0
  -28.3409  -21.9105   20.3531 O   0  0  0  0  0  0
  -31.4885  -12.7346   19.1825 H   0  0  0  0  0  0
  -30.4604  -11.5956   20.0058 H   0  0  0  0  0  0
  -29.8405  -11.7242   17.5774 H   0  0  0  0  0  0
  -29.6216  -13.4520   17.6963 H   0  0  0  0  0  0
  -27.9473  -11.2684   18.9696 H   0  0  0  0  0  0
  -27.3947  -12.4547   17.8166 H   0  0  0  0  0  0
  -27.6179  -14.2430   19.4364 H   0  0  0  0  0  0
  -28.7602  -12.2129   21.4208 H   0  0  0  0  0  0
  -28.3848  -13.8728   21.7977 H   0  0  0  0  0  0
  -25.2756   -9.5682   22.4757 H   0  0  0  0  0  0
  -24.0001   -7.4627   22.7461 H   0  0  0  0  0  0
  -21.0838   -8.8770   19.8954 H   0  0  0  0  0  0
  -22.3684  -10.9672   19.6174 H   0  0  0  0  0  0
  -21.2003   -7.6140   23.9709 H   0  0  0  0  0  0
  -21.1487   -6.0516   25.9075 H   0  0  0  0  0  0
  -22.0599   -2.7601   23.2843 H   0  0  0  0  0  0
  -22.4081  -11.9886   22.4849 H   0  0  0  0  0  0
  -21.1085  -13.1247   22.2656 H   0  0  0  0  0  0
  -24.6341  -15.8285   20.4849 H   0  0  0  0  0  0
  -26.2245  -15.6094   19.9608 H   0  0  0  0  0  0
  -26.7255  -32.5312   23.0996 H   0  0  0  0  0  0
  -25.0126  -33.9625   25.0360 H   0  0  0  0  0  0
  -22.7454  -31.2921   21.3833 H   0  0  0  0  0  0
  -23.3765  -35.9568   23.3292 H   0  0  0  0  0  0
  -24.3585  -36.8891   22.2059 H   0  0  0  0  0  0
  -23.7234  -37.6436   23.6677 H   0  0  0  0  0  0
  -26.1556  -31.4817   20.6172 H   0  0  0  0  0  0
  -26.8696  -30.7724   22.0293 H   0  0  0  0  0  0
  -28.1328  -28.8166   21.2280 H   0  0  0  0  0  0
  -25.9048  -25.8561   19.0019 H   0  0  0  0  0  0
  -23.9779  -27.3044   18.9838 H   0  0  0  0  0  0
  -23.8045  -30.5736   19.3988 H   0  0  0  0  0  0
  -22.7847  -29.2399   19.8437 H   0  0  0  0  0  0
  -25.1317  -36.1861   25.0809 H   0  0  0  0  0  0
  -21.0016  -28.3300   24.1354 H   0  0  0  0  0  0
  -20.5666  -26.2323   23.3628 H   0  0  0  0  0  0
  -21.6663  -26.7413   22.1221 H   0  0  0  0  0  0
  -19.6932  -25.6284   21.1253 H   0  0  0  0  0  0
  -19.6722  -27.3173   20.6721 H   0  0  0  0  0  0
  -17.4228  -26.6678   21.4008 H   0  0  0  0  0  0
  -18.0350  -26.0083   22.9011 H   0  0  0  0  0  0
  -19.7958  -30.7296   24.2215 H   0  0  0  0  0  0
  -17.5033  -31.6263   24.5169 H   0  0  0  0  0  0
  -15.5368  -30.2966   23.7685 H   0  0  0  0  0  0
  -15.8700  -28.0816   22.7066 H   0  0  0  0  0  0
  -24.5925  -30.7071   25.7773 H   0  0  0  0  0  0
  -24.8874  -32.2948   26.4746 H   0  0  0  0  0  0
  -25.8030  -30.9039   27.0255 H   0  0  0  0  0  0
  -26.2979  -29.6681   24.1289 H   0  0  0  0  0  0
  -27.4002  -29.7261   25.4844 H   0  0  0  0  0  0
  -27.8892  -30.4194   23.9579 H   0  0  0  0  0  0
  -27.2718  -33.3642   26.1990 H   0  0  0  0  0  0
  -28.3920  -32.6807   25.0300 H   0  0  0  0  0  0
  -28.0715  -31.8451   26.5425 H   0  0  0  0  0  0
  -28.2603  -38.0072   24.7518 H   0  0  0  0  0  0
  -28.1082  -36.2608   24.6283 H   0  0  0  0  0  0
  -27.2305  -37.1418   25.8868 H   0  0  0  0  0  0
  -20.9454  -29.8756   21.6799 H   0  0  0  0  0  0
  -26.0160  -38.2816   24.1435 H   0  0  0  0  0  0
  -27.3841  -17.4389   20.9640 H   0  0  0  0  0  0
  -31.5080  -18.2375   20.1325 H   0  0  0  0  0  0
  -26.8912  -19.7983   20.8356 H   0  0  0  0  0  0
  -30.9941  -20.6580   20.0223 H   0  0  0  0  0  0
  -29.5285  -23.4334   21.2214 H   0  0  0  0  0  0
  -29.7148  -23.2995   19.5002 H   0  0  0  0  0  0
  -27.1411  -24.4904   20.7758 H   0  0  0  0  0  0
  -27.5573  -24.5134   19.0959 H   0  0  0  0  0  0
  -28.7281  -15.5826   20.9203 H   0  0  0  0  0  0
  1 25  1  0  0  0
  1 30  2  0  0  0
  1 79  1  0  0  0
  2  3  1  0  0  0
  2 25  1  0  0  0
  2 81  1  0  0  0
  2 82  1  0  0  0
  3  4  1  0  0  0
  3 83  1  0  0  0
  3 84  1  0  0  0
  4  5  1  0  0  0
  4 85  1  0  0  0
  4 86  1  0  0  0
  5  6  1  0  0  0
  5 26  1  0  0  0
  5 87  1  0  0  0
  6 25  1  0  0  0
  6 88  1  0  0  0
  6 89  1  0  0  0
  7  8  2  0  0  0
  7 26  1  0  0  0
  7 29  1  0  0  0
  8  9  1  0  0  0
  8 22  1  0  0  0
  9 10  1  0  0  0
  9 27  2  0  0  0
 10 11  2  0  0  0
 10 15  1  0  0  0
 11 12  1  0  0  0
 11 90  1  0  0  0
 12 13  2  0  0  0
 12 91  1  0  0  0
 13 14  1  0  0  0
 13 31  1  0  0  0
 14 15  2  0  0  0
 14 92  1  0  0  0
 15 93  1  0  0  0
 16 17  2  0  0  0
 16 21  1  0  0  0
 16 31  1  0  0  0
 17 18  1  0  0  0
 17 94  1  0  0  0
 18 19  2  0  0  0
 18 95  1  0  0  0
 19 20  1  0  0  0
 19 24  1  0  0  0
 20 21  2  0  0  0
 20 96  1  0  0  0
 21 23  1  0  0  0
 22 28  1  0  0  0
 22 32  2  0  0  0
 26 27  1  0  0  0
 28 97  1  0  0  0
 28 98  1  0  0  0
 29 99  1  0  0  0
 29100  1  0  0  0
 33 34  1  0  0  0
 33 66  1  0  0  0
 33 70  2  0  0  0
 34 36  1  0  0  0
 34 59  1  0  0  0
 34101  1  0  0  0
 35 44  2  0  0  0
 35 45  1  0  0  0
 35 68  1  0  0  0
 36 56  1  0  0  0
 36102  1  0  0  0
 37 39  1  0  0  0
 37 47  1  0  0  0
 37 66  1  0  0  0
 37103  1  0  0  0
 38 43  2  0  0  0
 38 46  1  0  0  0
 38 47  1  0  0  0
 39 64  1  0  0  0
 39 67  2  0  0  0
 40 52  1  0  0  0
 40 53  2  0  0  0
 40 58  1  0  0  0
 41104  1  0  0  0
 41105  1  0  0  0
 41106  1  0  0  0
 41 48  1  0  0  0
 42 43  1  0  0  0
 42 66  1  0  0  0
 42107  1  0  0  0
 42108  1  0  0  0
 43 44  1  0  0  0
 44109  1  0  0  0
 45 46  2  0  0  0
 45110  1  0  0  0
 46111  1  0  0  0
 47112  1  0  0  0
 47113  1  0  0  0
 48 56  1  0  0  0
 48 65  1  0  0  0
 48114  1  0  0  0
 49 50  1  0  0  0
 49 53  1  0  0  0
 49 64  1  0  0  0
 49115  1  0  0  0
 50 51  1  0  0  0
 50116  1  0  0  0
 50117  1  0  0  0
 51 52  1  0  0  0
 51118  1  0  0  0
 51119  1  0  0  0
 52120  1  0  0  0
 52121  1  0  0  0
 53 54  1  0  0  0
 54 55  2  0  0  0
 54122  1  0  0  0
 55 57  1  0  0  0
 55123  1  0  0  0
 56 69  2  0  0  0
 57 58  2  0  0  0
 57124  1  0  0  0
 58125  1  0  0  0
 59 60  1  0  0  0
 59 61  1  0  0  0
 59 62  1  0  0  0
 60126  1  0  0  0
 60127  1  0  0  0
 60128  1  0  0  0
 61129  1  0  0  0
 61130  1  0  0  0
 61131  1  0  0  0
 62132  1  0  0  0
 62133  1  0  0  0
 62134  1  0  0  0
 63 65  1  0  0  0
 63135  1  0  0  0
 63136  1  0  0  0
 63137  1  0  0  0
 64138  1  0  0  0
 65139  1  0  0  0
 68 78  1  0  0  0
 71 73  2  0  0  0
 71 75  1  0  0  0
 71140  1  0  0  0
 72 74  1  0  0  0
 72 75  2  0  0  0
 72141  1  0  0  0
 73 76  1  0  0  0
 73142  1  0  0  0
 74 76  2  0  0  0
 74143  1  0  0  0
 75 79  1  0  0  0
 76 80  1  0  0  0
 77 78  1  0  0  0
 77 80  1  0  0  0
 77144  1  0  0  0
 77145  1  0  0  0
 78146  1  0  0  0
 78147  1  0  0  0
 79148  1  0  0  0
M  ISO  4   1 100  68 101  78 101  79 100
M  END
> <chiral flag>
0

> <version>
0

> <s_m_source_file>
/data/baiqing/PycharmProjects/Reinvent-master-3.2/result/LINK_invent/BTK/process_docking_weight1_custom_product_contain_oxygen_bond_distance_aromatic_linkinvent_7_9_3/rearranged_h_0002.sdf

> <i_m_source_file_index>
87

> <r_mmod_Potential_Energy-OPLS-2005>
453.292022705078

> <r_mmod_Stretch_Energy-OPLS-2005>
216.148208618164

> <r_mmod_Bend_Energy-OPLS-2005>
303.559814453125

> <r_mmod_Torsional_Energy-OPLS-2005>
210.8935546875

> <r_mmod_Improper_Torsional_Energy-OPLS-2005>
4.47378873825073

> <r_mmod_Van_der_Waal_Energy-OPLS-2005>
131.151794433594

> <r_mmod_Electrostatic_Energy-OPLS-2005>
-373.256744384766

> <r_mmod_Solvation_Energy-OPLS-2005>
-214.08235168457

> <b_mmod_Minimization_Converged-OPLS-2005>
0

> <r_mmod_RMS_Derivative-OPLS-2005>
0.848834156990051

$$$$
87
                    3D
 Structure written by MMmdl.
152160  0  0  1  0            999 V2000
  -30.5989  -14.7011   20.4486 C   0  0  0  0  0  0
  -30.4464  -12.4155   19.4721 C   0  0  0  0  0  0
  -29.5224  -12.5023   18.2349 C   0  0  0  0  0  0
  -28.0447  -12.3329   18.6434 C   0  0  0  0  0  0
  -27.6526  -13.2258   19.8508 C   0  0  2  0  0  0
  -28.6953  -13.1249   20.9836 C   0  0  0  0  0  0
  -25.2573  -13.8197   20.5676 C   0  0  0  0  0  0
  -24.1845  -13.0444   20.9182 C   0  0  0  0  0  0
  -24.6436  -11.6924   20.8733 C   0  0  0  0  0  0
  -23.9105  -10.4297   21.0401 C   0  0  0  0  0  0
  -24.3643   -9.4208   21.9182 C   0  0  0  0  0  0
  -23.6303   -8.2251   22.0766 C   0  0  0  0  0  0
  -22.4277   -8.0302   21.3555 C   0  0  0  0  0  0
  -21.9917   -9.0285   20.4651 C   0  0  0  0  0  0
  -22.7272  -10.2150   20.3055 C   0  0  0  0  0  0
  -21.6848   -6.0754   22.5285 C   0  0  0  0  0  0
  -21.4019   -6.5647   23.8223 C   0  0  0  0  0  0
  -21.3662   -5.6794   24.9182 C   0  0  0  0  0  0
  -21.6047   -4.3059   24.7225 C   0  0  0  0  0  0
  -21.8817   -3.8158   23.4339 C   0  0  0  0  0  0
  -21.9187   -4.6985   22.3400 C   0  0  0  0  0  0
  -22.7866  -13.5238   21.1826 C   0  0  0  0  0  0
  -22.1653   -4.2179   21.0981 F   0  0  0  0  0  0
  -21.5621   -3.4529   25.7727 F   0  0  0  0  0  0
  -30.0093  -13.4595   20.4223 N   0  0  0  0  0  0
  -26.3004  -12.9399   20.3260 N   0  0  0  0  0  0
  -25.9364  -11.6548   20.5719 N   0  0  0  0  0  0
  -22.0486  -12.8259   22.0393 N   0  0  0  0  0  0
  -25.4255  -15.1918   20.4136 N   0  0  0  0  0  0
  -31.7945  -14.8123   20.1618 O   0  0  0  0  0  0
  -21.6639   -6.8900   21.4242 O   0  0  0  0  0  0
  -22.3556  -14.5538   20.6657 O   0  0  0  0  0  0
  -24.6285  -31.8561   23.1984 C   0  0  0  0  0  0
  -25.9123  -32.4746   23.8324 C   0  0  1  0  0  0
  -27.2238  -27.2906   20.1305 C   0  0  0  0  0  0
  -25.5918  -33.8544   24.2254 N   0  0  0  0  0  0
  -23.4260  -30.4782   21.5401 C   0  0  2  0  0  0
  -24.8753  -28.9272   20.1104 C   0  0  0  0  0  0
  -22.7497  -29.4609   22.4905 C   0  0  0  0  0  0
  -18.0299  -28.1396   22.8499 C   0  0  0  0  0  0
  -24.1486  -36.7291   23.2646 C   0  0  0  0  0  0
  -25.9688  -30.7782   21.3756 C   0  0  0  0  0  0
  -26.0433  -29.4010   20.7223 C   0  0  0  0  0  0
  -27.2235  -28.5940   20.7225 C   0  0  0  0  0  0
  -26.0398  -26.8790   19.4830 C   0  0  0  0  0  0
  -24.8765  -27.6727   19.4793 C   0  0  0  0  0  0
  -23.6431  -29.8091   20.1566 C   0  0  0  0  0  0
  -25.4110  -36.3068   24.0333 C   0  0  1  0  0  0
  -20.5901  -28.3705   23.1271 C   0  0  2  0  0  0
  -20.6781  -26.9414   22.5420 C   0  0  0  0  0  0
  -19.5749  -26.6397   21.5228 C   0  0  0  0  0  0
  -18.1931  -26.7937   22.1644 C   0  0  0  0  0  0
  -19.1550  -28.8869   23.2884 C   0  0  0  0  0  0
  -18.9467  -30.1476   23.8887 C   0  0  0  0  0  0
  -17.6460  -30.6588   24.0580 C   0  0  0  0  0  0
  -25.9043  -34.9434   23.5098 C   0  0  0  0  0  0
  -16.5354  -29.9092   23.6331 C   0  0  0  0  0  0
  -16.7285  -28.6522   23.0332 C   0  0  0  0  0  0
  -26.4489  -31.6561   25.0703 C   0  0  0  0  0  0
  -25.3728  -31.3717   26.1440 C   0  0  0  0  0  0
  -27.0331  -30.2974   24.6177 C   0  0  0  0  0  0
  -27.6031  -32.4311   25.7474 C   0  0  0  0  0  0
  -27.5571  -37.1802   24.8464 C   0  0  0  0  0  0
  -21.4202  -29.3051   22.3652 N   0  0  0  0  0  0
  -26.4286  -37.3764   23.9403 N   0  0  0  0  0  0
  -24.6931  -31.0550   22.0943 N   0  0  0  0  0  0
  -23.4210  -28.8151   23.3000 O   0  0  0  0  0  0
  -28.3164  -26.4043   20.1469 O   0  0  0  0  0  0
  -26.5620  -34.8907   22.4667 O   0  0  0  0  0  0
  -23.5439  -32.1364   23.7296 O   0  0  0  0  0  0
  -29.7694  -22.6173   18.1640 C   0  0  0  0  0  0
  -29.8674  -21.3962   18.8682 C   0  0  0  0  0  0
  -29.2196  -23.7749   18.7581 C   0  0  0  0  0  0
  -28.8539  -22.4862   20.7853 C   0  0  0  0  0  0
  -29.4072  -21.2801   20.1984 C   0  0  0  0  0  0
  -28.7524  -23.7530   20.0873 C   0  0  0  0  0  0
  -29.6183  -19.9546   20.9821 C   0  0  0  0  0  0
  -28.0732  -25.0401   20.7081 C   0  0  0  0  0  0
  -29.7195  -16.0366   20.5433 C   0  0  0  0  0  0
  -30.3876  -17.4579   20.8906 C   0  0  0  0  0  0
  -29.7931  -18.7487   20.3355 N   0  0  0  0  0  0
  -29.6516  -20.0085   22.2134 O   0  0  0  0  0  0
  -31.4886  -12.5411   19.1751 H   0  0  0  0  0  0
  -30.3832  -11.4297   19.9354 H   0  0  0  0  0  0
  -29.8001  -11.7432   17.5024 H   0  0  0  0  0  0
  -29.6586  -13.4670   17.7423 H   0  0  0  0  0  0
  -27.8997  -11.2833   18.9010 H   0  0  0  0  0  0
  -27.3903  -12.5338   17.7946 H   0  0  0  0  0  0
  -27.6586  -14.2526   19.4848 H   0  0  0  0  0  0
  -28.7122  -12.1187   21.4036 H   0  0  0  0  0  0
  -28.4400  -13.7872   21.8106 H   0  0  0  0  0  0
  -25.2792   -9.5681   22.4757 H   0  0  0  0  0  0
  -24.0012   -7.4639   22.7496 H   0  0  0  0  0  0
  -21.0842   -8.8824   19.8952 H   0  0  0  0  0  0
  -22.3751  -10.9698   19.6161 H   0  0  0  0  0  0
  -21.2022   -7.6160   23.9738 H   0  0  0  0  0  0
  -21.1471   -6.0518   25.9085 H   0  0  0  0  0  0
  -22.0586   -2.7624   23.2824 H   0  0  0  0  0  0
  -22.4072  -11.9952   22.4862 H   0  0  0  0  0  0
  -21.1098  -13.1310   22.2536 H   0  0  0  0  0  0
  -24.6583  -15.8431   20.5410 H   0  0  0  0  0  0
  -26.2792  -15.6411   20.1073 H   0  0  0  0  0  0
  -26.7194  -32.5410   23.1074 H   0  0  0  0  0  0
  -25.0033  -33.9672   25.0378 H   0  0  0  0  0  0
  -22.7234  -31.3001   21.3916 H   0  0  0  0  0  0
  -23.3729  -35.9642   23.3311 H   0  0  0  0  0  0
  -24.3581  -36.8908   22.2059 H   0  0  0  0  0  0
  -23.7254  -37.6505   23.6656 H   0  0  0  0  0  0
  -26.1030  -31.5391   20.6058 H   0  0  0  0  0  0
  -26.8486  -30.8281   22.0052 H   0  0  0  0  0  0
  -28.1180  -28.9485   21.2146 H   0  0  0  0  0  0
  -26.0085  -25.9200   18.9837 H   0  0  0  0  0  0
  -23.9841  -27.3075   18.9890 H   0  0  0  0  0  0
  -23.7633  -30.5812   19.3959 H   0  0  0  0  0  0
  -22.7639  -29.2373   19.8554 H   0  0  0  0  0  0
  -25.1290  -36.1916   25.0825 H   0  0  0  0  0  0
  -21.0007  -28.3284   24.1389 H   0  0  0  0  0  0
  -20.5684  -26.2302   23.3627 H   0  0  0  0  0  0
  -21.6639  -26.7434   22.1199 H   0  0  0  0  0  0
  -19.6888  -25.6317   21.1238 H   0  0  0  0  0  0
  -19.6666  -27.3225   20.6771 H   0  0  0  0  0  0
  -17.4194  -26.6696   21.4051 H   0  0  0  0  0  0
  -18.0314  -26.0089   22.9047 H   0  0  0  0  0  0
  -19.7941  -30.7319   24.2217 H   0  0  0  0  0  0
  -17.5009  -31.6253   24.5207 H   0  0  0  0  0  0
  -15.5352  -30.2989   23.7652 H   0  0  0  0  0  0
  -15.8692  -28.0859   22.6999 H   0  0  0  0  0  0
  -24.5899  -30.7057   25.7793 H   0  0  0  0  0  0
  -24.8929  -32.2891   26.4854 H   0  0  0  0  0  0
  -25.8078  -30.8916   27.0218 H   0  0  0  0  0  0
  -26.2913  -29.6722   24.1195 H   0  0  0  0  0  0
  -27.4002  -29.7227   25.4692 H   0  0  0  0  0  0
  -27.8788  -30.4233   23.9415 H   0  0  0  0  0  0
  -27.2608  -33.3602   26.2037 H   0  0  0  0  0  0
  -28.3837  -32.6890   25.0306 H   0  0  0  0  0  0
  -28.0691  -31.8452   26.5405 H   0  0  0  0  0  0
  -28.2597  -38.0091   24.7491 H   0  0  0  0  0  0
  -28.1060  -36.2620   24.6310 H   0  0  0  0  0  0
  -27.2291  -37.1479   25.8872 H   0  0  0  0  0  0
  -20.9367  -29.8769   21.6861 H   0  0  0  0  0  0
  -26.0165  -38.2840   24.1395 H   0  0  0  0  0  0
  -30.1276  -22.6651   17.1450 H   0  0  0  0  0  0
  -30.3216  -20.5486   18.3745 H   0  0  0  0  0  0
  -29.1501  -24.6873   18.1811 H   0  0  0  0  0  0
  -28.4984  -22.4384   21.8052 H   0  0  0  0  0  0
  -27.0065  -24.8226   20.7457 H   0  0  0  0  0  0
  -28.3764  -25.0828   21.7541 H   0  0  0  0  0  0
  -29.2746  -16.1257   19.5525 H   0  0  0  0  0  0
  -28.8847  -15.8803   21.2240 H   0  0  0  0  0  0
  -31.4237  -17.4373   20.5524 H   0  0  0  0  0  0
  -30.4515  -17.5393   21.9769 H   0  0  0  0  0  0
  -29.6911  -18.7862   19.3308 H   0  0  0  0  0  0
  1 25  1  0  0  0
  1 30  2  0  0  0
  1 79  1  0  0  0
  2  3  1  0  0  0
  2 25  1  0  0  0
  2 83  1  0  0  0
  2 84  1  0  0  0
  3  4  1  0  0  0
  3 85  1  0  0  0
  3 86  1  0  0  0
  4  5  1  0  0  0
  4 87  1  0  0  0
  4 88  1  0  0  0
  5  6  1  0  0  0
  5 26  1  0  0  0
  5 89  1  0  0  0
  6 25  1  0  0  0
  6 90  1  0  0  0
  6 91  1  0  0  0
  7  8  2  0  0  0
  7 26  1  0  0  0
  7 29  1  0  0  0
  8  9  1  0  0  0
  8 22  1  0  0  0
  9 10  1  0  0  0
  9 27  2  0  0  0
 10 11  2  0  0  0
 10 15  1  0  0  0
 11 12  1  0  0  0
 11 92  1  0  0  0
 12 13  2  0  0  0
 12 93  1  0  0  0
 13 14  1  0  0  0
 13 31  1  0  0  0
 14 15  2  0  0  0
 14 94  1  0  0  0
 15 95  1  0  0  0
 16 17  2  0  0  0
 16 21  1  0  0  0
 16 31  1  0  0  0
 17 18  1  0  0  0
 17 96  1  0  0  0
 18 19  2  0  0  0
 18 97  1  0  0  0
 19 20  1  0  0  0
 19 24  1  0  0  0
 20 21  2  0  0  0
 20 98  1  0  0  0
 21 23  1  0  0  0
 22 28  1  0  0  0
 22 32  2  0  0  0
 26 27  1  0  0  0
 28 99  1  0  0  0
 28100  1  0  0  0
 29101  1  0  0  0
 29102  1  0  0  0
 33 34  1  0  0  0
 33 66  1  0  0  0
 33 70  2  0  0  0
 34 36  1  0  0  0
 34 59  1  0  0  0
 34103  1  0  0  0
 35 44  2  0  0  0
 35 45  1  0  0  0
 35 68  1  0  0  0
 36 56  1  0  0  0
 36104  1  0  0  0
 37 39  1  0  0  0
 37 47  1  0  0  0
 37 66  1  0  0  0
 37105  1  0  0  0
 38 43  2  0  0  0
 38 46  1  0  0  0
 38 47  1  0  0  0
 39 64  1  0  0  0
 39 67  2  0  0  0
 40 52  1  0  0  0
 40 53  2  0  0  0
 40 58  1  0  0  0
 41106  1  0  0  0
 41107  1  0  0  0
 41108  1  0  0  0
 41 48  1  0  0  0
 42 43  1  0  0  0
 42 66  1  0  0  0
 42109  1  0  0  0
 42110  1  0  0  0
 43 44  1  0  0  0
 44111  1  0  0  0
 45 46  2  0  0  0
 45112  1  0  0  0
 46113  1  0  0  0
 47114  1  0  0  0
 47115  1  0  0  0
 48 56  1  0  0  0
 48 65  1  0  0  0
 48116  1  0  0  0
 49 50  1  0  0  0
 49 53  1  0  0  0
 49 64  1  0  0  0
 49117  1  0  0  0
 50 51  1  0  0  0
 50118  1  0  0  0
 50119  1  0  0  0
 51 52  1  0  0  0
 51120  1  0  0  0
 51121  1  0  0  0
 52122  1  0  0  0
 52123  1  0  0  0
 53 54  1  0  0  0
 54 55  2  0  0  0
 54124  1  0  0  0
 55 57  1  0  0  0
 55125  1  0  0  0
 56 69  2  0  0  0
 57 58  2  0  0  0
 57126  1  0  0  0
 58127  1  0  0  0
 59 60  1  0  0  0
 59 61  1  0  0  0
 59 62  1  0  0  0
 60128  1  0  0  0
 60129  1  0  0  0
 60130  1  0  0  0
 61131  1  0  0  0
 61132  1  0  0  0
 61133  1  0  0  0
 62134  1  0  0  0
 62135  1  0  0  0
 62136  1  0  0  0
 63 65  1  0  0  0
 63137  1  0  0  0
 63138  1  0  0  0
 63139  1  0  0  0
 64140  1  0  0  0
 65141  1  0  0  0
 68 78  1  0  0  0
 71 72  2  0  0  0
 71 73  1  0  0  0
 71142  1  0  0  0
 72 75  1  0  0  0
 72143  1  0  0  0
 73 76  2  0  0  0
 73144  1  0  0  0
 74 75  2  0  0  0
 74 76  1  0  0  0
 74145  1  0  0  0
 75 77  1  0  0  0
 76 78  1  0  0  0
 77 81  1  0  0  0
 77 82  2  0  0  0
 78146  1  0  0  0
 78147  1  0  0  0
 79 80  1  0  0  0
 79148  1  0  0  0
 79149  1  0  0  0
 80 81  1  0  0  0
 80150  1  0  0  0
 80151  1  0  0  0
 81152  1  0  0  0
M  ISO  4   1 100  68 101  78 101  79 100
M  END
> <chiral flag>
0

> <version>
0

> <s_m_source_file>
/data/baiqing/PycharmProjects/Reinvent-master-3.2/result/LINK_invent/BTK/process_docking_weight1_custom_product_contain_oxygen_bond_distance_aromatic_linkinvent_7_9_3/rearranged_h_0002.sdf

> <i_m_source_file_index>
88

> <r_mmod_Potential_Energy-OPLS-2005>
108.561325073242

> <r_mmod_Stretch_Energy-OPLS-2005>
101.877082824707

> <r_mmod_Bend_Energy-OPLS-2005>
137.81559753418

> <r_mmod_Torsional_Energy-OPLS-2005>
221.530517578125

> <r_mmod_Improper_Torsional_Energy-OPLS-2005>
7.27557468414307

> <r_mmod_Van_der_Waal_Energy-OPLS-2005>
137.049301147461

> <r_mmod_Electrostatic_Energy-OPLS-2005>
-343.212432861328

> <r_mmod_Solvation_Energy-OPLS-2005>
-222.454833984375

> <b_mmod_Minimization_Converged-OPLS-2005>
0

> <r_mmod_RMS_Derivative-OPLS-2005>
2.02099752426147

$$$$
88
                    3D
 Structure written by MMmdl.
147155  0  0  1  0            999 V2000
  -30.2447  -15.7656   20.3126 C   0  0  0  0  0  0
  -30.4164  -13.1790   19.5346 C   0  0  0  0  0  0
  -29.5540  -12.6844   18.3341 C   0  0  0  0  0  0
  -28.1342  -12.3067   18.7814 C   0  0  0  0  0  0
  -27.5905  -13.3216   19.8101 C   0  0  2  0  0  0
  -28.6013  -13.7059   20.9186 C   0  0  0  0  0  0
  -25.2293  -13.8307   20.5821 C   0  0  0  0  0  0
  -24.1694  -13.0437   20.9298 C   0  0  0  0  0  0
  -24.6415  -11.6956   20.8763 C   0  0  0  0  0  0
  -23.9123  -10.4298   21.0387 C   0  0  0  0  0  0
  -24.3652   -9.4213   21.9176 C   0  0  0  0  0  0
  -23.6312   -8.2256   22.0759 C   0  0  0  0  0  0
  -22.4298   -8.0294   21.3545 C   0  0  0  0  0  0
  -21.9939   -9.0270   20.4648 C   0  0  0  0  0  0
  -22.7282  -10.2140   20.3048 C   0  0  0  0  0  0
  -21.6862   -6.0741   22.5273 C   0  0  0  0  0  0
  -21.4025   -6.5643   23.8206 C   0  0  0  0  0  0
  -21.3662   -5.6794   24.9166 C   0  0  0  0  0  0
  -21.6041   -4.3056   24.7217 C   0  0  0  0  0  0
  -21.8818   -3.8151   23.4338 C   0  0  0  0  0  0
  -21.9196   -4.6967   22.3394 C   0  0  0  0  0  0
  -22.7700  -13.5156   21.1921 C   0  0  0  0  0  0
  -22.1661   -4.2151   21.0971 F   0  0  0  0  0  0
  -21.5626   -3.4538   25.7731 F   0  0  0  0  0  0
  -29.7492  -14.3725   20.2492 N   0  0  0  0  0  0
  -26.2760  -12.9666   20.3257 N   0  0  0  0  0  0
  -25.9369  -11.6723   20.5704 N   0  0  0  0  0  0
  -22.0371  -12.8141   22.0482 N   0  0  0  0  0  0
  -25.3848  -15.2055   20.4275 N   0  0  0  0  0  0
  -31.4851  -15.6881   20.1827 O   0  0  0  0  0  0
  -21.6657   -6.8893   21.4242 O   0  0  0  0  0  0
  -22.3371  -14.5453   20.6755 O   0  0  0  0  0  0
  -24.6933  -31.7878   23.1413 C   0  0  0  0  0  0
  -25.9462  -32.4405   23.8003 C   0  0  1  0  0  0
  -27.2263  -26.5972   20.2223 C   0  0  0  0  0  0
  -25.5990  -33.8236   24.1877 N   0  0  0  0  0  0
  -23.5241  -30.3872   21.4974 C   0  0  2  0  0  0
  -24.9817  -28.7058   20.1185 C   0  0  0  0  0  0
  -22.7814  -29.4251   22.4656 C   0  0  0  0  0  0
  -18.0355  -28.1424   22.8467 C   0  0  0  0  0  0
  -24.1484  -36.7124   23.2655 C   0  0  0  0  0  0
  -26.1102  -30.4877   21.4206 C   0  0  0  0  0  0
  -26.1732  -29.0403   20.7724 C   0  0  0  0  0  0
  -27.2763  -28.0189   20.7857 C   0  0  0  0  0  0
  -25.9990  -26.4979   19.5113 C   0  0  0  0  0  0
  -24.9400  -27.4616   19.4633 C   0  0  0  0  0  0
  -23.7843  -29.6762   20.1362 C   0  0  0  0  0  0
  -25.4141  -36.2856   24.0277 C   0  0  1  0  0  0
  -20.5998  -28.3781   23.1125 C   0  0  2  0  0  0
  -20.6811  -26.9434   22.5402 C   0  0  0  0  0  0
  -19.5782  -26.6365   21.5223 C   0  0  0  0  0  0
  -18.1964  -26.7958   22.1624 C   0  0  0  0  0  0
  -19.1627  -28.8929   23.2775 C   0  0  0  0  0  0
  -18.9533  -30.1514   23.8826 C   0  0  0  0  0  0
  -17.6521  -30.6613   24.0554 C   0  0  0  0  0  0
  -25.9129  -34.9254   23.4921 C   0  0  0  0  0  0
  -16.5410  -29.9096   23.6351 C   0  0  0  0  0  0
  -16.7333  -28.6508   23.0385 C   0  0  0  0  0  0
  -26.4603  -31.6490   25.0672 C   0  0  0  0  0  0
  -25.3641  -31.3862   26.1268 C   0  0  0  0  0  0
  -27.0551  -30.2813   24.6655 C   0  0  0  0  0  0
  -27.6020  -32.4382   25.7506 C   0  0  0  0  0  0
  -27.5555  -37.1721   24.8470 C   0  0  0  0  0  0
  -21.4448  -29.3016   22.3429 N   0  0  0  0  0  0
  -26.4253  -37.3634   23.9421 N   0  0  0  0  0  0
  -24.8011  -30.9229   22.0714 N   0  0  0  0  0  0
  -23.4215  -28.7859   23.3038 O   0  0  0  0  0  0
  -28.1752  -25.3307   20.2876 O   0  0  0  0  0  0
  -26.5790  -34.8856   22.4551 O   0  0  0  0  0  0
  -23.5931  -32.0983   23.6306 O   0  0  0  0  0  0
  -28.6605  -20.2697   20.2540 C   0  0  0  0  0  0
  -30.8889  -19.4367   20.4284 C   0  0  0  0  0  0
  -28.9408  -21.8856   20.2783 C   0  0  0  0  0  0
  -30.3631  -21.9737   20.3803 C   0  0  0  0  0  0
  -29.5810  -18.9156   20.3199 C   0  0  0  0  0  0
  -31.2469  -20.8274   20.4663 C   0  0  0  0  0  0
  -30.9877  -23.3658   20.4138 C   0  0  0  0  0  0
  -27.9565  -23.5332   20.1922 C   0  0  0  0  0  0
  -29.4598  -17.1536   20.3231 N   0  0  0  0  0  0
  -32.9458  -21.1022   20.6567 Cl  0  0  0  0  0  0
  -31.3951  -13.4679   19.1498 H   0  0  0  0  0  0
  -30.6192  -12.3631   20.2305 H   0  0  0  0  0  0
  -30.0329  -11.8360   17.8427 H   0  0  0  0  0  0
  -29.4957  -13.4797   17.5901 H   0  0  0  0  0  0
  -28.1754  -11.3157   19.2354 H   0  0  0  0  0  0
  -27.4667  -12.2272   17.9226 H   0  0  0  0  0  0
  -27.4354  -14.2275   19.2219 H   0  0  0  0  0  0
  -28.8953  -12.8437   21.5193 H   0  0  0  0  0  0
  -28.1462  -14.4183   21.6087 H   0  0  0  0  0  0
  -25.2787   -9.5690   22.4762 H   0  0  0  0  0  0
  -24.0008   -7.4653   22.7495 H   0  0  0  0  0  0
  -21.0865   -8.8797   19.8961 H   0  0  0  0  0  0
  -22.3733  -10.9680   19.6166 H   0  0  0  0  0  0
  -21.2023   -7.6155   23.9707 H   0  0  0  0  0  0
  -21.1484   -6.0527   25.9067 H   0  0  0  0  0  0
  -22.0595   -2.7615   23.2836 H   0  0  0  0  0  0
  -22.4012  -11.9810   22.4860 H   0  0  0  0  0  0
  -21.0987  -13.1152   22.2703 H   0  0  0  0  0  0
  -24.6086  -15.8486   20.5409 H   0  0  0  0  0  0
  -26.2232  -15.6536   20.0831 H   0  0  0  0  0  0
  -26.7556  -32.4855   23.0723 H   0  0  0  0  0  0
  -25.0055  -33.9244   24.9981 H   0  0  0  0  0  0
  -22.8550  -31.2271   21.2984 H   0  0  0  0  0  0
  -23.3759  -35.9434   23.3260 H   0  0  0  0  0  0
  -24.3550  -36.8848   22.2079 H   0  0  0  0  0  0
  -23.7229  -37.6278   23.6779 H   0  0  0  0  0  0
  -26.3254  -31.2060   20.6278 H   0  0  0  0  0  0
  -26.9564  -30.5596   22.0909 H   0  0  0  0  0  0
  -28.1732  -28.2857   21.3263 H   0  0  0  0  0  0
  -25.8138  -25.5619   19.0037 H   0  0  0  0  0  0
  -24.0448  -27.1967   18.9182 H   0  0  0  0  0  0
  -23.9712  -30.4337   19.3735 H   0  0  0  0  0  0
  -22.8858  -29.1512   19.8058 H   0  0  0  0  0  0
  -25.1355  -36.1594   25.0767 H   0  0  0  0  0  0
  -21.0091  -28.3414   24.1246 H   0  0  0  0  0  0
  -20.5651  -26.2418   23.3676 H   0  0  0  0  0  0
  -21.6678  -26.7350   22.1236 H   0  0  0  0  0  0
  -19.6928  -25.6248   21.1312 H   0  0  0  0  0  0
  -19.6730  -27.3131   20.6720 H   0  0  0  0  0  0
  -17.4239  -26.6713   21.4024 H   0  0  0  0  0  0
  -18.0338  -26.0121   22.9035 H   0  0  0  0  0  0
  -19.8006  -30.7354   24.2153 H   0  0  0  0  0  0
  -17.5073  -31.6288   24.5171 H   0  0  0  0  0  0
  -15.5402  -30.2985   23.7707 H   0  0  0  0  0  0
  -15.8732  -28.0799   22.7151 H   0  0  0  0  0  0
  -24.5838  -30.7198   25.7583 H   0  0  0  0  0  0
  -24.8818  -32.3105   26.4450 H   0  0  0  0  0  0
  -25.7783  -30.9190   27.0210 H   0  0  0  0  0  0
  -26.3293  -29.6383   24.1668 H   0  0  0  0  0  0
  -27.3955  -29.7312   25.5436 H   0  0  0  0  0  0
  -27.9275  -30.3899   24.0216 H   0  0  0  0  0  0
  -27.2528  -33.3759   26.1840 H   0  0  0  0  0  0
  -28.3962  -32.6821   25.0442 H   0  0  0  0  0  0
  -28.0544  -31.8682   26.5627 H   0  0  0  0  0  0
  -28.2538  -38.0048   24.7519 H   0  0  0  0  0  0
  -28.1079  -36.2568   24.6288 H   0  0  0  0  0  0
  -27.2277  -37.1358   25.8874 H   0  0  0  0  0  0
  -20.9746  -29.8689   21.6514 H   0  0  0  0  0  0
  -26.0058  -38.2670   24.1447 H   0  0  0  0  0  0
  -27.6060  -20.0451   20.1734 H   0  0  0  0  0  0
  -31.6968  -18.7236   20.4997 H   0  0  0  0  0  0
  -31.9614  -23.3955   19.9284 H   0  0  0  0  0  0
  -31.1095  -23.6963   21.4456 H   0  0  0  0  0  0
  -30.3938  -24.1053   19.8819 H   0  0  0  0  0  0
  -27.1800  -23.3654   20.9386 H   0  0  0  0  0  0
  -27.4257  -23.4226   19.2463 H   0  0  0  0  0  0
  -28.4832  -16.8973   20.3393 H   0  0  0  0  0  0
  1 25  1  0  0  0
  1 30  2  0  0  0
  1 79  1  0  0  0
  2  3  1  0  0  0
  2 25  1  0  0  0
  2 81  1  0  0  0
  2 82  1  0  0  0
  3  4  1  0  0  0
  3 83  1  0  0  0
  3 84  1  0  0  0
  4  5  1  0  0  0
  4 85  1  0  0  0
  4 86  1  0  0  0
  5  6  1  0  0  0
  5 26  1  0  0  0
  5 87  1  0  0  0
  6 25  1  0  0  0
  6 88  1  0  0  0
  6 89  1  0  0  0
  7  8  2  0  0  0
  7 26  1  0  0  0
  7 29  1  0  0  0
  8  9  1  0  0  0
  8 22  1  0  0  0
  9 10  1  0  0  0
  9 27  2  0  0  0
 10 11  2  0  0  0
 10 15  1  0  0  0
 11 12  1  0  0  0
 11 90  1  0  0  0
 12 13  2  0  0  0
 12 91  1  0  0  0
 13 14  1  0  0  0
 13 31  1  0  0  0
 14 15  2  0  0  0
 14 92  1  0  0  0
 15 93  1  0  0  0
 16 17  2  0  0  0
 16 21  1  0  0  0
 16 31  1  0  0  0
 17 18  1  0  0  0
 17 94  1  0  0  0
 18 19  2  0  0  0
 18 95  1  0  0  0
 19 20  1  0  0  0
 19 24  1  0  0  0
 20 21  2  0  0  0
 20 96  1  0  0  0
 21 23  1  0  0  0
 22 28  1  0  0  0
 22 32  2  0  0  0
 26 27  1  0  0  0
 28 97  1  0  0  0
 28 98  1  0  0  0
 29 99  1  0  0  0
 29100  1  0  0  0
 33 34  1  0  0  0
 33 66  1  0  0  0
 33 70  2  0  0  0
 34 36  1  0  0  0
 34 59  1  0  0  0
 34101  1  0  0  0
 35 44  2  0  0  0
 35 45  1  0  0  0
 35 68  1  0  0  0
 36 56  1  0  0  0
 36102  1  0  0  0
 37 39  1  0  0  0
 37 47  1  0  0  0
 37 66  1  0  0  0
 37103  1  0  0  0
 38 43  2  0  0  0
 38 46  1  0  0  0
 38 47  1  0  0  0
 39 64  1  0  0  0
 39 67  2  0  0  0
 40 52  1  0  0  0
 40 53  2  0  0  0
 40 58  1  0  0  0
 41104  1  0  0  0
 41105  1  0  0  0
 41106  1  0  0  0
 41 48  1  0  0  0
 42 43  1  0  0  0
 42 66  1  0  0  0
 42107  1  0  0  0
 42108  1  0  0  0
 43 44  1  0  0  0
 44109  1  0  0  0
 45 46  2  0  0  0
 45110  1  0  0  0
 46111  1  0  0  0
 47112  1  0  0  0
 47113  1  0  0  0
 48 56  1  0  0  0
 48 65  1  0  0  0
 48114  1  0  0  0
 49 50  1  0  0  0
 49 53  1  0  0  0
 49 64  1  0  0  0
 49115  1  0  0  0
 50 51  1  0  0  0
 50116  1  0  0  0
 50117  1  0  0  0
 51 52  1  0  0  0
 51118  1  0  0  0
 51119  1  0  0  0
 52120  1  0  0  0
 52121  1  0  0  0
 53 54  1  0  0  0
 54 55  2  0  0  0
 54122  1  0  0  0
 55 57  1  0  0  0
 55123  1  0  0  0
 56 69  2  0  0  0
 57 58  2  0  0  0
 57124  1  0  0  0
 58125  1  0  0  0
 59 60  1  0  0  0
 59 61  1  0  0  0
 59 62  1  0  0  0
 60126  1  0  0  0
 60127  1  0  0  0
 60128  1  0  0  0
 61129  1  0  0  0
 61130  1  0  0  0
 61131  1  0  0  0
 62132  1  0  0  0
 62133  1  0  0  0
 62134  1  0  0  0
 63 65  1  0  0  0
 63135  1  0  0  0
 63136  1  0  0  0
 63137  1  0  0  0
 64138  1  0  0  0
 65139  1  0  0  0
 68 78  1  0  0  0
 71 73  2  0  0  0
 71 75  1  0  0  0
 71140  1  0  0  0
 72 75  2  0  0  0
 72 76  1  0  0  0
 72141  1  0  0  0
 73 74  1  0  0  0
 73 78  1  0  0  0
 74 76  2  0  0  0
 74 77  1  0  0  0
 75 79  1  0  0  0
 76 80  1  0  0  0
 77142  1  0  0  0
 77143  1  0  0  0
 77144  1  0  0  0
 78145  1  0  0  0
 78146  1  0  0  0
 79147  1  0  0  0
M  ISO  4   1 100  68 101  78 101  79 100
M  END
> <chiral flag>
0

> <version>
0

> <s_m_source_file>
/data/baiqing/PycharmProjects/Reinvent-master-3.2/result/LINK_invent/BTK/process_docking_weight1_custom_product_contain_oxygen_bond_distance_aromatic_linkinvent_7_9_3/rearranged_h_0002.sdf

> <i_m_source_file_index>
89

> <r_mmod_Potential_Energy-OPLS-2005>
2827.00854492188

> <r_mmod_Stretch_Energy-OPLS-2005>
1265.78930664062

> <r_mmod_Bend_Energy-OPLS-2005>
641.514709472656

> <r_mmod_Torsional_Energy-OPLS-2005>
223.311462402344

> <r_mmod_Improper_Torsional_Energy-OPLS-2005>
4.13682699203491

> <r_mmod_Van_der_Waal_Energy-OPLS-2005>
134.21337890625

> <r_mmod_Electrostatic_Energy-OPLS-2005>
-348.328796386719

> <r_mmod_Solvation_Energy-OPLS-2005>
-213.5380859375

> <b_mmod_Minimization_Converged-OPLS-2005>
0

> <r_mmod_RMS_Derivative-OPLS-2005>
1.6823068857193

$$$$
89
                    3D
 Structure written by MMmdl.
148156  0  0  1  0            999 V2000
  -30.5066  -14.9122   20.4364 C   0  0  0  0  0  0
  -30.4572  -12.5594   19.4935 C   0  0  0  0  0  0
  -29.5282  -12.5199   18.2554 C   0  0  0  0  0  0
  -28.0576  -12.3117   18.6710 C   0  0  0  0  0  0
  -27.6394  -13.2328   19.8459 C   0  0  2  0  0  0
  -28.6827  -13.2097   20.9842 C   0  0  0  0  0  0
  -25.2503  -13.8179   20.5680 C   0  0  0  0  0  0
  -24.1804  -13.0432   20.9234 C   0  0  0  0  0  0
  -24.6391  -11.6909   20.8755 C   0  0  0  0  0  0
  -23.9061  -10.4290   21.0411 C   0  0  0  0  0  0
  -24.3611   -9.4205   21.9186 C   0  0  0  0  0  0
  -23.6288   -8.2238   22.0750 C   0  0  0  0  0  0
  -22.4271   -8.0275   21.3541 C   0  0  0  0  0  0
  -21.9904   -9.0252   20.4648 C   0  0  0  0  0  0
  -22.7230  -10.2135   20.3062 C   0  0  0  0  0  0
  -21.6854   -6.0729   22.5277 C   0  0  0  0  0  0
  -21.4013   -6.5632   23.8208 C   0  0  0  0  0  0
  -21.3661   -5.6786   24.9171 C   0  0  0  0  0  0
  -21.6045   -4.3047   24.7224 C   0  0  0  0  0  0
  -21.8820   -3.8140   23.4344 C   0  0  0  0  0  0
  -21.9192   -4.6957   22.3400 C   0  0  0  0  0  0
  -22.7825  -13.5222   21.1889 C   0  0  0  0  0  0
  -22.1662   -4.2144   21.0978 F   0  0  0  0  0  0
  -21.5632   -3.4531   25.7736 F   0  0  0  0  0  0
  -29.9671  -13.6300   20.4031 N   0  0  0  0  0  0
  -26.2923  -12.9383   20.3242 N   0  0  0  0  0  0
  -25.9319  -11.6532   20.5738 N   0  0  0  0  0  0
  -22.0468  -12.8219   22.0447 N   0  0  0  0  0  0
  -25.4177  -15.1897   20.4031 N   0  0  0  0  0  0
  -31.6939  -15.0568   20.1209 O   0  0  0  0  0  0
  -21.6638   -6.8871   21.4237 O   0  0  0  0  0  0
  -22.3514  -14.5527   20.6726 O   0  0  0  0  0  0
  -24.6416  -31.8453   23.1901 C   0  0  0  0  0  0
  -25.9200  -32.4701   23.8277 C   0  0  1  0  0  0
  -27.2194  -27.1518   20.1453 C   0  0  0  0  0  0
  -25.5965  -33.8506   24.2202 N   0  0  0  0  0  0
  -23.4439  -30.4666   21.5351 C   0  0  2  0  0  0
  -24.8937  -28.8974   20.1099 C   0  0  0  0  0  0
  -22.7560  -29.4552   22.4860 C   0  0  0  0  0  0
  -18.0312  -28.1393   22.8469 C   0  0  0  0  0  0
  -24.1494  -36.7247   23.2641 C   0  0  0  0  0  0
  -25.9996  -30.7244   21.3866 C   0  0  0  0  0  0
  -26.0718  -29.3381   20.7263 C   0  0  0  0  0  0
  -27.2360  -28.4820   20.7257 C   0  0  0  0  0  0
  -26.0120  -26.8101   19.4939 C   0  0  0  0  0  0
  -24.8768  -27.6464   19.4781 C   0  0  0  0  0  0
  -23.6696  -29.7981   20.1537 C   0  0  0  0  0  0
  -25.4127  -36.3034   24.0317 C   0  0  1  0  0  0
  -20.5919  -28.3710   23.1237 C   0  0  2  0  0  0
  -20.6792  -26.9413   22.5410 C   0  0  0  0  0  0
  -19.5774  -26.6379   21.5205 C   0  0  0  0  0  0
  -18.1953  -26.7936   22.1610 C   0  0  0  0  0  0
  -19.1566  -28.8871   23.2846 C   0  0  0  0  0  0
  -18.9483  -30.1470   23.8866 C   0  0  0  0  0  0
  -17.6479  -30.6586   24.0558 C   0  0  0  0  0  0
  -25.9073  -34.9409   23.5067 C   0  0  0  0  0  0
  -16.5370  -29.9077   23.6341 C   0  0  0  0  0  0
  -16.7296  -28.6502   23.0351 C   0  0  0  0  0  0
  -26.4529  -31.6562   25.0707 C   0  0  0  0  0  0
  -25.3724  -31.3768   26.1419 C   0  0  0  0  0  0
  -27.0377  -30.2956   24.6276 C   0  0  0  0  0  0
  -27.6086  -32.4308   25.7471 C   0  0  0  0  0  0
  -27.5583  -37.1776   24.8464 C   0  0  0  0  0  0
  -21.4255  -29.3039   22.3609 N   0  0  0  0  0  0
  -26.4289  -37.3749   23.9414 N   0  0  0  0  0  0
  -24.7147  -31.0329   22.0924 N   0  0  0  0  0  0
  -23.4217  -28.8100   23.2999 O   0  0  0  0  0  0
  -28.2775  -26.1735   20.2098 O   0  0  0  0  0  0
  -26.5645  -34.8903   22.4634 O   0  0  0  0  0  0
  -23.5543  -32.1324   23.7138 O   0  0  0  0  0  0
  -28.2153  -18.0953   20.7491 C   0  0  0  0  0  0
  -30.4833  -18.5413   20.2926 C   0  0  0  0  0  0
  -27.9193  -19.5039   20.6778 C   0  0  0  0  0  0
  -30.1796  -19.9799   20.2323 C   0  0  0  0  0  0
  -29.5053  -17.5105   20.5545 C   0  0  0  0  0  0
  -28.8633  -20.5436   20.4177 C   0  0  0  0  0  0
  -28.9684  -23.3056   20.2949 C   0  0  0  0  0  0
  -27.9754  -24.6526   20.0919 C   0  0  0  0  0  0
  -29.6169  -15.9865   20.6674 N   0  0  0  0  0  0
  -28.3409  -21.9105   20.3531 O   0  0  0  0  0  0
  -31.4885  -12.7346   19.1825 H   0  0  0  0  0  0
  -30.4604  -11.5956   20.0058 H   0  0  0  0  0  0
  -29.8405  -11.7242   17.5774 H   0  0  0  0  0  0
  -29.6216  -13.4520   17.6963 H   0  0  0  0  0  0
  -27.9473  -11.2684   18.9696 H   0  0  0  0  0  0
  -27.3947  -12.4547   17.8166 H   0  0  0  0  0  0
  -27.6179  -14.2430   19.4364 H   0  0  0  0  0  0
  -28.7602  -12.2129   21.4208 H   0  0  0  0  0  0
  -28.3848  -13.8728   21.7977 H   0  0  0  0  0  0
  -25.2756   -9.5682   22.4757 H   0  0  0  0  0  0
  -24.0001   -7.4627   22.7461 H   0  0  0  0  0  0
  -21.0838   -8.8770   19.8954 H   0  0  0  0  0  0
  -22.3684  -10.9672   19.6174 H   0  0  0  0  0  0
  -21.2003   -7.6140   23.9709 H   0  0  0  0  0  0
  -21.1487   -6.0516   25.9075 H   0  0  0  0  0  0
  -22.0599   -2.7601   23.2843 H   0  0  0  0  0  0
  -22.4081  -11.9886   22.4849 H   0  0  0  0  0  0
  -21.1085  -13.1247   22.2656 H   0  0  0  0  0  0
  -24.6341  -15.8285   20.4849 H   0  0  0  0  0  0
  -26.2245  -15.6094   19.9608 H   0  0  0  0  0  0
  -26.7255  -32.5312   23.0996 H   0  0  0  0  0  0
  -25.0126  -33.9625   25.0360 H   0  0  0  0  0  0
  -22.7454  -31.2921   21.3833 H   0  0  0  0  0  0
  -23.3765  -35.9568   23.3292 H   0  0  0  0  0  0
  -24.3585  -36.8891   22.2059 H   0  0  0  0  0  0
  -23.7234  -37.6436   23.6677 H   0  0  0  0  0  0
  -26.1556  -31.4817   20.6172 H   0  0  0  0  0  0
  -26.8696  -30.7724   22.0293 H   0  0  0  0  0  0
  -28.1328  -28.8166   21.2280 H   0  0  0  0  0  0
  -25.9048  -25.8561   19.0019 H   0  0  0  0  0  0
  -23.9779  -27.3044   18.9838 H   0  0  0  0  0  0
  -23.8045  -30.5736   19.3988 H   0  0  0  0  0  0
  -22.7847  -29.2399   19.8437 H   0  0  0  0  0  0
  -25.1317  -36.1861   25.0809 H   0  0  0  0  0  0
  -21.0016  -28.3300   24.1354 H   0  0  0  0  0  0
  -20.5666  -26.2323   23.3628 H   0  0  0  0  0  0
  -21.6663  -26.7413   22.1221 H   0  0  0  0  0  0
  -19.6932  -25.6284   21.1253 H   0  0  0  0  0  0
  -19.6722  -27.3173   20.6721 H   0  0  0  0  0  0
  -17.4228  -26.6678   21.4008 H   0  0  0  0  0  0
  -18.0350  -26.0083   22.9011 H   0  0  0  0  0  0
  -19.7958  -30.7296   24.2215 H   0  0  0  0  0  0
  -17.5033  -31.6263   24.5169 H   0  0  0  0  0  0
  -15.5368  -30.2966   23.7685 H   0  0  0  0  0  0
  -15.8700  -28.0816   22.7066 H   0  0  0  0  0  0
  -24.5925  -30.7071   25.7773 H   0  0  0  0  0  0
  -24.8874  -32.2948   26.4746 H   0  0  0  0  0  0
  -25.8030  -30.9039   27.0255 H   0  0  0  0  0  0
  -26.2979  -29.6681   24.1289 H   0  0  0  0  0  0
  -27.4002  -29.7261   25.4844 H   0  0  0  0  0  0
  -27.8892  -30.4194   23.9579 H   0  0  0  0  0  0
  -27.2718  -33.3642   26.1990 H   0  0  0  0  0  0
  -28.3920  -32.6807   25.0300 H   0  0  0  0  0  0
  -28.0715  -31.8451   26.5425 H   0  0  0  0  0  0
  -28.2603  -38.0072   24.7518 H   0  0  0  0  0  0
  -28.1082  -36.2608   24.6283 H   0  0  0  0  0  0
  -27.2305  -37.1418   25.8868 H   0  0  0  0  0  0
  -20.9454  -29.8756   21.6799 H   0  0  0  0  0  0
  -26.0160  -38.2816   24.1435 H   0  0  0  0  0  0
  -27.3841  -17.4389   20.9640 H   0  0  0  0  0  0
  -31.5080  -18.2375   20.1325 H   0  0  0  0  0  0
  -26.8912  -19.7983   20.8356 H   0  0  0  0  0  0
  -30.9941  -20.6580   20.0223 H   0  0  0  0  0  0
  -29.5285  -23.4334   21.2214 H   0  0  0  0  0  0
  -29.7148  -23.2995   19.5002 H   0  0  0  0  0  0
  -27.1411  -24.4904   20.7758 H   0  0  0  0  0  0
  -27.5573  -24.5134   19.0959 H   0  0  0  0  0  0
  -28.7281  -15.5826   20.9203 H   0  0  0  0  0  0
  1 25  1  0  0  0
  1 30  2  0  0  0
  1 79  1  0  0  0
  2  3  1  0  0  0
  2 25  1  0  0  0
  2 81  1  0  0  0
  2 82  1  0  0  0
  3  4  1  0  0  0
  3 83  1  0  0  0
  3 84  1  0  0  0
  4  5  1  0  0  0
  4 85  1  0  0  0
  4 86  1  0  0  0
  5  6  1  0  0  0
  5 26  1  0  0  0
  5 87  1  0  0  0
  6 25  1  0  0  0
  6 88  1  0  0  0
  6 89  1  0  0  0
  7  8  2  0  0  0
  7 26  1  0  0  0
  7 29  1  0  0  0
  8  9  1  0  0  0
  8 22  1  0  0  0
  9 10  1  0  0  0
  9 27  2  0  0  0
 10 11  2  0  0  0
 10 15  1  0  0  0
 11 12  1  0  0  0
 11 90  1  0  0  0
 12 13  2  0  0  0
 12 91  1  0  0  0
 13 14  1  0  0  0
 13 31  1  0  0  0
 14 15  2  0  0  0
 14 92  1  0  0  0
 15 93  1  0  0  0
 16 17  2  0  0  0
 16 21  1  0  0  0
 16 31  1  0  0  0
 17 18  1  0  0  0
 17 94  1  0  0  0
 18 19  2  0  0  0
 18 95  1  0  0  0
 19 20  1  0  0  0
 19 24  1  0  0  0
 20 21  2  0  0  0
 20 96  1  0  0  0
 21 23  1  0  0  0
 22 28  1  0  0  0
 22 32  2  0  0  0
 26 27  1  0  0  0
 28 97  1  0  0  0
 28 98  1  0  0  0
 29 99  1  0  0  0
 29100  1  0  0  0
 33 34  1  0  0  0
 33 66  1  0  0  0
 33 70  2  0  0  0
 34 36  1  0  0  0
 34 59  1  0  0  0
 34101  1  0  0  0
 35 44  2  0  0  0
 35 45  1  0  0  0
 35 68  1  0  0  0
 36 56  1  0  0  0
 36102  1  0  0  0
 37 39  1  0  0  0
 37 47  1  0  0  0
 37 66  1  0  0  0
 37103  1  0  0  0
 38 43  2  0  0  0
 38 46  1  0  0  0
 38 47  1  0  0  0
 39 64  1  0  0  0
 39 67  2  0  0  0
 40 52  1  0  0  0
 40 53  2  0  0  0
 40 58  1  0  0  0
 41104  1  0  0  0
 41105  1  0  0  0
 41106  1  0  0  0
 41 48  1  0  0  0
 42 43  1  0  0  0
 42 66  1  0  0  0
 42107  1  0  0  0
 42108  1  0  0  0
 43 44  1  0  0  0
 44109  1  0  0  0
 45 46  2  0  0  0
 45110  1  0  0  0
 46111  1  0  0  0
 47112  1  0  0  0
 47113  1  0  0  0
 48 56  1  0  0  0
 48 65  1  0  0  0
 48114  1  0  0  0
 49 50  1  0  0  0
 49 53  1  0  0  0
 49 64  1  0  0  0
 49115  1  0  0  0
 50 51  1  0  0  0
 50116  1  0  0  0
 50117  1  0  0  0
 51 52  1  0  0  0
 51118  1  0  0  0
 51119  1  0  0  0
 52120  1  0  0  0
 52121  1  0  0  0
 53 54  1  0  0  0
 54 55  2  0  0  0
 54122  1  0  0  0
 55 57  1  0  0  0
 55123  1  0  0  0
 56 69  2  0  0  0
 57 58  2  0  0  0
 57124  1  0  0  0
 58125  1  0  0  0
 59 60  1  0  0  0
 59 61  1  0  0  0
 59 62  1  0  0  0
 60126  1  0  0  0
 60127  1  0  0  0
 60128  1  0  0  0
 61129  1  0  0  0
 61130  1  0  0  0
 61131  1  0  0  0
 62132  1  0  0  0
 62133  1  0  0  0
 62134  1  0  0  0
 63 65  1  0  0  0
 63135  1  0  0  0
 63136  1  0  0  0
 63137  1  0  0  0
 64138  1  0  0  0
 65139  1  0  0  0
 68 78  1  0  0  0
 71 73  2  0  0  0
 71 75  1  0  0  0
 71140  1  0  0  0
 72 74  1  0  0  0
 72 75  2  0  0  0
 72141  1  0  0  0
 73 76  1  0  0  0
 73142  1  0  0  0
 74 76  2  0  0  0
 74143  1  0  0  0
 75 79  1  0  0  0
 76 80  1  0  0  0
 77 78  1  0  0  0
 77 80  1  0  0  0
 77144  1  0  0  0
 77145  1  0  0  0
 78146  1  0  0  0
 78147  1  0  0  0
 79148  1  0  0  0
M  ISO  4   1 100  68 101  78 101  79 100
M  END
> <chiral flag>
0

> <version>
0

> <s_m_source_file>
/data/baiqing/PycharmProjects/Reinvent-master-3.2/result/LINK_invent/BTK/process_docking_weight1_custom_product_contain_oxygen_bond_distance_aromatic_linkinvent_7_9_3/rearranged_h_0002.sdf

> <i_m_source_file_index>
90

> <r_mmod_Potential_Energy-OPLS-2005>
453.292022705078

> <r_mmod_Stretch_Energy-OPLS-2005>
216.148208618164

> <r_mmod_Bend_Energy-OPLS-2005>
303.559814453125

> <r_mmod_Torsional_Energy-OPLS-2005>
210.8935546875

> <r_mmod_Improper_Torsional_Energy-OPLS-2005>
4.47378873825073

> <r_mmod_Van_der_Waal_Energy-OPLS-2005>
131.151794433594

> <r_mmod_Electrostatic_Energy-OPLS-2005>
-373.256744384766

> <r_mmod_Solvation_Energy-OPLS-2005>
-214.08235168457

> <b_mmod_Minimization_Converged-OPLS-2005>
0

> <r_mmod_RMS_Derivative-OPLS-2005>
0.848834156990051

$$$$
90
                    3D
 Structure written by MMmdl.
144152  0  0  1  0            999 V2000
  -30.3021  -15.5932   20.3329 C   0  0  0  0  0  0
  -30.4326  -13.0479   19.5373 C   0  0  0  0  0  0
  -29.5520  -12.6461   18.3194 C   0  0  0  0  0  0
  -28.1210  -12.2991   18.7600 C   0  0  0  0  0  0
  -27.5995  -13.3023   19.8140 C   0  0  2  0  0  0
  -28.6192  -13.6098   20.9351 C   0  0  0  0  0  0
  -25.2337  -13.8274   20.5781 C   0  0  0  0  0  0
  -24.1722  -13.0430   20.9285 C   0  0  0  0  0  0
  -24.6417  -11.6940   20.8764 C   0  0  0  0  0  0
  -23.9117  -10.4290   21.0399 C   0  0  0  0  0  0
  -24.3652   -9.4203   21.9181 C   0  0  0  0  0  0
  -23.6312   -8.2246   22.0754 C   0  0  0  0  0  0
  -22.4292   -8.0288   21.3546 C   0  0  0  0  0  0
  -21.9939   -9.0264   20.4645 C   0  0  0  0  0  0
  -22.7284  -10.2134   20.3051 C   0  0  0  0  0  0
  -21.6858   -6.0741   22.5279 C   0  0  0  0  0  0
  -21.4018   -6.5643   23.8213 C   0  0  0  0  0  0
  -21.3661   -5.6794   24.9174 C   0  0  0  0  0  0
  -21.6044   -4.3056   24.7224 C   0  0  0  0  0  0
  -21.8818   -3.8150   23.4344 C   0  0  0  0  0  0
  -21.9194   -4.6968   22.3402 C   0  0  0  0  0  0
  -22.7734  -13.5165   21.1921 C   0  0  0  0  0  0
  -22.1661   -4.2153   21.0979 F   0  0  0  0  0  0
  -21.5627   -3.4539   25.7736 F   0  0  0  0  0  0
  -29.8007  -14.2227   20.2856 N   0  0  0  0  0  0
  -26.2785  -12.9597   20.3223 N   0  0  0  0  0  0
  -25.9362  -11.6674   20.5699 N   0  0  0  0  0  0
  -22.0396  -12.8143   22.0473 N   0  0  0  0  0  0
  -25.3915  -15.2015   20.4212 N   0  0  0  0  0  0
  -31.5371  -15.5643   20.1684 O   0  0  0  0  0  0
  -21.6647   -6.8889   21.4243 O   0  0  0  0  0  0
  -22.3409  -14.5464   20.6757 O   0  0  0  0  0  0
  -24.6831  -31.8011   23.1526 C   0  0  0  0  0  0
  -25.9415  -32.4474   23.8070 C   0  0  1  0  0  0
  -27.2274  -26.7157   20.2118 C   0  0  0  0  0  0
  -25.5996  -33.8299   24.1956 N   0  0  0  0  0  0
  -23.5088  -30.4037   21.5064 C   0  0  2  0  0  0
  -24.9668  -28.7480   20.1182 C   0  0  0  0  0  0
  -22.7764  -29.4322   22.4715 C   0  0  0  0  0  0
  -18.0338  -28.1421   22.8455 C   0  0  0  0  0  0
  -24.1496  -36.7158   23.2652 C   0  0  0  0  0  0
  -26.0894  -30.5386   21.4154 C   0  0  0  0  0  0
  -26.1562  -29.1049   20.7648 C   0  0  0  0  0  0
  -27.2730  -28.1167   20.7789 C   0  0  0  0  0  0
  -26.0047  -26.5663   19.5091 C   0  0  0  0  0  0
  -24.9293  -27.5037   19.4667 C   0  0  0  0  0  0
  -23.7624  -29.7017   20.1415 C   0  0  0  0  0  0
  -25.4146  -36.2900   24.0282 C   0  0  1  0  0  0
  -20.5974  -28.3781   23.1142 C   0  0  2  0  0  0
  -20.6805  -26.9441   22.5403 C   0  0  0  0  0  0
  -19.5781  -26.6371   21.5216 C   0  0  0  0  0  0
  -18.1964  -26.7949   22.1619 C   0  0  0  0  0  0
  -19.1605  -28.8925   23.2779 C   0  0  0  0  0  0
  -18.9510  -30.1509   23.8825 C   0  0  0  0  0  0
  -17.6500  -30.6604   24.0550 C   0  0  0  0  0  0
  -25.9124  -34.9289   23.4955 C   0  0  0  0  0  0
  -16.5389  -29.9086   23.6350 C   0  0  0  0  0  0
  -16.7318  -28.6508   23.0366 C   0  0  0  0  0  0
  -26.4594  -31.6505   25.0689 C   0  0  0  0  0  0
  -25.3661  -31.3820   26.1304 C   0  0  0  0  0  0
  -27.0525  -30.2844   24.6583 C   0  0  0  0  0  0
  -27.6042  -32.4365   25.7508 C   0  0  0  0  0  0
  -27.5564  -37.1737   24.8466 C   0  0  0  0  0  0
  -21.4412  -29.3030   22.3464 N   0  0  0  0  0  0
  -26.4273  -37.3659   23.9406 N   0  0  0  0  0  0
  -24.7838  -30.9469   22.0774 N   0  0  0  0  0  0
  -23.4211  -28.7922   23.3056 O   0  0  0  0  0  0
  -28.1833  -25.4944   20.2808 O   0  0  0  0  0  0
  -26.5764  -34.8864   22.4572 O   0  0  0  0  0  0
  -23.5852  -32.1079   23.6486 O   0  0  0  0  0  0
  -29.2152  -21.2102   21.2850 C   0  0  0  0  0  0
  -28.4680  -20.9815   19.2114 C   0  0  0  0  0  0
  -29.5547  -19.7084   21.3189 C   0  0  0  0  0  0
  -28.7956  -19.4896   19.2463 C   0  0  0  0  0  0
  -28.6202  -22.0723   20.2165 C   0  0  0  0  0  0
  -29.3952  -18.6241   20.2984 C   0  0  0  0  0  0
  -27.8596  -23.7811   20.1605 C   0  0  0  0  0  0
  -29.4728  -16.9054   20.3744 N   0  0  0  0  0  0
  -31.4270  -13.3120   19.1754 H   0  0  0  0  0  0
  -30.5883  -12.1960   20.2015 H   0  0  0  0  0  0
  -29.9972  -11.8055   17.7855 H   0  0  0  0  0  0
  -29.5208  -13.4766   17.6126 H   0  0  0  0  0  0
  -28.1388  -11.2971   19.1903 H   0  0  0  0  0  0
  -27.4518  -12.2545   17.8999 H   0  0  0  0  0  0
  -27.4696  -14.2308   19.2564 H   0  0  0  0  0  0
  -28.8689  -12.7178   21.5116 H   0  0  0  0  0  0
  -28.1952  -14.3242   21.6424 H   0  0  0  0  0  0
  -25.2792   -9.5675   22.4765 H   0  0  0  0  0  0
  -24.0012   -7.4637   22.7479 H   0  0  0  0  0  0
  -21.0869   -8.8793   19.8951 H   0  0  0  0  0  0
  -22.3745  -10.9677   19.6162 H   0  0  0  0  0  0
  -21.2013   -7.6151   23.9718 H   0  0  0  0  0  0
  -21.1483   -6.0523   25.9077 H   0  0  0  0  0  0
  -22.0595   -2.7612   23.2843 H   0  0  0  0  0  0
  -22.4036  -11.9820   22.4872 H   0  0  0  0  0  0
  -21.1003  -13.1140   22.2670 H   0  0  0  0  0  0
  -24.6148  -15.8447   20.5307 H   0  0  0  0  0  0
  -26.2216  -15.6451   20.0524 H   0  0  0  0  0  0
  -26.7498  -32.4951   23.0785 H   0  0  0  0  0  0
  -25.0053  -33.9339   25.0048 H   0  0  0  0  0  0
  -22.8336  -31.2408   21.3174 H   0  0  0  0  0  0
  -23.3775  -35.9470   23.3267 H   0  0  0  0  0  0
  -24.3564  -36.8867   22.2076 H   0  0  0  0  0  0
  -23.7240  -37.6318   23.6760 H   0  0  0  0  0  0
  -26.2912  -31.2650   20.6272 H   0  0  0  0  0  0
  -26.9406  -30.6057   22.0807 H   0  0  0  0  0  0
  -28.1680  -28.3958   21.3169 H   0  0  0  0  0  0
  -25.8372  -25.6248   19.0063 H   0  0  0  0  0  0
  -24.0317  -27.2214   18.9338 H   0  0  0  0  0  0
  -23.9365  -30.4623   19.3796 H   0  0  0  0  0  0
  -22.8675  -29.1676   19.8174 H   0  0  0  0  0  0
  -25.1355  -36.1664   25.0772 H   0  0  0  0  0  0
  -21.0055  -28.3406   24.1269 H   0  0  0  0  0  0
  -20.5670  -26.2405   23.3665 H   0  0  0  0  0  0
  -21.6667  -26.7385   22.1221 H   0  0  0  0  0  0
  -19.6938  -25.6262   21.1294 H   0  0  0  0  0  0
  -19.6725  -27.3140   20.6714 H   0  0  0  0  0  0
  -17.4233  -26.6689   21.4023 H   0  0  0  0  0  0
  -18.0354  -26.0109   22.9033 H   0  0  0  0  0  0
  -19.7985  -30.7344   24.2163 H   0  0  0  0  0  0
  -17.5050  -31.6276   24.5167 H   0  0  0  0  0  0
  -15.5386  -30.2965   23.7716 H   0  0  0  0  0  0
  -15.8719  -28.0803   22.7123 H   0  0  0  0  0  0
  -24.5869  -30.7145   25.7603 H   0  0  0  0  0  0
  -24.8823  -32.3041   26.4534 H   0  0  0  0  0  0
  -25.7838  -30.9110   27.0211 H   0  0  0  0  0  0
  -26.3240  -29.6459   24.1575 H   0  0  0  0  0  0
  -27.3954  -29.7289   25.5322 H   0  0  0  0  0  0
  -27.9220  -30.3970   24.0106 H   0  0  0  0  0  0
  -27.2581  -33.3734   26.1884 H   0  0  0  0  0  0
  -28.3957  -32.6817   25.0414 H   0  0  0  0  0  0
  -28.0596  -31.8630   26.5592 H   0  0  0  0  0  0
  -28.2551  -38.0060   24.7511 H   0  0  0  0  0  0
  -28.1090  -36.2582   24.6297 H   0  0  0  0  0  0
  -27.2278  -37.1377   25.8867 H   0  0  0  0  0  0
  -20.9716  -29.8686   21.6531 H   0  0  0  0  0  0
  -26.0101  -38.2707   24.1416 H   0  0  0  0  0  0
  -29.3875  -21.7246   22.2200 H   0  0  0  0  0  0
  -27.9811  -21.2980   18.2995 H   0  0  0  0  0  0
  -29.9269  -19.3646   22.2737 H   0  0  0  0  0  0
  -28.4989  -18.9566   18.3538 H   0  0  0  0  0  0
  -27.0553  -23.6708   20.8879 H   0  0  0  0  0  0
  -27.3414  -23.7369   19.2027 H   0  0  0  0  0  0
  -28.5226  -16.5669   20.4124 H   0  0  0  0  0  0
  1 25  1  0  0  0
  1 30  2  0  0  0
  1 78  1  0  0  0
  2  3  1  0  0  0
  2 25  1  0  0  0
  2 79  1  0  0  0
  2 80  1  0  0  0
  3  4  1  0  0  0
  3 81  1  0  0  0
  3 82  1  0  0  0
  4  5  1  0  0  0
  4 83  1  0  0  0
  4 84  1  0  0  0
  5  6  1  0  0  0
  5 26  1  0  0  0
  5 85  1  0  0  0
  6 25  1  0  0  0
  6 86  1  0  0  0
  6 87  1  0  0  0
  7  8  2  0  0  0
  7 26  1  0  0  0
  7 29  1  0  0  0
  8  9  1  0  0  0
  8 22  1  0  0  0
  9 10  1  0  0  0
  9 27  2  0  0  0
 10 11  2  0  0  0
 10 15  1  0  0  0
 11 12  1  0  0  0
 11 88  1  0  0  0
 12 13  2  0  0  0
 12 89  1  0  0  0
 13 14  1  0  0  0
 13 31  1  0  0  0
 14 15  2  0  0  0
 14 90  1  0  0  0
 15 91  1  0  0  0
 16 17  2  0  0  0
 16 21  1  0  0  0
 16 31  1  0  0  0
 17 18  1  0  0  0
 17 92  1  0  0  0
 18 19  2  0  0  0
 18 93  1  0  0  0
 19 20  1  0  0  0
 19 24  1  0  0  0
 20 21  2  0  0  0
 20 94  1  0  0  0
 21 23  1  0  0  0
 22 28  1  0  0  0
 22 32  2  0  0  0
 26 27  1  0  0  0
 28 95  1  0  0  0
 28 96  1  0  0  0
 29 97  1  0  0  0
 29 98  1  0  0  0
 33 34  1  0  0  0
 33 66  1  0  0  0
 33 70  2  0  0  0
 34 36  1  0  0  0
 34 59  1  0  0  0
 34 99  1  0  0  0
 35 44  2  0  0  0
 35 45  1  0  0  0
 35 68  1  0  0  0
 36 56  1  0  0  0
 36100  1  0  0  0
 37 39  1  0  0  0
 37 47  1  0  0  0
 37 66  1  0  0  0
 37101  1  0  0  0
 38 43  2  0  0  0
 38 46  1  0  0  0
 38 47  1  0  0  0
 39 64  1  0  0  0
 39 67  2  0  0  0
 40 52  1  0  0  0
 40 53  2  0  0  0
 40 58  1  0  0  0
 41102  1  0  0  0
 41103  1  0  0  0
 41104  1  0  0  0
 41 48  1  0  0  0
 42 43  1  0  0  0
 42 66  1  0  0  0
 42105  1  0  0  0
 42106  1  0  0  0
 43 44  1  0  0  0
 44107  1  0  0  0
 45 46  2  0  0  0
 45108  1  0  0  0
 46109  1  0  0  0
 47110  1  0  0  0
 47111  1  0  0  0
 48 56  1  0  0  0
 48 65  1  0  0  0
 48112  1  0  0  0
 49 50  1  0  0  0
 49 53  1  0  0  0
 49 64  1  0  0  0
 49113  1  0  0  0
 50 51  1  0  0  0
 50114  1  0  0  0
 50115  1  0  0  0
 51 52  1  0  0  0
 51116  1  0  0  0
 51117  1  0  0  0
 52118  1  0  0  0
 52119  1  0  0  0
 53 54  1  0  0  0
 54 55  2  0  0  0
 54120  1  0  0  0
 55 57  1  0  0  0
 55121  1  0  0  0
 56 69  2  0  0  0
 57 58  2  0  0  0
 57122  1  0  0  0
 58123  1  0  0  0
 59 60  1  0  0  0
 59 61  1  0  0  0
 59 62  1  0  0  0
 60124  1  0  0  0
 60125  1  0  0  0
 60126  1  0  0  0
 61127  1  0  0  0
 61128  1  0  0  0
 61129  1  0  0  0
 62130  1  0  0  0
 62131  1  0  0  0
 62132  1  0  0  0
 63 65  1  0  0  0
 63133  1  0  0  0
 63134  1  0  0  0
 63135  1  0  0  0
 64136  1  0  0  0
 65137  1  0  0  0
 68 77  1  0  0  0
 71 73  2  0  0  0
 71 75  1  0  0  0
 71138  1  0  0  0
 72 74  1  0  0  0
 72 75  2  0  0  0
 72139  1  0  0  0
 73 76  1  0  0  0
 73140  1  0  0  0
 74 76  2  0  0  0
 74141  1  0  0  0
 75 77  1  0  0  0
 76 78  1  0  0  0
 77142  1  0  0  0
 77143  1  0  0  0
 78144  1  0  0  0
M  ISO  4   1 100  68 101  77 101  78 100
M  END
> <chiral flag>
0

> <version>
0

> <s_m_source_file>
/data/baiqing/PycharmProjects/Reinvent-master-3.2/result/LINK_invent/BTK/process_docking_weight1_custom_product_contain_oxygen_bond_distance_aromatic_linkinvent_7_9_3/rearranged_h_0002.sdf

> <i_m_source_file_index>
91

> <r_mmod_Potential_Energy-OPLS-2005>
2267.25439453125

> <r_mmod_Stretch_Energy-OPLS-2005>
909.600280761719

> <r_mmod_Bend_Energy-OPLS-2005>
657.110290527344

> <r_mmod_Torsional_Energy-OPLS-2005>
259.846252441406

> <r_mmod_Improper_Torsional_Energy-OPLS-2005>
10.6979417800903

> <r_mmod_Van_der_Waal_Energy-OPLS-2005>
132.425323486328

> <r_mmod_Electrostatic_Energy-OPLS-2005>
-345.95654296875

> <r_mmod_Solvation_Energy-OPLS-2005>
-215.57307434082

> <b_mmod_Minimization_Converged-OPLS-2005>
0

> <r_mmod_RMS_Derivative-OPLS-2005>
0.113339096307755

$$$$
91
                    3D
 Structure written by MMmdl.
160168  0  0  1  0            999 V2000
  -30.6998  -14.6075   20.5169 C   0  0  0  0  0  0
  -30.4097  -12.3771   19.4547 C   0  0  0  0  0  0
  -29.5019  -12.5285   18.2132 C   0  0  0  0  0  0
  -28.0220  -12.3932   18.6169 C   0  0  0  0  0  0
  -27.6553  -13.2341   19.8709 C   0  0  2  0  0  0
  -28.7024  -13.1105   20.9983 C   0  0  0  0  0  0
  -25.2585  -13.8204   20.5697 C   0  0  0  0  0  0
  -24.1873  -13.0427   20.9140 C   0  0  0  0  0  0
  -24.6480  -11.6885   20.8736 C   0  0  0  0  0  0
  -23.9160  -10.4251   21.0383 C   0  0  0  0  0  0
  -24.3689   -9.4172   21.9181 C   0  0  0  0  0  0
  -23.6315   -8.2250   22.0809 C   0  0  0  0  0  0
  -22.4305   -8.0298   21.3561 C   0  0  0  0  0  0
  -21.9931   -9.0290   20.4683 C   0  0  0  0  0  0
  -22.7315  -10.2124   20.3053 C   0  0  0  0  0  0
  -21.6867   -6.0729   22.5257 C   0  0  0  0  0  0
  -21.4026   -6.5638   23.8189 C   0  0  0  0  0  0
  -21.3683   -5.6809   24.9158 C   0  0  0  0  0  0
  -21.6036   -4.3066   24.7213 C   0  0  0  0  0  0
  -21.8823   -3.8138   23.4343 C   0  0  0  0  0  0
  -21.9201   -4.6950   22.3387 C   0  0  0  0  0  0
  -22.7896  -13.5211   21.1784 C   0  0  0  0  0  0
  -22.1651   -4.2141   21.0966 F   0  0  0  0  0  0
  -21.5648   -3.4538   25.7727 F   0  0  0  0  0  0
  -30.0183  -13.4187   20.4304 N   0  0  0  0  0  0
  -26.3051  -12.9418   20.3413 N   0  0  0  0  0  0
  -25.9419  -11.6522   20.5786 N   0  0  0  0  0  0
  -22.0604  -12.8202   22.0358 N   0  0  0  0  0  0
  -25.4214  -15.1960   20.4119 N   0  0  0  0  0  0
  -31.8806  -14.6802   20.1769 O   0  0  0  0  0  0
  -21.6664   -6.8891   21.4231 O   0  0  0  0  0  0
  -22.3548  -14.5493   20.6627 O   0  0  0  0  0  0
  -24.6120  -31.8697   23.2071 C   0  0  0  0  0  0
  -25.9002  -32.4850   23.8358 C   0  0  1  0  0  0
  -27.2206  -27.4159   20.1118 C   0  0  0  0  0  0
  -25.5861  -33.8636   24.2328 N   0  0  0  0  0  0
  -23.4007  -30.4928   21.5481 C   0  0  2  0  0  0
  -24.8493  -28.9612   20.1047 C   0  0  0  0  0  0
  -22.7384  -29.4651   22.4959 C   0  0  0  0  0  0
  -18.0306  -28.1327   22.8723 C   0  0  0  0  0  0
  -24.1486  -36.7306   23.2654 C   0  0  0  0  0  0
  -25.9296  -30.8356   21.3571 C   0  0  0  0  0  0
  -26.0093  -29.4661   20.7060 C   0  0  0  0  0  0
  -27.2004  -28.7019   20.7075 C   0  0  0  0  0  0
  -26.0565  -26.9503   19.4658 C   0  0  0  0  0  0
  -24.8668  -27.7046   19.4745 C   0  0  0  0  0  0
  -23.6045  -29.8189   20.1661 C   0  0  0  0  0  0
  -25.4104  -36.3118   24.0365 C   0  0  1  0  0  0
  -20.5865  -28.3696   23.1423 C   0  0  2  0  0  0
  -20.6575  -26.9281   22.5869 C   0  0  0  0  0  0
  -19.5787  -26.6568   21.5323 C   0  0  0  0  0  0
  -18.2020  -26.7832   22.1926 C   0  0  0  0  0  0
  -19.1541  -28.8862   23.3026 C   0  0  0  0  0  0
  -18.9431  -30.1557   23.8882 C   0  0  0  0  0  0
  -17.6444  -30.6740   24.0358 C   0  0  0  0  0  0
  -25.9020  -34.9504   23.5142 C   0  0  0  0  0  0
  -16.5349  -29.9111   23.6277 C   0  0  0  0  0  0
  -16.7283  -28.6406   23.0584 C   0  0  0  0  0  0
  -26.4456  -31.6590   25.0645 C   0  0  0  0  0  0
  -25.3719  -31.3637   26.1376 C   0  0  0  0  0  0
  -27.0285  -30.3046   24.5961 C   0  0  0  0  0  0
  -27.6059  -32.4293   25.7429 C   0  0  0  0  0  0
  -27.5580  -37.1793   24.8474 C   0  0  0  0  0  0
  -21.4126  -29.2867   22.3610 N   0  0  0  0  0  0
  -26.4294  -37.3790   23.9426 N   0  0  0  0  0  0
  -24.6665  -31.0804   22.0956 N   0  0  0  0  0  0
  -23.4199  -28.8259   23.3029 O   0  0  0  0  0  0
  -28.3463  -26.6124   20.1693 O   0  0  0  0  0  0
  -26.5622  -34.8966   22.4731 O   0  0  0  0  0  0
  -23.5319  -32.1429   23.7475 O   0  0  0  0  0  0
  -28.3490  -18.5086   18.9211 C   0  0  0  0  0  0
  -29.0423  -18.4696   17.7060 C   0  0  0  0  0  0
  -30.6847  -17.0081   18.7361 C   0  0  0  0  0  0
  -28.9719  -18.0209   20.1011 C   0  0  0  0  0  0
  -30.2855  -17.8174   17.6592 C   0  0  0  0  0  0
  -29.9273  -16.9462   19.9429 C   0  0  0  0  0  0
  -29.0158  -19.0254   21.2537 C   0  0  0  0  0  0
  -31.1594  -17.9762   16.4350 C   0  0  0  0  0  0
  -28.1402  -22.7362   20.6282 C   0  0  0  0  0  0
  -28.7993  -24.1220   20.2805 C   0  0  0  0  0  0
  -28.9502  -21.6242   21.4018 C   0  0  0  0  0  0
  -28.1570  -25.3888   20.9284 C   0  0  0  0  0  0
  -29.9967  -15.7525   20.7961 N   0  0  0  0  0  0
  -28.6151  -20.2749   20.8985 N   0  0  0  0  0  0
  -29.5211  -18.7588   22.3461 O   0  0  0  0  0  0
  -31.4584  -12.4387   19.1639 H   0  0  0  0  0  0
  -30.2859  -11.3791   19.8788 H   0  0  0  0  0  0
  -29.7442  -11.7723   17.4660 H   0  0  0  0  0  0
  -29.6813  -13.4922   17.7276 H   0  0  0  0  0  0
  -27.8160  -11.3379   18.7963 H   0  0  0  0  0  0
  -27.3798  -12.6846   17.7835 H   0  0  0  0  0  0
  -27.6746  -14.2765   19.5605 H   0  0  0  0  0  0
  -28.6987  -12.1073   21.4204 H   0  0  0  0  0  0
  -28.4679  -13.7716   21.8325 H   0  0  0  0  0  0
  -25.2859   -9.5623   22.4716 H   0  0  0  0  0  0
  -24.0012   -7.4649   22.7562 H   0  0  0  0  0  0
  -21.0844   -8.8824   19.9005 H   0  0  0  0  0  0
  -22.3807  -10.9661   19.6146 H   0  0  0  0  0  0
  -21.2006   -7.6144   23.9676 H   0  0  0  0  0  0
  -21.1515   -6.0538   25.9065 H   0  0  0  0  0  0
  -22.0585   -2.7590   23.2837 H   0  0  0  0  0  0
  -22.4241  -11.9801   22.4613 H   0  0  0  0  0  0
  -21.1274  -13.1215   22.2682 H   0  0  0  0  0  0
  -24.6435  -15.8415   20.5135 H   0  0  0  0  0  0
  -26.2627  -15.6388   20.0633 H   0  0  0  0  0  0
  -26.7043  -32.5589   23.1106 H   0  0  0  0  0  0
  -24.9887  -33.9784   25.0384 H   0  0  0  0  0  0
  -22.6921  -31.3148   21.4045 H   0  0  0  0  0  0
  -23.3759  -35.9620   23.3321 H   0  0  0  0  0  0
  -24.3567  -36.8901   22.2058 H   0  0  0  0  0  0
  -23.7227  -37.6513   23.6651 H   0  0  0  0  0  0
  -26.0328  -31.6023   20.5853 H   0  0  0  0  0  0
  -26.8222  -30.9031   21.9687 H   0  0  0  0  0  0
  -28.0878  -29.0802   21.1917 H   0  0  0  0  0  0
  -26.0631  -25.9944   18.9652 H   0  0  0  0  0  0
  -23.9733  -27.3200   19.0018 H   0  0  0  0  0  0
  -23.6960  -30.5858   19.4004 H   0  0  0  0  0  0
  -22.7303  -29.2311   19.8769 H   0  0  0  0  0  0
  -25.1278  -36.1988   25.0854 H   0  0  0  0  0  0
  -21.0016  -28.3494   24.1507 H   0  0  0  0  0  0
  -20.4586  -26.2450   23.4191 H   0  0  0  0  0  0
  -21.6584  -26.6714   22.2391 H   0  0  0  0  0  0
  -19.7121  -25.6637   21.1041 H   0  0  0  0  0  0
  -19.6754  -27.3686   20.7071 H   0  0  0  0  0  0
  -17.4095  -26.6230   21.4635 H   0  0  0  0  0  0
  -18.0896  -26.0062   22.9513 H   0  0  0  0  0  0
  -19.7838  -30.7462   24.2255 H   0  0  0  0  0  0
  -17.4952  -31.6560   24.4641 H   0  0  0  0  0  0
  -15.5328  -30.3019   23.7501 H   0  0  0  0  0  0
  -15.8718  -28.0534   22.7473 H   0  0  0  0  0  0
  -24.5939  -30.6958   25.7651 H   0  0  0  0  0  0
  -24.8855  -32.2750   26.4848 H   0  0  0  0  0  0
  -25.8059  -30.8754   27.0109 H   0  0  0  0  0  0
  -26.2771  -29.6816   24.1071 H   0  0  0  0  0  0
  -27.4142  -29.7280   25.4384 H   0  0  0  0  0  0
  -27.8586  -30.4408   23.9032 H   0  0  0  0  0  0
  -27.2699  -33.3615   26.2005 H   0  0  0  0  0  0
  -28.3861  -32.6812   25.0228 H   0  0  0  0  0  0
  -28.0716  -31.8378   26.5326 H   0  0  0  0  0  0
  -28.2615  -38.0075   24.7511 H   0  0  0  0  0  0
  -28.1063  -36.2608   24.6314 H   0  0  0  0  0  0
  -27.2290  -37.1448   25.8874 H   0  0  0  0  0  0
  -20.9233  -29.8542   21.6840 H   0  0  0  0  0  0
  -26.0201  -38.2885   24.1384 H   0  0  0  0  0  0
  -27.5073  -19.1841   18.9513 H   0  0  0  0  0  0
  -28.6728  -19.0340   16.8634 H   0  0  0  0  0  0
  -31.5604  -16.3921   18.5868 H   0  0  0  0  0  0
  -30.6082  -18.4958   15.6494 H   0  0  0  0  0  0
  -31.4985  -17.0098   16.0509 H   0  0  0  0  0  0
  -32.0275  -18.5853   16.6888 H   0  0  0  0  0  0
  -27.8207  -22.3142   19.6722 H   0  0  0  0  0  0
  -27.2047  -22.9145   21.1558 H   0  0  0  0  0  0
  -29.8758  -24.1165   20.4460 H   0  0  0  0  0  0
  -28.6908  -24.2557   19.2016 H   0  0  0  0  0  0
  -28.7598  -21.6865   22.4733 H   0  0  0  0  0  0
  -30.0212  -21.7653   21.2624 H   0  0  0  0  0  0
  -27.0943  -25.2062   21.1047 H   0  0  0  0  0  0
  -28.5964  -25.5395   21.9158 H   0  0  0  0  0  0
  -29.1899  -15.6033   21.3811 H   0  0  0  0  0  0
  -28.1703  -20.2798   19.9943 H   0  0  0  0  0  0
  1 25  1  0  0  0
  1 30  2  0  0  0
  1 83  1  0  0  0
  2  3  1  0  0  0
  2 25  1  0  0  0
  2 86  1  0  0  0
  2 87  1  0  0  0
  3  4  1  0  0  0
  3 88  1  0  0  0
  3 89  1  0  0  0
  4  5  1  0  0  0
  4 90  1  0  0  0
  4 91  1  0  0  0
  5  6  1  0  0  0
  5 26  1  0  0  0
  5 92  1  0  0  0
  6 25  1  0  0  0
  6 93  1  0  0  0
  6 94  1  0  0  0
  7  8  2  0  0  0
  7 26  1  0  0  0
  7 29  1  0  0  0
  8  9  1  0  0  0
  8 22  1  0  0  0
  9 10  1  0  0  0
  9 27  2  0  0  0
 10 11  2  0  0  0
 10 15  1  0  0  0
 11 12  1  0  0  0
 11 95  1  0  0  0
 12 13  2  0  0  0
 12 96  1  0  0  0
 13 14  1  0  0  0
 13 31  1  0  0  0
 14 15  2  0  0  0
 14 97  1  0  0  0
 15 98  1  0  0  0
 16 17  2  0  0  0
 16 21  1  0  0  0
 16 31  1  0  0  0
 17 18  1  0  0  0
 17 99  1  0  0  0
 18 19  2  0  0  0
 18100  1  0  0  0
 19 20  1  0  0  0
 19 24  1  0  0  0
 20 21  2  0  0  0
 20101  1  0  0  0
 21 23  1  0  0  0
 22 28  1  0  0  0
 22 32  2  0  0  0
 26 27  1  0  0  0
 28102  1  0  0  0
 28103  1  0  0  0
 29104  1  0  0  0
 29105  1  0  0  0
 33 34  1  0  0  0
 33 66  1  0  0  0
 33 70  2  0  0  0
 34 36  1  0  0  0
 34 59  1  0  0  0
 34106  1  0  0  0
 35 44  2  0  0  0
 35 45  1  0  0  0
 35 68  1  0  0  0
 36 56  1  0  0  0
 36107  1  0  0  0
 37 39  1  0  0  0
 37 47  1  0  0  0
 37 66  1  0  0  0
 37108  1  0  0  0
 38 43  2  0  0  0
 38 46  1  0  0  0
 38 47  1  0  0  0
 39 64  1  0  0  0
 39 67  2  0  0  0
 40 52  1  0  0  0
 40 53  2  0  0  0
 40 58  1  0  0  0
 41109  1  0  0  0
 41110  1  0  0  0
 41111  1  0  0  0
 41 48  1  0  0  0
 42 43  1  0  0  0
 42 66  1  0  0  0
 42112  1  0  0  0
 42113  1  0  0  0
 43 44  1  0  0  0
 44114  1  0  0  0
 45 46  2  0  0  0
 45115  1  0  0  0
 46116  1  0  0  0
 47117  1  0  0  0
 47118  1  0  0  0
 48 56  1  0  0  0
 48 65  1  0  0  0
 48119  1  0  0  0
 49 50  1  0  0  0
 49 53  1  0  0  0
 49 64  1  0  0  0
 49120  1  0  0  0
 50 51  1  0  0  0
 50121  1  0  0  0
 50122  1  0  0  0
 51 52  1  0  0  0
 51123  1  0  0  0
 51124  1  0  0  0
 52125  1  0  0  0
 52126  1  0  0  0
 53 54  1  0  0  0
 54 55  2  0  0  0
 54127  1  0  0  0
 55 57  1  0  0  0
 55128  1  0  0  0
 56 69  2  0  0  0
 57 58  2  0  0  0
 57129  1  0  0  0
 58130  1  0  0  0
 59 60  1  0  0  0
 59 61  1  0  0  0
 59 62  1  0  0  0
 60131  1  0  0  0
 60132  1  0  0  0
 60133  1  0  0  0
 61134  1  0  0  0
 61135  1  0  0  0
 61136  1  0  0  0
 62137  1  0  0  0
 62138  1  0  0  0
 62139  1  0  0  0
 63 65  1  0  0  0
 63140  1  0  0  0
 63141  1  0  0  0
 63142  1  0  0  0
 64143  1  0  0  0
 65144  1  0  0  0
 68 82  1  0  0  0
 71 72  2  0  0  0
 71 74  1  0  0  0
 71145  1  0  0  0
 72 75  1  0  0  0
 72146  1  0  0  0
 73 75  2  0  0  0
 73 76  1  0  0  0
 73147  1  0  0  0
 74 76  2  0  0  0
 74 77  1  0  0  0
 75 78  1  0  0  0
 76 83  1  0  0  0
 77 84  1  0  0  0
 77 85  2  0  0  0
 78148  1  0  0  0
 78149  1  0  0  0
 78150  1  0  0  0
 79 80  1  0  0  0
 79 81  1  0  0  0
 79151  1  0  0  0
 79152  1  0  0  0
 80 82  1  0  0  0
 80153  1  0  0  0
 80154  1  0  0  0
 81 84  1  0  0  0
 81155  1  0  0  0
 81156  1  0  0  0
 82157  1  0  0  0
 82158  1  0  0  0
 83159  1  0  0  0
 84160  1  0  0  0
M  ISO  4   1 100  68 101  82 101  83 100
M  END
> <chiral flag>
0

> <version>
0

> <s_m_source_file>
/data/baiqing/PycharmProjects/Reinvent-master-3.2/result/LINK_invent/BTK/process_docking_weight1_custom_product_contain_oxygen_bond_distance_aromatic_linkinvent_7_9_3/rearranged_h_0002.sdf

> <i_m_source_file_index>
92

> <r_mmod_Potential_Energy-OPLS-2005>
246.967193603516

> <r_mmod_Stretch_Energy-OPLS-2005>
62.0582733154297

> <r_mmod_Bend_Energy-OPLS-2005>
128.987609863281

> <r_mmod_Torsional_Energy-OPLS-2005>
434.463714599609

> <r_mmod_Improper_Torsional_Energy-OPLS-2005>
17.6126575469971

> <r_mmod_Van_der_Waal_Energy-OPLS-2005>
160.535079956055

> <r_mmod_Electrostatic_Energy-OPLS-2005>
-363.019073486328

> <r_mmod_Solvation_Energy-OPLS-2005>
-226.709838867188

> <b_mmod_Minimization_Converged-OPLS-2005>
0

> <r_mmod_RMS_Derivative-OPLS-2005>
9.44203472137451

$$$$
92
                    3D
 Structure written by MMmdl.
147155  0  0  1  0            999 V2000
  -30.4751  -15.1823   20.3805 C   0  0  0  0  0  0
  -30.4354  -12.7503   19.5208 C   0  0  0  0  0  0
  -29.5293  -12.5597   18.2802 C   0  0  0  0  0  0
  -28.0737  -12.3019   18.7063 C   0  0  0  0  0  0
  -27.6140  -13.2691   19.8262 C   0  0  2  0  0  0
  -28.6501  -13.4142   20.9608 C   0  0  0  0  0  0
  -25.2396  -13.8243   20.5741 C   0  0  0  0  0  0
  -24.1743  -13.0438   20.9256 C   0  0  0  0  0  0
  -24.6391  -11.6934   20.8765 C   0  0  0  0  0  0
  -23.9084  -10.4293   21.0410 C   0  0  0  0  0  0
  -24.3633   -9.4206   21.9185 C   0  0  0  0  0  0
  -23.6307   -8.2242   22.0750 C   0  0  0  0  0  0
  -22.4286   -8.0281   21.3544 C   0  0  0  0  0  0
  -21.9928   -9.0255   20.4643 C   0  0  0  0  0  0
  -22.7259  -10.2134   20.3055 C   0  0  0  0  0  0
  -21.6855   -6.0739   22.5281 C   0  0  0  0  0  0
  -21.4015   -6.5642   23.8214 C   0  0  0  0  0  0
  -21.3659   -5.6794   24.9175 C   0  0  0  0  0  0
  -21.6045   -4.3055   24.7226 C   0  0  0  0  0  0
  -21.8819   -3.8149   23.4346 C   0  0  0  0  0  0
  -21.9196   -4.6968   22.3404 C   0  0  0  0  0  0
  -22.7761  -13.5192   21.1912 C   0  0  0  0  0  0
  -22.1663   -4.2153   21.0981 F   0  0  0  0  0  0
  -21.5631   -3.4538   25.7738 F   0  0  0  0  0  0
  -29.8927  -13.8922   20.3375 N   0  0  0  0  0  0
  -26.2822  -12.9509   20.3229 N   0  0  0  0  0  0
  -25.9325  -11.6618   20.5732 N   0  0  0  0  0  0
  -22.0426  -12.8163   22.0464 N   0  0  0  0  0  0
  -25.4030  -15.1977   20.4173 N   0  0  0  0  0  0
  -31.6935  -15.1828   20.1597 O   0  0  0  0  0  0
  -21.6644   -6.8882   21.4241 O   0  0  0  0  0  0
  -22.3438  -14.5497   20.6759 O   0  0  0  0  0  0
  -24.6588  -31.8286   23.1761 C   0  0  0  0  0  0
  -25.9293  -32.4618   23.8201 C   0  0  1  0  0  0
  -27.2114  -26.9740   20.1745 C   0  0  0  0  0  0
  -25.5981  -33.8429   24.2108 N   0  0  0  0  0  0
  -23.4707  -30.4443   21.5237 C   0  0  2  0  0  0
  -24.9232  -28.8455   20.1093 C   0  0  0  0  0  0
  -22.7642  -29.4472   22.4790 C   0  0  0  0  0  0
  -18.0320  -28.1410   22.8475 C   0  0  0  0  0  0
  -24.1486  -36.7203   23.2645 C   0  0  0  0  0  0
  -26.0381  -30.6502   21.4006 C   0  0  0  0  0  0
  -26.1063  -29.2463   20.7427 C   0  0  0  0  0  0
  -27.2474  -28.3300   20.7549 C   0  0  0  0  0  0
  -26.0015  -26.7223   19.4877 C   0  0  0  0  0  0
  -24.8939  -27.6023   19.4623 C   0  0  0  0  0  0
  -23.7077  -29.7672   20.1472 C   0  0  0  0  0  0
  -25.4125  -36.2979   24.0306 C   0  0  1  0  0  0
  -20.5944  -28.3749   23.1193 C   0  0  2  0  0  0
  -20.6796  -26.9435   22.5401 C   0  0  0  0  0  0
  -19.5767  -26.6385   21.5213 C   0  0  0  0  0  0
  -18.1950  -26.7945   22.1627 C   0  0  0  0  0  0
  -19.1582  -28.8900   23.2826 C   0  0  0  0  0  0
  -18.9495  -30.1489   23.8861 C   0  0  0  0  0  0
  -17.6490  -30.6605   24.0555 C   0  0  0  0  0  0
  -25.9093  -34.9366   23.5024 C   0  0  0  0  0  0
  -16.5377  -29.9094   23.6348 C   0  0  0  0  0  0
  -16.7304  -28.6512   23.0375 C   0  0  0  0  0  0
  -26.4558  -31.6552   25.0712 C   0  0  0  0  0  0
  -25.3702  -31.3799   26.1381 C   0  0  0  0  0  0
  -27.0443  -30.2921   24.6420 C   0  0  0  0  0  0
  -27.6054  -32.4355   25.7514 C   0  0  0  0  0  0
  -27.5563  -37.1755   24.8468 C   0  0  0  0  0  0
  -21.4319  -29.3048   22.3543 N   0  0  0  0  0  0
  -26.4267  -37.3717   23.9420 N   0  0  0  0  0  0
  -24.7433  -30.9997   22.0872 N   0  0  0  0  0  0
  -23.4214  -28.8031   23.3007 O   0  0  0  0  0  0
  -28.1962  -25.8671   20.2637 O   0  0  0  0  0  0
  -26.5687  -34.8895   22.4609 O   0  0  0  0  0  0
  -23.5671  -32.1232   23.6885 O   0  0  0  0  0  0
  -28.2774  -20.1783   20.9076 C   0  0  0  0  0  0
  -30.1456  -20.7584   19.6963 C   0  0  0  0  0  0
  -27.8545  -21.6057   20.8710 C   0  0  0  0  0  0
  -29.7223  -22.1796   19.6571 C   0  0  0  0  0  0
  -29.4725  -19.6132   20.3050 C   0  0  0  0  0  0
  -28.5298  -22.7500   20.2537 C   0  0  0  0  0  0
  -30.1825  -18.0265   20.3361 C   0  0  0  0  0  0
  -27.8040  -24.3101   20.0193 C   0  0  0  0  0  0
  -29.7353  -16.4509   20.4631 N   0  0  0  0  0  0
  -31.4594  -12.9371   19.1947 H   0  0  0  0  0  0
  -30.4796  -11.8355   20.1142 H   0  0  0  0  0  0
  -29.8932  -11.7354   17.6652 H   0  0  0  0  0  0
  -29.5747  -13.4531   17.6556 H   0  0  0  0  0  0
  -28.0144  -11.2735   19.0644 H   0  0  0  0  0  0
  -27.4061  -12.3652   17.8463 H   0  0  0  0  0  0
  -27.5393  -14.2436   19.3423 H   0  0  0  0  0  0
  -28.7973  -12.4727   21.4919 H   0  0  0  0  0  0
  -28.3051  -14.1392   21.6999 H   0  0  0  0  0  0
  -25.2775   -9.5686   22.4766 H   0  0  0  0  0  0
  -24.0018   -7.4629   22.7465 H   0  0  0  0  0  0
  -21.0861   -8.8777   19.8943 H   0  0  0  0  0  0
  -22.3716  -10.9677   19.6168 H   0  0  0  0  0  0
  -21.2001   -7.6149   23.9719 H   0  0  0  0  0  0
  -21.1482   -6.0522   25.9080 H   0  0  0  0  0  0
  -22.0598   -2.7611   23.2844 H   0  0  0  0  0  0
  -22.4066  -11.9826   22.4836 H   0  0  0  0  0  0
  -21.1039  -13.1162   22.2684 H   0  0  0  0  0  0
  -24.6307  -15.8462   20.5268 H   0  0  0  0  0  0
  -26.2426  -15.6401   20.0678 H   0  0  0  0  0  0
  -26.7360  -32.5170   23.0915 H   0  0  0  0  0  0
  -25.0108  -33.9519   25.0247 H   0  0  0  0  0  0
  -22.7817  -31.2753   21.3586 H   0  0  0  0  0  0
  -23.3765  -35.9516   23.3288 H   0  0  0  0  0  0
  -24.3561  -36.8862   22.2063 H   0  0  0  0  0  0
  -23.7225  -37.6381   23.6704 H   0  0  0  0  0  0
  -26.2147  -31.3959   20.6243 H   0  0  0  0  0  0
  -26.8998  -30.7033   22.0539 H   0  0  0  0  0  0
  -28.1398  -28.6311   21.2848 H   0  0  0  0  0  0
  -25.8646  -25.7763   18.9864 H   0  0  0  0  0  0
  -23.9957  -27.2900   18.9472 H   0  0  0  0  0  0
  -23.8604  -30.5388   19.3918 H   0  0  0  0  0  0
  -22.8182  -29.2207   19.8291 H   0  0  0  0  0  0
  -25.1322  -36.1770   25.0795 H   0  0  0  0  0  0
  -21.0038  -28.3354   24.1314 H   0  0  0  0  0  0
  -20.5671  -26.2370   23.3639 H   0  0  0  0  0  0
  -21.6659  -26.7417   22.1202 H   0  0  0  0  0  0
  -19.6920  -25.6286   21.1269 H   0  0  0  0  0  0
  -19.6698  -27.3172   20.6723 H   0  0  0  0  0  0
  -17.4213  -26.6691   21.4036 H   0  0  0  0  0  0
  -18.0346  -26.0100   22.9037 H   0  0  0  0  0  0
  -19.7970  -30.7314   24.2214 H   0  0  0  0  0  0
  -17.5045  -31.6283   24.5161 H   0  0  0  0  0  0
  -15.5376  -30.2985   23.7697 H   0  0  0  0  0  0
  -15.8703  -28.0812   22.7124 H   0  0  0  0  0  0
  -24.5887  -30.7140   25.7706 H   0  0  0  0  0  0
  -24.8887  -32.3001   26.4697 H   0  0  0  0  0  0
  -25.7949  -30.9045   27.0232 H   0  0  0  0  0  0
  -26.3101  -29.6613   24.1393 H   0  0  0  0  0  0
  -27.3950  -29.7270   25.5066 H   0  0  0  0  0  0
  -27.9059  -30.4114   23.9849 H   0  0  0  0  0  0
  -27.2623  -33.3701   26.1969 H   0  0  0  0  0  0
  -28.3933  -32.6842   25.0392 H   0  0  0  0  0  0
  -28.0644  -31.8559   26.5535 H   0  0  0  0  0  0
  -28.2564  -38.0066   24.7527 H   0  0  0  0  0  0
  -28.1075  -36.2596   24.6281 H   0  0  0  0  0  0
  -27.2284  -37.1386   25.8872 H   0  0  0  0  0  0
  -20.9555  -29.8749   21.6692 H   0  0  0  0  0  0
  -26.0113  -38.2769   24.1454 H   0  0  0  0  0  0
  -27.6291  -19.4927   21.4361 H   0  0  0  0  0  0
  -31.0814  -20.5404   19.1999 H   0  0  0  0  0  0
  -26.9033  -21.8209   21.3381 H   0  0  0  0  0  0
  -30.3513  -22.8578   19.0974 H   0  0  0  0  0  0
  -30.9305  -18.1209   21.1241 H   0  0  0  0  0  0
  -30.7794  -18.0194   19.4234 H   0  0  0  0  0  0
  -26.8452  -24.2068   20.5276 H   0  0  0  0  0  0
  -27.5507  -24.2802   18.9596 H   0  0  0  0  0  0
  -28.7435  -16.3219   20.5965 H   0  0  0  0  0  0
  1 25  1  0  0  0
  1 30  2  0  0  0
  1 79  1  0  0  0
  2  3  1  0  0  0
  2 25  1  0  0  0
  2 80  1  0  0  0
  2 81  1  0  0  0
  3  4  1  0  0  0
  3 82  1  0  0  0
  3 83  1  0  0  0
  4  5  1  0  0  0
  4 84  1  0  0  0
  4 85  1  0  0  0
  5  6  1  0  0  0
  5 26  1  0  0  0
  5 86  1  0  0  0
  6 25  1  0  0  0
  6 87  1  0  0  0
  6 88  1  0  0  0
  7  8  2  0  0  0
  7 26  1  0  0  0
  7 29  1  0  0  0
  8  9  1  0  0  0
  8 22  1  0  0  0
  9 10  1  0  0  0
  9 27  2  0  0  0
 10 11  2  0  0  0
 10 15  1  0  0  0
 11 12  1  0  0  0
 11 89  1  0  0  0
 12 13  2  0  0  0
 12 90  1  0  0  0
 13 14  1  0  0  0
 13 31  1  0  0  0
 14 15  2  0  0  0
 14 91  1  0  0  0
 15 92  1  0  0  0
 16 17  2  0  0  0
 16 21  1  0  0  0
 16 31  1  0  0  0
 17 18  1  0  0  0
 17 93  1  0  0  0
 18 19  2  0  0  0
 18 94  1  0  0  0
 19 20  1  0  0  0
 19 24  1  0  0  0
 20 21  2  0  0  0
 20 95  1  0  0  0
 21 23  1  0  0  0
 22 28  1  0  0  0
 22 32  2  0  0  0
 26 27  1  0  0  0
 28 96  1  0  0  0
 28 97  1  0  0  0
 29 98  1  0  0  0
 29 99  1  0  0  0
 33 34  1  0  0  0
 33 66  1  0  0  0
 33 70  2  0  0  0
 34 36  1  0  0  0
 34 59  1  0  0  0
 34100  1  0  0  0
 35 44  2  0  0  0
 35 45  1  0  0  0
 35 68  1  0  0  0
 36 56  1  0  0  0
 36101  1  0  0  0
 37 39  1  0  0  0
 37 47  1  0  0  0
 37 66  1  0  0  0
 37102  1  0  0  0
 38 43  2  0  0  0
 38 46  1  0  0  0
 38 47  1  0  0  0
 39 64  1  0  0  0
 39 67  2  0  0  0
 40 52  1  0  0  0
 40 53  2  0  0  0
 40 58  1  0  0  0
 41103  1  0  0  0
 41104  1  0  0  0
 41105  1  0  0  0
 41 48  1  0  0  0
 42 43  1  0  0  0
 42 66  1  0  0  0
 42106  1  0  0  0
 42107  1  0  0  0
 43 44  1  0  0  0
 44108  1  0  0  0
 45 46  2  0  0  0
 45109  1  0  0  0
 46110  1  0  0  0
 47111  1  0  0  0
 47112  1  0  0  0
 48 56  1  0  0  0
 48 65  1  0  0  0
 48113  1  0  0  0
 49 50  1  0  0  0
 49 53  1  0  0  0
 49 64  1  0  0  0
 49114  1  0  0  0
 50 51  1  0  0  0
 50115  1  0  0  0
 50116  1  0  0  0
 51 52  1  0  0  0
 51117  1  0  0  0
 51118  1  0  0  0
 52119  1  0  0  0
 52120  1  0  0  0
 53 54  1  0  0  0
 54 55  2  0  0  0
 54121  1  0  0  0
 55 57  1  0  0  0
 55122  1  0  0  0
 56 69  2  0  0  0
 57 58  2  0  0  0
 57123  1  0  0  0
 58124  1  0  0  0
 59 60  1  0  0  0
 59 61  1  0  0  0
 59 62  1  0  0  0
 60125  1  0  0  0
 60126  1  0  0  0
 60127  1  0  0  0
 61128  1  0  0  0
 61129  1  0  0  0
 61130  1  0  0  0
 62131  1  0  0  0
 62132  1  0  0  0
 62133  1  0  0  0
 63 65  1  0  0  0
 63134  1  0  0  0
 63135  1  0  0  0
 63136  1  0  0  0
 64137  1  0  0  0
 65138  1  0  0  0
 68 78  1  0  0  0
 71 73  2  0  0  0
 71 75  1  0  0  0
 71139  1  0  0  0
 72 74  1  0  0  0
 72 75  2  0  0  0
 72140  1  0  0  0
 73 76  1  0  0  0
 73141  1  0  0  0
 74 76  2  0  0  0
 74142  1  0  0  0
 75 77  1  0  0  0
 76 78  1  0  0  0
 77 79  1  0  0  0
 77143  1  0  0  0
 77144  1  0  0  0
 78145  1  0  0  0
 78146  1  0  0  0
 79147  1  0  0  0
M  ISO  4   1 100  68 101  78 101  79 100
M  END
> <chiral flag>
0

> <version>
0

> <s_m_source_file>
/data/baiqing/PycharmProjects/Reinvent-master-3.2/result/LINK_invent/BTK/process_docking_weight1_custom_product_contain_oxygen_bond_distance_aromatic_linkinvent_7_9_3/rearranged_h_0002.sdf

> <i_m_source_file_index>
93

> <r_mmod_Potential_Energy-OPLS-2005>
1015.4599609375

> <r_mmod_Stretch_Energy-OPLS-2005>
443.456787109375

> <r_mmod_Bend_Energy-OPLS-2005>
422.297058105469

> <r_mmod_Torsional_Energy-OPLS-2005>
215.021911621094

> <r_mmod_Improper_Torsional_Energy-OPLS-2005>
7.18429374694824

> <r_mmod_Van_der_Waal_Energy-OPLS-2005>
133.087112426758

> <r_mmod_Electrostatic_Energy-OPLS-2005>
-379.332244873047

> <r_mmod_Solvation_Energy-OPLS-2005>
-213.699493408203

> <b_mmod_Minimization_Converged-OPLS-2005>
0

> <r_mmod_RMS_Derivative-OPLS-2005>
0.623550474643707

$$$$
93
                    3D
 Structure written by MMmdl.
150158  0  0  1  0            999 V2000
  -30.5460  -14.9701   20.4037 C   0  0  0  0  0  0
  -30.4372  -12.6016   19.4965 C   0  0  0  0  0  0
  -29.5211  -12.5322   18.2533 C   0  0  0  0  0  0
  -28.0548  -12.3149   18.6704 C   0  0  0  0  0  0
  -27.6263  -13.2510   19.8308 C   0  0  2  0  0  0
  -28.6702  -13.2974   20.9665 C   0  0  0  0  0  0
  -25.2449  -13.8218   20.5712 C   0  0  0  0  0  0
  -24.1776  -13.0438   20.9236 C   0  0  0  0  0  0
  -24.6385  -11.6923   20.8742 C   0  0  0  0  0  0
  -23.9068  -10.4290   21.0394 C   0  0  0  0  0  0
  -24.3624   -9.4213   21.9174 C   0  0  0  0  0  0
  -23.6303   -8.2243   22.0746 C   0  0  0  0  0  0
  -22.4281   -8.0277   21.3543 C   0  0  0  0  0  0
  -21.9914   -9.0243   20.4642 C   0  0  0  0  0  0
  -22.7231  -10.2127   20.3047 C   0  0  0  0  0  0
  -21.6858   -6.0738   22.5280 C   0  0  0  0  0  0
  -21.4014   -6.5641   23.8211 C   0  0  0  0  0  0
  -21.3662   -5.6789   24.9177 C   0  0  0  0  0  0
  -21.6051   -4.3053   24.7229 C   0  0  0  0  0  0
  -21.8818   -3.8147   23.4342 C   0  0  0  0  0  0
  -21.9195   -4.6963   22.3403 C   0  0  0  0  0  0
  -22.7791  -13.5213   21.1884 C   0  0  0  0  0  0
  -22.1668   -4.2151   21.0978 F   0  0  0  0  0  0
  -21.5630   -3.4532   25.7736 F   0  0  0  0  0  0
  -29.9436  -13.7112   20.3618 N   0  0  0  0  0  0
  -26.2870  -12.9454   20.3217 N   0  0  0  0  0  0
  -25.9319  -11.6581   20.5719 N   0  0  0  0  0  0
  -22.0439  -12.8203   22.0435 N   0  0  0  0  0  0
  -25.4098  -15.1953   20.4132 N   0  0  0  0  0  0
  -31.7560  -15.0185   20.1592 O   0  0  0  0  0  0
  -21.6646   -6.8876   21.4241 O   0  0  0  0  0  0
  -22.3475  -14.5513   20.6715 O   0  0  0  0  0  0
  -24.6466  -31.8423   23.1865 C   0  0  0  0  0  0
  -25.9220  -32.4688   23.8267 C   0  0  1  0  0  0
  -27.2221  -27.1172   20.1416 C   0  0  0  0  0  0
  -25.5959  -33.8495   24.2187 N   0  0  0  0  0  0
  -23.4525  -30.4617   21.5328 C   0  0  2  0  0  0
  -24.9041  -28.8883   20.1085 C   0  0  0  0  0  0
  -22.7594  -29.4536   22.4847 C   0  0  0  0  0  0
  -18.0312  -28.1406   22.8482 C   0  0  0  0  0  0
  -24.1493  -36.7255   23.2644 C   0  0  0  0  0  0
  -26.0115  -30.7094   21.3899 C   0  0  0  0  0  0
  -26.0833  -29.3192   20.7293 C   0  0  0  0  0  0
  -27.2428  -28.4500   20.7299 C   0  0  0  0  0  0
  -26.0144  -26.7985   19.4798 C   0  0  0  0  0  0
  -24.8840  -27.6417   19.4684 C   0  0  0  0  0  0
  -23.6811  -29.7917   20.1524 C   0  0  0  0  0  0
  -25.4127  -36.3033   24.0316 C   0  0  1  0  0  0
  -20.5927  -28.3734   23.1237 C   0  0  2  0  0  0
  -20.6801  -26.9430   22.5413 C   0  0  0  0  0  0
  -19.5764  -26.6382   21.5232 C   0  0  0  0  0  0
  -18.1944  -26.7945   22.1636 C   0  0  0  0  0  0
  -19.1568  -28.8888   23.2854 C   0  0  0  0  0  0
  -18.9477  -30.1484   23.8879 C   0  0  0  0  0  0
  -17.6470  -30.6598   24.0564 C   0  0  0  0  0  0
  -25.9067  -34.9405   23.5058 C   0  0  0  0  0  0
  -16.5365  -29.9091   23.6336 C   0  0  0  0  0  0
  -16.7297  -28.6515   23.0353 C   0  0  0  0  0  0
  -26.4527  -31.6568   25.0720 C   0  0  0  0  0  0
  -25.3697  -31.3767   26.1402 C   0  0  0  0  0  0
  -27.0401  -30.2966   24.6324 C   0  0  0  0  0  0
  -27.6053  -32.4342   25.7510 C   0  0  0  0  0  0
  -27.5571  -37.1798   24.8471 C   0  0  0  0  0  0
  -21.4279  -29.3054   22.3603 N   0  0  0  0  0  0
  -26.4298  -37.3741   23.9388 N   0  0  0  0  0  0
  -24.7234  -31.0254   22.0913 N   0  0  0  0  0  0
  -23.4225  -28.8074   23.2999 O   0  0  0  0  0  0
  -28.2595  -26.1048   20.2090 O   0  0  0  0  0  0
  -26.5646  -34.8908   22.4633 O   0  0  0  0  0  0
  -23.5576  -32.1303   23.7066 O   0  0  0  0  0  0
  -31.1897  -22.4020   20.6375 C   0  0  0  0  0  0
  -30.7966  -21.0396   20.5690 C   0  0  0  0  0  0
  -30.2862  -23.4836   20.4762 C   0  0  0  0  0  0
  -28.5473  -21.8249   20.1676 C   0  0  0  0  0  0
  -29.4590  -20.6538   20.3362 C   0  0  0  0  0  0
  -28.9148  -23.2730   20.2313 C   0  0  0  0  0  0
  -29.0914  -19.0299   20.2918 C   0  0  0  0  0  0
  -27.9281  -24.5861   19.9987 C   0  0  0  0  0  0
  -30.1642  -17.7178   20.4560 C   0  0  0  0  0  0
  -29.7803  -16.1711   20.5071 N   0  0  0  0  0  0
  -31.4711  -12.7565   19.1857 H   0  0  0  0  0  0
  -30.4287  -11.6547   20.0390 H   0  0  0  0  0  0
  -29.8456  -11.7321   17.5864 H   0  0  0  0  0  0
  -29.6055  -13.4604   17.6856 H   0  0  0  0  0  0
  -27.9541  -11.2741   18.9794 H   0  0  0  0  0  0
  -27.3913  -12.4444   17.8137 H   0  0  0  0  0  0
  -27.5826  -14.2492   19.3945 H   0  0  0  0  0  0
  -28.7619  -12.3275   21.4575 H   0  0  0  0  0  0
  -28.3663  -14.0088   21.7355 H   0  0  0  0  0  0
  -25.2764   -9.5709   22.4751 H   0  0  0  0  0  0
  -24.0024   -7.4643   22.7458 H   0  0  0  0  0  0
  -21.0851   -8.8749   19.8947 H   0  0  0  0  0  0
  -22.3674  -10.9664   19.6162 H   0  0  0  0  0  0
  -21.2000   -7.6146   23.9717 H   0  0  0  0  0  0
  -21.1491   -6.0522   25.9082 H   0  0  0  0  0  0
  -22.0593   -2.7608   23.2841 H   0  0  0  0  0  0
  -22.4083  -11.9902   22.4868 H   0  0  0  0  0  0
  -21.1043  -13.1200   22.2602 H   0  0  0  0  0  0
  -24.6323  -15.8393   20.5156 H   0  0  0  0  0  0
  -26.2451  -15.6379   20.0520 H   0  0  0  0  0  0
  -26.7293  -32.5302   23.1004 H   0  0  0  0  0  0
  -25.0109  -33.9606   25.0338 H   0  0  0  0  0  0
  -22.7567  -31.2886   21.3763 H   0  0  0  0  0  0
  -23.3747  -35.9597   23.3334 H   0  0  0  0  0  0
  -24.3567  -36.8854   22.2050 H   0  0  0  0  0  0
  -23.7267  -37.6472   23.6661 H   0  0  0  0  0  0
  -26.1681  -31.4636   20.6173 H   0  0  0  0  0  0
  -26.8814  -30.7611   22.0330 H   0  0  0  0  0  0
  -28.1394  -28.7734   21.2402 H   0  0  0  0  0  0
  -25.9039  -25.8498   18.9788 H   0  0  0  0  0  0
  -23.9859  -27.3072   18.9674 H   0  0  0  0  0  0
  -23.8187  -30.5661   19.3971 H   0  0  0  0  0  0
  -22.7968  -29.2334   19.8409 H   0  0  0  0  0  0
  -25.1322  -36.1866   25.0812 H   0  0  0  0  0  0
  -21.0027  -28.3327   24.1356 H   0  0  0  0  0  0
  -20.5716  -26.2339   23.3634 H   0  0  0  0  0  0
  -21.6660  -26.7443   22.1186 H   0  0  0  0  0  0
  -19.6914  -25.6286   21.1275 H   0  0  0  0  0  0
  -19.6698  -27.3189   20.6759 H   0  0  0  0  0  0
  -17.4215  -26.6704   21.4039 H   0  0  0  0  0  0
  -18.0324  -26.0102   22.9043 H   0  0  0  0  0  0
  -19.7948  -30.7317   24.2239 H   0  0  0  0  0  0
  -17.5015  -31.6273   24.5172 H   0  0  0  0  0  0
  -15.5361  -30.2979   23.7672 H   0  0  0  0  0  0
  -15.8702  -28.0831   22.7065 H   0  0  0  0  0  0
  -24.5884  -30.7113   25.7714 H   0  0  0  0  0  0
  -24.8875  -32.2950   26.4762 H   0  0  0  0  0  0
  -25.7957  -30.8977   27.0224 H   0  0  0  0  0  0
  -26.3034  -29.6680   24.1312 H   0  0  0  0  0  0
  -27.3986  -29.7278   25.4911 H   0  0  0  0  0  0
  -27.8948  -30.4199   23.9671 H   0  0  0  0  0  0
  -27.2641  -33.3659   26.2036 H   0  0  0  0  0  0
  -28.3889  -32.6875   25.0358 H   0  0  0  0  0  0
  -28.0694  -31.8502   26.5467 H   0  0  0  0  0  0
  -28.2611  -38.0069   24.7463 H   0  0  0  0  0  0
  -28.1041  -36.2595   24.6373 H   0  0  0  0  0  0
  -27.2273  -37.1538   25.8872 H   0  0  0  0  0  0
  -20.9491  -29.8773   21.6784 H   0  0  0  0  0  0
  -26.0163  -38.2817   24.1360 H   0  0  0  0  0  0
  -32.2319  -22.6285   20.8177 H   0  0  0  0  0  0
  -31.5520  -20.2777   20.7021 H   0  0  0  0  0  0
  -30.6617  -24.4961   20.5334 H   0  0  0  0  0  0
  -27.5079  -21.6015   19.9724 H   0  0  0  0  0  0
  -28.5610  -18.8836   19.3492 H   0  0  0  0  0  0
  -28.3250  -18.9001   21.0557 H   0  0  0  0  0  0
  -27.0298  -24.3767   20.5804 H   0  0  0  0  0  0
  -27.6269  -24.4961   18.9545 H   0  0  0  0  0  0
  -30.7189  -17.8922   21.3784 H   0  0  0  0  0  0
  -30.9096  -17.8126   19.6655 H   0  0  0  0  0  0
  -28.7958  -15.9982   20.6416 H   0  0  0  0  0  0
  1 25  1  0  0  0
  1 30  2  0  0  0
  1 80  1  0  0  0
  2  3  1  0  0  0
  2 25  1  0  0  0
  2 81  1  0  0  0
  2 82  1  0  0  0
  3  4  1  0  0  0
  3 83  1  0  0  0
  3 84  1  0  0  0
  4  5  1  0  0  0
  4 85  1  0  0  0
  4 86  1  0  0  0
  5  6  1  0  0  0
  5 26  1  0  0  0
  5 87  1  0  0  0
  6 25  1  0  0  0
  6 88  1  0  0  0
  6 89  1  0  0  0
  7  8  2  0  0  0
  7 26  1  0  0  0
  7 29  1  0  0  0
  8  9  1  0  0  0
  8 22  1  0  0  0
  9 10  1  0  0  0
  9 27  2  0  0  0
 10 11  2  0  0  0
 10 15  1  0  0  0
 11 12  1  0  0  0
 11 90  1  0  0  0
 12 13  2  0  0  0
 12 91  1  0  0  0
 13 14  1  0  0  0
 13 31  1  0  0  0
 14 15  2  0  0  0
 14 92  1  0  0  0
 15 93  1  0  0  0
 16 17  2  0  0  0
 16 21  1  0  0  0
 16 31  1  0  0  0
 17 18  1  0  0  0
 17 94  1  0  0  0
 18 19  2  0  0  0
 18 95  1  0  0  0
 19 20  1  0  0  0
 19 24  1  0  0  0
 20 21  2  0  0  0
 20 96  1  0  0  0
 21 23  1  0  0  0
 22 28  1  0  0  0
 22 32  2  0  0  0
 26 27  1  0  0  0
 28 97  1  0  0  0
 28 98  1  0  0  0
 29 99  1  0  0  0
 29100  1  0  0  0
 33 34  1  0  0  0
 33 66  1  0  0  0
 33 70  2  0  0  0
 34 36  1  0  0  0
 34 59  1  0  0  0
 34101  1  0  0  0
 35 44  2  0  0  0
 35 45  1  0  0  0
 35 68  1  0  0  0
 36 56  1  0  0  0
 36102  1  0  0  0
 37 39  1  0  0  0
 37 47  1  0  0  0
 37 66  1  0  0  0
 37103  1  0  0  0
 38 43  2  0  0  0
 38 46  1  0  0  0
 38 47  1  0  0  0
 39 64  1  0  0  0
 39 67  2  0  0  0
 40 52  1  0  0  0
 40 53  2  0  0  0
 40 58  1  0  0  0
 41104  1  0  0  0
 41105  1  0  0  0
 41106  1  0  0  0
 41 48  1  0  0  0
 42 43  1  0  0  0
 42 66  1  0  0  0
 42107  1  0  0  0
 42108  1  0  0  0
 43 44  1  0  0  0
 44109  1  0  0  0
 45 46  2  0  0  0
 45110  1  0  0  0
 46111  1  0  0  0
 47112  1  0  0  0
 47113  1  0  0  0
 48 56  1  0  0  0
 48 65  1  0  0  0
 48114  1  0  0  0
 49 50  1  0  0  0
 49 53  1  0  0  0
 49 64  1  0  0  0
 49115  1  0  0  0
 50 51  1  0  0  0
 50116  1  0  0  0
 50117  1  0  0  0
 51 52  1  0  0  0
 51118  1  0  0  0
 51119  1  0  0  0
 52120  1  0  0  0
 52121  1  0  0  0
 53 54  1  0  0  0
 54 55  2  0  0  0
 54122  1  0  0  0
 55 57  1  0  0  0
 55123  1  0  0  0
 56 69  2  0  0  0
 57 58  2  0  0  0
 57124  1  0  0  0
 58125  1  0  0  0
 59 60  1  0  0  0
 59 61  1  0  0  0
 59 62  1  0  0  0
 60126  1  0  0  0
 60127  1  0  0  0
 60128  1  0  0  0
 61129  1  0  0  0
 61130  1  0  0  0
 61131  1  0  0  0
 62132  1  0  0  0
 62133  1  0  0  0
 62134  1  0  0  0
 63 65  1  0  0  0
 63135  1  0  0  0
 63136  1  0  0  0
 63137  1  0  0  0
 64138  1  0  0  0
 65139  1  0  0  0
 68 78  1  0  0  0
 71 72  2  0  0  0
 71 73  1  0  0  0
 71140  1  0  0  0
 72 75  1  0  0  0
 72141  1  0  0  0
 73 76  2  0  0  0
 73142  1  0  0  0
 74 75  2  0  0  0
 74 76  1  0  0  0
 74143  1  0  0  0
 75 77  1  0  0  0
 76 78  1  0  0  0
 77 79  1  0  0  0
 77144  1  0  0  0
 77145  1  0  0  0
 78146  1  0  0  0
 78147  1  0  0  0
 79 80  1  0  0  0
 79148  1  0  0  0
 79149  1  0  0  0
 80150  1  0  0  0
M  ISO  4   1 100  68 101  78 101  80 100
M  END
> <chiral flag>
0

> <version>
0

> <s_m_source_file>
/data/baiqing/PycharmProjects/Reinvent-master-3.2/result/LINK_invent/BTK/process_docking_weight1_custom_product_contain_oxygen_bond_distance_aromatic_linkinvent_7_9_3/rearranged_h_0002.sdf

> <i_m_source_file_index>
94

> <r_mmod_Potential_Energy-OPLS-2005>
507.22900390625

> <r_mmod_Stretch_Energy-OPLS-2005>
280.159545898438

> <r_mmod_Bend_Energy-OPLS-2005>
243.34814453125

> <r_mmod_Torsional_Energy-OPLS-2005>
207.110687255859

> <r_mmod_Improper_Torsional_Energy-OPLS-2005>
4.54697227478027

> <r_mmod_Van_der_Waal_Energy-OPLS-2005>
128.955444335938

> <r_mmod_Electrostatic_Energy-OPLS-2005>
-353.888549804688

> <r_mmod_Solvation_Energy-OPLS-2005>
-214.245193481445

> <b_mmod_Minimization_Converged-OPLS-2005>
0

> <r_mmod_RMS_Derivative-OPLS-2005>
1.37686288356781

$$$$
94
                    3D
 Structure written by MMmdl.
167176  0  0  1  0            999 V2000
  -30.6835  -14.5688   20.5048 C   0  0  0  0  0  0
  -30.4235  -12.3427   19.4697 C   0  0  0  0  0  0
  -29.5121  -12.5034   18.2353 C   0  0  0  0  0  0
  -28.0318  -12.3554   18.6351 C   0  0  0  0  0  0
  -27.6588  -13.2197   19.8708 C   0  0  2  0  0  0
  -28.7024  -13.0725   21.0024 C   0  0  0  0  0  0
  -25.2597  -13.8188   20.5703 C   0  0  0  0  0  0
  -24.1854  -13.0445   20.9186 C   0  0  0  0  0  0
  -24.6425  -11.6911   20.8731 C   0  0  0  0  0  0
  -23.9084  -10.4285   21.0371 C   0  0  0  0  0  0
  -24.3636   -9.4224   21.9162 C   0  0  0  0  0  0
  -23.6316   -8.2264   22.0749 C   0  0  0  0  0  0
  -22.4295   -8.0291   21.3545 C   0  0  0  0  0  0
  -21.9926   -9.0258   20.4648 C   0  0  0  0  0  0
  -22.7251  -10.2129   20.3047 C   0  0  0  0  0  0
  -21.6879   -6.0733   22.5270 C   0  0  0  0  0  0
  -21.4019   -6.5632   23.8201 C   0  0  0  0  0  0
  -21.3673   -5.6787   24.9168 C   0  0  0  0  0  0
  -21.6055   -4.3052   24.7223 C   0  0  0  0  0  0
  -21.8821   -3.8144   23.4349 C   0  0  0  0  0  0
  -21.9200   -4.6953   22.3403 C   0  0  0  0  0  0
  -22.7866  -13.5222   21.1828 C   0  0  0  0  0  0
  -22.1671   -4.2141   21.0978 F   0  0  0  0  0  0
  -21.5621   -3.4532   25.7743 F   0  0  0  0  0  0
  -30.0288  -13.3722   20.4486 N   0  0  0  0  0  0
  -26.3038  -12.9370   20.3365 N   0  0  0  0  0  0
  -25.9363  -11.6509   20.5760 N   0  0  0  0  0  0
  -22.0527  -12.8208   22.0393 N   0  0  0  0  0  0
  -25.4315  -15.1922   20.4126 N   0  0  0  0  0  0
  -31.8382  -14.7019   20.0944 O   0  0  0  0  0  0
  -21.6666   -6.8888   21.4244 O   0  0  0  0  0  0
  -22.3537  -14.5517   20.6660 O   0  0  0  0  0  0
  -24.6234  -31.8629   23.2083 C   0  0  0  0  0  0
  -25.9109  -32.4801   23.8403 C   0  0  1  0  0  0
  -27.2249  -27.3784   20.0639 C   0  0  0  0  0  0
  -25.5949  -33.8598   24.2314 N   0  0  0  0  0  0
  -23.4090  -30.4934   21.5524 C   0  0  2  0  0  0
  -24.8448  -28.9494   20.1178 C   0  0  0  0  0  0
  -22.7428  -29.4665   22.4981 C   0  0  0  0  0  0
  -18.0291  -28.1331   22.8506 C   0  0  0  0  0  0
  -24.1481  -36.7296   23.2632 C   0  0  0  0  0  0
  -25.9457  -30.8045   21.3726 C   0  0  0  0  0  0
  -26.0135  -29.4387   20.7087 C   0  0  0  0  0  0
  -27.2057  -28.6662   20.6702 C   0  0  0  0  0  0
  -26.0146  -26.9130   19.4948 C   0  0  0  0  0  0
  -24.8419  -27.6884   19.5069 C   0  0  0  0  0  0
  -23.6133  -29.8317   20.1660 C   0  0  0  0  0  0
  -25.4121  -36.3113   24.0339 C   0  0  1  0  0  0
  -20.5865  -28.3661   23.1255 C   0  0  2  0  0  0
  -20.6777  -26.9403   22.5371 C   0  0  0  0  0  0
  -19.5746  -26.6371   21.5175 C   0  0  0  0  0  0
  -18.1929  -26.7882   22.1614 C   0  0  0  0  0  0
  -19.1539  -28.8824   23.2871 C   0  0  0  0  0  0
  -18.9465  -30.1429   23.8891 C   0  0  0  0  0  0
  -17.6460  -30.6552   24.0567 C   0  0  0  0  0  0
  -25.9063  -34.9471   23.5130 C   0  0  0  0  0  0
  -16.5352  -29.9059   23.6319 C   0  0  0  0  0  0
  -16.7279  -28.6455   23.0380 C   0  0  0  0  0  0
  -26.4536  -31.6594   25.0753 C   0  0  0  0  0  0
  -25.3809  -31.3640   26.1503 C   0  0  0  0  0  0
  -27.0393  -30.3040   24.6180 C   0  0  0  0  0  0
  -27.6138  -32.4311   25.7476 C   0  0  0  0  0  0
  -27.5591  -37.1809   24.8471 C   0  0  0  0  0  0
  -21.4147  -29.3040   22.3697 N   0  0  0  0  0  0
  -26.4303  -37.3807   23.9427 N   0  0  0  0  0  0
  -24.6789  -31.0672   22.1022 N   0  0  0  0  0  0
  -23.4147  -28.8198   23.3062 O   0  0  0  0  0  0
  -28.4110  -26.6458   19.9972 O   0  0  0  0  0  0
  -26.5601  -34.8913   22.4682 O   0  0  0  0  0  0
  -23.5423  -32.1408   23.7455 O   0  0  0  0  0  0
  -31.1781  -19.5634   22.7492 C   0  0  0  0  0  0
  -30.6209  -20.7625   22.2554 C   0  0  0  0  0  0
  -30.9776  -18.3380   22.0776 C   0  0  0  0  0  0
  -29.6518  -19.5119   20.4084 C   0  0  0  0  0  0
  -29.8446  -20.7563   21.0762 C   0  0  0  0  0  0
  -30.2083  -18.2894   20.8955 C   0  0  0  0  0  0
  -28.0692  -24.5831   16.1615 C   0  0  0  0  0  0
  -28.0125  -24.5494   18.5747 C   0  0  0  0  0  0
  -29.7942  -24.5892   20.3881 C   0  0  0  0  0  0
  -28.9199  -25.1276   15.0339 C   0  0  0  0  0  0
  -29.8019  -26.1698   15.7149 C   0  0  0  0  0  0
  -29.5738  -25.9848   17.2240 C   0  0  0  0  0  0
  -29.1987  -22.0648   20.5526 C   0  0  0  0  0  0
  -30.0589  -16.9779   20.0818 C   0  0  0  0  0  0
  -28.4049  -25.1763   19.9546 C   0  0  1  0  0  0
  -28.4870  -25.0110   17.3781 N   0  0  0  0  0  0
  -30.0337  -23.2796   20.6741 N   0  0  0  0  0  0
  -29.9259  -15.6640   20.7753 N   0  0  0  0  0  0
  -27.1162  -23.8383   15.9058 O   0  0  0  0  0  0
  -27.2003  -23.6173   18.6439 O   0  0  0  0  0  0
  -30.7343  -25.3765   20.5434 O   0  0  0  0  0  0
  -31.4727  -12.4249   19.1794 H   0  0  0  0  0  0
  -30.3164  -11.3456   19.9040 H   0  0  0  0  0  0
  -29.7669  -11.7642   17.4774 H   0  0  0  0  0  0
  -29.6831  -13.4809   17.7789 H   0  0  0  0  0  0
  -27.8438  -11.3005   18.8440 H   0  0  0  0  0  0
  -27.3900  -12.6088   17.7909 H   0  0  0  0  0  0
  -27.6785  -14.2561   19.5359 H   0  0  0  0  0  0
  -28.6860  -12.0613   21.4051 H   0  0  0  0  0  0
  -28.4614  -13.7301   21.8404 H   0  0  0  0  0  0
  -25.2775   -9.5677   22.4740 H   0  0  0  0  0  0
  -24.0013   -7.4645   22.7453 H   0  0  0  0  0  0
  -21.0863   -8.8773   19.8948 H   0  0  0  0  0  0
  -22.3713  -10.9665   19.6162 H   0  0  0  0  0  0
  -21.2019   -7.6136   23.9703 H   0  0  0  0  0  0
  -21.1495   -6.0513   25.9057 H   0  0  0  0  0  0
  -22.0595   -2.7608   23.2855 H   0  0  0  0  0  0
  -22.4176  -11.9907   22.4799 H   0  0  0  0  0  0
  -21.1142  -13.1211   22.2578 H   0  0  0  0  0  0
  -24.6656  -15.8467   20.5213 H   0  0  0  0  0  0
  -26.2814  -15.6305   20.0841 H   0  0  0  0  0  0
  -26.7174  -32.5451   23.1136 H   0  0  0  0  0  0
  -25.0227  -33.9759   25.0554 H   0  0  0  0  0  0
  -22.7037  -31.3145   21.4187 H   0  0  0  0  0  0
  -23.3770  -35.9594   23.3287 H   0  0  0  0  0  0
  -24.3555  -36.8929   22.2037 H   0  0  0  0  0  0
  -23.7189  -37.6490   23.6660 H   0  0  0  0  0  0
  -26.0782  -31.5718   20.6075 H   0  0  0  0  0  0
  -26.8258  -30.8371   22.0037 H   0  0  0  0  0  0
  -28.1130  -29.0518   21.1122 H   0  0  0  0  0  0
  -25.9312  -25.9596   19.0021 H   0  0  0  0  0  0
  -23.9463  -27.3023   19.0349 H   0  0  0  0  0  0
  -23.7256  -30.6090   19.4091 H   0  0  0  0  0  0
  -22.7308  -29.2629   19.8713 H   0  0  0  0  0  0
  -25.1290  -36.1995   25.0830 H   0  0  0  0  0  0
  -20.9975  -28.3236   24.1361 H   0  0  0  0  0  0
  -20.5630  -26.2300   23.3578 H   0  0  0  0  0  0
  -21.6644  -26.7403   22.1178 H   0  0  0  0  0  0
  -19.6893  -25.6280   21.1212 H   0  0  0  0  0  0
  -19.6637  -27.3173   20.6698 H   0  0  0  0  0  0
  -17.4183  -26.6638   21.4034 H   0  0  0  0  0  0
  -18.0343  -25.9996   22.8988 H   0  0  0  0  0  0
  -19.7943  -30.7258   24.2214 H   0  0  0  0  0  0
  -17.5020  -31.6223   24.5174 H   0  0  0  0  0  0
  -15.5358  -30.2970   23.7604 H   0  0  0  0  0  0
  -15.8675  -28.0753   22.7111 H   0  0  0  0  0  0
  -24.5988  -30.6980   25.7818 H   0  0  0  0  0  0
  -24.8975  -32.2734   26.5072 H   0  0  0  0  0  0
  -25.8164  -30.8725   27.0203 H   0  0  0  0  0  0
  -26.2922  -29.6745   24.1310 H   0  0  0  0  0  0
  -27.4226  -29.7366   25.4680 H   0  0  0  0  0  0
  -27.8753  -30.4377   23.9300 H   0  0  0  0  0  0
  -27.2824  -33.3630   26.2059 H   0  0  0  0  0  0
  -28.3907  -32.6824   25.0239 H   0  0  0  0  0  0
  -28.0857  -31.8422   26.5354 H   0  0  0  0  0  0
  -28.2625  -38.0107   24.7587 H   0  0  0  0  0  0
  -28.1084  -36.2642   24.6239 H   0  0  0  0  0  0
  -27.2297  -37.1387   25.8873 H   0  0  0  0  0  0
  -20.9281  -29.8828   21.6971 H   0  0  0  0  0  0
  -26.0198  -38.2889   24.1449 H   0  0  0  0  0  0
  -31.7689  -19.5905   23.6556 H   0  0  0  0  0  0
  -30.7891  -21.6875   22.7901 H   0  0  0  0  0  0
  -31.4289  -17.4369   22.4644 H   0  0  0  0  0  0
  -29.0681  -19.5047   19.4973 H   0  0  0  0  0  0
  -28.3004  -25.5549   14.2426 H   0  0  0  0  0  0
  -29.5068  -24.3152   14.6013 H   0  0  0  0  0  0
  -29.5042  -27.1685   15.3934 H   0  0  0  0  0  0
  -30.8539  -26.0425   15.4491 H   0  0  0  0  0  0
  -29.3403  -26.9502   17.6764 H   0  0  0  0  0  0
  -30.4830  -25.6018   17.6876 H   0  0  0  0  0  0
  -28.2602  -22.2156   21.0887 H   0  0  0  0  0  0
  -28.9544  -21.9207   19.5016 H   0  0  0  0  0  0
  -30.8881  -16.9502   19.3737 H   0  0  0  0  0  0
  -29.1672  -17.0843   19.4633 H   0  0  0  0  0  0
  -27.6886  -24.8293   20.7004 H   0  0  0  0  0  0
  -30.9732  -23.0923   20.9936 H   0  0  0  0  0  0
  -29.0076  -15.4674   21.1437 H   0  0  0  0  0  0
  1 25  1  0  0  0
  1 30  2  0  0  0
  1 88  1  0  0  0
  2  3  1  0  0  0
  2 25  1  0  0  0
  2 92  1  0  0  0
  2 93  1  0  0  0
  3  4  1  0  0  0
  3 94  1  0  0  0
  3 95  1  0  0  0
  4  5  1  0  0  0
  4 96  1  0  0  0
  4 97  1  0  0  0
  5  6  1  0  0  0
  5 26  1  0  0  0
  5 98  1  0  0  0
  6 25  1  0  0  0
  6 99  1  0  0  0
  6100  1  0  0  0
  7  8  2  0  0  0
  7 26  1  0  0  0
  7 29  1  0  0  0
  8  9  1  0  0  0
  8 22  1  0  0  0
  9 10  1  0  0  0
  9 27  2  0  0  0
 10 11  2  0  0  0
 10 15  1  0  0  0
 11 12  1  0  0  0
 11101  1  0  0  0
 12 13  2  0  0  0
 12102  1  0  0  0
 13 14  1  0  0  0
 13 31  1  0  0  0
 14 15  2  0  0  0
 14103  1  0  0  0
 15104  1  0  0  0
 16 17  2  0  0  0
 16 21  1  0  0  0
 16 31  1  0  0  0
 17 18  1  0  0  0
 17105  1  0  0  0
 18 19  2  0  0  0
 18106  1  0  0  0
 19 20  1  0  0  0
 19 24  1  0  0  0
 20 21  2  0  0  0
 20107  1  0  0  0
 21 23  1  0  0  0
 22 28  1  0  0  0
 22 32  2  0  0  0
 26 27  1  0  0  0
 28108  1  0  0  0
 28109  1  0  0  0
 29110  1  0  0  0
 29111  1  0  0  0
 33 34  1  0  0  0
 33 66  1  0  0  0
 33 70  2  0  0  0
 34 36  1  0  0  0
 34 59  1  0  0  0
 34112  1  0  0  0
 35 44  2  0  0  0
 35 45  1  0  0  0
 35 68  1  0  0  0
 36 56  1  0  0  0
 36113  1  0  0  0
 37 39  1  0  0  0
 37 47  1  0  0  0
 37 66  1  0  0  0
 37114  1  0  0  0
 38 43  2  0  0  0
 38 46  1  0  0  0
 38 47  1  0  0  0
 39 64  1  0  0  0
 39 67  2  0  0  0
 40 52  1  0  0  0
 40 53  2  0  0  0
 40 58  1  0  0  0
 41115  1  0  0  0
 41116  1  0  0  0
 41117  1  0  0  0
 41 48  1  0  0  0
 42 43  1  0  0  0
 42 66  1  0  0  0
 42118  1  0  0  0
 42119  1  0  0  0
 43 44  1  0  0  0
 44120  1  0  0  0
 45 46  2  0  0  0
 45121  1  0  0  0
 46122  1  0  0  0
 47123  1  0  0  0
 47124  1  0  0  0
 48 56  1  0  0  0
 48 65  1  0  0  0
 48125  1  0  0  0
 49 50  1  0  0  0
 49 53  1  0  0  0
 49 64  1  0  0  0
 49126  1  0  0  0
 50 51  1  0  0  0
 50127  1  0  0  0
 50128  1  0  0  0
 51 52  1  0  0  0
 51129  1  0  0  0
 51130  1  0  0  0
 52131  1  0  0  0
 52132  1  0  0  0
 53 54  1  0  0  0
 54 55  2  0  0  0
 54133  1  0  0  0
 55 57  1  0  0  0
 55134  1  0  0  0
 56 69  2  0  0  0
 57 58  2  0  0  0
 57135  1  0  0  0
 58136  1  0  0  0
 59 60  1  0  0  0
 59 61  1  0  0  0
 59 62  1  0  0  0
 60137  1  0  0  0
 60138  1  0  0  0
 60139  1  0  0  0
 61140  1  0  0  0
 61141  1  0  0  0
 61142  1  0  0  0
 62143  1  0  0  0
 62144  1  0  0  0
 62145  1  0  0  0
 63 65  1  0  0  0
 63146  1  0  0  0
 63147  1  0  0  0
 63148  1  0  0  0
 64149  1  0  0  0
 65150  1  0  0  0
 68 85  1  0  0  0
 71 72  2  0  0  0
 71 73  1  0  0  0
 71151  1  0  0  0
 72 75  1  0  0  0
 72152  1  0  0  0
 73 76  2  0  0  0
 73153  1  0  0  0
 74 75  2  0  0  0
 74 76  1  0  0  0
 74154  1  0  0  0
 75 83  1  0  0  0
 76 84  1  0  0  0
 77 80  1  0  0  0
 77 86  1  0  0  0
 77 89  2  0  0  0
 78 85  1  0  0  0
 78 86  1  0  0  0
 78 90  2  0  0  0
 79 85  1  0  0  0
 79 87  1  0  0  0
 79 91  2  0  0  0
 80 81  1  0  0  0
 80155  1  0  0  0
 80156  1  0  0  0
 81 82  1  0  0  0
 81157  1  0  0  0
 81158  1  0  0  0
 82 86  1  0  0  0
 82159  1  0  0  0
 82160  1  0  0  0
 83 87  1  0  0  0
 83161  1  0  0  0
 83162  1  0  0  0
 84 88  1  0  0  0
 84163  1  0  0  0
 84164  1  0  0  0
 85165  1  0  0  0
 87166  1  0  0  0
 88167  1  0  0  0
M  ISO  4   1 100  68 101  85 101  88 100
M  END
> <chiral flag>
0

> <version>
0

> <s_m_source_file>
/data/baiqing/PycharmProjects/Reinvent-master-3.2/result/LINK_invent/BTK/process_docking_weight1_custom_product_contain_oxygen_bond_distance_aromatic_linkinvent_7_9_3/rearranged_h_0002.sdf

> <i_m_source_file_index>
95

> <r_mmod_Potential_Energy-OPLS-2005>
28.1560859680176

> <r_mmod_Stretch_Energy-OPLS-2005>
62.5636558532715

> <r_mmod_Bend_Energy-OPLS-2005>
167.698272705078

> <r_mmod_Torsional_Energy-OPLS-2005>
275.757385253906

> <r_mmod_Improper_Torsional_Energy-OPLS-2005>
8.95350170135498

> <r_mmod_Van_der_Waal_Energy-OPLS-2005>
148.324569702148

> <r_mmod_Electrostatic_Energy-OPLS-2005>
-405.592376708984

> <r_mmod_Solvation_Energy-OPLS-2005>
-256.381072998047

> <b_mmod_Minimization_Converged-OPLS-2005>
0

> <r_mmod_RMS_Derivative-OPLS-2005>
5.16874122619629

$$$$
95
                    3D
 Structure written by MMmdl.
144152  0  0  1  0            999 V2000
  -30.3155  -15.6087   20.3329 C   0  0  0  0  0  0
  -30.4231  -13.0594   19.5450 C   0  0  0  0  0  0
  -29.5507  -12.6474   18.3255 C   0  0  0  0  0  0
  -28.1217  -12.2979   18.7666 C   0  0  0  0  0  0
  -27.5954  -13.3055   19.8140 C   0  0  2  0  0  0
  -28.6107  -13.6299   20.9344 C   0  0  0  0  0  0
  -25.2312  -13.8281   20.5790 C   0  0  0  0  0  0
  -24.1703  -13.0432   20.9287 C   0  0  0  0  0  0
  -24.6406  -11.6944   20.8770 C   0  0  0  0  0  0
  -23.9112  -10.4289   21.0404 C   0  0  0  0  0  0
  -24.3650   -9.4203   21.9186 C   0  0  0  0  0  0
  -23.6313   -8.2243   22.0753 C   0  0  0  0  0  0
  -22.4290   -8.0285   21.3547 C   0  0  0  0  0  0
  -21.9938   -9.0257   20.4641 C   0  0  0  0  0  0
  -22.7280  -10.2132   20.3052 C   0  0  0  0  0  0
  -21.6855   -6.0742   22.5277 C   0  0  0  0  0  0
  -21.4015   -6.5646   23.8212 C   0  0  0  0  0  0
  -21.3664   -5.6797   24.9173 C   0  0  0  0  0  0
  -21.6044   -4.3059   24.7222 C   0  0  0  0  0  0
  -21.8821   -3.8152   23.4342 C   0  0  0  0  0  0
  -21.9194   -4.6969   22.3398 C   0  0  0  0  0  0
  -22.7715  -13.5162   21.1923 C   0  0  0  0  0  0
  -22.1661   -4.2158   21.0973 F   0  0  0  0  0  0
  -21.5634   -3.4540   25.7734 F   0  0  0  0  0  0
  -29.7895  -14.2450   20.2816 N   0  0  0  0  0  0
  -26.2757  -12.9608   20.3227 N   0  0  0  0  0  0
  -25.9349  -11.6684   20.5701 N   0  0  0  0  0  0
  -22.0383  -12.8136   22.0477 N   0  0  0  0  0  0
  -25.3908  -15.2020   20.4229 N   0  0  0  0  0  0
  -31.5482  -15.5448   20.1670 O   0  0  0  0  0  0
  -21.6646   -6.8887   21.4241 O   0  0  0  0  0  0
  -22.3388  -14.5462   20.6761 O   0  0  0  0  0  0
  -24.6821  -31.8001   23.1520 C   0  0  0  0  0  0
  -25.9414  -32.4469   23.8060 C   0  0  1  0  0  0
  -27.2259  -26.7017   20.2210 C   0  0  0  0  0  0
  -25.6001  -33.8293   24.1961 N   0  0  0  0  0  0
  -23.5074  -30.4001   21.5063 C   0  0  2  0  0  0
  -24.9637  -28.7361   20.1224 C   0  0  0  0  0  0
  -22.7749  -29.4313   22.4729 C   0  0  0  0  0  0
  -18.0328  -28.1430   22.8471 C   0  0  0  0  0  0
  -24.1489  -36.7148   23.2651 C   0  0  0  0  0  0
  -26.0855  -30.5330   21.4148 C   0  0  0  0  0  0
  -26.1498  -29.0947   20.7730 C   0  0  0  0  0  0
  -27.2634  -28.1036   20.7908 C   0  0  0  0  0  0
  -26.0089  -26.5525   19.5090 C   0  0  0  0  0  0
  -24.9307  -27.4905   19.4695 C   0  0  0  0  0  0
  -23.7609  -29.6919   20.1429 C   0  0  0  0  0  0
  -25.4145  -36.2909   24.0282 C   0  0  1  0  0  0
  -20.5962  -28.3788   23.1155 C   0  0  2  0  0  0
  -20.6787  -26.9447   22.5413 C   0  0  0  0  0  0
  -19.5768  -26.6387   21.5221 C   0  0  0  0  0  0
  -18.1956  -26.7956   22.1631 C   0  0  0  0  0  0
  -19.1595  -28.8934   23.2791 C   0  0  0  0  0  0
  -18.9502  -30.1518   23.8838 C   0  0  0  0  0  0
  -17.6493  -30.6615   24.0559 C   0  0  0  0  0  0
  -25.9128  -34.9290   23.4965 C   0  0  0  0  0  0
  -16.5385  -29.9100   23.6354 C   0  0  0  0  0  0
  -16.7307  -28.6518   23.0378 C   0  0  0  0  0  0
  -26.4601  -31.6493   25.0668 C   0  0  0  0  0  0
  -25.3679  -31.3798   26.1295 C   0  0  0  0  0  0
  -27.0530  -30.2843   24.6528 C   0  0  0  0  0  0
  -27.6059  -32.4337   25.7488 C   0  0  0  0  0  0
  -27.5560  -37.1733   24.8471 C   0  0  0  0  0  0
  -21.4403  -29.3028   22.3475 N   0  0  0  0  0  0
  -26.4278  -37.3665   23.9401 N   0  0  0  0  0  0
  -24.7818  -30.9444   22.0772 N   0  0  0  0  0  0
  -23.4195  -28.7921   23.3079 O   0  0  0  0  0  0
  -28.2405  -25.5285   20.2542 O   0  0  0  0  0  0
  -26.5755  -34.8869   22.4574 O   0  0  0  0  0  0
  -23.5849  -32.1077   23.6484 O   0  0  0  0  0  0
  -28.6182  -21.3747   21.3420 C   0  0  0  0  0  0
  -29.1203  -21.4779   19.1895 C   0  0  0  0  0  0
  -28.2811  -22.8768   21.3270 C   0  0  0  0  0  0
  -28.7845  -22.9734   19.1768 C   0  0  0  0  0  0
  -29.0936  -20.4459   20.2694 C   0  0  0  0  0  0
  -28.3060  -23.9064   20.2391 C   0  0  0  0  0  0
  -29.8490  -18.7271   20.2813 C   0  0  0  0  0  0
  -29.5695  -16.9775   20.3812 N   0  0  0  0  0  0
  -31.4212  -13.3126   19.1859 H   0  0  0  0  0  0
  -30.5722  -12.2115   20.2161 H   0  0  0  0  0  0
  -30.0006  -11.8040   17.8001 H   0  0  0  0  0  0
  -29.5198  -13.4720   17.6122 H   0  0  0  0  0  0
  -28.1447  -11.2988   19.2037 H   0  0  0  0  0  0
  -27.4537  -12.2435   17.9057 H   0  0  0  0  0  0
  -27.4612  -14.2290   19.2491 H   0  0  0  0  0  0
  -28.8628  -12.7447   21.5207 H   0  0  0  0  0  0
  -28.1817  -14.3476   21.6350 H   0  0  0  0  0  0
  -25.2791   -9.5677   22.4770 H   0  0  0  0  0  0
  -24.0020   -7.4633   22.7473 H   0  0  0  0  0  0
  -21.0875   -8.8775   19.8942 H   0  0  0  0  0  0
  -22.3739  -10.9670   19.6162 H   0  0  0  0  0  0
  -21.2004   -7.6155   23.9716 H   0  0  0  0  0  0
  -21.1485   -6.0527   25.9078 H   0  0  0  0  0  0
  -22.0595   -2.7614   23.2833 H   0  0  0  0  0  0
  -22.4035  -11.9821   22.4877 H   0  0  0  0  0  0
  -21.0980  -13.1110   22.2664 H   0  0  0  0  0  0
  -24.6179  -15.8494   20.5339 H   0  0  0  0  0  0
  -26.2279  -15.6425   20.0653 H   0  0  0  0  0  0
  -26.7481  -32.4951   23.0764 H   0  0  0  0  0  0
  -25.0064  -33.9329   25.0057 H   0  0  0  0  0  0
  -22.8331  -31.2374   21.3148 H   0  0  0  0  0  0
  -23.3773  -35.9456   23.3289 H   0  0  0  0  0  0
  -24.3550  -36.8835   22.2071 H   0  0  0  0  0  0
  -23.7227  -37.6318   23.6737 H   0  0  0  0  0  0
  -26.2801  -31.2534   20.6191 H   0  0  0  0  0  0
  -26.9399  -30.6099   22.0741 H   0  0  0  0  0  0
  -28.1612  -28.3872   21.3213 H   0  0  0  0  0  0
  -25.8570  -25.6122   18.9984 H   0  0  0  0  0  0
  -24.0362  -27.2094   18.9314 H   0  0  0  0  0  0
  -23.9368  -30.4492   19.3787 H   0  0  0  0  0  0
  -22.8659  -29.1566   19.8216 H   0  0  0  0  0  0
  -25.1350  -36.1689   25.0772 H   0  0  0  0  0  0
  -21.0040  -28.3418   24.1284 H   0  0  0  0  0  0
  -20.5653  -26.2413   23.3675 H   0  0  0  0  0  0
  -21.6649  -26.7392   22.1235 H   0  0  0  0  0  0
  -19.6922  -25.6280   21.1297 H   0  0  0  0  0  0
  -19.6708  -27.3156   20.6715 H   0  0  0  0  0  0
  -17.4219  -26.6706   21.4041 H   0  0  0  0  0  0
  -18.0350  -26.0105   22.9034 H   0  0  0  0  0  0
  -19.7977  -30.7350   24.2187 H   0  0  0  0  0  0
  -17.5044  -31.6289   24.5175 H   0  0  0  0  0  0
  -15.5386  -30.2986   23.7709 H   0  0  0  0  0  0
  -15.8705  -28.0814   22.7134 H   0  0  0  0  0  0
  -24.5895  -30.7106   25.7599 H   0  0  0  0  0  0
  -24.8831  -32.3013   26.4531 H   0  0  0  0  0  0
  -25.7879  -30.9099   27.0197 H   0  0  0  0  0  0
  -26.3246  -29.6470   24.1507 H   0  0  0  0  0  0
  -27.3967  -29.7270   25.5252 H   0  0  0  0  0  0
  -27.9221  -30.3984   24.0043 H   0  0  0  0  0  0
  -27.2607  -33.3693   26.1902 H   0  0  0  0  0  0
  -28.3962  -32.6810   25.0380 H   0  0  0  0  0  0
  -28.0626  -31.8572   26.5546 H   0  0  0  0  0  0
  -28.2569  -38.0036   24.7498 H   0  0  0  0  0  0
  -28.1069  -36.2560   24.6334 H   0  0  0  0  0  0
  -27.2269  -37.1415   25.8874 H   0  0  0  0  0  0
  -20.9712  -29.8676   21.6528 H   0  0  0  0  0  0
  -26.0117  -38.2721   24.1409 H   0  0  0  0  0  0
  -28.5566  -20.9210   22.3215 H   0  0  0  0  0  0
  -29.5055  -21.1121   18.2479 H   0  0  0  0  0  0
  -28.0243  -23.2766   22.2978 H   0  0  0  0  0  0
  -28.9768  -23.4562   18.2284 H   0  0  0  0  0  0
  -30.6028  -18.8497   21.0600 H   0  0  0  0  0  0
  -30.4366  -18.7698   19.3638 H   0  0  0  0  0  0
  -28.5813  -16.7984   20.4874 H   0  0  0  0  0  0
  1 25  1  0  0  0
  1 30  2  0  0  0
  1 78  1  0  0  0
  2  3  1  0  0  0
  2 25  1  0  0  0
  2 79  1  0  0  0
  2 80  1  0  0  0
  3  4  1  0  0  0
  3 81  1  0  0  0
  3 82  1  0  0  0
  4  5  1  0  0  0
  4 83  1  0  0  0
  4 84  1  0  0  0
  5  6  1  0  0  0
  5 26  1  0  0  0
  5 85  1  0  0  0
  6 25  1  0  0  0
  6 86  1  0  0  0
  6 87  1  0  0  0
  7  8  2  0  0  0
  7 26  1  0  0  0
  7 29  1  0  0  0
  8  9  1  0  0  0
  8 22  1  0  0  0
  9 10  1  0  0  0
  9 27  2  0  0  0
 10 11  2  0  0  0
 10 15  1  0  0  0
 11 12  1  0  0  0
 11 88  1  0  0  0
 12 13  2  0  0  0
 12 89  1  0  0  0
 13 14  1  0  0  0
 13 31  1  0  0  0
 14 15  2  0  0  0
 14 90  1  0  0  0
 15 91  1  0  0  0
 16 17  2  0  0  0
 16 21  1  0  0  0
 16 31  1  0  0  0
 17 18  1  0  0  0
 17 92  1  0  0  0
 18 19  2  0  0  0
 18 93  1  0  0  0
 19 20  1  0  0  0
 19 24  1  0  0  0
 20 21  2  0  0  0
 20 94  1  0  0  0
 21 23  1  0  0  0
 22 28  1  0  0  0
 22 32  2  0  0  0
 26 27  1  0  0  0
 28 95  1  0  0  0
 28 96  1  0  0  0
 29 97  1  0  0  0
 29 98  1  0  0  0
 33 34  1  0  0  0
 33 66  1  0  0  0
 33 70  2  0  0  0
 34 36  1  0  0  0
 34 59  1  0  0  0
 34 99  1  0  0  0
 35 44  2  0  0  0
 35 45  1  0  0  0
 35 68  1  0  0  0
 36 56  1  0  0  0
 36100  1  0  0  0
 37 39  1  0  0  0
 37 47  1  0  0  0
 37 66  1  0  0  0
 37101  1  0  0  0
 38 43  2  0  0  0
 38 46  1  0  0  0
 38 47  1  0  0  0
 39 64  1  0  0  0
 39 67  2  0  0  0
 40 52  1  0  0  0
 40 53  2  0  0  0
 40 58  1  0  0  0
 41102  1  0  0  0
 41103  1  0  0  0
 41104  1  0  0  0
 41 48  1  0  0  0
 42 43  1  0  0  0
 42 66  1  0  0  0
 42105  1  0  0  0
 42106  1  0  0  0
 43 44  1  0  0  0
 44107  1  0  0  0
 45 46  2  0  0  0
 45108  1  0  0  0
 46109  1  0  0  0
 47110  1  0  0  0
 47111  1  0  0  0
 48 56  1  0  0  0
 48 65  1  0  0  0
 48112  1  0  0  0
 49 50  1  0  0  0
 49 53  1  0  0  0
 49 64  1  0  0  0
 49113  1  0  0  0
 50 51  1  0  0  0
 50114  1  0  0  0
 50115  1  0  0  0
 51 52  1  0  0  0
 51116  1  0  0  0
 51117  1  0  0  0
 52118  1  0  0  0
 52119  1  0  0  0
 53 54  1  0  0  0
 54 55  2  0  0  0
 54120  1  0  0  0
 55 57  1  0  0  0
 55121  1  0  0  0
 56 69  2  0  0  0
 57 58  2  0  0  0
 57122  1  0  0  0
 58123  1  0  0  0
 59 60  1  0  0  0
 59 61  1  0  0  0
 59 62  1  0  0  0
 60124  1  0  0  0
 60125  1  0  0  0
 60126  1  0  0  0
 61127  1  0  0  0
 61128  1  0  0  0
 61129  1  0  0  0
 62130  1  0  0  0
 62131  1  0  0  0
 62132  1  0  0  0
 63 65  1  0  0  0
 63133  1  0  0  0
 63134  1  0  0  0
 63135  1  0  0  0
 64136  1  0  0  0
 65137  1  0  0  0
 68 76  1  0  0  0
 71 73  2  0  0  0
 71 75  1  0  0  0
 71138  1  0  0  0
 72 74  1  0  0  0
 72 75  2  0  0  0
 72139  1  0  0  0
 73 76  1  0  0  0
 73140  1  0  0  0
 74 76  2  0  0  0
 74141  1  0  0  0
 75 77  1  0  0  0
 77 78  1  0  0  0
 77142  1  0  0  0
 77143  1  0  0  0
 78144  1  0  0  0
M  ISO  4   1 100  68 101  76 101  78 100
M  END
> <chiral flag>
0

> <version>
0

> <s_m_source_file>
/data/baiqing/PycharmProjects/Reinvent-master-3.2/result/LINK_invent/BTK/process_docking_weight1_custom_product_contain_oxygen_bond_distance_aromatic_linkinvent_7_9_3/rearranged_h_0002.sdf

> <i_m_source_file_index>
96

> <r_mmod_Potential_Energy-OPLS-2005>
2198.658203125

> <r_mmod_Stretch_Energy-OPLS-2005>
899.980346679688

> <r_mmod_Bend_Energy-OPLS-2005>
661.472839355469

> <r_mmod_Torsional_Energy-OPLS-2005>
225.492828369141

> <r_mmod_Improper_Torsional_Energy-OPLS-2005>
9.31841373443604

> <r_mmod_Van_der_Waal_Energy-OPLS-2005>
133.992309570312

> <r_mmod_Electrostatic_Energy-OPLS-2005>
-379.169982910156

> <r_mmod_Solvation_Energy-OPLS-2005>
-216.250228881836

> <b_mmod_Minimization_Converged-OPLS-2005>
0

> <r_mmod_RMS_Derivative-OPLS-2005>
1.18340790271759

$$$$
