0
                    3D
 Structure written by MMmdl.
165173  0  0  1  0            999 V2000
  -30.4810  -15.0651   20.4083 C   0  0  0  0  0  0
  -30.4509  -12.6643   19.5258 C   0  0  0  0  0  0
  -29.5435  -12.5613   18.2728 C   0  0  0  0  0  0
  -28.0747  -12.3323   18.6809 C   0  0  0  0  0  0
  -27.6283  -13.2634   19.8396 C   0  0  2  0  0  0
  -28.6653  -13.3089   20.9824 C   0  0  0  0  0  0
  -25.2441  -13.8238   20.5753 C   0  0  0  0  0  0
  -24.1751  -13.0447   20.9219 C   0  0  0  0  0  0
  -24.6395  -11.6936   20.8704 C   0  0  0  0  0  0
  -23.9102  -10.4283   21.0365 C   0  0  0  0  0  0
  -24.3631   -9.4201   21.9155 C   0  0  0  0  0  0
  -23.6287   -8.2244   22.0733 C   0  0  0  0  0  0
  -22.4266   -8.0273   21.3534 C   0  0  0  0  0  0
  -21.9906   -9.0252   20.4654 C   0  0  0  0  0  0
  -22.7248  -10.2126   20.3036 C   0  0  0  0  0  0
  -21.6848   -6.0733   22.5279 C   0  0  0  0  0  0
  -21.4018   -6.5636   23.8220 C   0  0  0  0  0  0
  -21.3661   -5.6783   24.9176 C   0  0  0  0  0  0
  -21.6024   -4.3040   24.7214 C   0  0  0  0  0  0
  -21.8824   -3.8151   23.4338 C   0  0  0  0  0  0
  -21.9183   -4.6966   22.3399 C   0  0  0  0  0  0
  -22.7765  -13.5218   21.1864 C   0  0  0  0  0  0
  -22.1656   -4.2172   21.0972 F   0  0  0  0  0  0
  -21.5614   -3.4518   25.7728 F   0  0  0  0  0  0
  -29.9342  -13.7683   20.4005 N   0  0  0  0  0  0
  -26.2869  -12.9505   20.3211 N   0  0  0  0  0  0
  -25.9322  -11.6618   20.5653 N   0  0  0  0  0  0
  -22.0390  -12.8242   22.0445 N   0  0  0  0  0  0
  -25.4151  -15.1971   20.4333 N   0  0  0  0  0  0
  -31.6660  -15.1414   20.0616 O   0  0  0  0  0  0
  -21.6619   -6.8868   21.4239 O   0  0  0  0  0  0
  -22.3458  -14.5509   20.6689 O   0  0  0  0  0  0
  -24.6465  -31.8386   23.1872 C   0  0  0  0  0  0
  -25.9240  -32.4654   23.8256 C   0  0  1  0  0  0
  -27.1925  -27.0650   20.1677 C   0  0  0  0  0  0
  -25.5980  -33.8479   24.2168 N   0  0  0  0  0  0
  -23.4522  -30.4579   21.5343 C   0  0  2  0  0  0
  -24.9007  -28.8852   20.1026 C   0  0  0  0  0  0
  -22.7598  -29.4495   22.4834 C   0  0  0  0  0  0
  -18.0292  -28.1401   22.8443 C   0  0  0  0  0  0
  -24.1494  -36.7225   23.2640 C   0  0  0  0  0  0
  -26.0127  -30.6875   21.4019 C   0  0  0  0  0  0
  -26.0753  -29.2947   20.7434 C   0  0  0  0  0  0
  -27.2169  -28.3993   20.7677 C   0  0  0  0  0  0
  -26.0069  -26.7991   19.4437 C   0  0  0  0  0  0
  -24.8858  -27.6551   19.4316 C   0  0  0  0  0  0
  -23.6812  -29.7944   20.1501 C   0  0  0  0  0  0
  -25.4132  -36.3008   24.0298 C   0  0  1  0  0  0
  -20.5909  -28.3721   23.1208 C   0  0  2  0  0  0
  -20.6783  -26.9414   22.5397 C   0  0  0  0  0  0
  -19.5758  -26.6369   21.5201 C   0  0  0  0  0  0
  -18.1940  -26.7932   22.1609 C   0  0  0  0  0  0
  -19.1555  -28.8880   23.2815 C   0  0  0  0  0  0
  -18.9473  -30.1478   23.8837 C   0  0  0  0  0  0
  -17.6471  -30.6586   24.0555 C   0  0  0  0  0  0
  -25.9098  -34.9380   23.5038 C   0  0  0  0  0  0
  -16.5358  -29.9076   23.6345 C   0  0  0  0  0  0
  -16.7282  -28.6506   23.0339 C   0  0  0  0  0  0
  -26.4553  -31.6552   25.0730 C   0  0  0  0  0  0
  -25.3722  -31.3759   26.1409 C   0  0  0  0  0  0
  -27.0421  -30.2935   24.6370 C   0  0  0  0  0  0
  -27.6079  -32.4313   25.7511 C   0  0  0  0  0  0
  -27.5567  -37.1762   24.8457 C   0  0  0  0  0  0
  -21.4279  -29.3030   22.3593 N   0  0  0  0  0  0
  -26.4283  -37.3726   23.9395 N   0  0  0  0  0  0
  -24.7239  -31.0177   22.0951 N   0  0  0  0  0  0
  -23.4224  -28.8029   23.3009 O   0  0  0  0  0  0
  -28.2014  -26.0217   20.3053 O   0  0  0  0  0  0
  -26.5670  -34.8888   22.4627 O   0  0  0  0  0  0
  -23.5572  -32.1306   23.7060 O   0  0  0  0  0  0
  -28.6591  -17.9911   19.1380 C   0  0  0  0  0  0
  -29.5086  -17.7091   20.2573 C   0  0  0  0  0  0
  -28.4807  -19.3688   19.0708 C   0  0  0  0  0  0
  -28.0576  -16.9769   18.2007 C   0  0  0  0  0  0
  -31.2844  -23.9079   18.5844 C   0  0  0  0  0  0
  -31.9693  -21.1457   19.7939 C   0  0  0  0  0  0
  -31.2751  -23.5474   20.0849 C   0  0  0  0  0  0
  -28.0446  -24.4979   19.8714 C   0  0  0  0  0  0
  -30.8984  -22.0707   20.4102 C   0  0  1  0  0  0
  -29.4156  -21.6960   20.0685 C   0  0  2  0  0  0
  -28.3864  -22.9629   20.6168 C   0  0  2  0  0  0
  -29.7649  -18.9862   20.8209 N   0  0  0  0  0  0
  -29.1703  -20.0750   20.0613 N   0  0  0  0  0  0
  -27.7545  -20.0691   18.1223 N   0  0  0  0  0  0
  -29.6964  -16.2337   20.7449 N   0  0  0  0  0  0
  -27.1291  -22.3383   20.8365 O   0  0  0  0  0  0
  -31.4848  -12.8401   19.2224 H   0  0  0  0  0  0
  -30.4702  -11.7175   20.0682 H   0  0  0  0  0  0
  -29.8831  -11.7554   17.6215 H   0  0  0  0  0  0
  -29.6293  -13.4778   17.6864 H   0  0  0  0  0  0
  -27.9798  -11.2922   18.9951 H   0  0  0  0  0  0
  -27.4193  -12.4611   17.8186 H   0  0  0  0  0  0
  -27.5823  -14.2618   19.4062 H   0  0  0  0  0  0
  -28.7675  -12.3259   21.4440 H   0  0  0  0  0  0
  -28.3432  -13.9826   21.7771 H   0  0  0  0  0  0
  -25.2766   -9.5678   22.4746 H   0  0  0  0  0  0
  -23.9979   -7.4635   22.7462 H   0  0  0  0  0  0
  -21.0823   -8.8804   19.8971 H   0  0  0  0  0  0
  -22.3713  -10.9658   19.6145 H   0  0  0  0  0  0
  -21.2044   -7.6156   23.9744 H   0  0  0  0  0  0
  -21.1450   -6.0500   25.9083 H   0  0  0  0  0  0
  -22.0605   -2.7618   23.2827 H   0  0  0  0  0  0
  -22.3948  -11.9933   22.4940 H   0  0  0  0  0  0
  -21.1003  -13.1281   22.2615 H   0  0  0  0  0  0
  -24.6576  -15.8533   20.5800 H   0  0  0  0  0  0
  -26.2725  -15.6434   20.1398 H   0  0  0  0  0  0
  -26.7301  -32.5232   23.0967 H   0  0  0  0  0  0
  -25.0112  -33.9584   25.0298 H   0  0  0  0  0  0
  -22.7571  -31.2869   21.3834 H   0  0  0  0  0  0
  -23.3764  -35.9547   23.3280 H   0  0  0  0  0  0
  -24.3581  -36.8894   22.2061 H   0  0  0  0  0  0
  -23.7242  -37.6409   23.6707 H   0  0  0  0  0  0
  -26.1850  -31.4369   20.6276 H   0  0  0  0  0  0
  -26.8784  -30.7344   22.0506 H   0  0  0  0  0  0
  -28.0990  -28.6991   21.3155 H   0  0  0  0  0  0
  -25.8858  -25.8868   18.8837 H   0  0  0  0  0  0
  -24.0015  -27.3511   18.8883 H   0  0  0  0  0  0
  -23.8255  -30.5738   19.4008 H   0  0  0  0  0  0
  -22.7945  -29.2428   19.8324 H   0  0  0  0  0  0
  -25.1324  -36.1822   25.0782 H   0  0  0  0  0  0
  -20.9977  -28.3318   24.1337 H   0  0  0  0  0  0
  -20.5657  -26.2335   23.3625 H   0  0  0  0  0  0
  -21.6654  -26.7405   22.1209 H   0  0  0  0  0  0
  -19.6928  -25.6271   21.1251 H   0  0  0  0  0  0
  -19.6705  -27.3159   20.6716 H   0  0  0  0  0  0
  -17.4206  -26.6634   21.4024 H   0  0  0  0  0  0
  -18.0355  -26.0104   22.9034 H   0  0  0  0  0  0
  -19.7960  -30.7306   24.2174 H   0  0  0  0  0  0
  -17.5032  -31.6261   24.5170 H   0  0  0  0  0  0
  -15.5363  -30.2960   23.7710 H   0  0  0  0  0  0
  -15.8680  -28.0822   22.7061 H   0  0  0  0  0  0
  -24.5901  -30.7117   25.7713 H   0  0  0  0  0  0
  -24.8916  -32.2951   26.4771 H   0  0  0  0  0  0
  -25.7980  -30.8959   27.0232 H   0  0  0  0  0  0
  -26.3055  -29.6642   24.1364 H   0  0  0  0  0  0
  -27.3990  -29.7260   25.4975 H   0  0  0  0  0  0
  -27.8994  -30.4148   23.9743 H   0  0  0  0  0  0
  -27.2696  -33.3650   26.2015 H   0  0  0  0  0  0
  -28.3935  -32.6802   25.0364 H   0  0  0  0  0  0
  -28.0715  -31.8493   26.5489 H   0  0  0  0  0  0
  -28.2558  -38.0084   24.7515 H   0  0  0  0  0  0
  -28.1084  -36.2598   24.6271 H   0  0  0  0  0  0
  -27.2275  -37.1405   25.8861 H   0  0  0  0  0  0
  -20.9512  -29.8773   21.6771 H   0  0  0  0  0  0
  -26.0129  -38.2775   24.1447 H   0  0  0  0  0  0
  -28.6836  -16.0909   18.0996 H   0  0  0  0  0  0
  -27.9309  -17.3809   17.1958 H   0  0  0  0  0  0
  -27.0761  -16.6415   18.5355 H   0  0  0  0  0  0
  -31.4106  -24.9837   18.4475 H   0  0  0  0  0  0
  -30.3627  -23.6326   18.0751 H   0  0  0  0  0  0
  -32.0988  -23.4125   18.0563 H   0  0  0  0  0  0
  -32.9663  -21.4826   20.0762 H   0  0  0  0  0  0
  -31.9203  -21.1250   18.7059 H   0  0  0  0  0  0
  -31.8935  -20.1217   20.1436 H   0  0  0  0  0  0
  -30.6276  -24.2437   20.6155 H   0  0  0  0  0  0
  -32.2635  -23.7683   20.4909 H   0  0  0  0  0  0
  -26.9924  -24.3802   19.6332 H   0  0  0  0  0  0
  -28.5038  -24.4701   18.8860 H   0  0  0  0  0  0
  -30.9857  -21.9603   21.4922 H   0  0  0  0  0  0
  -29.3658  -21.8949   19.0011 H   0  0  0  0  0  0
  -28.7349  -23.2051   21.6215 H   0  0  0  0  0  0
  -27.2726  -19.6290   17.3473 H   0  0  0  0  0  0
  -27.6612  -21.0780   18.1297 H   0  0  0  0  0  0
  -28.8615  -15.9223   21.2154 H   0  0  0  0  0  0
  -27.2799  -21.5625   21.3698 H   0  0  0  0  0  0
  1 25  1  0  0  0
  1 30  2  0  0  0
  1 85  1  0  0  0
  2  3  1  0  0  0
  2 25  1  0  0  0
  2 87  1  0  0  0
  2 88  1  0  0  0
  3  4  1  0  0  0
  3 89  1  0  0  0
  3 90  1  0  0  0
  4  5  1  0  0  0
  4 91  1  0  0  0
  4 92  1  0  0  0
  5  6  1  0  0  0
  5 26  1  0  0  0
  5 93  1  0  0  0
  6 25  1  0  0  0
  6 94  1  0  0  0
  6 95  1  0  0  0
  7  8  2  0  0  0
  7 26  1  0  0  0
  7 29  1  0  0  0
  8  9  1  0  0  0
  8 22  1  0  0  0
  9 10  1  0  0  0
  9 27  2  0  0  0
 10 11  2  0  0  0
 10 15  1  0  0  0
 11 12  1  0  0  0
 11 96  1  0  0  0
 12 13  2  0  0  0
 12 97  1  0  0  0
 13 14  1  0  0  0
 13 31  1  0  0  0
 14 15  2  0  0  0
 14 98  1  0  0  0
 15 99  1  0  0  0
 16 17  2  0  0  0
 16 21  1  0  0  0
 16 31  1  0  0  0
 17 18  1  0  0  0
 17100  1  0  0  0
 18 19  2  0  0  0
 18101  1  0  0  0
 19 20  1  0  0  0
 19 24  1  0  0  0
 20 21  2  0  0  0
 20102  1  0  0  0
 21 23  1  0  0  0
 22 28  1  0  0  0
 22 32  2  0  0  0
 26 27  1  0  0  0
 28103  1  0  0  0
 28104  1  0  0  0
 29105  1  0  0  0
 29106  1  0  0  0
 33 34  1  0  0  0
 33 66  1  0  0  0
 33 70  2  0  0  0
 34 36  1  0  0  0
 34 59  1  0  0  0
 34107  1  0  0  0
 35 44  2  0  0  0
 35 45  1  0  0  0
 35 68  1  0  0  0
 36 56  1  0  0  0
 36108  1  0  0  0
 37 39  1  0  0  0
 37 47  1  0  0  0
 37 66  1  0  0  0
 37109  1  0  0  0
 38 43  2  0  0  0
 38 46  1  0  0  0
 38 47  1  0  0  0
 39 64  1  0  0  0
 39 67  2  0  0  0
 40 52  1  0  0  0
 40 53  2  0  0  0
 40 58  1  0  0  0
 41110  1  0  0  0
 41111  1  0  0  0
 41112  1  0  0  0
 41 48  1  0  0  0
 42 43  1  0  0  0
 42 66  1  0  0  0
 42113  1  0  0  0
 42114  1  0  0  0
 43 44  1  0  0  0
 44115  1  0  0  0
 45 46  2  0  0  0
 45116  1  0  0  0
 46117  1  0  0  0
 47118  1  0  0  0
 47119  1  0  0  0
 48 56  1  0  0  0
 48 65  1  0  0  0
 48120  1  0  0  0
 49 50  1  0  0  0
 49 53  1  0  0  0
 49 64  1  0  0  0
 49121  1  0  0  0
 50 51  1  0  0  0
 50122  1  0  0  0
 50123  1  0  0  0
 51 52  1  0  0  0
 51124  1  0  0  0
 51125  1  0  0  0
 52126  1  0  0  0
 52127  1  0  0  0
 53 54  1  0  0  0
 54 55  2  0  0  0
 54128  1  0  0  0
 55 57  1  0  0  0
 55129  1  0  0  0
 56 69  2  0  0  0
 57 58  2  0  0  0
 57130  1  0  0  0
 58131  1  0  0  0
 59 60  1  0  0  0
 59 61  1  0  0  0
 59 62  1  0  0  0
 60132  1  0  0  0
 60133  1  0  0  0
 60134  1  0  0  0
 61135  1  0  0  0
 61136  1  0  0  0
 61137  1  0  0  0
 62138  1  0  0  0
 62139  1  0  0  0
 62140  1  0  0  0
 63 65  1  0  0  0
 63141  1  0  0  0
 63142  1  0  0  0
 63143  1  0  0  0
 64144  1  0  0  0
 65145  1  0  0  0
 68 78  1  0  0  0
 71 72  1  0  0  0
 71 73  2  0  0  0
 71 74  1  0  0  0
 72 82  2  0  0  0
 72 85  1  0  0  0
 73 83  1  0  0  0
 73 84  1  0  0  0
 74146  1  0  0  0
 74147  1  0  0  0
 74148  1  0  0  0
 75 77  1  0  0  0
 75149  1  0  0  0
 75150  1  0  0  0
 75151  1  0  0  0
 76152  1  0  0  0
 76153  1  0  0  0
 76154  1  0  0  0
 76 79  1  0  0  0
 77 79  1  0  0  0
 77155  1  0  0  0
 77156  1  0  0  0
 78 81  1  0  0  0
 78157  1  0  0  0
 78158  1  0  0  0
 79 80  1  0  0  0
 79159  1  0  0  0
 80 81  1  0  0  0
 80 83  1  0  0  0
 80160  1  0  0  0
 81 86  1  0  0  0
 81161  1  0  0  0
 82 83  1  0  0  0
 84162  1  0  0  0
 84163  1  0  0  0
 85164  1  0  0  0
 86165  1  0  0  0
M  ISO  4   1 100  68 101  78 101  85 100
M  END
> <chiral flag>
0

> <version>
0

> <s_m_source_file>
/data/baiqing/PycharmProjects/Reinvent-master-3.2/result/LINK_invent/BTK/process_docking_weight1_custom_product_contain_oxygen_bond_distance_aromatic_linkinvent_7_9_3/rearranged_h_0185.sdf

> <i_m_source_file_index>
1

> <r_mmod_Potential_Energy-OPLS-2005>
825.718200683594

> <r_mmod_Stretch_Energy-OPLS-2005>
369.846740722656

> <r_mmod_Bend_Energy-OPLS-2005>
378.049163818359

> <r_mmod_Torsional_Energy-OPLS-2005>
289.193176269531

> <r_mmod_Improper_Torsional_Energy-OPLS-2005>
7.42042016983032

> <r_mmod_Van_der_Waal_Energy-OPLS-2005>
114.44743347168

> <r_mmod_Electrostatic_Energy-OPLS-2005>
-374.075286865234

> <r_mmod_Solvation_Energy-OPLS-2005>
-238.245727539062

> <b_mmod_Minimization_Converged-OPLS-2005>
0

> <r_mmod_RMS_Derivative-OPLS-2005>
4.14582777023315

$$$$
1
                    3D
 Structure written by MMmdl.
153161  0  0  1  0            999 V2000
  -30.5218  -15.0013   20.3851 C   0  0  0  0  0  0
  -30.4390  -12.6172   19.5042 C   0  0  0  0  0  0
  -29.5222  -12.5295   18.2623 C   0  0  0  0  0  0
  -28.0627  -12.2946   18.6903 C   0  0  0  0  0  0
  -27.6234  -13.2494   19.8304 C   0  0  2  0  0  0
  -28.6657  -13.3162   20.9679 C   0  0  0  0  0  0
  -25.2437  -13.8223   20.5744 C   0  0  0  0  0  0
  -24.1756  -13.0434   20.9253 C   0  0  0  0  0  0
  -24.6375  -11.6923   20.8770 C   0  0  0  0  0  0
  -23.9070  -10.4289   21.0425 C   0  0  0  0  0  0
  -24.3617   -9.4204   21.9196 C   0  0  0  0  0  0
  -23.6283   -8.2248   22.0768 C   0  0  0  0  0  0
  -22.4265   -8.0295   21.3557 C   0  0  0  0  0  0
  -21.9899   -9.0271   20.4662 C   0  0  0  0  0  0
  -22.7241  -10.2136   20.3072 C   0  0  0  0  0  0
  -21.6851   -6.0739   22.5284 C   0  0  0  0  0  0
  -21.4016   -6.5633   23.8221 C   0  0  0  0  0  0
  -21.3667   -5.6788   24.9182 C   0  0  0  0  0  0
  -21.6053   -4.3052   24.7221 C   0  0  0  0  0  0
  -21.8809   -3.8148   23.4337 C   0  0  0  0  0  0
  -21.9182   -4.6964   22.3401 C   0  0  0  0  0  0
  -22.7777  -13.5214   21.1903 C   0  0  0  0  0  0
  -22.1654   -4.2162   21.0974 F   0  0  0  0  0  0
  -21.5621   -3.4539   25.7729 F   0  0  0  0  0  0
  -29.9398  -13.7295   20.3635 N   0  0  0  0  0  0
  -26.2851  -12.9455   20.3216 N   0  0  0  0  0  0
  -25.9302  -11.6578   20.5715 N   0  0  0  0  0  0
  -22.0434  -12.8214   22.0456 N   0  0  0  0  0  0
  -25.4095  -15.1955   20.4204 N   0  0  0  0  0  0
  -31.7338  -15.0505   20.1387 O   0  0  0  0  0  0
  -21.6639   -6.8888   21.4249 O   0  0  0  0  0  0
  -22.3480  -14.5533   20.6754 O   0  0  0  0  0  0
  -24.6463  -31.8421   23.1841 C   0  0  0  0  0  0
  -25.9222  -32.4682   23.8255 C   0  0  1  0  0  0
  -27.2227  -27.1081   20.1579 C   0  0  0  0  0  0
  -25.5964  -33.8488   24.2177 N   0  0  0  0  0  0
  -23.4530  -30.4599   21.5275 C   0  0  2  0  0  0
  -24.9060  -28.8819   20.1086 C   0  0  0  0  0  0
  -22.7589  -29.4532   22.4798 C   0  0  0  0  0  0
  -18.0325  -28.1392   22.8457 C   0  0  0  0  0  0
  -24.1501  -36.7266   23.2641 C   0  0  0  0  0  0
  -26.0097  -30.7105   21.3863 C   0  0  0  0  0  0
  -26.0833  -29.3169   20.7290 C   0  0  0  0  0  0
  -27.2419  -28.4468   20.7359 C   0  0  0  0  0  0
  -26.0169  -26.7828   19.4996 C   0  0  0  0  0  0
  -24.8865  -27.6290   19.4771 C   0  0  0  0  0  0
  -23.6866  -29.7900   20.1465 C   0  0  0  0  0  0
  -25.4124  -36.3017   24.0312 C   0  0  1  0  0  0
  -20.5938  -28.3731   23.1209 C   0  0  2  0  0  0
  -20.6796  -26.9423   22.5398 C   0  0  0  0  0  0
  -19.5775  -26.6373   21.5198 C   0  0  0  0  0  0
  -18.1959  -26.7927   22.1611 C   0  0  0  0  0  0
  -19.1581  -28.8876   23.2832 C   0  0  0  0  0  0
  -18.9492  -30.1465   23.8870 C   0  0  0  0  0  0
  -17.6485  -30.6571   24.0570 C   0  0  0  0  0  0
  -25.9074  -34.9397   23.5051 C   0  0  0  0  0  0
  -16.5378  -29.9069   23.6323 C   0  0  0  0  0  0
  -16.7310  -28.6499   23.0320 C   0  0  0  0  0  0
  -26.4526  -31.6546   25.0699 C   0  0  0  0  0  0
  -25.3708  -31.3760   26.1397 C   0  0  0  0  0  0
  -27.0383  -30.2931   24.6295 C   0  0  0  0  0  0
  -27.6049  -32.4306   25.7503 C   0  0  0  0  0  0
  -27.5576  -37.1787   24.8453 C   0  0  0  0  0  0
  -21.4282  -29.3055   22.3571 N   0  0  0  0  0  0
  -26.4280  -37.3732   23.9406 N   0  0  0  0  0  0
  -24.7226  -31.0245   22.0887 N   0  0  0  0  0  0
  -23.4210  -28.8078   23.2967 O   0  0  0  0  0  0
  -28.2679  -26.1046   20.2286 O   0  0  0  0  0  0
  -26.5652  -34.8900   22.4627 O   0  0  0  0  0  0
  -23.5578  -32.1311   23.7041 O   0  0  0  0  0  0
  -31.1611  -18.2758   20.0665 C   0  0  0  0  0  0
  -29.9366  -17.7059   20.3397 C   0  0  0  0  0  0
  -29.3980  -20.1611   20.2373 C   0  0  0  0  0  0
  -30.3252  -24.1447   22.1154 C   0  0  0  0  0  0
  -27.9785  -24.5595   20.0956 C   0  0  0  0  0  0
  -28.5124  -21.5592   20.1378 C   0  0  2  0  0  0
  -28.9661  -23.1870   20.3912 C   0  0  2  0  0  0
  -28.9666  -18.8285   20.4278 N   0  0  0  0  0  0
  -29.7161  -16.1830   20.4831 N   0  0  0  0  0  0
  -27.4458  -21.1938   21.0794 N   0  3  0  0  0  0
  -29.3166  -23.2011   21.7768 O   0  0  0  0  0  0
  -31.1364  -20.0573   19.9145 S   0  0  0  0  0  0
  -31.4724  -12.7736   19.1918 H   0  0  0  0  0  0
  -30.4347  -11.6768   20.0566 H   0  0  0  0  0  0
  -29.8505  -11.7291   17.5990 H   0  0  0  0  0  0
  -29.5935  -13.4540   17.6869 H   0  0  0  0  0  0
  -27.9877  -11.2615   19.0327 H   0  0  0  0  0  0
  -27.3938  -12.3833   17.8349 H   0  0  0  0  0  0
  -27.5724  -14.2385   19.3740 H   0  0  0  0  0  0
  -28.7601  -12.3563   21.4781 H   0  0  0  0  0  0
  -28.3540  -14.0380   21.7239 H   0  0  0  0  0  0
  -25.2759   -9.5678   22.4767 H   0  0  0  0  0  0
  -24.0004   -7.4629   22.7458 H   0  0  0  0  0  0
  -21.0843   -8.8784   19.8953 H   0  0  0  0  0  0
  -22.3713  -10.9673   19.6188 H   0  0  0  0  0  0
  -21.2027   -7.6150   23.9727 H   0  0  0  0  0  0
  -21.1502   -6.0524   25.9084 H   0  0  0  0  0  0
  -22.0581   -2.7618   23.2835 H   0  0  0  0  0  0
  -22.4056  -11.9876   22.4836 H   0  0  0  0  0  0
  -21.1058  -13.1259   22.2695 H   0  0  0  0  0  0
  -24.6377  -15.8415   20.5427 H   0  0  0  0  0  0
  -26.2370  -15.6407   20.0469 H   0  0  0  0  0  0
  -26.7295  -32.5290   23.0998 H   0  0  0  0  0  0
  -25.0096  -33.9597   25.0314 H   0  0  0  0  0  0
  -22.7578  -31.2864   21.3676 H   0  0  0  0  0  0
  -23.3749  -35.9609   23.3272 H   0  0  0  0  0  0
  -24.3590  -36.8934   22.2059 H   0  0  0  0  0  0
  -23.7273  -37.6464   23.6702 H   0  0  0  0  0  0
  -26.1597  -31.4662   20.6141 H   0  0  0  0  0  0
  -26.8817  -30.7669   22.0253 H   0  0  0  0  0  0
  -28.1375  -28.7735   21.2454 H   0  0  0  0  0  0
  -25.9138  -25.8260   19.0110 H   0  0  0  0  0  0
  -23.9887  -27.2905   18.9782 H   0  0  0  0  0  0
  -23.8374  -30.5671   19.3959 H   0  0  0  0  0  0
  -22.8015  -29.2404   19.8222 H   0  0  0  0  0  0
  -25.1310  -36.1831   25.0800 H   0  0  0  0  0  0
  -21.0037  -28.3319   24.1326 H   0  0  0  0  0  0
  -20.5646  -26.2346   23.3624 H   0  0  0  0  0  0
  -21.6665  -26.7379   22.1226 H   0  0  0  0  0  0
  -19.6929  -25.6270   21.1249 H   0  0  0  0  0  0
  -19.6711  -27.3161   20.6708 H   0  0  0  0  0  0
  -17.4220  -26.6659   21.4026 H   0  0  0  0  0  0
  -18.0371  -26.0079   22.9017 H   0  0  0  0  0  0
  -19.7968  -30.7291   24.2220 H   0  0  0  0  0  0
  -17.5035  -31.6236   24.5202 H   0  0  0  0  0  0
  -15.5376  -30.2956   23.7659 H   0  0  0  0  0  0
  -15.8717  -28.0819   22.7011 H   0  0  0  0  0  0
  -24.5858  -30.7142   25.7720 H   0  0  0  0  0  0
  -24.8941  -32.2962   26.4786 H   0  0  0  0  0  0
  -25.7985  -30.8940   27.0196 H   0  0  0  0  0  0
  -26.2986  -29.6638   24.1331 H   0  0  0  0  0  0
  -27.4013  -29.7250   25.4871 H   0  0  0  0  0  0
  -27.8894  -30.4154   23.9592 H   0  0  0  0  0  0
  -27.2621  -33.3604   26.2063 H   0  0  0  0  0  0
  -28.3885  -32.6873   25.0357 H   0  0  0  0  0  0
  -28.0691  -31.8441   26.5446 H   0  0  0  0  0  0
  -28.2564  -38.0110   24.7492 H   0  0  0  0  0  0
  -28.1102  -36.2633   24.6267 H   0  0  0  0  0  0
  -27.2303  -37.1420   25.8860 H   0  0  0  0  0  0
  -20.9475  -29.8814   21.6803 H   0  0  0  0  0  0
  -26.0139  -38.2801   24.1402 H   0  0  0  0  0  0
  -32.0997  -17.7574   19.9218 H   0  0  0  0  0  0
  -30.4828  -24.1299   23.1940 H   0  0  0  0  0  0
  -30.0576  -25.1646   21.8405 H   0  0  0  0  0  0
  -31.2736  -23.8957   21.6373 H   0  0  0  0  0  0
  -27.0766  -24.3922   20.6857 H   0  0  0  0  0  0
  -27.6582  -24.4393   19.0614 H   0  0  0  0  0  0
  -28.0777  -21.5369   19.1380 H   0  0  0  0  0  0
  -29.8663  -23.3253   19.7896 H   0  0  0  0  0  0
  -28.7495  -15.9472   20.6467 H   0  0  0  0  0  0
  -27.7095  -21.4841   22.0051 H   0  0  0  0  0  0
  -27.3697  -20.1895   21.0668 H   0  0  0  0  0  0
  -26.5625  -21.6025   20.8325 H   0  0  0  0  0  0
  1 25  1  0  0  0
  1 30  2  0  0  0
  1 79  1  0  0  0
  2  3  1  0  0  0
  2 25  1  0  0  0
  2 83  1  0  0  0
  2 84  1  0  0  0
  3  4  1  0  0  0
  3 85  1  0  0  0
  3 86  1  0  0  0
  4  5  1  0  0  0
  4 87  1  0  0  0
  4 88  1  0  0  0
  5  6  1  0  0  0
  5 26  1  0  0  0
  5 89  1  0  0  0
  6 25  1  0  0  0
  6 90  1  0  0  0
  6 91  1  0  0  0
  7  8  2  0  0  0
  7 26  1  0  0  0
  7 29  1  0  0  0
  8  9  1  0  0  0
  8 22  1  0  0  0
  9 10  1  0  0  0
  9 27  2  0  0  0
 10 11  2  0  0  0
 10 15  1  0  0  0
 11 12  1  0  0  0
 11 92  1  0  0  0
 12 13  2  0  0  0
 12 93  1  0  0  0
 13 14  1  0  0  0
 13 31  1  0  0  0
 14 15  2  0  0  0
 14 94  1  0  0  0
 15 95  1  0  0  0
 16 17  2  0  0  0
 16 21  1  0  0  0
 16 31  1  0  0  0
 17 18  1  0  0  0
 17 96  1  0  0  0
 18 19  2  0  0  0
 18 97  1  0  0  0
 19 20  1  0  0  0
 19 24  1  0  0  0
 20 21  2  0  0  0
 20 98  1  0  0  0
 21 23  1  0  0  0
 22 28  1  0  0  0
 22 32  2  0  0  0
 26 27  1  0  0  0
 28 99  1  0  0  0
 28100  1  0  0  0
 29101  1  0  0  0
 29102  1  0  0  0
 33 34  1  0  0  0
 33 66  1  0  0  0
 33 70  2  0  0  0
 34 36  1  0  0  0
 34 59  1  0  0  0
 34103  1  0  0  0
 35 44  2  0  0  0
 35 45  1  0  0  0
 35 68  1  0  0  0
 36 56  1  0  0  0
 36104  1  0  0  0
 37 39  1  0  0  0
 37 47  1  0  0  0
 37 66  1  0  0  0
 37105  1  0  0  0
 38 43  2  0  0  0
 38 46  1  0  0  0
 38 47  1  0  0  0
 39 64  1  0  0  0
 39 67  2  0  0  0
 40 52  1  0  0  0
 40 53  2  0  0  0
 40 58  1  0  0  0
 41106  1  0  0  0
 41107  1  0  0  0
 41108  1  0  0  0
 41 48  1  0  0  0
 42 43  1  0  0  0
 42 66  1  0  0  0
 42109  1  0  0  0
 42110  1  0  0  0
 43 44  1  0  0  0
 44111  1  0  0  0
 45 46  2  0  0  0
 45112  1  0  0  0
 46113  1  0  0  0
 47114  1  0  0  0
 47115  1  0  0  0
 48 56  1  0  0  0
 48 65  1  0  0  0
 48116  1  0  0  0
 49 50  1  0  0  0
 49 53  1  0  0  0
 49 64  1  0  0  0
 49117  1  0  0  0
 50 51  1  0  0  0
 50118  1  0  0  0
 50119  1  0  0  0
 51 52  1  0  0  0
 51120  1  0  0  0
 51121  1  0  0  0
 52122  1  0  0  0
 52123  1  0  0  0
 53 54  1  0  0  0
 54 55  2  0  0  0
 54124  1  0  0  0
 55 57  1  0  0  0
 55125  1  0  0  0
 56 69  2  0  0  0
 57 58  2  0  0  0
 57126  1  0  0  0
 58127  1  0  0  0
 59 60  1  0  0  0
 59 61  1  0  0  0
 59 62  1  0  0  0
 60128  1  0  0  0
 60129  1  0  0  0
 60130  1  0  0  0
 61131  1  0  0  0
 61132  1  0  0  0
 61133  1  0  0  0
 62134  1  0  0  0
 62135  1  0  0  0
 62136  1  0  0  0
 63 65  1  0  0  0
 63137  1  0  0  0
 63138  1  0  0  0
 63139  1  0  0  0
 64140  1  0  0  0
 65141  1  0  0  0
 68 75  1  0  0  0
 71 72  2  0  0  0
 71 82  1  0  0  0
 71142  1  0  0  0
 72 78  1  0  0  0
 72 79  1  0  0  0
 73 76  1  0  0  0
 73 78  2  0  0  0
 73 82  1  0  0  0
 74 81  1  0  0  0
 74143  1  0  0  0
 74144  1  0  0  0
 74145  1  0  0  0
 75146  1  0  0  0
 75147  1  0  0  0
 75 77  1  0  0  0
 76 77  1  0  0  0
 76 80  1  0  0  0
 76148  1  0  0  0
 77 81  1  0  0  0
 77149  1  0  0  0
 79150  1  0  0  0
 80151  1  0  0  0
 80152  1  0  0  0
 80153  1  0  0  0
M  CHG  1  80   1
M  ISO  4   1 100  68 101  75 101  79 100
M  END
> <chiral flag>
0

> <version>
0

> <s_m_source_file>
/data/baiqing/PycharmProjects/Reinvent-master-3.2/result/LINK_invent/BTK/process_docking_weight1_custom_product_contain_oxygen_bond_distance_aromatic_linkinvent_7_9_3/rearranged_h_0185.sdf

> <i_m_source_file_index>
2

> <r_mmod_Potential_Energy-OPLS-2005>
220.420715332031

> <r_mmod_Stretch_Energy-OPLS-2005>
296.744781494141

> <r_mmod_Bend_Energy-OPLS-2005>
274.07958984375

> <r_mmod_Torsional_Energy-OPLS-2005>
218.734069824219

> <r_mmod_Improper_Torsional_Energy-OPLS-2005>
4.74480104446411

> <r_mmod_Van_der_Waal_Energy-OPLS-2005>
112.217559814453

> <r_mmod_Electrostatic_Energy-OPLS-2005>
-431.572692871094

> <r_mmod_Solvation_Energy-OPLS-2005>
-481.944915771484

> <b_mmod_Minimization_Converged-OPLS-2005>
0

> <r_mmod_RMS_Derivative-OPLS-2005>
2.81598830223083

$$$$
2
                    3D
 Structure written by MMmdl.
165173  0  0  1  0            999 V2000
  -30.5686  -14.7417   20.5072 C   0  0  0  0  0  0
  -30.4547  -12.4691   19.4535 C   0  0  0  0  0  0
  -29.5121  -12.5457   18.2279 C   0  0  0  0  0  0
  -28.0389  -12.3512   18.6412 C   0  0  0  0  0  0
  -27.6527  -13.2200   19.8666 C   0  0  2  0  0  0
  -28.7019  -13.0865   20.9942 C   0  0  0  0  0  0
  -25.2537  -13.8166   20.5678 C   0  0  0  0  0  0
  -24.1823  -13.0414   20.9166 C   0  0  0  0  0  0
  -24.6428  -11.6900   20.8740 C   0  0  0  0  0  0
  -23.9111  -10.4281   21.0432 C   0  0  0  0  0  0
  -24.3643   -9.4193   21.9206 C   0  0  0  0  0  0
  -23.6313   -8.2235   22.0768 C   0  0  0  0  0  0
  -22.4287   -8.0295   21.3574 C   0  0  0  0  0  0
  -21.9939   -9.0281   20.4665 C   0  0  0  0  0  0
  -22.7284  -10.2142   20.3091 C   0  0  0  0  0  0
  -21.6853   -6.0746   22.5312 C   0  0  0  0  0  0
  -21.3998   -6.5651   23.8247 C   0  0  0  0  0  0
  -21.3655   -5.6801   24.9209 C   0  0  0  0  0  0
  -21.6041   -4.3061   24.7250 C   0  0  0  0  0  0
  -21.8816   -3.8158   23.4373 C   0  0  0  0  0  0
  -21.9173   -4.6975   22.3421 C   0  0  0  0  0  0
  -22.7836  -13.5199   21.1814 C   0  0  0  0  0  0
  -22.1647   -4.2165   21.0998 F   0  0  0  0  0  0
  -21.5652   -3.4539   25.7757 F   0  0  0  0  0  0
  -30.0059  -13.4846   20.4333 N   0  0  0  0  0  0
  -26.2999  -12.9360   20.3364 N   0  0  0  0  0  0
  -25.9349  -11.6506   20.5777 N   0  0  0  0  0  0
  -22.0486  -12.8220   22.0396 N   0  0  0  0  0  0
  -25.4126  -15.1893   20.4070 N   0  0  0  0  0  0
  -31.7219  -14.9338   20.1029 O   0  0  0  0  0  0
  -21.6640   -6.8902   21.4284 O   0  0  0  0  0  0
  -22.3515  -14.5503   20.6657 O   0  0  0  0  0  0
  -24.6345  -31.8565   23.2010 C   0  0  0  0  0  0
  -25.9162  -32.4763   23.8386 C   0  0  1  0  0  0
  -27.2376  -27.2771   20.1264 C   0  0  0  0  0  0
  -25.5953  -33.8573   24.2281 N   0  0  0  0  0  0
  -23.4325  -30.4833   21.5418 C   0  0  2  0  0  0
  -24.8786  -28.9307   20.1159 C   0  0  0  0  0  0
  -22.7521  -29.4640   22.4884 C   0  0  0  0  0  0
  -18.0303  -28.1438   22.8454 C   0  0  0  0  0  0
  -24.1475  -36.7285   23.2642 C   0  0  0  0  0  0
  -25.9797  -30.7776   21.3768 C   0  0  0  0  0  0
  -26.0540  -29.4040   20.7119 C   0  0  0  0  0  0
  -27.2360  -28.5949   20.6958 C   0  0  0  0  0  0
  -26.0227  -26.8593   19.5288 C   0  0  0  0  0  0
  -24.8679  -27.6638   19.5156 C   0  0  0  0  0  0
  -23.6536  -29.8223   20.1573 C   0  0  0  0  0  0
  -25.4104  -36.3071   24.0325 C   0  0  1  0  0  0
  -20.5901  -28.3756   23.1228 C   0  0  2  0  0  0
  -20.6785  -26.9463   22.5393 C   0  0  0  0  0  0
  -19.5764  -26.6404   21.5200 C   0  0  0  0  0  0
  -18.1946  -26.7975   22.1607 C   0  0  0  0  0  0
  -19.1557  -28.8908   23.2840 C   0  0  0  0  0  0
  -18.9478  -30.1501   23.8869 C   0  0  0  0  0  0
  -17.6480  -30.6617   24.0577 C   0  0  0  0  0  0
  -25.9050  -34.9444   23.5093 C   0  0  0  0  0  0
  -16.5369  -29.9114   23.6343 C   0  0  0  0  0  0
  -16.7288  -28.6548   23.0331 C   0  0  0  0  0  0
  -26.4498  -31.6617   25.0806 C   0  0  0  0  0  0
  -25.3695  -31.3815   26.1511 C   0  0  0  0  0  0
  -27.0358  -30.3024   24.6361 C   0  0  0  0  0  0
  -27.6030  -32.4385   25.7594 C   0  0  0  0  0  0
  -27.5573  -37.1804   24.8449 C   0  0  0  0  0  0
  -21.4225  -29.3089   22.3604 N   0  0  0  0  0  0
  -26.4263  -37.3780   23.9414 N   0  0  0  0  0  0
  -24.7013  -31.0558   22.0962 N   0  0  0  0  0  0
  -23.4194  -28.8175   23.3002 O   0  0  0  0  0  0
  -28.3608  -26.4115   20.1832 O   0  0  0  0  0  0
  -26.5621  -34.8912   22.4665 O   0  0  0  0  0  0
  -23.5488  -32.1382   23.7298 O   0  0  0  0  0  0
  -28.4701  -19.2191   21.2769 C   0  0  0  0  0  0
  -29.5431  -19.8467   20.6701 C   0  0  0  0  0  0
  -29.6445  -17.2300   20.8700 C   0  0  0  0  0  0
  -29.2876  -23.9301   20.4549 C   0  0  0  0  0  0
  -28.3125  -24.8542   18.3011 C   0  0  0  0  0  0
  -28.2557  -22.8421   24.8711 C   0  0  0  0  0  0
  -26.6002  -21.9957   23.2012 C   0  0  0  0  0  0
  -27.4144  -24.3691   23.1001 C   0  0  0  0  0  0
  -29.0163  -22.4022   22.5291 C   0  0  0  0  0  0
  -28.9162  -22.4198   20.9661 C   0  0  2  0  0  0
  -28.2157  -24.9535   19.8363 C   0  0  2  0  0  0
  -27.8232  -22.9127   23.3915 C   0  0  0  0  0  0
  -28.5437  -17.8031   21.3881 N   0  0  0  0  0  0
  -29.7591  -21.2698   20.4223 N   0  0  0  0  0  0
  -29.7243  -15.7505   20.9365 N   0  0  0  0  0  0
  -30.4618  -24.3089   20.5134 O   0  0  0  0  0  0
  -30.6980  -18.5365   20.1929 S   0  0  0  0  0  0
  -31.4889  -12.6320   19.1449 H   0  0  0  0  0  0
  -30.4317  -11.4738   19.8965 H   0  0  0  0  0  0
  -29.7945  -11.8059   17.4780 H   0  0  0  0  0  0
  -29.6228  -13.5187   17.7471 H   0  0  0  0  0  0
  -27.8894  -11.2960   18.8718 H   0  0  0  0  0  0
  -27.3818  -12.5720   17.7993 H   0  0  0  0  0  0
  -27.6602  -14.2544   19.5221 H   0  0  0  0  0  0
  -28.7420  -12.0556   21.3531 H   0  0  0  0  0  0
  -28.4266  -13.6865   21.8612 H   0  0  0  0  0  0
  -25.2812   -9.5648   22.4753 H   0  0  0  0  0  0
  -24.0033   -7.4621   22.7470 H   0  0  0  0  0  0
  -21.0881   -8.8812   19.8941 H   0  0  0  0  0  0
  -22.3798  -10.9685   19.6182 H   0  0  0  0  0  0
  -21.1981   -7.6152   23.9762 H   0  0  0  0  0  0
  -21.1485   -6.0528   25.9115 H   0  0  0  0  0  0
  -22.0581   -2.7621   23.2885 H   0  0  0  0  0  0
  -22.4105  -11.9903   22.4827 H   0  0  0  0  0  0
  -21.1101  -13.1260   22.2590 H   0  0  0  0  0  0
  -24.6223  -15.8208   20.4925 H   0  0  0  0  0  0
  -26.2560  -15.6566   20.0981 H   0  0  0  0  0  0
  -26.7257  -32.5407   23.1158 H   0  0  0  0  0  0
  -25.0098  -33.9725   25.0427 H   0  0  0  0  0  0
  -22.7304  -31.3072   21.3972 H   0  0  0  0  0  0
  -23.3735  -35.9612   23.3279 H   0  0  0  0  0  0
  -24.3562  -36.8940   22.2055 H   0  0  0  0  0  0
  -23.7206  -37.6474   23.6685 H   0  0  0  0  0  0
  -26.1242  -31.5462   20.6164 H   0  0  0  0  0  0
  -26.8516  -30.8178   22.0188 H   0  0  0  0  0  0
  -28.1429  -28.9654   21.1544 H   0  0  0  0  0  0
  -25.9196  -25.8841   19.0805 H   0  0  0  0  0  0
  -23.9645  -27.2841   19.0603 H   0  0  0  0  0  0
  -23.7945  -30.6052   19.4104 H   0  0  0  0  0  0
  -22.7681  -29.2701   19.8369 H   0  0  0  0  0  0
  -25.1274  -36.1919   25.0810 H   0  0  0  0  0  0
  -21.0007  -28.3362   24.1345 H   0  0  0  0  0  0
  -20.5678  -26.2388   23.3627 H   0  0  0  0  0  0
  -21.6665  -26.7478   22.1211 H   0  0  0  0  0  0
  -19.6930  -25.6291   21.1289 H   0  0  0  0  0  0
  -19.6719  -27.3162   20.6689 H   0  0  0  0  0  0
  -17.4218  -26.6704   21.4014 H   0  0  0  0  0  0
  -18.0354  -26.0142   22.9031 H   0  0  0  0  0  0
  -19.7949  -30.7329   24.2232 H   0  0  0  0  0  0
  -17.5029  -31.6284   24.5204 H   0  0  0  0  0  0
  -15.5367  -30.3015   23.7691 H   0  0  0  0  0  0
  -15.8689  -28.0880   22.7035 H   0  0  0  0  0  0
  -24.5835  -30.7206   25.7837 H   0  0  0  0  0  0
  -24.8933  -32.3012   26.4930 H   0  0  0  0  0  0
  -25.7974  -30.8988   27.0308 H   0  0  0  0  0  0
  -26.3003  -29.6792   24.1267 H   0  0  0  0  0  0
  -27.3862  -29.7287   25.4955 H   0  0  0  0  0  0
  -27.8943  -30.4274   23.9756 H   0  0  0  0  0  0
  -27.2607  -33.3673   26.2177 H   0  0  0  0  0  0
  -28.3846  -32.6985   25.0441 H   0  0  0  0  0  0
  -28.0703  -31.8533   26.5527 H   0  0  0  0  0  0
  -28.2551  -38.0143   24.7531 H   0  0  0  0  0  0
  -28.1114  -36.2673   24.6209 H   0  0  0  0  0  0
  -27.2320  -37.1369   25.8862 H   0  0  0  0  0  0
  -20.9432  -29.8818   21.6796 H   0  0  0  0  0  0
  -26.0138  -38.2846   24.1454 H   0  0  0  0  0  0
  -27.5929  -19.7085   21.6718 H   0  0  0  0  0  0
  -27.9756  -23.8782   17.9511 H   0  0  0  0  0  0
  -29.3399  -24.9946   17.9648 H   0  0  0  0  0  0
  -27.7122  -25.6078   17.7950 H   0  0  0  0  0  0
  -27.4472  -23.1372   25.5426 H   0  0  0  0  0  0
  -29.1017  -23.5021   25.0722 H   0  0  0  0  0  0
  -28.5579  -21.8332   25.1553 H   0  0  0  0  0  0
  -25.7466  -22.3394   23.7868 H   0  0  0  0  0  0
  -26.8135  -20.9746   23.5179 H   0  0  0  0  0  0
  -26.2769  -21.9564   22.1609 H   0  0  0  0  0  0
  -26.7584  -24.7593   23.8801 H   0  0  0  0  0  0
  -26.8451  -24.4486   22.1786 H   0  0  0  0  0  0
  -28.2748  -25.0379   23.0367 H   0  0  0  0  0  0
  -29.9165  -22.9449   22.8275 H   0  0  0  0  0  0
  -29.2155  -21.3842   22.8636 H   0  0  0  0  0  0
  -27.8874  -22.2182   20.6714 H   0  0  0  0  0  0
  -27.2342  -24.6039   20.1470 H   0  0  0  0  0  0
  -30.6342  -21.5676   19.9955 H   0  0  0  0  0  0
  -28.8800  -15.3519   21.3114 H   0  0  0  0  0  0
  1 25  1  0  0  0
  1 30  2  0  0  0
  1 85  1  0  0  0
  2  3  1  0  0  0
  2 25  1  0  0  0
  2 88  1  0  0  0
  2 89  1  0  0  0
  3  4  1  0  0  0
  3 90  1  0  0  0
  3 91  1  0  0  0
  4  5  1  0  0  0
  4 92  1  0  0  0
  4 93  1  0  0  0
  5  6  1  0  0  0
  5 26  1  0  0  0
  5 94  1  0  0  0
  6 25  1  0  0  0
  6 95  1  0  0  0
  6 96  1  0  0  0
  7  8  2  0  0  0
  7 26  1  0  0  0
  7 29  1  0  0  0
  8  9  1  0  0  0
  8 22  1  0  0  0
  9 10  1  0  0  0
  9 27  2  0  0  0
 10 11  2  0  0  0
 10 15  1  0  0  0
 11 12  1  0  0  0
 11 97  1  0  0  0
 12 13  2  0  0  0
 12 98  1  0  0  0
 13 14  1  0  0  0
 13 31  1  0  0  0
 14 15  2  0  0  0
 14 99  1  0  0  0
 15100  1  0  0  0
 16 17  2  0  0  0
 16 21  1  0  0  0
 16 31  1  0  0  0
 17 18  1  0  0  0
 17101  1  0  0  0
 18 19  2  0  0  0
 18102  1  0  0  0
 19 20  1  0  0  0
 19 24  1  0  0  0
 20 21  2  0  0  0
 20103  1  0  0  0
 21 23  1  0  0  0
 22 28  1  0  0  0
 22 32  2  0  0  0
 26 27  1  0  0  0
 28104  1  0  0  0
 28105  1  0  0  0
 29106  1  0  0  0
 29107  1  0  0  0
 33 34  1  0  0  0
 33 66  1  0  0  0
 33 70  2  0  0  0
 34 36  1  0  0  0
 34 59  1  0  0  0
 34108  1  0  0  0
 35 44  2  0  0  0
 35 45  1  0  0  0
 35 68  1  0  0  0
 36 56  1  0  0  0
 36109  1  0  0  0
 37 39  1  0  0  0
 37 47  1  0  0  0
 37 66  1  0  0  0
 37110  1  0  0  0
 38 43  2  0  0  0
 38 46  1  0  0  0
 38 47  1  0  0  0
 39 64  1  0  0  0
 39 67  2  0  0  0
 40 52  1  0  0  0
 40 53  2  0  0  0
 40 58  1  0  0  0
 41111  1  0  0  0
 41112  1  0  0  0
 41113  1  0  0  0
 41 48  1  0  0  0
 42 43  1  0  0  0
 42 66  1  0  0  0
 42114  1  0  0  0
 42115  1  0  0  0
 43 44  1  0  0  0
 44116  1  0  0  0
 45 46  2  0  0  0
 45117  1  0  0  0
 46118  1  0  0  0
 47119  1  0  0  0
 47120  1  0  0  0
 48 56  1  0  0  0
 48 65  1  0  0  0
 48121  1  0  0  0
 49 50  1  0  0  0
 49 53  1  0  0  0
 49 64  1  0  0  0
 49122  1  0  0  0
 50 51  1  0  0  0
 50123  1  0  0  0
 50124  1  0  0  0
 51 52  1  0  0  0
 51125  1  0  0  0
 51126  1  0  0  0
 52127  1  0  0  0
 52128  1  0  0  0
 53 54  1  0  0  0
 54 55  2  0  0  0
 54129  1  0  0  0
 55 57  1  0  0  0
 55130  1  0  0  0
 56 69  2  0  0  0
 57 58  2  0  0  0
 57131  1  0  0  0
 58132  1  0  0  0
 59 60  1  0  0  0
 59 61  1  0  0  0
 59 62  1  0  0  0
 60133  1  0  0  0
 60134  1  0  0  0
 60135  1  0  0  0
 61136  1  0  0  0
 61137  1  0  0  0
 61138  1  0  0  0
 62139  1  0  0  0
 62140  1  0  0  0
 62141  1  0  0  0
 63 65  1  0  0  0
 63142  1  0  0  0
 63143  1  0  0  0
 63144  1  0  0  0
 64145  1  0  0  0
 65146  1  0  0  0
 68 81  1  0  0  0
 71 72  2  0  0  0
 71 83  1  0  0  0
 71147  1  0  0  0
 72 84  1  0  0  0
 72 87  1  0  0  0
 73 83  2  0  0  0
 73 85  1  0  0  0
 73 87  1  0  0  0
 74 80  1  0  0  0
 74 81  1  0  0  0
 74 86  2  0  0  0
 75148  1  0  0  0
 75149  1  0  0  0
 75150  1  0  0  0
 75 81  1  0  0  0
 76151  1  0  0  0
 76152  1  0  0  0
 76153  1  0  0  0
 76 82  1  0  0  0
 77 82  1  0  0  0
 77154  1  0  0  0
 77155  1  0  0  0
 77156  1  0  0  0
 78 82  1  0  0  0
 78157  1  0  0  0
 78158  1  0  0  0
 78159  1  0  0  0
 79 82  1  0  0  0
 79160  1  0  0  0
 79161  1  0  0  0
 79 80  1  0  0  0
 80 84  1  0  0  0
 80162  1  0  0  0
 81163  1  0  0  0
 84164  1  0  0  0
 85165  1  0  0  0
M  ISO  4   1 100  68 101  81 101  85 100
M  END
> <chiral flag>
0

> <version>
0

> <s_m_source_file>
/data/baiqing/PycharmProjects/Reinvent-master-3.2/result/LINK_invent/BTK/process_docking_weight1_custom_product_contain_oxygen_bond_distance_aromatic_linkinvent_7_9_3/rearranged_h_0185.sdf

> <i_m_source_file_index>
3

> <r_mmod_Potential_Energy-OPLS-2005>
212.584457397461

> <r_mmod_Stretch_Energy-OPLS-2005>
126.346580505371

> <r_mmod_Bend_Energy-OPLS-2005>
200.726211547852

> <r_mmod_Torsional_Energy-OPLS-2005>
215.220855712891

> <r_mmod_Improper_Torsional_Energy-OPLS-2005>
3.69740104675293

> <r_mmod_Van_der_Waal_Energy-OPLS-2005>
115.933288574219

> <r_mmod_Electrostatic_Energy-OPLS-2005>
-305.380493164062

> <r_mmod_Solvation_Energy-OPLS-2005>
-222.505676269531

> <b_mmod_Minimization_Converged-OPLS-2005>
0

> <r_mmod_RMS_Derivative-OPLS-2005>
3.19446873664856

$$$$
3
                    3D
 Structure written by MMmdl.
150158  0  0  1  0            999 V2000
  -30.4913  -15.0708   20.4530 C   0  0  0  0  0  0
  -30.4479  -12.6746   19.5140 C   0  0  0  0  0  0
  -29.5309  -12.5499   18.2728 C   0  0  0  0  0  0
  -28.0733  -12.3026   18.6999 C   0  0  0  0  0  0
  -27.6301  -13.2478   19.8458 C   0  0  2  0  0  0
  -28.6706  -13.3136   20.9801 C   0  0  0  0  0  0
  -25.2482  -13.8162   20.5722 C   0  0  0  0  0  0
  -24.1755  -13.0430   20.9232 C   0  0  0  0  0  0
  -24.6372  -11.6886   20.8753 C   0  0  0  0  0  0
  -23.9072  -10.4284   21.0410 C   0  0  0  0  0  0
  -24.3616   -9.4187   21.9196 C   0  0  0  0  0  0
  -23.6281   -8.2223   22.0766 C   0  0  0  0  0  0
  -22.4270   -8.0278   21.3548 C   0  0  0  0  0  0
  -21.9906   -9.0240   20.4655 C   0  0  0  0  0  0
  -22.7230  -10.2118   20.3062 C   0  0  0  0  0  0
  -21.6861   -6.0724   22.5258 C   0  0  0  0  0  0
  -21.4015   -6.5639   23.8202 C   0  0  0  0  0  0
  -21.3650   -5.6791   24.9177 C   0  0  0  0  0  0
  -21.6047   -4.3051   24.7225 C   0  0  0  0  0  0
  -21.8810   -3.8135   23.4357 C   0  0  0  0  0  0
  -21.9193   -4.6951   22.3411 C   0  0  0  0  0  0
  -22.7794  -13.5205   21.1901 C   0  0  0  0  0  0
  -22.1656   -4.2134   21.0990 F   0  0  0  0  0  0
  -21.5636   -3.4536   25.7753 F   0  0  0  0  0  0
  -29.9215  -13.7846   20.3718 N   0  0  0  0  0  0
  -26.2914  -12.9413   20.3303 N   0  0  0  0  0  0
  -25.9331  -11.6569   20.5772 N   0  0  0  0  0  0
  -22.0432  -12.8195   22.0439 N   0  0  0  0  0  0
  -25.4156  -15.1925   20.4173 N   0  0  0  0  0  0
  -31.7075  -15.1288   20.2242 O   0  0  0  0  0  0
  -21.6629   -6.8853   21.4234 O   0  0  0  0  0  0
  -22.3502  -14.5495   20.6718 O   0  0  0  0  0  0
  -24.6460  -31.8396   23.1828 C   0  0  0  0  0  0
  -25.9255  -32.4661   23.8238 C   0  0  1  0  0  0
  -27.1790  -27.0211   20.2179 C   0  0  0  0  0  0
  -25.5959  -33.8432   24.2110 N   0  0  0  0  0  0
  -23.4542  -30.4579   21.5189 C   0  0  2  0  0  0
  -24.9091  -28.8760   20.1095 C   0  0  0  0  0  0
  -22.7585  -29.4518   22.4706 C   0  0  0  0  0  0
  -18.0329  -28.1394   22.8466 C   0  0  0  0  0  0
  -24.1503  -36.7240   23.2646 C   0  0  0  0  0  0
  -26.0203  -30.6751   21.4040 C   0  0  0  0  0  0
  -26.0841  -29.2768   20.7573 C   0  0  0  0  0  0
  -27.2180  -28.3654   20.8030 C   0  0  0  0  0  0
  -26.0137  -26.7930   19.4546 C   0  0  0  0  0  0
  -24.8933  -27.6464   19.4418 C   0  0  0  0  0  0
  -23.6960  -29.7946   20.1394 C   0  0  0  0  0  0
  -25.4142  -36.2987   24.0312 C   0  0  1  0  0  0
  -20.5972  -28.3767   23.1185 C   0  0  2  0  0  0
  -20.6842  -26.9451   22.5410 C   0  0  0  0  0  0
  -19.5777  -26.6362   21.5218 C   0  0  0  0  0  0
  -18.1957  -26.7964   22.1633 C   0  0  0  0  0  0
  -19.1613  -28.8868   23.2853 C   0  0  0  0  0  0
  -18.9542  -30.1487   23.8853 C   0  0  0  0  0  0
  -17.6541  -30.6599   24.0576 C   0  0  0  0  0  0
  -25.9075  -34.9367   23.5016 C   0  0  0  0  0  0
  -16.5405  -29.9124   23.6339 C   0  0  0  0  0  0
  -16.7326  -28.6550   23.0332 C   0  0  0  0  0  0
  -26.4510  -31.6528   25.0661 C   0  0  0  0  0  0
  -25.3670  -31.3812   26.1332 C   0  0  0  0  0  0
  -27.0434  -30.2918   24.6348 C   0  0  0  0  0  0
  -27.6034  -32.4292   25.7448 C   0  0  0  0  0  0
  -27.5578  -37.1781   24.8482 C   0  0  0  0  0  0
  -21.4267  -29.3091   22.3538 N   0  0  0  0  0  0
  -26.4313  -37.3711   23.9409 N   0  0  0  0  0  0
  -24.7270  -31.0216   22.0881 N   0  0  0  0  0  0
  -23.4236  -28.8037   23.2849 O   0  0  0  0  0  0
  -28.1579  -25.9317   20.3062 O   0  0  0  0  0  0
  -26.5700  -34.8879   22.4606 O   0  0  0  0  0  0
  -23.5548  -32.1286   23.6956 O   0  0  0  0  0  0
  -30.3313  -20.1362   21.8196 C   0  0  0  0  0  0
  -29.3593  -20.3060   20.8372 C   0  0  0  0  0  0
  -29.8478  -17.8037   20.7582 C   0  0  0  0  0  0
  -28.9185  -23.0993   20.6723 C   0  0  0  0  0  0
  -26.4386  -23.8529   20.2346 C   0  0  0  0  0  0
  -27.8151  -24.3994   20.6875 C   0  0  2  0  0  0
  -30.8446  -21.1316   22.8253 C   0  0  0  0  0  0
  -29.0835  -18.9183   20.3128 N   0  0  0  0  0  0
  -28.6310  -21.6801   20.5538 N   0  0  0  0  0  0
  -29.6697  -16.2657   20.5157 N   0  0  0  0  0  0
  -30.0949  -23.4388   20.8117 O   0  0  0  0  0  0
  -31.8350  -21.8650   22.3295 F   0  0  0  0  0  0
  -29.8925  -21.9415   23.2831 F   0  0  0  0  0  0
  -31.3365  -20.5251   23.9064 F   0  0  0  0  0  0
  -30.9912  -18.4662   21.9280 S   0  0  0  0  0  0
  -31.4780  -12.8508   19.2040 H   0  0  0  0  0  0
  -30.4711  -11.7320   20.0661 H   0  0  0  0  0  0
  -29.8743  -11.7478   17.6206 H   0  0  0  0  0  0
  -29.5862  -13.4668   17.6876 H   0  0  0  0  0  0
  -28.0048  -11.2675   19.0400 H   0  0  0  0  0  0
  -27.3964  -12.3830   17.8476 H   0  0  0  0  0  0
  -27.5828  -14.2393   19.3975 H   0  0  0  0  0  0
  -28.8000  -12.3346   21.4479 H   0  0  0  0  0  0
  -28.3521  -13.9899   21.7754 H   0  0  0  0  0  0
  -25.2767   -9.5676   22.4780 H   0  0  0  0  0  0
  -23.9987   -7.4624   22.7493 H   0  0  0  0  0  0
  -21.0829   -8.8747   19.8970 H   0  0  0  0  0  0
  -22.3664  -10.9669   19.6159 H   0  0  0  0  0  0
  -21.1991   -7.6138   23.9703 H   0  0  0  0  0  0
  -21.1490   -6.0533   25.9084 H   0  0  0  0  0  0
  -22.0599   -2.7599   23.2867 H   0  0  0  0  0  0
  -22.4075  -11.9852   22.4777 H   0  0  0  0  0  0
  -21.1077  -13.1235   22.2662 H   0  0  0  0  0  0
  -24.6460  -15.8456   20.5400 H   0  0  0  0  0  0
  -26.2477  -15.6322   20.0441 H   0  0  0  0  0  0
  -26.7255  -32.5207   23.0902 H   0  0  0  0  0  0
  -25.0091  -33.9549   25.0226 H   0  0  0  0  0  0
  -22.7621  -31.2892   21.3571 H   0  0  0  0  0  0
  -23.3758  -35.9589   23.3290 H   0  0  0  0  0  0
  -24.3612  -36.8864   22.2081 H   0  0  0  0  0  0
  -23.7306  -37.6427   23.6688 H   0  0  0  0  0  0
  -26.2026  -31.4226   20.6299 H   0  0  0  0  0  0
  -26.8826  -30.7219   22.0595 H   0  0  0  0  0  0
  -28.0913  -28.6615   21.3620 H   0  0  0  0  0  0
  -25.9300  -25.8902   18.8773 H   0  0  0  0  0  0
  -24.0096  -27.3421   18.9014 H   0  0  0  0  0  0
  -23.8595  -30.5724   19.3907 H   0  0  0  0  0  0
  -22.8094  -29.2530   19.8073 H   0  0  0  0  0  0
  -25.1332  -36.1782   25.0816 H   0  0  0  0  0  0
  -21.0093  -28.3351   24.1281 H   0  0  0  0  0  0
  -20.5740  -26.2349   23.3627 H   0  0  0  0  0  0
  -21.6704  -26.7429   22.1176 H   0  0  0  0  0  0
  -19.6990  -25.6254   21.1253 H   0  0  0  0  0  0
  -19.6750  -27.3184   20.6736 H   0  0  0  0  0  0
  -17.4266  -26.6690   21.4015 H   0  0  0  0  0  0
  -18.0385  -26.0111   22.9021 H   0  0  0  0  0  0
  -19.8024  -30.7319   24.2165 H   0  0  0  0  0  0
  -17.5111  -31.6268   24.5202 H   0  0  0  0  0  0
  -15.5435  -30.3018   23.7686 H   0  0  0  0  0  0
  -15.8722  -28.0869   22.7027 H   0  0  0  0  0  0
  -24.5842  -30.7160   25.7650 H   0  0  0  0  0  0
  -24.8885  -32.3036   26.4596 H   0  0  0  0  0  0
  -25.7902  -30.9065   27.0202 H   0  0  0  0  0  0
  -26.3120  -29.6546   24.1342 H   0  0  0  0  0  0
  -27.4033  -29.7270   25.4966 H   0  0  0  0  0  0
  -27.8991  -30.4102   23.9713 H   0  0  0  0  0  0
  -27.2637  -33.3663   26.1880 H   0  0  0  0  0  0
  -28.3924  -32.6729   25.0312 H   0  0  0  0  0  0
  -28.0591  -31.8488   26.5483 H   0  0  0  0  0  0
  -28.2561  -38.0085   24.7473 H   0  0  0  0  0  0
  -28.1080  -36.2614   24.6338 H   0  0  0  0  0  0
  -27.2295  -37.1459   25.8876 H   0  0  0  0  0  0
  -20.9443  -29.8841   21.6756 H   0  0  0  0  0  0
  -26.0132  -38.2750   24.1399 H   0  0  0  0  0  0
  -26.2290  -22.8787   20.6807 H   0  0  0  0  0  0
  -26.4060  -23.7334   19.1481 H   0  0  0  0  0  0
  -25.6049  -24.4810   20.5562 H   0  0  0  0  0  0
  -27.6750  -24.5316   21.7612 H   0  0  0  0  0  0
  -27.6859  -21.5413   20.2224 H   0  0  0  0  0  0
  -28.6963  -16.0130   20.4623 H   0  0  0  0  0  0
  1 25  1  0  0  0
  1 30  2  0  0  0
  1 80  1  0  0  0
  2  3  1  0  0  0
  2 25  1  0  0  0
  2 86  1  0  0  0
  2 87  1  0  0  0
  3  4  1  0  0  0
  3 88  1  0  0  0
  3 89  1  0  0  0
  4  5  1  0  0  0
  4 90  1  0  0  0
  4 91  1  0  0  0
  5  6  1  0  0  0
  5 26  1  0  0  0
  5 92  1  0  0  0
  6 25  1  0  0  0
  6 93  1  0  0  0
  6 94  1  0  0  0
  7  8  2  0  0  0
  7 26  1  0  0  0
  7 29  1  0  0  0
  8  9  1  0  0  0
  8 22  1  0  0  0
  9 10  1  0  0  0
  9 27  2  0  0  0
 10 11  2  0  0  0
 10 15  1  0  0  0
 11 12  1  0  0  0
 11 95  1  0  0  0
 12 13  2  0  0  0
 12 96  1  0  0  0
 13 14  1  0  0  0
 13 31  1  0  0  0
 14 15  2  0  0  0
 14 97  1  0  0  0
 15 98  1  0  0  0
 16 17  2  0  0  0
 16 21  1  0  0  0
 16 31  1  0  0  0
 17 18  1  0  0  0
 17 99  1  0  0  0
 18 19  2  0  0  0
 18100  1  0  0  0
 19 20  1  0  0  0
 19 24  1  0  0  0
 20 21  2  0  0  0
 20101  1  0  0  0
 21 23  1  0  0  0
 22 28  1  0  0  0
 22 32  2  0  0  0
 26 27  1  0  0  0
 28102  1  0  0  0
 28103  1  0  0  0
 29104  1  0  0  0
 29105  1  0  0  0
 33 34  1  0  0  0
 33 66  1  0  0  0
 33 70  2  0  0  0
 34 36  1  0  0  0
 34 59  1  0  0  0
 34106  1  0  0  0
 35 44  2  0  0  0
 35 45  1  0  0  0
 35 68  1  0  0  0
 36 56  1  0  0  0
 36107  1  0  0  0
 37 39  1  0  0  0
 37 47  1  0  0  0
 37 66  1  0  0  0
 37108  1  0  0  0
 38 43  2  0  0  0
 38 46  1  0  0  0
 38 47  1  0  0  0
 39 64  1  0  0  0
 39 67  2  0  0  0
 40 52  1  0  0  0
 40 53  2  0  0  0
 40 58  1  0  0  0
 41109  1  0  0  0
 41110  1  0  0  0
 41111  1  0  0  0
 41 48  1  0  0  0
 42 43  1  0  0  0
 42 66  1  0  0  0
 42112  1  0  0  0
 42113  1  0  0  0
 43 44  1  0  0  0
 44114  1  0  0  0
 45 46  2  0  0  0
 45115  1  0  0  0
 46116  1  0  0  0
 47117  1  0  0  0
 47118  1  0  0  0
 48 56  1  0  0  0
 48 65  1  0  0  0
 48119  1  0  0  0
 49 50  1  0  0  0
 49 53  1  0  0  0
 49 64  1  0  0  0
 49120  1  0  0  0
 50 51  1  0  0  0
 50121  1  0  0  0
 50122  1  0  0  0
 51 52  1  0  0  0
 51123  1  0  0  0
 51124  1  0  0  0
 52125  1  0  0  0
 52126  1  0  0  0
 53 54  1  0  0  0
 54 55  2  0  0  0
 54127  1  0  0  0
 55 57  1  0  0  0
 55128  1  0  0  0
 56 69  2  0  0  0
 57 58  2  0  0  0
 57129  1  0  0  0
 58130  1  0  0  0
 59 60  1  0  0  0
 59 61  1  0  0  0
 59 62  1  0  0  0
 60131  1  0  0  0
 60132  1  0  0  0
 60133  1  0  0  0
 61134  1  0  0  0
 61135  1  0  0  0
 61136  1  0  0  0
 62137  1  0  0  0
 62138  1  0  0  0
 62139  1  0  0  0
 63 65  1  0  0  0
 63140  1  0  0  0
 63141  1  0  0  0
 63142  1  0  0  0
 64143  1  0  0  0
 65144  1  0  0  0
 68 76  1  0  0  0
 71 72  2  0  0  0
 71 77  1  0  0  0
 71 85  1  0  0  0
 72 78  1  0  0  0
 72 79  1  0  0  0
 73 78  2  0  0  0
 73 80  1  0  0  0
 73 85  1  0  0  0
 74 76  1  0  0  0
 74 79  1  0  0  0
 74 81  2  0  0  0
 75145  1  0  0  0
 75146  1  0  0  0
 75147  1  0  0  0
 75 76  1  0  0  0
 76148  1  0  0  0
 77 82  1  0  0  0
 77 83  1  0  0  0
 77 84  1  0  0  0
 79149  1  0  0  0
 80150  1  0  0  0
M  ISO  4   1 100  68 101  76 101  80 100
M  END
> <chiral flag>
0

> <version>
0

> <s_m_source_file>
/data/baiqing/PycharmProjects/Reinvent-master-3.2/result/LINK_invent/BTK/process_docking_weight1_custom_product_contain_oxygen_bond_distance_aromatic_linkinvent_7_9_3/rearranged_h_0185.sdf

> <i_m_source_file_index>
4

> <r_mmod_Potential_Energy-OPLS-2005>
718.416748046875

> <r_mmod_Stretch_Energy-OPLS-2005>
370.117950439453

> <r_mmod_Bend_Energy-OPLS-2005>
323.348724365234

> <r_mmod_Torsional_Energy-OPLS-2005>
262.961761474609

> <r_mmod_Improper_Torsional_Energy-OPLS-2005>
7.94808340072632

> <r_mmod_Van_der_Waal_Energy-OPLS-2005>
117.867042541504

> <r_mmod_Electrostatic_Energy-OPLS-2005>
-433.518249511719

> <r_mmod_Solvation_Energy-OPLS-2005>
-238.19416809082

> <b_mmod_Minimization_Converged-OPLS-2005>
0

> <r_mmod_RMS_Derivative-OPLS-2005>
8.56253910064697

$$$$
4
                    3D
 Structure written by MMmdl.
164172  0  0  1  0            999 V2000
  -30.6981  -14.5216   20.4922 C   0  0  0  0  0  0
  -30.4193  -12.3107   19.4425 C   0  0  0  0  0  0
  -29.5016  -12.4859   18.2133 C   0  0  0  0  0  0
  -28.0213  -12.3499   18.6209 C   0  0  0  0  0  0
  -27.6564  -13.2133   19.8581 C   0  0  2  0  0  0
  -28.6997  -13.0449   20.9870 C   0  0  0  0  0  0
  -25.2559  -13.8178   20.5649 C   0  0  0  0  0  0
  -24.1822  -13.0445   20.9178 C   0  0  0  0  0  0
  -24.6399  -11.6920   20.8742 C   0  0  0  0  0  0
  -23.9065  -10.4302   21.0399 C   0  0  0  0  0  0
  -24.3630   -9.4215   21.9168 C   0  0  0  0  0  0
  -23.6314   -8.2241   22.0741 C   0  0  0  0  0  0
  -22.4294   -8.0283   21.3530 C   0  0  0  0  0  0
  -21.9921   -9.0257   20.4633 C   0  0  0  0  0  0
  -22.7244  -10.2138   20.3038 C   0  0  0  0  0  0
  -21.6843   -6.0740   22.5297 C   0  0  0  0  0  0
  -21.4003   -6.5642   23.8233 C   0  0  0  0  0  0
  -21.3658   -5.6789   24.9189 C   0  0  0  0  0  0
  -21.6052   -4.3057   24.7227 C   0  0  0  0  0  0
  -21.8815   -3.8146   23.4347 C   0  0  0  0  0  0
  -21.9182   -4.6964   22.3407 C   0  0  0  0  0  0
  -22.7832  -13.5229   21.1847 C   0  0  0  0  0  0
  -22.1646   -4.2147   21.0980 F   0  0  0  0  0  0
  -21.5639   -3.4545   25.7738 F   0  0  0  0  0  0
  -30.0287  -13.3337   20.4272 N   0  0  0  0  0  0
  -26.2991  -12.9360   20.3273 N   0  0  0  0  0  0
  -25.9325  -11.6522   20.5729 N   0  0  0  0  0  0
  -22.0461  -12.8243   22.0417 N   0  0  0  0  0  0
  -25.4293  -15.1899   20.4097 N   0  0  0  0  0  0
  -31.8688  -14.6218   20.1190 O   0  0  0  0  0  0
  -21.6636   -6.8891   21.4260 O   0  0  0  0  0  0
  -22.3518  -14.5534   20.6684 O   0  0  0  0  0  0
  -24.6208  -31.8675   23.2103 C   0  0  0  0  0  0
  -25.9102  -32.4816   23.8397 C   0  0  1  0  0  0
  -27.2283  -27.3911   20.0799 C   0  0  0  0  0  0
  -25.5957  -33.8612   24.2339 N   0  0  0  0  0  0
  -23.4084  -30.4946   21.5516 C   0  0  2  0  0  0
  -24.8498  -28.9604   20.1184 C   0  0  0  0  0  0
  -22.7431  -29.4673   22.4969 C   0  0  0  0  0  0
  -18.0274  -28.1355   22.8489 C   0  0  0  0  0  0
  -24.1506  -36.7302   23.2631 C   0  0  0  0  0  0
  -25.9438  -30.8188   21.3692 C   0  0  0  0  0  0
  -26.0163  -29.4494   20.7124 C   0  0  0  0  0  0
  -27.2061  -28.6736   20.6913 C   0  0  0  0  0  0
  -26.0256  -26.9316   19.4878 C   0  0  0  0  0  0
  -24.8501  -27.6994   19.5040 C   0  0  0  0  0  0
  -23.6173  -29.8344   20.1652 C   0  0  0  0  0  0
  -25.4127  -36.3108   24.0341 C   0  0  1  0  0  0
  -20.5872  -28.3666   23.1305 C   0  0  2  0  0  0
  -20.6776  -26.9406   22.5412 C   0  0  0  0  0  0
  -19.5758  -26.6383   21.5203 C   0  0  0  0  0  0
  -18.1928  -26.7911   22.1607 C   0  0  0  0  0  0
  -19.1528  -28.8815   23.2899 C   0  0  0  0  0  0
  -18.9459  -30.1410   23.8927 C   0  0  0  0  0  0
  -17.6472  -30.6572   24.0545 C   0  0  0  0  0  0
  -25.9055  -34.9472   23.5138 C   0  0  0  0  0  0
  -16.5356  -29.9091   23.6298 C   0  0  0  0  0  0
  -16.7269  -28.6485   23.0363 C   0  0  0  0  0  0
  -26.4487  -31.6581   25.0721 C   0  0  0  0  0  0
  -25.3721  -31.3706   26.1451 C   0  0  0  0  0  0
  -27.0271  -30.3013   24.6069 C   0  0  0  0  0  0
  -27.6072  -32.4274   25.7484 C   0  0  0  0  0  0
  -27.5597  -37.1817   24.8461 C   0  0  0  0  0  0
  -21.4163  -29.3045   22.3714 N   0  0  0  0  0  0
  -26.4306  -37.3806   23.9409 N   0  0  0  0  0  0
  -24.6753  -31.0753   22.1006 N   0  0  0  0  0  0
  -23.4196  -28.8213   23.3016 O   0  0  0  0  0  0
  -28.4006  -26.6320   20.0876 O   0  0  0  0  0  0
  -26.5607  -34.8930   22.4692 O   0  0  0  0  0  0
  -23.5399  -32.1422   23.7492 O   0  0  0  0  0  0
  -30.9059  -19.1785   19.5627 C   0  0  0  0  0  0
  -29.8128  -19.2560   20.3959 C   0  0  0  0  0  0
  -30.2265  -16.9728   20.4608 C   0  0  0  0  0  0
  -29.5798  -21.8961   20.4904 C   0  0  0  0  0  0
  -28.2792  -24.1440   15.7321 C   0  0  0  0  0  0
  -29.8527  -26.1449   17.5867 C   0  0  0  0  0  0
  -29.8686  -24.7750   21.6111 C   0  0  0  0  0  0
  -28.9967  -20.4936   20.7736 C   0  0  0  0  0  0
  -28.4251  -24.0394   17.2589 C   0  0  0  0  0  0
  -28.5652  -25.3962   17.9863 C   0  0  1  0  0  0
  -29.4382  -24.2911   20.2165 C   0  0  2  0  0  0
  -28.4067  -25.2810   19.5374 C   0  0  1  0  0  0
  -29.4412  -17.9793   20.8908 N   0  0  0  0  0  0
  -28.8461  -22.9431   20.3527 N   0  0  0  0  0  0
  -29.9640  -15.6091   20.8268 N   0  0  0  0  0  0
  -31.5005  -17.5456   19.3779 S   0  0  0  0  0  0
  -31.4666  -12.3830   19.1470 H   0  0  0  0  0  0
  -30.3038  -11.3116   19.8677 H   0  0  0  0  0  0
  -29.7539  -11.7452   17.4522 H   0  0  0  0  0  0
  -29.6706  -13.4631   17.7555 H   0  0  0  0  0  0
  -27.8427  -11.2968   18.8414 H   0  0  0  0  0  0
  -27.3719  -12.5877   17.7784 H   0  0  0  0  0  0
  -27.6873  -14.2523   19.5291 H   0  0  0  0  0  0
  -28.6780  -12.0232   21.3688 H   0  0  0  0  0  0
  -28.4664  -13.6875   21.8377 H   0  0  0  0  0  0
  -25.2771   -9.5696   22.4750 H   0  0  0  0  0  0
  -24.0027   -7.4625   22.7458 H   0  0  0  0  0  0
  -21.0843   -8.8776   19.8953 H   0  0  0  0  0  0
  -22.3698  -10.9678   19.6154 H   0  0  0  0  0  0
  -21.2002   -7.6152   23.9747 H   0  0  0  0  0  0
  -21.1480   -6.0507   25.9095 H   0  0  0  0  0  0
  -22.0600   -2.7609   23.2842 H   0  0  0  0  0  0
  -22.4044  -11.9918   22.4860 H   0  0  0  0  0  0
  -21.1063  -13.1269   22.2566 H   0  0  0  0  0  0
  -24.6712  -15.8511   20.5384 H   0  0  0  0  0  0
  -26.2889  -15.6340   20.1123 H   0  0  0  0  0  0
  -26.7186  -32.5511   23.1164 H   0  0  0  0  0  0
  -25.0149  -33.9760   25.0518 H   0  0  0  0  0  0
  -22.6978  -31.3132   21.4147 H   0  0  0  0  0  0
  -23.3778  -35.9631   23.3298 H   0  0  0  0  0  0
  -24.3621  -36.8878   22.2042 H   0  0  0  0  0  0
  -23.7237  -37.6508   23.6631 H   0  0  0  0  0  0
  -26.0674  -31.5868   20.6040 H   0  0  0  0  0  0
  -26.8296  -30.8681   21.9907 H   0  0  0  0  0  0
  -28.1070  -29.0529   21.1536 H   0  0  0  0  0  0
  -25.9455  -25.9782   18.9921 H   0  0  0  0  0  0
  -23.9550  -27.3146   19.0369 H   0  0  0  0  0  0
  -23.7411  -30.6127   19.4107 H   0  0  0  0  0  0
  -22.7344  -29.2681   19.8617 H   0  0  0  0  0  0
  -25.1305  -36.1974   25.0839 H   0  0  0  0  0  0
  -20.9946  -28.3244   24.1433 H   0  0  0  0  0  0
  -20.5657  -26.2288   23.3606 H   0  0  0  0  0  0
  -21.6658  -26.7454   22.1222 H   0  0  0  0  0  0
  -19.6939  -25.6300   21.1229 H   0  0  0  0  0  0
  -19.6696  -27.3190   20.6732 H   0  0  0  0  0  0
  -17.4206  -26.6645   21.4000 H   0  0  0  0  0  0
  -18.0331  -26.0041   22.8987 H   0  0  0  0  0  0
  -19.7947  -30.7180   24.2339 H   0  0  0  0  0  0
  -17.5046  -31.6259   24.5143 H   0  0  0  0  0  0
  -15.5363  -30.3013   23.7586 H   0  0  0  0  0  0
  -15.8669  -28.0790   22.7116 H   0  0  0  0  0  0
  -24.5971  -30.6947   25.7817 H   0  0  0  0  0  0
  -24.8818  -32.2850   26.4813 H   0  0  0  0  0  0
  -25.8061  -30.8982   27.0267 H   0  0  0  0  0  0
  -26.2788  -29.6817   24.1103 H   0  0  0  0  0  0
  -27.4009  -29.7200   25.4502 H   0  0  0  0  0  0
  -27.8669  -30.4323   23.9237 H   0  0  0  0  0  0
  -27.2734  -33.3604   26.2062 H   0  0  0  0  0  0
  -28.3905  -32.6759   25.0303 H   0  0  0  0  0  0
  -28.0732  -31.8369   26.5391 H   0  0  0  0  0  0
  -28.2607  -38.0120   24.7530 H   0  0  0  0  0  0
  -28.1079  -36.2646   24.6254 H   0  0  0  0  0  0
  -27.2309  -37.1425   25.8858 H   0  0  0  0  0  0
  -20.9309  -29.8779   21.6950 H   0  0  0  0  0  0
  -26.0180  -38.2877   24.1422 H   0  0  0  0  0  0
  -31.3928  -19.9805   19.0226 H   0  0  0  0  0  0
  -30.6712  -21.9448   20.4617 H   0  0  0  0  0  0
  -28.0954  -23.1596   15.3004 H   0  0  0  0  0  0
  -29.1804  -24.5402   15.2643 H   0  0  0  0  0  0
  -27.4451  -24.7862   15.4512 H   0  0  0  0  0  0
  -29.8734  -26.3611   16.5181 H   0  0  0  0  0  0
  -30.7501  -25.5750   17.8255 H   0  0  0  0  0  0
  -29.9239  -27.1057   18.0976 H   0  0  0  0  0  0
  -30.3385  -25.7571   21.5574 H   0  0  0  0  0  0
  -30.6054  -24.1069   22.0602 H   0  0  0  0  0  0
  -29.0173  -24.8468   22.2905 H   0  0  0  0  0  0
  -28.7967  -20.4570   21.8456 H   0  0  0  0  0  0
  -28.0171  -20.4358   20.2955 H   0  0  0  0  0  0
  -29.2736  -23.3966   17.4910 H   0  0  0  0  0  0
  -27.5465  -23.5218   17.6446 H   0  0  0  0  0  0
  -27.7405  -26.0099   17.6251 H   0  0  0  0  0  0
  -30.3455  -24.2515   19.6097 H   0  0  0  0  0  0
  -27.4421  -24.8307   19.7666 H   0  0  0  0  0  0
  -29.0526  -15.4289   21.2146 H   0  0  0  0  0  0
  1 25  1  0  0  0
  1 30  2  0  0  0
  1 85  1  0  0  0
  2  3  1  0  0  0
  2 25  1  0  0  0
  2 87  1  0  0  0
  2 88  1  0  0  0
  3  4  1  0  0  0
  3 89  1  0  0  0
  3 90  1  0  0  0
  4  5  1  0  0  0
  4 91  1  0  0  0
  4 92  1  0  0  0
  5  6  1  0  0  0
  5 26  1  0  0  0
  5 93  1  0  0  0
  6 25  1  0  0  0
  6 94  1  0  0  0
  6 95  1  0  0  0
  7  8  2  0  0  0
  7 26  1  0  0  0
  7 29  1  0  0  0
  8  9  1  0  0  0
  8 22  1  0  0  0
  9 10  1  0  0  0
  9 27  2  0  0  0
 10 11  2  0  0  0
 10 15  1  0  0  0
 11 12  1  0  0  0
 11 96  1  0  0  0
 12 13  2  0  0  0
 12 97  1  0  0  0
 13 14  1  0  0  0
 13 31  1  0  0  0
 14 15  2  0  0  0
 14 98  1  0  0  0
 15 99  1  0  0  0
 16 17  2  0  0  0
 16 21  1  0  0  0
 16 31  1  0  0  0
 17 18  1  0  0  0
 17100  1  0  0  0
 18 19  2  0  0  0
 18101  1  0  0  0
 19 20  1  0  0  0
 19 24  1  0  0  0
 20 21  2  0  0  0
 20102  1  0  0  0
 21 23  1  0  0  0
 22 28  1  0  0  0
 22 32  2  0  0  0
 26 27  1  0  0  0
 28103  1  0  0  0
 28104  1  0  0  0
 29105  1  0  0  0
 29106  1  0  0  0
 33 34  1  0  0  0
 33 66  1  0  0  0
 33 70  2  0  0  0
 34 36  1  0  0  0
 34 59  1  0  0  0
 34107  1  0  0  0
 35 44  2  0  0  0
 35 45  1  0  0  0
 35 68  1  0  0  0
 36 56  1  0  0  0
 36108  1  0  0  0
 37 39  1  0  0  0
 37 47  1  0  0  0
 37 66  1  0  0  0
 37109  1  0  0  0
 38 43  2  0  0  0
 38 46  1  0  0  0
 38 47  1  0  0  0
 39 64  1  0  0  0
 39 67  2  0  0  0
 40 52  1  0  0  0
 40 53  2  0  0  0
 40 58  1  0  0  0
 41110  1  0  0  0
 41111  1  0  0  0
 41112  1  0  0  0
 41 48  1  0  0  0
 42 43  1  0  0  0
 42 66  1  0  0  0
 42113  1  0  0  0
 42114  1  0  0  0
 43 44  1  0  0  0
 44115  1  0  0  0
 45 46  2  0  0  0
 45116  1  0  0  0
 46117  1  0  0  0
 47118  1  0  0  0
 47119  1  0  0  0
 48 56  1  0  0  0
 48 65  1  0  0  0
 48120  1  0  0  0
 49 50  1  0  0  0
 49 53  1  0  0  0
 49 64  1  0  0  0
 49121  1  0  0  0
 50 51  1  0  0  0
 50122  1  0  0  0
 50123  1  0  0  0
 51 52  1  0  0  0
 51124  1  0  0  0
 51125  1  0  0  0
 52126  1  0  0  0
 52127  1  0  0  0
 53 54  1  0  0  0
 54 55  2  0  0  0
 54128  1  0  0  0
 55 57  1  0  0  0
 55129  1  0  0  0
 56 69  2  0  0  0
 57 58  2  0  0  0
 57130  1  0  0  0
 58131  1  0  0  0
 59 60  1  0  0  0
 59 61  1  0  0  0
 59 62  1  0  0  0
 60132  1  0  0  0
 60133  1  0  0  0
 60134  1  0  0  0
 61135  1  0  0  0
 61136  1  0  0  0
 61137  1  0  0  0
 62138  1  0  0  0
 62139  1  0  0  0
 62140  1  0  0  0
 63 65  1  0  0  0
 63141  1  0  0  0
 63142  1  0  0  0
 63143  1  0  0  0
 64144  1  0  0  0
 65145  1  0  0  0
 68 82  1  0  0  0
 71 72  2  0  0  0
 71 86  1  0  0  0
 71146  1  0  0  0
 72 78  1  0  0  0
 72 83  1  0  0  0
 73 83  2  0  0  0
 73 85  1  0  0  0
 73 86  1  0  0  0
 74 78  1  0  0  0
 74 84  2  0  0  0
 74147  1  0  0  0
 75 79  1  0  0  0
 75148  1  0  0  0
 75149  1  0  0  0
 75150  1  0  0  0
 76151  1  0  0  0
 76152  1  0  0  0
 76153  1  0  0  0
 76 80  1  0  0  0
 77154  1  0  0  0
 77155  1  0  0  0
 77156  1  0  0  0
 77 81  1  0  0  0
 78157  1  0  0  0
 78158  1  0  0  0
 79 80  1  0  0  0
 79159  1  0  0  0
 79160  1  0  0  0
 80 82  1  0  0  0
 80161  1  0  0  0
 81 82  1  0  0  0
 81 84  1  0  0  0
 81162  1  0  0  0
 82163  1  0  0  0
 85164  1  0  0  0
M  ISO  4   1 100  68 101  82 101  85 100
M  END
> <chiral flag>
0

> <version>
0

> <s_m_source_file>
/data/baiqing/PycharmProjects/Reinvent-master-3.2/result/LINK_invent/BTK/process_docking_weight1_custom_product_contain_oxygen_bond_distance_aromatic_linkinvent_7_9_3/rearranged_h_0185.sdf

> <i_m_source_file_index>
5

> <r_mmod_Potential_Energy-OPLS-2005>
-27.6265773773193

> <r_mmod_Stretch_Energy-OPLS-2005>
52.3782234191895

> <r_mmod_Bend_Energy-OPLS-2005>
120.089958190918

> <r_mmod_Torsional_Energy-OPLS-2005>
219.768127441406

> <r_mmod_Improper_Torsional_Energy-OPLS-2005>
4.31984519958496

> <r_mmod_Van_der_Waal_Energy-OPLS-2005>
139.156234741211

> <r_mmod_Electrostatic_Energy-OPLS-2005>
-379.314147949219

> <r_mmod_Solvation_Energy-OPLS-2005>
-206.849487304688

> <b_mmod_Minimization_Converged-OPLS-2005>
0

> <r_mmod_RMS_Derivative-OPLS-2005>
3.70303845405579

$$$$
5
                    3D
 Structure written by MMmdl.
155163  0  0  1  0            999 V2000
  -30.6139  -14.7280   20.4624 C   0  0  0  0  0  0
  -30.4329  -12.4395   19.4885 C   0  0  0  0  0  0
  -29.5173  -12.5134   18.2453 C   0  0  0  0  0  0
  -28.0399  -12.3417   18.6500 C   0  0  0  0  0  0
  -27.6463  -13.2340   19.8585 C   0  0  2  0  0  0
  -28.6867  -13.1503   20.9998 C   0  0  0  0  0  0
  -25.2501  -13.8203   20.5690 C   0  0  0  0  0  0
  -24.1793  -13.0444   20.9198 C   0  0  0  0  0  0
  -24.6388  -11.6921   20.8739 C   0  0  0  0  0  0
  -23.9078  -10.4290   21.0401 C   0  0  0  0  0  0
  -24.3623   -9.4208   21.9190 C   0  0  0  0  0  0
  -23.6286   -8.2250   22.0770 C   0  0  0  0  0  0
  -22.4271   -8.0289   21.3553 C   0  0  0  0  0  0
  -21.9903   -9.0272   20.4664 C   0  0  0  0  0  0
  -22.7242  -10.2143   20.3060 C   0  0  0  0  0  0
  -21.6854   -6.0739   22.5280 C   0  0  0  0  0  0
  -21.4028   -6.5643   23.8218 C   0  0  0  0  0  0
  -21.3659   -5.6790   24.9179 C   0  0  0  0  0  0
  -21.6041   -4.3054   24.7229 C   0  0  0  0  0  0
  -21.8817   -3.8146   23.4347 C   0  0  0  0  0  0
  -21.9189   -4.6964   22.3400 C   0  0  0  0  0  0
  -22.7809  -13.5229   21.1845 C   0  0  0  0  0  0
  -22.1654   -4.2146   21.0980 F   0  0  0  0  0  0
  -21.5617   -3.4540   25.7745 F   0  0  0  0  0  0
  -29.9980  -13.4960   20.4339 N   0  0  0  0  0  0
  -26.2946  -12.9419   20.3283 N   0  0  0  0  0  0
  -25.9319  -11.6560   20.5750 N   0  0  0  0  0  0
  -22.0428  -12.8255   22.0411 N   0  0  0  0  0  0
  -25.4154  -15.1932   20.4123 N   0  0  0  0  0  0
  -31.7782  -14.8417   20.0727 O   0  0  0  0  0  0
  -21.6633   -6.8883   21.4247 O   0  0  0  0  0  0
  -22.3499  -14.5526   20.6668 O   0  0  0  0  0  0
  -24.6320  -31.8576   23.2009 C   0  0  0  0  0  0
  -25.9152  -32.4767   23.8349 C   0  0  1  0  0  0
  -27.2064  -27.2546   20.1310 C   0  0  0  0  0  0
  -25.5944  -33.8568   24.2280 N   0  0  0  0  0  0
  -23.4281  -30.4835   21.5428 C   0  0  2  0  0  0
  -24.8749  -28.9380   20.1027 C   0  0  0  0  0  0
  -22.7504  -29.4621   22.4895 C   0  0  0  0  0  0
  -18.0295  -28.1401   22.8491 C   0  0  0  0  0  0
  -24.1477  -36.7291   23.2635 C   0  0  0  0  0  0
  -25.9741  -30.7685   21.3813 C   0  0  0  0  0  0
  -26.0451  -29.3908   20.7232 C   0  0  0  0  0  0
  -27.2141  -28.5612   20.7295 C   0  0  0  0  0  0
  -26.0231  -26.8934   19.4461 C   0  0  0  0  0  0
  -24.8701  -27.6977   19.4498 C   0  0  0  0  0  0
  -23.6479  -29.8252   20.1560 C   0  0  0  0  0  0
  -25.4104  -36.3079   24.0331 C   0  0  1  0  0  0
  -20.5895  -28.3734   23.1253 C   0  0  2  0  0  0
  -20.6781  -26.9448   22.5401 C   0  0  0  0  0  0
  -19.5753  -26.6402   21.5208 C   0  0  0  0  0  0
  -18.1939  -26.7944   22.1624 C   0  0  0  0  0  0
  -19.1548  -28.8881   23.2868 C   0  0  0  0  0  0
  -18.9469  -30.1477   23.8901 C   0  0  0  0  0  0
  -17.6471  -30.6598   24.0573 C   0  0  0  0  0  0
  -25.9053  -34.9452   23.5104 C   0  0  0  0  0  0
  -16.5358  -29.9110   23.6328 C   0  0  0  0  0  0
  -16.7282  -28.6517   23.0361 C   0  0  0  0  0  0
  -26.4509  -31.6584   25.0734 C   0  0  0  0  0  0
  -25.3740  -31.3743   26.1464 C   0  0  0  0  0  0
  -27.0349  -30.2996   24.6210 C   0  0  0  0  0  0
  -27.6050  -32.4332   25.7510 C   0  0  0  0  0  0
  -27.5571  -37.1806   24.8468 C   0  0  0  0  0  0
  -21.4213  -29.3079   22.3634 N   0  0  0  0  0  0
  -26.4275  -37.3783   23.9414 N   0  0  0  0  0  0
  -24.6969  -31.0541   22.0980 N   0  0  0  0  0  0
  -23.4205  -28.8163   23.2992 O   0  0  0  0  0  0
  -28.2699  -26.3189   20.2408 O   0  0  0  0  0  0
  -26.5613  -34.8923   22.4669 O   0  0  0  0  0  0
  -23.5470  -32.1404   23.7301 O   0  0  0  0  0  0
  -29.2122  -19.7716   19.9762 C   0  0  0  0  0  0
  -29.7967  -18.6122   20.6165 C   0  0  0  0  0  0
  -29.3210  -21.0599   20.6132 C   0  0  0  0  0  0
  -30.4705  -20.0135   22.2897 C   0  0  0  0  0  0
  -26.9625  -24.5466   21.4116 C   0  0  0  0  0  0
  -29.9282  -17.1816   19.9410 C   0  0  0  0  0  0
  -29.1189  -23.7137   20.4043 C   0  0  0  0  0  0
  -27.9582  -24.8353   20.2650 C   0  0  2  0  0  0
  -30.4197  -18.7797   21.8040 N   0  0  0  0  0  0
  -29.9781  -21.1417   21.7871 N   0  0  0  0  0  0
  -31.1360  -20.1392   23.4638 N   0  0  0  0  0  0
  -28.7510  -22.2764   20.0798 N   0  0  0  0  0  0
  -29.8374  -15.8485   20.6820 N   0  0  0  0  0  0
  -28.5922  -19.6602   18.7753 F   0  0  0  0  0  0
  -31.4777  -12.5496   19.1939 H   0  0  0  0  0  0
  -30.3658  -11.4575   19.9602 H   0  0  0  0  0  0
  -29.7995  -11.7497   17.5191 H   0  0  0  0  0  0
  -29.6511  -13.4734   17.7446 H   0  0  0  0  0  0
  -27.8894  -11.2917   18.9062 H   0  0  0  0  0  0
  -27.3872  -12.5441   17.7996 H   0  0  0  0  0  0
  -27.6458  -14.2594   19.4880 H   0  0  0  0  0  0
  -28.7067  -12.1472   21.4284 H   0  0  0  0  0  0
  -28.4217  -13.8243   21.8156 H   0  0  0  0  0  0
  -25.2766   -9.5685   22.4773 H   0  0  0  0  0  0
  -23.9989   -7.4643   22.7497 H   0  0  0  0  0  0
  -21.0826   -8.8805   19.8974 H   0  0  0  0  0  0
  -22.3704  -10.9690   19.6176 H   0  0  0  0  0  0
  -21.2038   -7.6153   23.9728 H   0  0  0  0  0  0
  -21.1477   -6.0519   25.9085 H   0  0  0  0  0  0
  -22.0590   -2.7607   23.2848 H   0  0  0  0  0  0
  -22.4014  -11.9948   22.4873 H   0  0  0  0  0  0
  -21.1055  -13.1337   22.2581 H   0  0  0  0  0  0
  -24.6394  -15.8392   20.5166 H   0  0  0  0  0  0
  -26.2527  -15.6386   20.0600 H   0  0  0  0  0  0
  -26.7213  -32.5419   23.1085 H   0  0  0  0  0  0
  -25.0096  -33.9705   25.0427 H   0  0  0  0  0  0
  -22.7247  -31.3064   21.3996 H   0  0  0  0  0  0
  -23.3731  -35.9627   23.3295 H   0  0  0  0  0  0
  -24.3564  -36.8923   22.2048 H   0  0  0  0  0  0
  -23.7238  -37.6497   23.6661 H   0  0  0  0  0  0
  -26.1091  -31.5258   20.6078 H   0  0  0  0  0  0
  -26.8534  -30.8211   22.0113 H   0  0  0  0  0  0
  -28.1027  -28.8910   21.2482 H   0  0  0  0  0  0
  -25.9418  -25.9524   18.9248 H   0  0  0  0  0  0
  -23.9787  -27.3514   18.9449 H   0  0  0  0  0  0
  -23.7799  -30.6066   19.4069 H   0  0  0  0  0  0
  -22.7643  -29.2660   19.8422 H   0  0  0  0  0  0
  -25.1276  -36.1927   25.0820 H   0  0  0  0  0  0
  -20.9994  -28.3329   24.1373 H   0  0  0  0  0  0
  -20.5683  -26.2357   23.3622 H   0  0  0  0  0  0
  -21.6655  -26.7484   22.1191 H   0  0  0  0  0  0
  -19.6921  -25.6312   21.1254 H   0  0  0  0  0  0
  -19.6675  -27.3195   20.6721 H   0  0  0  0  0  0
  -17.4206  -26.6698   21.4025 H   0  0  0  0  0  0
  -18.0336  -26.0081   22.9009 H   0  0  0  0  0  0
  -19.7945  -30.7283   24.2277 H   0  0  0  0  0  0
  -17.5029  -31.6278   24.5187 H   0  0  0  0  0  0
  -15.5363  -30.3018   23.7646 H   0  0  0  0  0  0
  -15.8675  -28.0835   22.7091 H   0  0  0  0  0  0
  -24.5918  -30.7076   25.7810 H   0  0  0  0  0  0
  -24.8922  -32.2915   26.4863 H   0  0  0  0  0  0
  -25.8074  -30.8958   27.0258 H   0  0  0  0  0  0
  -26.2927  -29.6746   24.1224 H   0  0  0  0  0  0
  -27.4011  -29.7256   25.4732 H   0  0  0  0  0  0
  -27.8815  -30.4240   23.9452 H   0  0  0  0  0  0
  -27.2638  -33.3635   26.2057 H   0  0  0  0  0  0
  -28.3876  -32.6901   25.0362 H   0  0  0  0  0  0
  -28.0693  -31.8490   26.5466 H   0  0  0  0  0  0
  -28.2594  -38.0097   24.7506 H   0  0  0  0  0  0
  -28.1064  -36.2637   24.6288 H   0  0  0  0  0  0
  -27.2300  -37.1448   25.8875 H   0  0  0  0  0  0
  -20.9412  -29.8824   21.6849 H   0  0  0  0  0  0
  -26.0157  -38.2851   24.1430 H   0  0  0  0  0  0
  -26.6658  -23.4978   21.4174 H   0  0  0  0  0  0
  -26.0401  -25.1210   21.3467 H   0  0  0  0  0  0
  -27.4149  -24.7597   22.3796 H   0  0  0  0  0  0
  -30.8660  -17.2013   19.3843 H   0  0  0  0  0  0
  -29.1590  -17.1379   19.1708 H   0  0  0  0  0  0
  -29.5399  -23.7563   21.4094 H   0  0  0  0  0  0
  -29.9354  -23.9860   19.7344 H   0  0  0  0  0  0
  -27.4822  -24.6044   19.3131 H   0  0  0  0  0  0
  -31.7718  -19.3869   23.6898 H   0  0  0  0  0  0
  -31.4811  -21.0659   23.6780 H   0  0  0  0  0  0
  -28.2690  -22.1322   19.1993 H   0  0  0  0  0  0
  -28.9377  -15.6721   21.1007 H   0  0  0  0  0  0
  1 25  1  0  0  0
  1 30  2  0  0  0
  1 83  1  0  0  0
  2  3  1  0  0  0
  2 25  1  0  0  0
  2 85  1  0  0  0
  2 86  1  0  0  0
  3  4  1  0  0  0
  3 87  1  0  0  0
  3 88  1  0  0  0
  4  5  1  0  0  0
  4 89  1  0  0  0
  4 90  1  0  0  0
  5  6  1  0  0  0
  5 26  1  0  0  0
  5 91  1  0  0  0
  6 25  1  0  0  0
  6 92  1  0  0  0
  6 93  1  0  0  0
  7  8  2  0  0  0
  7 26  1  0  0  0
  7 29  1  0  0  0
  8  9  1  0  0  0
  8 22  1  0  0  0
  9 10  1  0  0  0
  9 27  2  0  0  0
 10 11  2  0  0  0
 10 15  1  0  0  0
 11 12  1  0  0  0
 11 94  1  0  0  0
 12 13  2  0  0  0
 12 95  1  0  0  0
 13 14  1  0  0  0
 13 31  1  0  0  0
 14 15  2  0  0  0
 14 96  1  0  0  0
 15 97  1  0  0  0
 16 17  2  0  0  0
 16 21  1  0  0  0
 16 31  1  0  0  0
 17 18  1  0  0  0
 17 98  1  0  0  0
 18 19  2  0  0  0
 18 99  1  0  0  0
 19 20  1  0  0  0
 19 24  1  0  0  0
 20 21  2  0  0  0
 20100  1  0  0  0
 21 23  1  0  0  0
 22 28  1  0  0  0
 22 32  2  0  0  0
 26 27  1  0  0  0
 28101  1  0  0  0
 28102  1  0  0  0
 29103  1  0  0  0
 29104  1  0  0  0
 33 34  1  0  0  0
 33 66  1  0  0  0
 33 70  2  0  0  0
 34 36  1  0  0  0
 34 59  1  0  0  0
 34105  1  0  0  0
 35 44  2  0  0  0
 35 45  1  0  0  0
 35 68  1  0  0  0
 36 56  1  0  0  0
 36106  1  0  0  0
 37 39  1  0  0  0
 37 47  1  0  0  0
 37 66  1  0  0  0
 37107  1  0  0  0
 38 43  2  0  0  0
 38 46  1  0  0  0
 38 47  1  0  0  0
 39 64  1  0  0  0
 39 67  2  0  0  0
 40 52  1  0  0  0
 40 53  2  0  0  0
 40 58  1  0  0  0
 41108  1  0  0  0
 41109  1  0  0  0
 41110  1  0  0  0
 41 48  1  0  0  0
 42 43  1  0  0  0
 42 66  1  0  0  0
 42111  1  0  0  0
 42112  1  0  0  0
 43 44  1  0  0  0
 44113  1  0  0  0
 45 46  2  0  0  0
 45114  1  0  0  0
 46115  1  0  0  0
 47116  1  0  0  0
 47117  1  0  0  0
 48 56  1  0  0  0
 48 65  1  0  0  0
 48118  1  0  0  0
 49 50  1  0  0  0
 49 53  1  0  0  0
 49 64  1  0  0  0
 49119  1  0  0  0
 50 51  1  0  0  0
 50120  1  0  0  0
 50121  1  0  0  0
 51 52  1  0  0  0
 51122  1  0  0  0
 51123  1  0  0  0
 52124  1  0  0  0
 52125  1  0  0  0
 53 54  1  0  0  0
 54 55  2  0  0  0
 54126  1  0  0  0
 55 57  1  0  0  0
 55127  1  0  0  0
 56 69  2  0  0  0
 57 58  2  0  0  0
 57128  1  0  0  0
 58129  1  0  0  0
 59 60  1  0  0  0
 59 61  1  0  0  0
 59 62  1  0  0  0
 60130  1  0  0  0
 60131  1  0  0  0
 60132  1  0  0  0
 61133  1  0  0  0
 61134  1  0  0  0
 61135  1  0  0  0
 62136  1  0  0  0
 62137  1  0  0  0
 62138  1  0  0  0
 63 65  1  0  0  0
 63139  1  0  0  0
 63140  1  0  0  0
 63141  1  0  0  0
 64142  1  0  0  0
 65143  1  0  0  0
 68 78  1  0  0  0
 71 72  2  0  0  0
 71 73  1  0  0  0
 71 84  1  0  0  0
 72 76  1  0  0  0
 72 79  1  0  0  0
 73 80  2  0  0  0
 73 82  1  0  0  0
 74 79  2  0  0  0
 74 80  1  0  0  0
 74 81  1  0  0  0
 75144  1  0  0  0
 75145  1  0  0  0
 75146  1  0  0  0
 75 78  1  0  0  0
 76 83  1  0  0  0
 76147  1  0  0  0
 76148  1  0  0  0
 77 78  1  0  0  0
 77 82  1  0  0  0
 77149  1  0  0  0
 77150  1  0  0  0
 78151  1  0  0  0
 81152  1  0  0  0
 81153  1  0  0  0
 82154  1  0  0  0
 83155  1  0  0  0
M  ISO  4   1 100  68 101  78 101  83 100
M  END
> <chiral flag>
0

> <version>
0

> <s_m_source_file>
/data/baiqing/PycharmProjects/Reinvent-master-3.2/result/LINK_invent/BTK/process_docking_weight1_custom_product_contain_oxygen_bond_distance_aromatic_linkinvent_7_9_3/rearranged_h_0185.sdf

> <i_m_source_file_index>
6

> <r_mmod_Potential_Energy-OPLS-2005>
-565.481018066406

> <r_mmod_Stretch_Energy-OPLS-2005>
113.052856445312

> <r_mmod_Bend_Energy-OPLS-2005>
172.384536743164

> <r_mmod_Torsional_Energy-OPLS-2005>
224.176330566406

> <r_mmod_Improper_Torsional_Energy-OPLS-2005>
12.9352436065674

> <r_mmod_Van_der_Waal_Energy-OPLS-2005>
152.361740112305

> <r_mmod_Electrostatic_Energy-OPLS-2005>
-1084.73962402344

> <r_mmod_Solvation_Energy-OPLS-2005>
-244.201080322266

> <b_mmod_Minimization_Converged-OPLS-2005>
0

> <r_mmod_RMS_Derivative-OPLS-2005>
2.20687341690063

$$$$
6
                    3D
 Structure written by MMmdl.
152160  0  0  1  0            999 V2000
  -30.5734  -14.7501   20.4873 C   0  0  0  0  0  0
  -30.4494  -12.4601   19.4692 C   0  0  0  0  0  0
  -29.5168  -12.5210   18.2366 C   0  0  0  0  0  0
  -28.0417  -12.3393   18.6478 C   0  0  0  0  0  0
  -27.6504  -13.2232   19.8610 C   0  0  2  0  0  0
  -28.6958  -13.1138   20.9941 C   0  0  0  0  0  0
  -25.2550  -13.8175   20.5695 C   0  0  0  0  0  0
  -24.1826  -13.0435   20.9201 C   0  0  0  0  0  0
  -24.6402  -11.6908   20.8740 C   0  0  0  0  0  0
  -23.9071  -10.4290   21.0405 C   0  0  0  0  0  0
  -24.3619   -9.4205   21.9184 C   0  0  0  0  0  0
  -23.6294   -8.2241   22.0755 C   0  0  0  0  0  0
  -22.4275   -8.0280   21.3545 C   0  0  0  0  0  0
  -21.9912   -9.0255   20.4647 C   0  0  0  0  0  0
  -22.7242  -10.2134   20.3056 C   0  0  0  0  0  0
  -21.6854   -6.0735   22.5279 C   0  0  0  0  0  0
  -21.4015   -6.5640   23.8212 C   0  0  0  0  0  0
  -21.3660   -5.6792   24.9174 C   0  0  0  0  0  0
  -21.6044   -4.3055   24.7224 C   0  0  0  0  0  0
  -21.8819   -3.8147   23.4346 C   0  0  0  0  0  0
  -21.9193   -4.6964   22.3401 C   0  0  0  0  0  0
  -22.7847  -13.5225   21.1861 C   0  0  0  0  0  0
  -22.1661   -4.2149   21.0979 F   0  0  0  0  0  0
  -21.5628   -3.4539   25.7738 F   0  0  0  0  0  0
  -30.0013  -13.4949   20.4299 N   0  0  0  0  0  0
  -26.2978  -12.9365   20.3310 N   0  0  0  0  0  0
  -25.9333  -11.6516   20.5754 N   0  0  0  0  0  0
  -22.0489  -12.8216   22.0416 N   0  0  0  0  0  0
  -25.4256  -15.1900   20.4116 N   0  0  0  0  0  0
  -31.7328  -14.9161   20.0892 O   0  0  0  0  0  0
  -21.6640   -6.8878   21.4240 O   0  0  0  0  0  0
  -22.3534  -14.5532   20.6709 O   0  0  0  0  0  0
  -24.6317  -31.8547   23.1977 C   0  0  0  0  0  0
  -25.9137  -32.4756   23.8332 C   0  0  1  0  0  0
  -27.2293  -27.2718   20.1269 C   0  0  0  0  0  0
  -25.5927  -33.8557   24.2255 N   0  0  0  0  0  0
  -23.4308  -30.4760   21.5397 C   0  0  2  0  0  0
  -24.8840  -28.9239   20.1079 C   0  0  0  0  0  0
  -22.7514  -29.4597   22.4898 C   0  0  0  0  0  0
  -18.0296  -28.1396   22.8485 C   0  0  0  0  0  0
  -24.1489  -36.7284   23.2639 C   0  0  0  0  0  0
  -25.9766  -30.7699   21.3785 C   0  0  0  0  0  0
  -26.0548  -29.3929   20.7203 C   0  0  0  0  0  0
  -27.2336  -28.5773   20.7239 C   0  0  0  0  0  0
  -26.0407  -26.8680   19.4868 C   0  0  0  0  0  0
  -24.8810  -27.6683   19.4798 C   0  0  0  0  0  0
  -23.6518  -29.8082   20.1565 C   0  0  0  0  0  0
  -25.4116  -36.3071   24.0325 C   0  0  1  0  0  0
  -20.5902  -28.3708   23.1263 C   0  0  2  0  0  0
  -20.6781  -26.9423   22.5409 C   0  0  0  0  0  0
  -19.5755  -26.6389   21.5214 C   0  0  0  0  0  0
  -18.1938  -26.7937   22.1629 C   0  0  0  0  0  0
  -19.1551  -28.8869   23.2868 C   0  0  0  0  0  0
  -18.9472  -30.1469   23.8889 C   0  0  0  0  0  0
  -17.6470  -30.6593   24.0567 C   0  0  0  0  0  0
  -25.9054  -34.9439   23.5094 C   0  0  0  0  0  0
  -16.5361  -29.9092   23.6334 C   0  0  0  0  0  0
  -16.7283  -28.6510   23.0354 C   0  0  0  0  0  0
  -26.4500  -31.6582   25.0724 C   0  0  0  0  0  0
  -25.3718  -31.3738   26.1442 C   0  0  0  0  0  0
  -27.0347  -30.2996   24.6214 C   0  0  0  0  0  0
  -27.6050  -32.4327   25.7501 C   0  0  0  0  0  0
  -27.5578  -37.1802   24.8466 C   0  0  0  0  0  0
  -21.4218  -29.3049   22.3644 N   0  0  0  0  0  0
  -26.4292  -37.3771   23.9407 N   0  0  0  0  0  0
  -24.6984  -31.0512   22.0952 N   0  0  0  0  0  0
  -23.4206  -28.8141   23.3006 O   0  0  0  0  0  0
  -28.2624  -26.3104   20.1894 O   0  0  0  0  0  0
  -26.5630  -34.8915   22.4666 O   0  0  0  0  0  0
  -23.5463  -32.1365   23.7267 O   0  0  0  0  0  0
  -28.9197  -17.8503   21.8962 C   0  0  0  0  0  0
  -29.9991  -19.5080   20.0313 C   0  0  0  0  0  0
  -28.6868  -19.2567   21.9989 C   0  0  0  0  0  0
  -29.2270  -20.1680   21.0360 C   0  0  0  0  0  0
  -29.7093  -17.2643   20.8828 C   0  0  0  0  0  0
  -28.0636  -25.2978   21.1584 C   0  0  0  0  0  0
  -28.2709  -23.9247   21.3314 C   0  0  0  0  0  0
  -28.8364  -22.7913   20.4916 C   0  0  0  0  0  0
  -27.8461  -19.7680   23.1714 C   0  0  0  0  0  0
  -30.2346  -18.1389   19.9646 N   0  0  0  0  0  0
  -29.0351  -21.6374   21.2426 N   0  0  0  0  0  0
  -29.7448  -15.7790   20.9081 N   0  0  0  0  0  0
  -29.0926  -22.8404   19.2895 O   0  0  0  0  0  0
  -27.7925  -23.5105   22.5194 O   0  0  0  0  0  0
  -27.3604  -18.7846   23.9318 F   0  0  0  0  0  0
  -28.6006  -20.5568   23.9373 F   0  0  0  0  0  0
  -26.8200  -20.4890   22.7147 F   0  0  0  0  0  0
  -31.4867  -12.6076   19.1640 H   0  0  0  0  0  0
  -30.4131  -11.4727   19.9320 H   0  0  0  0  0  0
  -29.7993  -11.7566   17.5113 H   0  0  0  0  0  0
  -29.6395  -13.4808   17.7322 H   0  0  0  0  0  0
  -27.8960  -11.2876   18.8971 H   0  0  0  0  0  0
  -27.3845  -12.5446   17.8019 H   0  0  0  0  0  0
  -27.6559  -14.2524   19.5013 H   0  0  0  0  0  0
  -28.7341  -12.0952   21.3836 H   0  0  0  0  0  0
  -28.4201  -13.7428   21.8417 H   0  0  0  0  0  0
  -25.2765   -9.5680   22.4758 H   0  0  0  0  0  0
  -24.0002   -7.4632   22.7474 H   0  0  0  0  0  0
  -21.0842   -8.8777   19.8952 H   0  0  0  0  0  0
  -22.3703  -10.9674   19.6164 H   0  0  0  0  0  0
  -21.2009   -7.6148   23.9715 H   0  0  0  0  0  0
  -21.1482   -6.0523   25.9077 H   0  0  0  0  0  0
  -22.0599   -2.7609   23.2847 H   0  0  0  0  0  0
  -22.4102  -11.9873   22.4797 H   0  0  0  0  0  0
  -21.1109  -13.1244   22.2625 H   0  0  0  0  0  0
  -24.6529  -15.8391   20.5128 H   0  0  0  0  0  0
  -26.2640  -15.6287   20.0536 H   0  0  0  0  0  0
  -26.7207  -32.5415   23.1080 H   0  0  0  0  0  0
  -25.0063  -33.9691   25.0393 H   0  0  0  0  0  0
  -22.7273  -31.2980   21.3912 H   0  0  0  0  0  0
  -23.3748  -35.9620   23.3308 H   0  0  0  0  0  0
  -24.3572  -36.8903   22.2052 H   0  0  0  0  0  0
  -23.7246  -37.6488   23.6662 H   0  0  0  0  0  0
  -26.1150  -31.5307   20.6091 H   0  0  0  0  0  0
  -26.8537  -30.8208   22.0122 H   0  0  0  0  0  0
  -28.1265  -28.9220   21.2259 H   0  0  0  0  0  0
  -26.0007  -25.8924   19.0226 H   0  0  0  0  0  0
  -23.9842  -27.3015   18.9998 H   0  0  0  0  0  0
  -23.7748  -30.5837   19.3995 H   0  0  0  0  0  0
  -22.7717  -29.2391   19.8516 H   0  0  0  0  0  0
  -25.1300  -36.1916   25.0817 H   0  0  0  0  0  0
  -21.0001  -28.3292   24.1382 H   0  0  0  0  0  0
  -20.5680  -26.2321   23.3618 H   0  0  0  0  0  0
  -21.6649  -26.7441   22.1207 H   0  0  0  0  0  0
  -19.6914  -25.6296   21.1253 H   0  0  0  0  0  0
  -19.6690  -27.3190   20.6737 H   0  0  0  0  0  0
  -17.4207  -26.6684   21.4033 H   0  0  0  0  0  0
  -18.0338  -26.0081   22.9028 H   0  0  0  0  0  0
  -19.7945  -30.7291   24.2253 H   0  0  0  0  0  0
  -17.5023  -31.6270   24.5175 H   0  0  0  0  0  0
  -15.5363  -30.2995   23.7657 H   0  0  0  0  0  0
  -15.8682  -28.0828   22.7075 H   0  0  0  0  0  0
  -24.5898  -30.7079   25.7772 H   0  0  0  0  0  0
  -24.8902  -32.2909   26.4843 H   0  0  0  0  0  0
  -25.8034  -30.8934   27.0232 H   0  0  0  0  0  0
  -26.2935  -29.6746   24.1220 H   0  0  0  0  0  0
  -27.4002  -29.7257   25.4740 H   0  0  0  0  0  0
  -27.8825  -30.4263   23.9478 H   0  0  0  0  0  0
  -27.2652  -33.3631   26.2061 H   0  0  0  0  0  0
  -28.3873  -32.6881   25.0341 H   0  0  0  0  0  0
  -28.0703  -31.8462   26.5433 H   0  0  0  0  0  0
  -28.2605  -38.0089   24.7504 H   0  0  0  0  0  0
  -28.1066  -36.2622   24.6309 H   0  0  0  0  0  0
  -27.2293  -37.1472   25.8868 H   0  0  0  0  0  0
  -20.9408  -29.8770   21.6845 H   0  0  0  0  0  0
  -26.0169  -38.2846   24.1399 H   0  0  0  0  0  0
  -28.4744  -17.2019   22.6377 H   0  0  0  0  0  0
  -30.4825  -20.0962   19.2652 H   0  0  0  0  0  0
  -27.6007  -25.7869   22.0074 H   0  0  0  0  0  0
  -28.9194  -21.8830   22.2173 H   0  0  0  0  0  0
  -28.9154  -15.3904   21.3255 H   0  0  0  0  0  0
  -27.4243  -22.6462   22.3855 H   0  0  0  0  0  0
  1 25  1  0  0  0
  1 30  2  0  0  0
  1 82  1  0  0  0
  2  3  1  0  0  0
  2 25  1  0  0  0
  2 88  1  0  0  0
  2 89  1  0  0  0
  3  4  1  0  0  0
  3 90  1  0  0  0
  3 91  1  0  0  0
  4  5  1  0  0  0
  4 92  1  0  0  0
  4 93  1  0  0  0
  5  6  1  0  0  0
  5 26  1  0  0  0
  5 94  1  0  0  0
  6 25  1  0  0  0
  6 95  1  0  0  0
  6 96  1  0  0  0
  7  8  2  0  0  0
  7 26  1  0  0  0
  7 29  1  0  0  0
  8  9  1  0  0  0
  8 22  1  0  0  0
  9 10  1  0  0  0
  9 27  2  0  0  0
 10 11  2  0  0  0
 10 15  1  0  0  0
 11 12  1  0  0  0
 11 97  1  0  0  0
 12 13  2  0  0  0
 12 98  1  0  0  0
 13 14  1  0  0  0
 13 31  1  0  0  0
 14 15  2  0  0  0
 14 99  1  0  0  0
 15100  1  0  0  0
 16 17  2  0  0  0
 16 21  1  0  0  0
 16 31  1  0  0  0
 17 18  1  0  0  0
 17101  1  0  0  0
 18 19  2  0  0  0
 18102  1  0  0  0
 19 20  1  0  0  0
 19 24  1  0  0  0
 20 21  2  0  0  0
 20103  1  0  0  0
 21 23  1  0  0  0
 22 28  1  0  0  0
 22 32  2  0  0  0
 26 27  1  0  0  0
 28104  1  0  0  0
 28105  1  0  0  0
 29106  1  0  0  0
 29107  1  0  0  0
 33 34  1  0  0  0
 33 66  1  0  0  0
 33 70  2  0  0  0
 34 36  1  0  0  0
 34 59  1  0  0  0
 34108  1  0  0  0
 35 44  2  0  0  0
 35 45  1  0  0  0
 35 68  1  0  0  0
 36 56  1  0  0  0
 36109  1  0  0  0
 37 39  1  0  0  0
 37 47  1  0  0  0
 37 66  1  0  0  0
 37110  1  0  0  0
 38 43  2  0  0  0
 38 46  1  0  0  0
 38 47  1  0  0  0
 39 64  1  0  0  0
 39 67  2  0  0  0
 40 52  1  0  0  0
 40 53  2  0  0  0
 40 58  1  0  0  0
 41111  1  0  0  0
 41112  1  0  0  0
 41113  1  0  0  0
 41 48  1  0  0  0
 42 43  1  0  0  0
 42 66  1  0  0  0
 42114  1  0  0  0
 42115  1  0  0  0
 43 44  1  0  0  0
 44116  1  0  0  0
 45 46  2  0  0  0
 45117  1  0  0  0
 46118  1  0  0  0
 47119  1  0  0  0
 47120  1  0  0  0
 48 56  1  0  0  0
 48 65  1  0  0  0
 48121  1  0  0  0
 49 50  1  0  0  0
 49 53  1  0  0  0
 49 64  1  0  0  0
 49122  1  0  0  0
 50 51  1  0  0  0
 50123  1  0  0  0
 50124  1  0  0  0
 51 52  1  0  0  0
 51125  1  0  0  0
 51126  1  0  0  0
 52127  1  0  0  0
 52128  1  0  0  0
 53 54  1  0  0  0
 54 55  2  0  0  0
 54129  1  0  0  0
 55 57  1  0  0  0
 55130  1  0  0  0
 56 69  2  0  0  0
 57 58  2  0  0  0
 57131  1  0  0  0
 58132  1  0  0  0
 59 60  1  0  0  0
 59 61  1  0  0  0
 59 62  1  0  0  0
 60133  1  0  0  0
 60134  1  0  0  0
 60135  1  0  0  0
 61136  1  0  0  0
 61137  1  0  0  0
 61138  1  0  0  0
 62139  1  0  0  0
 62140  1  0  0  0
 62141  1  0  0  0
 63 65  1  0  0  0
 63142  1  0  0  0
 63143  1  0  0  0
 63144  1  0  0  0
 64145  1  0  0  0
 65146  1  0  0  0
 68 76  1  0  0  0
 71 73  2  0  0  0
 71 75  1  0  0  0
 71147  1  0  0  0
 72 74  2  0  0  0
 72 80  1  0  0  0
 72148  1  0  0  0
 73 74  1  0  0  0
 73 79  1  0  0  0
 74 81  1  0  0  0
 75 80  2  0  0  0
 75 82  1  0  0  0
 76 77  2  0  0  0
 76149  1  0  0  0
 77 78  1  0  0  0
 77 84  1  0  0  0
 78 81  1  0  0  0
 78 83  2  0  0  0
 79 85  1  0  0  0
 79 86  1  0  0  0
 79 87  1  0  0  0
 81150  1  0  0  0
 82151  1  0  0  0
 84152  1  0  0  0
M  ISO  4   1 100  68 101  76 101  82 100
M  END
> <chiral flag>
0

> <version>
0

> <s_m_source_file>
/data/baiqing/PycharmProjects/Reinvent-master-3.2/result/LINK_invent/BTK/process_docking_weight1_custom_product_contain_oxygen_bond_distance_aromatic_linkinvent_7_9_3/rearranged_h_0185.sdf

> <i_m_source_file_index>
7

> <r_mmod_Potential_Energy-OPLS-2005>
102.777946472168

> <r_mmod_Stretch_Energy-OPLS-2005>
115.863403320312

> <r_mmod_Bend_Energy-OPLS-2005>
263.716186523438

> <r_mmod_Torsional_Energy-OPLS-2005>
250.520523071289

> <r_mmod_Improper_Torsional_Energy-OPLS-2005>
4.1903018951416

> <r_mmod_Van_der_Waal_Energy-OPLS-2005>
146.695159912109

> <r_mmod_Electrostatic_Energy-OPLS-2005>
-508.540832519531

> <r_mmod_Solvation_Energy-OPLS-2005>
-259.751068115234

> <b_mmod_Minimization_Converged-OPLS-2005>
0

> <r_mmod_RMS_Derivative-OPLS-2005>
0.420236676931381

$$$$
7
                    3D
 Structure written by MMmdl.
152160  0  0  1  0            999 V2000
  -30.5694  -14.7464   20.5116 C   0  0  0  0  0  0
  -30.4467  -12.4646   19.4590 C   0  0  0  0  0  0
  -29.5090  -12.5312   18.2287 C   0  0  0  0  0  0
  -28.0346  -12.3517   18.6398 C   0  0  0  0  0  0
  -27.6508  -13.2232   19.8637 C   0  0  2  0  0  0
  -28.6974  -13.1019   20.9962 C   0  0  0  0  0  0
  -25.2516  -13.8166   20.5649 C   0  0  0  0  0  0
  -24.1798  -13.0455   20.9138 C   0  0  0  0  0  0
  -24.6364  -11.6911   20.8712 C   0  0  0  0  0  0
  -23.9030  -10.4299   21.0373 C   0  0  0  0  0  0
  -24.3574   -9.4230   21.9176 C   0  0  0  0  0  0
  -23.6246   -8.2273   22.0796 C   0  0  0  0  0  0
  -22.4240   -8.0281   21.3558 C   0  0  0  0  0  0
  -21.9844   -9.0263   20.4678 C   0  0  0  0  0  0
  -22.7172  -10.2134   20.3071 C   0  0  0  0  0  0
  -21.6868   -6.0707   22.5247 C   0  0  0  0  0  0
  -21.4024   -6.5622   23.8172 C   0  0  0  0  0  0
  -21.3674   -5.6777   24.9136 C   0  0  0  0  0  0
  -21.6049   -4.3042   24.7188 C   0  0  0  0  0  0
  -21.8836   -3.8124   23.4313 C   0  0  0  0  0  0
  -21.9197   -4.6932   22.3363 C   0  0  0  0  0  0
  -22.7835  -13.5274   21.1788 C   0  0  0  0  0  0
  -22.1676   -4.2126   21.0942 F   0  0  0  0  0  0
  -21.5626   -3.4529   25.7702 F   0  0  0  0  0  0
  -29.9990  -13.4915   20.4304 N   0  0  0  0  0  0
  -26.2979  -12.9363   20.3312 N   0  0  0  0  0  0
  -25.9302  -11.6517   20.5766 N   0  0  0  0  0  0
  -22.0457  -12.8338   22.0352 N   0  0  0  0  0  0
  -25.4188  -15.1896   20.4056 N   0  0  0  0  0  0
  -31.7169  -14.9331   20.0875 O   0  0  0  0  0  0
  -21.6665   -6.8838   21.4214 O   0  0  0  0  0  0
  -22.3554  -14.5580   20.6585 O   0  0  0  0  0  0
  -24.6315  -31.8531   23.1984 C   0  0  0  0  0  0
  -25.9168  -32.4722   23.8303 C   0  0  1  0  0  0
  -27.2289  -27.2493   20.1364 C   0  0  0  0  0  0
  -25.6009  -33.8542   24.2220 N   0  0  0  0  0  0
  -23.4255  -30.4726   21.5414 C   0  0  2  0  0  0
  -24.8739  -28.9070   20.1158 C   0  0  0  0  0  0
  -22.7483  -29.4582   22.4931 C   0  0  0  0  0  0
  -18.0314  -28.1374   22.8498 C   0  0  0  0  0  0
  -24.1506  -36.7261   23.2618 C   0  0  0  0  0  0
  -25.9684  -30.7604   21.3750 C   0  0  0  0  0  0
  -26.0427  -29.3802   20.7225 C   0  0  0  0  0  0
  -27.2175  -28.5622   20.7206 C   0  0  0  0  0  0
  -26.0400  -26.8428   19.4929 C   0  0  0  0  0  0
  -24.8764  -27.6456   19.4928 C   0  0  0  0  0  0
  -23.6474  -29.8008   20.1577 C   0  0  0  0  0  0
  -25.4127  -36.3027   24.0284 C   0  0  1  0  0  0
  -20.5921  -28.3669   23.1284 C   0  0  2  0  0  0
  -20.6818  -26.9427   22.5319 C   0  0  0  0  0  0
  -19.5765  -26.6504   21.5113 C   0  0  0  0  0  0
  -18.1947  -26.7961   22.1543 C   0  0  0  0  0  0
  -19.1562  -28.8815   23.2931 C   0  0  0  0  0  0
  -18.9473  -30.1413   23.8972 C   0  0  0  0  0  0
  -17.6471  -30.6549   24.0611 C   0  0  0  0  0  0
  -25.9109  -34.9419   23.5041 C   0  0  0  0  0  0
  -16.5378  -29.9070   23.6309 C   0  0  0  0  0  0
  -16.7302  -28.6486   23.0313 C   0  0  0  0  0  0
  -26.4550  -31.6562   25.0697 C   0  0  0  0  0  0
  -25.3808  -31.3703   26.1445 C   0  0  0  0  0  0
  -27.0388  -30.2977   24.6166 C   0  0  0  0  0  0
  -27.6120  -32.4293   25.7477 C   0  0  0  0  0  0
  -27.5557  -37.1770   24.8449 C   0  0  0  0  0  0
  -21.4197  -29.3049   22.3691 N   0  0  0  0  0  0
  -26.4267  -37.3750   23.9414 N   0  0  0  0  0  0
  -24.6939  -31.0489   22.0941 N   0  0  0  0  0  0
  -23.4198  -28.8088   23.2991 O   0  0  0  0  0  0
  -28.3552  -26.3982   20.2346 O   0  0  0  0  0  0
  -26.5668  -34.8885   22.4597 O   0  0  0  0  0  0
  -23.5487  -32.1389   23.7313 O   0  0  0  0  0  0
  -29.1949  -19.8013   20.7684 C   0  0  0  0  0  0
  -29.3496  -19.2994   22.0590 C   0  0  0  0  0  0
  -29.7658  -17.2434   20.9914 C   0  0  0  0  0  0
  -28.6906  -21.1531   20.1663 C   0  0  0  0  0  0
  -26.5133  -23.3941   20.5491 C   0  0  0  0  0  0
  -28.4498  -24.9512   19.8025 C   0  0  0  0  0  0
  -28.0122  -23.6966   20.7352 C   0  0  2  0  0  0
  -29.6715  -17.9169   22.1556 N   0  0  0  0  0  0
  -29.1476  -19.9919   23.2609 N   0  0  0  0  0  0
  -29.7513  -15.7589   20.9849 N   0  0  0  0  0  0
  -28.8223  -22.3804   20.8006 N   0  0  0  0  0  0
  -28.1100  -21.1062   19.0812 O   0  0  0  0  0  0
  -29.4391  -18.4017   19.6469 S   0  0  0  0  0  0
  -31.4822  -12.6149   19.1478 H   0  0  0  0  0  0
  -30.4134  -11.4750   19.9155 H   0  0  0  0  0  0
  -29.7884  -11.7709   17.4961 H   0  0  0  0  0  0
  -29.6295  -13.4909   17.7281 H   0  0  0  0  0  0
  -27.8761  -11.2986   18.8735 H   0  0  0  0  0  0
  -27.3799  -12.5809   17.8006 H   0  0  0  0  0  0
  -27.6596  -14.2561   19.5123 H   0  0  0  0  0  0
  -28.7450  -12.0801   21.3752 H   0  0  0  0  0  0
  -28.4251  -13.7202   21.8518 H   0  0  0  0  0  0
  -25.2717   -9.5761   22.4717 H   0  0  0  0  0  0
  -23.9974   -7.4712   22.7546 H   0  0  0  0  0  0
  -21.0772   -8.8761   19.8994 H   0  0  0  0  0  0
  -22.3596  -10.9672   19.6189 H   0  0  0  0  0  0
  -21.2041   -7.6134   23.9663 H   0  0  0  0  0  0
  -21.1477   -6.0508   25.9033 H   0  0  0  0  0  0
  -22.0593   -2.7584   23.2809 H   0  0  0  0  0  0
  -22.4058  -12.0059   22.4831 H   0  0  0  0  0  0
  -21.1102  -13.1456   22.2544 H   0  0  0  0  0  0
  -24.6419  -15.8315   20.5090 H   0  0  0  0  0  0
  -26.2559  -15.6352   20.0545 H   0  0  0  0  0  0
  -26.7199  -32.5333   23.1015 H   0  0  0  0  0  0
  -25.0191  -33.9680   25.0391 H   0  0  0  0  0  0
  -22.7223  -31.2956   21.3960 H   0  0  0  0  0  0
  -23.3748  -35.9620   23.3289 H   0  0  0  0  0  0
  -24.3571  -36.8921   22.2032 H   0  0  0  0  0  0
  -23.7315  -37.6462   23.6686 H   0  0  0  0  0  0
  -26.1104  -31.5155   20.6005 H   0  0  0  0  0  0
  -26.8435  -30.8115   22.0109 H   0  0  0  0  0  0
  -28.1160  -28.9157   21.2078 H   0  0  0  0  0  0
  -25.9951  -25.8800   19.0099 H   0  0  0  0  0  0
  -23.9787  -27.2756   19.0167 H   0  0  0  0  0  0
  -23.7915  -30.5811   19.4088 H   0  0  0  0  0  0
  -22.7584  -29.2565   19.8311 H   0  0  0  0  0  0
  -25.1319  -36.1813   25.0769 H   0  0  0  0  0  0
  -21.0054  -28.3177   24.1396 H   0  0  0  0  0  0
  -20.5765  -26.2250   23.3466 H   0  0  0  0  0  0
  -21.6658  -26.7463   22.1039 H   0  0  0  0  0  0
  -19.6909  -25.6499   21.0939 H   0  0  0  0  0  0
  -19.6676  -27.3525   20.6781 H   0  0  0  0  0  0
  -17.4235  -26.6852   21.3891 H   0  0  0  0  0  0
  -18.0240  -25.9998   22.8802 H   0  0  0  0  0  0
  -19.7952  -30.7215   24.2374 H   0  0  0  0  0  0
  -17.5030  -31.6193   24.5275 H   0  0  0  0  0  0
  -15.5375  -30.2952   23.7666 H   0  0  0  0  0  0
  -15.8704  -28.0823   22.6979 H   0  0  0  0  0  0
  -24.6030  -30.6986   25.7778 H   0  0  0  0  0  0
  -24.8963  -32.2882   26.4774 H   0  0  0  0  0  0
  -25.8182  -30.8962   27.0257 H   0  0  0  0  0  0
  -26.2945  -29.6697   24.1261 H   0  0  0  0  0  0
  -27.4157  -29.7224   25.4627 H   0  0  0  0  0  0
  -27.8796  -30.4193   23.9345 H   0  0  0  0  0  0
  -27.2737  -33.3600   26.2013 H   0  0  0  0  0  0
  -28.3975  -32.6824   25.0355 H   0  0  0  0  0  0
  -28.0750  -31.8462   26.5436 H   0  0  0  0  0  0
  -28.2551  -38.0073   24.7495 H   0  0  0  0  0  0
  -28.1078  -36.2617   24.6288 H   0  0  0  0  0  0
  -27.2292  -37.1439   25.8849 H   0  0  0  0  0  0
  -20.9376  -29.8823   21.6957 H   0  0  0  0  0  0
  -26.0114  -38.2806   24.1461 H   0  0  0  0  0  0
  -25.9116  -24.2918   20.6843 H   0  0  0  0  0  0
  -26.1463  -22.6558   21.2620 H   0  0  0  0  0  0
  -26.3128  -23.0180   19.5474 H   0  0  0  0  0  0
  -28.0057  -24.8414   18.8132 H   0  0  0  0  0  0
  -29.5134  -24.8041   19.6107 H   0  0  0  0  0  0
  -28.1031  -24.0794   21.7518 H   0  0  0  0  0  0
  -28.5706  -20.8265   23.2564 H   0  0  0  0  0  0
  -29.0312  -19.4522   24.1134 H   0  0  0  0  0  0
  -28.9229  -15.3756   21.4116 H   0  0  0  0  0  0
  -29.4608  -22.3546   21.5850 H   0  0  0  0  0  0
  1 25  1  0  0  0
  1 30  2  0  0  0
  1 80  1  0  0  0
  2  3  1  0  0  0
  2 25  1  0  0  0
  2 84  1  0  0  0
  2 85  1  0  0  0
  3  4  1  0  0  0
  3 86  1  0  0  0
  3 87  1  0  0  0
  4  5  1  0  0  0
  4 88  1  0  0  0
  4 89  1  0  0  0
  5  6  1  0  0  0
  5 26  1  0  0  0
  5 90  1  0  0  0
  6 25  1  0  0  0
  6 91  1  0  0  0
  6 92  1  0  0  0
  7  8  2  0  0  0
  7 26  1  0  0  0
  7 29  1  0  0  0
  8  9  1  0  0  0
  8 22  1  0  0  0
  9 10  1  0  0  0
  9 27  2  0  0  0
 10 11  2  0  0  0
 10 15  1  0  0  0
 11 12  1  0  0  0
 11 93  1  0  0  0
 12 13  2  0  0  0
 12 94  1  0  0  0
 13 14  1  0  0  0
 13 31  1  0  0  0
 14 15  2  0  0  0
 14 95  1  0  0  0
 15 96  1  0  0  0
 16 17  2  0  0  0
 16 21  1  0  0  0
 16 31  1  0  0  0
 17 18  1  0  0  0
 17 97  1  0  0  0
 18 19  2  0  0  0
 18 98  1  0  0  0
 19 20  1  0  0  0
 19 24  1  0  0  0
 20 21  2  0  0  0
 20 99  1  0  0  0
 21 23  1  0  0  0
 22 28  1  0  0  0
 22 32  2  0  0  0
 26 27  1  0  0  0
 28100  1  0  0  0
 28101  1  0  0  0
 29102  1  0  0  0
 29103  1  0  0  0
 33 34  1  0  0  0
 33 66  1  0  0  0
 33 70  2  0  0  0
 34 36  1  0  0  0
 34 59  1  0  0  0
 34104  1  0  0  0
 35 44  2  0  0  0
 35 45  1  0  0  0
 35 68  1  0  0  0
 36 56  1  0  0  0
 36105  1  0  0  0
 37 39  1  0  0  0
 37 47  1  0  0  0
 37 66  1  0  0  0
 37106  1  0  0  0
 38 43  2  0  0  0
 38 46  1  0  0  0
 38 47  1  0  0  0
 39 64  1  0  0  0
 39 67  2  0  0  0
 40 52  1  0  0  0
 40 53  2  0  0  0
 40 58  1  0  0  0
 41107  1  0  0  0
 41108  1  0  0  0
 41109  1  0  0  0
 41 48  1  0  0  0
 42 43  1  0  0  0
 42 66  1  0  0  0
 42110  1  0  0  0
 42111  1  0  0  0
 43 44  1  0  0  0
 44112  1  0  0  0
 45 46  2  0  0  0
 45113  1  0  0  0
 46114  1  0  0  0
 47115  1  0  0  0
 47116  1  0  0  0
 48 56  1  0  0  0
 48 65  1  0  0  0
 48117  1  0  0  0
 49 50  1  0  0  0
 49 53  1  0  0  0
 49 64  1  0  0  0
 49118  1  0  0  0
 50 51  1  0  0  0
 50119  1  0  0  0
 50120  1  0  0  0
 51 52  1  0  0  0
 51121  1  0  0  0
 51122  1  0  0  0
 52123  1  0  0  0
 52124  1  0  0  0
 53 54  1  0  0  0
 54 55  2  0  0  0
 54125  1  0  0  0
 55 57  1  0  0  0
 55126  1  0  0  0
 56 69  2  0  0  0
 57 58  2  0  0  0
 57127  1  0  0  0
 58128  1  0  0  0
 59 60  1  0  0  0
 59 61  1  0  0  0
 59 62  1  0  0  0
 60129  1  0  0  0
 60130  1  0  0  0
 60131  1  0  0  0
 61132  1  0  0  0
 61133  1  0  0  0
 61134  1  0  0  0
 62135  1  0  0  0
 62136  1  0  0  0
 62137  1  0  0  0
 63 65  1  0  0  0
 63138  1  0  0  0
 63139  1  0  0  0
 63140  1  0  0  0
 64141  1  0  0  0
 65142  1  0  0  0
 68 76  1  0  0  0
 71 72  2  0  0  0
 71 74  1  0  0  0
 71 83  1  0  0  0
 72 78  1  0  0  0
 72 79  1  0  0  0
 73 78  2  0  0  0
 73 80  1  0  0  0
 73 83  1  0  0  0
 74 81  1  0  0  0
 74 82  2  0  0  0
 75143  1  0  0  0
 75144  1  0  0  0
 75145  1  0  0  0
 75 77  1  0  0  0
 76 77  1  0  0  0
 76146  1  0  0  0
 76147  1  0  0  0
 77 81  1  0  0  0
 77148  1  0  0  0
 79149  1  0  0  0
 79150  1  0  0  0
 80151  1  0  0  0
 81152  1  0  0  0
M  ISO  4   1 100  68 101  76 101  80 100
M  END
> <chiral flag>
0

> <version>
0

> <s_m_source_file>
/data/baiqing/PycharmProjects/Reinvent-master-3.2/result/LINK_invent/BTK/process_docking_weight1_custom_product_contain_oxygen_bond_distance_aromatic_linkinvent_7_9_3/rearranged_h_0185.sdf

> <i_m_source_file_index>
8

> <r_mmod_Potential_Energy-OPLS-2005>
84.1059417724609

> <r_mmod_Stretch_Energy-OPLS-2005>
125.59220123291

> <r_mmod_Bend_Energy-OPLS-2005>
214.673187255859

> <r_mmod_Torsional_Energy-OPLS-2005>
248.517959594727

> <r_mmod_Improper_Torsional_Energy-OPLS-2005>
10.3560819625854

> <r_mmod_Van_der_Waal_Energy-OPLS-2005>
108.987091064453

> <r_mmod_Electrostatic_Energy-OPLS-2005>
-461.377227783203

> <r_mmod_Solvation_Energy-OPLS-2005>
-248.179504394531

> <b_mmod_Minimization_Converged-OPLS-2005>
0

> <r_mmod_RMS_Derivative-OPLS-2005>
5.04541015625

$$$$
8
                    3D
 Structure written by MMmdl.
154162  0  0  1  0            999 V2000
  -30.6143  -14.6737   20.4837 C   0  0  0  0  0  0
  -30.4372  -12.4092   19.4604 C   0  0  0  0  0  0
  -29.5091  -12.5046   18.2285 C   0  0  0  0  0  0
  -28.0323  -12.3408   18.6391 C   0  0  0  0  0  0
  -27.6502  -13.2199   19.8593 C   0  0  2  0  0  0
  -28.6942  -13.0972   20.9918 C   0  0  0  0  0  0
  -25.2544  -13.8176   20.5678 C   0  0  0  0  0  0
  -24.1825  -13.0437   20.9205 C   0  0  0  0  0  0
  -24.6399  -11.6911   20.8746 C   0  0  0  0  0  0
  -23.9067  -10.4292   21.0411 C   0  0  0  0  0  0
  -24.3619   -9.4206   21.9186 C   0  0  0  0  0  0
  -23.6293   -8.2240   22.0757 C   0  0  0  0  0  0
  -22.4274   -8.0281   21.3547 C   0  0  0  0  0  0
  -21.9909   -9.0253   20.4645 C   0  0  0  0  0  0
  -22.7241  -10.2134   20.3056 C   0  0  0  0  0  0
  -21.6853   -6.0736   22.5280 C   0  0  0  0  0  0
  -21.4013   -6.5641   23.8213 C   0  0  0  0  0  0
  -21.3658   -5.6792   24.9174 C   0  0  0  0  0  0
  -21.6043   -4.3055   24.7225 C   0  0  0  0  0  0
  -21.8818   -3.8148   23.4345 C   0  0  0  0  0  0
  -21.9192   -4.6964   22.3402 C   0  0  0  0  0  0
  -22.7844  -13.5225   21.1862 C   0  0  0  0  0  0
  -22.1662   -4.2149   21.0978 F   0  0  0  0  0  0
  -21.5627   -3.4539   25.7738 F   0  0  0  0  0  0
  -30.0068  -13.4434   20.4252 N   0  0  0  0  0  0
  -26.2972  -12.9363   20.3295 N   0  0  0  0  0  0
  -25.9327  -11.6519   20.5755 N   0  0  0  0  0  0
  -22.0482  -12.8214   22.0414 N   0  0  0  0  0  0
  -25.4239  -15.1901   20.4071 N   0  0  0  0  0  0
  -31.7853  -14.8103   20.1143 O   0  0  0  0  0  0
  -21.6640   -6.8879   21.4241 O   0  0  0  0  0  0
  -22.3526  -14.5535   20.6714 O   0  0  0  0  0  0
  -24.6271  -31.8573   23.2013 C   0  0  0  0  0  0
  -25.9109  -32.4769   23.8341 C   0  0  1  0  0  0
  -27.2215  -27.3049   20.1194 C   0  0  0  0  0  0
  -25.5919  -33.8570   24.2268 N   0  0  0  0  0  0
  -23.4215  -30.4820   21.5430 C   0  0  2  0  0  0
  -24.8676  -28.9369   20.1080 C   0  0  0  0  0  0
  -22.7474  -29.4616   22.4911 C   0  0  0  0  0  0
  -18.0284  -28.1392   22.8483 C   0  0  0  0  0  0
  -24.1487  -36.7285   23.2642 C   0  0  0  0  0  0
  -25.9635  -30.7847   21.3739 C   0  0  0  0  0  0
  -26.0362  -29.4113   20.7158 C   0  0  0  0  0  0
  -27.2155  -28.6066   20.7121 C   0  0  0  0  0  0
  -26.0323  -26.8912   19.4763 C   0  0  0  0  0  0
  -24.8686  -27.6828   19.4786 C   0  0  0  0  0  0
  -23.6360  -29.8176   20.1578 C   0  0  0  0  0  0
  -25.4111  -36.3073   24.0330 C   0  0  1  0  0  0
  -20.5886  -28.3690   23.1273 C   0  0  2  0  0  0
  -20.6770  -26.9407   22.5407 C   0  0  0  0  0  0
  -19.5750  -26.6384   21.5208 C   0  0  0  0  0  0
  -18.1931  -26.7936   22.1618 C   0  0  0  0  0  0
  -19.1539  -28.8856   23.2878 C   0  0  0  0  0  0
  -18.9467  -30.1458   23.8893 C   0  0  0  0  0  0
  -17.6467  -30.6591   24.0570 C   0  0  0  0  0  0
  -25.9046  -34.9446   23.5099 C   0  0  0  0  0  0
  -16.5355  -29.9092   23.6337 C   0  0  0  0  0  0
  -16.7272  -28.6514   23.0350 C   0  0  0  0  0  0
  -26.4494  -31.6585   25.0714 C   0  0  0  0  0  0
  -25.3731  -31.3731   26.1442 C   0  0  0  0  0  0
  -27.0332  -30.3006   24.6174 C   0  0  0  0  0  0
  -27.6049  -32.4316   25.7491 C   0  0  0  0  0  0
  -27.5576  -37.1794   24.8469 C   0  0  0  0  0  0
  -21.4185  -29.3045   22.3659 N   0  0  0  0  0  0
  -26.4285  -37.3770   23.9413 N   0  0  0  0  0  0
  -24.6894  -31.0579   22.0967 N   0  0  0  0  0  0
  -23.4192  -28.8146   23.2987 O   0  0  0  0  0  0
  -28.3331  -26.4450   20.1852 O   0  0  0  0  0  0
  -26.5618  -34.8918   22.4665 O   0  0  0  0  0  0
  -23.5430  -32.1372   23.7342 O   0  0  0  0  0  0
  -28.9053  -18.0399   21.1418 C   0  0  0  0  0  0
  -29.9573  -20.0435   20.4619 C   0  0  0  0  0  0
  -29.9437  -17.1916   20.6404 C   0  0  0  0  0  0
  -30.9932  -19.1884   19.9278 C   0  0  0  0  0  0
  -30.1147  -21.5957   20.5720 C   0  0  0  0  0  0
  -29.1866  -24.2379   22.2108 C   0  0  0  0  0  0
  -28.1343  -24.9776   20.0149 C   0  0  0  0  0  0
  -29.1942  -23.9939   20.6915 C   0  0  2  0  0  0
  -28.9050  -19.4145   21.0646 N   0  0  0  0  0  0
  -30.9756  -17.8210   20.0099 N   0  0  0  0  0  0
  -32.1330  -19.6624   19.2826 N   0  0  0  0  0  0
  -29.8092  -15.7383   20.8170 N   0  0  0  0  0  0
  -29.0799  -22.4941   20.4390 N   0  0  0  0  0  0
  -31.2454  -22.0405   20.7947 O   0  0  0  0  0  0
  -31.4784  -12.5339   19.1567 H   0  0  0  0  0  0
  -30.3759  -11.4191   19.9144 H   0  0  0  0  0  0
  -29.7783  -11.7440   17.4948 H   0  0  0  0  0  0
  -29.6480  -13.4674   17.7347 H   0  0  0  0  0  0
  -27.8719  -11.2896   18.8789 H   0  0  0  0  0  0
  -27.3785  -12.5621   17.7945 H   0  0  0  0  0  0
  -27.6607  -14.2510   19.5065 H   0  0  0  0  0  0
  -28.7115  -12.0819   21.3902 H   0  0  0  0  0  0
  -28.4348  -13.7430   21.8321 H   0  0  0  0  0  0
  -25.2765   -9.5678   22.4758 H   0  0  0  0  0  0
  -24.0002   -7.4627   22.7477 H   0  0  0  0  0  0
  -21.0839   -8.8770   19.8947 H   0  0  0  0  0  0
  -22.3702  -10.9671   19.6161 H   0  0  0  0  0  0
  -21.2008   -7.6150   23.9715 H   0  0  0  0  0  0
  -21.1480   -6.0525   25.9077 H   0  0  0  0  0  0
  -22.0600   -2.7609   23.2846 H   0  0  0  0  0  0
  -22.4095  -11.9874   22.4801 H   0  0  0  0  0  0
  -21.1097  -13.1238   22.2619 H   0  0  0  0  0  0
  -24.6462  -15.8354   20.4988 H   0  0  0  0  0  0
  -26.2505  -15.6225   20.0162 H   0  0  0  0  0  0
  -26.7176  -32.5421   23.1085 H   0  0  0  0  0  0
  -25.0063  -33.9722   25.0413 H   0  0  0  0  0  0
  -22.7166  -31.3032   21.3991 H   0  0  0  0  0  0
  -23.3749  -35.9619   23.3309 H   0  0  0  0  0  0
  -24.3577  -36.8900   22.2057 H   0  0  0  0  0  0
  -23.7248  -37.6491   23.6658 H   0  0  0  0  0  0
  -26.0956  -31.5477   20.6050 H   0  0  0  0  0  0
  -26.8447  -30.8335   22.0020 H   0  0  0  0  0  0
  -28.1097  -28.9652   21.2021 H   0  0  0  0  0  0
  -25.9755  -25.9375   18.9736 H   0  0  0  0  0  0
  -23.9745  -27.3158   18.9930 H   0  0  0  0  0  0
  -23.7557  -30.5942   19.4021 H   0  0  0  0  0  0
  -22.7568  -29.2466   19.8537 H   0  0  0  0  0  0
  -25.1299  -36.1914   25.0824 H   0  0  0  0  0  0
  -20.9986  -28.3257   24.1389 H   0  0  0  0  0  0
  -20.5658  -26.2294   23.3605 H   0  0  0  0  0  0
  -21.6639  -26.7421   22.1202 H   0  0  0  0  0  0
  -19.6910  -25.6297   21.1233 H   0  0  0  0  0  0
  -19.6698  -27.3196   20.6742 H   0  0  0  0  0  0
  -17.4197  -26.6679   21.4025 H   0  0  0  0  0  0
  -18.0332  -26.0085   22.9020 H   0  0  0  0  0  0
  -19.7945  -30.7277   24.2249 H   0  0  0  0  0  0
  -17.5029  -31.6272   24.5168 H   0  0  0  0  0  0
  -15.5361  -30.3000   23.7675 H   0  0  0  0  0  0
  -15.8667  -28.0842   22.7063 H   0  0  0  0  0  0
  -24.5919  -30.7059   25.7787 H   0  0  0  0  0  0
  -24.8910  -32.2902   26.4836 H   0  0  0  0  0  0
  -25.8063  -30.8943   27.0234 H   0  0  0  0  0  0
  -26.2906  -29.6755   24.1202 H   0  0  0  0  0  0
  -27.4041  -29.7258   25.4672 H   0  0  0  0  0  0
  -27.8771  -30.4297   23.9392 H   0  0  0  0  0  0
  -27.2658  -33.3623   26.2053 H   0  0  0  0  0  0
  -28.3871  -32.6857   25.0326 H   0  0  0  0  0  0
  -28.0698  -31.8443   26.5423 H   0  0  0  0  0  0
  -28.2592  -38.0092   24.7496 H   0  0  0  0  0  0
  -28.1067  -36.2615   24.6306 H   0  0  0  0  0  0
  -27.2290  -37.1462   25.8873 H   0  0  0  0  0  0
  -20.9344  -29.8776   21.6888 H   0  0  0  0  0  0
  -26.0160  -38.2842   24.1417 H   0  0  0  0  0  0
  -28.0506  -17.6045   21.6390 H   0  0  0  0  0  0
  -29.3402  -25.2935   22.4373 H   0  0  0  0  0  0
  -29.9757  -23.6818   22.7167 H   0  0  0  0  0  0
  -28.2353  -23.9418   22.6548 H   0  0  0  0  0  0
  -27.1571  -24.6964   20.4113 H   0  0  0  0  0  0
  -28.1031  -24.7738   18.9441 H   0  0  0  0  0  0
  -30.1666  -24.3093   20.3089 H   0  0  0  0  0  0
  -32.3871  -20.6286   19.4717 H   0  0  0  0  0  0
  -32.9297  -19.0398   19.2197 H   0  0  0  0  0  0
  -28.9106  -15.4502   21.1706 H   0  0  0  0  0  0
  -28.1653  -22.1097   20.2411 H   0  0  0  0  0  0
  1 25  1  0  0  0
  1 30  2  0  0  0
  1 82  1  0  0  0
  2  3  1  0  0  0
  2 25  1  0  0  0
  2 85  1  0  0  0
  2 86  1  0  0  0
  3  4  1  0  0  0
  3 87  1  0  0  0
  3 88  1  0  0  0
  4  5  1  0  0  0
  4 89  1  0  0  0
  4 90  1  0  0  0
  5  6  1  0  0  0
  5 26  1  0  0  0
  5 91  1  0  0  0
  6 25  1  0  0  0
  6 92  1  0  0  0
  6 93  1  0  0  0
  7  8  2  0  0  0
  7 26  1  0  0  0
  7 29  1  0  0  0
  8  9  1  0  0  0
  8 22  1  0  0  0
  9 10  1  0  0  0
  9 27  2  0  0  0
 10 11  2  0  0  0
 10 15  1  0  0  0
 11 12  1  0  0  0
 11 94  1  0  0  0
 12 13  2  0  0  0
 12 95  1  0  0  0
 13 14  1  0  0  0
 13 31  1  0  0  0
 14 15  2  0  0  0
 14 96  1  0  0  0
 15 97  1  0  0  0
 16 17  2  0  0  0
 16 21  1  0  0  0
 16 31  1  0  0  0
 17 18  1  0  0  0
 17 98  1  0  0  0
 18 19  2  0  0  0
 18 99  1  0  0  0
 19 20  1  0  0  0
 19 24  1  0  0  0
 20 21  2  0  0  0
 20100  1  0  0  0
 21 23  1  0  0  0
 22 28  1  0  0  0
 22 32  2  0  0  0
 26 27  1  0  0  0
 28101  1  0  0  0
 28102  1  0  0  0
 29103  1  0  0  0
 29104  1  0  0  0
 33 34  1  0  0  0
 33 66  1  0  0  0
 33 70  2  0  0  0
 34 36  1  0  0  0
 34 59  1  0  0  0
 34105  1  0  0  0
 35 44  2  0  0  0
 35 45  1  0  0  0
 35 68  1  0  0  0
 36 56  1  0  0  0
 36106  1  0  0  0
 37 39  1  0  0  0
 37 47  1  0  0  0
 37 66  1  0  0  0
 37107  1  0  0  0
 38 43  2  0  0  0
 38 46  1  0  0  0
 38 47  1  0  0  0
 39 64  1  0  0  0
 39 67  2  0  0  0
 40 52  1  0  0  0
 40 53  2  0  0  0
 40 58  1  0  0  0
 41108  1  0  0  0
 41109  1  0  0  0
 41110  1  0  0  0
 41 48  1  0  0  0
 42 43  1  0  0  0
 42 66  1  0  0  0
 42111  1  0  0  0
 42112  1  0  0  0
 43 44  1  0  0  0
 44113  1  0  0  0
 45 46  2  0  0  0
 45114  1  0  0  0
 46115  1  0  0  0
 47116  1  0  0  0
 47117  1  0  0  0
 48 56  1  0  0  0
 48 65  1  0  0  0
 48118  1  0  0  0
 49 50  1  0  0  0
 49 53  1  0  0  0
 49 64  1  0  0  0
 49119  1  0  0  0
 50 51  1  0  0  0
 50120  1  0  0  0
 50121  1  0  0  0
 51 52  1  0  0  0
 51122  1  0  0  0
 51123  1  0  0  0
 52124  1  0  0  0
 52125  1  0  0  0
 53 54  1  0  0  0
 54 55  2  0  0  0
 54126  1  0  0  0
 55 57  1  0  0  0
 55127  1  0  0  0
 56 69  2  0  0  0
 57 58  2  0  0  0
 57128  1  0  0  0
 58129  1  0  0  0
 59 60  1  0  0  0
 59 61  1  0  0  0
 59 62  1  0  0  0
 60130  1  0  0  0
 60131  1  0  0  0
 60132  1  0  0  0
 61133  1  0  0  0
 61134  1  0  0  0
 61135  1  0  0  0
 62136  1  0  0  0
 62137  1  0  0  0
 62138  1  0  0  0
 63 65  1  0  0  0
 63139  1  0  0  0
 63140  1  0  0  0
 63141  1  0  0  0
 64142  1  0  0  0
 65143  1  0  0  0
 68 77  1  0  0  0
 71 73  2  0  0  0
 71 79  1  0  0  0
 71144  1  0  0  0
 72 74  1  0  0  0
 72 75  1  0  0  0
 72 79  2  0  0  0
 73 80  1  0  0  0
 73 82  1  0  0  0
 74 80  2  0  0  0
 74 81  1  0  0  0
 75 83  1  0  0  0
 75 84  2  0  0  0
 76145  1  0  0  0
 76146  1  0  0  0
 76147  1  0  0  0
 76 78  1  0  0  0
 77 78  1  0  0  0
 77148  1  0  0  0
 77149  1  0  0  0
 78 83  1  0  0  0
 78150  1  0  0  0
 81151  1  0  0  0
 81152  1  0  0  0
 82153  1  0  0  0
 83154  1  0  0  0
M  ISO  4   1 100  68 101  77 101  82 100
M  END
> <chiral flag>
0

> <version>
0

> <s_m_source_file>
/data/baiqing/PycharmProjects/Reinvent-master-3.2/result/LINK_invent/BTK/process_docking_weight1_custom_product_contain_oxygen_bond_distance_aromatic_linkinvent_7_9_3/rearranged_h_0185.sdf

> <i_m_source_file_index>
9

> <r_mmod_Potential_Energy-OPLS-2005>
152.210784912109

> <r_mmod_Stretch_Energy-OPLS-2005>
97.2288131713867

> <r_mmod_Bend_Energy-OPLS-2005>
151.298843383789

> <r_mmod_Torsional_Energy-OPLS-2005>
226.631851196289

> <r_mmod_Improper_Torsional_Energy-OPLS-2005>
8.53984451293945

> <r_mmod_Van_der_Waal_Energy-OPLS-2005>
151.126861572266

> <r_mmod_Electrostatic_Energy-OPLS-2005>
-283.048095703125

> <r_mmod_Solvation_Energy-OPLS-2005>
-257.699066162109

> <b_mmod_Minimization_Converged-OPLS-2005>
0

> <r_mmod_RMS_Derivative-OPLS-2005>
1.10248267650604

$$$$
9
                    3D
 Structure written by MMmdl.
166174  0  0  1  0            999 V2000
  -31.3654  -14.5781   21.1896 C   0  0  0  0  0  0
  -30.5719  -14.6326   18.8988 C   0  0  0  0  0  0
  -29.1081  -14.6781   17.6845 C   0  0  0  0  0  0
  -27.3848  -14.2739   18.3965 C   0  0  0  0  0  0
  -27.3103  -13.8558   20.2480 C   0  0  2  0  0  0
  -28.8090  -13.6860   21.2788 C   0  0  0  0  0  0
  -24.9737  -13.8880   20.5616 C   0  0  0  0  0  0
  -24.0174  -13.0260   20.9226 C   0  0  0  0  0  0
  -24.6006  -11.7178   20.8975 C   0  0  0  0  0  0
  -23.9217  -10.4221   21.0371 C   0  0  0  0  0  0
  -24.3720   -9.4165   21.9191 C   0  0  0  0  0  0
  -23.6357   -8.2198   22.0752 C   0  0  0  0  0  0
  -22.4358   -8.0202   21.3527 C   0  0  0  0  0  0
  -22.0071   -9.0130   20.4573 C   0  0  0  0  0  0
  -22.7418  -10.1984   20.2991 C   0  0  0  0  0  0
  -21.6869   -6.0701   22.5291 C   0  0  0  0  0  0
  -21.4021   -6.5617   23.8215 C   0  0  0  0  0  0
  -21.3657   -5.6783   24.9164 C   0  0  0  0  0  0
  -21.6047   -4.3047   24.7238 C   0  0  0  0  0  0
  -21.8820   -3.8120   23.4361 C   0  0  0  0  0  0
  -21.9203   -4.6926   22.3405 C   0  0  0  0  0  0
  -22.6242  -13.4565   21.1868 C   0  0  0  0  0  0
  -22.1686   -4.2129   21.0991 F   0  0  0  0  0  0
  -21.5606   -3.4532   25.7741 F   0  0  0  0  0  0
  -30.2862  -14.2122   20.5685 N   0  0  0  0  0  0
  -26.1129  -13.1466   20.5153 N   0  0  0  0  0  0
  -25.9196  -11.8046   20.6786 N   0  0  0  0  0  0
  -21.9448  -12.7491   22.0693 N   0  0  0  0  0  0
  -24.9754  -15.2601   20.2833 N   0  0  0  0  0  0
  -32.4187  -14.6527   20.5677 O   0  0  0  0  0  0
  -21.6663   -6.8844   21.4249 O   0  0  0  0  0  0
  -22.1709  -14.4849   20.6804 O   0  0  0  0  0  0
  -24.7443  -31.7314   23.1017 C   0  0  0  0  0  0
  -25.9747  -32.4124   23.7754 C   0  0  1  0  0  0
  -27.1195  -26.1019   20.1090 C   0  0  0  0  0  0
  -25.6070  -33.7973   24.1593 N   0  0  0  0  0  0
  -23.5807  -30.3217   21.4796 C   0  0  2  0  0  0
  -24.9990  -28.5450   20.0999 C   0  0  0  0  0  0
  -22.7990  -29.3997   22.4597 C   0  0  0  0  0  0
  -18.0367  -28.1488   22.8426 C   0  0  0  0  0  0
  -24.1491  -36.6995   23.2686 C   0  0  0  0  0  0
  -26.1800  -30.2495   21.4460 C   0  0  0  0  0  0
  -26.2078  -28.7553   20.7690 C   0  0  0  0  0  0
  -27.2300  -27.5768   20.7346 C   0  0  0  0  0  0
  -25.8893  -26.2613   19.3941 C   0  0  0  0  0  0
  -24.9141  -27.3298   19.3937 C   0  0  0  0  0  0
  -23.8420  -29.5861   20.1285 C   0  0  0  0  0  0
  -25.4181  -36.2690   24.0229 C   0  0  1  0  0  0
  -20.6022  -28.3848   23.1087 C   0  0  2  0  0  0
  -20.6810  -26.9459   22.5446 C   0  0  0  0  0  0
  -19.5801  -26.6382   21.5256 C   0  0  0  0  0  0
  -18.1972  -26.8012   22.1612 C   0  0  0  0  0  0
  -19.1643  -28.9011   23.2708 C   0  0  0  0  0  0
  -18.9544  -30.1581   23.8773 C   0  0  0  0  0  0
  -17.6526  -30.6635   24.0569 C   0  0  0  0  0  0
  -25.9200  -34.9097   23.4786 C   0  0  0  0  0  0
  -16.5410  -29.9118   23.6368 C   0  0  0  0  0  0
  -16.7345  -28.6556   23.0360 C   0  0  0  0  0  0
  -26.4708  -31.6417   25.0623 C   0  0  0  0  0  0
  -25.3585  -31.3930   26.1105 C   0  0  0  0  0  0
  -27.0709  -30.2693   24.6931 C   0  0  0  0  0  0
  -27.6067  -32.4391   25.7468 C   0  0  0  0  0  0
  -27.5503  -37.1709   24.8508 C   0  0  0  0  0  0
  -21.4595  -29.2965   22.3340 N   0  0  0  0  0  0
  -26.4281  -37.3501   23.9339 N   0  0  0  0  0  0
  -24.8701  -30.8156   22.0600 N   0  0  0  0  0  0
  -23.4189  -28.7672   23.3171 O   0  0  0  0  0  0
  -27.9211  -24.5822   20.0879 O   0  0  0  0  0  0
  -26.5913  -34.8807   22.4454 O   0  0  0  0  0  0
  -23.6363  -32.0663   23.5629 O   0  0  0  0  0  0
  -28.6694  -17.4885   23.2706 C   0  0  0  0  0  0
  -29.2863  -16.5872   22.3489 C   0  0  0  0  0  0
  -29.3501  -17.6407   24.4425 C   0  0  0  0  0  0
  -30.4415  -16.0244   22.8622 C   0  0  0  0  0  0
  -29.1114  -12.7137   19.0431 C   0  0  0  0  0  0
  -28.9499  -18.4579   25.6230 C   0  0  0  0  0  0
  -30.4821  -10.4501   18.5193 C   0  0  0  0  0  0
  -28.7674  -20.2850   21.3498 C   0  0  0  0  0  0
  -30.4901  -11.9665   18.8087 C   0  0  0  0  0  0
  -28.6298  -18.1028   19.2880 C   0  0  0  0  0  0
  -27.7925  -22.5553   19.6975 C   0  0  0  0  0  0
  -28.6775  -15.8589   19.7630 C   0  0  2  0  0  0
  -28.4838  -20.3544   19.8526 C   0  0  1  0  0  0
  -28.5183  -16.3367   21.1869 N   0  0  0  0  0  0
  -31.2645  -15.0445   22.4249 N   0  0  0  0  0  0
  -28.2319  -11.8522   18.8591 O   0  0  0  0  0  0
  -29.6491  -20.6369   19.2675 F   0  0  0  0  0  0
  -30.8114  -16.7084   24.4289 S   0  0  0  0  0  0
  -30.9263  -15.6687   18.8973 H   0  0  0  0  0  0
  -31.4637  -14.2003   18.4405 H   0  0  0  0  0  0
  -29.3142  -14.0618   16.8015 H   0  0  0  0  0  0
  -29.0600  -15.6742   17.2477 H   0  0  0  0  0  0
  -26.8761  -13.5081   17.8066 H   0  0  0  0  0  0
  -26.7144  -15.1047   18.1679 H   0  0  0  0  0  0
  -27.0466  -14.6595   20.9034 H   0  0  0  0  0  0
  -28.9404  -12.6363   21.5593 H   0  0  0  0  0  0
  -28.6399  -14.0999   22.2707 H   0  0  0  0  0  0
  -25.2749   -9.5684   22.4921 H   0  0  0  0  0  0
  -24.0001   -7.4619   22.7565 H   0  0  0  0  0  0
  -21.1015   -8.8641   19.8829 H   0  0  0  0  0  0
  -22.3841  -10.9504   19.6125 H   0  0  0  0  0  0
  -21.2023   -7.6128   23.9706 H   0  0  0  0  0  0
  -21.1484   -6.0515   25.9082 H   0  0  0  0  0  0
  -22.0599   -2.7585   23.2869 H   0  0  0  0  0  0
  -22.3520  -11.9299   22.4943 H   0  0  0  0  0  0
  -21.0129  -13.0341   22.3240 H   0  0  0  0  0  0
  -24.0923  -15.7071   20.0587 H   0  0  0  0  0  0
  -25.7321  -15.5850   19.6979 H   0  0  0  0  0  0
  -26.7893  -32.4445   23.0509 H   0  0  0  0  0  0
  -25.0016  -33.8908   24.9612 H   0  0  0  0  0  0
  -22.9349  -31.1762   21.2644 H   0  0  0  0  0  0
  -23.3748  -35.9348   23.3434 H   0  0  0  0  0  0
  -24.3474  -36.8603   22.2079 H   0  0  0  0  0  0
  -23.7326  -37.6204   23.6772 H   0  0  0  0  0  0
  -26.4664  -30.9492   20.6588 H   0  0  0  0  0  0
  -27.0064  -30.3022   22.1400 H   0  0  0  0  0  0
  -28.1344  -27.7559   21.3019 H   0  0  0  0  0  0
  -25.5990  -25.3955   18.8133 H   0  0  0  0  0  0
  -24.0119  -27.1558   18.8227 H   0  0  0  0  0  0
  -24.0708  -30.3362   19.3728 H   0  0  0  0  0  0
  -22.9202  -29.1090   19.7912 H   0  0  0  0  0  0
  -25.1458  -36.1385   25.0733 H   0  0  0  0  0  0
  -21.0068  -28.3524   24.1247 H   0  0  0  0  0  0
  -20.5687  -26.2477   23.3749 H   0  0  0  0  0  0
  -21.6661  -26.7355   22.1272 H   0  0  0  0  0  0
  -19.6942  -25.6275   21.1349 H   0  0  0  0  0  0
  -19.6783  -27.3141   20.6749 H   0  0  0  0  0  0
  -17.4265  -26.6801   21.3975 H   0  0  0  0  0  0
  -18.0275  -26.0185   22.9019 H   0  0  0  0  0  0
  -19.8012  -30.7440   24.2069 H   0  0  0  0  0  0
  -17.5075  -31.6301   24.5224 H   0  0  0  0  0  0
  -15.5407  -30.2992   23.7801 H   0  0  0  0  0  0
  -15.8738  -28.0878   22.7109 H   0  0  0  0  0  0
  -24.5943  -30.7094   25.7402 H   0  0  0  0  0  0
  -24.8587  -32.3188   26.3954 H   0  0  0  0  0  0
  -25.7603  -30.9512   27.0229 H   0  0  0  0  0  0
  -26.3493  -29.6110   24.2095 H   0  0  0  0  0  0
  -27.4083  -29.7417   25.5861 H   0  0  0  0  0  0
  -27.9487  -30.3716   24.0554 H   0  0  0  0  0  0
  -27.2597  -33.3875   26.1584 H   0  0  0  0  0  0
  -28.4092  -32.6637   25.0431 H   0  0  0  0  0  0
  -28.0476  -31.8810   26.5738 H   0  0  0  0  0  0
  -28.2674  -37.9836   24.7260 H   0  0  0  0  0  0
  -28.0835  -36.2357   24.6741 H   0  0  0  0  0  0
  -27.2162  -37.1817   25.8900 H   0  0  0  0  0  0
  -21.0039  -29.8488   21.6215 H   0  0  0  0  0  0
  -26.0063  -38.2566   24.1187 H   0  0  0  0  0  0
  -27.7253  -17.9801   23.0732 H   0  0  0  0  0  0
  -27.8777  -18.3641   25.8162 H   0  0  0  0  0  0
  -29.1729  -19.5128   25.4588 H   0  0  0  0  0  0
  -29.4769  -18.1407   26.5224 H   0  0  0  0  0  0
  -31.4706  -10.0369   18.7287 H   0  0  0  0  0  0
  -30.2672  -10.2666   17.4632 H   0  0  0  0  0  0
  -29.7644   -9.8944   19.1228 H   0  0  0  0  0  0
  -27.9495  -19.7772   21.8548 H   0  0  0  0  0  0
  -28.8556  -21.2826   21.7796 H   0  0  0  0  0  0
  -29.6949  -19.7553   21.5726 H   0  0  0  0  0  0
  -31.1412  -12.1363   19.6647 H   0  0  0  0  0  0
  -30.9661  -12.3871   17.9264 H   0  0  0  0  0  0
  -28.1454  -18.0929   18.3122 H   0  0  0  0  0  0
  -29.6871  -18.1461   19.0339 H   0  0  0  0  0  0
  -26.7408  -22.4417   19.9627 H   0  0  0  0  0  0
  -27.7608  -22.6363   18.6106 H   0  0  0  0  0  0
  -27.6269  -16.0480   19.5868 H   0  0  0  0  0  0
  -27.5988  -16.7455   21.3019 H   0  0  0  0  0  0
  -32.1544  -15.0603   22.9002 H   0  0  0  0  0  0
  1 25  1  0  0  0
  1 30  2  0  0  0
  1 85  1  0  0  0
  2  3  1  0  0  0
  2 25  1  0  0  0
  2 89  1  0  0  0
  2 90  1  0  0  0
  3  4  1  0  0  0
  3 91  1  0  0  0
  3 92  1  0  0  0
  4  5  1  0  0  0
  4 93  1  0  0  0
  4 94  1  0  0  0
  5  6  1  0  0  0
  5 26  1  0  0  0
  5 95  1  0  0  0
  6 25  1  0  0  0
  6 96  1  0  0  0
  6 97  1  0  0  0
  7  8  2  0  0  0
  7 26  1  0  0  0
  7 29  1  0  0  0
  8  9  1  0  0  0
  8 22  1  0  0  0
  9 10  1  0  0  0
  9 27  2  0  0  0
 10 11  2  0  0  0
 10 15  1  0  0  0
 11 12  1  0  0  0
 11 98  1  0  0  0
 12 13  2  0  0  0
 12 99  1  0  0  0
 13 14  1  0  0  0
 13 31  1  0  0  0
 14 15  2  0  0  0
 14100  1  0  0  0
 15101  1  0  0  0
 16 17  2  0  0  0
 16 21  1  0  0  0
 16 31  1  0  0  0
 17 18  1  0  0  0
 17102  1  0  0  0
 18 19  2  0  0  0
 18103  1  0  0  0
 19 20  1  0  0  0
 19 24  1  0  0  0
 20 21  2  0  0  0
 20104  1  0  0  0
 21 23  1  0  0  0
 22 28  1  0  0  0
 22 32  2  0  0  0
 26 27  1  0  0  0
 28105  1  0  0  0
 28106  1  0  0  0
 29107  1  0  0  0
 29108  1  0  0  0
 33 34  1  0  0  0
 33 66  1  0  0  0
 33 70  2  0  0  0
 34 36  1  0  0  0
 34 59  1  0  0  0
 34109  1  0  0  0
 35 44  2  0  0  0
 35 45  1  0  0  0
 35 68  1  0  0  0
 36 56  1  0  0  0
 36110  1  0  0  0
 37 39  1  0  0  0
 37 47  1  0  0  0
 37 66  1  0  0  0
 37111  1  0  0  0
 38 43  2  0  0  0
 38 46  1  0  0  0
 38 47  1  0  0  0
 39 64  1  0  0  0
 39 67  2  0  0  0
 40 52  1  0  0  0
 40 53  2  0  0  0
 40 58  1  0  0  0
 41112  1  0  0  0
 41113  1  0  0  0
 41114  1  0  0  0
 41 48  1  0  0  0
 42 43  1  0  0  0
 42 66  1  0  0  0
 42115  1  0  0  0
 42116  1  0  0  0
 43 44  1  0  0  0
 44117  1  0  0  0
 45 46  2  0  0  0
 45118  1  0  0  0
 46119  1  0  0  0
 47120  1  0  0  0
 47121  1  0  0  0
 48 56  1  0  0  0
 48 65  1  0  0  0
 48122  1  0  0  0
 49 50  1  0  0  0
 49 53  1  0  0  0
 49 64  1  0  0  0
 49123  1  0  0  0
 50 51  1  0  0  0
 50124  1  0  0  0
 50125  1  0  0  0
 51 52  1  0  0  0
 51126  1  0  0  0
 51127  1  0  0  0
 52128  1  0  0  0
 52129  1  0  0  0
 53 54  1  0  0  0
 54 55  2  0  0  0
 54130  1  0  0  0
 55 57  1  0  0  0
 55131  1  0  0  0
 56 69  2  0  0  0
 57 58  2  0  0  0
 57132  1  0  0  0
 58133  1  0  0  0
 59 60  1  0  0  0
 59 61  1  0  0  0
 59 62  1  0  0  0
 60134  1  0  0  0
 60135  1  0  0  0
 60136  1  0  0  0
 61137  1  0  0  0
 61138  1  0  0  0
 61139  1  0  0  0
 62140  1  0  0  0
 62141  1  0  0  0
 62142  1  0  0  0
 63 65  1  0  0  0
 63143  1  0  0  0
 63144  1  0  0  0
 63145  1  0  0  0
 64146  1  0  0  0
 65147  1  0  0  0
 68 81  1  0  0  0
 71 72  1  0  0  0
 71 73  2  0  0  0
 71148  1  0  0  0
 72 74  2  0  0  0
 72 84  1  0  0  0
 73 76  1  0  0  0
 73 88  1  0  0  0
 74 85  1  0  0  0
 74 88  1  0  0  0
 75 79  1  0  0  0
 75 82  1  0  0  0
 75 86  2  0  0  0
 76149  1  0  0  0
 76150  1  0  0  0
 76151  1  0  0  0
 77 79  1  0  0  0
 77152  1  0  0  0
 77153  1  0  0  0
 77154  1  0  0  0
 78155  1  0  0  0
 78156  1  0  0  0
 78157  1  0  0  0
 78 83  1  0  0  0
 79158  1  0  0  0
 79159  1  0  0  0
 80 83  1  0  0  0
 80160  1  0  0  0
 80161  1  0  0  0
 80 82  1  0  0  0
 81 83  1  0  0  0
 81162  1  0  0  0
 81163  1  0  0  0
 82 84  1  0  0  0
 82164  1  0  0  0
 83 87  1  0  0  0
 84165  1  0  0  0
 85166  1  0  0  0
M  ISO  4   1 100  68 101  81 101  85 100
M  END
> <chiral flag>
0

> <version>
0

> <s_m_source_file>
/data/baiqing/PycharmProjects/Reinvent-master-3.2/result/LINK_invent/BTK/process_docking_weight1_custom_product_contain_oxygen_bond_distance_aromatic_linkinvent_7_9_3/rearranged_h_0185.sdf

> <i_m_source_file_index>
10

> <r_mmod_Potential_Energy-OPLS-2005>
12963.693359375

> <r_mmod_Stretch_Energy-OPLS-2005>
7113.54150390625

> <r_mmod_Bend_Energy-OPLS-2005>
1481.83386230469

> <r_mmod_Torsional_Energy-OPLS-2005>
338.638610839844

> <r_mmod_Improper_Torsional_Energy-OPLS-2005>
12.7317905426025

> <r_mmod_Van_der_Waal_Energy-OPLS-2005>
1678.55212402344

> <r_mmod_Electrostatic_Energy-OPLS-2005>
-446.532287597656

> <r_mmod_Solvation_Energy-OPLS-2005>
-208.8935546875

> <b_mmod_Minimization_Converged-OPLS-2005>
0

> <r_mmod_RMS_Derivative-OPLS-2005>
7.25414657592773

$$$$
10
                    3D
 Structure written by MMmdl.
155163  0  0  1  0            999 V2000
  -30.5749  -14.6212   20.5828 C   0  0  0  0  0  0
  -30.4607  -12.4009   19.4581 C   0  0  0  0  0  0
  -29.5320  -12.5401   18.2302 C   0  0  0  0  0  0
  -28.0509  -12.3624   18.6284 C   0  0  0  0  0  0
  -27.6655  -13.2027   19.8781 C   0  0  2  0  0  0
  -28.6979  -12.9912   21.0080 C   0  0  0  0  0  0
  -25.2578  -13.8131   20.5647 C   0  0  0  0  0  0
  -24.1821  -13.0441   20.9147 C   0  0  0  0  0  0
  -24.6360  -11.6892   20.8677 C   0  0  0  0  0  0
  -23.9029  -10.4282   21.0378 C   0  0  0  0  0  0
  -24.3601   -9.4208   21.9173 C   0  0  0  0  0  0
  -23.6271   -8.2247   22.0746 C   0  0  0  0  0  0
  -22.4245   -8.0291   21.3542 C   0  0  0  0  0  0
  -21.9879   -9.0261   20.4633 C   0  0  0  0  0  0
  -22.7197  -10.2134   20.3033 C   0  0  0  0  0  0
  -21.6842   -6.0737   22.5272 C   0  0  0  0  0  0
  -21.4026   -6.5622   23.8211 C   0  0  0  0  0  0
  -21.3665   -5.6757   24.9167 C   0  0  0  0  0  0
  -21.6052   -4.3023   24.7216 C   0  0  0  0  0  0
  -21.8815   -3.8140   23.4331 C   0  0  0  0  0  0
  -21.9186   -4.6968   22.3389 C   0  0  0  0  0  0
  -22.7855  -13.5282   21.1825 C   0  0  0  0  0  0
  -22.1653   -4.2162   21.0963 F   0  0  0  0  0  0
  -21.5632   -3.4495   25.7717 F   0  0  0  0  0  0
  -30.0190  -13.3722   20.4775 N   0  0  0  0  0  0
  -26.3014  -12.9285   20.3303 N   0  0  0  0  0  0
  -25.9287  -11.6450   20.5693 N   0  0  0  0  0  0
  -22.0447  -12.8317   22.0357 N   0  0  0  0  0  0
  -25.4268  -15.1862   20.4087 N   0  0  0  0  0  0
  -31.6918  -14.8758   20.1183 O   0  0  0  0  0  0
  -21.6631   -6.8877   21.4232 O   0  0  0  0  0  0
  -22.3567  -14.5599   20.6651 O   0  0  0  0  0  0
  -24.6253  -31.8654   23.2021 C   0  0  0  0  0  0
  -25.9107  -32.4817   23.8346 C   0  0  1  0  0  0
  -27.1949  -27.3065   20.1188 C   0  0  0  0  0  0
  -25.5905  -33.8608   24.2291 N   0  0  0  0  0  0
  -23.4154  -30.4880   21.5525 C   0  0  2  0  0  0
  -24.8591  -28.9526   20.1065 C   0  0  0  0  0  0
  -22.7471  -29.4633   22.4998 C   0  0  0  0  0  0
  -18.0296  -28.1337   22.8544 C   0  0  0  0  0  0
  -24.1482  -36.7294   23.2634 C   0  0  0  0  0  0
  -25.9608  -30.7897   21.3783 C   0  0  0  0  0  0
  -26.0300  -29.4192   20.7154 C   0  0  0  0  0  0
  -27.2041  -28.6054   20.7129 C   0  0  0  0  0  0
  -26.0055  -26.9059   19.4653 C   0  0  0  0  0  0
  -24.8492  -27.7046   19.4700 C   0  0  0  0  0  0
  -23.6254  -29.8281   20.1660 C   0  0  0  0  0  0
  -25.4110  -36.3110   24.0340 C   0  0  1  0  0  0
  -20.5895  -28.3641   23.1332 C   0  0  2  0  0  0
  -20.6768  -26.9372   22.5420 C   0  0  0  0  0  0
  -19.5741  -26.6366   21.5220 C   0  0  0  0  0  0
  -18.1932  -26.7904   22.1646 C   0  0  0  0  0  0
  -19.1542  -28.8800   23.2942 C   0  0  0  0  0  0
  -18.9461  -30.1408   23.8951 C   0  0  0  0  0  0
  -17.6445  -30.6561   24.0522 C   0  0  0  0  0  0
  -25.9050  -34.9485   23.5127 C   0  0  0  0  0  0
  -16.5352  -29.9032   23.6295 C   0  0  0  0  0  0
  -16.7286  -28.6418   23.0412 C   0  0  0  0  0  0
  -26.4470  -31.6600   25.0703 C   0  0  0  0  0  0
  -25.3661  -31.3791   26.1398 C   0  0  0  0  0  0
  -27.0308  -30.3018   24.6166 C   0  0  0  0  0  0
  -27.6022  -32.4339   25.7477 C   0  0  0  0  0  0
  -27.5599  -37.1794   24.8479 C   0  0  0  0  0  0
  -21.4183  -29.3011   22.3750 N   0  0  0  0  0  0
  -26.4313  -37.3789   23.9419 N   0  0  0  0  0  0
  -24.6863  -31.0650   22.0993 N   0  0  0  0  0  0
  -23.4215  -28.8183   23.3071 O   0  0  0  0  0  0
  -28.2770  -26.4149   20.2113 O   0  0  0  0  0  0
  -26.5638  -34.8946   22.4705 O   0  0  0  0  0  0
  -23.5412  -32.1490   23.7332 O   0  0  0  0  0  0
  -28.4777  -17.6011   21.5258 C   0  0  0  0  0  0
  -28.4469  -19.0331   21.3213 C   0  0  0  0  0  0
  -29.5758  -16.9188   21.0337 C   0  0  0  0  0  0
  -29.5544  -19.5033   20.6440 C   0  0  0  0  0  0
  -27.3253  -19.8913   21.8356 C   0  0  0  0  0  0
  -27.1976  -24.7998   21.7427 C   0  0  0  0  0  0
  -29.2023  -23.9551   20.4175 C   0  0  0  0  0  0
  -27.9769  -24.9656   20.4165 C   0  0  1  0  0  0
  -29.7603  -15.5508   21.1724 N   0  0  0  0  0  0
  -28.8310  -22.4765   20.4304 N   0  0  0  0  0  0
  -31.1371  -21.5676   21.1776 O   0  0  0  0  0  0
  -30.3973  -21.2298   18.7749 O   0  0  0  0  0  0
  -30.6075  -18.1199   20.2377 S   0  0  0  0  0  0
  -30.0746  -21.2343   20.2105 S   0  0  0  0  0  0
  -31.5034  -12.5547   19.1695 H   0  0  0  0  0  0
  -30.4120  -11.3917   19.8655 H   0  0  0  0  0  0
  -29.8142  -11.8203   17.4585 H   0  0  0  0  0  0
  -29.6705  -13.5288   17.7852 H   0  0  0  0  0  0
  -27.8781  -11.3050   18.8281 H   0  0  0  0  0  0
  -27.4120  -12.6205   17.7851 H   0  0  0  0  0  0
  -27.7066  -14.2520   19.5837 H   0  0  0  0  0  0
  -28.7115  -11.9463   21.3203 H   0  0  0  0  0  0
  -28.4211  -13.5458   21.9066 H   0  0  0  0  0  0
  -25.2761   -9.5689   22.4719 H   0  0  0  0  0  0
  -23.9991   -7.4639   22.7457 H   0  0  0  0  0  0
  -21.0826   -8.8777   19.8938 H   0  0  0  0  0  0
  -22.3671  -10.9680   19.6137 H   0  0  0  0  0  0
  -21.2015   -7.6131   23.9728 H   0  0  0  0  0  0
  -21.1493   -6.0482   25.9077 H   0  0  0  0  0  0
  -22.0588   -2.7605   23.2805 H   0  0  0  0  0  0
  -22.4055  -12.0061   22.4907 H   0  0  0  0  0  0
  -21.1061  -13.1371   22.2464 H   0  0  0  0  0  0
  -24.6443  -15.8244   20.4970 H   0  0  0  0  0  0
  -26.2609  -15.6305   20.0494 H   0  0  0  0  0  0
  -26.7192  -32.5496   23.1105 H   0  0  0  0  0  0
  -24.9952  -33.9751   25.0366 H   0  0  0  0  0  0
  -22.7060  -31.3078   21.4125 H   0  0  0  0  0  0
  -23.3761  -35.9607   23.3316 H   0  0  0  0  0  0
  -24.3564  -36.8899   22.2040 H   0  0  0  0  0  0
  -23.7222  -37.6494   23.6646 H   0  0  0  0  0  0
  -26.0997  -31.5534   20.6113 H   0  0  0  0  0  0
  -26.8381  -30.8322   22.0116 H   0  0  0  0  0  0
  -28.1023  -28.9415   21.2151 H   0  0  0  0  0  0
  -25.9259  -25.9538   18.9647 H   0  0  0  0  0  0
  -23.9509  -27.3484   18.9852 H   0  0  0  0  0  0
  -23.7304  -30.6051   19.4088 H   0  0  0  0  0  0
  -22.7447  -29.2539   19.8742 H   0  0  0  0  0  0
  -25.1286  -36.1965   25.0834 H   0  0  0  0  0  0
  -20.9987  -28.3174   24.1450 H   0  0  0  0  0  0
  -20.5642  -26.2241   23.3609 H   0  0  0  0  0  0
  -21.6643  -26.7396   22.1222 H   0  0  0  0  0  0
  -19.6874  -25.6273   21.1254 H   0  0  0  0  0  0
  -19.6655  -27.3169   20.6744 H   0  0  0  0  0  0
  -17.4195  -26.6719   21.4042 H   0  0  0  0  0  0
  -18.0291  -26.0010   22.8997 H   0  0  0  0  0  0
  -19.7926  -30.7203   24.2394 H   0  0  0  0  0  0
  -17.4990  -31.6263   24.5083 H   0  0  0  0  0  0
  -15.5342  -30.2925   23.7578 H   0  0  0  0  0  0
  -15.8711  -28.0669   22.7198 H   0  0  0  0  0  0
  -24.5761  -30.7267   25.7672 H   0  0  0  0  0  0
  -24.8909  -32.2990   26.4808 H   0  0  0  0  0  0
  -25.7847  -30.8894   27.0194 H   0  0  0  0  0  0
  -26.2883  -29.6775   24.1176 H   0  0  0  0  0  0
  -27.4012  -29.7263   25.4661 H   0  0  0  0  0  0
  -27.8753  -30.4315   23.9394 H   0  0  0  0  0  0
  -27.2621  -33.3619   26.2094 H   0  0  0  0  0  0
  -28.3776  -32.6970   25.0267 H   0  0  0  0  0  0
  -28.0773  -31.8465   26.5353 H   0  0  0  0  0  0
  -28.2633  -38.0077   24.7512 H   0  0  0  0  0  0
  -28.1086  -36.2611   24.6310 H   0  0  0  0  0  0
  -27.2327  -37.1441   25.8888 H   0  0  0  0  0  0
  -20.9349  -29.8697   21.6937 H   0  0  0  0  0  0
  -26.0217  -38.2892   24.1341 H   0  0  0  0  0  0
  -27.6658  -17.1178   22.0541 H   0  0  0  0  0  0
  -26.4875  -19.2905   22.1940 H   0  0  0  0  0  0
  -26.9276  -20.5426   21.0588 H   0  0  0  0  0  0
  -27.6516  -20.5175   22.6666 H   0  0  0  0  0  0
  -26.2590  -25.3532   21.7477 H   0  0  0  0  0  0
  -27.7826  -25.1401   22.5975 H   0  0  0  0  0  0
  -26.9394  -23.7551   21.9227 H   0  0  0  0  0  0
  -29.8259  -24.1530   19.5422 H   0  0  0  0  0  0
  -29.8220  -24.1599   21.2916 H   0  0  0  0  0  0
  -27.3445  -24.6089   19.6053 H   0  0  0  0  0  0
  -29.0024  -15.0957   21.6624 H   0  0  0  0  0  0
  -28.0735  -22.2928   19.7706 H   0  0  0  0  0  0
  1 25  1  0  0  0
  1 30  2  0  0  0
  1 79  1  0  0  0
  2  3  1  0  0  0
  2 25  1  0  0  0
  2 85  1  0  0  0
  2 86  1  0  0  0
  3  4  1  0  0  0
  3 87  1  0  0  0
  3 88  1  0  0  0
  4  5  1  0  0  0
  4 89  1  0  0  0
  4 90  1  0  0  0
  5  6  1  0  0  0
  5 26  1  0  0  0
  5 91  1  0  0  0
  6 25  1  0  0  0
  6 92  1  0  0  0
  6 93  1  0  0  0
  7  8  2  0  0  0
  7 26  1  0  0  0
  7 29  1  0  0  0
  8  9  1  0  0  0
  8 22  1  0  0  0
  9 10  1  0  0  0
  9 27  2  0  0  0
 10 11  2  0  0  0
 10 15  1  0  0  0
 11 12  1  0  0  0
 11 94  1  0  0  0
 12 13  2  0  0  0
 12 95  1  0  0  0
 13 14  1  0  0  0
 13 31  1  0  0  0
 14 15  2  0  0  0
 14 96  1  0  0  0
 15 97  1  0  0  0
 16 17  2  0  0  0
 16 21  1  0  0  0
 16 31  1  0  0  0
 17 18  1  0  0  0
 17 98  1  0  0  0
 18 19  2  0  0  0
 18 99  1  0  0  0
 19 20  1  0  0  0
 19 24  1  0  0  0
 20 21  2  0  0  0
 20100  1  0  0  0
 21 23  1  0  0  0
 22 28  1  0  0  0
 22 32  2  0  0  0
 26 27  1  0  0  0
 28101  1  0  0  0
 28102  1  0  0  0
 29103  1  0  0  0
 29104  1  0  0  0
 33 34  1  0  0  0
 33 66  1  0  0  0
 33 70  2  0  0  0
 34 36  1  0  0  0
 34 59  1  0  0  0
 34105  1  0  0  0
 35 44  2  0  0  0
 35 45  1  0  0  0
 35 68  1  0  0  0
 36 56  1  0  0  0
 36106  1  0  0  0
 37 39  1  0  0  0
 37 47  1  0  0  0
 37 66  1  0  0  0
 37107  1  0  0  0
 38 43  2  0  0  0
 38 46  1  0  0  0
 38 47  1  0  0  0
 39 64  1  0  0  0
 39 67  2  0  0  0
 40 52  1  0  0  0
 40 53  2  0  0  0
 40 58  1  0  0  0
 41108  1  0  0  0
 41109  1  0  0  0
 41110  1  0  0  0
 41 48  1  0  0  0
 42 43  1  0  0  0
 42 66  1  0  0  0
 42111  1  0  0  0
 42112  1  0  0  0
 43 44  1  0  0  0
 44113  1  0  0  0
 45 46  2  0  0  0
 45114  1  0  0  0
 46115  1  0  0  0
 47116  1  0  0  0
 47117  1  0  0  0
 48 56  1  0  0  0
 48 65  1  0  0  0
 48118  1  0  0  0
 49 50  1  0  0  0
 49 53  1  0  0  0
 49 64  1  0  0  0
 49119  1  0  0  0
 50 51  1  0  0  0
 50120  1  0  0  0
 50121  1  0  0  0
 51 52  1  0  0  0
 51122  1  0  0  0
 51123  1  0  0  0
 52124  1  0  0  0
 52125  1  0  0  0
 53 54  1  0  0  0
 54 55  2  0  0  0
 54126  1  0  0  0
 55 57  1  0  0  0
 55127  1  0  0  0
 56 69  2  0  0  0
 57 58  2  0  0  0
 57128  1  0  0  0
 58129  1  0  0  0
 59 60  1  0  0  0
 59 61  1  0  0  0
 59 62  1  0  0  0
 60130  1  0  0  0
 60131  1  0  0  0
 60132  1  0  0  0
 61133  1  0  0  0
 61134  1  0  0  0
 61135  1  0  0  0
 62136  1  0  0  0
 62137  1  0  0  0
 62138  1  0  0  0
 63 65  1  0  0  0
 63139  1  0  0  0
 63140  1  0  0  0
 63141  1  0  0  0
 64142  1  0  0  0
 65143  1  0  0  0
 68 78  1  0  0  0
 71 72  1  0  0  0
 71 73  2  0  0  0
 71144  1  0  0  0
 72 74  2  0  0  0
 72 75  1  0  0  0
 73 79  1  0  0  0
 73 83  1  0  0  0
 74 83  1  0  0  0
 74 84  1  0  0  0
 75145  1  0  0  0
 75146  1  0  0  0
 75147  1  0  0  0
 76148  1  0  0  0
 76149  1  0  0  0
 76150  1  0  0  0
 76 78  1  0  0  0
 77 78  1  0  0  0
 77 80  1  0  0  0
 77151  1  0  0  0
 77152  1  0  0  0
 78153  1  0  0  0
 79154  1  0  0  0
 80155  1  0  0  0
 80 84  1  0  0  0
 81 84  2  0  0  0
 82 84  2  0  0  0
M  ISO  4   1 100  68 101  78 101  79 100
M  END
> <chiral flag>
0

> <version>
0

> <s_m_source_file>
/data/baiqing/PycharmProjects/Reinvent-master-3.2/result/LINK_invent/BTK/process_docking_weight1_custom_product_contain_oxygen_bond_distance_aromatic_linkinvent_7_9_3/rearranged_h_0185.sdf

> <i_m_source_file_index>
11

> <r_mmod_Potential_Energy-OPLS-2005>
-87.3215103149414

> <r_mmod_Stretch_Energy-OPLS-2005>
77.47509765625

> <r_mmod_Bend_Energy-OPLS-2005>
154.862533569336

> <r_mmod_Torsional_Energy-OPLS-2005>
224.739868164062

> <r_mmod_Improper_Torsional_Energy-OPLS-2005>
8.71573257446289

> <r_mmod_Van_der_Waal_Energy-OPLS-2005>
116.67317199707

> <r_mmod_Electrostatic_Energy-OPLS-2005>
-477.316070556641

> <r_mmod_Solvation_Energy-OPLS-2005>
-248.46696472168

> <b_mmod_Minimization_Converged-OPLS-2005>
0

> <r_mmod_RMS_Derivative-OPLS-2005>
5.16290330886841

$$$$
11
                    3D
 Structure written by MMmdl.
155163  0  0  1  0            999 V2000
  -30.6295  -14.6840   20.4483 C   0  0  0  0  0  0
  -30.4316  -12.4047   19.4703 C   0  0  0  0  0  0
  -29.5119  -12.4980   18.2320 C   0  0  0  0  0  0
  -28.0331  -12.3319   18.6378 C   0  0  0  0  0  0
  -27.6429  -13.2258   19.8440 C   0  0  2  0  0  0
  -28.6885  -13.1512   20.9775 C   0  0  0  0  0  0
  -25.2533  -13.8188   20.5692 C   0  0  0  0  0  0
  -24.1810  -13.0437   20.9203 C   0  0  0  0  0  0
  -24.6398  -11.6915   20.8745 C   0  0  0  0  0  0
  -23.9075  -10.4292   21.0415 C   0  0  0  0  0  0
  -24.3630   -9.4206   21.9188 C   0  0  0  0  0  0
  -23.6302   -8.2241   22.0753 C   0  0  0  0  0  0
  -22.4283   -8.0286   21.3549 C   0  0  0  0  0  0
  -21.9926   -9.0254   20.4642 C   0  0  0  0  0  0
  -22.7254  -10.2133   20.3054 C   0  0  0  0  0  0
  -21.6846   -6.0744   22.5286 C   0  0  0  0  0  0
  -21.4007   -6.5644   23.8224 C   0  0  0  0  0  0
  -21.3656   -5.6795   24.9180 C   0  0  0  0  0  0
  -21.6049   -4.3057   24.7230 C   0  0  0  0  0  0
  -21.8816   -3.8154   23.4349 C   0  0  0  0  0  0
  -21.9185   -4.6973   22.3410 C   0  0  0  0  0  0
  -22.7833  -13.5226   21.1867 C   0  0  0  0  0  0
  -22.1655   -4.2162   21.0986 F   0  0  0  0  0  0
  -21.5634   -3.4538   25.7741 F   0  0  0  0  0  0
  -30.0066  -13.4606   20.4128 N   0  0  0  0  0  0
  -26.2948  -12.9381   20.3254 N   0  0  0  0  0  0
  -25.9327  -11.6531   20.5739 N   0  0  0  0  0  0
  -22.0466  -12.8217   22.0422 N   0  0  0  0  0  0
  -25.4242  -15.1909   20.4145 N   0  0  0  0  0  0
  -31.8279  -14.7550   20.1623 O   0  0  0  0  0  0
  -21.6637   -6.8890   21.4250 O   0  0  0  0  0  0
  -22.3517  -14.5527   20.6704 O   0  0  0  0  0  0
  -24.6286  -31.8573   23.2018 C   0  0  0  0  0  0
  -25.9128  -32.4761   23.8359 C   0  0  1  0  0  0
  -27.2270  -27.3116   20.1298 C   0  0  0  0  0  0
  -25.5954  -33.8564   24.2292 N   0  0  0  0  0  0
  -23.4233  -30.4792   21.5442 C   0  0  2  0  0  0
  -24.8706  -28.9263   20.1163 C   0  0  0  0  0  0
  -22.7474  -29.4624   22.4942 C   0  0  0  0  0  0
  -18.0281  -28.1385   22.8488 C   0  0  0  0  0  0
  -24.1488  -36.7265   23.2641 C   0  0  0  0  0  0
  -25.9636  -30.7877   21.3723 C   0  0  0  0  0  0
  -26.0394  -29.4133   20.7160 C   0  0  0  0  0  0
  -27.2248  -28.6192   20.7074 C   0  0  0  0  0  0
  -26.0375  -26.8683   19.5179 C   0  0  0  0  0  0
  -24.8705  -27.6599   19.5083 C   0  0  0  0  0  0
  -23.6381  -29.8076   20.1618 C   0  0  0  0  0  0
  -25.4111  -36.3061   24.0335 C   0  0  1  0  0  0
  -20.5887  -28.3691   23.1271 C   0  0  2  0  0  0
  -20.6773  -26.9406   22.5405 C   0  0  0  0  0  0
  -19.5747  -26.6383   21.5208 C   0  0  0  0  0  0
  -18.1926  -26.7934   22.1614 C   0  0  0  0  0  0
  -19.1538  -28.8852   23.2878 C   0  0  0  0  0  0
  -18.9462  -30.1457   23.8886 C   0  0  0  0  0  0
  -17.6464  -30.6589   24.0555 C   0  0  0  0  0  0
  -25.9055  -34.9435   23.5107 C   0  0  0  0  0  0
  -16.5353  -29.9076   23.6347 C   0  0  0  0  0  0
  -16.7268  -28.6494   23.0366 C   0  0  0  0  0  0
  -26.4515  -31.6579   25.0730 C   0  0  0  0  0  0
  -25.3748  -31.3692   26.1458 C   0  0  0  0  0  0
  -27.0379  -30.3006   24.6197 C   0  0  0  0  0  0
  -27.6088  -32.4315   25.7486 C   0  0  0  0  0  0
  -27.5584  -37.1772   24.8461 C   0  0  0  0  0  0
  -21.4188  -29.3046   22.3670 N   0  0  0  0  0  0
  -26.4277  -37.3776   23.9437 N   0  0  0  0  0  0
  -24.6908  -31.0574   22.0975 N   0  0  0  0  0  0
  -23.4179  -28.8165   23.3040 O   0  0  0  0  0  0
  -28.3363  -26.4579   20.1263 O   0  0  0  0  0  0
  -26.5610  -34.8911   22.4664 O   0  0  0  0  0  0
  -23.5445  -32.1375   23.7335 O   0  0  0  0  0  0
  -28.8616  -19.2936   19.2924 C   0  0  0  0  0  0
  -29.7787  -18.8114   20.2158 C   0  0  0  0  0  0
  -29.1505  -21.3069   20.4169 C   0  0  0  0  0  0
  -28.5642  -23.8256   20.0636 C   0  0  0  0  0  0
  -28.2494  -18.5090   18.1711 C   0  0  0  0  0  0
  -32.2219  -18.0623   18.6504 C   0  0  0  0  0  0
  -29.8107  -16.0477   20.6122 C   0  0  0  0  0  0
  -28.2020  -25.1630   20.8437 C   0  0  0  0  0  0
  -30.5324  -17.4320   20.2328 C   0  0  1  0  0  0
  -28.5364  -20.6748   19.4050 N   0  0  0  0  0  0
  -28.9281  -22.7094   20.7854 N   0  0  0  0  0  0
  -28.5109  -23.8226   18.8297 O   0  0  0  0  0  0
  -31.0523  -17.2917   18.9101 O   0  0  0  0  0  0
  -30.1607  -20.1418   21.3348 S   0  0  0  0  0  0
  -31.4764  -12.5071   19.1732 H   0  0  0  0  0  0
  -30.3494  -11.4228   19.9384 H   0  0  0  0  0  0
  -29.7859  -11.7367   17.5007 H   0  0  0  0  0  0
  -29.6521  -13.4611   17.7388 H   0  0  0  0  0  0
  -27.8743  -11.2824   18.8879 H   0  0  0  0  0  0
  -27.3817  -12.5422   17.7885 H   0  0  0  0  0  0
  -27.6331  -14.2442   19.4613 H   0  0  0  0  0  0
  -28.7001  -12.1584   21.4286 H   0  0  0  0  0  0
  -28.4374  -13.8472   21.7789 H   0  0  0  0  0  0
  -25.2772   -9.5682   22.4766 H   0  0  0  0  0  0
  -24.0007   -7.4632   22.7470 H   0  0  0  0  0  0
  -21.0856   -8.8773   19.8949 H   0  0  0  0  0  0
  -22.3715  -10.9673   19.6161 H   0  0  0  0  0  0
  -21.1998   -7.6150   23.9736 H   0  0  0  0  0  0
  -21.1480   -6.0518   25.9086 H   0  0  0  0  0  0
  -22.0600   -2.7619   23.2840 H   0  0  0  0  0  0
  -22.4052  -11.9869   22.4816 H   0  0  0  0  0  0
  -21.1085  -13.1255   22.2616 H   0  0  0  0  0  0
  -24.6610  -15.8481   20.5354 H   0  0  0  0  0  0
  -26.2835  -15.6338   20.1178 H   0  0  0  0  0  0
  -26.7196  -32.5420   23.1114 H   0  0  0  0  0  0
  -25.0158  -33.9718   25.0475 H   0  0  0  0  0  0
  -22.7197  -31.3010   21.3965 H   0  0  0  0  0  0
  -23.3772  -35.9573   23.3265 H   0  0  0  0  0  0
  -24.3591  -36.8915   22.2065 H   0  0  0  0  0  0
  -23.7208  -37.6442   23.6680 H   0  0  0  0  0  0
  -26.0969  -31.5524   20.6053 H   0  0  0  0  0  0
  -26.8437  -30.8357   22.0026 H   0  0  0  0  0  0
  -28.1266  -28.9905   21.1732 H   0  0  0  0  0  0
  -26.0067  -25.8910   19.0556 H   0  0  0  0  0  0
  -23.9734  -27.2787   19.0397 H   0  0  0  0  0  0
  -23.7553  -30.5815   19.4023 H   0  0  0  0  0  0
  -22.7588  -29.2350   19.8616 H   0  0  0  0  0  0
  -25.1289  -36.1903   25.0824 H   0  0  0  0  0  0
  -20.9984  -28.3255   24.1389 H   0  0  0  0  0  0
  -20.5667  -26.2294   23.3611 H   0  0  0  0  0  0
  -21.6635  -26.7434   22.1192 H   0  0  0  0  0  0
  -19.6908  -25.6291   21.1238 H   0  0  0  0  0  0
  -19.6689  -27.3184   20.6732 H   0  0  0  0  0  0
  -17.4206  -26.6697   21.4008 H   0  0  0  0  0  0
  -18.0308  -26.0070   22.8997 H   0  0  0  0  0  0
  -19.7938  -30.7280   24.2246 H   0  0  0  0  0  0
  -17.5013  -31.6276   24.5141 H   0  0  0  0  0  0
  -15.5351  -30.2970   23.7688 H   0  0  0  0  0  0
  -15.8666  -28.0803   22.7103 H   0  0  0  0  0  0
  -24.5968  -30.6992   25.7782 H   0  0  0  0  0  0
  -24.8894  -32.2836   26.4873 H   0  0  0  0  0  0
  -25.8092  -30.8893   27.0239 H   0  0  0  0  0  0
  -26.2957  -29.6719   24.1268 H   0  0  0  0  0  0
  -27.4130  -29.7302   25.4707 H   0  0  0  0  0  0
  -27.8795  -30.4297   23.9387 H   0  0  0  0  0  0
  -27.2732  -33.3643   26.2029 H   0  0  0  0  0  0
  -28.3910  -32.6828   25.0306 H   0  0  0  0  0  0
  -28.0748  -31.8459   26.5423 H   0  0  0  0  0  0
  -28.2552  -38.0123   24.7595 H   0  0  0  0  0  0
  -28.1136  -36.2661   24.6176 H   0  0  0  0  0  0
  -27.2317  -37.1271   25.8864 H   0  0  0  0  0  0
  -20.9374  -29.8736   21.6847 H   0  0  0  0  0  0
  -26.0145  -38.2829   24.1505 H   0  0  0  0  0  0
  -29.0006  -18.2128   17.4392 H   0  0  0  0  0  0
  -27.4867  -19.0804   17.6415 H   0  0  0  0  0  0
  -27.7758  -17.5997   18.5409 H   0  0  0  0  0  0
  -32.5754  -17.8653   17.6381 H   0  0  0  0  0  0
  -33.0296  -17.8019   19.3360 H   0  0  0  0  0  0
  -32.0331  -19.1334   18.7304 H   0  0  0  0  0  0
  -28.9187  -15.9644   19.9962 H   0  0  0  0  0  0
  -29.4595  -16.1054   21.6420 H   0  0  0  0  0  0
  -28.8446  -25.2211   21.7228 H   0  0  0  0  0  0
  -27.1905  -25.0446   21.2347 H   0  0  0  0  0  0
  -31.3700  -17.5199   20.9273 H   0  0  0  0  0  0
  -29.0697  -22.8943   21.7683 H   0  0  0  0  0  0
  1 25  1  0  0  0
  1 30  2  0  0  0
  1 77  1  0  0  0
  2  3  1  0  0  0
  2 25  1  0  0  0
  2 85  1  0  0  0
  2 86  1  0  0  0
  3  4  1  0  0  0
  3 87  1  0  0  0
  3 88  1  0  0  0
  4  5  1  0  0  0
  4 89  1  0  0  0
  4 90  1  0  0  0
  5  6  1  0  0  0
  5 26  1  0  0  0
  5 91  1  0  0  0
  6 25  1  0  0  0
  6 92  1  0  0  0
  6 93  1  0  0  0
  7  8  2  0  0  0
  7 26  1  0  0  0
  7 29  1  0  0  0
  8  9  1  0  0  0
  8 22  1  0  0  0
  9 10  1  0  0  0
  9 27  2  0  0  0
 10 11  2  0  0  0
 10 15  1  0  0  0
 11 12  1  0  0  0
 11 94  1  0  0  0
 12 13  2  0  0  0
 12 95  1  0  0  0
 13 14  1  0  0  0
 13 31  1  0  0  0
 14 15  2  0  0  0
 14 96  1  0  0  0
 15 97  1  0  0  0
 16 17  2  0  0  0
 16 21  1  0  0  0
 16 31  1  0  0  0
 17 18  1  0  0  0
 17 98  1  0  0  0
 18 19  2  0  0  0
 18 99  1  0  0  0
 19 20  1  0  0  0
 19 24  1  0  0  0
 20 21  2  0  0  0
 20100  1  0  0  0
 21 23  1  0  0  0
 22 28  1  0  0  0
 22 32  2  0  0  0
 26 27  1  0  0  0
 28101  1  0  0  0
 28102  1  0  0  0
 29103  1  0  0  0
 29104  1  0  0  0
 33 34  1  0  0  0
 33 66  1  0  0  0
 33 70  2  0  0  0
 34 36  1  0  0  0
 34 59  1  0  0  0
 34105  1  0  0  0
 35 44  2  0  0  0
 35 45  1  0  0  0
 35 68  1  0  0  0
 36 56  1  0  0  0
 36106  1  0  0  0
 37 39  1  0  0  0
 37 47  1  0  0  0
 37 66  1  0  0  0
 37107  1  0  0  0
 38 43  2  0  0  0
 38 46  1  0  0  0
 38 47  1  0  0  0
 39 64  1  0  0  0
 39 67  2  0  0  0
 40 52  1  0  0  0
 40 53  2  0  0  0
 40 58  1  0  0  0
 41108  1  0  0  0
 41109  1  0  0  0
 41110  1  0  0  0
 41 48  1  0  0  0
 42 43  1  0  0  0
 42 66  1  0  0  0
 42111  1  0  0  0
 42112  1  0  0  0
 43 44  1  0  0  0
 44113  1  0  0  0
 45 46  2  0  0  0
 45114  1  0  0  0
 46115  1  0  0  0
 47116  1  0  0  0
 47117  1  0  0  0
 48 56  1  0  0  0
 48 65  1  0  0  0
 48118  1  0  0  0
 49 50  1  0  0  0
 49 53  1  0  0  0
 49 64  1  0  0  0
 49119  1  0  0  0
 50 51  1  0  0  0
 50120  1  0  0  0
 50121  1  0  0  0
 51 52  1  0  0  0
 51122  1  0  0  0
 51123  1  0  0  0
 52124  1  0  0  0
 52125  1  0  0  0
 53 54  1  0  0  0
 54 55  2  0  0  0
 54126  1  0  0  0
 55 57  1  0  0  0
 55127  1  0  0  0
 56 69  2  0  0  0
 57 58  2  0  0  0
 57128  1  0  0  0
 58129  1  0  0  0
 59 60  1  0  0  0
 59 61  1  0  0  0
 59 62  1  0  0  0
 60130  1  0  0  0
 60131  1  0  0  0
 60132  1  0  0  0
 61133  1  0  0  0
 61134  1  0  0  0
 61135  1  0  0  0
 62136  1  0  0  0
 62137  1  0  0  0
 62138  1  0  0  0
 63 65  1  0  0  0
 63139  1  0  0  0
 63140  1  0  0  0
 63141  1  0  0  0
 64142  1  0  0  0
 65143  1  0  0  0
 68 78  1  0  0  0
 71 72  2  0  0  0
 71 75  1  0  0  0
 71 80  1  0  0  0
 72 79  1  0  0  0
 72 84  1  0  0  0
 73 80  2  0  0  0
 73 81  1  0  0  0
 73 84  1  0  0  0
 74 78  1  0  0  0
 74 81  1  0  0  0
 74 82  2  0  0  0
 75144  1  0  0  0
 75145  1  0  0  0
 75146  1  0  0  0
 76 83  1  0  0  0
 76147  1  0  0  0
 76148  1  0  0  0
 76149  1  0  0  0
 77150  1  0  0  0
 77151  1  0  0  0
 77 79  1  0  0  0
 78152  1  0  0  0
 78153  1  0  0  0
 79 83  1  0  0  0
 79154  1  0  0  0
 81155  1  0  0  0
M  ISO  4   1 100  68 101  77 100  78 101
M  END
> <chiral flag>
0

> <version>
0

> <s_m_source_file>
/data/baiqing/PycharmProjects/Reinvent-master-3.2/result/LINK_invent/BTK/process_docking_weight1_custom_product_contain_oxygen_bond_distance_aromatic_linkinvent_7_9_3/rearranged_h_0185.sdf

> <i_m_source_file_index>
12

> <r_mmod_Potential_Energy-OPLS-2005>
6.92730855941772

> <r_mmod_Stretch_Energy-OPLS-2005>
89.3175888061523

> <r_mmod_Bend_Energy-OPLS-2005>
143.805740356445

> <r_mmod_Torsional_Energy-OPLS-2005>
205.537155151367

> <r_mmod_Improper_Torsional_Energy-OPLS-2005>
5.46501398086548

> <r_mmod_Van_der_Waal_Energy-OPLS-2005>
108.39574432373

> <r_mmod_Electrostatic_Energy-OPLS-2005>
-355.495697021484

> <r_mmod_Solvation_Energy-OPLS-2005>
-249.924545288086

> <b_mmod_Minimization_Converged-OPLS-2005>
0

> <r_mmod_RMS_Derivative-OPLS-2005>
1.46979463100433

$$$$
12
                    3D
 Structure written by MMmdl.
146154  0  0  1  0            999 V2000
  -30.4789  -15.1104   20.3844 C   0  0  0  0  0  0
  -30.4438  -12.6956   19.5130 C   0  0  0  0  0  0
  -29.5299  -12.5545   18.2712 C   0  0  0  0  0  0
  -28.0696  -12.3081   18.6919 C   0  0  0  0  0  0
  -27.6215  -13.2602   19.8301 C   0  0  2  0  0  0
  -28.6613  -13.3558   20.9670 C   0  0  0  0  0  0
  -25.2423  -13.8231   20.5718 C   0  0  0  0  0  0
  -24.1757  -13.0438   20.9237 C   0  0  0  0  0  0
  -24.6392  -11.6926   20.8755 C   0  0  0  0  0  0
  -23.9075  -10.4294   21.0404 C   0  0  0  0  0  0
  -24.3622   -9.4209   21.9181 C   0  0  0  0  0  0
  -23.6293   -8.2246   22.0757 C   0  0  0  0  0  0
  -22.4275   -8.0285   21.3541 C   0  0  0  0  0  0
  -21.9906   -9.0258   20.4644 C   0  0  0  0  0  0
  -22.7242  -10.2136   20.3053 C   0  0  0  0  0  0
  -21.6855   -6.0730   22.5272 C   0  0  0  0  0  0
  -21.4016   -6.5634   23.8209 C   0  0  0  0  0  0
  -21.3664   -5.6787   24.9169 C   0  0  0  0  0  0
  -21.6049   -4.3050   24.7218 C   0  0  0  0  0  0
  -21.8818   -3.8140   23.4340 C   0  0  0  0  0  0
  -21.9194   -4.6955   22.3396 C   0  0  0  0  0  0
  -22.7779  -13.5210   21.1884 C   0  0  0  0  0  0
  -22.1662   -4.2146   21.0972 F   0  0  0  0  0  0
  -21.5626   -3.4534   25.7729 F   0  0  0  0  0  0
  -29.9171  -13.8178   20.3567 N   0  0  0  0  0  0
  -26.2849  -12.9485   20.3216 N   0  0  0  0  0  0
  -25.9330  -11.6604   20.5724 N   0  0  0  0  0  0
  -22.0422  -12.8205   22.0439 N   0  0  0  0  0  0
  -25.4056  -15.1967   20.4143 N   0  0  0  0  0  0
  -31.6925  -15.1536   20.1419 O   0  0  0  0  0  0
  -21.6645   -6.8876   21.4237 O   0  0  0  0  0  0
  -22.3475  -14.5515   20.6724 O   0  0  0  0  0  0
  -24.6550  -31.8339   23.1788 C   0  0  0  0  0  0
  -25.9270  -32.4641   23.8224 C   0  0  1  0  0  0
  -27.2167  -27.0230   20.1656 C   0  0  0  0  0  0
  -25.5968  -33.8451   24.2133 N   0  0  0  0  0  0
  -23.4653  -30.4499   21.5268 C   0  0  2  0  0  0
  -24.9166  -28.8577   20.1111 C   0  0  0  0  0  0
  -22.7629  -29.4502   22.4813 C   0  0  0  0  0  0
  -18.0322  -28.1415   22.8471 C   0  0  0  0  0  0
  -24.1496  -36.7234   23.2645 C   0  0  0  0  0  0
  -26.0297  -30.6698   21.3966 C   0  0  0  0  0  0
  -26.0989  -29.2707   20.7380 C   0  0  0  0  0  0
  -27.2480  -28.3727   20.7440 C   0  0  0  0  0  0
  -26.0079  -26.7469   19.4874 C   0  0  0  0  0  0
  -24.8907  -27.6127   19.4671 C   0  0  0  0  0  0
  -23.6990  -29.7735   20.1498 C   0  0  0  0  0  0
  -25.4133  -36.3004   24.0309 C   0  0  1  0  0  0
  -20.5942  -28.3760   23.1199 C   0  0  2  0  0  0
  -20.6810  -26.9451   22.5396 C   0  0  0  0  0  0
  -19.5778  -26.6387   21.5216 C   0  0  0  0  0  0
  -18.1962  -26.7947   22.1629 C   0  0  0  0  0  0
  -19.1582  -28.8906   23.2824 C   0  0  0  0  0  0
  -18.9493  -30.1496   23.8860 C   0  0  0  0  0  0
  -17.6488  -30.6605   24.0562 C   0  0  0  0  0  0
  -25.9091  -34.9380   23.5040 C   0  0  0  0  0  0
  -16.5380  -29.9096   23.6341 C   0  0  0  0  0  0
  -16.7305  -28.6517   23.0360 C   0  0  0  0  0  0
  -26.4538  -31.6548   25.0715 C   0  0  0  0  0  0
  -25.3687  -31.3780   26.1387 C   0  0  0  0  0  0
  -27.0419  -30.2924   24.6393 C   0  0  0  0  0  0
  -27.6055  -32.4334   25.7508 C   0  0  0  0  0  0
  -27.5575  -37.1777   24.8466 C   0  0  0  0  0  0
  -21.4309  -29.3059   22.3552 N   0  0  0  0  0  0
  -26.4290  -37.3726   23.9402 N   0  0  0  0  0  0
  -24.7375  -31.0088   22.0880 N   0  0  0  0  0  0
  -23.4209  -28.8067   23.3026 O   0  0  0  0  0  0
  -28.2285  -25.9550   20.2332 O   0  0  0  0  0  0
  -26.5693  -34.8897   22.4629 O   0  0  0  0  0  0
  -23.5638  -32.1269   23.6931 O   0  0  0  0  0  0
  -29.4386  -20.2826   20.2848 C   0  0  0  0  0  0
  -29.8748  -17.8705   20.3618 C   0  0  0  0  0  0
  -28.9751  -23.0750   20.2304 C   0  0  0  0  0  0
  -26.9915  -24.1938   21.5238 C   0  0  0  0  0  0
  -27.8701  -24.3822   20.2746 C   0  0  1  0  0  0
  -28.9487  -18.9451   20.4414 N   0  0  0  0  0  0
  -30.7731  -20.2770   20.0765 N   0  0  0  0  0  0
  -28.6602  -21.6528   20.3150 N   0  0  0  0  0  0
  -29.6687  -16.3133   20.4871 N   0  0  0  0  0  0
  -30.1583  -23.4029   20.1074 O   0  0  0  0  0  0
  -31.4155  -18.6591   20.0663 S   0  0  0  0  0  0
  -31.4712  -12.8771   19.1940 H   0  0  0  0  0  0
  -30.4731  -11.7644   20.0815 H   0  0  0  0  0  0
  -29.8776  -11.7423   17.6321 H   0  0  0  0  0  0
  -29.5888  -13.4642   17.6714 H   0  0  0  0  0  0
  -27.9951  -11.2732   19.0284 H   0  0  0  0  0  0
  -27.4054  -12.3986   17.8316 H   0  0  0  0  0  0
  -27.5604  -14.2464   19.3689 H   0  0  0  0  0  0
  -28.7876  -12.3954   21.4698 H   0  0  0  0  0  0
  -28.3321  -14.0630   21.7302 H   0  0  0  0  0  0
  -25.2761   -9.5689   22.4765 H   0  0  0  0  0  0
  -23.9992   -7.4643   22.7489 H   0  0  0  0  0  0
  -21.0828   -8.8779   19.8960 H   0  0  0  0  0  0
  -22.3689  -10.9675   19.6170 H   0  0  0  0  0  0
  -21.2011   -7.6143   23.9710 H   0  0  0  0  0  0
  -21.1489   -6.0516   25.9076 H   0  0  0  0  0  0
  -22.0594   -2.7599   23.2841 H   0  0  0  0  0  0
  -22.4042  -11.9870   22.4831 H   0  0  0  0  0  0
  -21.1050  -13.1252   22.2654 H   0  0  0  0  0  0
  -24.6278  -15.8396   20.5202 H   0  0  0  0  0  0
  -26.2339  -15.6392   20.0388 H   0  0  0  0  0  0
  -26.7341  -32.5206   23.0950 H   0  0  0  0  0  0
  -25.0058  -33.9540   25.0244 H   0  0  0  0  0  0
  -22.7747  -31.2798   21.3634 H   0  0  0  0  0  0
  -23.3765  -35.9559   23.3295 H   0  0  0  0  0  0
  -24.3575  -36.8883   22.2061 H   0  0  0  0  0  0
  -23.7247  -37.6422   23.6698 H   0  0  0  0  0  0
  -26.2018  -31.4172   20.6210 H   0  0  0  0  0  0
  -26.8929  -30.7207   22.0483 H   0  0  0  0  0  0
  -28.1438  -28.6853   21.2616 H   0  0  0  0  0  0
  -25.8862  -25.8006   18.9841 H   0  0  0  0  0  0
  -23.9919  -27.2921   18.9580 H   0  0  0  0  0  0
  -23.8463  -30.5450   19.3932 H   0  0  0  0  0  0
  -22.8109  -29.2229   19.8355 H   0  0  0  0  0  0
  -25.1326  -36.1822   25.0802 H   0  0  0  0  0  0
  -21.0032  -28.3370   24.1323 H   0  0  0  0  0  0
  -20.5721  -26.2379   23.3631 H   0  0  0  0  0  0
  -21.6672  -26.7457   22.1185 H   0  0  0  0  0  0
  -19.6945  -25.6288   21.1276 H   0  0  0  0  0  0
  -19.6710  -27.3174   20.6728 H   0  0  0  0  0  0
  -17.4225  -26.6681   21.4038 H   0  0  0  0  0  0
  -18.0368  -26.0103   22.9042 H   0  0  0  0  0  0
  -19.7968  -30.7323   24.2211 H   0  0  0  0  0  0
  -17.5043  -31.6281   24.5176 H   0  0  0  0  0  0
  -15.5380  -30.2991   23.7689 H   0  0  0  0  0  0
  -15.8704  -28.0826   22.7096 H   0  0  0  0  0  0
  -24.5850  -30.7158   25.7682 H   0  0  0  0  0  0
  -24.8901  -32.2980   26.4751 H   0  0  0  0  0  0
  -25.7922  -30.8962   27.0208 H   0  0  0  0  0  0
  -26.3064  -29.6618   24.1385 H   0  0  0  0  0  0
  -27.3956  -29.7266   25.5021 H   0  0  0  0  0  0
  -27.9006  -30.4116   23.9787 H   0  0  0  0  0  0
  -27.2638  -33.3663   26.2003 H   0  0  0  0  0  0
  -28.3905  -32.6846   25.0364 H   0  0  0  0  0  0
  -28.0680  -31.8517   26.5490 H   0  0  0  0  0  0
  -28.2586  -38.0080   24.7509 H   0  0  0  0  0  0
  -28.1080  -36.2609   24.6303 H   0  0  0  0  0  0
  -27.2290  -37.1432   25.8868 H   0  0  0  0  0  0
  -20.9557  -29.8734   21.6672 H   0  0  0  0  0  0
  -26.0151  -38.2793   24.1393 H   0  0  0  0  0  0
  -26.6847  -23.1564   21.6544 H   0  0  0  0  0  0
  -26.0791  -24.7860   21.4686 H   0  0  0  0  0  0
  -27.5290  -24.4952   22.4230 H   0  0  0  0  0  0
  -27.2516  -24.1913   19.3987 H   0  0  0  0  0  0
  -27.6671  -21.5119   20.4197 H   0  0  0  0  0  0
  -28.7047  -16.0739   20.6549 H   0  0  0  0  0  0
  1 25  1  0  0  0
  1 30  2  0  0  0
  1 79  1  0  0  0
  2  3  1  0  0  0
  2 25  1  0  0  0
  2 82  1  0  0  0
  2 83  1  0  0  0
  3  4  1  0  0  0
  3 84  1  0  0  0
  3 85  1  0  0  0
  4  5  1  0  0  0
  4 86  1  0  0  0
  4 87  1  0  0  0
  5  6  1  0  0  0
  5 26  1  0  0  0
  5 88  1  0  0  0
  6 25  1  0  0  0
  6 89  1  0  0  0
  6 90  1  0  0  0
  7  8  2  0  0  0
  7 26  1  0  0  0
  7 29  1  0  0  0
  8  9  1  0  0  0
  8 22  1  0  0  0
  9 10  1  0  0  0
  9 27  2  0  0  0
 10 11  2  0  0  0
 10 15  1  0  0  0
 11 12  1  0  0  0
 11 91  1  0  0  0
 12 13  2  0  0  0
 12 92  1  0  0  0
 13 14  1  0  0  0
 13 31  1  0  0  0
 14 15  2  0  0  0
 14 93  1  0  0  0
 15 94  1  0  0  0
 16 17  2  0  0  0
 16 21  1  0  0  0
 16 31  1  0  0  0
 17 18  1  0  0  0
 17 95  1  0  0  0
 18 19  2  0  0  0
 18 96  1  0  0  0
 19 20  1  0  0  0
 19 24  1  0  0  0
 20 21  2  0  0  0
 20 97  1  0  0  0
 21 23  1  0  0  0
 22 28  1  0  0  0
 22 32  2  0  0  0
 26 27  1  0  0  0
 28 98  1  0  0  0
 28 99  1  0  0  0
 29100  1  0  0  0
 29101  1  0  0  0
 33 34  1  0  0  0
 33 66  1  0  0  0
 33 70  2  0  0  0
 34 36  1  0  0  0
 34 59  1  0  0  0
 34102  1  0  0  0
 35 44  2  0  0  0
 35 45  1  0  0  0
 35 68  1  0  0  0
 36 56  1  0  0  0
 36103  1  0  0  0
 37 39  1  0  0  0
 37 47  1  0  0  0
 37 66  1  0  0  0
 37104  1  0  0  0
 38 43  2  0  0  0
 38 46  1  0  0  0
 38 47  1  0  0  0
 39 64  1  0  0  0
 39 67  2  0  0  0
 40 52  1  0  0  0
 40 53  2  0  0  0
 40 58  1  0  0  0
 41105  1  0  0  0
 41106  1  0  0  0
 41107  1  0  0  0
 41 48  1  0  0  0
 42 43  1  0  0  0
 42 66  1  0  0  0
 42108  1  0  0  0
 42109  1  0  0  0
 43 44  1  0  0  0
 44110  1  0  0  0
 45 46  2  0  0  0
 45111  1  0  0  0
 46112  1  0  0  0
 47113  1  0  0  0
 47114  1  0  0  0
 48 56  1  0  0  0
 48 65  1  0  0  0
 48115  1  0  0  0
 49 50  1  0  0  0
 49 53  1  0  0  0
 49 64  1  0  0  0
 49116  1  0  0  0
 50 51  1  0  0  0
 50117  1  0  0  0
 50118  1  0  0  0
 51 52  1  0  0  0
 51119  1  0  0  0
 51120  1  0  0  0
 52121  1  0  0  0
 52122  1  0  0  0
 53 54  1  0  0  0
 54 55  2  0  0  0
 54123  1  0  0  0
 55 57  1  0  0  0
 55124  1  0  0  0
 56 69  2  0  0  0
 57 58  2  0  0  0
 57125  1  0  0  0
 58126  1  0  0  0
 59 60  1  0  0  0
 59 61  1  0  0  0
 59 62  1  0  0  0
 60127  1  0  0  0
 60128  1  0  0  0
 60129  1  0  0  0
 61130  1  0  0  0
 61131  1  0  0  0
 61132  1  0  0  0
 62133  1  0  0  0
 62134  1  0  0  0
 62135  1  0  0  0
 63 65  1  0  0  0
 63136  1  0  0  0
 63137  1  0  0  0
 63138  1  0  0  0
 64139  1  0  0  0
 65140  1  0  0  0
 68 75  1  0  0  0
 71 76  1  0  0  0
 71 77  2  0  0  0
 71 78  1  0  0  0
 72 76  2  0  0  0
 72 79  1  0  0  0
 72 81  1  0  0  0
 73 75  1  0  0  0
 73 78  1  0  0  0
 73 80  2  0  0  0
 74141  1  0  0  0
 74142  1  0  0  0
 74143  1  0  0  0
 74 75  1  0  0  0
 75144  1  0  0  0
 77 81  1  0  0  0
 78145  1  0  0  0
 79146  1  0  0  0
M  ISO  4   1 100  68 101  75 101  79 100
M  END
> <chiral flag>
0

> <version>
0

> <s_m_source_file>
/data/baiqing/PycharmProjects/Reinvent-master-3.2/result/LINK_invent/BTK/process_docking_weight1_custom_product_contain_oxygen_bond_distance_aromatic_linkinvent_7_9_3/rearranged_h_0185.sdf

> <i_m_source_file_index>
13

> <r_mmod_Potential_Energy-OPLS-2005>
621.2958984375

> <r_mmod_Stretch_Energy-OPLS-2005>
381.845092773438

> <r_mmod_Bend_Energy-OPLS-2005>
305.07177734375

> <r_mmod_Torsional_Energy-OPLS-2005>
211.028366088867

> <r_mmod_Improper_Torsional_Energy-OPLS-2005>
4.14946413040161

> <r_mmod_Van_der_Waal_Energy-OPLS-2005>
108.20231628418

> <r_mmod_Electrostatic_Energy-OPLS-2005>
-452.637176513672

> <r_mmod_Solvation_Energy-OPLS-2005>
-255.433715820312

> <b_mmod_Minimization_Converged-OPLS-2005>
0

> <r_mmod_RMS_Derivative-OPLS-2005>
1.12213242053986

$$$$
13
                    3D
 Structure written by MMmdl.
152160  0  0  1  0            999 V2000
  -30.6312  -14.5601   20.5652 C   0  0  0  0  0  0
  -30.4456  -12.3599   19.4266 C   0  0  0  0  0  0
  -29.5062  -12.5233   18.2107 C   0  0  0  0  0  0
  -28.0270  -12.3647   18.6223 C   0  0  0  0  0  0
  -27.6632  -13.2031   19.8755 C   0  0  2  0  0  0
  -28.7074  -12.9807   20.9935 C   0  0  0  0  0  0
  -25.2599  -13.8139   20.5675 C   0  0  0  0  0  0
  -24.1849  -13.0423   20.9182 C   0  0  0  0  0  0
  -24.6390  -11.6887   20.8718 C   0  0  0  0  0  0
  -23.9050  -10.4279   21.0392 C   0  0  0  0  0  0
  -24.3600   -9.4199   21.9178 C   0  0  0  0  0  0
  -23.6285   -8.2229   22.0740 C   0  0  0  0  0  0
  -22.4266   -8.0267   21.3531 C   0  0  0  0  0  0
  -21.9898   -9.0242   20.4639 C   0  0  0  0  0  0
  -22.7218  -10.2129   20.3051 C   0  0  0  0  0  0
  -21.6853   -6.0730   22.5281 C   0  0  0  0  0  0
  -21.4011   -6.5633   23.8214 C   0  0  0  0  0  0
  -21.3663   -5.6781   24.9175 C   0  0  0  0  0  0
  -21.6050   -4.3047   24.7221 C   0  0  0  0  0  0
  -21.8816   -3.8141   23.4339 C   0  0  0  0  0  0
  -21.9189   -4.6959   22.3398 C   0  0  0  0  0  0
  -22.7869  -13.5234   21.1836 C   0  0  0  0  0  0
  -22.1659   -4.2142   21.0976 F   0  0  0  0  0  0
  -21.5631   -3.4529   25.7737 F   0  0  0  0  0  0
  -30.0310  -13.3372   20.4481 N   0  0  0  0  0  0
  -26.3030  -12.9297   20.3347 N   0  0  0  0  0  0
  -25.9320  -11.6463   20.5750 N   0  0  0  0  0  0
  -22.0495  -12.8251   22.0396 N   0  0  0  0  0  0
  -25.4325  -15.1858   20.4095 N   0  0  0  0  0  0
  -31.7550  -14.7902   20.1028 O   0  0  0  0  0  0
  -21.6625   -6.8871   21.4243 O   0  0  0  0  0  0
  -22.3566  -14.5547   20.6682 O   0  0  0  0  0  0
  -24.6200  -31.8635   23.2048 C   0  0  0  0  0  0
  -25.9069  -32.4799   23.8368 C   0  0  1  0  0  0
  -27.2443  -27.3791   20.0988 C   0  0  0  0  0  0
  -25.5909  -33.8599   24.2302 N   0  0  0  0  0  0
  -23.4119  -30.4860   21.5450 C   0  0  2  0  0  0
  -24.8601  -28.9435   20.1123 C   0  0  0  0  0  0
  -22.7440  -29.4644   22.4951 C   0  0  0  0  0  0
  -18.0285  -28.1375   22.8494 C   0  0  0  0  0  0
  -24.1489  -36.7305   23.2640 C   0  0  0  0  0  0
  -25.9457  -30.8113   21.3671 C   0  0  0  0  0  0
  -26.0226  -29.4413   20.7122 C   0  0  0  0  0  0
  -27.2106  -28.6662   20.7030 C   0  0  0  0  0  0
  -26.0525  -26.9044   19.5014 C   0  0  0  0  0  0
  -24.8729  -27.6766   19.5053 C   0  0  0  0  0  0
  -23.6246  -29.8170   20.1606 C   0  0  0  0  0  0
  -25.4113  -36.3098   24.0336 C   0  0  1  0  0  0
  -20.5876  -28.3674   23.1302 C   0  0  2  0  0  0
  -20.6780  -26.9403   22.5414 C   0  0  0  0  0  0
  -19.5758  -26.6379   21.5212 C   0  0  0  0  0  0
  -18.1933  -26.7926   22.1618 C   0  0  0  0  0  0
  -19.1533  -28.8841   23.2900 C   0  0  0  0  0  0
  -18.9456  -30.1443   23.8915 C   0  0  0  0  0  0
  -17.6460  -30.6586   24.0560 C   0  0  0  0  0  0
  -25.9040  -34.9463   23.5117 C   0  0  0  0  0  0
  -16.5351  -29.9084   23.6323 C   0  0  0  0  0  0
  -16.7273  -28.6494   23.0357 C   0  0  0  0  0  0
  -26.4480  -31.6598   25.0721 C   0  0  0  0  0  0
  -25.3732  -31.3723   26.1459 C   0  0  0  0  0  0
  -27.0319  -30.3036   24.6134 C   0  0  0  0  0  0
  -27.6053  -32.4324   25.7479 C   0  0  0  0  0  0
  -27.5583  -37.1807   24.8464 C   0  0  0  0  0  0
  -21.4162  -29.3035   22.3687 N   0  0  0  0  0  0
  -26.4300  -37.3785   23.9404 N   0  0  0  0  0  0
  -24.6773  -31.0696   22.0965 N   0  0  0  0  0  0
  -23.4184  -28.8199   23.3027 O   0  0  0  0  0  0
  -28.4194  -26.6314   20.1485 O   0  0  0  0  0  0
  -26.5599  -34.8923   22.4677 O   0  0  0  0  0  0
  -23.5379  -32.1404   23.7410 O   0  0  0  0  0  0
  -29.6442  -19.2475   22.0891 C   0  0  0  0  0  0
  -29.8418  -19.1822   20.7298 C   0  0  0  0  0  0
  -29.9671  -16.9266   21.2955 C   0  0  0  0  0  0
  -29.8869  -20.4042   19.8156 C   0  0  0  0  0  0
  -28.6845  -24.0810   20.1663 C   0  0  0  0  0  0
  -27.9916  -22.4821   18.2704 C   0  0  0  0  0  0
  -28.5990  -25.4199   19.3546 C   0  0  0  0  0  0
  -29.0331  -22.7632   19.3733 C   0  0  2  0  0  0
  -30.0464  -17.8353   20.2975 N   0  0  0  0  0  0
  -29.8477  -15.5047   21.1395 N   0  0  0  0  0  0
  -29.2264  -21.5308   20.2021 N   0  0  0  0  0  0
  -30.4607  -20.3462   18.7254 O   0  0  0  0  0  0
  -28.4724  -24.0733   21.3832 O   0  0  0  0  0  0
  -29.6429  -17.6757   22.8525 S   0  0  0  0  0  0
  -31.4858  -12.4967   19.1251 H   0  0  0  0  0  0
  -30.3828  -11.3467   19.8257 H   0  0  0  0  0  0
  -29.7593  -11.7935   17.4400 H   0  0  0  0  0  0
  -29.6564  -13.5071   17.7622 H   0  0  0  0  0  0
  -27.8501  -11.3077   18.8233 H   0  0  0  0  0  0
  -27.3728  -12.6273   17.7892 H   0  0  0  0  0  0
  -27.7034  -14.2502   19.5755 H   0  0  0  0  0  0
  -28.7074  -11.9350   21.3041 H   0  0  0  0  0  0
  -28.4513  -13.5427   21.8925 H   0  0  0  0  0  0
  -25.2743   -9.5683   22.4750 H   0  0  0  0  0  0
  -23.9993   -7.4624   22.7462 H   0  0  0  0  0  0
  -21.0820   -8.8765   19.8951 H   0  0  0  0  0  0
  -22.3672  -10.9665   19.6160 H   0  0  0  0  0  0
  -21.2002   -7.6140   23.9720 H   0  0  0  0  0  0
  -21.1495   -6.0507   25.9081 H   0  0  0  0  0  0
  -22.0596   -2.7601   23.2836 H   0  0  0  0  0  0
  -22.4090  -11.9935   22.4838 H   0  0  0  0  0  0
  -21.1117  -13.1302   22.2573 H   0  0  0  0  0  0
  -24.6597  -15.8363   20.5021 H   0  0  0  0  0  0
  -26.2807  -15.6259   20.0742 H   0  0  0  0  0  0
  -26.7141  -32.5492   23.1127 H   0  0  0  0  0  0
  -25.0083  -33.9753   25.0464 H   0  0  0  0  0  0
  -22.7038  -31.3042   21.4017 H   0  0  0  0  0  0
  -23.3751  -35.9638   23.3306 H   0  0  0  0  0  0
  -24.3593  -36.8915   22.2056 H   0  0  0  0  0  0
  -23.7236  -37.6510   23.6654 H   0  0  0  0  0  0
  -26.0694  -31.5771   20.6001 H   0  0  0  0  0  0
  -26.8292  -30.8626   21.9919 H   0  0  0  0  0  0
  -28.1066  -29.0494   21.1715 H   0  0  0  0  0  0
  -25.9920  -25.9269   19.0489 H   0  0  0  0  0  0
  -23.9763  -27.2828   19.0468 H   0  0  0  0  0  0
  -23.7384  -30.5904   19.3999 H   0  0  0  0  0  0
  -22.7475  -29.2405   19.8623 H   0  0  0  0  0  0
  -25.1291  -36.1966   25.0831 H   0  0  0  0  0  0
  -20.9982  -28.3247   24.1417 H   0  0  0  0  0  0
  -20.5695  -26.2277   23.3604 H   0  0  0  0  0  0
  -21.6651  -26.7452   22.1200 H   0  0  0  0  0  0
  -19.6924  -25.6287   21.1246 H   0  0  0  0  0  0
  -19.6709  -27.3185   20.6738 H   0  0  0  0  0  0
  -17.4212  -26.6681   21.4009 H   0  0  0  0  0  0
  -18.0332  -26.0060   22.9006 H   0  0  0  0  0  0
  -19.7931  -30.7246   24.2307 H   0  0  0  0  0  0
  -17.5014  -31.6275   24.5140 H   0  0  0  0  0  0
  -15.5350  -30.2992   23.7635 H   0  0  0  0  0  0
  -15.8673  -28.0810   22.7081 H   0  0  0  0  0  0
  -24.5893  -30.7093   25.7781 H   0  0  0  0  0  0
  -24.8944  -32.2890   26.4915 H   0  0  0  0  0  0
  -25.8070  -30.8872   27.0211 H   0  0  0  0  0  0
  -26.2877  -29.6789   24.1184 H   0  0  0  0  0  0
  -27.4068  -29.7291   25.4613 H   0  0  0  0  0  0
  -27.8721  -30.4346   23.9311 H   0  0  0  0  0  0
  -27.2676  -33.3614   26.2085 H   0  0  0  0  0  0
  -28.3845  -32.6901   25.0293 H   0  0  0  0  0  0
  -28.0744  -31.8433   26.5370 H   0  0  0  0  0  0
  -28.2602  -38.0101   24.7509 H   0  0  0  0  0  0
  -28.1077  -36.2635   24.6292 H   0  0  0  0  0  0
  -27.2307  -37.1460   25.8868 H   0  0  0  0  0  0
  -20.9325  -29.8730   21.6883 H   0  0  0  0  0  0
  -26.0187  -38.2865   24.1401 H   0  0  0  0  0  0
  -29.4849  -20.1295   22.6932 H   0  0  0  0  0  0
  -27.9096  -23.3143   17.5708 H   0  0  0  0  0  0
  -27.0025  -22.3050   18.6938 H   0  0  0  0  0  0
  -28.2591  -21.6088   17.6759 H   0  0  0  0  0  0
  -27.8611  -25.3298   18.5622 H   0  0  0  0  0  0
  -29.5530  -25.5277   18.8394 H   0  0  0  0  0  0
  -29.9867  -22.9574   18.8788 H   0  0  0  0  0  0
  -29.0339  -15.1125   21.5848 H   0  0  0  0  0  0
  -28.7941  -21.5280   21.1146 H   0  0  0  0  0  0
  1 25  1  0  0  0
  1 30  2  0  0  0
  1 80  1  0  0  0
  2  3  1  0  0  0
  2 25  1  0  0  0
  2 85  1  0  0  0
  2 86  1  0  0  0
  3  4  1  0  0  0
  3 87  1  0  0  0
  3 88  1  0  0  0
  4  5  1  0  0  0
  4 89  1  0  0  0
  4 90  1  0  0  0
  5  6  1  0  0  0
  5 26  1  0  0  0
  5 91  1  0  0  0
  6 25  1  0  0  0
  6 92  1  0  0  0
  6 93  1  0  0  0
  7  8  2  0  0  0
  7 26  1  0  0  0
  7 29  1  0  0  0
  8  9  1  0  0  0
  8 22  1  0  0  0
  9 10  1  0  0  0
  9 27  2  0  0  0
 10 11  2  0  0  0
 10 15  1  0  0  0
 11 12  1  0  0  0
 11 94  1  0  0  0
 12 13  2  0  0  0
 12 95  1  0  0  0
 13 14  1  0  0  0
 13 31  1  0  0  0
 14 15  2  0  0  0
 14 96  1  0  0  0
 15 97  1  0  0  0
 16 17  2  0  0  0
 16 21  1  0  0  0
 16 31  1  0  0  0
 17 18  1  0  0  0
 17 98  1  0  0  0
 18 19  2  0  0  0
 18 99  1  0  0  0
 19 20  1  0  0  0
 19 24  1  0  0  0
 20 21  2  0  0  0
 20100  1  0  0  0
 21 23  1  0  0  0
 22 28  1  0  0  0
 22 32  2  0  0  0
 26 27  1  0  0  0
 28101  1  0  0  0
 28102  1  0  0  0
 29103  1  0  0  0
 29104  1  0  0  0
 33 34  1  0  0  0
 33 66  1  0  0  0
 33 70  2  0  0  0
 34 36  1  0  0  0
 34 59  1  0  0  0
 34105  1  0  0  0
 35 44  2  0  0  0
 35 45  1  0  0  0
 35 68  1  0  0  0
 36 56  1  0  0  0
 36106  1  0  0  0
 37 39  1  0  0  0
 37 47  1  0  0  0
 37 66  1  0  0  0
 37107  1  0  0  0
 38 43  2  0  0  0
 38 46  1  0  0  0
 38 47  1  0  0  0
 39 64  1  0  0  0
 39 67  2  0  0  0
 40 52  1  0  0  0
 40 53  2  0  0  0
 40 58  1  0  0  0
 41108  1  0  0  0
 41109  1  0  0  0
 41110  1  0  0  0
 41 48  1  0  0  0
 42 43  1  0  0  0
 42 66  1  0  0  0
 42111  1  0  0  0
 42112  1  0  0  0
 43 44  1  0  0  0
 44113  1  0  0  0
 45 46  2  0  0  0
 45114  1  0  0  0
 46115  1  0  0  0
 47116  1  0  0  0
 47117  1  0  0  0
 48 56  1  0  0  0
 48 65  1  0  0  0
 48118  1  0  0  0
 49 50  1  0  0  0
 49 53  1  0  0  0
 49 64  1  0  0  0
 49119  1  0  0  0
 50 51  1  0  0  0
 50120  1  0  0  0
 50121  1  0  0  0
 51 52  1  0  0  0
 51122  1  0  0  0
 51123  1  0  0  0
 52124  1  0  0  0
 52125  1  0  0  0
 53 54  1  0  0  0
 54 55  2  0  0  0
 54126  1  0  0  0
 55 57  1  0  0  0
 55127  1  0  0  0
 56 69  2  0  0  0
 57 58  2  0  0  0
 57128  1  0  0  0
 58129  1  0  0  0
 59 60  1  0  0  0
 59 61  1  0  0  0
 59 62  1  0  0  0
 60130  1  0  0  0
 60131  1  0  0  0
 60132  1  0  0  0
 61133  1  0  0  0
 61134  1  0  0  0
 61135  1  0  0  0
 62136  1  0  0  0
 62137  1  0  0  0
 62138  1  0  0  0
 63 65  1  0  0  0
 63139  1  0  0  0
 63140  1  0  0  0
 63141  1  0  0  0
 64142  1  0  0  0
 65143  1  0  0  0
 68 77  1  0  0  0
 71 72  2  0  0  0
 71 84  1  0  0  0
 71144  1  0  0  0
 72 74  1  0  0  0
 72 79  1  0  0  0
 73 79  2  0  0  0
 73 80  1  0  0  0
 73 84  1  0  0  0
 74 81  1  0  0  0
 74 82  2  0  0  0
 75 77  1  0  0  0
 75 78  1  0  0  0
 75 83  2  0  0  0
 76145  1  0  0  0
 76146  1  0  0  0
 76147  1  0  0  0
 76 78  1  0  0  0
 77148  1  0  0  0
 77149  1  0  0  0
 78 81  1  0  0  0
 78150  1  0  0  0
 80151  1  0  0  0
 81152  1  0  0  0
M  ISO  4   1 100  68 101  77 101  80 100
M  END
> <chiral flag>
0

> <version>
0

> <s_m_source_file>
/data/baiqing/PycharmProjects/Reinvent-master-3.2/result/LINK_invent/BTK/process_docking_weight1_custom_product_contain_oxygen_bond_distance_aromatic_linkinvent_7_9_3/rearranged_h_0185.sdf

> <i_m_source_file_index>
14

> <r_mmod_Potential_Energy-OPLS-2005>
-142.41162109375

> <r_mmod_Stretch_Energy-OPLS-2005>
56.7788009643555

> <r_mmod_Bend_Energy-OPLS-2005>
128.540802001953

> <r_mmod_Torsional_Energy-OPLS-2005>
228.784271240234

> <r_mmod_Improper_Torsional_Energy-OPLS-2005>
4.75792741775513

> <r_mmod_Van_der_Waal_Energy-OPLS-2005>
125.33910369873

> <r_mmod_Electrostatic_Energy-OPLS-2005>
-437.014770507812

> <r_mmod_Solvation_Energy-OPLS-2005>
-274.884826660156

> <b_mmod_Minimization_Converged-OPLS-2005>
0

> <r_mmod_RMS_Derivative-OPLS-2005>
1.55766642093658

$$$$
14
                    3D
 Structure written by MMmdl.
150158  0  0  1  0            999 V2000
  -30.5099  -15.0765   20.3521 C   0  0  0  0  0  0
  -30.4479  -12.6626   19.5163 C   0  0  0  0  0  0
  -29.5338  -12.5194   18.2742 C   0  0  0  0  0  0
  -28.0753  -12.2754   18.6987 C   0  0  0  0  0  0
  -27.6268  -13.2463   19.8225 C   0  0  2  0  0  0
  -28.6676  -13.3527   20.9623 C   0  0  0  0  0  0
  -25.2505  -13.8189   20.5656 C   0  0  0  0  0  0
  -24.1826  -13.0444   20.9233 C   0  0  0  0  0  0
  -24.6428  -11.6926   20.8792 C   0  0  0  0  0  0
  -23.9108  -10.4296   21.0387 C   0  0  0  0  0  0
  -24.3652   -9.4213   21.9162 C   0  0  0  0  0  0
  -23.6347   -8.2246   22.0736 C   0  0  0  0  0  0
  -22.4317   -8.0286   21.3566 C   0  0  0  0  0  0
  -21.9945   -9.0244   20.4653 C   0  0  0  0  0  0
  -22.7265  -10.2128   20.3054 C   0  0  0  0  0  0
  -21.6841   -6.0750   22.5294 C   0  0  0  0  0  0
  -21.4011   -6.5655   23.8231 C   0  0  0  0  0  0
  -21.3656   -5.6814   24.9202 C   0  0  0  0  0  0
  -21.6041   -4.3068   24.7241 C   0  0  0  0  0  0
  -21.8827   -3.8167   23.4364 C   0  0  0  0  0  0
  -21.9198   -4.6995   22.3427 C   0  0  0  0  0  0
  -22.7855  -13.5244   21.1862 C   0  0  0  0  0  0
  -22.1656   -4.2184   21.1005 F   0  0  0  0  0  0
  -21.5617   -3.4542   25.7742 F   0  0  0  0  0  0
  -29.9330  -13.7924   20.3530 N   0  0  0  0  0  0
  -26.2893  -12.9397   20.3168 N   0  0  0  0  0  0
  -25.9344  -11.6553   20.5769 N   0  0  0  0  0  0
  -22.0502  -12.8264   22.0429 N   0  0  0  0  0  0
  -25.4251  -15.1879   20.3935 N   0  0  0  0  0  0
  -31.7161  -15.1111   20.0794 O   0  0  0  0  0  0
  -21.6671   -6.8880   21.4253 O   0  0  0  0  0  0
  -22.3562  -14.5526   20.6653 O   0  0  0  0  0  0
  -24.6468  -31.8383   23.1822 C   0  0  0  0  0  0
  -25.9224  -32.4648   23.8229 C   0  0  1  0  0  0
  -27.2322  -27.0900   20.1592 C   0  0  0  0  0  0
  -25.5978  -33.8453   24.2136 N   0  0  0  0  0  0
  -23.4551  -30.4607   21.5265 C   0  0  2  0  0  0
  -24.9076  -28.8748   20.1140 C   0  0  0  0  0  0
  -22.7560  -29.4560   22.4796 C   0  0  0  0  0  0
  -18.0323  -28.1366   22.8459 C   0  0  0  0  0  0
  -24.1490  -36.7248   23.2647 C   0  0  0  0  0  0
  -26.0153  -30.6983   21.3920 C   0  0  0  0  0  0
  -26.0886  -29.3032   20.7376 C   0  0  0  0  0  0
  -27.2490  -28.4328   20.7397 C   0  0  0  0  0  0
  -26.0247  -26.7794   19.4905 C   0  0  0  0  0  0
  -24.8932  -27.6238   19.4784 C   0  0  0  0  0  0
  -23.6846  -29.7823   20.1499 C   0  0  0  0  0  0
  -25.4125  -36.3008   24.0306 C   0  0  1  0  0  0
  -20.5924  -28.3742   23.1171 C   0  0  2  0  0  0
  -20.6801  -26.9434   22.5402 C   0  0  0  0  0  0
  -19.5796  -26.6353   21.5184 C   0  0  0  0  0  0
  -18.1965  -26.7921   22.1571 C   0  0  0  0  0  0
  -19.1572  -28.8873   23.2828 C   0  0  0  0  0  0
  -18.9500  -30.1452   23.8890 C   0  0  0  0  0  0
  -17.6504  -30.6587   24.0557 C   0  0  0  0  0  0
  -25.9084  -34.9385   23.5041 C   0  0  0  0  0  0
  -16.5395  -29.9085   23.6327 C   0  0  0  0  0  0
  -16.7305  -28.6483   23.0369 C   0  0  0  0  0  0
  -26.4533  -31.6542   25.0699 C   0  0  0  0  0  0
  -25.3668  -31.3854   26.1380 C   0  0  0  0  0  0
  -27.0399  -30.2896   24.6394 C   0  0  0  0  0  0
  -27.6084  -32.4297   25.7493 C   0  0  0  0  0  0
  -27.5588  -37.1774   24.8450 C   0  0  0  0  0  0
  -21.4246  -29.3069   22.3523 N   0  0  0  0  0  0
  -26.4291  -37.3717   23.9410 N   0  0  0  0  0  0
  -24.7263  -31.0210   22.0860 N   0  0  0  0  0  0
  -23.4178  -28.8124   23.2974 O   0  0  0  0  0  0
  -28.2733  -26.0705   20.1943 O   0  0  0  0  0  0
  -26.5682  -34.8904   22.4616 O   0  0  0  0  0  0
  -23.5587  -32.1301   23.6999 O   0  0  0  0  0  0
  -29.4137  -20.1931   20.1589 C   0  0  0  0  0  0
  -30.6085  -19.8463   19.5438 C   0  0  0  0  0  0
  -29.8786  -17.8081   20.2541 C   0  0  0  0  0  0
  -28.9530  -23.2127   20.0978 C   0  0  0  0  0  0
  -27.1841  -21.3755   19.6183 C   0  0  0  0  0  0
  -27.9260  -24.5309   20.3557 C   0  0  0  0  0  0
  -28.5162  -21.5960   20.3533 C   0  0  1  0  0  0
  -30.8814  -18.4471   19.6202 N   0  0  0  0  0  0
  -31.4791  -20.6976   18.8675 N   0  0  0  0  0  0
  -29.7188  -16.2756   20.4922 N   0  0  0  0  0  0
  -30.0890  -23.4393   19.6723 O   0  0  0  0  0  0
  -28.9569  -18.8563   20.5861 O   0  0  0  0  0  0
  -31.4782  -12.8284   19.1977 H   0  0  0  0  0  0
  -30.4704  -11.7399   20.1017 H   0  0  0  0  0  0
  -29.8898  -11.6968   17.6542 H   0  0  0  0  0  0
  -29.5955  -13.4213   17.6616 H   0  0  0  0  0  0
  -28.0084  -11.2468   19.0630 H   0  0  0  0  0  0
  -27.4038  -12.3290   17.8369 H   0  0  0  0  0  0
  -27.5681  -14.2291   19.3533 H   0  0  0  0  0  0
  -28.7888  -12.3996   21.4784 H   0  0  0  0  0  0
  -28.3410  -14.0722   21.7151 H   0  0  0  0  0  0
  -25.2775   -9.5697   22.4759 H   0  0  0  0  0  0
  -24.0069   -7.4631   22.7440 H   0  0  0  0  0  0
  -21.0851   -8.8752   19.8965 H   0  0  0  0  0  0
  -22.3674  -10.9677   19.6193 H   0  0  0  0  0  0
  -21.1975   -7.6159   23.9750 H   0  0  0  0  0  0
  -21.1465   -6.0532   25.9111 H   0  0  0  0  0  0
  -22.0599   -2.7636   23.2856 H   0  0  0  0  0  0
  -22.4141  -11.9963   22.4878 H   0  0  0  0  0  0
  -21.1098  -13.1241   22.2573 H   0  0  0  0  0  0
  -24.6495  -15.8372   20.4678 H   0  0  0  0  0  0
  -26.2297  -15.5846   19.9247 H   0  0  0  0  0  0
  -26.7302  -32.5247   23.0977 H   0  0  0  0  0  0
  -25.0074  -33.9553   25.0263 H   0  0  0  0  0  0
  -22.7631  -31.2906   21.3631 H   0  0  0  0  0  0
  -23.3761  -35.9578   23.3262 H   0  0  0  0  0  0
  -24.3614  -36.8924   22.2082 H   0  0  0  0  0  0
  -23.7242  -37.6423   23.6718 H   0  0  0  0  0  0
  -26.1852  -31.4560   20.6244 H   0  0  0  0  0  0
  -26.8772  -30.7405   22.0473 H   0  0  0  0  0  0
  -28.1442  -28.7719   21.2435 H   0  0  0  0  0  0
  -25.9271  -25.8417   18.9643 H   0  0  0  0  0  0
  -23.9958  -27.2839   18.9797 H   0  0  0  0  0  0
  -23.8233  -30.5516   19.3867 H   0  0  0  0  0  0
  -22.7986  -29.2211   19.8423 H   0  0  0  0  0  0
  -25.1326  -36.1838   25.0803 H   0  0  0  0  0  0
  -21.0043  -28.3366   24.1269 H   0  0  0  0  0  0
  -20.5572  -26.2406   23.3653 H   0  0  0  0  0  0
  -21.6682  -26.7356   22.1286 H   0  0  0  0  0  0
  -19.6967  -25.6234   21.1266 H   0  0  0  0  0  0
  -19.6747  -27.3133   20.6678 H   0  0  0  0  0  0
  -17.4247  -26.6663   21.3956 H   0  0  0  0  0  0
  -18.0359  -26.0063   22.8950 H   0  0  0  0  0  0
  -19.8004  -30.7244   24.2234 H   0  0  0  0  0  0
  -17.5092  -31.6261   24.5163 H   0  0  0  0  0  0
  -15.5397  -30.2998   23.7666 H   0  0  0  0  0  0
  -15.8691  -28.0801   22.7089 H   0  0  0  0  0  0
  -24.5868  -30.7159   25.7729 H   0  0  0  0  0  0
  -24.8836  -32.3079   26.4587 H   0  0  0  0  0  0
  -25.7883  -30.9189   27.0280 H   0  0  0  0  0  0
  -26.3035  -29.6586   24.1384 H   0  0  0  0  0  0
  -27.3915  -29.7267   25.5050 H   0  0  0  0  0  0
  -27.8993  -30.4076   23.9797 H   0  0  0  0  0  0
  -27.2701  -33.3639   26.2000 H   0  0  0  0  0  0
  -28.3943  -32.6746   25.0330 H   0  0  0  0  0  0
  -28.0684  -31.8430   26.5467 H   0  0  0  0  0  0
  -28.2586  -38.0078   24.7490 H   0  0  0  0  0  0
  -28.1081  -36.2611   24.6244 H   0  0  0  0  0  0
  -27.2333  -37.1410   25.8854 H   0  0  0  0  0  0
  -20.9421  -29.8832   21.6767 H   0  0  0  0  0  0
  -26.0149  -38.2787   24.1376 H   0  0  0  0  0  0
  -26.7010  -20.4632   19.9688 H   0  0  0  0  0  0
  -27.3466  -21.2766   18.5445 H   0  0  0  0  0  0
  -26.4702  -22.1819   19.7763 H   0  0  0  0  0  0
  -27.5595  -24.4218   21.3775 H   0  0  0  0  0  0
  -27.0653  -24.3200   19.7300 H   0  0  0  0  0  0
  -28.2578  -21.6114   21.4125 H   0  0  0  0  0  0
  -31.1775  -21.6501   18.6713 H   0  0  0  0  0  0
  -32.1126  -20.3136   18.1736 H   0  0  0  0  0  0
  -28.7826  -16.0504   20.7895 H   0  0  0  0  0  0
  1 25  1  0  0  0
  1 30  2  0  0  0
  1 80  1  0  0  0
  2  3  1  0  0  0
  2 25  1  0  0  0
  2 83  1  0  0  0
  2 84  1  0  0  0
  3  4  1  0  0  0
  3 85  1  0  0  0
  3 86  1  0  0  0
  4  5  1  0  0  0
  4 87  1  0  0  0
  4 88  1  0  0  0
  5  6  1  0  0  0
  5 26  1  0  0  0
  5 89  1  0  0  0
  6 25  1  0  0  0
  6 90  1  0  0  0
  6 91  1  0  0  0
  7  8  2  0  0  0
  7 26  1  0  0  0
  7 29  1  0  0  0
  8  9  1  0  0  0
  8 22  1  0  0  0
  9 10  1  0  0  0
  9 27  2  0  0  0
 10 11  2  0  0  0
 10 15  1  0  0  0
 11 12  1  0  0  0
 11 92  1  0  0  0
 12 13  2  0  0  0
 12 93  1  0  0  0
 13 14  1  0  0  0
 13 31  1  0  0  0
 14 15  2  0  0  0
 14 94  1  0  0  0
 15 95  1  0  0  0
 16 17  2  0  0  0
 16 21  1  0  0  0
 16 31  1  0  0  0
 17 18  1  0  0  0
 17 96  1  0  0  0
 18 19  2  0  0  0
 18 97  1  0  0  0
 19 20  1  0  0  0
 19 24  1  0  0  0
 20 21  2  0  0  0
 20 98  1  0  0  0
 21 23  1  0  0  0
 22 28  1  0  0  0
 22 32  2  0  0  0
 26 27  1  0  0  0
 28 99  1  0  0  0
 28100  1  0  0  0
 29101  1  0  0  0
 29102  1  0  0  0
 33 34  1  0  0  0
 33 66  1  0  0  0
 33 70  2  0  0  0
 34 36  1  0  0  0
 34 59  1  0  0  0
 34103  1  0  0  0
 35 44  2  0  0  0
 35 45  1  0  0  0
 35 68  1  0  0  0
 36 56  1  0  0  0
 36104  1  0  0  0
 37 39  1  0  0  0
 37 47  1  0  0  0
 37 66  1  0  0  0
 37105  1  0  0  0
 38 43  2  0  0  0
 38 46  1  0  0  0
 38 47  1  0  0  0
 39 64  1  0  0  0
 39 67  2  0  0  0
 40 52  1  0  0  0
 40 53  2  0  0  0
 40 58  1  0  0  0
 41106  1  0  0  0
 41107  1  0  0  0
 41108  1  0  0  0
 41 48  1  0  0  0
 42 43  1  0  0  0
 42 66  1  0  0  0
 42109  1  0  0  0
 42110  1  0  0  0
 43 44  1  0  0  0
 44111  1  0  0  0
 45 46  2  0  0  0
 45112  1  0  0  0
 46113  1  0  0  0
 47114  1  0  0  0
 47115  1  0  0  0
 48 56  1  0  0  0
 48 65  1  0  0  0
 48116  1  0  0  0
 49 50  1  0  0  0
 49 53  1  0  0  0
 49 64  1  0  0  0
 49117  1  0  0  0
 50 51  1  0  0  0
 50118  1  0  0  0
 50119  1  0  0  0
 51 52  1  0  0  0
 51120  1  0  0  0
 51121  1  0  0  0
 52122  1  0  0  0
 52123  1  0  0  0
 53 54  1  0  0  0
 54 55  2  0  0  0
 54124  1  0  0  0
 55 57  1  0  0  0
 55125  1  0  0  0
 56 69  2  0  0  0
 57 58  2  0  0  0
 57126  1  0  0  0
 58127  1  0  0  0
 59 60  1  0  0  0
 59 61  1  0  0  0
 59 62  1  0  0  0
 60128  1  0  0  0
 60129  1  0  0  0
 60130  1  0  0  0
 61131  1  0  0  0
 61132  1  0  0  0
 61133  1  0  0  0
 62134  1  0  0  0
 62135  1  0  0  0
 62136  1  0  0  0
 63 65  1  0  0  0
 63137  1  0  0  0
 63138  1  0  0  0
 63139  1  0  0  0
 64140  1  0  0  0
 65141  1  0  0  0
 68 76  1  0  0  0
 71 72  2  0  0  0
 71 77  1  0  0  0
 71 82  1  0  0  0
 72 78  1  0  0  0
 72 79  1  0  0  0
 73 78  2  0  0  0
 73 80  1  0  0  0
 73 82  1  0  0  0
 74 76  1  0  0  0
 74 77  1  0  0  0
 74 81  2  0  0  0
 75142  1  0  0  0
 75143  1  0  0  0
 75144  1  0  0  0
 75 77  1  0  0  0
 76145  1  0  0  0
 76146  1  0  0  0
 77147  1  0  0  0
 79148  1  0  0  0
 79149  1  0  0  0
 80150  1  0  0  0
M  ISO  4   1 100  68 101  76 101  80 100
M  END
> <chiral flag>
0

> <version>
0

> <s_m_source_file>
/data/baiqing/PycharmProjects/Reinvent-master-3.2/result/LINK_invent/BTK/process_docking_weight1_custom_product_contain_oxygen_bond_distance_aromatic_linkinvent_7_9_3/rearranged_h_0185.sdf

> <i_m_source_file_index>
15

> <r_mmod_Potential_Energy-OPLS-2005>
527.32763671875

> <r_mmod_Stretch_Energy-OPLS-2005>
331.864776611328

> <r_mmod_Bend_Energy-OPLS-2005>
307.281372070312

> <r_mmod_Torsional_Energy-OPLS-2005>
222.176391601562

> <r_mmod_Improper_Torsional_Energy-OPLS-2005>
6.91087436676025

> <r_mmod_Van_der_Waal_Energy-OPLS-2005>
108.129119873047

> <r_mmod_Electrostatic_Energy-OPLS-2005>
-453.115844726562

> <r_mmod_Solvation_Energy-OPLS-2005>
-262.916870117188

> <b_mmod_Minimization_Converged-OPLS-2005>
0

> <r_mmod_RMS_Derivative-OPLS-2005>
5.65566921234131

$$$$
15
                    3D
 Structure written by MMmdl.
153161  0  0  1  0            999 V2000
  -30.7070  -14.5371   20.5102 C   0  0  0  0  0  0
  -30.4195  -12.3275   19.4391 C   0  0  0  0  0  0
  -29.4990  -12.4960   18.2122 C   0  0  0  0  0  0
  -28.0185  -12.3634   18.6214 C   0  0  0  0  0  0
  -27.6570  -13.2194   19.8637 C   0  0  2  0  0  0
  -28.7055  -13.0611   20.9908 C   0  0  0  0  0  0
  -25.2556  -13.8172   20.5626 C   0  0  0  0  0  0
  -24.1839  -13.0442   20.9162 C   0  0  0  0  0  0
  -24.6425  -11.6922   20.8746 C   0  0  0  0  0  0
  -23.9103  -10.4314   21.0421 C   0  0  0  0  0  0
  -24.3642   -9.4227   21.9193 C   0  0  0  0  0  0
  -23.6312   -8.2264   22.0760 C   0  0  0  0  0  0
  -22.4292   -8.0305   21.3560 C   0  0  0  0  0  0
  -21.9938   -9.0277   20.4650 C   0  0  0  0  0  0
  -22.7271  -10.2159   20.3068 C   0  0  0  0  0  0
  -21.6864   -6.0773   22.5293 C   0  0  0  0  0  0
  -21.4024   -6.5671   23.8222 C   0  0  0  0  0  0
  -21.3649   -5.6808   24.9176 C   0  0  0  0  0  0
  -21.6036   -4.3073   24.7226 C   0  0  0  0  0  0
  -21.8819   -3.8180   23.4338 C   0  0  0  0  0  0
  -21.9193   -4.7003   22.3405 C   0  0  0  0  0  0
  -22.7857  -13.5215   21.1813 C   0  0  0  0  0  0
  -22.1662   -4.2196   21.0985 F   0  0  0  0  0  0
  -21.5603   -3.4543   25.7727 F   0  0  0  0  0  0
  -30.0300  -13.3534   20.4213 N   0  0  0  0  0  0
  -26.3017  -12.9385   20.3334 N   0  0  0  0  0  0
  -25.9366  -11.6548   20.5818 N   0  0  0  0  0  0
  -22.0524  -12.8211   22.0394 N   0  0  0  0  0  0
  -25.4255  -15.1896   20.3960 N   0  0  0  0  0  0
  -31.8706  -14.6465   20.1169 O   0  0  0  0  0  0
  -21.6651   -6.8911   21.4257 O   0  0  0  0  0  0
  -22.3543  -14.5519   20.6654 O   0  0  0  0  0  0
  -24.6152  -31.8695   23.2062 C   0  0  0  0  0  0
  -25.9051  -32.4820   23.8361 C   0  0  1  0  0  0
  -27.2210  -27.3863   20.0846 C   0  0  0  0  0  0
  -25.5893  -33.8623   24.2275 N   0  0  0  0  0  0
  -23.4038  -30.4941   21.5502 C   0  0  2  0  0  0
  -24.8476  -28.9641   20.1101 C   0  0  0  0  0  0
  -22.7429  -29.4663   22.4973 C   0  0  0  0  0  0
  -18.0292  -28.1362   22.8490 C   0  0  0  0  0  0
  -24.1490  -36.7316   23.2631 C   0  0  0  0  0  0
  -25.9433  -30.8119   21.3801 C   0  0  0  0  0  0
  -26.0140  -29.4492   20.7148 C   0  0  0  0  0  0
  -27.1992  -28.6663   20.7032 C   0  0  0  0  0  0
  -26.0280  -26.9480   19.4555 C   0  0  0  0  0  0
  -24.8525  -27.7137   19.4793 C   0  0  0  0  0  0
  -23.6127  -29.8343   20.1633 C   0  0  0  0  0  0
  -25.4125  -36.3109   24.0308 C   0  0  1  0  0  0
  -20.5877  -28.3655   23.1309 C   0  0  2  0  0  0
  -20.6777  -26.9394   22.5399 C   0  0  0  0  0  0
  -19.5758  -26.6370   21.5199 C   0  0  0  0  0  0
  -18.1943  -26.7906   22.1622 C   0  0  0  0  0  0
  -19.1536  -28.8834   23.2890 C   0  0  0  0  0  0
  -18.9454  -30.1440   23.8894 C   0  0  0  0  0  0
  -17.6454  -30.6570   24.0555 C   0  0  0  0  0  0
  -25.9051  -34.9479   23.5096 C   0  0  0  0  0  0
  -16.5351  -29.9061   23.6322 C   0  0  0  0  0  0
  -16.7278  -28.6475   23.0351 C   0  0  0  0  0  0
  -26.4463  -31.6624   25.0718 C   0  0  0  0  0  0
  -25.3692  -31.3739   26.1427 C   0  0  0  0  0  0
  -27.0296  -30.3038   24.6188 C   0  0  0  0  0  0
  -27.6013  -32.4363   25.7497 C   0  0  0  0  0  0
  -27.5587  -37.1812   24.8464 C   0  0  0  0  0  0
  -21.4155  -29.3029   22.3723 N   0  0  0  0  0  0
  -26.4322  -37.3775   23.9378 N   0  0  0  0  0  0
  -24.6711  -31.0754   22.1000 N   0  0  0  0  0  0
  -23.4202  -28.8217   23.3024 O   0  0  0  0  0  0
  -28.3759  -26.6040   20.1292 O   0  0  0  0  0  0
  -26.5624  -34.8933   22.4663 O   0  0  0  0  0  0
  -23.5336  -32.1502   23.7413 O   0  0  0  0  0  0
  -29.9674  -19.2971   20.6453 C   0  0  0  0  0  0
  -31.3500  -19.2871   20.7194 C   0  0  0  0  0  0
  -30.3546  -17.0069   20.7929 C   0  0  0  0  0  0
  -29.4549  -21.9300   20.6753 C   0  0  0  0  0  0
  -29.2544  -24.2372   20.3215 C   0  0  0  0  0  0
  -28.7055  -25.3308   18.0779 C   0  0  0  0  0  0
  -28.9888  -20.4680   20.4876 C   0  0  0  0  0  0
  -28.3451  -25.2559   19.5734 C   0  0  2  0  0  0
  -29.4320  -17.9831   20.7023 N   0  0  0  0  0  0
  -28.8608  -22.9110   20.0921 N   0  0  0  0  0  0
  -32.2509  -20.3480   20.6869 N   0  0  0  0  0  0
  -29.9695  -15.6223   20.8464 N   0  0  0  0  0  0
  -30.1917  -24.6381   21.0164 O   0  0  0  0  0  0
  -31.9931  -17.6581   20.8589 S   0  0  0  0  0  0
  -31.4652  -12.4052   19.1396 H   0  0  0  0  0  0
  -30.3068  -11.3314   19.8704 H   0  0  0  0  0  0
  -29.7423  -11.7535   17.4510 H   0  0  0  0  0  0
  -29.6713  -13.4715   17.7547 H   0  0  0  0  0  0
  -27.8258  -11.3109   18.8284 H   0  0  0  0  0  0
  -27.3683  -12.6287   17.7868 H   0  0  0  0  0  0
  -27.6789  -14.2585   19.5346 H   0  0  0  0  0  0
  -28.6908  -12.0474   21.3951 H   0  0  0  0  0  0
  -28.4747  -13.7187   21.8306 H   0  0  0  0  0  0
  -25.2806   -9.5697   22.4750 H   0  0  0  0  0  0
  -24.0029   -7.4667   22.7473 H   0  0  0  0  0  0
  -21.0870   -8.8797   19.8950 H   0  0  0  0  0  0
  -22.3733  -10.9697   19.6167 H   0  0  0  0  0  0
  -21.2034   -7.6188   23.9744 H   0  0  0  0  0  0
  -21.1462   -6.0542   25.9074 H   0  0  0  0  0  0
  -22.0612   -2.7649   23.2827 H   0  0  0  0  0  0
  -22.4149  -11.9836   22.4716 H   0  0  0  0  0  0
  -21.1178  -13.1280   22.2681 H   0  0  0  0  0  0
  -24.6538  -15.8414   20.4828 H   0  0  0  0  0  0
  -26.2721  -15.6246   20.0520 H   0  0  0  0  0  0
  -26.7103  -32.5501   23.1095 H   0  0  0  0  0  0
  -24.9993  -33.9805   25.0379 H   0  0  0  0  0  0
  -22.6923  -31.3110   21.4129 H   0  0  0  0  0  0
  -23.3757  -35.9644   23.3315 H   0  0  0  0  0  0
  -24.3557  -36.8931   22.2038 H   0  0  0  0  0  0
  -23.7257  -37.6518   23.6664 H   0  0  0  0  0  0
  -26.0907  -31.5879   20.6268 H   0  0  0  0  0  0
  -26.8161  -30.8387   22.0189 H   0  0  0  0  0  0
  -28.0940  -29.0331   21.1855 H   0  0  0  0  0  0
  -25.9538  -26.0116   18.9279 H   0  0  0  0  0  0
  -23.9584  -27.3387   18.9994 H   0  0  0  0  0  0
  -23.7234  -30.6137   19.4081 H   0  0  0  0  0  0
  -22.7353  -29.2574   19.8638 H   0  0  0  0  0  0
  -25.1321  -36.1954   25.0800 H   0  0  0  0  0  0
  -20.9964  -28.3198   24.1430 H   0  0  0  0  0  0
  -20.5667  -26.2269   23.3580 H   0  0  0  0  0  0
  -21.6655  -26.7433   22.1203 H   0  0  0  0  0  0
  -19.6926  -25.6275   21.1240 H   0  0  0  0  0  0
  -19.6691  -27.3171   20.6719 H   0  0  0  0  0  0
  -17.4202  -26.6638   21.4034 H   0  0  0  0  0  0
  -18.0361  -26.0050   22.9024 H   0  0  0  0  0  0
  -19.7931  -30.7258   24.2255 H   0  0  0  0  0  0
  -17.5009  -31.6249   24.5151 H   0  0  0  0  0  0
  -15.5348  -30.2956   23.7647 H   0  0  0  0  0  0
  -15.8680  -28.0781   22.7077 H   0  0  0  0  0  0
  -24.5871  -30.7104   25.7722 H   0  0  0  0  0  0
  -24.8882  -32.2898   26.4868 H   0  0  0  0  0  0
  -25.8014  -30.8881   27.0183 H   0  0  0  0  0  0
  -26.2848  -29.6791   24.1235 H   0  0  0  0  0  0
  -27.3986  -29.7315   25.4715 H   0  0  0  0  0  0
  -27.8748  -30.4313   23.9416 H   0  0  0  0  0  0
  -27.2593  -33.3632   26.2122 H   0  0  0  0  0  0
  -28.3801  -32.6981   25.0320 H   0  0  0  0  0  0
  -28.0715  -31.8464   26.5376 H   0  0  0  0  0  0
  -28.2624  -38.0086   24.7482 H   0  0  0  0  0  0
  -28.1076  -36.2620   24.6355 H   0  0  0  0  0  0
  -27.2296  -37.1521   25.8864 H   0  0  0  0  0  0
  -20.9307  -29.8768   21.6968 H   0  0  0  0  0  0
  -26.0224  -38.2869   24.1317 H   0  0  0  0  0  0
  -30.2913  -22.0581   21.3685 H   0  0  0  0  0  0
  -28.7702  -24.3404   17.6284 H   0  0  0  0  0  0
  -29.6648  -25.8267   17.9284 H   0  0  0  0  0  0
  -27.9557  -25.8918   17.5210 H   0  0  0  0  0  0
  -28.1608  -20.3219   21.1813 H   0  0  0  0  0  0
  -28.5367  -20.3986   19.4991 H   0  0  0  0  0  0
  -27.3623  -24.8046   19.6950 H   0  0  0  0  0  0
  -32.0251  -21.2920   20.3893 H   0  0  0  0  0  0
  -33.2545  -20.2105   20.7690 H   0  0  0  0  0  0
  -28.9994  -15.4432   21.0453 H   0  0  0  0  0  0
  1 25  1  0  0  0
  1 30  2  0  0  0
  1 82  1  0  0  0
  2  3  1  0  0  0
  2 25  1  0  0  0
  2 85  1  0  0  0
  2 86  1  0  0  0
  3  4  1  0  0  0
  3 87  1  0  0  0
  3 88  1  0  0  0
  4  5  1  0  0  0
  4 89  1  0  0  0
  4 90  1  0  0  0
  5  6  1  0  0  0
  5 26  1  0  0  0
  5 91  1  0  0  0
  6 25  1  0  0  0
  6 92  1  0  0  0
  6 93  1  0  0  0
  7  8  2  0  0  0
  7 26  1  0  0  0
  7 29  1  0  0  0
  8  9  1  0  0  0
  8 22  1  0  0  0
  9 10  1  0  0  0
  9 27  2  0  0  0
 10 11  2  0  0  0
 10 15  1  0  0  0
 11 12  1  0  0  0
 11 94  1  0  0  0
 12 13  2  0  0  0
 12 95  1  0  0  0
 13 14  1  0  0  0
 13 31  1  0  0  0
 14 15  2  0  0  0
 14 96  1  0  0  0
 15 97  1  0  0  0
 16 17  2  0  0  0
 16 21  1  0  0  0
 16 31  1  0  0  0
 17 18  1  0  0  0
 17 98  1  0  0  0
 18 19  2  0  0  0
 18 99  1  0  0  0
 19 20  1  0  0  0
 19 24  1  0  0  0
 20 21  2  0  0  0
 20100  1  0  0  0
 21 23  1  0  0  0
 22 28  1  0  0  0
 22 32  2  0  0  0
 26 27  1  0  0  0
 28101  1  0  0  0
 28102  1  0  0  0
 29103  1  0  0  0
 29104  1  0  0  0
 33 34  1  0  0  0
 33 66  1  0  0  0
 33 70  2  0  0  0
 34 36  1  0  0  0
 34 59  1  0  0  0
 34105  1  0  0  0
 35 44  2  0  0  0
 35 45  1  0  0  0
 35 68  1  0  0  0
 36 56  1  0  0  0
 36106  1  0  0  0
 37 39  1  0  0  0
 37 47  1  0  0  0
 37 66  1  0  0  0
 37107  1  0  0  0
 38 43  2  0  0  0
 38 46  1  0  0  0
 38 47  1  0  0  0
 39 64  1  0  0  0
 39 67  2  0  0  0
 40 52  1  0  0  0
 40 53  2  0  0  0
 40 58  1  0  0  0
 41108  1  0  0  0
 41109  1  0  0  0
 41110  1  0  0  0
 41 48  1  0  0  0
 42 43  1  0  0  0
 42 66  1  0  0  0
 42111  1  0  0  0
 42112  1  0  0  0
 43 44  1  0  0  0
 44113  1  0  0  0
 45 46  2  0  0  0
 45114  1  0  0  0
 46115  1  0  0  0
 47116  1  0  0  0
 47117  1  0  0  0
 48 56  1  0  0  0
 48 65  1  0  0  0
 48118  1  0  0  0
 49 50  1  0  0  0
 49 53  1  0  0  0
 49 64  1  0  0  0
 49119  1  0  0  0
 50 51  1  0  0  0
 50120  1  0  0  0
 50121  1  0  0  0
 51 52  1  0  0  0
 51122  1  0  0  0
 51123  1  0  0  0
 52124  1  0  0  0
 52125  1  0  0  0
 53 54  1  0  0  0
 54 55  2  0  0  0
 54126  1  0  0  0
 55 57  1  0  0  0
 55127  1  0  0  0
 56 69  2  0  0  0
 57 58  2  0  0  0
 57128  1  0  0  0
 58129  1  0  0  0
 59 60  1  0  0  0
 59 61  1  0  0  0
 59 62  1  0  0  0
 60130  1  0  0  0
 60131  1  0  0  0
 60132  1  0  0  0
 61133  1  0  0  0
 61134  1  0  0  0
 61135  1  0  0  0
 62136  1  0  0  0
 62137  1  0  0  0
 62138  1  0  0  0
 63 65  1  0  0  0
 63139  1  0  0  0
 63140  1  0  0  0
 63141  1  0  0  0
 64142  1  0  0  0
 65143  1  0  0  0
 68 78  1  0  0  0
 71 72  2  0  0  0
 71 77  1  0  0  0
 71 79  1  0  0  0
 72 81  1  0  0  0
 72 84  1  0  0  0
 73 79  2  0  0  0
 73 82  1  0  0  0
 73 84  1  0  0  0
 74 77  1  0  0  0
 74 80  2  0  0  0
 74144  1  0  0  0
 75 78  1  0  0  0
 75 80  1  0  0  0
 75 83  2  0  0  0
 76145  1  0  0  0
 76146  1  0  0  0
 76147  1  0  0  0
 76 78  1  0  0  0
 77148  1  0  0  0
 77149  1  0  0  0
 78150  1  0  0  0
 81151  1  0  0  0
 81152  1  0  0  0
 82153  1  0  0  0
M  ISO  4   1 100  68 101  78 101  82 100
M  END
> <chiral flag>
0

> <version>
0

> <s_m_source_file>
/data/baiqing/PycharmProjects/Reinvent-master-3.2/result/LINK_invent/BTK/process_docking_weight1_custom_product_contain_oxygen_bond_distance_aromatic_linkinvent_7_9_3/rearranged_h_0185.sdf

> <i_m_source_file_index>
16

> <r_mmod_Potential_Energy-OPLS-2005>
-62.1583366394043

> <r_mmod_Stretch_Energy-OPLS-2005>
49.6590538024902

> <r_mmod_Bend_Energy-OPLS-2005>
130.152816772461

> <r_mmod_Torsional_Energy-OPLS-2005>
194.925048828125

> <r_mmod_Improper_Torsional_Energy-OPLS-2005>
5.63591527938843

> <r_mmod_Van_der_Waal_Energy-OPLS-2005>
143.845642089844

> <r_mmod_Electrostatic_Energy-OPLS-2005>
-391.185943603516

> <r_mmod_Solvation_Energy-OPLS-2005>
-220.662963867188

> <b_mmod_Minimization_Converged-OPLS-2005>
0

> <r_mmod_RMS_Derivative-OPLS-2005>
2.97430610656738

$$$$
16
                    3D
 Structure written by MMmdl.
147155  0  0  1  0            999 V2000
  -30.4907  -15.0875   20.3946 C   0  0  0  0  0  0
  -30.4451  -12.6819   19.5071 C   0  0  0  0  0  0
  -29.5278  -12.5407   18.2683 C   0  0  0  0  0  0
  -28.0681  -12.2981   18.6952 C   0  0  0  0  0  0
  -27.6223  -13.2549   19.8300 C   0  0  2  0  0  0
  -28.6637  -13.3469   20.9654 C   0  0  0  0  0  0
  -25.2441  -13.8211   20.5721 C   0  0  0  0  0  0
  -24.1769  -13.0433   20.9248 C   0  0  0  0  0  0
  -24.6391  -11.6921   20.8761 C   0  0  0  0  0  0
  -23.9076  -10.4292   21.0410 C   0  0  0  0  0  0
  -24.3627   -9.4206   21.9184 C   0  0  0  0  0  0
  -23.6303   -8.2240   22.0750 C   0  0  0  0  0  0
  -22.4283   -8.0280   21.3543 C   0  0  0  0  0  0
  -21.9921   -9.0251   20.4643 C   0  0  0  0  0  0
  -22.7248  -10.2133   20.3055 C   0  0  0  0  0  0
  -21.6851   -6.0738   22.5279 C   0  0  0  0  0  0
  -21.4011   -6.5639   23.8213 C   0  0  0  0  0  0
  -21.3660   -5.6791   24.9177 C   0  0  0  0  0  0
  -21.6048   -4.3054   24.7224 C   0  0  0  0  0  0
  -21.8819   -3.8147   23.4343 C   0  0  0  0  0  0
  -21.9192   -4.6966   22.3402 C   0  0  0  0  0  0
  -22.7790  -13.5203   21.1898 C   0  0  0  0  0  0
  -22.1663   -4.2150   21.0979 F   0  0  0  0  0  0
  -21.5632   -3.4539   25.7736 F   0  0  0  0  0  0
  -29.9202  -13.8016   20.3527 N   0  0  0  0  0  0
  -26.2858  -12.9452   20.3227 N   0  0  0  0  0  0
  -25.9324  -11.6579   20.5736 N   0  0  0  0  0  0
  -22.0442  -12.8189   22.0451 N   0  0  0  0  0  0
  -25.4089  -15.1943   20.4131 N   0  0  0  0  0  0
  -31.7073  -15.1281   20.1687 O   0  0  0  0  0  0
  -21.6643   -6.8881   21.4240 O   0  0  0  0  0  0
  -22.3478  -14.5507   20.6740 O   0  0  0  0  0  0
  -24.6534  -31.8355   23.1794 C   0  0  0  0  0  0
  -25.9261  -32.4652   23.8223 C   0  0  1  0  0  0
  -27.2186  -27.0377   20.1572 C   0  0  0  0  0  0
  -25.5969  -33.8460   24.2134 N   0  0  0  0  0  0
  -23.4616  -30.4523   21.5277 C   0  0  2  0  0  0
  -24.9119  -28.8635   20.1102 C   0  0  0  0  0  0
  -22.7615  -29.4510   22.4819 C   0  0  0  0  0  0
  -18.0314  -28.1409   22.8472 C   0  0  0  0  0  0
  -24.1491  -36.7234   23.2642 C   0  0  0  0  0  0
  -26.0253  -30.6772   21.3930 C   0  0  0  0  0  0
  -26.0947  -29.2794   20.7336 C   0  0  0  0  0  0
  -27.2448  -28.3854   20.7372 C   0  0  0  0  0  0
  -25.9995  -26.7476   19.5014 C   0  0  0  0  0  0
  -24.8828  -27.6133   19.4775 C   0  0  0  0  0  0
  -23.6933  -29.7773   20.1499 C   0  0  0  0  0  0
  -25.4127  -36.3005   24.0306 C   0  0  1  0  0  0
  -20.5933  -28.3745   23.1212 C   0  0  2  0  0  0
  -20.6794  -26.9436   22.5408 C   0  0  0  0  0  0
  -19.5772  -26.6384   21.5216 C   0  0  0  0  0  0
  -18.1950  -26.7947   22.1621 C   0  0  0  0  0  0
  -19.1573  -28.8896   23.2833 C   0  0  0  0  0  0
  -18.9487  -30.1487   23.8866 C   0  0  0  0  0  0
  -17.6482  -30.6600   24.0562 C   0  0  0  0  0  0
  -25.9087  -34.9385   23.5036 C   0  0  0  0  0  0
  -16.5373  -29.9093   23.6343 C   0  0  0  0  0  0
  -16.7298  -28.6515   23.0359 C   0  0  0  0  0  0
  -26.4538  -31.6556   25.0707 C   0  0  0  0  0  0
  -25.3693  -31.3793   26.1385 C   0  0  0  0  0  0
  -27.0405  -30.2932   24.6366 C   0  0  0  0  0  0
  -27.6057  -32.4335   25.7499 C   0  0  0  0  0  0
  -27.5576  -37.1768   24.8461 C   0  0  0  0  0  0
  -21.4294  -29.3055   22.3569 N   0  0  0  0  0  0
  -26.4280  -37.3732   23.9412 N   0  0  0  0  0  0
  -24.7342  -31.0116   22.0879 N   0  0  0  0  0  0
  -23.4212  -28.8067   23.3014 O   0  0  0  0  0  0
  -28.2446  -25.9883   20.2445 O   0  0  0  0  0  0
  -26.5687  -34.8902   22.4624 O   0  0  0  0  0  0
  -23.5628  -32.1275   23.6952 O   0  0  0  0  0  0
  -29.4449  -20.3490   20.3400 C   0  0  0  0  0  0
  -30.8196  -20.2507   20.4374 C   0  0  0  0  0  0
  -29.9119  -17.8396   20.4252 C   0  0  0  0  0  0
  -28.9550  -23.1292   20.3975 C   0  0  0  0  0  0
  -28.1688  -24.4251   18.3128 C   0  0  0  0  0  0
  -28.0277  -24.4491   19.8461 C   0  0  2  0  0  0
  -28.9738  -18.9142   20.3319 N   0  0  0  0  0  0
  -28.6884  -21.7196   20.1630 N   0  0  0  0  0  0
  -29.6801  -16.2878   20.4652 N   0  0  0  0  0  0
  -29.9379  -23.4344   21.0755 O   0  0  0  0  0  0
  -31.6535  -21.3186   20.4146 F   0  0  0  0  0  0
  -31.5099  -18.6038   20.5207 S   0  0  0  0  0  0
  -31.4704  -12.8658   19.1834 H   0  0  0  0  0  0
  -30.4772  -11.7507   20.0750 H   0  0  0  0  0  0
  -29.8731  -11.7243   17.6325 H   0  0  0  0  0  0
  -29.5870  -13.4470   17.6633 H   0  0  0  0  0  0
  -27.9969  -11.2660   19.0412 H   0  0  0  0  0  0
  -27.3981  -12.3789   17.8384 H   0  0  0  0  0  0
  -27.5649  -14.2407   19.3675 H   0  0  0  0  0  0
  -28.7885  -12.3876   21.4698 H   0  0  0  0  0  0
  -28.3367  -14.0566   21.7272 H   0  0  0  0  0  0
  -25.2769   -9.5683   22.4764 H   0  0  0  0  0  0
  -24.0012   -7.4628   22.7467 H   0  0  0  0  0  0
  -21.0853   -8.8770   19.8948 H   0  0  0  0  0  0
  -22.3702  -10.9675   19.6171 H   0  0  0  0  0  0
  -21.2000   -7.6147   23.9717 H   0  0  0  0  0  0
  -21.1485   -6.0522   25.9080 H   0  0  0  0  0  0
  -22.0598   -2.7609   23.2840 H   0  0  0  0  0  0
  -22.4070  -11.9858   22.4842 H   0  0  0  0  0  0
  -21.1052  -13.1200   22.2652 H   0  0  0  0  0  0
  -24.6344  -15.8400   20.5232 H   0  0  0  0  0  0
  -26.2377  -15.6354   20.0374 H   0  0  0  0  0  0
  -26.7327  -32.5221   23.0942 H   0  0  0  0  0  0
  -25.0063  -33.9561   25.0247 H   0  0  0  0  0  0
  -22.7701  -31.2817   21.3665 H   0  0  0  0  0  0
  -23.3768  -35.9550   23.3276 H   0  0  0  0  0  0
  -24.3575  -36.8900   22.2062 H   0  0  0  0  0  0
  -23.7230  -37.6410   23.6708 H   0  0  0  0  0  0
  -26.1919  -31.4265   20.6178 H   0  0  0  0  0  0
  -26.8911  -30.7304   22.0413 H   0  0  0  0  0  0
  -28.1416  -28.7010   21.2514 H   0  0  0  0  0  0
  -25.8558  -25.7903   19.0268 H   0  0  0  0  0  0
  -23.9789  -27.2842   18.9830 H   0  0  0  0  0  0
  -23.8377  -30.5498   19.3938 H   0  0  0  0  0  0
  -22.8055  -29.2256   19.8362 H   0  0  0  0  0  0
  -25.1319  -36.1814   25.0799 H   0  0  0  0  0  0
  -21.0025  -28.3345   24.1334 H   0  0  0  0  0  0
  -20.5670  -26.2365   23.3638 H   0  0  0  0  0  0
  -21.6658  -26.7422   22.1217 H   0  0  0  0  0  0
  -19.6929  -25.6284   21.1271 H   0  0  0  0  0  0
  -19.6710  -27.3171   20.6727 H   0  0  0  0  0  0
  -17.4217  -26.6691   21.4024 H   0  0  0  0  0  0
  -18.0345  -26.0099   22.9028 H   0  0  0  0  0  0
  -19.7963  -30.7313   24.2217 H   0  0  0  0  0  0
  -17.5037  -31.6276   24.5173 H   0  0  0  0  0  0
  -15.5373  -30.2987   23.7688 H   0  0  0  0  0  0
  -15.8697  -28.0825   22.7091 H   0  0  0  0  0  0
  -24.5882  -30.7127   25.7708 H   0  0  0  0  0  0
  -24.8867  -32.2991   26.4700 H   0  0  0  0  0  0
  -25.7945  -30.9039   27.0233 H   0  0  0  0  0  0
  -26.3041  -29.6641   24.1350 H   0  0  0  0  0  0
  -27.3944  -29.7259   25.4984 H   0  0  0  0  0  0
  -27.8986  -30.4129   23.9750 H   0  0  0  0  0  0
  -27.2647  -33.3668   26.1992 H   0  0  0  0  0  0
  -28.3913  -32.6839   25.0360 H   0  0  0  0  0  0
  -28.0675  -31.8513   26.5482 H   0  0  0  0  0  0
  -28.2573  -38.0083   24.7525 H   0  0  0  0  0  0
  -28.1089  -36.2614   24.6262 H   0  0  0  0  0  0
  -27.2300  -37.1383   25.8864 H   0  0  0  0  0  0
  -20.9519  -29.8760   21.6728 H   0  0  0  0  0  0
  -26.0137  -38.2791   24.1437 H   0  0  0  0  0  0
  -27.8720  -23.4607   17.8998 H   0  0  0  0  0  0
  -29.2050  -24.6001   18.0227 H   0  0  0  0  0  0
  -27.5696  -25.1868   17.8192 H   0  0  0  0  0  0
  -27.0025  -24.1951   20.1142 H   0  0  0  0  0  0
  -27.7829  -21.5952   19.7352 H   0  0  0  0  0  0
  -28.7046  -16.0535   20.5470 H   0  0  0  0  0  0
  1 25  1  0  0  0
  1 30  2  0  0  0
  1 79  1  0  0  0
  2  3  1  0  0  0
  2 25  1  0  0  0
  2 83  1  0  0  0
  2 84  1  0  0  0
  3  4  1  0  0  0
  3 85  1  0  0  0
  3 86  1  0  0  0
  4  5  1  0  0  0
  4 87  1  0  0  0
  4 88  1  0  0  0
  5  6  1  0  0  0
  5 26  1  0  0  0
  5 89  1  0  0  0
  6 25  1  0  0  0
  6 90  1  0  0  0
  6 91  1  0  0  0
  7  8  2  0  0  0
  7 26  1  0  0  0
  7 29  1  0  0  0
  8  9  1  0  0  0
  8 22  1  0  0  0
  9 10  1  0  0  0
  9 27  2  0  0  0
 10 11  2  0  0  0
 10 15  1  0  0  0
 11 12  1  0  0  0
 11 92  1  0  0  0
 12 13  2  0  0  0
 12 93  1  0  0  0
 13 14  1  0  0  0
 13 31  1  0  0  0
 14 15  2  0  0  0
 14 94  1  0  0  0
 15 95  1  0  0  0
 16 17  2  0  0  0
 16 21  1  0  0  0
 16 31  1  0  0  0
 17 18  1  0  0  0
 17 96  1  0  0  0
 18 19  2  0  0  0
 18 97  1  0  0  0
 19 20  1  0  0  0
 19 24  1  0  0  0
 20 21  2  0  0  0
 20 98  1  0  0  0
 21 23  1  0  0  0
 22 28  1  0  0  0
 22 32  2  0  0  0
 26 27  1  0  0  0
 28 99  1  0  0  0
 28100  1  0  0  0
 29101  1  0  0  0
 29102  1  0  0  0
 33 34  1  0  0  0
 33 66  1  0  0  0
 33 70  2  0  0  0
 34 36  1  0  0  0
 34 59  1  0  0  0
 34103  1  0  0  0
 35 44  2  0  0  0
 35 45  1  0  0  0
 35 68  1  0  0  0
 36 56  1  0  0  0
 36104  1  0  0  0
 37 39  1  0  0  0
 37 47  1  0  0  0
 37 66  1  0  0  0
 37105  1  0  0  0
 38 43  2  0  0  0
 38 46  1  0  0  0
 38 47  1  0  0  0
 39 64  1  0  0  0
 39 67  2  0  0  0
 40 52  1  0  0  0
 40 53  2  0  0  0
 40 58  1  0  0  0
 41106  1  0  0  0
 41107  1  0  0  0
 41108  1  0  0  0
 41 48  1  0  0  0
 42 43  1  0  0  0
 42 66  1  0  0  0
 42109  1  0  0  0
 42110  1  0  0  0
 43 44  1  0  0  0
 44111  1  0  0  0
 45 46  2  0  0  0
 45112  1  0  0  0
 46113  1  0  0  0
 47114  1  0  0  0
 47115  1  0  0  0
 48 56  1  0  0  0
 48 65  1  0  0  0
 48116  1  0  0  0
 49 50  1  0  0  0
 49 53  1  0  0  0
 49 64  1  0  0  0
 49117  1  0  0  0
 50 51  1  0  0  0
 50118  1  0  0  0
 50119  1  0  0  0
 51 52  1  0  0  0
 51120  1  0  0  0
 51121  1  0  0  0
 52122  1  0  0  0
 52123  1  0  0  0
 53 54  1  0  0  0
 54 55  2  0  0  0
 54124  1  0  0  0
 55 57  1  0  0  0
 55125  1  0  0  0
 56 69  2  0  0  0
 57 58  2  0  0  0
 57126  1  0  0  0
 58127  1  0  0  0
 59 60  1  0  0  0
 59 61  1  0  0  0
 59 62  1  0  0  0
 60128  1  0  0  0
 60129  1  0  0  0
 60130  1  0  0  0
 61131  1  0  0  0
 61132  1  0  0  0
 61133  1  0  0  0
 62134  1  0  0  0
 62135  1  0  0  0
 62136  1  0  0  0
 63 65  1  0  0  0
 63137  1  0  0  0
 63138  1  0  0  0
 63139  1  0  0  0
 64140  1  0  0  0
 65141  1  0  0  0
 68 76  1  0  0  0
 71 72  2  0  0  0
 71 77  1  0  0  0
 71 78  1  0  0  0
 72 81  1  0  0  0
 72 82  1  0  0  0
 73 77  2  0  0  0
 73 79  1  0  0  0
 73 82  1  0  0  0
 74 76  1  0  0  0
 74 78  1  0  0  0
 74 80  2  0  0  0
 75142  1  0  0  0
 75143  1  0  0  0
 75144  1  0  0  0
 75 76  1  0  0  0
 76145  1  0  0  0
 78146  1  0  0  0
 79147  1  0  0  0
M  ISO  4   1 100  68 101  76 101  79 100
M  END
> <chiral flag>
0

> <version>
0

> <s_m_source_file>
/data/baiqing/PycharmProjects/Reinvent-master-3.2/result/LINK_invent/BTK/process_docking_weight1_custom_product_contain_oxygen_bond_distance_aromatic_linkinvent_7_9_3/rearranged_h_0185.sdf

> <i_m_source_file_index>
17

> <r_mmod_Potential_Energy-OPLS-2005>
625.41064453125

> <r_mmod_Stretch_Energy-OPLS-2005>
363.996063232422

> <r_mmod_Bend_Energy-OPLS-2005>
298.449066162109

> <r_mmod_Torsional_Energy-OPLS-2005>
219.400833129883

> <r_mmod_Improper_Torsional_Energy-OPLS-2005>
5.40434408187866

> <r_mmod_Van_der_Waal_Energy-OPLS-2005>
110.291961669922

> <r_mmod_Electrostatic_Energy-OPLS-2005>
-418.761566162109

> <r_mmod_Solvation_Energy-OPLS-2005>
-252.523544311523

> <b_mmod_Minimization_Converged-OPLS-2005>
0

> <r_mmod_RMS_Derivative-OPLS-2005>
0.712105870246887

$$$$
17
                    3D
 Structure written by MMmdl.
166174  0  0  1  0            999 V2000
  -30.5852  -14.7273   20.4767 C   0  0  0  0  0  0
  -30.4431  -12.4422   19.4690 C   0  0  0  0  0  0
  -29.5138  -12.5086   18.2349 C   0  0  0  0  0  0
  -28.0379  -12.3321   18.6461 C   0  0  0  0  0  0
  -27.6477  -13.2215   19.8569 C   0  0  2  0  0  0
  -28.6914  -13.1171   20.9913 C   0  0  0  0  0  0
  -25.2545  -13.8178   20.5693 C   0  0  0  0  0  0
  -24.1823  -13.0431   20.9202 C   0  0  0  0  0  0
  -24.6401  -11.6902   20.8744 C   0  0  0  0  0  0
  -23.9075  -10.4286   21.0405 C   0  0  0  0  0  0
  -24.3619   -9.4200   21.9187 C   0  0  0  0  0  0
  -23.6289   -8.2240   22.0762 C   0  0  0  0  0  0
  -22.4276   -8.0275   21.3541 C   0  0  0  0  0  0
  -21.9906   -9.0254   20.4648 C   0  0  0  0  0  0
  -22.7241  -10.2132   20.3056 C   0  0  0  0  0  0
  -21.6852   -6.0734   22.5274 C   0  0  0  0  0  0
  -21.4014   -6.5637   23.8213 C   0  0  0  0  0  0
  -21.3659   -5.6790   24.9173 C   0  0  0  0  0  0
  -21.6042   -4.3055   24.7218 C   0  0  0  0  0  0
  -21.8819   -3.8143   23.4346 C   0  0  0  0  0  0
  -21.9194   -4.6962   22.3400 C   0  0  0  0  0  0
  -22.7842  -13.5220   21.1849 C   0  0  0  0  0  0
  -22.1660   -4.2147   21.0974 F   0  0  0  0  0  0
  -21.5626   -3.4539   25.7731 F   0  0  0  0  0  0
  -29.9968  -13.4822   20.4238 N   0  0  0  0  0  0
  -26.2962  -12.9363   20.3286 N   0  0  0  0  0  0
  -25.9326  -11.6516   20.5750 N   0  0  0  0  0  0
  -22.0491  -12.8218   22.0417 N   0  0  0  0  0  0
  -25.4239  -15.1904   20.4093 N   0  0  0  0  0  0
  -31.7594  -14.8671   20.1177 O   0  0  0  0  0  0
  -21.6632   -6.8873   21.4238 O   0  0  0  0  0  0
  -22.3527  -14.5523   20.6697 O   0  0  0  0  0  0
  -24.6297  -31.8549   23.1987 C   0  0  0  0  0  0
  -25.9122  -32.4756   23.8329 C   0  0  1  0  0  0
  -27.2216  -27.2687   20.1292 C   0  0  0  0  0  0
  -25.5932  -33.8559   24.2256 N   0  0  0  0  0  0
  -23.4263  -30.4786   21.5406 C   0  0  2  0  0  0
  -24.8740  -28.9289   20.1056 C   0  0  0  0  0  0
  -22.7487  -29.4596   22.4894 C   0  0  0  0  0  0
  -18.0292  -28.1395   22.8485 C   0  0  0  0  0  0
  -24.1489  -36.7286   23.2640 C   0  0  0  0  0  0
  -25.9716  -30.7688   21.3806 C   0  0  0  0  0  0
  -26.0423  -29.3926   20.7233 C   0  0  0  0  0  0
  -27.2140  -28.5724   20.7282 C   0  0  0  0  0  0
  -26.0370  -26.8821   19.4606 C   0  0  0  0  0  0
  -24.8780  -27.6819   19.4626 C   0  0  0  0  0  0
  -23.6422  -29.8124   20.1561 C   0  0  0  0  0  0
  -25.4108  -36.3076   24.0333 C   0  0  1  0  0  0
  -20.5890  -28.3692   23.1282 C   0  0  2  0  0  0
  -20.6779  -26.9415   22.5411 C   0  0  0  0  0  0
  -19.5754  -26.6378   21.5231 C   0  0  0  0  0  0
  -18.1932  -26.7944   22.1624 C   0  0  0  0  0  0
  -19.1544  -28.8859   23.2887 C   0  0  0  0  0  0
  -18.9472  -30.1461   23.8898 C   0  0  0  0  0  0
  -17.6472  -30.6592   24.0564 C   0  0  0  0  0  0
  -25.9044  -34.9444   23.5097 C   0  0  0  0  0  0
  -16.5361  -29.9092   23.6332 C   0  0  0  0  0  0
  -16.7281  -28.6513   23.0353 C   0  0  0  0  0  0
  -26.4492  -31.6585   25.0715 C   0  0  0  0  0  0
  -25.3714  -31.3746   26.1439 C   0  0  0  0  0  0
  -27.0354  -30.3011   24.6201 C   0  0  0  0  0  0
  -27.6045  -32.4330   25.7488 C   0  0  0  0  0  0
  -27.5582  -37.1786   24.8460 C   0  0  0  0  0  0
  -21.4192  -29.3058   22.3675 N   0  0  0  0  0  0
  -26.4285  -37.3777   23.9412 N   0  0  0  0  0  0
  -24.6947  -31.0521   22.0962 N   0  0  0  0  0  0
  -23.4206  -28.8138   23.2973 O   0  0  0  0  0  0
  -28.3258  -26.3895   20.2188 O   0  0  0  0  0  0
  -26.5624  -34.8924   22.4671 O   0  0  0  0  0  0
  -23.5444  -32.1377   23.7269 O   0  0  0  0  0  0
  -30.7182  -19.3638   20.0941 C   0  0  0  0  0  0
  -29.5314  -19.8629   20.6202 C   0  0  0  0  0  0
  -29.8523  -17.2621   20.6454 C   0  0  0  0  0  0
  -29.2721  -22.3534   20.1193 C   0  0  0  0  0  0
  -33.4240  -21.5650   21.5960 C   0  0  0  0  0  0
  -35.4000  -20.4881   20.4475 C   0  0  0  0  0  0
  -30.4485  -24.4365   20.9461 C   0  0  0  0  0  0
  -28.3876  -23.6833   22.1493 C   0  0  0  0  0  0
  -33.0533  -19.6988   19.9217 C   0  0  0  0  0  0
  -28.1969  -24.9194   19.9152 C   0  0  0  0  0  0
  -33.9281  -20.9022   20.3034 C   0  0  0  0  0  0
  -29.0448  -23.8251   20.7595 C   0  0  0  0  0  0
  -30.8633  -17.9395   20.0788 N   0  0  0  0  0  0
  -29.1355  -21.1920   20.8614 N   0  0  0  0  0  0
  -29.7580  -15.7916   20.7897 N   0  0  0  0  0  0
  -29.5917  -22.2867   18.9313 O   0  0  0  0  0  0
  -31.7272  -20.1578   19.6657 O   0  0  0  0  0  0
  -28.6024  -18.4405   21.1856 S   0  0  0  0  0  0
  -31.4820  -12.5809   19.1650 H   0  0  0  0  0  0
  -30.3983  -11.4554   19.9332 H   0  0  0  0  0  0
  -29.7936  -11.7415   17.5116 H   0  0  0  0  0  0
  -29.6423  -13.4675   17.7297 H   0  0  0  0  0  0
  -27.8904  -11.2810   18.8992 H   0  0  0  0  0  0
  -27.3809  -12.5351   17.7993 H   0  0  0  0  0  0
  -27.6519  -14.2485   19.4910 H   0  0  0  0  0  0
  -28.7235  -12.1029   21.3917 H   0  0  0  0  0  0
  -28.4232  -13.7608   21.8303 H   0  0  0  0  0  0
  -25.2768   -9.5674   22.4757 H   0  0  0  0  0  0
  -23.9991   -7.4629   22.7486 H   0  0  0  0  0  0
  -21.0831   -8.8771   19.8956 H   0  0  0  0  0  0
  -22.3700  -10.9668   19.6157 H   0  0  0  0  0  0
  -21.2011   -7.6148   23.9710 H   0  0  0  0  0  0
  -21.1479   -6.0523   25.9071 H   0  0  0  0  0  0
  -22.0604   -2.7606   23.2840 H   0  0  0  0  0  0
  -22.4090  -11.9863   22.4784 H   0  0  0  0  0  0
  -21.1114  -13.1253   22.2632 H   0  0  0  0  0  0
  -24.6499  -15.8380   20.5112 H   0  0  0  0  0  0
  -26.2540  -15.6275   20.0307 H   0  0  0  0  0  0
  -26.7180  -32.5410   23.1066 H   0  0  0  0  0  0
  -25.0111  -33.9704   25.0425 H   0  0  0  0  0  0
  -22.7238  -31.3008   21.3937 H   0  0  0  0  0  0
  -23.3771  -35.9599   23.3287 H   0  0  0  0  0  0
  -24.3589  -36.8922   22.2058 H   0  0  0  0  0  0
  -23.7217  -37.6472   23.6670 H   0  0  0  0  0  0
  -26.1103  -31.5280   20.6096 H   0  0  0  0  0  0
  -26.8506  -30.8171   22.0123 H   0  0  0  0  0  0
  -28.1045  -28.9184   21.2341 H   0  0  0  0  0  0
  -25.9733  -25.9435   18.9319 H   0  0  0  0  0  0
  -23.9898  -27.3270   18.9580 H   0  0  0  0  0  0
  -23.7582  -30.5879   19.3989 H   0  0  0  0  0  0
  -22.7613  -29.2426   19.8538 H   0  0  0  0  0  0
  -25.1286  -36.1912   25.0825 H   0  0  0  0  0  0
  -20.9991  -28.3271   24.1396 H   0  0  0  0  0  0
  -20.5692  -26.2315   23.3614 H   0  0  0  0  0  0
  -21.6643  -26.7441   22.1191 H   0  0  0  0  0  0
  -19.6919  -25.6293   21.1259 H   0  0  0  0  0  0
  -19.6688  -27.3179   20.6760 H   0  0  0  0  0  0
  -17.4200  -26.6714   21.4020 H   0  0  0  0  0  0
  -18.0303  -26.0090   22.9016 H   0  0  0  0  0  0
  -19.7954  -30.7283   24.2259 H   0  0  0  0  0  0
  -17.5032  -31.6276   24.5160 H   0  0  0  0  0  0
  -15.5362  -30.3003   23.7666 H   0  0  0  0  0  0
  -15.8685  -28.0833   22.7069 H   0  0  0  0  0  0
  -24.5890  -30.7090   25.7782 H   0  0  0  0  0  0
  -24.8899  -32.2922   26.4827 H   0  0  0  0  0  0
  -25.8025  -30.8951   27.0237 H   0  0  0  0  0  0
  -26.2947  -29.6754   24.1216 H   0  0  0  0  0  0
  -27.4063  -29.7259   25.4697 H   0  0  0  0  0  0
  -27.8808  -30.4321   23.9447 H   0  0  0  0  0  0
  -27.2651  -33.3647   26.2028 H   0  0  0  0  0  0
  -28.3880  -32.6858   25.0330 H   0  0  0  0  0  0
  -28.0698  -31.8479   26.5433 H   0  0  0  0  0  0
  -28.2566  -38.0115   24.7543 H   0  0  0  0  0  0
  -28.1119  -36.2649   24.6238 H   0  0  0  0  0  0
  -27.2317  -37.1364   25.8868 H   0  0  0  0  0  0
  -20.9366  -29.8815   21.6917 H   0  0  0  0  0  0
  -26.0173  -38.2851   24.1441 H   0  0  0  0  0  0
  -33.9981  -22.4608   21.8327 H   0  0  0  0  0  0
  -33.4975  -20.8874   22.4476 H   0  0  0  0  0  0
  -32.3790  -21.8596   21.5060 H   0  0  0  0  0  0
  -36.0328  -21.3484   20.6666 H   0  0  0  0  0  0
  -35.7729  -20.0313   19.5303 H   0  0  0  0  0  0
  -35.5319  -19.7655   21.2543 H   0  0  0  0  0  0
  -31.1291  -23.7571   21.4578 H   0  0  0  0  0  0
  -30.4046  -25.3502   21.5409 H   0  0  0  0  0  0
  -30.8988  -24.6951   19.9863 H   0  0  0  0  0  0
  -29.0160  -23.1218   22.8412 H   0  0  0  0  0  0
  -27.4218  -23.1802   22.0869 H   0  0  0  0  0  0
  -28.2120  -24.6595   22.6021 H   0  0  0  0  0  0
  -33.1009  -18.9667   20.7308 H   0  0  0  0  0  0
  -33.4336  -19.2094   19.0239 H   0  0  0  0  0  0
  -27.1599  -24.6050   20.0184 H   0  0  0  0  0  0
  -28.4318  -24.8065   18.8556 H   0  0  0  0  0  0
  -33.8627  -21.6330   19.4959 H   0  0  0  0  0  0
  -28.6978  -21.3403   21.7604 H   0  0  0  0  0  0
  -28.8577  -15.4848   21.1241 H   0  0  0  0  0  0
  1 25  1  0  0  0
  1 30  2  0  0  0
  1 85  1  0  0  0
  2  3  1  0  0  0
  2 25  1  0  0  0
  2 89  1  0  0  0
  2 90  1  0  0  0
  3  4  1  0  0  0
  3 91  1  0  0  0
  3 92  1  0  0  0
  4  5  1  0  0  0
  4 93  1  0  0  0
  4 94  1  0  0  0
  5  6  1  0  0  0
  5 26  1  0  0  0
  5 95  1  0  0  0
  6 25  1  0  0  0
  6 96  1  0  0  0
  6 97  1  0  0  0
  7  8  2  0  0  0
  7 26  1  0  0  0
  7 29  1  0  0  0
  8  9  1  0  0  0
  8 22  1  0  0  0
  9 10  1  0  0  0
  9 27  2  0  0  0
 10 11  2  0  0  0
 10 15  1  0  0  0
 11 12  1  0  0  0
 11 98  1  0  0  0
 12 13  2  0  0  0
 12 99  1  0  0  0
 13 14  1  0  0  0
 13 31  1  0  0  0
 14 15  2  0  0  0
 14100  1  0  0  0
 15101  1  0  0  0
 16 17  2  0  0  0
 16 21  1  0  0  0
 16 31  1  0  0  0
 17 18  1  0  0  0
 17102  1  0  0  0
 18 19  2  0  0  0
 18103  1  0  0  0
 19 20  1  0  0  0
 19 24  1  0  0  0
 20 21  2  0  0  0
 20104  1  0  0  0
 21 23  1  0  0  0
 22 28  1  0  0  0
 22 32  2  0  0  0
 26 27  1  0  0  0
 28105  1  0  0  0
 28106  1  0  0  0
 29107  1  0  0  0
 29108  1  0  0  0
 33 34  1  0  0  0
 33 66  1  0  0  0
 33 70  2  0  0  0
 34 36  1  0  0  0
 34 59  1  0  0  0
 34109  1  0  0  0
 35 44  2  0  0  0
 35 45  1  0  0  0
 35 68  1  0  0  0
 36 56  1  0  0  0
 36110  1  0  0  0
 37 39  1  0  0  0
 37 47  1  0  0  0
 37 66  1  0  0  0
 37111  1  0  0  0
 38 43  2  0  0  0
 38 46  1  0  0  0
 38 47  1  0  0  0
 39 64  1  0  0  0
 39 67  2  0  0  0
 40 52  1  0  0  0
 40 53  2  0  0  0
 40 58  1  0  0  0
 41112  1  0  0  0
 41113  1  0  0  0
 41114  1  0  0  0
 41 48  1  0  0  0
 42 43  1  0  0  0
 42 66  1  0  0  0
 42115  1  0  0  0
 42116  1  0  0  0
 43 44  1  0  0  0
 44117  1  0  0  0
 45 46  2  0  0  0
 45118  1  0  0  0
 46119  1  0  0  0
 47120  1  0  0  0
 47121  1  0  0  0
 48 56  1  0  0  0
 48 65  1  0  0  0
 48122  1  0  0  0
 49 50  1  0  0  0
 49 53  1  0  0  0
 49 64  1  0  0  0
 49123  1  0  0  0
 50 51  1  0  0  0
 50124  1  0  0  0
 50125  1  0  0  0
 51 52  1  0  0  0
 51126  1  0  0  0
 51127  1  0  0  0
 52128  1  0  0  0
 52129  1  0  0  0
 53 54  1  0  0  0
 54 55  2  0  0  0
 54130  1  0  0  0
 55 57  1  0  0  0
 55131  1  0  0  0
 56 69  2  0  0  0
 57 58  2  0  0  0
 57132  1  0  0  0
 58133  1  0  0  0
 59 60  1  0  0  0
 59 61  1  0  0  0
 59 62  1  0  0  0
 60134  1  0  0  0
 60135  1  0  0  0
 60136  1  0  0  0
 61137  1  0  0  0
 61138  1  0  0  0
 61139  1  0  0  0
 62140  1  0  0  0
 62141  1  0  0  0
 62142  1  0  0  0
 63 65  1  0  0  0
 63143  1  0  0  0
 63144  1  0  0  0
 63145  1  0  0  0
 64146  1  0  0  0
 65147  1  0  0  0
 68 80  1  0  0  0
 71 72  2  0  0  0
 71 83  1  0  0  0
 71 87  1  0  0  0
 72 84  1  0  0  0
 72 88  1  0  0  0
 73 83  2  0  0  0
 73 85  1  0  0  0
 73 88  1  0  0  0
 74 82  1  0  0  0
 74 84  1  0  0  0
 74 86  2  0  0  0
 75148  1  0  0  0
 75149  1  0  0  0
 75150  1  0  0  0
 75 81  1  0  0  0
 76 81  1  0  0  0
 76151  1  0  0  0
 76152  1  0  0  0
 76153  1  0  0  0
 77154  1  0  0  0
 77155  1  0  0  0
 77156  1  0  0  0
 77 82  1  0  0  0
 78 82  1  0  0  0
 78157  1  0  0  0
 78158  1  0  0  0
 78159  1  0  0  0
 79 81  1  0  0  0
 79 87  1  0  0  0
 79160  1  0  0  0
 79161  1  0  0  0
 80 82  1  0  0  0
 80162  1  0  0  0
 80163  1  0  0  0
 81164  1  0  0  0
 84165  1  0  0  0
 85166  1  0  0  0
M  ISO  4   1 100  68 101  80 101  85 100
M  END
> <chiral flag>
0

> <version>
0

> <s_m_source_file>
/data/baiqing/PycharmProjects/Reinvent-master-3.2/result/LINK_invent/BTK/process_docking_weight1_custom_product_contain_oxygen_bond_distance_aromatic_linkinvent_7_9_3/rearranged_h_0185.sdf

> <i_m_source_file_index>
18

> <r_mmod_Potential_Energy-OPLS-2005>
55.8850059509277

> <r_mmod_Stretch_Energy-OPLS-2005>
112.242347717285

> <r_mmod_Bend_Energy-OPLS-2005>
175.732391357422

> <r_mmod_Torsional_Energy-OPLS-2005>
255.46826171875

> <r_mmod_Improper_Torsional_Energy-OPLS-2005>
4.4885425567627

> <r_mmod_Van_der_Waal_Energy-OPLS-2005>
120.483024597168

> <r_mmod_Electrostatic_Energy-OPLS-2005>
-445.844085693359

> <r_mmod_Solvation_Energy-OPLS-2005>
-245.366333007812

> <b_mmod_Minimization_Converged-OPLS-2005>
0

> <r_mmod_RMS_Derivative-OPLS-2005>
1.88610172271729

$$$$
18
                    3D
 Structure written by MMmdl.
164172  0  0  1  0            999 V2000
  -30.6991  -14.5494   20.4996 C   0  0  0  0  0  0
  -30.4236  -12.3336   19.4430 C   0  0  0  0  0  0
  -29.5019  -12.4869   18.2156 C   0  0  0  0  0  0
  -28.0242  -12.3380   18.6300 C   0  0  0  0  0  0
  -27.6544  -13.2156   19.8566 C   0  0  2  0  0  0
  -28.7018  -13.0772   20.9860 C   0  0  0  0  0  0
  -25.2561  -13.8179   20.5658 C   0  0  0  0  0  0
  -24.1841  -13.0434   20.9199 C   0  0  0  0  0  0
  -24.6411  -11.6913   20.8760 C   0  0  0  0  0  0
  -23.9077  -10.4293   21.0420 C   0  0  0  0  0  0
  -24.3612   -9.4203   21.9184 C   0  0  0  0  0  0
  -23.6306   -8.2224   22.0748 C   0  0  0  0  0  0
  -22.4291   -8.0271   21.3532 C   0  0  0  0  0  0
  -21.9921   -9.0250   20.4637 C   0  0  0  0  0  0
  -22.7245  -10.2138   20.3052 C   0  0  0  0  0  0
  -21.6845   -6.0733   22.5284 C   0  0  0  0  0  0
  -21.3997   -6.5630   23.8225 C   0  0  0  0  0  0
  -21.3663   -5.6783   24.9181 C   0  0  0  0  0  0
  -21.6052   -4.3043   24.7221 C   0  0  0  0  0  0
  -21.8820   -3.8138   23.4342 C   0  0  0  0  0  0
  -21.9181   -4.6956   22.3398 C   0  0  0  0  0  0
  -22.7854  -13.5216   21.1859 C   0  0  0  0  0  0
  -22.1658   -4.2137   21.0981 F   0  0  0  0  0  0
  -21.5646   -3.4532   25.7735 F   0  0  0  0  0  0
  -30.0256  -13.3659   20.4160 N   0  0  0  0  0  0
  -26.3004  -12.9370   20.3302 N   0  0  0  0  0  0
  -25.9335  -11.6517   20.5755 N   0  0  0  0  0  0
  -22.0470  -12.8229   22.0429 N   0  0  0  0  0  0
  -25.4221  -15.1910   20.4012 N   0  0  0  0  0  0
  -31.8772  -14.6422   20.1428 O   0  0  0  0  0  0
  -21.6630   -6.8883   21.4252 O   0  0  0  0  0  0
  -22.3542  -14.5507   20.6684 O   0  0  0  0  0  0
  -24.6215  -31.8656   23.2085 C   0  0  0  0  0  0
  -25.9090  -32.4812   23.8387 C   0  0  1  0  0  0
  -27.2260  -27.3954   20.0934 C   0  0  0  0  0  0
  -25.5934  -33.8615   24.2313 N   0  0  0  0  0  0
  -23.4117  -30.4923   21.5495 C   0  0  2  0  0  0
  -24.8559  -28.9586   20.1116 C   0  0  0  0  0  0
  -22.7452  -29.4662   22.4957 C   0  0  0  0  0  0
  -18.0281  -28.1401   22.8497 C   0  0  0  0  0  0
  -24.1490  -36.7315   23.2633 C   0  0  0  0  0  0
  -25.9468  -30.8177   21.3701 C   0  0  0  0  0  0
  -26.0215  -29.4519   20.7124 C   0  0  0  0  0  0
  -27.2137  -28.6805   20.6968 C   0  0  0  0  0  0
  -26.0464  -26.9432   19.4602 C   0  0  0  0  0  0
  -24.8661  -27.7067   19.4780 C   0  0  0  0  0  0
  -23.6219  -29.8316   20.1626 C   0  0  0  0  0  0
  -25.4109  -36.3110   24.0330 C   0  0  1  0  0  0
  -20.5882  -28.3691   23.1302 C   0  0  2  0  0  0
  -20.6779  -26.9423   22.5414 C   0  0  0  0  0  0
  -19.5750  -26.6395   21.5227 C   0  0  0  0  0  0
  -18.1930  -26.7943   22.1633 C   0  0  0  0  0  0
  -19.1535  -28.8859   23.2903 C   0  0  0  0  0  0
  -18.9455  -30.1461   23.8915 C   0  0  0  0  0  0
  -17.6460  -30.6593   24.0582 C   0  0  0  0  0  0
  -25.9047  -34.9477   23.5115 C   0  0  0  0  0  0
  -16.5353  -29.9103   23.6337 C   0  0  0  0  0  0
  -16.7269  -28.6532   23.0337 C   0  0  0  0  0  0
  -26.4489  -31.6606   25.0732 C   0  0  0  0  0  0
  -25.3745  -31.3759   26.1483 C   0  0  0  0  0  0
  -27.0288  -30.3024   24.6144 C   0  0  0  0  0  0
  -27.6071  -32.4324   25.7483 C   0  0  0  0  0  0
  -27.5588  -37.1807   24.8455 C   0  0  0  0  0  0
  -21.4171  -29.3051   22.3699 N   0  0  0  0  0  0
  -26.4291  -37.3799   23.9416 N   0  0  0  0  0  0
  -24.6786  -31.0738   22.1001 N   0  0  0  0  0  0
  -23.4214  -28.8203   23.3005 O   0  0  0  0  0  0
  -28.3452  -26.5761   20.1174 O   0  0  0  0  0  0
  -26.5596  -34.8932   22.4669 O   0  0  0  0  0  0
  -23.5398  -32.1412   23.7471 O   0  0  0  0  0  0
  -30.0230  -19.2250   20.3093 C   0  0  0  0  0  0
  -30.3350  -17.0293   20.7082 C   0  0  0  0  0  0
  -29.6416  -20.4312   18.2705 C   0  0  0  0  0  0
  -29.1494  -24.1631   20.3038 C   0  0  0  0  0  0
  -28.9007  -20.7287   15.8299 C   0  0  0  0  0  0
  -28.5899  -23.4529   23.4855 C   0  0  0  0  0  0
  -28.4649  -20.5776   17.3007 C   0  0  0  0  0  0
  -28.0744  -25.2398   20.6353 C   0  0  0  0  0  0
  -29.5115  -22.7629   22.4649 C   0  0  0  0  0  0
  -29.3330  -20.4810   19.7786 C   0  0  2  0  0  0
  -29.0345  -22.7478   20.9839 C   0  0  2  0  0  0
  -29.4496  -18.0006   20.3631 N   0  0  0  0  0  0
  -31.5821  -17.4226   21.0243 N   0  0  0  0  0  0
  -29.9425  -15.6495   20.7538 N   0  0  0  0  0  0
  -29.8959  -21.8032   20.2086 N   0  3  0  0  0  0
  -30.7947  -20.3610   17.8313 O   0  0  0  0  0  0
  -30.0469  -24.4125   19.4915 O   0  0  0  0  0  0
  -31.6921  -19.1006   20.8266 S   0  0  0  0  0  0
  -31.4705  -12.4175   19.1458 H   0  0  0  0  0  0
  -30.3210  -11.3403   19.8835 H   0  0  0  0  0  0
  -29.7567  -11.7428   17.4598 H   0  0  0  0  0  0
  -29.6605  -13.4626   17.7512 H   0  0  0  0  0  0
  -27.8547  -11.2868   18.8668 H   0  0  0  0  0  0
  -27.3705  -12.5681   17.7887 H   0  0  0  0  0  0
  -27.6738  -14.2486   19.5066 H   0  0  0  0  0  0
  -28.6952  -12.0666   21.3981 H   0  0  0  0  0  0
  -28.4686  -13.7447   21.8174 H   0  0  0  0  0  0
  -25.2748   -9.5679   22.4772 H   0  0  0  0  0  0
  -24.0004   -7.4610   22.7455 H   0  0  0  0  0  0
  -21.0846   -8.8759   19.8960 H   0  0  0  0  0  0
  -22.3683  -10.9668   19.6166 H   0  0  0  0  0  0
  -21.1981   -7.6140   23.9732 H   0  0  0  0  0  0
  -21.1504   -6.0505   25.9097 H   0  0  0  0  0  0
  -22.0601   -2.7597   23.2834 H   0  0  0  0  0  0
  -22.4032  -11.9889   22.4848 H   0  0  0  0  0  0
  -21.1080  -13.1296   22.2585 H   0  0  0  0  0  0
  -24.6420  -15.8323   20.4919 H   0  0  0  0  0  0
  -26.2525  -15.6345   20.0311 H   0  0  0  0  0  0
  -26.7159  -32.5499   23.1147 H   0  0  0  0  0  0
  -25.0121  -33.9764   25.0483 H   0  0  0  0  0  0
  -22.7051  -31.3128   21.4117 H   0  0  0  0  0  0
  -23.3760  -35.9638   23.3274 H   0  0  0  0  0  0
  -24.3595  -36.8952   22.2054 H   0  0  0  0  0  0
  -23.7226  -37.6507   23.6657 H   0  0  0  0  0  0
  -26.0691  -31.5846   20.6044 H   0  0  0  0  0  0
  -26.8321  -30.8656   21.9921 H   0  0  0  0  0  0
  -28.1122  -29.0541   21.1688 H   0  0  0  0  0  0
  -26.0270  -25.9971   18.9393 H   0  0  0  0  0  0
  -23.9768  -27.3315   18.9904 H   0  0  0  0  0  0
  -23.7407  -30.6090   19.4069 H   0  0  0  0  0  0
  -22.7427  -29.2600   19.8614 H   0  0  0  0  0  0
  -25.1288  -36.1966   25.0820 H   0  0  0  0  0  0
  -20.9987  -28.3261   24.1419 H   0  0  0  0  0  0
  -20.5710  -26.2303   23.3609 H   0  0  0  0  0  0
  -21.6645  -26.7478   22.1193 H   0  0  0  0  0  0
  -19.6916  -25.6311   21.1251 H   0  0  0  0  0  0
  -19.6688  -27.3213   20.6768 H   0  0  0  0  0  0
  -17.4207  -26.6703   21.4026 H   0  0  0  0  0  0
  -18.0319  -26.0083   22.9027 H   0  0  0  0  0  0
  -19.7927  -30.7281   24.2294 H   0  0  0  0  0  0
  -17.5007  -31.6269   24.5192 H   0  0  0  0  0  0
  -15.5352  -30.3009   23.7646 H   0  0  0  0  0  0
  -15.8672  -28.0866   22.7013 H   0  0  0  0  0  0
  -24.5855  -30.7182   25.7822 H   0  0  0  0  0  0
  -24.9012  -32.2941   26.4968 H   0  0  0  0  0  0
  -25.8072  -30.8876   27.0220 H   0  0  0  0  0  0
  -26.2817  -29.6806   24.1194 H   0  0  0  0  0  0
  -27.4008  -29.7259   25.4623 H   0  0  0  0  0  0
  -27.8691  -30.4302   23.9318 H   0  0  0  0  0  0
  -27.2690  -33.3614   26.2086 H   0  0  0  0  0  0
  -28.3854  -32.6909   25.0292 H   0  0  0  0  0  0
  -28.0762  -31.8433   26.5371 H   0  0  0  0  0  0
  -28.2598  -38.0117   24.7536 H   0  0  0  0  0  0
  -28.1092  -36.2651   24.6235 H   0  0  0  0  0  0
  -27.2317  -37.1403   25.8859 H   0  0  0  0  0  0
  -20.9345  -29.8782   21.6917 H   0  0  0  0  0  0
  -26.0180  -38.2872   24.1434 H   0  0  0  0  0  0
  -28.0398  -20.9042   15.1844 H   0  0  0  0  0  0
  -29.4056  -19.8302   15.4718 H   0  0  0  0  0  0
  -29.5873  -21.5668   15.6997 H   0  0  0  0  0  0
  -28.8869  -23.1880   24.5003 H   0  0  0  0  0  0
  -27.5494  -23.1511   23.3608 H   0  0  0  0  0  0
  -28.6491  -24.5379   23.4358 H   0  0  0  0  0  0
  -27.8792  -21.4480   17.5994 H   0  0  0  0  0  0
  -27.8203  -19.7043   17.4077 H   0  0  0  0  0  0
  -27.9572  -25.3339   21.7091 H   0  0  0  0  0  0
  -27.1309  -24.8419   20.2681 H   0  0  0  0  0  0
  -29.6316  -21.7329   22.8036 H   0  0  0  0  0  0
  -30.5057  -23.2106   22.5302 H   0  0  0  0  0  0
  -28.2552  -20.4393   19.9367 H   0  0  0  0  0  0
  -27.9969  -22.4143   20.9278 H   0  0  0  0  0  0
  -28.9584  -15.4820   20.8777 H   0  0  0  0  0  0
  -30.1155  -22.3111   19.3613 H   0  0  0  0  0  0
  -30.7772  -21.6764   20.6737 H   0  0  0  0  0  0
  1 25  1  0  0  0
  1 30  2  0  0  0
  1 84  1  0  0  0
  2  3  1  0  0  0
  2 25  1  0  0  0
  2 89  1  0  0  0
  2 90  1  0  0  0
  3  4  1  0  0  0
  3 91  1  0  0  0
  3 92  1  0  0  0
  4  5  1  0  0  0
  4 93  1  0  0  0
  4 94  1  0  0  0
  5  6  1  0  0  0
  5 26  1  0  0  0
  5 95  1  0  0  0
  6 25  1  0  0  0
  6 96  1  0  0  0
  6 97  1  0  0  0
  7  8  2  0  0  0
  7 26  1  0  0  0
  7 29  1  0  0  0
  8  9  1  0  0  0
  8 22  1  0  0  0
  9 10  1  0  0  0
  9 27  2  0  0  0
 10 11  2  0  0  0
 10 15  1  0  0  0
 11 12  1  0  0  0
 11 98  1  0  0  0
 12 13  2  0  0  0
 12 99  1  0  0  0
 13 14  1  0  0  0
 13 31  1  0  0  0
 14 15  2  0  0  0
 14100  1  0  0  0
 15101  1  0  0  0
 16 17  2  0  0  0
 16 21  1  0  0  0
 16 31  1  0  0  0
 17 18  1  0  0  0
 17102  1  0  0  0
 18 19  2  0  0  0
 18103  1  0  0  0
 19 20  1  0  0  0
 19 24  1  0  0  0
 20 21  2  0  0  0
 20104  1  0  0  0
 21 23  1  0  0  0
 22 28  1  0  0  0
 22 32  2  0  0  0
 26 27  1  0  0  0
 28105  1  0  0  0
 28106  1  0  0  0
 29107  1  0  0  0
 29108  1  0  0  0
 33 34  1  0  0  0
 33 66  1  0  0  0
 33 70  2  0  0  0
 34 36  1  0  0  0
 34 59  1  0  0  0
 34109  1  0  0  0
 35 44  2  0  0  0
 35 45  1  0  0  0
 35 68  1  0  0  0
 36 56  1  0  0  0
 36110  1  0  0  0
 37 39  1  0  0  0
 37 47  1  0  0  0
 37 66  1  0  0  0
 37111  1  0  0  0
 38 43  2  0  0  0
 38 46  1  0  0  0
 38 47  1  0  0  0
 39 64  1  0  0  0
 39 67  2  0  0  0
 40 52  1  0  0  0
 40 53  2  0  0  0
 40 58  1  0  0  0
 41112  1  0  0  0
 41113  1  0  0  0
 41114  1  0  0  0
 41 48  1  0  0  0
 42 43  1  0  0  0
 42 66  1  0  0  0
 42115  1  0  0  0
 42116  1  0  0  0
 43 44  1  0  0  0
 44117  1  0  0  0
 45 46  2  0  0  0
 45118  1  0  0  0
 46119  1  0  0  0
 47120  1  0  0  0
 47121  1  0  0  0
 48 56  1  0  0  0
 48 65  1  0  0  0
 48122  1  0  0  0
 49 50  1  0  0  0
 49 53  1  0  0  0
 49 64  1  0  0  0
 49123  1  0  0  0
 50 51  1  0  0  0
 50124  1  0  0  0
 50125  1  0  0  0
 51 52  1  0  0  0
 51126  1  0  0  0
 51127  1  0  0  0
 52128  1  0  0  0
 52129  1  0  0  0
 53 54  1  0  0  0
 54 55  2  0  0  0
 54130  1  0  0  0
 55 57  1  0  0  0
 55131  1  0  0  0
 56 69  2  0  0  0
 57 58  2  0  0  0
 57132  1  0  0  0
 58133  1  0  0  0
 59 60  1  0  0  0
 59 61  1  0  0  0
 59 62  1  0  0  0
 60134  1  0  0  0
 60135  1  0  0  0
 60136  1  0  0  0
 61137  1  0  0  0
 61138  1  0  0  0
 61139  1  0  0  0
 62140  1  0  0  0
 62141  1  0  0  0
 62142  1  0  0  0
 63 65  1  0  0  0
 63143  1  0  0  0
 63144  1  0  0  0
 63145  1  0  0  0
 64146  1  0  0  0
 65147  1  0  0  0
 68 78  1  0  0  0
 71 80  1  0  0  0
 71 82  2  0  0  0
 71 88  1  0  0  0
 72 82  1  0  0  0
 72 83  2  0  0  0
 72 84  1  0  0  0
 73 77  1  0  0  0
 73 80  1  0  0  0
 73 86  2  0  0  0
 74 78  1  0  0  0
 74 81  1  0  0  0
 74 87  2  0  0  0
 75 77  1  0  0  0
 75148  1  0  0  0
 75149  1  0  0  0
 75150  1  0  0  0
 76 79  1  0  0  0
 76151  1  0  0  0
 76152  1  0  0  0
 76153  1  0  0  0
 77154  1  0  0  0
 77155  1  0  0  0
 78156  1  0  0  0
 78157  1  0  0  0
 79158  1  0  0  0
 79159  1  0  0  0
 79 81  1  0  0  0
 80 85  1  0  0  0
 80160  1  0  0  0
 81 85  1  0  0  0
 81161  1  0  0  0
 83 88  1  0  0  0
 84162  1  0  0  0
 85163  1  0  0  0
 85164  1  0  0  0
M  CHG  1  85   1
M  ISO  4   1 100  68 101  78 101  84 100
M  END
> <chiral flag>
0

> <version>
0

> <s_m_source_file>
/data/baiqing/PycharmProjects/Reinvent-master-3.2/result/LINK_invent/BTK/process_docking_weight1_custom_product_contain_oxygen_bond_distance_aromatic_linkinvent_7_9_3/rearranged_h_0185.sdf

> <i_m_source_file_index>
19

> <r_mmod_Potential_Energy-OPLS-2005>
-416.873107910156

> <r_mmod_Stretch_Energy-OPLS-2005>
52.6114234924316

> <r_mmod_Bend_Energy-OPLS-2005>
119.996955871582

> <r_mmod_Torsional_Energy-OPLS-2005>
257.574920654297

> <r_mmod_Improper_Torsional_Energy-OPLS-2005>
6.7596321105957

> <r_mmod_Van_der_Waal_Energy-OPLS-2005>
127.454704284668

> <r_mmod_Electrostatic_Energy-OPLS-2005>
-488.876220703125

> <r_mmod_Solvation_Energy-OPLS-2005>
-520.686889648438

> <b_mmod_Minimization_Converged-OPLS-2005>
0

> <r_mmod_RMS_Derivative-OPLS-2005>
2.61178255081177

$$$$
19
                    3D
 Structure written by MMmdl.
163171  0  0  1  0            999 V2000
  -30.6686  -14.5551   20.4965 C   0  0  0  0  0  0
  -30.4309  -12.3343   19.4361 C   0  0  0  0  0  0
  -29.5024  -12.4886   18.2111 C   0  0  0  0  0  0
  -28.0257  -12.3370   18.6287 C   0  0  0  0  0  0
  -27.6580  -13.2092   19.8598 C   0  0  2  0  0  0
  -28.7036  -13.0519   20.9888 C   0  0  0  0  0  0
  -25.2596  -13.8150   20.5629 C   0  0  0  0  0  0
  -24.1861  -13.0442   20.9156 C   0  0  0  0  0  0
  -24.6427  -11.6902   20.8756 C   0  0  0  0  0  0
  -23.9086  -10.4293   21.0411 C   0  0  0  0  0  0
  -24.3631   -9.4209   21.9190 C   0  0  0  0  0  0
  -23.6300   -8.2247   22.0767 C   0  0  0  0  0  0
  -22.4293   -8.0294   21.3547 C   0  0  0  0  0  0
  -21.9916   -9.0273   20.4656 C   0  0  0  0  0  0
  -22.7251  -10.2145   20.3058 C   0  0  0  0  0  0
  -21.6847   -6.0750   22.5277 C   0  0  0  0  0  0
  -21.4016   -6.5651   23.8217 C   0  0  0  0  0  0
  -21.3648   -5.6805   24.9174 C   0  0  0  0  0  0
  -21.6030   -4.3062   24.7220 C   0  0  0  0  0  0
  -21.8817   -3.8161   23.4338 C   0  0  0  0  0  0
  -21.9190   -4.6988   22.3398 C   0  0  0  0  0  0
  -22.7882  -13.5243   21.1835 C   0  0  0  0  0  0
  -22.1668   -4.2163   21.0980 F   0  0  0  0  0  0
  -21.5619   -3.4555   25.7735 F   0  0  0  0  0  0
  -30.0257  -13.3531   20.4178 N   0  0  0  0  0  0
  -26.3034  -12.9328   20.3303 N   0  0  0  0  0  0
  -25.9349  -11.6487   20.5752 N   0  0  0  0  0  0
  -22.0517  -12.8230   22.0379 N   0  0  0  0  0  0
  -25.4315  -15.1863   20.4091 N   0  0  0  0  0  0
  -31.8470  -14.6900   20.1601 O   0  0  0  0  0  0
  -21.6646   -6.8905   21.4243 O   0  0  0  0  0  0
  -22.3559  -14.5544   20.6676 O   0  0  0  0  0  0
  -24.6189  -31.8638   23.2061 C   0  0  0  0  0  0
  -25.9056  -32.4800   23.8380 C   0  0  1  0  0  0
  -27.2271  -27.3703   20.1172 C   0  0  0  0  0  0
  -25.5895  -33.8600   24.2305 N   0  0  0  0  0  0
  -23.4085  -30.4880   21.5477 C   0  0  2  0  0  0
  -24.8557  -28.9426   20.1213 C   0  0  0  0  0  0
  -22.7428  -29.4642   22.4977 C   0  0  0  0  0  0
  -18.0282  -28.1364   22.8485 C   0  0  0  0  0  0
  -24.1493  -36.7323   23.2642 C   0  0  0  0  0  0
  -25.9451  -30.8078   21.3686 C   0  0  0  0  0  0
  -26.0204  -29.4357   20.7232 C   0  0  0  0  0  0
  -27.2104  -28.6597   20.7147 C   0  0  0  0  0  0
  -26.0486  -26.9173   19.4882 C   0  0  0  0  0  0
  -24.8675  -27.6843   19.4986 C   0  0  0  0  0  0
  -23.6210  -29.8169   20.1644 C   0  0  0  0  0  0
  -25.4109  -36.3111   24.0342 C   0  0  1  0  0  0
  -20.5865  -28.3657   23.1302 C   0  0  2  0  0  0
  -20.6766  -26.9384   22.5412 C   0  0  0  0  0  0
  -19.5747  -26.6369   21.5206 C   0  0  0  0  0  0
  -18.1928  -26.7899   22.1621 C   0  0  0  0  0  0
  -19.1529  -28.8828   23.2884 C   0  0  0  0  0  0
  -18.9452  -30.1433   23.8889 C   0  0  0  0  0  0
  -17.6455  -30.6568   24.0557 C   0  0  0  0  0  0
  -25.9035  -34.9473   23.5130 C   0  0  0  0  0  0
  -16.5347  -29.9062   23.6319 C   0  0  0  0  0  0
  -16.7267  -28.6481   23.0338 C   0  0  0  0  0  0
  -26.4473  -31.6582   25.0721 C   0  0  0  0  0  0
  -25.3739  -31.3685   26.1470 C   0  0  0  0  0  0
  -27.0311  -30.3024   24.6120 C   0  0  0  0  0  0
  -27.6052  -32.4295   25.7487 C   0  0  0  0  0  0
  -27.5586  -37.1824   24.8464 C   0  0  0  0  0  0
  -21.4153  -29.3027   22.3717 N   0  0  0  0  0  0
  -26.4301  -37.3793   23.9405 N   0  0  0  0  0  0
  -24.6758  -31.0695   22.0981 N   0  0  0  0  0  0
  -23.4183  -28.8186   23.3041 O   0  0  0  0  0  0
  -28.3786  -26.5886   20.0973 O   0  0  0  0  0  0
  -26.5613  -34.8929   22.4701 O   0  0  0  0  0  0
  -23.5370  -32.1413   23.7430 O   0  0  0  0  0  0
  -29.6686  -19.2752   20.3443 C   0  0  0  0  0  0
  -31.0060  -19.3694   20.7037 C   0  0  0  0  0  0
  -30.1708  -17.0215   20.6559 C   0  0  0  0  0  0
  -28.7363  -20.3972   19.8969 C   0  0  0  0  0  0
  -26.9287  -22.6076   21.9070 C   0  0  0  0  0  0
  -25.8310  -21.1611   23.7783 C   0  0  0  0  0  0
  -28.9874  -23.8847   18.7141 C   0  0  0  0  0  0
  -26.9256  -21.2873   22.7037 C   0  0  0  0  0  0
  -28.3527  -25.2865   20.7676 C   0  0  0  0  0  0
  -27.6578  -22.5880   20.5313 C   0  0  1  0  0  0
  -27.9955  -24.0199   19.8864 C   0  0  2  0  0  0
  -29.2234  -17.9243   20.3501 N   0  0  0  0  0  0
  -31.8349  -20.4882   20.8211 N   0  0  0  0  0  0
  -29.8616  -15.6186   20.7216 N   0  0  0  0  0  0
  -28.7686  -21.5871   20.5578 N   0  0  0  0  0  0
  -27.8857  -20.1758   19.0286 O   0  0  0  0  0  0
  -26.3138  -23.5797   22.3515 O   0  0  0  0  0  0
  -31.7210  -17.7859   20.9964 S   0  0  0  0  0  0
  -31.4740  -12.4342   19.1347 H   0  0  0  0  0  0
  -30.3375  -11.3314   19.8583 H   0  0  0  0  0  0
  -29.7488  -11.7443   17.4516 H   0  0  0  0  0  0
  -29.6615  -13.4616   17.7461 H   0  0  0  0  0  0
  -27.8537  -11.2846   18.8569 H   0  0  0  0  0  0
  -27.3704  -12.5791   17.7919 H   0  0  0  0  0  0
  -27.6797  -14.2438   19.5132 H   0  0  0  0  0  0
  -28.6916  -12.0336   21.3862 H   0  0  0  0  0  0
  -28.4680  -13.7033   21.8320 H   0  0  0  0  0  0
  -25.2792   -9.5676   22.4760 H   0  0  0  0  0  0
  -24.0002   -7.4635   22.7487 H   0  0  0  0  0  0
  -21.0835   -8.8801   19.8958 H   0  0  0  0  0  0
  -22.3727  -10.9691   19.6164 H   0  0  0  0  0  0
  -21.2020   -7.6173   23.9714 H   0  0  0  0  0  0
  -21.1465   -6.0547   25.9072 H   0  0  0  0  0  0
  -22.0601   -2.7627   23.2831 H   0  0  0  0  0  0
  -22.4171  -11.9911   22.4756 H   0  0  0  0  0  0
  -21.1134  -13.1249   22.2613 H   0  0  0  0  0  0
  -24.6545  -15.8304   20.5112 H   0  0  0  0  0  0
  -26.2751  -15.6379   20.0762 H   0  0  0  0  0  0
  -26.7120  -32.5491   23.1133 H   0  0  0  0  0  0
  -25.0017  -33.9728   25.0441 H   0  0  0  0  0  0
  -22.6986  -31.3053   21.4046 H   0  0  0  0  0  0
  -23.3739  -35.9673   23.3306 H   0  0  0  0  0  0
  -24.3594  -36.8934   22.2056 H   0  0  0  0  0  0
  -23.7250  -37.6541   23.6647 H   0  0  0  0  0  0
  -26.0635  -31.5643   20.5924 H   0  0  0  0  0  0
  -26.8297  -30.8653   21.9900 H   0  0  0  0  0  0
  -28.1091  -29.0382   21.1811 H   0  0  0  0  0  0
  -26.0199  -25.9829   18.9545 H   0  0  0  0  0  0
  -23.9783  -27.3033   19.0139 H   0  0  0  0  0  0
  -23.7357  -30.5873   19.4030 H   0  0  0  0  0  0
  -22.7426  -29.2437   19.8647 H   0  0  0  0  0  0
  -25.1284  -36.1996   25.0841 H   0  0  0  0  0  0
  -20.9960  -28.3220   24.1419 H   0  0  0  0  0  0
  -20.5652  -26.2266   23.3605 H   0  0  0  0  0  0
  -21.6638  -26.7414   22.1214 H   0  0  0  0  0  0
  -19.6910  -25.6285   21.1216 H   0  0  0  0  0  0
  -19.6673  -27.3193   20.6740 H   0  0  0  0  0  0
  -17.4191  -26.6638   21.4028 H   0  0  0  0  0  0
  -18.0344  -26.0037   22.9016 H   0  0  0  0  0  0
  -19.7932  -30.7257   24.2246 H   0  0  0  0  0  0
  -17.5004  -31.6239   24.5170 H   0  0  0  0  0  0
  -15.5341  -30.2962   23.7640 H   0  0  0  0  0  0
  -15.8670  -28.0799   22.7045 H   0  0  0  0  0  0
  -24.5918  -30.7018   25.7814 H   0  0  0  0  0  0
  -24.8923  -32.2836   26.4933 H   0  0  0  0  0  0
  -25.8097  -30.8856   27.0222 H   0  0  0  0  0  0
  -26.2869  -29.6781   24.1160 H   0  0  0  0  0  0
  -27.4058  -29.7268   25.4591 H   0  0  0  0  0  0
  -27.8717  -30.4337   23.9301 H   0  0  0  0  0  0
  -27.2675  -33.3574   26.2110 H   0  0  0  0  0  0
  -28.3850  -32.6871   25.0309 H   0  0  0  0  0  0
  -28.0733  -31.8384   26.5374 H   0  0  0  0  0  0
  -28.2617  -38.0108   24.7507 H   0  0  0  0  0  0
  -28.1066  -36.2643   24.6294 H   0  0  0  0  0  0
  -27.2304  -37.1486   25.8868 H   0  0  0  0  0  0
  -20.9324  -29.8771   21.6958 H   0  0  0  0  0  0
  -26.0192  -38.2892   24.1365 H   0  0  0  0  0  0
  -25.9018  -20.1896   24.2685 H   0  0  0  0  0  0
  -24.8355  -21.2282   23.3358 H   0  0  0  0  0  0
  -25.9219  -21.9271   24.5513 H   0  0  0  0  0  0
  -29.2214  -24.8559   18.2755 H   0  0  0  0  0  0
  -28.5757  -23.2602   17.9214 H   0  0  0  0  0  0
  -29.9302  -23.4417   19.0348 H   0  0  0  0  0  0
  -27.9074  -21.1707   23.1649 H   0  0  0  0  0  0
  -26.8098  -20.4631   22.0016 H   0  0  0  0  0  0
  -29.3453  -25.1322   21.1961 H   0  0  0  0  0  0
  -27.6950  -25.3903   21.6246 H   0  0  0  0  0  0
  -26.8990  -22.1917   19.8548 H   0  0  0  0  0  0
  -27.0533  -24.2879   19.4187 H   0  0  0  0  0  0
  -31.6181  -21.4138   20.4642 H   0  0  0  0  0  0
  -32.8016  -20.4158   21.1223 H   0  0  0  0  0  0
  -28.8893  -15.3946   20.8439 H   0  0  0  0  0  0
  -29.4800  -21.6957   21.2674 H   0  0  0  0  0  0
  1 25  1  0  0  0
  1 30  2  0  0  0
  1 84  1  0  0  0
  2  3  1  0  0  0
  2 25  1  0  0  0
  2 89  1  0  0  0
  2 90  1  0  0  0
  3  4  1  0  0  0
  3 91  1  0  0  0
  3 92  1  0  0  0
  4  5  1  0  0  0
  4 93  1  0  0  0
  4 94  1  0  0  0
  5  6  1  0  0  0
  5 26  1  0  0  0
  5 95  1  0  0  0
  6 25  1  0  0  0
  6 96  1  0  0  0
  6 97  1  0  0  0
  7  8  2  0  0  0
  7 26  1  0  0  0
  7 29  1  0  0  0
  8  9  1  0  0  0
  8 22  1  0  0  0
  9 10  1  0  0  0
  9 27  2  0  0  0
 10 11  2  0  0  0
 10 15  1  0  0  0
 11 12  1  0  0  0
 11 98  1  0  0  0
 12 13  2  0  0  0
 12 99  1  0  0  0
 13 14  1  0  0  0
 13 31  1  0  0  0
 14 15  2  0  0  0
 14100  1  0  0  0
 15101  1  0  0  0
 16 17  2  0  0  0
 16 21  1  0  0  0
 16 31  1  0  0  0
 17 18  1  0  0  0
 17102  1  0  0  0
 18 19  2  0  0  0
 18103  1  0  0  0
 19 20  1  0  0  0
 19 24  1  0  0  0
 20 21  2  0  0  0
 20104  1  0  0  0
 21 23  1  0  0  0
 22 28  1  0  0  0
 22 32  2  0  0  0
 26 27  1  0  0  0
 28105  1  0  0  0
 28106  1  0  0  0
 29107  1  0  0  0
 29108  1  0  0  0
 33 34  1  0  0  0
 33 66  1  0  0  0
 33 70  2  0  0  0
 34 36  1  0  0  0
 34 59  1  0  0  0
 34109  1  0  0  0
 35 44  2  0  0  0
 35 45  1  0  0  0
 35 68  1  0  0  0
 36 56  1  0  0  0
 36110  1  0  0  0
 37 39  1  0  0  0
 37 47  1  0  0  0
 37 66  1  0  0  0
 37111  1  0  0  0
 38 43  2  0  0  0
 38 46  1  0  0  0
 38 47  1  0  0  0
 39 64  1  0  0  0
 39 67  2  0  0  0
 40 52  1  0  0  0
 40 53  2  0  0  0
 40 58  1  0  0  0
 41112  1  0  0  0
 41113  1  0  0  0
 41114  1  0  0  0
 41 48  1  0  0  0
 42 43  1  0  0  0
 42 66  1  0  0  0
 42115  1  0  0  0
 42116  1  0  0  0
 43 44  1  0  0  0
 44117  1  0  0  0
 45 46  2  0  0  0
 45118  1  0  0  0
 46119  1  0  0  0
 47120  1  0  0  0
 47121  1  0  0  0
 48 56  1  0  0  0
 48 65  1  0  0  0
 48122  1  0  0  0
 49 50  1  0  0  0
 49 53  1  0  0  0
 49 64  1  0  0  0
 49123  1  0  0  0
 50 51  1  0  0  0
 50124  1  0  0  0
 50125  1  0  0  0
 51 52  1  0  0  0
 51126  1  0  0  0
 51127  1  0  0  0
 52128  1  0  0  0
 52129  1  0  0  0
 53 54  1  0  0  0
 54 55  2  0  0  0
 54130  1  0  0  0
 55 57  1  0  0  0
 55131  1  0  0  0
 56 69  2  0  0  0
 57 58  2  0  0  0
 57132  1  0  0  0
 58133  1  0  0  0
 59 60  1  0  0  0
 59 61  1  0  0  0
 59 62  1  0  0  0
 60134  1  0  0  0
 60135  1  0  0  0
 60136  1  0  0  0
 61137  1  0  0  0
 61138  1  0  0  0
 61139  1  0  0  0
 62140  1  0  0  0
 62141  1  0  0  0
 62142  1  0  0  0
 63 65  1  0  0  0
 63143  1  0  0  0
 63144  1  0  0  0
 63145  1  0  0  0
 64146  1  0  0  0
 65147  1  0  0  0
 68 79  1  0  0  0
 71 72  2  0  0  0
 71 74  1  0  0  0
 71 82  1  0  0  0
 72 83  1  0  0  0
 72 88  1  0  0  0
 73 82  2  0  0  0
 73 84  1  0  0  0
 73 88  1  0  0  0
 74 85  1  0  0  0
 74 86  2  0  0  0
 75 78  1  0  0  0
 75 80  1  0  0  0
 75 87  2  0  0  0
 76 78  1  0  0  0
 76148  1  0  0  0
 76149  1  0  0  0
 76150  1  0  0  0
 77151  1  0  0  0
 77152  1  0  0  0
 77153  1  0  0  0
 77 81  1  0  0  0
 78154  1  0  0  0
 78155  1  0  0  0
 79 81  1  0  0  0
 79156  1  0  0  0
 79157  1  0  0  0
 80 81  1  0  0  0
 80 85  1  0  0  0
 80158  1  0  0  0
 81159  1  0  0  0
 83160  1  0  0  0
 83161  1  0  0  0
 84162  1  0  0  0
 85163  1  0  0  0
M  ISO  4   1 100  68 101  79 101  84 100
M  END
> <chiral flag>
0

> <version>
0

> <s_m_source_file>
/data/baiqing/PycharmProjects/Reinvent-master-3.2/result/LINK_invent/BTK/process_docking_weight1_custom_product_contain_oxygen_bond_distance_aromatic_linkinvent_7_9_3/rearranged_h_0185.sdf

> <i_m_source_file_index>
20

> <r_mmod_Potential_Energy-OPLS-2005>
33.8605537414551

> <r_mmod_Stretch_Energy-OPLS-2005>
62.4123878479004

> <r_mmod_Bend_Energy-OPLS-2005>
143.085647583008

> <r_mmod_Torsional_Energy-OPLS-2005>
257.774017333984

> <r_mmod_Improper_Torsional_Energy-OPLS-2005>
8.57553863525391

> <r_mmod_Van_der_Waal_Energy-OPLS-2005>
129.960632324219

> <r_mmod_Electrostatic_Energy-OPLS-2005>
-350.759796142578

> <r_mmod_Solvation_Energy-OPLS-2005>
-244.612487792969

> <b_mmod_Minimization_Converged-OPLS-2005>
0

> <r_mmod_RMS_Derivative-OPLS-2005>
3.66859722137451

$$$$
20
                    3D
 Structure written by MMmdl.
156164  0  0  1  0            999 V2000
  -30.6748  -14.5353   20.5526 C   0  0  0  0  0  0
  -30.4369  -12.3420   19.4305 C   0  0  0  0  0  0
  -29.5050  -12.4926   18.2099 C   0  0  0  0  0  0
  -28.0259  -12.3463   18.6244 C   0  0  0  0  0  0
  -27.6580  -13.2064   19.8628 C   0  0  2  0  0  0
  -28.7018  -13.0256   20.9878 C   0  0  0  0  0  0
  -25.2576  -13.8153   20.5660 C   0  0  0  0  0  0
  -24.1834  -13.0428   20.9186 C   0  0  0  0  0  0
  -24.6387  -11.6896   20.8728 C   0  0  0  0  0  0
  -23.9053  -10.4280   21.0398 C   0  0  0  0  0  0
  -24.3608   -9.4195   21.9177 C   0  0  0  0  0  0
  -23.6280   -8.2236   22.0753 C   0  0  0  0  0  0
  -22.4263   -8.0274   21.3536 C   0  0  0  0  0  0
  -21.9892   -9.0252   20.4643 C   0  0  0  0  0  0
  -22.7224  -10.2125   20.3052 C   0  0  0  0  0  0
  -21.6854   -6.0723   22.5279 C   0  0  0  0  0  0
  -21.4012   -6.5630   23.8210 C   0  0  0  0  0  0
  -21.3661   -5.6784   24.9176 C   0  0  0  0  0  0
  -21.6046   -4.3048   24.7225 C   0  0  0  0  0  0
  -21.8821   -3.8138   23.4343 C   0  0  0  0  0  0
  -21.9191   -4.6951   22.3401 C   0  0  0  0  0  0
  -22.7859  -13.5225   21.1855 C   0  0  0  0  0  0
  -22.1658   -4.2132   21.0980 F   0  0  0  0  0  0
  -21.5637   -3.4536   25.7740 F   0  0  0  0  0  0
  -30.0245  -13.3433   20.4263 N   0  0  0  0  0  0
  -26.3002  -12.9324   20.3290 N   0  0  0  0  0  0
  -25.9309  -11.6491   20.5717 N   0  0  0  0  0  0
  -22.0490  -12.8231   22.0413 N   0  0  0  0  0  0
  -25.4268  -15.1882   20.4089 N   0  0  0  0  0  0
  -31.8335  -14.6989   20.1566 O   0  0  0  0  0  0
  -21.6634   -6.8861   21.4236 O   0  0  0  0  0  0
  -22.3545  -14.5534   20.6691 O   0  0  0  0  0  0
  -24.6195  -31.8641   23.2062 C   0  0  0  0  0  0
  -25.9065  -32.4797   23.8372 C   0  0  1  0  0  0
  -27.2332  -27.3865   20.0958 C   0  0  0  0  0  0
  -25.5906  -33.8602   24.2293 N   0  0  0  0  0  0
  -23.4102  -30.4884   21.5478 C   0  0  2  0  0  0
  -24.8571  -28.9530   20.1126 C   0  0  0  0  0  0
  -22.7448  -29.4630   22.4952 C   0  0  0  0  0  0
  -18.0275  -28.1388   22.8478 C   0  0  0  0  0  0
  -24.1500  -36.7319   23.2634 C   0  0  0  0  0  0
  -25.9466  -30.8135   21.3698 C   0  0  0  0  0  0
  -26.0214  -29.4467   20.7127 C   0  0  0  0  0  0
  -27.2111  -28.6720   20.6999 C   0  0  0  0  0  0
  -26.0423  -26.9272   19.4820 C   0  0  0  0  0  0
  -24.8644  -27.6947   19.4938 C   0  0  0  0  0  0
  -23.6224  -29.8250   20.1619 C   0  0  0  0  0  0
  -25.4123  -36.3105   24.0324 C   0  0  1  0  0  0
  -20.5869  -28.3679   23.1297 C   0  0  2  0  0  0
  -20.6778  -26.9411   22.5417 C   0  0  0  0  0  0
  -19.5765  -26.6384   21.5215 C   0  0  0  0  0  0
  -18.1933  -26.7927   22.1618 C   0  0  0  0  0  0
  -19.1523  -28.8853   23.2881 C   0  0  0  0  0  0
  -18.9454  -30.1458   23.8895 C   0  0  0  0  0  0
  -17.6453  -30.6588   24.0564 C   0  0  0  0  0  0
  -25.9051  -34.9464   23.5106 C   0  0  0  0  0  0
  -16.5344  -29.9091   23.6327 C   0  0  0  0  0  0
  -16.7261  -28.6514   23.0336 C   0  0  0  0  0  0
  -26.4478  -31.6598   25.0725 C   0  0  0  0  0  0
  -25.3721  -31.3726   26.1457 C   0  0  0  0  0  0
  -27.0323  -30.3026   24.6150 C   0  0  0  0  0  0
  -27.6036  -32.4340   25.7497 C   0  0  0  0  0  0
  -27.5589  -37.1822   24.8456 C   0  0  0  0  0  0
  -21.4167  -29.3025   22.3686 N   0  0  0  0  0  0
  -26.4306  -37.3791   23.9393 N   0  0  0  0  0  0
  -24.6769  -31.0708   22.0983 N   0  0  0  0  0  0
  -23.4191  -28.8165   23.3011 O   0  0  0  0  0  0
  -28.3896  -26.6091   20.1275 O   0  0  0  0  0  0
  -26.5623  -34.8919   22.4677 O   0  0  0  0  0  0
  -23.5373  -32.1406   23.7426 O   0  0  0  0  0  0
  -30.9007  -19.4200   22.2958 C   0  0  0  0  0  0
  -31.2996  -18.2845   23.0171 C   0  0  0  0  0  0
  -30.9959  -17.0043   22.5242 C   0  0  0  0  0  0
  -30.1972  -19.2693   21.0835 C   0  0  0  0  0  0
  -30.2952  -16.8954   21.3041 C   0  0  0  0  0  0
  -29.5641  -21.6994   20.7112 C   0  0  0  0  0  0
  -28.3863  -22.4813   18.5882 C   0  0  0  0  0  0
  -29.5147  -24.3152   20.1024 C   0  0  0  0  0  0
  -28.2639  -25.1998   19.7979 C   0  0  0  0  0  0
  -29.4954  -22.8047   19.6129 C   0  0  1  0  0  0
  -29.9085  -18.0158   20.6156 N   0  0  0  0  0  0
  -29.8849  -20.4392   20.3098 N   0  0  0  0  0  0
  -29.8917  -15.5800   20.9091 N   0  0  0  0  0  0
  -29.3173  -21.9919   21.8837 O   0  0  0  0  0  0
  -31.9706  -18.4257   24.1880 F   0  0  0  0  0  0
  -31.3432  -15.8990   23.2311 F   0  0  0  0  0  0
  -31.4781  -12.4667   19.1272 H   0  0  0  0  0  0
  -30.3686  -11.3382   19.8510 H   0  0  0  0  0  0
  -29.7567  -11.7468   17.4546 H   0  0  0  0  0  0
  -29.6661  -13.4649   17.7405 H   0  0  0  0  0  0
  -27.8518  -11.2924   18.8462 H   0  0  0  0  0  0
  -27.3750  -12.5928   17.7847 H   0  0  0  0  0  0
  -27.6880  -14.2459   19.5374 H   0  0  0  0  0  0
  -28.6919  -11.9979   21.3560 H   0  0  0  0  0  0
  -28.4595  -13.6506   21.8498 H   0  0  0  0  0  0
  -25.2756   -9.5675   22.4737 H   0  0  0  0  0  0
  -23.9991   -7.4633   22.7476 H   0  0  0  0  0  0
  -21.0823   -8.8770   19.8951 H   0  0  0  0  0  0
  -22.3690  -10.9661   19.6157 H   0  0  0  0  0  0
  -21.2000   -7.6140   23.9706 H   0  0  0  0  0  0
  -21.1487   -6.0514   25.9071 H   0  0  0  0  0  0
  -22.0595   -2.7596   23.2857 H   0  0  0  0  0  0
  -22.4094  -11.9906   22.4843 H   0  0  0  0  0  0
  -21.1101  -13.1256   22.2586 H   0  0  0  0  0  0
  -24.6518  -15.8347   20.5147 H   0  0  0  0  0  0
  -26.2638  -15.6337   20.0545 H   0  0  0  0  0  0
  -26.7140  -32.5487   23.1134 H   0  0  0  0  0  0
  -25.0044  -33.9774   25.0427 H   0  0  0  0  0  0
  -22.6995  -31.3055   21.4064 H   0  0  0  0  0  0
  -23.3751  -35.9663   23.3304 H   0  0  0  0  0  0
  -24.3579  -36.8939   22.2046 H   0  0  0  0  0  0
  -23.7273  -37.6530   23.6657 H   0  0  0  0  0  0
  -26.0725  -31.5803   20.6049 H   0  0  0  0  0  0
  -26.8292  -30.8600   21.9965 H   0  0  0  0  0  0
  -28.1076  -29.0479   21.1724 H   0  0  0  0  0  0
  -25.9889  -25.9699   18.9854 H   0  0  0  0  0  0
  -23.9706  -27.3096   19.0218 H   0  0  0  0  0  0
  -23.7337  -30.6000   19.4027 H   0  0  0  0  0  0
  -22.7468  -29.2464   19.8635 H   0  0  0  0  0  0
  -25.1308  -36.1968   25.0819 H   0  0  0  0  0  0
  -20.9955  -28.3267   24.1420 H   0  0  0  0  0  0
  -20.5700  -26.2292   23.3612 H   0  0  0  0  0  0
  -21.6650  -26.7461   22.1209 H   0  0  0  0  0  0
  -19.6936  -25.6296   21.1253 H   0  0  0  0  0  0
  -19.6719  -27.3192   20.6746 H   0  0  0  0  0  0
  -17.4211  -26.6650   21.4014 H   0  0  0  0  0  0
  -18.0336  -26.0076   22.9026 H   0  0  0  0  0  0
  -19.7928  -30.7273   24.2261 H   0  0  0  0  0  0
  -17.5007  -31.6266   24.5176 H   0  0  0  0  0  0
  -15.5347  -30.2998   23.7655 H   0  0  0  0  0  0
  -15.8654  -28.0847   22.7035 H   0  0  0  0  0  0
  -24.5874  -30.7106   25.7775 H   0  0  0  0  0  0
  -24.8933  -32.2893   26.4909 H   0  0  0  0  0  0
  -25.8036  -30.8868   27.0215 H   0  0  0  0  0  0
  -26.2884  -29.6778   24.1185 H   0  0  0  0  0  0
  -27.4048  -29.7279   25.4641 H   0  0  0  0  0  0
  -27.8744  -30.4321   23.9346 H   0  0  0  0  0  0
  -27.2626  -33.3620   26.2103 H   0  0  0  0  0  0
  -28.3827  -32.6942   25.0319 H   0  0  0  0  0  0
  -28.0730  -31.8456   26.5396 H   0  0  0  0  0  0
  -28.2604  -38.0122   24.7501 H   0  0  0  0  0  0
  -28.1092  -36.2649   24.6293 H   0  0  0  0  0  0
  -27.2297  -37.1491   25.8857 H   0  0  0  0  0  0
  -20.9339  -29.8744   21.6894 H   0  0  0  0  0  0
  -26.0191  -38.2870   24.1378 H   0  0  0  0  0  0
  -31.1563  -20.3961   22.6807 H   0  0  0  0  0  0
  -28.5011  -23.0831   17.6862 H   0  0  0  0  0  0
  -27.3921  -22.6638   18.9961 H   0  0  0  0  0  0
  -28.4136  -21.4394   18.2656 H   0  0  0  0  0  0
  -30.3667  -24.8031   19.6291 H   0  0  0  0  0  0
  -29.7339  -24.3697   21.1688 H   0  0  0  0  0  0
  -27.4143  -24.7671   20.3296 H   0  0  0  0  0  0
  -28.0523  -25.1430   18.7302 H   0  0  0  0  0  0
  -30.4366  -22.6777   19.0763 H   0  0  0  0  0  0
  -29.9218  -20.3057   19.3097 H   0  0  0  0  0  0
  -28.9175  -15.3703   21.0447 H   0  0  0  0  0  0
  1 25  1  0  0  0
  1 30  2  0  0  0
  1 83  1  0  0  0
  2  3  1  0  0  0
  2 25  1  0  0  0
  2 87  1  0  0  0
  2 88  1  0  0  0
  3  4  1  0  0  0
  3 89  1  0  0  0
  3 90  1  0  0  0
  4  5  1  0  0  0
  4 91  1  0  0  0
  4 92  1  0  0  0
  5  6  1  0  0  0
  5 26  1  0  0  0
  5 93  1  0  0  0
  6 25  1  0  0  0
  6 94  1  0  0  0
  6 95  1  0  0  0
  7  8  2  0  0  0
  7 26  1  0  0  0
  7 29  1  0  0  0
  8  9  1  0  0  0
  8 22  1  0  0  0
  9 10  1  0  0  0
  9 27  2  0  0  0
 10 11  2  0  0  0
 10 15  1  0  0  0
 11 12  1  0  0  0
 11 96  1  0  0  0
 12 13  2  0  0  0
 12 97  1  0  0  0
 13 14  1  0  0  0
 13 31  1  0  0  0
 14 15  2  0  0  0
 14 98  1  0  0  0
 15 99  1  0  0  0
 16 17  2  0  0  0
 16 21  1  0  0  0
 16 31  1  0  0  0
 17 18  1  0  0  0
 17100  1  0  0  0
 18 19  2  0  0  0
 18101  1  0  0  0
 19 20  1  0  0  0
 19 24  1  0  0  0
 20 21  2  0  0  0
 20102  1  0  0  0
 21 23  1  0  0  0
 22 28  1  0  0  0
 22 32  2  0  0  0
 26 27  1  0  0  0
 28103  1  0  0  0
 28104  1  0  0  0
 29105  1  0  0  0
 29106  1  0  0  0
 33 34  1  0  0  0
 33 66  1  0  0  0
 33 70  2  0  0  0
 34 36  1  0  0  0
 34 59  1  0  0  0
 34107  1  0  0  0
 35 44  2  0  0  0
 35 45  1  0  0  0
 35 68  1  0  0  0
 36 56  1  0  0  0
 36108  1  0  0  0
 37 39  1  0  0  0
 37 47  1  0  0  0
 37 66  1  0  0  0
 37109  1  0  0  0
 38 43  2  0  0  0
 38 46  1  0  0  0
 38 47  1  0  0  0
 39 64  1  0  0  0
 39 67  2  0  0  0
 40 52  1  0  0  0
 40 53  2  0  0  0
 40 58  1  0  0  0
 41110  1  0  0  0
 41111  1  0  0  0
 41112  1  0  0  0
 41 48  1  0  0  0
 42 43  1  0  0  0
 42 66  1  0  0  0
 42113  1  0  0  0
 42114  1  0  0  0
 43 44  1  0  0  0
 44115  1  0  0  0
 45 46  2  0  0  0
 45116  1  0  0  0
 46117  1  0  0  0
 47118  1  0  0  0
 47119  1  0  0  0
 48 56  1  0  0  0
 48 65  1  0  0  0
 48120  1  0  0  0
 49 50  1  0  0  0
 49 53  1  0  0  0
 49 64  1  0  0  0
 49121  1  0  0  0
 50 51  1  0  0  0
 50122  1  0  0  0
 50123  1  0  0  0
 51 52  1  0  0  0
 51124  1  0  0  0
 51125  1  0  0  0
 52126  1  0  0  0
 52127  1  0  0  0
 53 54  1  0  0  0
 54 55  2  0  0  0
 54128  1  0  0  0
 55 57  1  0  0  0
 55129  1  0  0  0
 56 69  2  0  0  0
 57 58  2  0  0  0
 57130  1  0  0  0
 58131  1  0  0  0
 59 60  1  0  0  0
 59 61  1  0  0  0
 59 62  1  0  0  0
 60132  1  0  0  0
 60133  1  0  0  0
 60134  1  0  0  0
 61135  1  0  0  0
 61136  1  0  0  0
 61137  1  0  0  0
 62138  1  0  0  0
 62139  1  0  0  0
 62140  1  0  0  0
 63 65  1  0  0  0
 63141  1  0  0  0
 63142  1  0  0  0
 63143  1  0  0  0
 64144  1  0  0  0
 65145  1  0  0  0
 68 79  1  0  0  0
 71 72  2  0  0  0
 71 74  1  0  0  0
 71146  1  0  0  0
 72 73  1  0  0  0
 72 85  1  0  0  0
 73 75  2  0  0  0
 73 86  1  0  0  0
 74 81  2  0  0  0
 74 82  1  0  0  0
 75 81  1  0  0  0
 75 83  1  0  0  0
 76 80  1  0  0  0
 76 82  1  0  0  0
 76 84  2  0  0  0
 77147  1  0  0  0
 77148  1  0  0  0
 77149  1  0  0  0
 77 80  1  0  0  0
 78 79  1  0  0  0
 78 80  1  0  0  0
 78150  1  0  0  0
 78151  1  0  0  0
 79152  1  0  0  0
 79153  1  0  0  0
 80154  1  0  0  0
 82155  1  0  0  0
 83156  1  0  0  0
M  ISO  4   1 100  68 101  79 101  83 100
M  END
> <chiral flag>
0

> <version>
0

> <s_m_source_file>
/data/baiqing/PycharmProjects/Reinvent-master-3.2/result/LINK_invent/BTK/process_docking_weight1_custom_product_contain_oxygen_bond_distance_aromatic_linkinvent_7_9_3/rearranged_h_0185.sdf

> <i_m_source_file_index>
21

> <r_mmod_Potential_Energy-OPLS-2005>
-182.531204223633

> <r_mmod_Stretch_Energy-OPLS-2005>
51.7131767272949

> <r_mmod_Bend_Energy-OPLS-2005>
114.088432312012

> <r_mmod_Torsional_Energy-OPLS-2005>
262.686492919922

> <r_mmod_Improper_Torsional_Energy-OPLS-2005>
6.40626382827759

> <r_mmod_Van_der_Waal_Energy-OPLS-2005>
162.869644165039

> <r_mmod_Electrostatic_Energy-OPLS-2005>
-574.638793945312

> <r_mmod_Solvation_Energy-OPLS-2005>
-229.148788452148

> <b_mmod_Minimization_Converged-OPLS-2005>
0

> <r_mmod_RMS_Derivative-OPLS-2005>
1.93489444255829

$$$$
21
                    3D
 Structure written by MMmdl.
153161  0  0  1  0            999 V2000
  -30.7143  -14.4831   20.5101 C   0  0  0  0  0  0
  -30.4064  -12.2880   19.4549 C   0  0  0  0  0  0
  -29.4993  -12.4897   18.2245 C   0  0  0  0  0  0
  -28.0144  -12.3714   18.6241 C   0  0  0  0  0  0
  -27.6569  -13.2178   19.8759 C   0  0  2  0  0  0
  -28.6976  -13.0393   21.0057 C   0  0  0  0  0  0
  -25.2540  -13.8181   20.5671 C   0  0  0  0  0  0
  -24.1828  -13.0444   20.9198 C   0  0  0  0  0  0
  -24.6394  -11.6905   20.8731 C   0  0  0  0  0  0
  -23.9065  -10.4291   21.0379 C   0  0  0  0  0  0
  -24.3632   -9.4213   21.9165 C   0  0  0  0  0  0
  -23.6293   -8.2247   22.0722 C   0  0  0  0  0  0
  -22.4266   -8.0298   21.3532 C   0  0  0  0  0  0
  -21.9914   -9.0246   20.4624 C   0  0  0  0  0  0
  -22.7241  -10.2120   20.3021 C   0  0  0  0  0  0
  -21.6833   -6.0753   22.5273 C   0  0  0  0  0  0
  -21.4022   -6.5650   23.8211 C   0  0  0  0  0  0
  -21.3679   -5.6789   24.9163 C   0  0  0  0  0  0
  -21.6071   -4.3056   24.7200 C   0  0  0  0  0  0
  -21.8818   -3.8155   23.4307 C   0  0  0  0  0  0
  -21.9191   -4.6980   22.3384 C   0  0  0  0  0  0
  -22.7848  -13.5214   21.1827 C   0  0  0  0  0  0
  -22.1611   -4.2174   21.0945 F   0  0  0  0  0  0
  -21.5656   -3.4549   25.7713 F   0  0  0  0  0  0
  -30.0302  -13.3078   20.4476 N   0  0  0  0  0  0
  -26.2995  -12.9386   20.3372 N   0  0  0  0  0  0
  -25.9334  -11.6538   20.5785 N   0  0  0  0  0  0
  -22.0513  -12.8205   22.0397 N   0  0  0  0  0  0
  -25.4236  -15.1886   20.4012 N   0  0  0  0  0  0
  -31.8743  -14.5887   20.1063 O   0  0  0  0  0  0
  -21.6616   -6.8898   21.4245 O   0  0  0  0  0  0
  -22.3519  -14.5489   20.6638 O   0  0  0  0  0  0
  -24.6215  -31.8645   23.2061 C   0  0  0  0  0  0
  -25.9091  -32.4783   23.8386 C   0  0  1  0  0  0
  -27.2506  -27.4112   20.0924 C   0  0  0  0  0  0
  -25.5906  -33.8585   24.2290 N   0  0  0  0  0  0
  -23.4128  -30.4890   21.5440 C   0  0  2  0  0  0
  -24.8607  -28.9537   20.1167 C   0  0  0  0  0  0
  -22.7449  -29.4669   22.4932 C   0  0  0  0  0  0
  -18.0291  -28.1412   22.8499 C   0  0  0  0  0  0
  -24.1483  -36.7317   23.2629 C   0  0  0  0  0  0
  -25.9476  -30.8212   21.3675 C   0  0  0  0  0  0
  -26.0248  -29.4564   20.7117 C   0  0  0  0  0  0
  -27.2204  -28.6930   20.6969 C   0  0  0  0  0  0
  -26.0630  -26.9463   19.4738 C   0  0  0  0  0  0
  -24.8759  -27.6961   19.4958 C   0  0  0  0  0  0
  -23.6233  -29.8178   20.1617 C   0  0  0  0  0  0
  -25.4088  -36.3086   24.0328 C   0  0  1  0  0  0
  -20.5904  -28.3693   23.1281 C   0  0  2  0  0  0
  -20.6783  -26.9418   22.5399 C   0  0  0  0  0  0
  -19.5767  -26.6383   21.5225 C   0  0  0  0  0  0
  -18.1937  -26.7938   22.1640 C   0  0  0  0  0  0
  -19.1554  -28.8858   23.2896 C   0  0  0  0  0  0
  -18.9483  -30.1462   23.8910 C   0  0  0  0  0  0
  -17.6486  -30.6589   24.0594 C   0  0  0  0  0  0
  -25.9034  -34.9451   23.5104 C   0  0  0  0  0  0
  -16.5372  -29.9102   23.6337 C   0  0  0  0  0  0
  -16.7283  -28.6543   23.0323 C   0  0  0  0  0  0
  -26.4494  -31.6571   25.0732 C   0  0  0  0  0  0
  -25.3761  -31.3705   26.1481 C   0  0  0  0  0  0
  -27.0309  -30.2974   24.6170 C   0  0  0  0  0  0
  -27.6037  -32.4324   25.7496 C   0  0  0  0  0  0
  -27.5578  -37.1793   24.8449 C   0  0  0  0  0  0
  -21.4164  -29.3088   22.3681 N   0  0  0  0  0  0
  -26.4265  -37.3774   23.9419 N   0  0  0  0  0  0
  -24.6778  -31.0748   22.0954 N   0  0  0  0  0  0
  -23.4198  -28.8189   23.2989 O   0  0  0  0  0  0
  -28.4033  -26.6309   20.1349 O   0  0  0  0  0  0
  -26.5599  -34.8908   22.4670 O   0  0  0  0  0  0
  -23.5383  -32.1392   23.7426 O   0  0  0  0  0  0
  -30.2555  -18.7476   18.6175 C   0  0  0  0  0  0
  -29.6933  -19.0656   19.8443 C   0  0  0  0  0  0
  -30.1034  -16.8373   20.2016 C   0  0  0  0  0  0
  -30.3959  -19.4916   17.3701 C   0  0  0  0  0  0
  -29.7021  -21.5604   20.1282 C   0  0  0  0  0  0
  -28.7639  -22.7494   20.4343 C   0  0  0  0  0  0
  -28.2000  -25.2068   19.9672 C   0  0  0  0  0  0
  -29.3193  -24.2139   20.3897 C   0  0  1  0  0  0
  -29.5600  -17.9563   20.7126 N   0  0  0  0  0  0
  -29.5870  -20.3582   16.9280 N   0  0  0  0  0  0
  -29.1284  -20.3351   20.1801 N   0  0  0  0  0  0
  -30.0103  -15.5766   20.8691 N   0  0  0  0  0  0
  -30.8909  -21.7403   19.8451 O   0  0  0  0  0  0
  -29.7726  -24.5315   21.6068 F   0  0  0  0  0  0
  -30.7934  -17.0855   18.5922 S   0  0  0  0  0  0
  -31.4562  -12.3511   19.1668 H   0  0  0  0  0  0
  -30.2685  -11.2861   19.8663 H   0  0  0  0  0  0
  -29.7353  -11.7547   17.4517 H   0  0  0  0  0  0
  -29.6938  -13.4703   17.7870 H   0  0  0  0  0  0
  -27.8089  -11.3185   18.8151 H   0  0  0  0  0  0
  -27.3711  -12.6555   17.7893 H   0  0  0  0  0  0
  -27.6894  -14.2636   19.5710 H   0  0  0  0  0  0
  -28.6563  -12.0262   21.4075 H   0  0  0  0  0  0
  -28.4710  -13.6986   21.8451 H   0  0  0  0  0  0
  -25.2754   -9.5702   22.4761 H   0  0  0  0  0  0
  -24.0052   -7.4598   22.7375 H   0  0  0  0  0  0
  -21.0881   -8.8733   19.8869 H   0  0  0  0  0  0
  -22.3676  -10.9661   19.6145 H   0  0  0  0  0  0
  -21.2008   -7.6143   23.9729 H   0  0  0  0  0  0
  -21.1504   -6.0501   25.9067 H   0  0  0  0  0  0
  -22.0595   -2.7615   23.2764 H   0  0  0  0  0  0
  -22.4152  -11.9865   22.4768 H   0  0  0  0  0  0
  -21.1138  -13.1192   22.2665 H   0  0  0  0  0  0
  -24.6676  -15.8521   20.5332 H   0  0  0  0  0  0
  -26.2728  -15.6205   20.0606 H   0  0  0  0  0  0
  -26.7170  -32.5457   23.1158 H   0  0  0  0  0  0
  -25.0067  -33.9751   25.0441 H   0  0  0  0  0  0
  -22.7078  -31.3078   21.3938 H   0  0  0  0  0  0
  -23.3738  -35.9665   23.3272 H   0  0  0  0  0  0
  -24.3588  -36.8971   22.2058 H   0  0  0  0  0  0
  -23.7251  -37.6513   23.6664 H   0  0  0  0  0  0
  -26.0726  -31.5870   20.6011 H   0  0  0  0  0  0
  -26.8316  -30.8666   21.9929 H   0  0  0  0  0  0
  -28.1146  -29.0776   21.1687 H   0  0  0  0  0  0
  -26.0230  -25.9943   18.9655 H   0  0  0  0  0  0
  -23.9848  -27.3040   19.0244 H   0  0  0  0  0  0
  -23.7365  -30.5859   19.3954 H   0  0  0  0  0  0
  -22.7511  -29.2335   19.8621 H   0  0  0  0  0  0
  -25.1271  -36.1926   25.0819 H   0  0  0  0  0  0
  -21.0023  -28.3278   24.1403 H   0  0  0  0  0  0
  -20.5719  -26.2314   23.3607 H   0  0  0  0  0  0
  -21.6658  -26.7456   22.1201 H   0  0  0  0  0  0
  -19.6915  -25.6298   21.1264 H   0  0  0  0  0  0
  -19.6684  -27.3187   20.6745 H   0  0  0  0  0  0
  -17.4195  -26.6674   21.4055 H   0  0  0  0  0  0
  -18.0342  -26.0092   22.9052 H   0  0  0  0  0  0
  -19.7953  -30.7300   24.2269 H   0  0  0  0  0  0
  -17.5029  -31.6249   24.5231 H   0  0  0  0  0  0
  -15.5375  -30.3010   23.7655 H   0  0  0  0  0  0
  -15.8690  -28.0886   22.6989 H   0  0  0  0  0  0
  -24.5919  -30.7048   25.7848 H   0  0  0  0  0  0
  -24.8979  -32.2881   26.4912 H   0  0  0  0  0  0
  -25.8140  -30.8889   27.0235 H   0  0  0  0  0  0
  -26.2865  -29.6737   24.1188 H   0  0  0  0  0  0
  -27.3987  -29.7197   25.4670 H   0  0  0  0  0  0
  -27.8755  -30.4237   23.9385 H   0  0  0  0  0  0
  -27.2595  -33.3603   26.2069 H   0  0  0  0  0  0
  -28.3835  -32.6929   25.0329 H   0  0  0  0  0  0
  -28.0716  -31.8468   26.5421 H   0  0  0  0  0  0
  -28.2546  -38.0145   24.7538 H   0  0  0  0  0  0
  -28.1130  -36.2664   24.6202 H   0  0  0  0  0  0
  -27.2307  -37.1353   25.8859 H   0  0  0  0  0  0
  -20.9309  -29.8828   21.6929 H   0  0  0  0  0  0
  -26.0148  -38.2842   24.1454 H   0  0  0  0  0  0
  -31.2762  -19.2455   16.7688 H   0  0  0  0  0  0
  -28.2987  -22.5767   21.4059 H   0  0  0  0  0  0
  -27.9572  -22.6708   19.7054 H   0  0  0  0  0  0
  -27.3134  -24.9166   20.5308 H   0  0  0  0  0  0
  -27.9920  -25.0195   18.9150 H   0  0  0  0  0  0
  -30.1671  -24.2972   19.7085 H   0  0  0  0  0  0
  -28.8003  -20.4834   17.5532 H   0  0  0  0  0  0
  -28.1855  -20.3065   20.5401 H   0  0  0  0  0  0
  -29.1834  -15.4315   21.4254 H   0  0  0  0  0  0
  1 25  1  0  0  0
  1 30  2  0  0  0
  1 82  1  0  0  0
  2  3  1  0  0  0
  2 25  1  0  0  0
  2 86  1  0  0  0
  2 87  1  0  0  0
  3  4  1  0  0  0
  3 88  1  0  0  0
  3 89  1  0  0  0
  4  5  1  0  0  0
  4 90  1  0  0  0
  4 91  1  0  0  0
  5  6  1  0  0  0
  5 26  1  0  0  0
  5 92  1  0  0  0
  6 25  1  0  0  0
  6 93  1  0  0  0
  6 94  1  0  0  0
  7  8  2  0  0  0
  7 26  1  0  0  0
  7 29  1  0  0  0
  8  9  1  0  0  0
  8 22  1  0  0  0
  9 10  1  0  0  0
  9 27  2  0  0  0
 10 11  2  0  0  0
 10 15  1  0  0  0
 11 12  1  0  0  0
 11 95  1  0  0  0
 12 13  2  0  0  0
 12 96  1  0  0  0
 13 14  1  0  0  0
 13 31  1  0  0  0
 14 15  2  0  0  0
 14 97  1  0  0  0
 15 98  1  0  0  0
 16 17  2  0  0  0
 16 21  1  0  0  0
 16 31  1  0  0  0
 17 18  1  0  0  0
 17 99  1  0  0  0
 18 19  2  0  0  0
 18100  1  0  0  0
 19 20  1  0  0  0
 19 24  1  0  0  0
 20 21  2  0  0  0
 20101  1  0  0  0
 21 23  1  0  0  0
 22 28  1  0  0  0
 22 32  2  0  0  0
 26 27  1  0  0  0
 28102  1  0  0  0
 28103  1  0  0  0
 29104  1  0  0  0
 29105  1  0  0  0
 33 34  1  0  0  0
 33 66  1  0  0  0
 33 70  2  0  0  0
 34 36  1  0  0  0
 34 59  1  0  0  0
 34106  1  0  0  0
 35 44  2  0  0  0
 35 45  1  0  0  0
 35 68  1  0  0  0
 36 56  1  0  0  0
 36107  1  0  0  0
 37 39  1  0  0  0
 37 47  1  0  0  0
 37 66  1  0  0  0
 37108  1  0  0  0
 38 43  2  0  0  0
 38 46  1  0  0  0
 38 47  1  0  0  0
 39 64  1  0  0  0
 39 67  2  0  0  0
 40 52  1  0  0  0
 40 53  2  0  0  0
 40 58  1  0  0  0
 41109  1  0  0  0
 41110  1  0  0  0
 41111  1  0  0  0
 41 48  1  0  0  0
 42 43  1  0  0  0
 42 66  1  0  0  0
 42112  1  0  0  0
 42113  1  0  0  0
 43 44  1  0  0  0
 44114  1  0  0  0
 45 46  2  0  0  0
 45115  1  0  0  0
 46116  1  0  0  0
 47117  1  0  0  0
 47118  1  0  0  0
 48 56  1  0  0  0
 48 65  1  0  0  0
 48119  1  0  0  0
 49 50  1  0  0  0
 49 53  1  0  0  0
 49 64  1  0  0  0
 49120  1  0  0  0
 50 51  1  0  0  0
 50121  1  0  0  0
 50122  1  0  0  0
 51 52  1  0  0  0
 51123  1  0  0  0
 51124  1  0  0  0
 52125  1  0  0  0
 52126  1  0  0  0
 53 54  1  0  0  0
 54 55  2  0  0  0
 54127  1  0  0  0
 55 57  1  0  0  0
 55128  1  0  0  0
 56 69  2  0  0  0
 57 58  2  0  0  0
 57129  1  0  0  0
 58130  1  0  0  0
 59 60  1  0  0  0
 59 61  1  0  0  0
 59 62  1  0  0  0
 60131  1  0  0  0
 60132  1  0  0  0
 60133  1  0  0  0
 61134  1  0  0  0
 61135  1  0  0  0
 61136  1  0  0  0
 62137  1  0  0  0
 62138  1  0  0  0
 62139  1  0  0  0
 63 65  1  0  0  0
 63140  1  0  0  0
 63141  1  0  0  0
 63142  1  0  0  0
 64143  1  0  0  0
 65144  1  0  0  0
 68 77  1  0  0  0
 71 72  2  0  0  0
 71 74  1  0  0  0
 71 85  1  0  0  0
 72 79  1  0  0  0
 72 81  1  0  0  0
 73 79  2  0  0  0
 73 82  1  0  0  0
 73 85  1  0  0  0
 74 80  2  0  0  0
 74145  1  0  0  0
 75 76  1  0  0  0
 75 81  1  0  0  0
 75 83  2  0  0  0
 76 78  1  0  0  0
 76146  1  0  0  0
 76147  1  0  0  0
 77 78  1  0  0  0
 77148  1  0  0  0
 77149  1  0  0  0
 78 84  1  0  0  0
 78150  1  0  0  0
 80151  1  0  0  0
 81152  1  0  0  0
 82153  1  0  0  0
M  ISO  4   1 100  68 101  77 101  82 100
M  END
> <chiral flag>
0

> <version>
0

> <s_m_source_file>
/data/baiqing/PycharmProjects/Reinvent-master-3.2/result/LINK_invent/BTK/process_docking_weight1_custom_product_contain_oxygen_bond_distance_aromatic_linkinvent_7_9_3/rearranged_h_0185.sdf

> <i_m_source_file_index>
22

> <r_mmod_Potential_Energy-OPLS-2005>
-125.424247741699

> <r_mmod_Stretch_Energy-OPLS-2005>
41.9214553833008

> <r_mmod_Bend_Energy-OPLS-2005>
112.999153137207

> <r_mmod_Torsional_Energy-OPLS-2005>
251.07991027832

> <r_mmod_Improper_Torsional_Energy-OPLS-2005>
6.14112854003906

> <r_mmod_Van_der_Waal_Energy-OPLS-2005>
136.708541870117

> <r_mmod_Electrostatic_Energy-OPLS-2005>
-434.721313476562

> <r_mmod_Solvation_Energy-OPLS-2005>
-259.344665527344

> <b_mmod_Minimization_Converged-OPLS-2005>
0

> <r_mmod_RMS_Derivative-OPLS-2005>
4.76007747650146

$$$$
22
                    3D
 Structure written by MMmdl.
151159  0  0  1  0            999 V2000
  -30.6049  -14.6644   20.5002 C   0  0  0  0  0  0
  -30.4462  -12.4138   19.4427 C   0  0  0  0  0  0
  -29.5038  -12.5082   18.2206 C   0  0  0  0  0  0
  -28.0275  -12.3479   18.6378 C   0  0  0  0  0  0
  -27.6532  -13.2175   19.8668 C   0  0  2  0  0  0
  -28.7030  -13.0691   20.9915 C   0  0  0  0  0  0
  -25.2542  -13.8156   20.5696 C   0  0  0  0  0  0
  -24.1813  -13.0416   20.9179 C   0  0  0  0  0  0
  -24.6391  -11.6890   20.8732 C   0  0  0  0  0  0
  -23.9059  -10.4274   21.0396 C   0  0  0  0  0  0
  -24.3607   -9.4193   21.9179 C   0  0  0  0  0  0
  -23.6287   -8.2228   22.0752 C   0  0  0  0  0  0
  -22.4269   -8.0264   21.3540 C   0  0  0  0  0  0
  -21.9900   -9.0237   20.4644 C   0  0  0  0  0  0
  -22.7227  -10.2119   20.3052 C   0  0  0  0  0  0
  -21.6850   -6.0725   22.5273 C   0  0  0  0  0  0
  -21.4007   -6.5632   23.8203 C   0  0  0  0  0  0
  -21.3664   -5.6788   24.9171 C   0  0  0  0  0  0
  -21.6046   -4.3049   24.7224 C   0  0  0  0  0  0
  -21.8820   -3.8139   23.4343 C   0  0  0  0  0  0
  -21.9193   -4.6953   22.3398 C   0  0  0  0  0  0
  -22.7838  -13.5207   21.1861 C   0  0  0  0  0  0
  -22.1665   -4.2140   21.0978 F   0  0  0  0  0  0
  -21.5634   -3.4534   25.7737 F   0  0  0  0  0  0
  -30.0153  -13.4275   20.4264 N   0  0  0  0  0  0
  -26.2991  -12.9355   20.3361 N   0  0  0  0  0  0
  -25.9328  -11.6503   20.5780 N   0  0  0  0  0  0
  -22.0495  -12.8191   22.0427 N   0  0  0  0  0  0
  -25.4195  -15.1878   20.4156 N   0  0  0  0  0  0
  -31.7587  -14.8585   20.1099 O   0  0  0  0  0  0
  -21.6636   -6.8860   21.4232 O   0  0  0  0  0  0
  -22.3508  -14.5514   20.6719 O   0  0  0  0  0  0
  -24.6242  -31.8592   23.2034 C   0  0  0  0  0  0
  -25.9092  -32.4771   23.8361 C   0  0  1  0  0  0
  -27.2273  -27.3319   20.1250 C   0  0  0  0  0  0
  -25.5922  -33.8573   24.2294 N   0  0  0  0  0  0
  -23.4184  -30.4826   21.5447 C   0  0  2  0  0  0
  -24.8665  -28.9357   20.1140 C   0  0  0  0  0  0
  -22.7478  -29.4615   22.4940 C   0  0  0  0  0  0
  -18.0292  -28.1374   22.8499 C   0  0  0  0  0  0
  -24.1480  -36.7264   23.2644 C   0  0  0  0  0  0
  -25.9577  -30.7964   21.3716 C   0  0  0  0  0  0
  -26.0331  -29.4228   20.7157 C   0  0  0  0  0  0
  -27.2194  -28.6331   20.7096 C   0  0  0  0  0  0
  -26.0431  -26.8922   19.4955 C   0  0  0  0  0  0
  -24.8709  -27.6752   19.4935 C   0  0  0  0  0  0
  -23.6345  -29.8161   20.1599 C   0  0  0  0  0  0
  -25.4099  -36.3064   24.0347 C   0  0  1  0  0  0
  -20.5898  -28.3658   23.1288 C   0  0  2  0  0  0
  -20.6768  -26.9379   22.5412 C   0  0  0  0  0  0
  -19.5748  -26.6372   21.5209 C   0  0  0  0  0  0
  -18.1932  -26.7920   22.1622 C   0  0  0  0  0  0
  -19.1552  -28.8834   23.2886 C   0  0  0  0  0  0
  -18.9474  -30.1447   23.8889 C   0  0  0  0  0  0
  -17.6476  -30.6576   24.0564 C   0  0  0  0  0  0
  -25.9037  -34.9441   23.5106 C   0  0  0  0  0  0
  -16.5364  -29.9078   23.6337 C   0  0  0  0  0  0
  -16.7284  -28.6494   23.0348 C   0  0  0  0  0  0
  -26.4498  -31.6582   25.0715 C   0  0  0  0  0  0
  -25.3758  -31.3737   26.1470 C   0  0  0  0  0  0
  -27.0336  -30.3024   24.6122 C   0  0  0  0  0  0
  -27.6060  -32.4320   25.7488 C   0  0  0  0  0  0
  -27.5568  -37.1781   24.8473 C   0  0  0  0  0  0
  -21.4191  -29.3019   22.3694 N   0  0  0  0  0  0
  -26.4274  -37.3762   23.9425 N   0  0  0  0  0  0
  -24.6855  -31.0625   22.0969 N   0  0  0  0  0  0
  -23.4212  -28.8154   23.3009 O   0  0  0  0  0  0
  -28.3529  -26.5008   20.1268 O   0  0  0  0  0  0
  -26.5584  -34.8912   22.4667 O   0  0  0  0  0  0
  -23.5415  -32.1377   23.7377 O   0  0  0  0  0  0
  -30.8880  -17.9498   20.2898 C   0  0  0  0  0  0
  -29.8028  -17.1444   20.7144 C   0  0  0  0  0  0
  -28.6202  -17.8704   20.9934 C   0  0  0  0  0  0
  -28.5387  -19.2833   20.8389 C   0  0  0  0  0  0
  -29.6789  -20.0189   20.4150 C   0  0  0  0  0  0
  -28.9107  -22.5024   20.6821 C   0  0  0  0  0  0
  -28.2021  -25.1311   20.6706 C   0  0  0  0  0  0
  -29.1127  -23.9588   20.0775 C   0  0  1  0  0  0
  -30.8224  -19.3140   20.1464 N   0  0  0  0  0  0
  -29.7736  -15.6843   20.8770 N   0  0  0  0  0  0
  -29.6401  -21.4632   20.1576 N   0  0  0  0  0  0
  -28.1701  -22.3685   21.6583 O   0  0  0  0  0  0
  -30.4713  -24.3258   20.2821 O   0  0  0  0  0  0
  -27.5209  -17.1793   21.3880 F   0  0  0  0  0  0
  -27.3470  -19.8960   21.0514 F   0  0  0  0  0  0
  -31.4805  -12.5623   19.1282 H   0  0  0  0  0  0
  -30.4062  -11.4176   19.8846 H   0  0  0  0  0  0
  -29.7647  -11.7445   17.4864 H   0  0  0  0  0  0
  -29.6406  -13.4686   17.7207 H   0  0  0  0  0  0
  -27.8639  -11.2950   18.8695 H   0  0  0  0  0  0
  -27.3695  -12.5773   17.7986 H   0  0  0  0  0  0
  -27.6676  -14.2531   19.5264 H   0  0  0  0  0  0
  -28.7246  -12.0440   21.3633 H   0  0  0  0  0  0
  -28.4453  -13.6888   21.8517 H   0  0  0  0  0  0
  -25.2750   -9.5678   22.4750 H   0  0  0  0  0  0
  -23.9998   -7.4621   22.7472 H   0  0  0  0  0  0
  -21.0828   -8.8752   19.8949 H   0  0  0  0  0  0
  -22.3678  -10.9655   19.6160 H   0  0  0  0  0  0
  -21.1987   -7.6137   23.9702 H   0  0  0  0  0  0
  -21.1490   -6.0521   25.9077 H   0  0  0  0  0  0
  -22.0594   -2.7600   23.2846 H   0  0  0  0  0  0
  -22.4125  -11.9853   22.4800 H   0  0  0  0  0  0
  -21.1118  -13.1210   22.2652 H   0  0  0  0  0  0
  -24.6566  -15.8367   20.5703 H   0  0  0  0  0  0
  -26.2893  -15.6533   20.1936 H   0  0  0  0  0  0
  -26.7157  -32.5458   23.1116 H   0  0  0  0  0  0
  -25.0143  -33.9724   25.0492 H   0  0  0  0  0  0
  -22.7122  -31.3029   21.4016 H   0  0  0  0  0  0
  -23.3747  -35.9587   23.3303 H   0  0  0  0  0  0
  -24.3596  -36.8878   22.2062 H   0  0  0  0  0  0
  -23.7231  -37.6466   23.6661 H   0  0  0  0  0  0
  -26.0882  -31.5625   20.6059 H   0  0  0  0  0  0
  -26.8380  -30.8445   22.0002 H   0  0  0  0  0  0
  -28.1188  -29.0047   21.1803 H   0  0  0  0  0  0
  -26.0173  -25.9310   19.0026 H   0  0  0  0  0  0
  -23.9775  -27.3026   19.0111 H   0  0  0  0  0  0
  -23.7567  -30.5933   19.4045 H   0  0  0  0  0  0
  -22.7543  -29.2460   19.8558 H   0  0  0  0  0  0
  -25.1288  -36.1898   25.0838 H   0  0  0  0  0  0
  -20.9997  -28.3203   24.1405 H   0  0  0  0  0  0
  -20.5638  -26.2259   23.3604 H   0  0  0  0  0  0
  -21.6637  -26.7382   22.1217 H   0  0  0  0  0  0
  -19.6892  -25.6281   21.1229 H   0  0  0  0  0  0
  -19.6689  -27.3184   20.6740 H   0  0  0  0  0  0
  -17.4200  -26.6679   21.4023 H   0  0  0  0  0  0
  -18.0327  -26.0068   22.9022 H   0  0  0  0  0  0
  -19.7957  -30.7272   24.2227 H   0  0  0  0  0  0
  -17.5033  -31.6257   24.5164 H   0  0  0  0  0  0
  -15.5360  -30.2971   23.7656 H   0  0  0  0  0  0
  -15.8694  -28.0813   22.7039 H   0  0  0  0  0  0
  -24.5917  -30.7085   25.7844 H   0  0  0  0  0  0
  -24.8967  -32.2909   26.4896 H   0  0  0  0  0  0
  -25.8119  -30.8946   27.0241 H   0  0  0  0  0  0
  -26.2887  -29.6775   24.1179 H   0  0  0  0  0  0
  -27.4123  -29.7276   25.4578 H   0  0  0  0  0  0
  -27.8717  -30.4365   23.9285 H   0  0  0  0  0  0
  -27.2678  -33.3653   26.2009 H   0  0  0  0  0  0
  -28.3898  -32.6818   25.0325 H   0  0  0  0  0  0
  -28.0667  -31.8463   26.5452 H   0  0  0  0  0  0
  -28.2579  -38.0079   24.7509 H   0  0  0  0  0  0
  -28.1070  -36.2614   24.6303 H   0  0  0  0  0  0
  -27.2299  -37.1425   25.8879 H   0  0  0  0  0  0
  -20.9351  -29.8795   21.6970 H   0  0  0  0  0  0
  -26.0148  -38.2828   24.1437 H   0  0  0  0  0  0
  -31.8426  -17.5054   20.0496 H   0  0  0  0  0  0
  -28.3778  -25.2037   21.7447 H   0  0  0  0  0  0
  -27.1662  -24.8032   20.5846 H   0  0  0  0  0  0
  -28.9262  -23.8913   19.0048 H   0  0  0  0  0  0
  -28.8811  -15.3435   21.2042 H   0  0  0  0  0  0
  -30.3237  -21.7764   19.4853 H   0  0  0  0  0  0
  -30.5917  -24.4294   21.2210 H   0  0  0  0  0  0
  1 25  1  0  0  0
  1 30  2  0  0  0
  1 80  1  0  0  0
  2  3  1  0  0  0
  2 25  1  0  0  0
  2 86  1  0  0  0
  2 87  1  0  0  0
  3  4  1  0  0  0
  3 88  1  0  0  0
  3 89  1  0  0  0
  4  5  1  0  0  0
  4 90  1  0  0  0
  4 91  1  0  0  0
  5  6  1  0  0  0
  5 26  1  0  0  0
  5 92  1  0  0  0
  6 25  1  0  0  0
  6 93  1  0  0  0
  6 94  1  0  0  0
  7  8  2  0  0  0
  7 26  1  0  0  0
  7 29  1  0  0  0
  8  9  1  0  0  0
  8 22  1  0  0  0
  9 10  1  0  0  0
  9 27  2  0  0  0
 10 11  2  0  0  0
 10 15  1  0  0  0
 11 12  1  0  0  0
 11 95  1  0  0  0
 12 13  2  0  0  0
 12 96  1  0  0  0
 13 14  1  0  0  0
 13 31  1  0  0  0
 14 15  2  0  0  0
 14 97  1  0  0  0
 15 98  1  0  0  0
 16 17  2  0  0  0
 16 21  1  0  0  0
 16 31  1  0  0  0
 17 18  1  0  0  0
 17 99  1  0  0  0
 18 19  2  0  0  0
 18100  1  0  0  0
 19 20  1  0  0  0
 19 24  1  0  0  0
 20 21  2  0  0  0
 20101  1  0  0  0
 21 23  1  0  0  0
 22 28  1  0  0  0
 22 32  2  0  0  0
 26 27  1  0  0  0
 28102  1  0  0  0
 28103  1  0  0  0
 29104  1  0  0  0
 29105  1  0  0  0
 33 34  1  0  0  0
 33 66  1  0  0  0
 33 70  2  0  0  0
 34 36  1  0  0  0
 34 59  1  0  0  0
 34106  1  0  0  0
 35 44  2  0  0  0
 35 45  1  0  0  0
 35 68  1  0  0  0
 36 56  1  0  0  0
 36107  1  0  0  0
 37 39  1  0  0  0
 37 47  1  0  0  0
 37 66  1  0  0  0
 37108  1  0  0  0
 38 43  2  0  0  0
 38 46  1  0  0  0
 38 47  1  0  0  0
 39 64  1  0  0  0
 39 67  2  0  0  0
 40 52  1  0  0  0
 40 53  2  0  0  0
 40 58  1  0  0  0
 41109  1  0  0  0
 41110  1  0  0  0
 41111  1  0  0  0
 41 48  1  0  0  0
 42 43  1  0  0  0
 42 66  1  0  0  0
 42112  1  0  0  0
 42113  1  0  0  0
 43 44  1  0  0  0
 44114  1  0  0  0
 45 46  2  0  0  0
 45115  1  0  0  0
 46116  1  0  0  0
 47117  1  0  0  0
 47118  1  0  0  0
 48 56  1  0  0  0
 48 65  1  0  0  0
 48119  1  0  0  0
 49 50  1  0  0  0
 49 53  1  0  0  0
 49 64  1  0  0  0
 49120  1  0  0  0
 50 51  1  0  0  0
 50121  1  0  0  0
 50122  1  0  0  0
 51 52  1  0  0  0
 51123  1  0  0  0
 51124  1  0  0  0
 52125  1  0  0  0
 52126  1  0  0  0
 53 54  1  0  0  0
 54 55  2  0  0  0
 54127  1  0  0  0
 55 57  1  0  0  0
 55128  1  0  0  0
 56 69  2  0  0  0
 57 58  2  0  0  0
 57129  1  0  0  0
 58130  1  0  0  0
 59 60  1  0  0  0
 59 61  1  0  0  0
 59 62  1  0  0  0
 60131  1  0  0  0
 60132  1  0  0  0
 60133  1  0  0  0
 61134  1  0  0  0
 61135  1  0  0  0
 61136  1  0  0  0
 62137  1  0  0  0
 62138  1  0  0  0
 62139  1  0  0  0
 63 65  1  0  0  0
 63140  1  0  0  0
 63141  1  0  0  0
 63142  1  0  0  0
 64143  1  0  0  0
 65144  1  0  0  0
 68 77  1  0  0  0
 71 72  2  0  0  0
 71 79  1  0  0  0
 71145  1  0  0  0
 72 73  1  0  0  0
 72 80  1  0  0  0
 73 74  2  0  0  0
 73 84  1  0  0  0
 74 75  1  0  0  0
 74 85  1  0  0  0
 75 79  2  0  0  0
 75 81  1  0  0  0
 76 78  1  0  0  0
 76 81  1  0  0  0
 76 82  2  0  0  0
 77 78  1  0  0  0
 77146  1  0  0  0
 77147  1  0  0  0
 78 83  1  0  0  0
 78148  1  0  0  0
 80149  1  0  0  0
 81150  1  0  0  0
 83151  1  0  0  0
M  ISO  4   1 100  68 101  77 101  80 100
M  END
> <chiral flag>
0

> <version>
0

> <s_m_source_file>
/data/baiqing/PycharmProjects/Reinvent-master-3.2/result/LINK_invent/BTK/process_docking_weight1_custom_product_contain_oxygen_bond_distance_aromatic_linkinvent_7_9_3/rearranged_h_0185.sdf

> <i_m_source_file_index>
23

> <r_mmod_Potential_Energy-OPLS-2005>
-156.936264038086

> <r_mmod_Stretch_Energy-OPLS-2005>
80.3066787719727

> <r_mmod_Bend_Energy-OPLS-2005>
146.195770263672

> <r_mmod_Torsional_Energy-OPLS-2005>
257.518096923828

> <r_mmod_Improper_Torsional_Energy-OPLS-2005>
4.86912250518799

> <r_mmod_Van_der_Waal_Energy-OPLS-2005>
144.004013061523

> <r_mmod_Electrostatic_Energy-OPLS-2005>
-593.397277832031

> <r_mmod_Solvation_Energy-OPLS-2005>
-245.859924316406

> <b_mmod_Minimization_Converged-OPLS-2005>
0

> <r_mmod_RMS_Derivative-OPLS-2005>
1.92295956611633

$$$$
23
                    3D
 Structure written by MMmdl.
154162  0  0  1  0            999 V2000
  -30.5820  -14.7558   20.4572 C   0  0  0  0  0  0
  -30.4449  -12.4502   19.4904 C   0  0  0  0  0  0
  -29.5207  -12.4579   18.2483 C   0  0  0  0  0  0
  -28.0374  -12.3329   18.6493 C   0  0  0  0  0  0
  -27.6473  -13.2305   19.8543 C   0  0  2  0  0  0
  -28.6879  -13.1465   20.9936 C   0  0  0  0  0  0
  -25.2547  -13.8212   20.5712 C   0  0  0  0  0  0
  -24.1815  -13.0469   20.9211 C   0  0  0  0  0  0
  -24.6394  -11.6944   20.8749 C   0  0  0  0  0  0
  -23.9067  -10.4313   21.0409 C   0  0  0  0  0  0
  -24.3623   -9.4219   21.9174 C   0  0  0  0  0  0
  -23.6302   -8.2251   22.0741 C   0  0  0  0  0  0
  -22.4278   -8.0291   21.3531 C   0  0  0  0  0  0
  -21.9923   -9.0266   20.4638 C   0  0  0  0  0  0
  -22.7250  -10.2143   20.3049 C   0  0  0  0  0  0
  -21.6851   -6.0742   22.5274 C   0  0  0  0  0  0
  -21.4022   -6.5644   23.8205 C   0  0  0  0  0  0
  -21.3659   -5.6792   24.9167 C   0  0  0  0  0  0
  -21.6042   -4.3051   24.7215 C   0  0  0  0  0  0
  -21.8821   -3.8152   23.4333 C   0  0  0  0  0  0
  -21.9196   -4.6971   22.3394 C   0  0  0  0  0  0
  -22.7831  -13.5253   21.1865 C   0  0  0  0  0  0
  -22.1660   -4.2165   21.0967 F   0  0  0  0  0  0
  -21.5630   -3.4528   25.7721 F   0  0  0  0  0  0
  -29.9917  -13.5105   20.4241 N   0  0  0  0  0  0
  -26.2961  -12.9416   20.3287 N   0  0  0  0  0  0
  -25.9329  -11.6561   20.5765 N   0  0  0  0  0  0
  -22.0462  -12.8240   22.0414 N   0  0  0  0  0  0
  -25.4303  -15.1935   20.4132 N   0  0  0  0  0  0
  -31.7517  -14.8853   20.0779 O   0  0  0  0  0  0
  -21.6647   -6.8886   21.4234 O   0  0  0  0  0  0
  -22.3515  -14.5552   20.6703 O   0  0  0  0  0  0
  -24.6351  -31.8537   23.1978 C   0  0  0  0  0  0
  -25.9167  -32.4747   23.8327 C   0  0  1  0  0  0
  -27.2095  -27.2384   20.1327 C   0  0  0  0  0  0
  -25.5963  -33.8550   24.2249 N   0  0  0  0  0  0
  -23.4316  -30.4769   21.5427 C   0  0  2  0  0  0
  -24.8766  -28.9253   20.1101 C   0  0  0  0  0  0
  -22.7523  -29.4586   22.4904 C   0  0  0  0  0  0
  -18.0293  -28.1380   22.8469 C   0  0  0  0  0  0
  -24.1501  -36.7282   23.2634 C   0  0  0  0  0  0
  -25.9800  -30.7612   21.3803 C   0  0  0  0  0  0
  -26.0506  -29.3827   20.7207 C   0  0  0  0  0  0
  -27.2206  -28.5521   20.7200 C   0  0  0  0  0  0
  -26.0128  -26.8649   19.4774 C   0  0  0  0  0  0
  -24.8631  -27.6754   19.4780 C   0  0  0  0  0  0
  -23.6508  -29.8159   20.1575 C   0  0  0  0  0  0
  -25.4124  -36.3061   24.0319 C   0  0  1  0  0  0
  -20.5906  -28.3697   23.1261 C   0  0  2  0  0  0
  -20.6792  -26.9412   22.5406 C   0  0  0  0  0  0
  -19.5769  -26.6370   21.5209 C   0  0  0  0  0  0
  -18.1941  -26.7919   22.1610 C   0  0  0  0  0  0
  -19.1551  -28.8855   23.2857 C   0  0  0  0  0  0
  -18.9466  -30.1457   23.8869 C   0  0  0  0  0  0
  -17.6465  -30.6579   24.0551 C   0  0  0  0  0  0
  -25.9062  -34.9435   23.5080 C   0  0  0  0  0  0
  -16.5354  -29.9069   23.6333 C   0  0  0  0  0  0
  -16.7280  -28.6495   23.0339 C   0  0  0  0  0  0
  -26.4507  -31.6577   25.0731 C   0  0  0  0  0  0
  -25.3715  -31.3747   26.1446 C   0  0  0  0  0  0
  -27.0355  -30.2984   24.6248 C   0  0  0  0  0  0
  -27.6050  -32.4318   25.7521 C   0  0  0  0  0  0
  -27.5580  -37.1804   24.8456 C   0  0  0  0  0  0
  -21.4229  -29.3045   22.3662 N   0  0  0  0  0  0
  -26.4290  -37.3765   23.9402 N   0  0  0  0  0  0
  -24.7015  -31.0487   22.0965 N   0  0  0  0  0  0
  -23.4215  -28.8115   23.3002 O   0  0  0  0  0  0
  -28.2816  -26.3101   20.2200 O   0  0  0  0  0  0
  -26.5619  -34.8914   22.4639 O   0  0  0  0  0  0
  -23.5495  -32.1360   23.7265 O   0  0  0  0  0  0
  -29.3621  -17.3852   18.8521 C   0  0  0  0  0  0
  -29.6824  -17.2119   20.1885 C   0  0  0  0  0  0
  -29.3180  -19.5864   20.1150 C   0  0  0  0  0  0
  -28.8530  -22.1570   19.8989 C   0  0  0  0  0  0
  -29.6281  -16.7308   16.3861 C   0  0  0  0  0  0
  -29.1551  -16.3417   17.7909 C   0  0  0  0  0  0
  -28.0044  -24.8339   20.0055 C   0  0  0  0  0  0
  -28.9279  -23.6171   20.5832 C   0  0  1  0  0  0
  -29.6210  -18.4846   20.8886 N   0  0  0  0  0  0
  -29.7962  -15.8549   20.7918 N   0  0  0  0  0  0
  -29.2161  -20.9964   20.5791 N   0  0  0  0  0  0
  -28.4566  -22.1033   18.7322 O   0  0  0  0  0  0
  -28.6326  -23.4707   21.9660 O   0  0  0  0  0  0
  -29.0480  -19.0761   18.4491 S   0  0  0  0  0  0
  -31.4838  -12.5888   19.1855 H   0  0  0  0  0  0
  -30.4115  -11.4787   19.9858 H   0  0  0  0  0  0
  -29.7892  -11.6340   17.5861 H   0  0  0  0  0  0
  -29.6764  -13.3583   17.6614 H   0  0  0  0  0  0
  -27.8595  -11.2868   18.8998 H   0  0  0  0  0  0
  -27.3954  -12.5498   17.7939 H   0  0  0  0  0  0
  -27.6490  -14.2544   19.4808 H   0  0  0  0  0  0
  -28.7217  -12.1416   21.4165 H   0  0  0  0  0  0
  -28.4168  -13.8074   21.8172 H   0  0  0  0  0  0
  -25.2773   -9.5696   22.4745 H   0  0  0  0  0  0
  -24.0019   -7.4641   22.7455 H   0  0  0  0  0  0
  -21.0861   -8.8789   19.8942 H   0  0  0  0  0  0
  -22.3719  -10.9678   19.6157 H   0  0  0  0  0  0
  -21.2016   -7.6148   23.9723 H   0  0  0  0  0  0
  -21.1480   -6.0509   25.9071 H   0  0  0  0  0  0
  -22.0602   -2.7620   23.2818 H   0  0  0  0  0  0
  -22.4081  -11.9909   22.4814 H   0  0  0  0  0  0
  -21.1066  -13.1243   22.2592 H   0  0  0  0  0  0
  -24.6702  -15.8536   20.5315 H   0  0  0  0  0  0
  -26.2832  -15.6266   20.0852 H   0  0  0  0  0  0
  -26.7234  -32.5385   23.1066 H   0  0  0  0  0  0
  -25.0146  -33.9677   25.0421 H   0  0  0  0  0  0
  -22.7292  -31.3005   21.3982 H   0  0  0  0  0  0
  -23.3762  -35.9612   23.3282 H   0  0  0  0  0  0
  -24.3588  -36.8920   22.2049 H   0  0  0  0  0  0
  -23.7262  -37.6483   23.6667 H   0  0  0  0  0  0
  -26.1233  -31.5245   20.6140 H   0  0  0  0  0  0
  -26.8555  -30.8065   22.0162 H   0  0  0  0  0  0
  -28.1171  -28.8949   21.2165 H   0  0  0  0  0  0
  -25.9269  -25.9154   18.9716 H   0  0  0  0  0  0
  -23.9631  -27.3227   18.9939 H   0  0  0  0  0  0
  -23.7851  -30.5951   19.4066 H   0  0  0  0  0  0
  -22.7671  -29.2569   19.8452 H   0  0  0  0  0  0
  -25.1313  -36.1892   25.0810 H   0  0  0  0  0  0
  -20.9979  -28.3269   24.1390 H   0  0  0  0  0  0
  -20.5705  -26.2295   23.3608 H   0  0  0  0  0  0
  -21.6658  -26.7445   22.1195 H   0  0  0  0  0  0
  -19.6935  -25.6274   21.1254 H   0  0  0  0  0  0
  -19.6711  -27.3168   20.6730 H   0  0  0  0  0  0
  -17.4220  -26.6663   21.4003 H   0  0  0  0  0  0
  -18.0336  -26.0062   22.9011 H   0  0  0  0  0  0
  -19.7940  -30.7286   24.2221 H   0  0  0  0  0  0
  -17.5012  -31.6253   24.5160 H   0  0  0  0  0  0
  -15.5351  -30.2954   23.7681 H   0  0  0  0  0  0
  -15.8682  -28.0813   22.7049 H   0  0  0  0  0  0
  -24.5894  -30.7086   25.7787 H   0  0  0  0  0  0
  -24.8901  -32.2924   26.4834 H   0  0  0  0  0  0
  -25.8025  -30.8957   27.0246 H   0  0  0  0  0  0
  -26.2949  -29.6726   24.1257 H   0  0  0  0  0  0
  -27.3994  -29.7259   25.4790 H   0  0  0  0  0  0
  -27.8845  -30.4235   23.9525 H   0  0  0  0  0  0
  -27.2644  -33.3619   26.2081 H   0  0  0  0  0  0
  -28.3882  -32.6873   25.0374 H   0  0  0  0  0  0
  -28.0689  -31.8452   26.5461 H   0  0  0  0  0  0
  -28.2590  -38.0112   24.7518 H   0  0  0  0  0  0
  -28.1090  -36.2644   24.6267 H   0  0  0  0  0  0
  -27.2296  -37.1434   25.8859 H   0  0  0  0  0  0
  -20.9416  -29.8768   21.6871 H   0  0  0  0  0  0
  -26.0164  -38.2835   24.1403 H   0  0  0  0  0  0
  -29.4976  -15.8928   15.7006 H   0  0  0  0  0  0
  -30.6855  -16.9956   16.3843 H   0  0  0  0  0  0
  -29.0598  -17.5696   15.9828 H   0  0  0  0  0  0
  -28.1013  -16.0606   17.7565 H   0  0  0  0  0  0
  -29.6960  -15.4432   18.0567 H   0  0  0  0  0  0
  -26.9962  -24.6129   20.3586 H   0  0  0  0  0  0
  -27.9640  -24.7120   18.9230 H   0  0  0  0  0  0
  -29.9695  -23.9259   20.4885 H   0  0  0  0  0  0
  -28.9830  -15.5920   21.3265 H   0  0  0  0  0  0
  -29.4547  -21.1604   21.5472 H   0  0  0  0  0  0
  -28.6958  -24.3372   22.3555 H   0  0  0  0  0  0
  1 25  1  0  0  0
  1 30  2  0  0  0
  1 80  1  0  0  0
  2  3  1  0  0  0
  2 25  1  0  0  0
  2 85  1  0  0  0
  2 86  1  0  0  0
  3  4  1  0  0  0
  3 87  1  0  0  0
  3 88  1  0  0  0
  4  5  1  0  0  0
  4 89  1  0  0  0
  4 90  1  0  0  0
  5  6  1  0  0  0
  5 26  1  0  0  0
  5 91  1  0  0  0
  6 25  1  0  0  0
  6 92  1  0  0  0
  6 93  1  0  0  0
  7  8  2  0  0  0
  7 26  1  0  0  0
  7 29  1  0  0  0
  8  9  1  0  0  0
  8 22  1  0  0  0
  9 10  1  0  0  0
  9 27  2  0  0  0
 10 11  2  0  0  0
 10 15  1  0  0  0
 11 12  1  0  0  0
 11 94  1  0  0  0
 12 13  2  0  0  0
 12 95  1  0  0  0
 13 14  1  0  0  0
 13 31  1  0  0  0
 14 15  2  0  0  0
 14 96  1  0  0  0
 15 97  1  0  0  0
 16 17  2  0  0  0
 16 21  1  0  0  0
 16 31  1  0  0  0
 17 18  1  0  0  0
 17 98  1  0  0  0
 18 19  2  0  0  0
 18 99  1  0  0  0
 19 20  1  0  0  0
 19 24  1  0  0  0
 20 21  2  0  0  0
 20100  1  0  0  0
 21 23  1  0  0  0
 22 28  1  0  0  0
 22 32  2  0  0  0
 26 27  1  0  0  0
 28101  1  0  0  0
 28102  1  0  0  0
 29103  1  0  0  0
 29104  1  0  0  0
 33 34  1  0  0  0
 33 66  1  0  0  0
 33 70  2  0  0  0
 34 36  1  0  0  0
 34 59  1  0  0  0
 34105  1  0  0  0
 35 44  2  0  0  0
 35 45  1  0  0  0
 35 68  1  0  0  0
 36 56  1  0  0  0
 36106  1  0  0  0
 37 39  1  0  0  0
 37 47  1  0  0  0
 37 66  1  0  0  0
 37107  1  0  0  0
 38 43  2  0  0  0
 38 46  1  0  0  0
 38 47  1  0  0  0
 39 64  1  0  0  0
 39 67  2  0  0  0
 40 52  1  0  0  0
 40 53  2  0  0  0
 40 58  1  0  0  0
 41108  1  0  0  0
 41109  1  0  0  0
 41110  1  0  0  0
 41 48  1  0  0  0
 42 43  1  0  0  0
 42 66  1  0  0  0
 42111  1  0  0  0
 42112  1  0  0  0
 43 44  1  0  0  0
 44113  1  0  0  0
 45 46  2  0  0  0
 45114  1  0  0  0
 46115  1  0  0  0
 47116  1  0  0  0
 47117  1  0  0  0
 48 56  1  0  0  0
 48 65  1  0  0  0
 48118  1  0  0  0
 49 50  1  0  0  0
 49 53  1  0  0  0
 49 64  1  0  0  0
 49119  1  0  0  0
 50 51  1  0  0  0
 50120  1  0  0  0
 50121  1  0  0  0
 51 52  1  0  0  0
 51122  1  0  0  0
 51123  1  0  0  0
 52124  1  0  0  0
 52125  1  0  0  0
 53 54  1  0  0  0
 54 55  2  0  0  0
 54126  1  0  0  0
 55 57  1  0  0  0
 55127  1  0  0  0
 56 69  2  0  0  0
 57 58  2  0  0  0
 57128  1  0  0  0
 58129  1  0  0  0
 59 60  1  0  0  0
 59 61  1  0  0  0
 59 62  1  0  0  0
 60130  1  0  0  0
 60131  1  0  0  0
 60132  1  0  0  0
 61133  1  0  0  0
 61134  1  0  0  0
 61135  1  0  0  0
 62136  1  0  0  0
 62137  1  0  0  0
 62138  1  0  0  0
 63 65  1  0  0  0
 63139  1  0  0  0
 63140  1  0  0  0
 63141  1  0  0  0
 64142  1  0  0  0
 65143  1  0  0  0
 68 77  1  0  0  0
 71 72  2  0  0  0
 71 76  1  0  0  0
 71 84  1  0  0  0
 72 79  1  0  0  0
 72 80  1  0  0  0
 73 79  2  0  0  0
 73 81  1  0  0  0
 73 84  1  0  0  0
 74 78  1  0  0  0
 74 81  1  0  0  0
 74 82  2  0  0  0
 75 76  1  0  0  0
 75144  1  0  0  0
 75145  1  0  0  0
 75146  1  0  0  0
 76147  1  0  0  0
 76148  1  0  0  0
 77 78  1  0  0  0
 77149  1  0  0  0
 77150  1  0  0  0
 78 83  1  0  0  0
 78151  1  0  0  0
 80152  1  0  0  0
 81153  1  0  0  0
 83154  1  0  0  0
M  ISO  4   1 100  68 101  77 101  80 100
M  END
> <chiral flag>
0

> <version>
0

> <s_m_source_file>
/data/baiqing/PycharmProjects/Reinvent-master-3.2/result/LINK_invent/BTK/process_docking_weight1_custom_product_contain_oxygen_bond_distance_aromatic_linkinvent_7_9_3/rearranged_h_0185.sdf

> <i_m_source_file_index>
24

> <r_mmod_Potential_Energy-OPLS-2005>
84.0289840698242

> <r_mmod_Stretch_Energy-OPLS-2005>
131.759094238281

> <r_mmod_Bend_Energy-OPLS-2005>
166.84309387207

> <r_mmod_Torsional_Energy-OPLS-2005>
237.967666625977

> <r_mmod_Improper_Torsional_Energy-OPLS-2005>
6.07483148574829

> <r_mmod_Van_der_Waal_Energy-OPLS-2005>
121.307739257812

> <r_mmod_Electrostatic_Energy-OPLS-2005>
-437.850189208984

> <r_mmod_Solvation_Energy-OPLS-2005>
-239.472671508789

> <b_mmod_Minimization_Converged-OPLS-2005>
0

> <r_mmod_RMS_Derivative-OPLS-2005>
2.02079200744629

$$$$
24
                    3D
 Structure written by MMmdl.
157165  0  0  1  0            999 V2000
  -30.5237  -15.1042   20.3776 C   0  0  0  0  0  0
  -30.4392  -12.6906   19.5171 C   0  0  0  0  0  0
  -29.5297  -12.5397   18.2744 C   0  0  0  0  0  0
  -28.0703  -12.2998   18.7002 C   0  0  0  0  0  0
  -27.6206  -13.2626   19.8280 C   0  0  2  0  0  0
  -28.6610  -13.3775   20.9630 C   0  0  0  0  0  0
  -25.2413  -13.8241   20.5694 C   0  0  0  0  0  0
  -24.1755  -13.0455   20.9246 C   0  0  0  0  0  0
  -24.6381  -11.6943   20.8764 C   0  0  0  0  0  0
  -23.9081  -10.4308   21.0426 C   0  0  0  0  0  0
  -24.3624   -9.4214   21.9196 C   0  0  0  0  0  0
  -23.6279   -8.2252   22.0776 C   0  0  0  0  0  0
  -22.4254   -8.0292   21.3566 C   0  0  0  0  0  0
  -21.9891   -9.0277   20.4669 C   0  0  0  0  0  0
  -22.7251  -10.2152   20.3077 C   0  0  0  0  0  0
  -21.6847   -6.0724   22.5273 C   0  0  0  0  0  0
  -21.4018   -6.5629   23.8209 C   0  0  0  0  0  0
  -21.3667   -5.6779   24.9162 C   0  0  0  0  0  0
  -21.6049   -4.3046   24.7216 C   0  0  0  0  0  0
  -21.8816   -3.8140   23.4337 C   0  0  0  0  0  0
  -21.9188   -4.6952   22.3392 C   0  0  0  0  0  0
  -22.7769  -13.5210   21.1867 C   0  0  0  0  0  0
  -22.1655   -4.2151   21.0972 F   0  0  0  0  0  0
  -21.5636   -3.4526   25.7730 F   0  0  0  0  0  0
  -29.9189  -13.8288   20.3485 N   0  0  0  0  0  0
  -26.2846  -12.9497   20.3211 N   0  0  0  0  0  0
  -25.9318  -11.6621   20.5720 N   0  0  0  0  0  0
  -22.0401  -12.8238   22.0446 N   0  0  0  0  0  0
  -25.4048  -15.1973   20.4077 N   0  0  0  0  0  0
  -31.7427  -15.0684   20.1538 O   0  0  0  0  0  0
  -21.6635   -6.8879   21.4241 O   0  0  0  0  0  0
  -22.3452  -14.5494   20.6676 O   0  0  0  0  0  0
  -24.6519  -31.8366   23.1818 C   0  0  0  0  0  0
  -25.9245  -32.4663   23.8242 C   0  0  1  0  0  0
  -27.2091  -27.0449   20.1571 C   0  0  0  0  0  0
  -25.5953  -33.8475   24.2146 N   0  0  0  0  0  0
  -23.4616  -30.4523   21.5303 C   0  0  2  0  0  0
  -24.9127  -28.8656   20.1112 C   0  0  0  0  0  0
  -22.7614  -29.4502   22.4842 C   0  0  0  0  0  0
  -18.0304  -28.1392   22.8473 C   0  0  0  0  0  0
  -24.1498  -36.7242   23.2644 C   0  0  0  0  0  0
  -26.0260  -30.6769   21.4001 C   0  0  0  0  0  0
  -26.0947  -29.2804   20.7384 C   0  0  0  0  0  0
  -27.2451  -28.3894   20.7400 C   0  0  0  0  0  0
  -26.0048  -26.7606   19.4785 C   0  0  0  0  0  0
  -24.8872  -27.6228   19.4622 C   0  0  0  0  0  0
  -23.6944  -29.7782   20.1521 C   0  0  0  0  0  0
  -25.4136  -36.3026   24.0311 C   0  0  1  0  0  0
  -20.5927  -28.3741   23.1211 C   0  0  2  0  0  0
  -20.6802  -26.9435   22.5406 C   0  0  0  0  0  0
  -19.5773  -26.6376   21.5219 C   0  0  0  0  0  0
  -18.1948  -26.7923   22.1620 C   0  0  0  0  0  0
  -19.1566  -28.8883   23.2827 C   0  0  0  0  0  0
  -18.9483  -30.1470   23.8870 C   0  0  0  0  0  0
  -17.6483  -30.6594   24.0552 C   0  0  0  0  0  0
  -25.9086  -34.9402   23.5048 C   0  0  0  0  0  0
  -16.5370  -29.9090   23.6341 C   0  0  0  0  0  0
  -16.7283  -28.6499   23.0374 C   0  0  0  0  0  0
  -26.4531  -31.6555   25.0724 C   0  0  0  0  0  0
  -25.3683  -31.3800   26.1400 C   0  0  0  0  0  0
  -27.0398  -30.2920   24.6407 C   0  0  0  0  0  0
  -27.6057  -32.4341   25.7493 C   0  0  0  0  0  0
  -27.5582  -37.1783   24.8465 C   0  0  0  0  0  0
  -21.4297  -29.3050   22.3581 N   0  0  0  0  0  0
  -26.4295  -37.3749   23.9401 N   0  0  0  0  0  0
  -24.7339  -31.0118   22.0909 N   0  0  0  0  0  0
  -23.4207  -28.8066   23.3045 O   0  0  0  0  0  0
  -28.2232  -25.9893   20.1997 O   0  0  0  0  0  0
  -26.5693  -34.8905   22.4641 O   0  0  0  0  0  0
  -23.5614  -32.1291   23.6975 O   0  0  0  0  0  0
  -31.7526  -19.3046   19.6154 C   0  0  0  0  0  0
  -30.9867  -20.4776   19.7944 C   0  0  0  0  0  0
  -29.6199  -20.3777   20.1855 C   0  0  0  0  0  0
  -30.0913  -17.8398   20.2526 C   0  0  0  0  0  0
  -28.8901  -23.1408   19.9851 C   0  0  0  0  0  0
  -28.5814  -24.9077   22.9143 C   0  0  0  0  0  0
  -26.1148  -24.8117   22.3132 C   0  0  0  0  0  0
  -27.8966  -24.4394   20.4677 C   0  0  1  0  0  0
  -27.5260  -24.2972   21.9747 C   0  0  0  0  0  0
  -31.3232  -18.0521   19.8281 N   0  0  0  0  0  0
  -29.2456  -18.9885   20.4213 N   0  0  0  0  0  0
  -31.6538  -21.6925   19.6131 N   0  0  0  0  0  0
  -28.8091  -21.7310   20.3838 N   0  0  0  0  0  0
  -29.7877  -16.3661   20.4694 N   0  0  0  0  0  0
  -29.7087  -23.4829   19.1275 O   0  0  0  0  0  0
  -31.4659  -12.8575   19.1869 H   0  0  0  0  0  0
  -30.4671  -11.7668   20.0983 H   0  0  0  0  0  0
  -29.8746  -11.7224   17.6388 H   0  0  0  0  0  0
  -29.5925  -13.4428   17.6656 H   0  0  0  0  0  0
  -27.9957  -11.2705   19.0528 H   0  0  0  0  0  0
  -27.4042  -12.3759   17.8402 H   0  0  0  0  0  0
  -27.5588  -14.2432   19.3560 H   0  0  0  0  0  0
  -28.7889  -12.4287   21.4869 H   0  0  0  0  0  0
  -28.3303  -14.1004   21.7114 H   0  0  0  0  0  0
  -25.2786   -9.5664   22.4752 H   0  0  0  0  0  0
  -23.9998   -7.4629   22.7472 H   0  0  0  0  0  0
  -21.0834   -8.8807   19.8949 H   0  0  0  0  0  0
  -22.3741  -10.9682   19.6170 H   0  0  0  0  0  0
  -21.2021   -7.6145   23.9709 H   0  0  0  0  0  0
  -21.1486   -6.0511   25.9071 H   0  0  0  0  0  0
  -22.0586   -2.7600   23.2829 H   0  0  0  0  0  0
  -22.3990  -11.9937   22.4923 H   0  0  0  0  0  0
  -21.1028  -13.1296   22.2609 H   0  0  0  0  0  0
  -24.6218  -15.8372   20.4926 H   0  0  0  0  0  0
  -26.2302  -15.6353   20.0213 H   0  0  0  0  0  0
  -26.7308  -32.5228   23.0957 H   0  0  0  0  0  0
  -25.0059  -33.9593   25.0266 H   0  0  0  0  0  0
  -22.7671  -31.2799   21.3682 H   0  0  0  0  0  0
  -23.3783  -35.9555   23.3324 H   0  0  0  0  0  0
  -24.3563  -36.8873   22.2055 H   0  0  0  0  0  0
  -23.7243  -37.6429   23.6687 H   0  0  0  0  0  0
  -26.2001  -31.4285   20.6297 H   0  0  0  0  0  0
  -26.8873  -30.7217   22.0546 H   0  0  0  0  0  0
  -28.1427  -28.7007   21.2564 H   0  0  0  0  0  0
  -25.8996  -25.8174   18.9643 H   0  0  0  0  0  0
  -23.9931  -27.3085   18.9411 H   0  0  0  0  0  0
  -23.8328  -30.5489   19.3933 H   0  0  0  0  0  0
  -22.8089  -29.2238   19.8389 H   0  0  0  0  0  0
  -25.1329  -36.1862   25.0806 H   0  0  0  0  0  0
  -20.9985  -28.3348   24.1345 H   0  0  0  0  0  0
  -20.5717  -26.2354   23.3640 H   0  0  0  0  0  0
  -21.6666  -26.7460   22.1196 H   0  0  0  0  0  0
  -19.6957  -25.6286   21.1264 H   0  0  0  0  0  0
  -19.6698  -27.3170   20.6738 H   0  0  0  0  0  0
  -17.4222  -26.6661   21.4020 H   0  0  0  0  0  0
  -18.0341  -26.0065   22.9016 H   0  0  0  0  0  0
  -19.7962  -30.7282   24.2234 H   0  0  0  0  0  0
  -17.5044  -31.6271   24.5158 H   0  0  0  0  0  0
  -15.5376  -30.2996   23.7680 H   0  0  0  0  0  0
  -15.8670  -28.0803   22.7137 H   0  0  0  0  0  0
  -24.5812  -30.7220   25.7693 H   0  0  0  0  0  0
  -24.8936  -32.3011   26.4786 H   0  0  0  0  0  0
  -25.7908  -30.8948   27.0206 H   0  0  0  0  0  0
  -26.3035  -29.6623   24.1397 H   0  0  0  0  0  0
  -27.3915  -29.7261   25.5044 H   0  0  0  0  0  0
  -27.8995  -30.4103   23.9811 H   0  0  0  0  0  0
  -27.2633  -33.3655   26.2014 H   0  0  0  0  0  0
  -28.3867  -32.6886   25.0316 H   0  0  0  0  0  0
  -28.0721  -31.8511   26.5444 H   0  0  0  0  0  0
  -28.2612  -38.0070   24.7506 H   0  0  0  0  0  0
  -28.1063  -36.2601   24.6305 H   0  0  0  0  0  0
  -27.2290  -37.1451   25.8864 H   0  0  0  0  0  0
  -20.9549  -29.8722   21.6698 H   0  0  0  0  0  0
  -26.0173  -38.2824   24.1385 H   0  0  0  0  0  0
  -32.7893  -19.3801   19.3212 H   0  0  0  0  0  0
  -28.2937  -24.7881   23.9599 H   0  0  0  0  0  0
  -28.7053  -25.9766   22.7380 H   0  0  0  0  0  0
  -29.5559  -24.4357   22.7841 H   0  0  0  0  0  0
  -25.8387  -24.5469   23.3346 H   0  0  0  0  0  0
  -25.3641  -24.3773   21.6502 H   0  0  0  0  0  0
  -26.0443  -25.8959   22.2418 H   0  0  0  0  0  0
  -26.9956  -24.2255   19.8951 H   0  0  0  0  0  0
  -27.4914  -23.2344   22.2094 H   0  0  0  0  0  0
  -32.5026  -21.7013   19.0534 H   0  0  0  0  0  0
  -31.0546  -22.5058   19.4233 H   0  0  0  0  0  0
  -28.0124  -21.5806   20.9812 H   0  0  0  0  0  0
  -28.8196  -16.2134   20.6951 H   0  0  0  0  0  0
  1 25  1  0  0  0
  1 30  2  0  0  0
  1 84  1  0  0  0
  2  3  1  0  0  0
  2 25  1  0  0  0
  2 86  1  0  0  0
  2 87  1  0  0  0
  3  4  1  0  0  0
  3 88  1  0  0  0
  3 89  1  0  0  0
  4  5  1  0  0  0
  4 90  1  0  0  0
  4 91  1  0  0  0
  5  6  1  0  0  0
  5 26  1  0  0  0
  5 92  1  0  0  0
  6 25  1  0  0  0
  6 93  1  0  0  0
  6 94  1  0  0  0
  7  8  2  0  0  0
  7 26  1  0  0  0
  7 29  1  0  0  0
  8  9  1  0  0  0
  8 22  1  0  0  0
  9 10  1  0  0  0
  9 27  2  0  0  0
 10 11  2  0  0  0
 10 15  1  0  0  0
 11 12  1  0  0  0
 11 95  1  0  0  0
 12 13  2  0  0  0
 12 96  1  0  0  0
 13 14  1  0  0  0
 13 31  1  0  0  0
 14 15  2  0  0  0
 14 97  1  0  0  0
 15 98  1  0  0  0
 16 17  2  0  0  0
 16 21  1  0  0  0
 16 31  1  0  0  0
 17 18  1  0  0  0
 17 99  1  0  0  0
 18 19  2  0  0  0
 18100  1  0  0  0
 19 20  1  0  0  0
 19 24  1  0  0  0
 20 21  2  0  0  0
 20101  1  0  0  0
 21 23  1  0  0  0
 22 28  1  0  0  0
 22 32  2  0  0  0
 26 27  1  0  0  0
 28102  1  0  0  0
 28103  1  0  0  0
 29104  1  0  0  0
 29105  1  0  0  0
 33 34  1  0  0  0
 33 66  1  0  0  0
 33 70  2  0  0  0
 34 36  1  0  0  0
 34 59  1  0  0  0
 34106  1  0  0  0
 35 44  2  0  0  0
 35 45  1  0  0  0
 35 68  1  0  0  0
 36 56  1  0  0  0
 36107  1  0  0  0
 37 39  1  0  0  0
 37 47  1  0  0  0
 37 66  1  0  0  0
 37108  1  0  0  0
 38 43  2  0  0  0
 38 46  1  0  0  0
 38 47  1  0  0  0
 39 64  1  0  0  0
 39 67  2  0  0  0
 40 52  1  0  0  0
 40 53  2  0  0  0
 40 58  1  0  0  0
 41109  1  0  0  0
 41110  1  0  0  0
 41111  1  0  0  0
 41 48  1  0  0  0
 42 43  1  0  0  0
 42 66  1  0  0  0
 42112  1  0  0  0
 42113  1  0  0  0
 43 44  1  0  0  0
 44114  1  0  0  0
 45 46  2  0  0  0
 45115  1  0  0  0
 46116  1  0  0  0
 47117  1  0  0  0
 47118  1  0  0  0
 48 56  1  0  0  0
 48 65  1  0  0  0
 48119  1  0  0  0
 49 50  1  0  0  0
 49 53  1  0  0  0
 49 64  1  0  0  0
 49120  1  0  0  0
 50 51  1  0  0  0
 50121  1  0  0  0
 50122  1  0  0  0
 51 52  1  0  0  0
 51123  1  0  0  0
 51124  1  0  0  0
 52125  1  0  0  0
 52126  1  0  0  0
 53 54  1  0  0  0
 54 55  2  0  0  0
 54127  1  0  0  0
 55 57  1  0  0  0
 55128  1  0  0  0
 56 69  2  0  0  0
 57 58  2  0  0  0
 57129  1  0  0  0
 58130  1  0  0  0
 59 60  1  0  0  0
 59 61  1  0  0  0
 59 62  1  0  0  0
 60131  1  0  0  0
 60132  1  0  0  0
 60133  1  0  0  0
 61134  1  0  0  0
 61135  1  0  0  0
 61136  1  0  0  0
 62137  1  0  0  0
 62138  1  0  0  0
 62139  1  0  0  0
 63 65  1  0  0  0
 63140  1  0  0  0
 63141  1  0  0  0
 63142  1  0  0  0
 64143  1  0  0  0
 65144  1  0  0  0
 68 78  1  0  0  0
 71 72  2  0  0  0
 71 80  1  0  0  0
 71145  1  0  0  0
 72 73  1  0  0  0
 72 82  1  0  0  0
 73 81  2  0  0  0
 73 83  1  0  0  0
 74 80  2  0  0  0
 74 81  1  0  0  0
 74 84  1  0  0  0
 75 78  1  0  0  0
 75 83  1  0  0  0
 75 85  2  0  0  0
 76146  1  0  0  0
 76147  1  0  0  0
 76148  1  0  0  0
 76 79  1  0  0  0
 77 79  1  0  0  0
 77149  1  0  0  0
 77150  1  0  0  0
 77151  1  0  0  0
 78 79  1  0  0  0
 78152  1  0  0  0
 79153  1  0  0  0
 82154  1  0  0  0
 82155  1  0  0  0
 83156  1  0  0  0
 84157  1  0  0  0
M  ISO  4   1 100  68 101  78 101  84 100
M  END
> <chiral flag>
0

> <version>
0

> <s_m_source_file>
/data/baiqing/PycharmProjects/Reinvent-master-3.2/result/LINK_invent/BTK/process_docking_weight1_custom_product_contain_oxygen_bond_distance_aromatic_linkinvent_7_9_3/rearranged_h_0185.sdf

> <i_m_source_file_index>
25

> <r_mmod_Potential_Energy-OPLS-2005>
420.31640625

> <r_mmod_Stretch_Energy-OPLS-2005>
399.876678466797

> <r_mmod_Bend_Energy-OPLS-2005>
319.684783935547

> <r_mmod_Torsional_Energy-OPLS-2005>
237.397552490234

> <r_mmod_Improper_Torsional_Energy-OPLS-2005>
8.75882053375244

> <r_mmod_Van_der_Waal_Energy-OPLS-2005>
148.846054077148

> <r_mmod_Electrostatic_Energy-OPLS-2005>
-723.177001953125

> <r_mmod_Solvation_Energy-OPLS-2005>
-270.628753662109

> <b_mmod_Minimization_Converged-OPLS-2005>
0

> <r_mmod_RMS_Derivative-OPLS-2005>
3.27448558807373

$$$$
25
                    3D
 Structure written by MMmdl.
153161  0  0  1  0            999 V2000
  -30.5861  -14.7367   20.4653 C   0  0  0  0  0  0
  -30.4417  -12.4484   19.4663 C   0  0  0  0  0  0
  -29.5118  -12.5083   18.2329 C   0  0  0  0  0  0
  -28.0368  -12.3309   18.6463 C   0  0  0  0  0  0
  -27.6449  -13.2222   19.8541 C   0  0  2  0  0  0
  -28.6905  -13.1324   20.9878 C   0  0  0  0  0  0
  -25.2526  -13.8168   20.5676 C   0  0  0  0  0  0
  -24.1812  -13.0429   20.9207 C   0  0  0  0  0  0
  -24.6391  -11.6904   20.8752 C   0  0  0  0  0  0
  -23.9062  -10.4289   21.0420 C   0  0  0  0  0  0
  -24.3617   -9.4200   21.9190 C   0  0  0  0  0  0
  -23.6292   -8.2236   22.0757 C   0  0  0  0  0  0
  -22.4275   -8.0277   21.3547 C   0  0  0  0  0  0
  -21.9910   -9.0250   20.4647 C   0  0  0  0  0  0
  -22.7236  -10.2132   20.3061 C   0  0  0  0  0  0
  -21.6850   -6.0734   22.5277 C   0  0  0  0  0  0
  -21.4012   -6.5639   23.8209 C   0  0  0  0  0  0
  -21.3660   -5.6791   24.9173 C   0  0  0  0  0  0
  -21.6048   -4.3054   24.7221 C   0  0  0  0  0  0
  -21.8821   -3.8145   23.4342 C   0  0  0  0  0  0
  -21.9193   -4.6963   22.3401 C   0  0  0  0  0  0
  -22.7834  -13.5219   21.1865 C   0  0  0  0  0  0
  -22.1663   -4.2149   21.0978 F   0  0  0  0  0  0
  -21.5632   -3.4538   25.7734 F   0  0  0  0  0  0
  -29.9933  -13.4948   20.4115 N   0  0  0  0  0  0
  -26.2949  -12.9358   20.3284 N   0  0  0  0  0  0
  -25.9319  -11.6508   20.5755 N   0  0  0  0  0  0
  -22.0480  -12.8211   22.0419 N   0  0  0  0  0  0
  -25.4207  -15.1890   20.4057 N   0  0  0  0  0  0
  -31.7764  -14.8627   20.1558 O   0  0  0  0  0  0
  -21.6642   -6.8875   21.4239 O   0  0  0  0  0  0
  -22.3525  -14.5527   20.6713 O   0  0  0  0  0  0
  -24.6298  -31.8564   23.2000 C   0  0  0  0  0  0
  -25.9133  -32.4755   23.8336 C   0  0  1  0  0  0
  -27.2190  -27.2677   20.1387 C   0  0  0  0  0  0
  -25.5935  -33.8559   24.2260 N   0  0  0  0  0  0
  -23.4257  -30.4790   21.5429 C   0  0  2  0  0  0
  -24.8732  -28.9204   20.1196 C   0  0  0  0  0  0
  -22.7489  -29.4613   22.4925 C   0  0  0  0  0  0
  -18.0289  -28.1383   22.8487 C   0  0  0  0  0  0
  -24.1488  -36.7283   23.2641 C   0  0  0  0  0  0
  -25.9706  -30.7685   21.3815 C   0  0  0  0  0  0
  -26.0424  -29.3876   20.7338 C   0  0  0  0  0  0
  -27.2186  -28.5727   20.7351 C   0  0  0  0  0  0
  -26.0411  -26.8794   19.4729 C   0  0  0  0  0  0
  -24.8763  -27.6718   19.4782 C   0  0  0  0  0  0
  -23.6449  -29.8092   20.1610 C   0  0  0  0  0  0
  -25.4115  -36.3068   24.0325 C   0  0  1  0  0  0
  -20.5892  -28.3693   23.1273 C   0  0  2  0  0  0
  -20.6776  -26.9412   22.5407 C   0  0  0  0  0  0
  -19.5749  -26.6383   21.5211 C   0  0  0  0  0  0
  -18.1932  -26.7929   22.1623 C   0  0  0  0  0  0
  -19.1542  -28.8857   23.2876 C   0  0  0  0  0  0
  -18.9464  -30.1460   23.8891 C   0  0  0  0  0  0
  -17.6462  -30.6585   24.0562 C   0  0  0  0  0  0
  -25.9059  -34.9439   23.5094 C   0  0  0  0  0  0
  -16.5354  -29.9080   23.6332 C   0  0  0  0  0  0
  -16.7276  -28.6497   23.0355 C   0  0  0  0  0  0
  -26.4506  -31.6578   25.0718 C   0  0  0  0  0  0
  -25.3730  -31.3722   26.1438 C   0  0  0  0  0  0
  -27.0357  -30.2995   24.6199 C   0  0  0  0  0  0
  -27.6061  -32.4323   25.7489 C   0  0  0  0  0  0
  -27.5578  -37.1796   24.8464 C   0  0  0  0  0  0
  -21.4200  -29.3042   22.3663 N   0  0  0  0  0  0
  -26.4288  -37.3768   23.9411 N   0  0  0  0  0  0
  -24.6942  -31.0535   22.0974 N   0  0  0  0  0  0
  -23.4191  -28.8166   23.3033 O   0  0  0  0  0  0
  -28.3343  -26.4090   20.0932 O   0  0  0  0  0  0
  -26.5628  -34.8916   22.4661 O   0  0  0  0  0  0
  -23.5451  -32.1394   23.7293 O   0  0  0  0  0  0
  -28.8483  -18.2149   20.4246 C   0  0  0  0  0  0
  -30.6874  -19.3316   20.4903 C   0  0  0  0  0  0
  -29.8928  -17.2883   20.5662 C   0  0  0  0  0  0
  -26.6870  -23.2482   19.9541 C   0  0  0  0  0  0
  -28.9703  -22.3012   20.6090 C   0  0  0  0  0  0
  -28.6032  -20.8310   20.0241 C   0  0  0  0  0  0
  -28.3452  -25.0621   20.7669 C   0  0  0  0  0  0
  -28.1802  -23.6124   20.0336 C   0  0  2  0  0  0
  -31.0705  -18.0430   20.6189 N   0  0  0  0  0  0
  -29.3625  -19.5455   20.3545 N   0  0  0  0  0  0
  -29.7375  -15.8185   20.6539 N   0  0  0  0  0  0
  -28.6131  -23.7709   18.7821 F   0  0  0  0  0  0
  -31.4803  -12.5875   19.1610 H   0  0  0  0  0  0
  -30.3970  -11.4657   19.9384 H   0  0  0  0  0  0
  -29.7919  -11.7400   17.5113 H   0  0  0  0  0  0
  -29.6369  -13.4651   17.7234 H   0  0  0  0  0  0
  -27.8912  -11.2805   18.9011 H   0  0  0  0  0  0
  -27.3802  -12.5316   17.7993 H   0  0  0  0  0  0
  -27.6430  -14.2462   19.4812 H   0  0  0  0  0  0
  -28.7248  -12.1246   21.4045 H   0  0  0  0  0  0
  -28.4248  -13.7910   21.8162 H   0  0  0  0  0  0
  -25.2763   -9.5675   22.4759 H   0  0  0  0  0  0
  -24.0001   -7.4627   22.7476 H   0  0  0  0  0  0
  -21.0840   -8.8767   19.8950 H   0  0  0  0  0  0
  -22.3694  -10.9674   19.6170 H   0  0  0  0  0  0
  -21.2002   -7.6147   23.9709 H   0  0  0  0  0  0
  -21.1484   -6.0527   25.9077 H   0  0  0  0  0  0
  -22.0601   -2.7606   23.2843 H   0  0  0  0  0  0
  -22.4105  -11.9876   22.4806 H   0  0  0  0  0  0
  -21.1097  -13.1236   22.2632 H   0  0  0  0  0  0
  -24.6420  -15.8324   20.4986 H   0  0  0  0  0  0
  -26.2438  -15.6228   20.0102 H   0  0  0  0  0  0
  -26.7197  -32.5408   23.1079 H   0  0  0  0  0  0
  -25.0077  -33.9702   25.0399 H   0  0  0  0  0  0
  -22.7207  -31.2998   21.3953 H   0  0  0  0  0  0
  -23.3748  -35.9616   23.3291 H   0  0  0  0  0  0
  -24.3578  -36.8918   22.2058 H   0  0  0  0  0  0
  -23.7245  -37.6479   23.6677 H   0  0  0  0  0  0
  -26.1077  -31.5241   20.6071 H   0  0  0  0  0  0
  -26.8499  -30.8215   22.0114 H   0  0  0  0  0  0
  -28.1190  -28.9324   21.2132 H   0  0  0  0  0  0
  -26.0246  -25.9658   18.9053 H   0  0  0  0  0  0
  -23.9918  -27.3203   18.9652 H   0  0  0  0  0  0
  -23.7706  -30.5831   19.4026 H   0  0  0  0  0  0
  -22.7631  -29.2426   19.8559 H   0  0  0  0  0  0
  -25.1297  -36.1910   25.0816 H   0  0  0  0  0  0
  -20.9987  -28.3267   24.1394 H   0  0  0  0  0  0
  -20.5667  -26.2304   23.3611 H   0  0  0  0  0  0
  -21.6643  -26.7431   22.1208 H   0  0  0  0  0  0
  -19.6907  -25.6292   21.1245 H   0  0  0  0  0  0
  -19.6685  -27.3188   20.6737 H   0  0  0  0  0  0
  -17.4202  -26.6683   21.4023 H   0  0  0  0  0  0
  -18.0325  -26.0065   22.9016 H   0  0  0  0  0  0
  -19.7937  -30.7282   24.2252 H   0  0  0  0  0  0
  -17.5013  -31.6265   24.5161 H   0  0  0  0  0  0
  -15.5355  -30.2978   23.7659 H   0  0  0  0  0  0
  -15.8677  -28.0814   22.7069 H   0  0  0  0  0  0
  -24.5903  -30.7073   25.7763 H   0  0  0  0  0  0
  -24.8923  -32.2890   26.4861 H   0  0  0  0  0  0
  -25.8052  -30.8896   27.0214 H   0  0  0  0  0  0
  -26.2937  -29.6730   24.1231 H   0  0  0  0  0  0
  -27.4051  -29.7266   25.4717 H   0  0  0  0  0  0
  -27.8813  -30.4265   23.9433 H   0  0  0  0  0  0
  -27.2665  -33.3628   26.2050 H   0  0  0  0  0  0
  -28.3878  -32.6877   25.0322 H   0  0  0  0  0  0
  -28.0719  -31.8455   26.5416 H   0  0  0  0  0  0
  -28.2592  -38.0098   24.7517 H   0  0  0  0  0  0
  -28.1082  -36.2630   24.6284 H   0  0  0  0  0  0
  -27.2297  -37.1432   25.8867 H   0  0  0  0  0  0
  -20.9387  -29.8753   21.6858 H   0  0  0  0  0  0
  -26.0159  -38.2838   24.1414 H   0  0  0  0  0  0
  -27.7852  -18.0382   20.3279 H   0  0  0  0  0  0
  -31.4015  -20.1425   20.4547 H   0  0  0  0  0  0
  -26.3076  -22.9565   20.9335 H   0  0  0  0  0  0
  -26.5066  -22.4230   19.2658 H   0  0  0  0  0  0
  -26.0686  -24.0665   19.6112 H   0  0  0  0  0  0
  -30.0383  -22.4701   20.4713 H   0  0  0  0  0  0
  -28.8252  -22.2685   21.6892 H   0  0  0  0  0  0
  -28.6149  -20.9091   18.9367 H   0  0  0  0  0  0
  -27.5628  -20.6292   20.2792 H   0  0  0  0  0  0
  -29.3288  -25.0343   21.2356 H   0  0  0  0  0  0
  -27.6580  -25.1044   21.6130 H   0  0  0  0  0  0
  -28.7877  -15.5194   20.8056 H   0  0  0  0  0  0
  1 25  1  0  0  0
  1 30  2  0  0  0
  1 81  1  0  0  0
  2  3  1  0  0  0
  2 25  1  0  0  0
  2 83  1  0  0  0
  2 84  1  0  0  0
  3  4  1  0  0  0
  3 85  1  0  0  0
  3 86  1  0  0  0
  4  5  1  0  0  0
  4 87  1  0  0  0
  4 88  1  0  0  0
  5  6  1  0  0  0
  5 26  1  0  0  0
  5 89  1  0  0  0
  6 25  1  0  0  0
  6 90  1  0  0  0
  6 91  1  0  0  0
  7  8  2  0  0  0
  7 26  1  0  0  0
  7 29  1  0  0  0
  8  9  1  0  0  0
  8 22  1  0  0  0
  9 10  1  0  0  0
  9 27  2  0  0  0
 10 11  2  0  0  0
 10 15  1  0  0  0
 11 12  1  0  0  0
 11 92  1  0  0  0
 12 13  2  0  0  0
 12 93  1  0  0  0
 13 14  1  0  0  0
 13 31  1  0  0  0
 14 15  2  0  0  0
 14 94  1  0  0  0
 15 95  1  0  0  0
 16 17  2  0  0  0
 16 21  1  0  0  0
 16 31  1  0  0  0
 17 18  1  0  0  0
 17 96  1  0  0  0
 18 19  2  0  0  0
 18 97  1  0  0  0
 19 20  1  0  0  0
 19 24  1  0  0  0
 20 21  2  0  0  0
 20 98  1  0  0  0
 21 23  1  0  0  0
 22 28  1  0  0  0
 22 32  2  0  0  0
 26 27  1  0  0  0
 28 99  1  0  0  0
 28100  1  0  0  0
 29101  1  0  0  0
 29102  1  0  0  0
 33 34  1  0  0  0
 33 66  1  0  0  0
 33 70  2  0  0  0
 34 36  1  0  0  0
 34 59  1  0  0  0
 34103  1  0  0  0
 35 44  2  0  0  0
 35 45  1  0  0  0
 35 68  1  0  0  0
 36 56  1  0  0  0
 36104  1  0  0  0
 37 39  1  0  0  0
 37 47  1  0  0  0
 37 66  1  0  0  0
 37105  1  0  0  0
 38 43  2  0  0  0
 38 46  1  0  0  0
 38 47  1  0  0  0
 39 64  1  0  0  0
 39 67  2  0  0  0
 40 52  1  0  0  0
 40 53  2  0  0  0
 40 58  1  0  0  0
 41106  1  0  0  0
 41107  1  0  0  0
 41108  1  0  0  0
 41 48  1  0  0  0
 42 43  1  0  0  0
 42 66  1  0  0  0
 42109  1  0  0  0
 42110  1  0  0  0
 43 44  1  0  0  0
 44111  1  0  0  0
 45 46  2  0  0  0
 45112  1  0  0  0
 46113  1  0  0  0
 47114  1  0  0  0
 47115  1  0  0  0
 48 56  1  0  0  0
 48 65  1  0  0  0
 48116  1  0  0  0
 49 50  1  0  0  0
 49 53  1  0  0  0
 49 64  1  0  0  0
 49117  1  0  0  0
 50 51  1  0  0  0
 50118  1  0  0  0
 50119  1  0  0  0
 51 52  1  0  0  0
 51120  1  0  0  0
 51121  1  0  0  0
 52122  1  0  0  0
 52123  1  0  0  0
 53 54  1  0  0  0
 54 55  2  0  0  0
 54124  1  0  0  0
 55 57  1  0  0  0
 55125  1  0  0  0
 56 69  2  0  0  0
 57 58  2  0  0  0
 57126  1  0  0  0
 58127  1  0  0  0
 59 60  1  0  0  0
 59 61  1  0  0  0
 59 62  1  0  0  0
 60128  1  0  0  0
 60129  1  0  0  0
 60130  1  0  0  0
 61131  1  0  0  0
 61132  1  0  0  0
 61133  1  0  0  0
 62134  1  0  0  0
 62135  1  0  0  0
 62136  1  0  0  0
 63 65  1  0  0  0
 63137  1  0  0  0
 63138  1  0  0  0
 63139  1  0  0  0
 64140  1  0  0  0
 65141  1  0  0  0
 68 77  1  0  0  0
 71 73  2  0  0  0
 71 80  1  0  0  0
 71142  1  0  0  0
 72 79  2  0  0  0
 72 80  1  0  0  0
 72143  1  0  0  0
 73 79  1  0  0  0
 73 81  1  0  0  0
 74144  1  0  0  0
 74145  1  0  0  0
 74146  1  0  0  0
 74 78  1  0  0  0
 75 76  1  0  0  0
 75 78  1  0  0  0
 75147  1  0  0  0
 75148  1  0  0  0
 76 80  1  0  0  0
 76149  1  0  0  0
 76150  1  0  0  0
 77 78  1  0  0  0
 77151  1  0  0  0
 77152  1  0  0  0
 78 82  1  0  0  0
 81153  1  0  0  0
M  ISO  4   1 100  68 101  77 101  81 100
M  END
> <chiral flag>
0

> <version>
0

> <s_m_source_file>
/data/baiqing/PycharmProjects/Reinvent-master-3.2/result/LINK_invent/BTK/process_docking_weight1_custom_product_contain_oxygen_bond_distance_aromatic_linkinvent_7_9_3/rearranged_h_0185.sdf

> <i_m_source_file_index>
26

> <r_mmod_Potential_Energy-OPLS-2005>
175.63850402832

> <r_mmod_Stretch_Energy-OPLS-2005>
119.790283203125

> <r_mmod_Bend_Energy-OPLS-2005>
194.554916381836

> <r_mmod_Torsional_Energy-OPLS-2005>
252.282806396484

> <r_mmod_Improper_Torsional_Energy-OPLS-2005>
6.56154918670654

> <r_mmod_Van_der_Waal_Energy-OPLS-2005>
112.365676879883

> <r_mmod_Electrostatic_Energy-OPLS-2005>
-344.571716308594

> <r_mmod_Solvation_Energy-OPLS-2005>
-241.939453125

> <b_mmod_Minimization_Converged-OPLS-2005>
0

> <r_mmod_RMS_Derivative-OPLS-2005>
0.76997298002243

$$$$
26
                    3D
 Structure written by MMmdl.
151159  0  0  1  0            999 V2000
  -30.5246  -14.9169   20.4293 C   0  0  0  0  0  0
  -30.4507  -12.5623   19.4943 C   0  0  0  0  0  0
  -29.5247  -12.5361   18.2540 C   0  0  0  0  0  0
  -28.0560  -12.3211   18.6705 C   0  0  0  0  0  0
  -27.6389  -13.2402   19.8493 C   0  0  2  0  0  0
  -28.6850  -13.2276   20.9866 C   0  0  0  0  0  0
  -25.2485  -13.8193   20.5672 C   0  0  0  0  0  0
  -24.1788  -13.0427   20.9185 C   0  0  0  0  0  0
  -24.6395  -11.6916   20.8737 C   0  0  0  0  0  0
  -23.9075  -10.4293   21.0404 C   0  0  0  0  0  0
  -24.3622   -9.4206   21.9186 C   0  0  0  0  0  0
  -23.6291   -8.2248   22.0754 C   0  0  0  0  0  0
  -22.4274   -8.0280   21.3539 C   0  0  0  0  0  0
  -21.9906   -9.0263   20.4648 C   0  0  0  0  0  0
  -22.7237  -10.2144   20.3061 C   0  0  0  0  0  0
  -21.6856   -6.0736   22.5273 C   0  0  0  0  0  0
  -21.4023   -6.5641   23.8204 C   0  0  0  0  0  0
  -21.3658   -5.6796   24.9168 C   0  0  0  0  0  0
  -21.6040   -4.3057   24.7219 C   0  0  0  0  0  0
  -21.8820   -3.8142   23.4343 C   0  0  0  0  0  0
  -21.9191   -4.6964   22.3396 C   0  0  0  0  0  0
  -22.7811  -13.5211   21.1850 C   0  0  0  0  0  0
  -22.1657   -4.2144   21.0976 F   0  0  0  0  0  0
  -21.5621   -3.4542   25.7734 F   0  0  0  0  0  0
  -29.9712  -13.6393   20.4026 N   0  0  0  0  0  0
  -26.2930  -12.9418   20.3284 N   0  0  0  0  0  0
  -25.9341  -11.6553   20.5769 N   0  0  0  0  0  0
  -22.0466  -12.8216   22.0427 N   0  0  0  0  0  0
  -25.4132  -15.1920   20.4091 N   0  0  0  0  0  0
  -31.7091  -15.0477   20.1010 O   0  0  0  0  0  0
  -21.6640   -6.8880   21.4234 O   0  0  0  0  0  0
  -22.3493  -14.5515   20.6695 O   0  0  0  0  0  0
  -24.6435  -31.8452   23.1894 C   0  0  0  0  0  0
  -25.9199  -32.4701   23.8292 C   0  0  1  0  0  0
  -27.2176  -27.1418   20.1461 C   0  0  0  0  0  0
  -25.5942  -33.8507   24.2199 N   0  0  0  0  0  0
  -23.4472  -30.4657   21.5357 C   0  0  2  0  0  0
  -24.8970  -28.8960   20.1118 C   0  0  0  0  0  0
  -22.7573  -29.4552   22.4862 C   0  0  0  0  0  0
  -18.0310  -28.1393   22.8481 C   0  0  0  0  0  0
  -24.1490  -36.7272   23.2639 C   0  0  0  0  0  0
  -26.0044  -30.7196   21.3890 C   0  0  0  0  0  0
  -26.0761  -29.3316   20.7308 C   0  0  0  0  0  0
  -27.2387  -28.4715   20.7313 C   0  0  0  0  0  0
  -26.0149  -26.8162   19.4780 C   0  0  0  0  0  0
  -24.8790  -27.6508   19.4700 C   0  0  0  0  0  0
  -23.6737  -29.7979   20.1549 C   0  0  0  0  0  0
  -25.4118  -36.3039   24.0313 C   0  0  1  0  0  0
  -20.5924  -28.3724   23.1237 C   0  0  2  0  0  0
  -20.6785  -26.9423   22.5409 C   0  0  0  0  0  0
  -19.5759  -26.6375   21.5219 C   0  0  0  0  0  0
  -18.1943  -26.7932   22.1630 C   0  0  0  0  0  0
  -19.1567  -28.8875   23.2853 C   0  0  0  0  0  0
  -18.9479  -30.1468   23.8883 C   0  0  0  0  0  0
  -17.6473  -30.6586   24.0561 C   0  0  0  0  0  0
  -25.9071  -34.9411   23.5068 C   0  0  0  0  0  0
  -16.5365  -29.9081   23.6332 C   0  0  0  0  0  0
  -16.7294  -28.6500   23.0358 C   0  0  0  0  0  0
  -26.4513  -31.6565   25.0731 C   0  0  0  0  0  0
  -25.3695  -31.3801   26.1435 C   0  0  0  0  0  0
  -27.0338  -30.2939   24.6321 C   0  0  0  0  0  0
  -27.6049  -32.4329   25.7506 C   0  0  0  0  0  0
  -27.5580  -37.1782   24.8453 C   0  0  0  0  0  0
  -21.4267  -29.3048   22.3604 N   0  0  0  0  0  0
  -26.4288  -37.3745   23.9407 N   0  0  0  0  0  0
  -24.7183  -31.0316   22.0925 N   0  0  0  0  0  0
  -23.4213  -28.8098   23.3011 O   0  0  0  0  0  0
  -28.2575  -26.1389   20.2011 O   0  0  0  0  0  0
  -26.5673  -34.8904   22.4657 O   0  0  0  0  0  0
  -23.5551  -32.1321   23.7117 O   0  0  0  0  0  0
  -30.4998  -18.5335   20.0746 C   0  0  0  0  0  0
  -29.5829  -17.5370   20.5746 C   0  0  0  0  0  0
  -28.9833  -20.5741   20.4780 C   0  0  0  0  0  0
  -30.2190  -19.9745   20.0246 C   0  0  0  0  0  0
  -28.3715  -18.1496   21.0179 C   0  0  0  0  0  0
  -28.0868  -19.5687   20.9733 C   0  0  0  0  0  0
  -28.9246  -23.3602   20.2475 C   0  0  0  0  0  0
  -27.3434  -24.5944   21.8928 C   0  0  0  0  0  0
  -27.8866  -24.6426   20.4524 C   0  0  1  0  0  0
  -28.4907  -22.0322   20.4792 N   0  0  0  0  0  0
  -29.6632  -16.0075   20.6794 N   0  0  0  0  0  0
  -30.0790  -23.5924   19.8836 O   0  0  0  0  0  0
  -31.1740  -20.7834   19.5073 F   0  0  0  0  0  0
  -27.4182  -17.3175   21.5069 F   0  0  0  0  0  0
  -26.5409  -20.0879   21.5588 Cl  0  0  0  0  0  0
  -31.4840  -12.7255   19.1850 H   0  0  0  0  0  0
  -30.4400  -11.5979   20.0057 H   0  0  0  0  0  0
  -29.8367  -11.7525   17.5614 H   0  0  0  0  0  0
  -29.6160  -13.4775   17.7110 H   0  0  0  0  0  0
  -27.9463  -11.2766   18.9620 H   0  0  0  0  0  0
  -27.3925  -12.4686   17.8176 H   0  0  0  0  0  0
  -27.6122  -14.2511   19.4414 H   0  0  0  0  0  0
  -28.7612  -12.2380   21.4390 H   0  0  0  0  0  0
  -28.3900  -13.9060   21.7890 H   0  0  0  0  0  0
  -25.2775   -9.5686   22.4757 H   0  0  0  0  0  0
  -23.9985   -7.4652   22.7489 H   0  0  0  0  0  0
  -21.0822   -8.8802   19.8974 H   0  0  0  0  0  0
  -22.3684  -10.9696   19.6181 H   0  0  0  0  0  0
  -21.2030   -7.6153   23.9709 H   0  0  0  0  0  0
  -21.1474   -6.0526   25.9070 H   0  0  0  0  0  0
  -22.0598   -2.7604   23.2849 H   0  0  0  0  0  0
  -22.4085  -11.9885   22.4822 H   0  0  0  0  0  0
  -21.1099  -13.1283   22.2657 H   0  0  0  0  0  0
  -24.6520  -15.8443   20.5556 H   0  0  0  0  0  0
  -26.2781  -15.6526   20.1595 H   0  0  0  0  0  0
  -26.7278  -32.5305   23.1035 H   0  0  0  0  0  0
  -25.0020  -33.9624   25.0300 H   0  0  0  0  0  0
  -22.7494  -31.2916   21.3824 H   0  0  0  0  0  0
  -23.3743  -35.9613   23.3293 H   0  0  0  0  0  0
  -24.3574  -36.8911   22.2053 H   0  0  0  0  0  0
  -23.7256  -37.6470   23.6683 H   0  0  0  0  0  0
  -26.1612  -31.4717   20.6147 H   0  0  0  0  0  0
  -26.8754  -30.7707   22.0306 H   0  0  0  0  0  0
  -28.1359  -28.8003   21.2374 H   0  0  0  0  0  0
  -25.9156  -25.8782   18.9554 H   0  0  0  0  0  0
  -23.9826  -27.3162   18.9667 H   0  0  0  0  0  0
  -23.8109  -30.5743   19.4019 H   0  0  0  0  0  0
  -22.7878  -29.2415   19.8433 H   0  0  0  0  0  0
  -25.1301  -36.1872   25.0806 H   0  0  0  0  0  0
  -21.0020  -28.3313   24.1357 H   0  0  0  0  0  0
  -20.5664  -26.2341   23.3632 H   0  0  0  0  0  0
  -21.6647  -26.7404   22.1212 H   0  0  0  0  0  0
  -19.6915  -25.6282   21.1258 H   0  0  0  0  0  0
  -19.6697  -27.3178   20.6744 H   0  0  0  0  0  0
  -17.4205  -26.6681   21.4039 H   0  0  0  0  0  0
  -18.0349  -26.0078   22.9034 H   0  0  0  0  0  0
  -19.7948  -30.7290   24.2251 H   0  0  0  0  0  0
  -17.5020  -31.6263   24.5168 H   0  0  0  0  0  0
  -15.5365  -30.2979   23.7650 H   0  0  0  0  0  0
  -15.8700  -28.0806   22.7089 H   0  0  0  0  0  0
  -24.5832  -30.7198   25.7765 H   0  0  0  0  0  0
  -24.8940  -32.3011   26.4823 H   0  0  0  0  0  0
  -25.7956  -30.8978   27.0239 H   0  0  0  0  0  0
  -26.2937  -29.6696   24.1299 H   0  0  0  0  0  0
  -27.3884  -29.7226   25.4911 H   0  0  0  0  0  0
  -27.8892  -30.4146   23.9672 H   0  0  0  0  0  0
  -27.2634  -33.3635   26.2060 H   0  0  0  0  0  0
  -28.3863  -32.6883   25.0334 H   0  0  0  0  0  0
  -28.0714  -31.8472   26.5438 H   0  0  0  0  0  0
  -28.2580  -38.0094   24.7489 H   0  0  0  0  0  0
  -28.1090  -36.2617   24.6274 H   0  0  0  0  0  0
  -27.2306  -37.1421   25.8860 H   0  0  0  0  0  0
  -20.9481  -29.8762   21.6780 H   0  0  0  0  0  0
  -26.0154  -38.2813   24.1412 H   0  0  0  0  0  0
  -31.4541  -18.1983   19.6967 H   0  0  0  0  0  0
  -27.0640  -23.5864   22.1998 H   0  0  0  0  0  0
  -26.4539  -25.2137   22.0043 H   0  0  0  0  0  0
  -28.0906  -24.9605   22.5962 H   0  0  0  0  0  0
  -27.0719  -24.3749   19.7845 H   0  0  0  0  0  0
  -27.5255  -22.0544   20.7780 H   0  0  0  0  0  0
  -28.7763  -15.6438   20.9963 H   0  0  0  0  0  0
  1 25  1  0  0  0
  1 30  2  0  0  0
  1 81  1  0  0  0
  2  3  1  0  0  0
  2 25  1  0  0  0
  2 86  1  0  0  0
  2 87  1  0  0  0
  3  4  1  0  0  0
  3 88  1  0  0  0
  3 89  1  0  0  0
  4  5  1  0  0  0
  4 90  1  0  0  0
  4 91  1  0  0  0
  5  6  1  0  0  0
  5 26  1  0  0  0
  5 92  1  0  0  0
  6 25  1  0  0  0
  6 93  1  0  0  0
  6 94  1  0  0  0
  7  8  2  0  0  0
  7 26  1  0  0  0
  7 29  1  0  0  0
  8  9  1  0  0  0
  8 22  1  0  0  0
  9 10  1  0  0  0
  9 27  2  0  0  0
 10 11  2  0  0  0
 10 15  1  0  0  0
 11 12  1  0  0  0
 11 95  1  0  0  0
 12 13  2  0  0  0
 12 96  1  0  0  0
 13 14  1  0  0  0
 13 31  1  0  0  0
 14 15  2  0  0  0
 14 97  1  0  0  0
 15 98  1  0  0  0
 16 17  2  0  0  0
 16 21  1  0  0  0
 16 31  1  0  0  0
 17 18  1  0  0  0
 17 99  1  0  0  0
 18 19  2  0  0  0
 18100  1  0  0  0
 19 20  1  0  0  0
 19 24  1  0  0  0
 20 21  2  0  0  0
 20101  1  0  0  0
 21 23  1  0  0  0
 22 28  1  0  0  0
 22 32  2  0  0  0
 26 27  1  0  0  0
 28102  1  0  0  0
 28103  1  0  0  0
 29104  1  0  0  0
 29105  1  0  0  0
 33 34  1  0  0  0
 33 66  1  0  0  0
 33 70  2  0  0  0
 34 36  1  0  0  0
 34 59  1  0  0  0
 34106  1  0  0  0
 35 44  2  0  0  0
 35 45  1  0  0  0
 35 68  1  0  0  0
 36 56  1  0  0  0
 36107  1  0  0  0
 37 39  1  0  0  0
 37 47  1  0  0  0
 37 66  1  0  0  0
 37108  1  0  0  0
 38 43  2  0  0  0
 38 46  1  0  0  0
 38 47  1  0  0  0
 39 64  1  0  0  0
 39 67  2  0  0  0
 40 52  1  0  0  0
 40 53  2  0  0  0
 40 58  1  0  0  0
 41109  1  0  0  0
 41110  1  0  0  0
 41111  1  0  0  0
 41 48  1  0  0  0
 42 43  1  0  0  0
 42 66  1  0  0  0
 42112  1  0  0  0
 42113  1  0  0  0
 43 44  1  0  0  0
 44114  1  0  0  0
 45 46  2  0  0  0
 45115  1  0  0  0
 46116  1  0  0  0
 47117  1  0  0  0
 47118  1  0  0  0
 48 56  1  0  0  0
 48 65  1  0  0  0
 48119  1  0  0  0
 49 50  1  0  0  0
 49 53  1  0  0  0
 49 64  1  0  0  0
 49120  1  0  0  0
 50 51  1  0  0  0
 50121  1  0  0  0
 50122  1  0  0  0
 51 52  1  0  0  0
 51123  1  0  0  0
 51124  1  0  0  0
 52125  1  0  0  0
 52126  1  0  0  0
 53 54  1  0  0  0
 54 55  2  0  0  0
 54127  1  0  0  0
 55 57  1  0  0  0
 55128  1  0  0  0
 56 69  2  0  0  0
 57 58  2  0  0  0
 57129  1  0  0  0
 58130  1  0  0  0
 59 60  1  0  0  0
 59 61  1  0  0  0
 59 62  1  0  0  0
 60131  1  0  0  0
 60132  1  0  0  0
 60133  1  0  0  0
 61134  1  0  0  0
 61135  1  0  0  0
 61136  1  0  0  0
 62137  1  0  0  0
 62138  1  0  0  0
 62139  1  0  0  0
 63 65  1  0  0  0
 63140  1  0  0  0
 63141  1  0  0  0
 63142  1  0  0  0
 64143  1  0  0  0
 65144  1  0  0  0
 68 79  1  0  0  0
 71 72  2  0  0  0
 71 74  1  0  0  0
 71145  1  0  0  0
 72 75  1  0  0  0
 72 81  1  0  0  0
 73 74  2  0  0  0
 73 76  1  0  0  0
 73 80  1  0  0  0
 74 83  1  0  0  0
 75 76  2  0  0  0
 75 84  1  0  0  0
 76 85  1  0  0  0
 77 79  1  0  0  0
 77 80  1  0  0  0
 77 82  2  0  0  0
 78146  1  0  0  0
 78147  1  0  0  0
 78148  1  0  0  0
 78 79  1  0  0  0
 79149  1  0  0  0
 80150  1  0  0  0
 81151  1  0  0  0
M  ISO  4   1 100  68 101  79 101  81 100
M  END
> <chiral flag>
0

> <version>
0

> <s_m_source_file>
/data/baiqing/PycharmProjects/Reinvent-master-3.2/result/LINK_invent/BTK/process_docking_weight1_custom_product_contain_oxygen_bond_distance_aromatic_linkinvent_7_9_3/rearranged_h_0185.sdf

> <i_m_source_file_index>
27

> <r_mmod_Potential_Energy-OPLS-2005>
390.106811523438

> <r_mmod_Stretch_Energy-OPLS-2005>
224.046478271484

> <r_mmod_Bend_Energy-OPLS-2005>
288.114562988281

> <r_mmod_Torsional_Energy-OPLS-2005>
231.214492797852

> <r_mmod_Improper_Torsional_Energy-OPLS-2005>
3.37328386306763

> <r_mmod_Van_der_Waal_Energy-OPLS-2005>
129.329299926758

> <r_mmod_Electrostatic_Energy-OPLS-2005>
-420.947570800781

> <r_mmod_Solvation_Energy-OPLS-2005>
-246.086685180664

> <b_mmod_Minimization_Converged-OPLS-2005>
0

> <r_mmod_RMS_Derivative-OPLS-2005>
1.55091214179993

$$$$
27
                    3D
 Structure written by MMmdl.
159167  0  0  1  0            999 V2000
  -30.5913  -14.7566   20.4349 C   0  0  0  0  0  0
  -30.4308  -12.4527   19.4918 C   0  0  0  0  0  0
  -29.5191  -12.4974   18.2460 C   0  0  0  0  0  0
  -28.0429  -12.3204   18.6514 C   0  0  0  0  0  0
  -27.6394  -13.2289   19.8441 C   0  0  2  0  0  0
  -28.6762  -13.1753   20.9872 C   0  0  0  0  0  0
  -25.2516  -13.8179   20.5683 C   0  0  0  0  0  0
  -24.1808  -13.0425   20.9205 C   0  0  0  0  0  0
  -24.6390  -11.6904   20.8721 C   0  0  0  0  0  0
  -23.9070  -10.4288   21.0387 C   0  0  0  0  0  0
  -24.3616   -9.4217   21.9176 C   0  0  0  0  0  0
  -23.6296   -8.2251   22.0746 C   0  0  0  0  0  0
  -22.4280   -8.0280   21.3541 C   0  0  0  0  0  0
  -21.9911   -9.0252   20.4645 C   0  0  0  0  0  0
  -22.7234  -10.2134   20.3046 C   0  0  0  0  0  0
  -21.6860   -6.0735   22.5284 C   0  0  0  0  0  0
  -21.4014   -6.5640   23.8218 C   0  0  0  0  0  0
  -21.3655   -5.6790   24.9182 C   0  0  0  0  0  0
  -21.6054   -4.3052   24.7233 C   0  0  0  0  0  0
  -21.8815   -3.8144   23.4352 C   0  0  0  0  0  0
  -21.9195   -4.6962   22.3409 C   0  0  0  0  0  0
  -22.7835  -13.5218   21.1880 C   0  0  0  0  0  0
  -22.1660   -4.2151   21.0985 F   0  0  0  0  0  0
  -21.5640   -3.4532   25.7746 F   0  0  0  0  0  0
  -29.9813  -13.5219   20.4149 N   0  0  0  0  0  0
  -26.2922  -12.9378   20.3222 N   0  0  0  0  0  0
  -25.9314  -11.6532   20.5709 N   0  0  0  0  0  0
  -22.0484  -12.8200   22.0433 N   0  0  0  0  0  0
  -25.4229  -15.1904   20.4119 N   0  0  0  0  0  0
  -31.7847  -14.8456   20.1340 O   0  0  0  0  0  0
  -21.6643   -6.8873   21.4245 O   0  0  0  0  0  0
  -22.3522  -14.5531   20.6740 O   0  0  0  0  0  0
  -24.6314  -31.8538   23.1931 C   0  0  0  0  0  0
  -25.9141  -32.4739   23.8296 C   0  0  1  0  0  0
  -27.2302  -27.2693   20.1253 C   0  0  0  0  0  0
  -25.5923  -33.8538   24.2205 N   0  0  0  0  0  0
  -23.4266  -30.4765   21.5355 C   0  0  2  0  0  0
  -24.8730  -28.9186   20.1041 C   0  0  0  0  0  0
  -22.7503  -29.4616   22.4889 C   0  0  0  0  0  0
  -18.0296  -28.1397   22.8468 C   0  0  0  0  0  0
  -24.1484  -36.7282   23.2648 C   0  0  0  0  0  0
  -25.9702  -30.7732   21.3686 C   0  0  0  0  0  0
  -26.0402  -29.3941   20.7126 C   0  0  0  0  0  0
  -27.2159  -28.5806   20.7114 C   0  0  0  0  0  0
  -26.0309  -26.8451   19.5161 C   0  0  0  0  0  0
  -24.8740  -27.6524   19.4941 C   0  0  0  0  0  0
  -23.6412  -29.8032   20.1519 C   0  0  0  0  0  0
  -25.4115  -36.3066   24.0314 C   0  0  1  0  0  0
  -20.5897  -28.3716   23.1247 C   0  0  2  0  0  0
  -20.6786  -26.9428   22.5405 C   0  0  0  0  0  0
  -19.5766  -26.6393   21.5203 C   0  0  0  0  0  0
  -18.1946  -26.7933   22.1613 C   0  0  0  0  0  0
  -19.1549  -28.8867   23.2859 C   0  0  0  0  0  0
  -18.9467  -30.1461   23.8892 C   0  0  0  0  0  0
  -17.6461  -30.6590   24.0552 C   0  0  0  0  0  0
  -25.9060  -34.9435   23.5070 C   0  0  0  0  0  0
  -16.5355  -29.9084   23.6319 C   0  0  0  0  0  0
  -16.7283  -28.6504   23.0341 C   0  0  0  0  0  0
  -26.4508  -31.6570   25.0695 C   0  0  0  0  0  0
  -25.3729  -31.3719   26.1414 C   0  0  0  0  0  0
  -27.0379  -30.2989   24.6203 C   0  0  0  0  0  0
  -27.6050  -32.4337   25.7464 C   0  0  0  0  0  0
  -27.5565  -37.1797   24.8465 C   0  0  0  0  0  0
  -21.4210  -29.3068   22.3646 N   0  0  0  0  0  0
  -26.4275  -37.3769   23.9415 N   0  0  0  0  0  0
  -24.6952  -31.0529   22.0885 N   0  0  0  0  0  0
  -23.4202  -28.8178   23.3005 O   0  0  0  0  0  0
  -28.3785  -26.4486   20.1943 O   0  0  0  0  0  0
  -26.5654  -34.8934   22.4653 O   0  0  0  0  0  0
  -23.5478  -32.1337   23.7260 O   0  0  0  0  0  0
  -29.3778  -18.4995   20.5417 C   0  0  0  0  0  0
  -29.3789  -19.7796   19.8262 C   0  0  0  0  0  0
  -29.8816  -17.2391   19.9861 C   0  0  0  0  0  0
  -29.8603  -19.7230   18.4874 C   0  0  0  0  0  0
  -30.3647  -17.3151   18.6563 C   0  0  0  0  0  0
  -30.3568  -18.5229   17.9368 C   0  0  0  0  0  0
  -29.2257  -22.3813   20.2054 C   0  0  0  0  0  0
  -28.3255  -23.9644   22.0231 C   0  0  0  0  0  0
  -28.2298  -24.9103   18.1800 C   0  0  0  0  0  0
  -28.2966  -23.6698   20.5079 C   0  0  1  0  0  0
  -28.5860  -25.0452   19.6735 C   0  0  2  0  0  0
  -29.7838  -20.8158   17.6205 N   0  0  0  0  0  0
  -28.7907  -21.0626   20.3332 N   0  0  0  0  0  0
  -29.8102  -15.8946   20.6383 N   0  0  0  0  0  0
  -30.4041  -22.6056   19.9197 O   0  0  0  0  0  0
  -30.7745  -16.2037   17.9985 F   0  0  0  0  0  0
  -30.7836  -18.5166   16.6483 F   0  0  0  0  0  0
  -31.4751  -12.5696   19.1989 H   0  0  0  0  0  0
  -30.3673  -11.4812   19.9833 H   0  0  0  0  0  0
  -29.8109  -11.7176   17.5413 H   0  0  0  0  0  0
  -29.6509  -13.4473   17.7240 H   0  0  0  0  0  0
  -27.9066  -11.2730   18.9235 H   0  0  0  0  0  0
  -27.3901  -12.4969   17.7957 H   0  0  0  0  0  0
  -27.6319  -14.2474   19.4554 H   0  0  0  0  0  0
  -28.7098  -12.1839   21.4403 H   0  0  0  0  0  0
  -28.4030  -13.8677   21.7856 H   0  0  0  0  0  0
  -25.2764   -9.5710   22.4750 H   0  0  0  0  0  0
  -24.0023   -7.4637   22.7447 H   0  0  0  0  0  0
  -21.0854   -8.8748   19.8944 H   0  0  0  0  0  0
  -22.3671  -10.9666   19.6153 H   0  0  0  0  0  0
  -21.1988   -7.6144   23.9727 H   0  0  0  0  0  0
  -21.1492   -6.0519   25.9090 H   0  0  0  0  0  0
  -22.0599   -2.7609   23.2852 H   0  0  0  0  0  0
  -22.4076  -11.9852   22.4824 H   0  0  0  0  0  0
  -21.1104  -13.1223   22.2634 H   0  0  0  0  0  0
  -24.6556  -15.8444   20.5235 H   0  0  0  0  0  0
  -26.2703  -15.6311   20.0768 H   0  0  0  0  0  0
  -26.7233  -32.5397   23.1064 H   0  0  0  0  0  0
  -25.0055  -33.9661   25.0341 H   0  0  0  0  0  0
  -22.7234  -31.2993   21.3865 H   0  0  0  0  0  0
  -23.3740  -35.9613   23.3309 H   0  0  0  0  0  0
  -24.3580  -36.8920   22.2068 H   0  0  0  0  0  0
  -23.7245  -37.6478   23.6687 H   0  0  0  0  0  0
  -26.1090  -31.5339   20.5985 H   0  0  0  0  0  0
  -26.8468  -30.8201   22.0036 H   0  0  0  0  0  0
  -28.1098  -28.9475   21.1961 H   0  0  0  0  0  0
  -25.9507  -25.8658   19.0801 H   0  0  0  0  0  0
  -23.9794  -27.2743   19.0187 H   0  0  0  0  0  0
  -23.7540  -30.5725   19.3866 H   0  0  0  0  0  0
  -22.7623  -29.2272   19.8571 H   0  0  0  0  0  0
  -25.1305  -36.1886   25.0798 H   0  0  0  0  0  0
  -20.9996  -28.3305   24.1362 H   0  0  0  0  0  0
  -20.5652  -26.2345   23.3621 H   0  0  0  0  0  0
  -21.6660  -26.7448   22.1212 H   0  0  0  0  0  0
  -19.6915  -25.6299   21.1242 H   0  0  0  0  0  0
  -19.6674  -27.3203   20.6725 H   0  0  0  0  0  0
  -17.4207  -26.6676   21.4022 H   0  0  0  0  0  0
  -18.0345  -26.0075   22.9015 H   0  0  0  0  0  0
  -19.7950  -30.7281   24.2261 H   0  0  0  0  0  0
  -17.5019  -31.6262   24.5187 H   0  0  0  0  0  0
  -15.5355  -30.2986   23.7644 H   0  0  0  0  0  0
  -15.8691  -28.0830   22.7044 H   0  0  0  0  0  0
  -24.5888  -30.7088   25.7734 H   0  0  0  0  0  0
  -24.8943  -32.2894   26.4849 H   0  0  0  0  0  0
  -25.8036  -30.8880   27.0190 H   0  0  0  0  0  0
  -26.2973  -29.6692   24.1255 H   0  0  0  0  0  0
  -27.4094  -29.7294   25.4736 H   0  0  0  0  0  0
  -27.8823  -30.4270   23.9427 H   0  0  0  0  0  0
  -27.2632  -33.3641   26.2019 H   0  0  0  0  0  0
  -28.3850  -32.6899   25.0278 H   0  0  0  0  0  0
  -28.0727  -31.8484   26.5399 H   0  0  0  0  0  0
  -28.2595  -38.0089   24.7509 H   0  0  0  0  0  0
  -28.1050  -36.2616   24.6279 H   0  0  0  0  0  0
  -27.2295  -37.1442   25.8876 H   0  0  0  0  0  0
  -20.9398  -29.8807   21.6863 H   0  0  0  0  0  0
  -26.0139  -38.2832   24.1410 H   0  0  0  0  0  0
  -28.9674  -18.4818   21.5413 H   0  0  0  0  0  0
  -29.0615  -23.3642   22.5591 H   0  0  0  0  0  0
  -27.3517  -23.7622   22.4706 H   0  0  0  0  0  0
  -28.5631  -25.0065   22.2339 H   0  0  0  0  0  0
  -28.8708  -24.1748   17.6933 H   0  0  0  0  0  0
  -28.3563  -25.8526   17.6485 H   0  0  0  0  0  0
  -27.2084  -24.5684   18.0257 H   0  0  0  0  0  0
  -27.2767  -23.3708   20.2615 H   0  0  0  0  0  0
  -29.6758  -25.0728   19.6538 H   0  0  0  0  0  0
  -29.1956  -21.6047   17.8537 H   0  0  0  0  0  0
  -29.9537  -20.6791   16.6309 H   0  0  0  0  0  0
  -27.9029  -20.9629   20.8062 H   0  0  0  0  0  0
  -28.9415  -15.7082   21.1150 H   0  0  0  0  0  0
  1 25  1  0  0  0
  1 30  2  0  0  0
  1 84  1  0  0  0
  2  3  1  0  0  0
  2 25  1  0  0  0
  2 88  1  0  0  0
  2 89  1  0  0  0
  3  4  1  0  0  0
  3 90  1  0  0  0
  3 91  1  0  0  0
  4  5  1  0  0  0
  4 92  1  0  0  0
  4 93  1  0  0  0
  5  6  1  0  0  0
  5 26  1  0  0  0
  5 94  1  0  0  0
  6 25  1  0  0  0
  6 95  1  0  0  0
  6 96  1  0  0  0
  7  8  2  0  0  0
  7 26  1  0  0  0
  7 29  1  0  0  0
  8  9  1  0  0  0
  8 22  1  0  0  0
  9 10  1  0  0  0
  9 27  2  0  0  0
 10 11  2  0  0  0
 10 15  1  0  0  0
 11 12  1  0  0  0
 11 97  1  0  0  0
 12 13  2  0  0  0
 12 98  1  0  0  0
 13 14  1  0  0  0
 13 31  1  0  0  0
 14 15  2  0  0  0
 14 99  1  0  0  0
 15100  1  0  0  0
 16 17  2  0  0  0
 16 21  1  0  0  0
 16 31  1  0  0  0
 17 18  1  0  0  0
 17101  1  0  0  0
 18 19  2  0  0  0
 18102  1  0  0  0
 19 20  1  0  0  0
 19 24  1  0  0  0
 20 21  2  0  0  0
 20103  1  0  0  0
 21 23  1  0  0  0
 22 28  1  0  0  0
 22 32  2  0  0  0
 26 27  1  0  0  0
 28104  1  0  0  0
 28105  1  0  0  0
 29106  1  0  0  0
 29107  1  0  0  0
 33 34  1  0  0  0
 33 66  1  0  0  0
 33 70  2  0  0  0
 34 36  1  0  0  0
 34 59  1  0  0  0
 34108  1  0  0  0
 35 44  2  0  0  0
 35 45  1  0  0  0
 35 68  1  0  0  0
 36 56  1  0  0  0
 36109  1  0  0  0
 37 39  1  0  0  0
 37 47  1  0  0  0
 37 66  1  0  0  0
 37110  1  0  0  0
 38 43  2  0  0  0
 38 46  1  0  0  0
 38 47  1  0  0  0
 39 64  1  0  0  0
 39 67  2  0  0  0
 40 52  1  0  0  0
 40 53  2  0  0  0
 40 58  1  0  0  0
 41111  1  0  0  0
 41112  1  0  0  0
 41113  1  0  0  0
 41 48  1  0  0  0
 42 43  1  0  0  0
 42 66  1  0  0  0
 42114  1  0  0  0
 42115  1  0  0  0
 43 44  1  0  0  0
 44116  1  0  0  0
 45 46  2  0  0  0
 45117  1  0  0  0
 46118  1  0  0  0
 47119  1  0  0  0
 47120  1  0  0  0
 48 56  1  0  0  0
 48 65  1  0  0  0
 48121  1  0  0  0
 49 50  1  0  0  0
 49 53  1  0  0  0
 49 64  1  0  0  0
 49122  1  0  0  0
 50 51  1  0  0  0
 50123  1  0  0  0
 50124  1  0  0  0
 51 52  1  0  0  0
 51125  1  0  0  0
 51126  1  0  0  0
 52127  1  0  0  0
 52128  1  0  0  0
 53 54  1  0  0  0
 54 55  2  0  0  0
 54129  1  0  0  0
 55 57  1  0  0  0
 55130  1  0  0  0
 56 69  2  0  0  0
 57 58  2  0  0  0
 57131  1  0  0  0
 58132  1  0  0  0
 59 60  1  0  0  0
 59 61  1  0  0  0
 59 62  1  0  0  0
 60133  1  0  0  0
 60134  1  0  0  0
 60135  1  0  0  0
 61136  1  0  0  0
 61137  1  0  0  0
 61138  1  0  0  0
 62139  1  0  0  0
 62140  1  0  0  0
 62141  1  0  0  0
 63 65  1  0  0  0
 63142  1  0  0  0
 63143  1  0  0  0
 63144  1  0  0  0
 64145  1  0  0  0
 65146  1  0  0  0
 68 81  1  0  0  0
 71 72  2  0  0  0
 71 73  1  0  0  0
 71147  1  0  0  0
 72 74  1  0  0  0
 72 83  1  0  0  0
 73 75  2  0  0  0
 73 84  1  0  0  0
 74 76  2  0  0  0
 74 82  1  0  0  0
 75 76  1  0  0  0
 75 86  1  0  0  0
 76 87  1  0  0  0
 77 80  1  0  0  0
 77 83  1  0  0  0
 77 85  2  0  0  0
 78148  1  0  0  0
 78149  1  0  0  0
 78150  1  0  0  0
 78 80  1  0  0  0
 79151  1  0  0  0
 79152  1  0  0  0
 79153  1  0  0  0
 79 81  1  0  0  0
 80 81  1  0  0  0
 80154  1  0  0  0
 81155  1  0  0  0
 82156  1  0  0  0
 82157  1  0  0  0
 83158  1  0  0  0
 84159  1  0  0  0
M  ISO  4   1 100  68 101  81 101  84 100
M  END
> <chiral flag>
0

> <version>
0

> <s_m_source_file>
/data/baiqing/PycharmProjects/Reinvent-master-3.2/result/LINK_invent/BTK/process_docking_weight1_custom_product_contain_oxygen_bond_distance_aromatic_linkinvent_7_9_3/rearranged_h_0185.sdf

> <i_m_source_file_index>
28

> <r_mmod_Potential_Energy-OPLS-2005>
189.259323120117

> <r_mmod_Stretch_Energy-OPLS-2005>
141.410827636719

> <r_mmod_Bend_Energy-OPLS-2005>
205.415618896484

> <r_mmod_Torsional_Energy-OPLS-2005>
266.335388183594

> <r_mmod_Improper_Torsional_Energy-OPLS-2005>
7.87936162948608

> <r_mmod_Van_der_Waal_Energy-OPLS-2005>
149.743011474609

> <r_mmod_Electrostatic_Energy-OPLS-2005>
-417.782501220703

> <r_mmod_Solvation_Energy-OPLS-2005>
-246.808380126953

> <b_mmod_Minimization_Converged-OPLS-2005>
0

> <r_mmod_RMS_Derivative-OPLS-2005>
2.32578134536743

$$$$
28
                    3D
 Structure written by MMmdl.
150158  0  0  1  0            999 V2000
  -30.4935  -15.0276   20.4087 C   0  0  0  0  0  0
  -30.4475  -12.6387   19.5027 C   0  0  0  0  0  0
  -29.5272  -12.5436   18.2616 C   0  0  0  0  0  0
  -28.0625  -12.3132   18.6799 C   0  0  0  0  0  0
  -27.6278  -13.2504   19.8361 C   0  0  2  0  0  0
  -28.6702  -13.2984   20.9737 C   0  0  0  0  0  0
  -25.2456  -13.8214   20.5711 C   0  0  0  0  0  0
  -24.1782  -13.0435   20.9243 C   0  0  0  0  0  0
  -24.6403  -11.6921   20.8759 C   0  0  0  0  0  0
  -23.9086  -10.4289   21.0407 C   0  0  0  0  0  0
  -24.3631   -9.4203   21.9186 C   0  0  0  0  0  0
  -23.6300   -8.2241   22.0754 C   0  0  0  0  0  0
  -22.4281   -8.0282   21.3543 C   0  0  0  0  0  0
  -21.9923   -9.0258   20.4647 C   0  0  0  0  0  0
  -22.7257  -10.2135   20.3057 C   0  0  0  0  0  0
  -21.6857   -6.0738   22.5280 C   0  0  0  0  0  0
  -21.4016   -6.5641   23.8213 C   0  0  0  0  0  0
  -21.3659   -5.6793   24.9175 C   0  0  0  0  0  0
  -21.6044   -4.3056   24.7226 C   0  0  0  0  0  0
  -21.8818   -3.8149   23.4347 C   0  0  0  0  0  0
  -21.9194   -4.6965   22.3403 C   0  0  0  0  0  0
  -22.7801  -13.5207   21.1892 C   0  0  0  0  0  0
  -22.1661   -4.2152   21.0981 F   0  0  0  0  0  0
  -21.5628   -3.4538   25.7740 F   0  0  0  0  0  0
  -29.9367  -13.7412   20.3731 N   0  0  0  0  0  0
  -26.2878  -12.9446   20.3230 N   0  0  0  0  0  0
  -25.9334  -11.6575   20.5733 N   0  0  0  0  0  0
  -22.0451  -12.8190   22.0442 N   0  0  0  0  0  0
  -25.4104  -15.1944   20.4105 N   0  0  0  0  0  0
  -31.7030  -15.1031   20.1543 O   0  0  0  0  0  0
  -21.6642   -6.8881   21.4242 O   0  0  0  0  0  0
  -22.3484  -14.5508   20.6730 O   0  0  0  0  0  0
  -24.6501  -31.8392   23.1834 C   0  0  0  0  0  0
  -25.9246  -32.4672   23.8247 C   0  0  1  0  0  0
  -27.2167  -27.0709   20.1517 C   0  0  0  0  0  0
  -25.5967  -33.8480   24.2156 N   0  0  0  0  0  0
  -23.4564  -30.4574   21.5313 C   0  0  2  0  0  0
  -24.9059  -28.8759   20.1105 C   0  0  0  0  0  0
  -22.7601  -29.4524   22.4839 C   0  0  0  0  0  0
  -18.0313  -28.1395   22.8478 C   0  0  0  0  0  0
  -24.1492  -36.7240   23.2642 C   0  0  0  0  0  0
  -26.0186  -30.6913   21.3927 C   0  0  0  0  0  0
  -26.0880  -29.2975   20.7317 C   0  0  0  0  0  0
  -27.2414  -28.4133   20.7333 C   0  0  0  0  0  0
  -25.9996  -26.7689   19.4975 C   0  0  0  0  0  0
  -24.8787  -27.6264   19.4778 C   0  0  0  0  0  0
  -23.6863  -29.7861   20.1520 C   0  0  0  0  0  0
  -25.4129  -36.3016   24.0308 C   0  0  1  0  0  0
  -20.5930  -28.3733   23.1219 C   0  0  2  0  0  0
  -20.6795  -26.9430   22.5400 C   0  0  0  0  0  0
  -19.5766  -26.6376   21.5212 C   0  0  0  0  0  0
  -18.1949  -26.7932   22.1623 C   0  0  0  0  0  0
  -19.1571  -28.8883   23.2840 C   0  0  0  0  0  0
  -18.9482  -30.1474   23.8870 C   0  0  0  0  0  0
  -17.6476  -30.6592   24.0556 C   0  0  0  0  0  0
  -25.9086  -34.9397   23.5045 C   0  0  0  0  0  0
  -16.5369  -29.9079   23.6340 C   0  0  0  0  0  0
  -16.7295  -28.6497   23.0367 C   0  0  0  0  0  0
  -26.4539  -31.6565   25.0719 C   0  0  0  0  0  0
  -25.3693  -31.3779   26.1391 C   0  0  0  0  0  0
  -27.0416  -30.2951   24.6355 C   0  0  0  0  0  0
  -27.6054  -32.4348   25.7513 C   0  0  0  0  0  0
  -27.5576  -37.1778   24.8466 C   0  0  0  0  0  0
  -21.4286  -29.3051   22.3588 N   0  0  0  0  0  0
  -26.4288  -37.3736   23.9407 N   0  0  0  0  0  0
  -24.7290  -31.0185   22.0903 N   0  0  0  0  0  0
  -23.4216  -28.8078   23.3018 O   0  0  0  0  0  0
  -28.2491  -26.0391   20.2395 O   0  0  0  0  0  0
  -26.5678  -34.8904   22.4628 O   0  0  0  0  0  0
  -23.5603  -32.1301   23.7008 O   0  0  0  0  0  0
  -30.5653  -19.9939   20.4090 C   0  0  0  0  0  0
  -29.2463  -20.4933   20.3074 C   0  0  0  0  0  0
  -29.7004  -17.7351   20.4420 C   0  0  0  0  0  0
  -31.7360  -20.8982   20.3732 C   0  0  0  0  0  0
  -28.9269  -23.2080   20.4049 C   0  0  0  0  0  0
  -28.1884  -24.4957   18.2963 C   0  0  0  0  0  0
  -28.0295  -24.5196   19.8286 C   0  0  2  0  0  0
  -30.7813  -18.5467   20.4942 N   0  0  0  0  0  0
  -32.9271  -20.5007   20.5458 N   0  0  0  0  0  0
  -28.6478  -21.8223   20.1174 N   0  0  0  0  0  0
  -29.6430  -16.1798   20.5233 N   0  0  0  0  0  0
  -29.8805  -23.4781   21.1370 O   0  0  0  0  0  0
  -28.2861  -18.9217   20.3042 S   0  0  0  0  0  0
  -31.4765  -12.8174   19.1870 H   0  0  0  0  0  0
  -30.4632  -11.6929   20.0470 H   0  0  0  0  0  0
  -29.8597  -11.7411   17.6019 H   0  0  0  0  0  0
  -29.6007  -13.4657   17.6830 H   0  0  0  0  0  0
  -27.9706  -11.2736   18.9961 H   0  0  0  0  0  0
  -27.3982  -12.4309   17.8231 H   0  0  0  0  0  0
  -27.5820  -14.2471   19.3973 H   0  0  0  0  0  0
  -28.7771  -12.3233   21.4516 H   0  0  0  0  0  0
  -28.3552  -13.9910   21.7555 H   0  0  0  0  0  0
  -25.2775   -9.5679   22.4765 H   0  0  0  0  0  0
  -24.0009   -7.4632   22.7471 H   0  0  0  0  0  0
  -21.0857   -8.8779   19.8952 H   0  0  0  0  0  0
  -22.3716  -10.9674   19.6168 H   0  0  0  0  0  0
  -21.2006   -7.6150   23.9718 H   0  0  0  0  0  0
  -21.1482   -6.0523   25.9078 H   0  0  0  0  0  0
  -22.0597   -2.7612   23.2848 H   0  0  0  0  0  0
  -22.4075  -11.9856   22.4833 H   0  0  0  0  0  0
  -21.1062  -13.1201   22.2639 H   0  0  0  0  0  0
  -24.6312  -15.8363   20.5083 H   0  0  0  0  0  0
  -26.2302  -15.6311   20.0120 H   0  0  0  0  0  0
  -26.7314  -32.5250   23.0972 H   0  0  0  0  0  0
  -25.0090  -33.9593   25.0286 H   0  0  0  0  0  0
  -22.7621  -31.2857   21.3737 H   0  0  0  0  0  0
  -23.3767  -35.9559   23.3289 H   0  0  0  0  0  0
  -24.3570  -36.8891   22.2059 H   0  0  0  0  0  0
  -23.7238  -37.6423   23.6697 H   0  0  0  0  0  0
  -26.1842  -31.4434   20.6202 H   0  0  0  0  0  0
  -26.8849  -30.7407   22.0408 H   0  0  0  0  0  0
  -28.1385  -28.7331   21.2447 H   0  0  0  0  0  0
  -25.8584  -25.8129   19.0201 H   0  0  0  0  0  0
  -23.9750  -27.2940   18.9851 H   0  0  0  0  0  0
  -23.8293  -30.5605   19.3976 H   0  0  0  0  0  0
  -22.7987  -29.2336   19.8383 H   0  0  0  0  0  0
  -25.1320  -36.1835   25.0800 H   0  0  0  0  0  0
  -21.0024  -28.3323   24.1340 H   0  0  0  0  0  0
  -20.5687  -26.2348   23.3625 H   0  0  0  0  0  0
  -21.6659  -26.7426   22.1198 H   0  0  0  0  0  0
  -19.6930  -25.6278   21.1264 H   0  0  0  0  0  0
  -19.6701  -27.3167   20.6727 H   0  0  0  0  0  0
  -17.4218  -26.6682   21.4025 H   0  0  0  0  0  0
  -18.0349  -26.0074   22.9020 H   0  0  0  0  0  0
  -19.7955  -30.7301   24.2229 H   0  0  0  0  0  0
  -17.5027  -31.6272   24.5156 H   0  0  0  0  0  0
  -15.5367  -30.2972   23.7677 H   0  0  0  0  0  0
  -15.8696  -28.0797   22.7112 H   0  0  0  0  0  0
  -24.5880  -30.7126   25.7696 H   0  0  0  0  0  0
  -24.8873  -32.2971   26.4736 H   0  0  0  0  0  0
  -25.7943  -30.8994   27.0224 H   0  0  0  0  0  0
  -26.3055  -29.6660   24.1341 H   0  0  0  0  0  0
  -27.3978  -29.7276   25.4962 H   0  0  0  0  0  0
  -27.8983  -30.4171   23.9724 H   0  0  0  0  0  0
  -27.2639  -33.3675   26.2019 H   0  0  0  0  0  0
  -28.3904  -32.6872   25.0371 H   0  0  0  0  0  0
  -28.0683  -31.8524   26.5490 H   0  0  0  0  0  0
  -28.2584  -38.0083   24.7514 H   0  0  0  0  0  0
  -28.1082  -36.2612   24.6294 H   0  0  0  0  0  0
  -27.2292  -37.1422   25.8868 H   0  0  0  0  0  0
  -20.9512  -29.8762   21.6754 H   0  0  0  0  0  0
  -26.0149  -38.2801   24.1411 H   0  0  0  0  0  0
  -31.5508  -21.9527   20.1686 H   0  0  0  0  0  0
  -27.5713  -25.2385   17.7953 H   0  0  0  0  0  0
  -27.9213  -23.5237   17.8807 H   0  0  0  0  0  0
  -29.2221  -24.6994   18.0162 H   0  0  0  0  0  0
  -27.0018  -24.2651   20.0861 H   0  0  0  0  0  0
  -32.9143  -19.4976   20.7101 H   0  0  0  0  0  0
  -27.7570  -21.7586   19.6424 H   0  0  0  0  0  0
  -28.6936  -15.8688   20.6506 H   0  0  0  0  0  0
  1 25  1  0  0  0
  1 30  2  0  0  0
  1 81  1  0  0  0
  2  3  1  0  0  0
  2 25  1  0  0  0
  2 84  1  0  0  0
  2 85  1  0  0  0
  3  4  1  0  0  0
  3 86  1  0  0  0
  3 87  1  0  0  0
  4  5  1  0  0  0
  4 88  1  0  0  0
  4 89  1  0  0  0
  5  6  1  0  0  0
  5 26  1  0  0  0
  5 90  1  0  0  0
  6 25  1  0  0  0
  6 91  1  0  0  0
  6 92  1  0  0  0
  7  8  2  0  0  0
  7 26  1  0  0  0
  7 29  1  0  0  0
  8  9  1  0  0  0
  8 22  1  0  0  0
  9 10  1  0  0  0
  9 27  2  0  0  0
 10 11  2  0  0  0
 10 15  1  0  0  0
 11 12  1  0  0  0
 11 93  1  0  0  0
 12 13  2  0  0  0
 12 94  1  0  0  0
 13 14  1  0  0  0
 13 31  1  0  0  0
 14 15  2  0  0  0
 14 95  1  0  0  0
 15 96  1  0  0  0
 16 17  2  0  0  0
 16 21  1  0  0  0
 16 31  1  0  0  0
 17 18  1  0  0  0
 17 97  1  0  0  0
 18 19  2  0  0  0
 18 98  1  0  0  0
 19 20  1  0  0  0
 19 24  1  0  0  0
 20 21  2  0  0  0
 20 99  1  0  0  0
 21 23  1  0  0  0
 22 28  1  0  0  0
 22 32  2  0  0  0
 26 27  1  0  0  0
 28100  1  0  0  0
 28101  1  0  0  0
 29102  1  0  0  0
 29103  1  0  0  0
 33 34  1  0  0  0
 33 66  1  0  0  0
 33 70  2  0  0  0
 34 36  1  0  0  0
 34 59  1  0  0  0
 34104  1  0  0  0
 35 44  2  0  0  0
 35 45  1  0  0  0
 35 68  1  0  0  0
 36 56  1  0  0  0
 36105  1  0  0  0
 37 39  1  0  0  0
 37 47  1  0  0  0
 37 66  1  0  0  0
 37106  1  0  0  0
 38 43  2  0  0  0
 38 46  1  0  0  0
 38 47  1  0  0  0
 39 64  1  0  0  0
 39 67  2  0  0  0
 40 52  1  0  0  0
 40 53  2  0  0  0
 40 58  1  0  0  0
 41107  1  0  0  0
 41108  1  0  0  0
 41109  1  0  0  0
 41 48  1  0  0  0
 42 43  1  0  0  0
 42 66  1  0  0  0
 42110  1  0  0  0
 42111  1  0  0  0
 43 44  1  0  0  0
 44112  1  0  0  0
 45 46  2  0  0  0
 45113  1  0  0  0
 46114  1  0  0  0
 47115  1  0  0  0
 47116  1  0  0  0
 48 56  1  0  0  0
 48 65  1  0  0  0
 48117  1  0  0  0
 49 50  1  0  0  0
 49 53  1  0  0  0
 49 64  1  0  0  0
 49118  1  0  0  0
 50 51  1  0  0  0
 50119  1  0  0  0
 50120  1  0  0  0
 51 52  1  0  0  0
 51121  1  0  0  0
 51122  1  0  0  0
 52123  1  0  0  0
 52124  1  0  0  0
 53 54  1  0  0  0
 54 55  2  0  0  0
 54125  1  0  0  0
 55 57  1  0  0  0
 55126  1  0  0  0
 56 69  2  0  0  0
 57 58  2  0  0  0
 57127  1  0  0  0
 58128  1  0  0  0
 59 60  1  0  0  0
 59 61  1  0  0  0
 59 62  1  0  0  0
 60129  1  0  0  0
 60130  1  0  0  0
 60131  1  0  0  0
 61132  1  0  0  0
 61133  1  0  0  0
 61134  1  0  0  0
 62135  1  0  0  0
 62136  1  0  0  0
 62137  1  0  0  0
 63 65  1  0  0  0
 63138  1  0  0  0
 63139  1  0  0  0
 63140  1  0  0  0
 64141  1  0  0  0
 65142  1  0  0  0
 68 77  1  0  0  0
 71 72  2  0  0  0
 71 74  1  0  0  0
 71 78  1  0  0  0
 72 80  1  0  0  0
 72 83  1  0  0  0
 73 78  2  0  0  0
 73 81  1  0  0  0
 73 83  1  0  0  0
 74 79  2  0  0  0
 74143  1  0  0  0
 75 77  1  0  0  0
 75 80  1  0  0  0
 75 82  2  0  0  0
 76144  1  0  0  0
 76145  1  0  0  0
 76146  1  0  0  0
 76 77  1  0  0  0
 77147  1  0  0  0
 79148  1  0  0  0
 80149  1  0  0  0
 81150  1  0  0  0
M  ISO  4   1 100  68 101  77 101  81 100
M  END
> <chiral flag>
0

> <version>
0

> <s_m_source_file>
/data/baiqing/PycharmProjects/Reinvent-master-3.2/result/LINK_invent/BTK/process_docking_weight1_custom_product_contain_oxygen_bond_distance_aromatic_linkinvent_7_9_3/rearranged_h_0185.sdf

> <i_m_source_file_index>
29

> <r_mmod_Potential_Energy-OPLS-2005>
568.374938964844

> <r_mmod_Stretch_Energy-OPLS-2005>
301.3056640625

> <r_mmod_Bend_Energy-OPLS-2005>
311.395812988281

> <r_mmod_Torsional_Energy-OPLS-2005>
223.146682739258

> <r_mmod_Improper_Torsional_Energy-OPLS-2005>
5.23721027374268

> <r_mmod_Van_der_Waal_Energy-OPLS-2005>
113.075927734375

> <r_mmod_Electrostatic_Energy-OPLS-2005>
-362.059020996094

> <r_mmod_Solvation_Energy-OPLS-2005>
-278.726867675781

> <b_mmod_Minimization_Converged-OPLS-2005>
0

> <r_mmod_RMS_Derivative-OPLS-2005>
0.569169700145721

$$$$
29
                    3D
 Structure written by MMmdl.
156164  0  0  1  0            999 V2000
  -30.6665  -14.7624   20.5554 C   0  0  0  0  0  0
  -30.4516  -12.4864   19.5476 C   0  0  0  0  0  0
  -29.5688  -12.5711   18.2925 C   0  0  0  0  0  0
  -28.0873  -12.3850   18.6822 C   0  0  0  0  0  0
  -27.6661  -13.2635   19.8972 C   0  0  2  0  0  0
  -28.6897  -13.2115   21.0475 C   0  0  0  0  0  0
  -25.2432  -13.8151   20.5452 C   0  0  0  0  0  0
  -24.1824  -13.0392   20.9198 C   0  0  0  0  0  0
  -24.6513  -11.6965   20.8761 C   0  0  0  0  0  0
  -23.9197  -10.4312   21.0424 C   0  0  0  0  0  0
  -24.3701   -9.4215   21.9240 C   0  0  0  0  0  0
  -23.6360   -8.2250   22.0737 C   0  0  0  0  0  0
  -22.4340   -8.0324   21.3552 C   0  0  0  0  0  0
  -22.0003   -9.0311   20.4586 C   0  0  0  0  0  0
  -22.7370  -10.2188   20.3028 C   0  0  0  0  0  0
  -21.6892   -6.0773   22.5252 C   0  0  0  0  0  0
  -21.3994   -6.5722   23.8187 C   0  0  0  0  0  0
  -21.3667   -5.6887   24.9170 C   0  0  0  0  0  0
  -21.6081   -4.3134   24.7245 C   0  0  0  0  0  0
  -21.8796   -3.8181   23.4367 C   0  0  0  0  0  0
  -21.9164   -4.6982   22.3404 C   0  0  0  0  0  0
  -22.7844  -13.5172   21.1907 C   0  0  0  0  0  0
  -22.1633   -4.2134   21.1000 F   0  0  0  0  0  0
  -21.5632   -3.4657   25.7760 F   0  0  0  0  0  0
  -30.0028  -13.5563   20.4768 N   0  0  0  0  0  0
  -26.3095  -12.9524   20.3409 N   0  0  0  0  0  0
  -25.9519  -11.6641   20.5890 N   0  0  0  0  0  0
  -22.0570  -12.8285   22.0615 N   0  0  0  0  0  0
  -25.3638  -15.1820   20.3321 N   0  0  0  0  0  0
  -31.8534  -14.7921   20.2151 O   0  0  0  0  0  0
  -21.6772   -6.8893   21.4182 O   0  0  0  0  0  0
  -22.3564  -14.5506   20.6777 O   0  0  0  0  0  0
  -24.6395  -31.8471   23.1895 C   0  0  0  0  0  0
  -25.9241  -32.4682   23.8221 C   0  0  1  0  0  0
  -27.2194  -27.1965   20.1392 C   0  0  0  0  0  0
  -25.6008  -33.8472   24.2179 N   0  0  0  0  0  0
  -23.4443  -30.4657   21.5296 C   0  0  2  0  0  0
  -24.8852  -28.8956   20.1024 C   0  0  0  0  0  0
  -22.7569  -29.4591   22.4847 C   0  0  0  0  0  0
  -18.0361  -28.1390   22.8499 C   0  0  0  0  0  0
  -24.1503  -36.7246   23.2630 C   0  0  0  0  0  0
  -25.9896  -30.7320   21.3831 C   0  0  0  0  0  0
  -26.0573  -29.3524   20.7211 C   0  0  0  0  0  0
  -27.2212  -28.5135   20.7164 C   0  0  0  0  0  0
  -26.0141  -26.8081   19.5105 C   0  0  0  0  0  0
  -24.8741  -27.6336   19.4853 C   0  0  0  0  0  0
  -23.6605  -29.7899   20.1486 C   0  0  0  0  0  0
  -25.4133  -36.3048   24.0310 C   0  0  1  0  0  0
  -20.5958  -28.3753   23.1224 C   0  0  2  0  0  0
  -20.6770  -26.9453   22.5398 C   0  0  0  0  0  0
  -19.5777  -26.6400   21.5181 C   0  0  0  0  0  0
  -18.1977  -26.7949   22.1614 C   0  0  0  0  0  0
  -19.1600  -28.8891   23.2847 C   0  0  0  0  0  0
  -18.9498  -30.1476   23.8932 C   0  0  0  0  0  0
  -17.6477  -30.6567   24.0588 C   0  0  0  0  0  0
  -25.9098  -34.9421   23.5031 C   0  0  0  0  0  0
  -16.5382  -29.9059   23.6320 C   0  0  0  0  0  0
  -16.7329  -28.6457   23.0355 C   0  0  0  0  0  0
  -26.4553  -31.6545   25.0666 C   0  0  0  0  0  0
  -25.3753  -31.3732   26.1382 C   0  0  0  0  0  0
  -27.0378  -30.2928   24.6233 C   0  0  0  0  0  0
  -27.6109  -32.4262   25.7455 C   0  0  0  0  0  0
  -27.5589  -37.1787   24.8468 C   0  0  0  0  0  0
  -21.4308  -29.3043   22.3581 N   0  0  0  0  0  0
  -26.4329  -37.3724   23.9397 N   0  0  0  0  0  0
  -24.7100  -31.0371   22.0884 N   0  0  0  0  0  0
  -23.4162  -28.8171   23.3051 O   0  0  0  0  0  0
  -28.3201  -26.3054   20.2446 O   0  0  0  0  0  0
  -26.5644  -34.8879   22.4619 O   0  0  0  0  0  0
  -23.5538  -32.1324   23.7176 O   0  0  0  0  0  0
  -29.5531  -18.6978   21.1310 C   0  0  0  0  0  0
  -28.6399  -18.9119   22.1585 C   0  0  0  0  0  0
  -28.8903  -21.0121   20.7753 C   0  0  0  0  0  0
  -28.4064  -23.5993   20.6110 C   0  0  0  0  0  0
  -31.6476  -17.6787   19.8816 C   0  0  0  0  0  0
  -28.4123  -24.9078   19.6508 C   0  0  0  0  0  0
  -30.5177  -17.4117   20.9214 C   0  0  2  0  0  0
  -26.9340  -17.2230   22.8248 C   0  0  0  0  0  0
  -28.1753  -18.0015   23.2724 C   0  0  0  0  0  0
  -29.6498  -19.9337   20.3675 N   0  0  0  0  0  0
  -28.8210  -22.3490   20.1305 N   0  0  0  0  0  0
  -29.9903  -15.9569   20.8362 N   0  0  0  0  0  0
  -28.0459  -23.7436   21.7875 O   0  0  0  0  0  0
  -26.4000  -16.4925   23.8021 F   0  0  0  0  0  0
  -27.2768  -16.4065   21.8260 F   0  0  0  0  0  0
  -27.7999  -18.7027   24.3395 F   0  0  0  0  0  0
  -29.1147  -17.1493   23.6816 F   0  0  0  0  0  0
  -27.9072  -20.5284   22.1360 S   0  0  0  0  0  0
  -31.5104  -12.5821   19.2804 H   0  0  0  0  0  0
  -30.3433  -11.5097   20.0201 H   0  0  0  0  0  0
  -29.8652  -11.8059   17.5710 H   0  0  0  0  0  0
  -29.7229  -13.5380   17.8050 H   0  0  0  0  0  0
  -27.9500  -11.3350   18.9353 H   0  0  0  0  0  0
  -27.4450  -12.6007   17.8255 H   0  0  0  0  0  0
  -27.6503  -14.2979   19.5634 H   0  0  0  0  0  0
  -28.7118  -12.2384   21.5278 H   0  0  0  0  0  0
  -28.4183  -13.9132   21.8380 H   0  0  0  0  0  0
  -25.2852   -9.5727   22.4834 H   0  0  0  0  0  0
  -24.0072   -7.4594   22.7431 H   0  0  0  0  0  0
  -21.0986   -8.8851   19.8779 H   0  0  0  0  0  0
  -22.3877  -10.9753   19.6083 H   0  0  0  0  0  0
  -21.1959   -7.6220   23.9699 H   0  0  0  0  0  0
  -21.1526   -6.0613   25.9100 H   0  0  0  0  0  0
  -22.0529   -2.7613   23.2899 H   0  0  0  0  0  0
  -22.4162  -12.0090   22.5193 H   0  0  0  0  0  0
  -21.1235  -13.1397   22.2966 H   0  0  0  0  0  0
  -24.5537  -15.7882   20.3966 H   0  0  0  0  0  0
  -26.2129  -15.6593   20.0531 H   0  0  0  0  0  0
  -26.7301  -32.5300   23.0932 H   0  0  0  0  0  0
  -25.0293  -33.9542   25.0417 H   0  0  0  0  0  0
  -22.7447  -31.2901   21.3782 H   0  0  0  0  0  0
  -23.3750  -35.9582   23.3311 H   0  0  0  0  0  0
  -24.3640  -36.8856   22.2043 H   0  0  0  0  0  0
  -23.7195  -37.6433   23.6627 H   0  0  0  0  0  0
  -26.1604  -31.4867   20.6143 H   0  0  0  0  0  0
  -26.8551  -30.7653   22.0343 H   0  0  0  0  0  0
  -28.1289  -28.8551   21.2011 H   0  0  0  0  0  0
  -25.9116  -25.8259   19.0730 H   0  0  0  0  0  0
  -23.9829  -27.2552   19.0013 H   0  0  0  0  0  0
  -23.7902  -30.5552   19.3846 H   0  0  0  0  0  0
  -22.7705  -29.2309   19.8525 H   0  0  0  0  0  0
  -25.1292  -36.1919   25.0781 H   0  0  0  0  0  0
  -21.0103  -28.3337   24.1326 H   0  0  0  0  0  0
  -20.5655  -26.2372   23.3598 H   0  0  0  0  0  0
  -21.6625  -26.7433   22.1219 H   0  0  0  0  0  0
  -19.6914  -25.6309   21.1201 H   0  0  0  0  0  0
  -19.6649  -27.3208   20.6688 H   0  0  0  0  0  0
  -17.4220  -26.6786   21.3996 H   0  0  0  0  0  0
  -18.0389  -26.0036   22.8965 H   0  0  0  0  0  0
  -19.7955  -30.7312   24.2258 H   0  0  0  0  0  0
  -17.5006  -31.6274   24.5189 H   0  0  0  0  0  0
  -15.5375  -30.2937   23.7591 H   0  0  0  0  0  0
  -15.8754  -28.0769   22.6992 H   0  0  0  0  0  0
  -24.6008  -30.6965   25.7726 H   0  0  0  0  0  0
  -24.8840  -32.2888   26.4698 H   0  0  0  0  0  0
  -25.8083  -30.9036   27.0239 H   0  0  0  0  0  0
  -26.2997  -29.6721   24.1113 H   0  0  0  0  0  0
  -27.3841  -29.7144   25.4821 H   0  0  0  0  0  0
  -27.8972  -30.4117   23.9608 H   0  0  0  0  0  0
  -27.2761  -33.3607   26.1963 H   0  0  0  0  0  0
  -28.3952  -32.6750   25.0292 H   0  0  0  0  0  0
  -28.0720  -31.8418   26.5436 H   0  0  0  0  0  0
  -28.2603  -38.0096   24.7530 H   0  0  0  0  0  0
  -28.1106  -36.2622   24.6298 H   0  0  0  0  0  0
  -27.2338  -37.1436   25.8888 H   0  0  0  0  0  0
  -20.9539  -29.8766   21.6763 H   0  0  0  0  0  0
  -26.0223  -38.2804   24.1389 H   0  0  0  0  0  0
  -31.4771  -17.1569   18.9403 H   0  0  0  0  0  0
  -32.6249  -17.3406   20.2671 H   0  0  0  0  0  0
  -31.7770  -18.7381   19.6681 H   0  0  0  0  0  0
  -27.7288  -24.7633   18.8119 H   0  0  0  0  0  0
  -29.4109  -24.8828   19.2034 H   0  0  0  0  0  0
  -31.0830  -17.3868   21.8536 H   0  0  0  0  0  0
  -26.1579  -17.8983   22.4628 H   0  0  0  0  0  0
  -29.1099  -22.3441   19.1571 H   0  0  0  0  0  0
  -28.9979  -15.8573   20.9934 H   0  0  0  0  0  0
  1 25  1  0  0  0
  1 30  2  0  0  0
  1 82  1  0  0  0
  2  3  1  0  0  0
  2 25  1  0  0  0
  2 89  1  0  0  0
  2 90  1  0  0  0
  3  4  1  0  0  0
  3 91  1  0  0  0
  3 92  1  0  0  0
  4  5  1  0  0  0
  4 93  1  0  0  0
  4 94  1  0  0  0
  5  6  1  0  0  0
  5 26  1  0  0  0
  5 95  1  0  0  0
  6 25  1  0  0  0
  6 96  1  0  0  0
  6 97  1  0  0  0
  7  8  2  0  0  0
  7 26  1  0  0  0
  7 29  1  0  0  0
  8  9  1  0  0  0
  8 22  1  0  0  0
  9 10  1  0  0  0
  9 27  2  0  0  0
 10 11  2  0  0  0
 10 15  1  0  0  0
 11 12  1  0  0  0
 11 98  1  0  0  0
 12 13  2  0  0  0
 12 99  1  0  0  0
 13 14  1  0  0  0
 13 31  1  0  0  0
 14 15  2  0  0  0
 14100  1  0  0  0
 15101  1  0  0  0
 16 17  2  0  0  0
 16 21  1  0  0  0
 16 31  1  0  0  0
 17 18  1  0  0  0
 17102  1  0  0  0
 18 19  2  0  0  0
 18103  1  0  0  0
 19 20  1  0  0  0
 19 24  1  0  0  0
 20 21  2  0  0  0
 20104  1  0  0  0
 21 23  1  0  0  0
 22 28  1  0  0  0
 22 32  2  0  0  0
 26 27  1  0  0  0
 28105  1  0  0  0
 28106  1  0  0  0
 29107  1  0  0  0
 29108  1  0  0  0
 33 34  1  0  0  0
 33 66  1  0  0  0
 33 70  2  0  0  0
 34 36  1  0  0  0
 34 59  1  0  0  0
 34109  1  0  0  0
 35 44  2  0  0  0
 35 45  1  0  0  0
 35 68  1  0  0  0
 36 56  1  0  0  0
 36110  1  0  0  0
 37 39  1  0  0  0
 37 47  1  0  0  0
 37 66  1  0  0  0
 37111  1  0  0  0
 38 43  2  0  0  0
 38 46  1  0  0  0
 38 47  1  0  0  0
 39 64  1  0  0  0
 39 67  2  0  0  0
 40 52  1  0  0  0
 40 53  2  0  0  0
 40 58  1  0  0  0
 41112  1  0  0  0
 41113  1  0  0  0
 41114  1  0  0  0
 41 48  1  0  0  0
 42 43  1  0  0  0
 42 66  1  0  0  0
 42115  1  0  0  0
 42116  1  0  0  0
 43 44  1  0  0  0
 44117  1  0  0  0
 45 46  2  0  0  0
 45118  1  0  0  0
 46119  1  0  0  0
 47120  1  0  0  0
 47121  1  0  0  0
 48 56  1  0  0  0
 48 65  1  0  0  0
 48122  1  0  0  0
 49 50  1  0  0  0
 49 53  1  0  0  0
 49 64  1  0  0  0
 49123  1  0  0  0
 50 51  1  0  0  0
 50124  1  0  0  0
 50125  1  0  0  0
 51 52  1  0  0  0
 51126  1  0  0  0
 51127  1  0  0  0
 52128  1  0  0  0
 52129  1  0  0  0
 53 54  1  0  0  0
 54 55  2  0  0  0
 54130  1  0  0  0
 55 57  1  0  0  0
 55131  1  0  0  0
 56 69  2  0  0  0
 57 58  2  0  0  0
 57132  1  0  0  0
 58133  1  0  0  0
 59 60  1  0  0  0
 59 61  1  0  0  0
 59 62  1  0  0  0
 60134  1  0  0  0
 60135  1  0  0  0
 60136  1  0  0  0
 61137  1  0  0  0
 61138  1  0  0  0
 61139  1  0  0  0
 62140  1  0  0  0
 62141  1  0  0  0
 62142  1  0  0  0
 63 65  1  0  0  0
 63143  1  0  0  0
 63144  1  0  0  0
 63145  1  0  0  0
 64146  1  0  0  0
 65147  1  0  0  0
 68 76  1  0  0  0
 71 72  2  0  0  0
 71 77  1  0  0  0
 71 80  1  0  0  0
 72 79  1  0  0  0
 72 88  1  0  0  0
 73 80  2  0  0  0
 73 81  1  0  0  0
 73 88  1  0  0  0
 74 76  1  0  0  0
 74 81  1  0  0  0
 74 83  2  0  0  0
 75148  1  0  0  0
 75149  1  0  0  0
 75150  1  0  0  0
 75 77  1  0  0  0
 76151  1  0  0  0
 76152  1  0  0  0
 77 82  1  0  0  0
 77153  1  0  0  0
 78 79  1  0  0  0
 78 84  1  0  0  0
 78 85  1  0  0  0
 78154  1  0  0  0
 79 86  1  0  0  0
 79 87  1  0  0  0
 81155  1  0  0  0
 82156  1  0  0  0
M  ISO  4   1 100  68 101  76 101  82 100
M  END
> <chiral flag>
0

> <version>
0

> <s_m_source_file>
/data/baiqing/PycharmProjects/Reinvent-master-3.2/result/LINK_invent/BTK/process_docking_weight1_custom_product_contain_oxygen_bond_distance_aromatic_linkinvent_7_9_3/rearranged_h_0185.sdf

> <i_m_source_file_index>
30

> <r_mmod_Potential_Energy-OPLS-2005>
54.3391494750977

> <r_mmod_Stretch_Energy-OPLS-2005>
155.495193481445

> <r_mmod_Bend_Energy-OPLS-2005>
212.418823242188

> <r_mmod_Torsional_Energy-OPLS-2005>
188.488189697266

> <r_mmod_Improper_Torsional_Energy-OPLS-2005>
4.86402368545532

> <r_mmod_Van_der_Waal_Energy-OPLS-2005>
119.778739929199

> <r_mmod_Electrostatic_Energy-OPLS-2005>
-506.479736328125

> <r_mmod_Solvation_Energy-OPLS-2005>
-234.226959228516

> <b_mmod_Minimization_Converged-OPLS-2005>
0

> <r_mmod_RMS_Derivative-OPLS-2005>
13.6712236404419

$$$$
30
                    3D
 Structure written by MMmdl.
159167  0  0  1  0            999 V2000
  -30.5869  -14.7256   20.4654 C   0  0  0  0  0  0
  -30.4423  -12.4407   19.4623 C   0  0  0  0  0  0
  -29.5109  -12.5057   18.2302 C   0  0  0  0  0  0
  -28.0356  -12.3296   18.6442 C   0  0  0  0  0  0
  -27.6449  -13.2203   19.8528 C   0  0  2  0  0  0
  -28.6917  -13.1232   20.9850 C   0  0  0  0  0  0
  -25.2527  -13.8170   20.5680 C   0  0  0  0  0  0
  -24.1811  -13.0430   20.9214 C   0  0  0  0  0  0
  -24.6388  -11.6904   20.8751 C   0  0  0  0  0  0
  -23.9059  -10.4287   21.0414 C   0  0  0  0  0  0
  -24.3614   -9.4200   21.9186 C   0  0  0  0  0  0
  -23.6290   -8.2235   22.0754 C   0  0  0  0  0  0
  -22.4272   -8.0275   21.3544 C   0  0  0  0  0  0
  -21.9906   -9.0248   20.4645 C   0  0  0  0  0  0
  -22.7234  -10.2128   20.3058 C   0  0  0  0  0  0
  -21.6851   -6.0729   22.5278 C   0  0  0  0  0  0
  -21.4012   -6.5637   23.8211 C   0  0  0  0  0  0
  -21.3660   -5.6792   24.9175 C   0  0  0  0  0  0
  -21.6046   -4.3055   24.7226 C   0  0  0  0  0  0
  -21.8820   -3.8142   23.4348 C   0  0  0  0  0  0
  -21.9192   -4.6956   22.3402 C   0  0  0  0  0  0
  -22.7832  -13.5217   21.1873 C   0  0  0  0  0  0
  -22.1661   -4.2141   21.0979 F   0  0  0  0  0  0
  -21.5630   -3.4540   25.7740 F   0  0  0  0  0  0
  -29.9961  -13.4839   20.4102 N   0  0  0  0  0  0
  -26.2946  -12.9354   20.3277 N   0  0  0  0  0  0
  -25.9313  -11.6510   20.5751 N   0  0  0  0  0  0
  -22.0477  -12.8205   22.0428 N   0  0  0  0  0  0
  -25.4213  -15.1894   20.4060 N   0  0  0  0  0  0
  -31.7765  -14.8609   20.1591 O   0  0  0  0  0  0
  -21.6639   -6.8871   21.4238 O   0  0  0  0  0  0
  -22.3516  -14.5522   20.6717 O   0  0  0  0  0  0
  -24.6294  -31.8564   23.1988 C   0  0  0  0  0  0
  -25.9126  -32.4760   23.8335 C   0  0  1  0  0  0
  -27.2242  -27.2769   20.1342 C   0  0  0  0  0  0
  -25.5929  -33.8566   24.2257 N   0  0  0  0  0  0
  -23.4261  -30.4777   21.5419 C   0  0  2  0  0  0
  -24.8743  -28.9216   20.1153 C   0  0  0  0  0  0
  -22.7490  -29.4611   22.4922 C   0  0  0  0  0  0
  -18.0289  -28.1390   22.8485 C   0  0  0  0  0  0
  -24.1487  -36.7288   23.2638 C   0  0  0  0  0  0
  -25.9700  -30.7740   21.3756 C   0  0  0  0  0  0
  -26.0448  -29.3961   20.7212 C   0  0  0  0  0  0
  -27.2250  -28.5881   20.7147 C   0  0  0  0  0  0
  -26.0323  -26.8631   19.5017 C   0  0  0  0  0  0
  -24.8721  -27.6625   19.4943 C   0  0  0  0  0  0
  -23.6443  -29.8073   20.1598 C   0  0  0  0  0  0
  -25.4114  -36.3073   24.0323 C   0  0  1  0  0  0
  -20.5888  -28.3703   23.1271 C   0  0  2  0  0  0
  -20.6778  -26.9422   22.5407 C   0  0  0  0  0  0
  -19.5755  -26.6386   21.5211 C   0  0  0  0  0  0
  -18.1934  -26.7933   22.1622 C   0  0  0  0  0  0
  -19.1540  -28.8862   23.2873 C   0  0  0  0  0  0
  -18.9464  -30.1462   23.8892 C   0  0  0  0  0  0
  -17.6464  -30.6593   24.0562 C   0  0  0  0  0  0
  -25.9055  -34.9443   23.5091 C   0  0  0  0  0  0
  -16.5355  -29.9089   23.6335 C   0  0  0  0  0  0
  -16.7275  -28.6506   23.0357 C   0  0  0  0  0  0
  -26.4500  -31.6586   25.0723 C   0  0  0  0  0  0
  -25.3723  -31.3736   26.1442 C   0  0  0  0  0  0
  -27.0354  -30.3005   24.6208 C   0  0  0  0  0  0
  -27.6053  -32.4332   25.7494 C   0  0  0  0  0  0
  -27.5578  -37.1795   24.8462 C   0  0  0  0  0  0
  -21.4197  -29.3054   22.3665 N   0  0  0  0  0  0
  -26.4287  -37.3773   23.9410 N   0  0  0  0  0  0
  -24.6942  -31.0539   22.0955 N   0  0  0  0  0  0
  -23.4196  -28.8148   23.3014 O   0  0  0  0  0  0
  -28.3340  -26.4073   20.1397 O   0  0  0  0  0  0
  -26.5627  -34.8915   22.4660 O   0  0  0  0  0  0
  -23.5449  -32.1384   23.7290 O   0  0  0  0  0  0
  -30.7735  -19.4031   20.7746 C   0  0  0  0  0  0
  -29.5395  -19.8485   20.2968 C   0  0  0  0  0  0
  -29.8591  -17.2618   20.5358 C   0  0  0  0  0  0
  -29.1636  -22.3629   20.5667 C   0  0  0  0  0  0
  -33.1512  -19.9644   20.1552 C   0  0  0  0  0  0
  -32.3826  -20.1149   22.5787 C   0  0  0  0  0  0
  -28.1568  -24.9822   20.5876 C   0  0  0  0  0  0
  -31.9768  -20.2529   21.1033 C   0  0  0  0  0  0
  -28.8979  -23.7664   19.8180 C   0  0  2  0  0  0
  -30.9272  -17.9855   20.9006 N   0  0  0  0  0  0
  -29.1076  -21.1353   19.9209 N   0  0  0  0  0  0
  -29.7284  -15.7944   20.6431 N   0  0  0  0  0  0
  -28.3156  -23.5834   18.4707 N   0  3  0  0  0  0
  -29.4559  -22.4020   21.7623 O   0  0  0  0  0  0
  -28.5526  -18.3812   20.0166 S   0  0  0  0  0  0
  -31.4810  -12.5806   19.1578 H   0  0  0  0  0  0
  -30.3962  -11.4567   19.9316 H   0  0  0  0  0  0
  -29.7889  -11.7383   17.5063 H   0  0  0  0  0  0
  -29.6369  -13.4637   17.7234 H   0  0  0  0  0  0
  -27.8886  -11.2793   18.8983 H   0  0  0  0  0  0
  -27.3781  -12.5310   17.7976 H   0  0  0  0  0  0
  -27.6451  -14.2448   19.4816 H   0  0  0  0  0  0
  -28.7235  -12.1127   21.3951 H   0  0  0  0  0  0
  -28.4289  -13.7778   21.8177 H   0  0  0  0  0  0
  -25.2762   -9.5670   22.4758 H   0  0  0  0  0  0
  -23.9998   -7.4623   22.7474 H   0  0  0  0  0  0
  -21.0839   -8.8765   19.8949 H   0  0  0  0  0  0
  -22.3697  -10.9665   19.6165 H   0  0  0  0  0  0
  -21.2005   -7.6147   23.9709 H   0  0  0  0  0  0
  -21.1483   -6.0527   25.9078 H   0  0  0  0  0  0
  -22.0599   -2.7603   23.2855 H   0  0  0  0  0  0
  -22.4099  -11.9868   22.4814 H   0  0  0  0  0  0
  -21.1090  -13.1218   22.2635 H   0  0  0  0  0  0
  -24.6444  -15.8342   20.5039 H   0  0  0  0  0  0
  -26.2446  -15.6259   20.0136 H   0  0  0  0  0  0
  -26.7189  -32.5415   23.1077 H   0  0  0  0  0  0
  -25.0083  -33.9713   25.0405 H   0  0  0  0  0  0
  -22.7220  -31.2992   21.3941 H   0  0  0  0  0  0
  -23.3754  -35.9615   23.3293 H   0  0  0  0  0  0
  -24.3575  -36.8926   22.2054 H   0  0  0  0  0  0
  -23.7238  -37.6482   23.6675 H   0  0  0  0  0  0
  -26.1041  -31.5329   20.6038 H   0  0  0  0  0  0
  -26.8494  -30.8264   22.0061 H   0  0  0  0  0  0
  -28.1254  -28.9506   21.1906 H   0  0  0  0  0  0
  -25.9846  -25.9027   19.0099 H   0  0  0  0  0  0
  -23.9769  -27.2961   19.0102 H   0  0  0  0  0  0
  -23.7665  -30.5812   19.4011 H   0  0  0  0  0  0
  -22.7640  -29.2372   19.8572 H   0  0  0  0  0  0
  -25.1295  -36.1917   25.0815 H   0  0  0  0  0  0
  -20.9977  -28.3284   24.1392 H   0  0  0  0  0  0
  -20.5679  -26.2317   23.3614 H   0  0  0  0  0  0
  -21.6648  -26.7451   22.1201 H   0  0  0  0  0  0
  -19.6919  -25.6293   21.1253 H   0  0  0  0  0  0
  -19.6691  -27.3187   20.6732 H   0  0  0  0  0  0
  -17.4203  -26.6676   21.4026 H   0  0  0  0  0  0
  -18.0335  -26.0074   22.9018 H   0  0  0  0  0  0
  -19.7939  -30.7278   24.2262 H   0  0  0  0  0  0
  -17.5020  -31.6274   24.5164 H   0  0  0  0  0  0
  -15.5356  -30.2991   23.7666 H   0  0  0  0  0  0
  -15.8672  -28.0825   22.7080 H   0  0  0  0  0  0
  -24.5888  -30.7100   25.7765 H   0  0  0  0  0  0
  -24.8926  -32.2910   26.4866 H   0  0  0  0  0  0
  -25.8031  -30.8905   27.0221 H   0  0  0  0  0  0
  -26.2944  -29.6742   24.1226 H   0  0  0  0  0  0
  -27.4036  -29.7275   25.4729 H   0  0  0  0  0  0
  -27.8816  -30.4290   23.9455 H   0  0  0  0  0  0
  -27.2664  -33.3641   26.2054 H   0  0  0  0  0  0
  -28.3867  -32.6883   25.0323 H   0  0  0  0  0  0
  -28.0716  -31.8473   26.5425 H   0  0  0  0  0  0
  -28.2583  -38.0104   24.7522 H   0  0  0  0  0  0
  -28.1087  -36.2636   24.6272 H   0  0  0  0  0  0
  -27.2298  -37.1421   25.8865 H   0  0  0  0  0  0
  -20.9382  -29.8777   21.6868 H   0  0  0  0  0  0
  -26.0166  -38.2843   24.1422 H   0  0  0  0  0  0
  -32.8651  -20.1334   19.1167 H   0  0  0  0  0  0
  -33.4924  -18.9323   20.2415 H   0  0  0  0  0  0
  -33.9999  -20.6135   20.3719 H   0  0  0  0  0  0
  -31.5549  -20.3831   23.2359 H   0  0  0  0  0  0
  -33.2201  -20.7695   22.8206 H   0  0  0  0  0  0
  -32.6792  -19.0932   22.8176 H   0  0  0  0  0  0
  -28.5080  -24.9744   21.6197 H   0  0  0  0  0  0
  -27.0983  -24.7367   20.6720 H   0  0  0  0  0  0
  -31.7277  -21.3016   20.9525 H   0  0  0  0  0  0
  -29.9093  -24.1346   19.6432 H   0  0  0  0  0  0
  -28.6707  -21.1511   19.0116 H   0  0  0  0  0  0
  -28.7759  -15.4897   20.7574 H   0  0  0  0  0  0
  -27.3965  -23.1775   18.5146 H   0  0  0  0  0  0
  -28.9078  -23.0067   17.8996 H   0  0  0  0  0  0
  -28.2433  -24.4746   18.0109 H   0  0  0  0  0  0
  1 25  1  0  0  0
  1 30  2  0  0  0
  1 82  1  0  0  0
  2  3  1  0  0  0
  2 25  1  0  0  0
  2 86  1  0  0  0
  2 87  1  0  0  0
  3  4  1  0  0  0
  3 88  1  0  0  0
  3 89  1  0  0  0
  4  5  1  0  0  0
  4 90  1  0  0  0
  4 91  1  0  0  0
  5  6  1  0  0  0
  5 26  1  0  0  0
  5 92  1  0  0  0
  6 25  1  0  0  0
  6 93  1  0  0  0
  6 94  1  0  0  0
  7  8  2  0  0  0
  7 26  1  0  0  0
  7 29  1  0  0  0
  8  9  1  0  0  0
  8 22  1  0  0  0
  9 10  1  0  0  0
  9 27  2  0  0  0
 10 11  2  0  0  0
 10 15  1  0  0  0
 11 12  1  0  0  0
 11 95  1  0  0  0
 12 13  2  0  0  0
 12 96  1  0  0  0
 13 14  1  0  0  0
 13 31  1  0  0  0
 14 15  2  0  0  0
 14 97  1  0  0  0
 15 98  1  0  0  0
 16 17  2  0  0  0
 16 21  1  0  0  0
 16 31  1  0  0  0
 17 18  1  0  0  0
 17 99  1  0  0  0
 18 19  2  0  0  0
 18100  1  0  0  0
 19 20  1  0  0  0
 19 24  1  0  0  0
 20 21  2  0  0  0
 20101  1  0  0  0
 21 23  1  0  0  0
 22 28  1  0  0  0
 22 32  2  0  0  0
 26 27  1  0  0  0
 28102  1  0  0  0
 28103  1  0  0  0
 29104  1  0  0  0
 29105  1  0  0  0
 33 34  1  0  0  0
 33 66  1  0  0  0
 33 70  2  0  0  0
 34 36  1  0  0  0
 34 59  1  0  0  0
 34106  1  0  0  0
 35 44  2  0  0  0
 35 45  1  0  0  0
 35 68  1  0  0  0
 36 56  1  0  0  0
 36107  1  0  0  0
 37 39  1  0  0  0
 37 47  1  0  0  0
 37 66  1  0  0  0
 37108  1  0  0  0
 38 43  2  0  0  0
 38 46  1  0  0  0
 38 47  1  0  0  0
 39 64  1  0  0  0
 39 67  2  0  0  0
 40 52  1  0  0  0
 40 53  2  0  0  0
 40 58  1  0  0  0
 41109  1  0  0  0
 41110  1  0  0  0
 41111  1  0  0  0
 41 48  1  0  0  0
 42 43  1  0  0  0
 42 66  1  0  0  0
 42112  1  0  0  0
 42113  1  0  0  0
 43 44  1  0  0  0
 44114  1  0  0  0
 45 46  2  0  0  0
 45115  1  0  0  0
 46116  1  0  0  0
 47117  1  0  0  0
 47118  1  0  0  0
 48 56  1  0  0  0
 48 65  1  0  0  0
 48119  1  0  0  0
 49 50  1  0  0  0
 49 53  1  0  0  0
 49 64  1  0  0  0
 49120  1  0  0  0
 50 51  1  0  0  0
 50121  1  0  0  0
 50122  1  0  0  0
 51 52  1  0  0  0
 51123  1  0  0  0
 51124  1  0  0  0
 52125  1  0  0  0
 52126  1  0  0  0
 53 54  1  0  0  0
 54 55  2  0  0  0
 54127  1  0  0  0
 55 57  1  0  0  0
 55128  1  0  0  0
 56 69  2  0  0  0
 57 58  2  0  0  0
 57129  1  0  0  0
 58130  1  0  0  0
 59 60  1  0  0  0
 59 61  1  0  0  0
 59 62  1  0  0  0
 60131  1  0  0  0
 60132  1  0  0  0
 60133  1  0  0  0
 61134  1  0  0  0
 61135  1  0  0  0
 61136  1  0  0  0
 62137  1  0  0  0
 62138  1  0  0  0
 62139  1  0  0  0
 63 65  1  0  0  0
 63140  1  0  0  0
 63141  1  0  0  0
 63142  1  0  0  0
 64143  1  0  0  0
 65144  1  0  0  0
 68 77  1  0  0  0
 71 72  2  0  0  0
 71 78  1  0  0  0
 71 80  1  0  0  0
 72 81  1  0  0  0
 72 85  1  0  0  0
 73 80  2  0  0  0
 73 82  1  0  0  0
 73 85  1  0  0  0
 74 79  1  0  0  0
 74 81  1  0  0  0
 74 84  2  0  0  0
 75145  1  0  0  0
 75146  1  0  0  0
 75147  1  0  0  0
 75 78  1  0  0  0
 76 78  1  0  0  0
 76148  1  0  0  0
 76149  1  0  0  0
 76150  1  0  0  0
 77 79  1  0  0  0
 77151  1  0  0  0
 77152  1  0  0  0
 78153  1  0  0  0
 79 83  1  0  0  0
 79154  1  0  0  0
 81155  1  0  0  0
 82156  1  0  0  0
 83157  1  0  0  0
 83158  1  0  0  0
 83159  1  0  0  0
M  CHG  1  83   1
M  ISO  4   1 100  68 101  77 101  82 100
M  END
> <chiral flag>
0

> <version>
0

> <s_m_source_file>
/data/baiqing/PycharmProjects/Reinvent-master-3.2/result/LINK_invent/BTK/process_docking_weight1_custom_product_contain_oxygen_bond_distance_aromatic_linkinvent_7_9_3/rearranged_h_0185.sdf

> <i_m_source_file_index>
31

> <r_mmod_Potential_Energy-OPLS-2005>
-251.630142211914

> <r_mmod_Stretch_Energy-OPLS-2005>
107.082481384277

> <r_mmod_Bend_Energy-OPLS-2005>
169.780700683594

> <r_mmod_Torsional_Energy-OPLS-2005>
249.730453491211

> <r_mmod_Improper_Torsional_Energy-OPLS-2005>
6.59287309646606

> <r_mmod_Van_der_Waal_Energy-OPLS-2005>
110.325057983398

> <r_mmod_Electrostatic_Energy-OPLS-2005>
-417.283416748047

> <r_mmod_Solvation_Energy-OPLS-2005>
-552.353942871094

> <b_mmod_Minimization_Converged-OPLS-2005>
0

> <r_mmod_RMS_Derivative-OPLS-2005>
0.523545563220978

$$$$
31
                    3D
 Structure written by MMmdl.
167175  0  0  1  0            999 V2000
  -30.6242  -14.7359   20.4627 C   0  0  0  0  0  0
  -30.4285  -12.4374   19.4779 C   0  0  0  0  0  0
  -29.5113  -12.5015   18.2368 C   0  0  0  0  0  0
  -28.0372  -12.3251   18.6511 C   0  0  0  0  0  0
  -27.6430  -13.2325   19.8464 C   0  0  2  0  0  0
  -28.6868  -13.1730   20.9835 C   0  0  0  0  0  0
  -25.2525  -13.8207   20.5724 C   0  0  0  0  0  0
  -24.1830  -13.0451   20.9218 C   0  0  0  0  0  0
  -24.6394  -11.6921   20.8745 C   0  0  0  0  0  0
  -23.9072  -10.4294   21.0398 C   0  0  0  0  0  0
  -24.3611   -9.4201   21.9174 C   0  0  0  0  0  0
  -23.6297   -8.2234   22.0741 C   0  0  0  0  0  0
  -22.4278   -8.0276   21.3532 C   0  0  0  0  0  0
  -21.9919   -9.0251   20.4633 C   0  0  0  0  0  0
  -22.7242  -10.2133   20.3047 C   0  0  0  0  0  0
  -21.6846   -6.0747   22.5272 C   0  0  0  0  0  0
  -21.4011   -6.5645   23.8212 C   0  0  0  0  0  0
  -21.3661   -5.6789   24.9172 C   0  0  0  0  0  0
  -21.6052   -4.3058   24.7218 C   0  0  0  0  0  0
  -21.8820   -3.8154   23.4332 C   0  0  0  0  0  0
  -21.9190   -4.6976   22.3391 C   0  0  0  0  0  0
  -22.7808  -13.5209   21.1886 C   0  0  0  0  0  0
  -22.1659   -4.2159   21.0974 F   0  0  0  0  0  0
  -21.5620   -3.4541   25.7732 F   0  0  0  0  0  0
  -29.9979  -13.5062   20.4136 N   0  0  0  0  0  0
  -26.2952  -12.9425   20.3264 N   0  0  0  0  0  0
  -25.9325  -11.6571   20.5729 N   0  0  0  0  0  0
  -22.0472  -12.8173   22.0440 N   0  0  0  0  0  0
  -25.4251  -15.1941   20.4144 N   0  0  0  0  0  0
  -31.7989  -14.7986   20.0838 O   0  0  0  0  0  0
  -21.6633   -6.8879   21.4236 O   0  0  0  0  0  0
  -22.3478  -14.5502   20.6731 O   0  0  0  0  0  0
  -24.6314  -31.8549   23.1909 C   0  0  0  0  0  0
  -25.9142  -32.4715   23.8292 C   0  0  1  0  0  0
  -27.2206  -27.2529   20.1448 C   0  0  0  0  0  0
  -25.5925  -33.8524   24.2218 N   0  0  0  0  0  0
  -23.4281  -30.4710   21.5362 C   0  0  2  0  0  0
  -24.8739  -28.9098   20.1128 C   0  0  0  0  0  0
  -22.7502  -29.4584   22.4883 C   0  0  0  0  0  0
  -18.0290  -28.1416   22.8445 C   0  0  0  0  0  0
  -24.1507  -36.7309   23.2638 C   0  0  0  0  0  0
  -25.9703  -30.7660   21.3681 C   0  0  0  0  0  0
  -26.0434  -29.3845   20.7179 C   0  0  0  0  0  0
  -27.2210  -28.5700   20.7151 C   0  0  0  0  0  0
  -26.0268  -26.8357   19.5164 C   0  0  0  0  0  0
  -24.8734  -27.6448   19.5019 C   0  0  0  0  0  0
  -23.6426  -29.7944   20.1562 C   0  0  0  0  0  0
  -25.4128  -36.3047   24.0324 C   0  0  1  0  0  0
  -20.5879  -28.3757   23.1223 C   0  0  2  0  0  0
  -20.6781  -26.9462   22.5391 C   0  0  0  0  0  0
  -19.5772  -26.6406   21.5186 C   0  0  0  0  0  0
  -18.1941  -26.7945   22.1589 C   0  0  0  0  0  0
  -19.1537  -28.8900   23.2831 C   0  0  0  0  0  0
  -18.9464  -30.1473   23.8891 C   0  0  0  0  0  0
  -17.6470  -30.6603   24.0560 C   0  0  0  0  0  0
  -25.9071  -34.9418   23.5074 C   0  0  0  0  0  0
  -16.5361  -29.9113   23.6295 C   0  0  0  0  0  0
  -16.7274  -28.6519   23.0330 C   0  0  0  0  0  0
  -26.4535  -31.6544   25.0694 C   0  0  0  0  0  0
  -25.3743  -31.3721   26.1406 C   0  0  0  0  0  0
  -27.0380  -30.2943   24.6193 C   0  0  0  0  0  0
  -27.6079  -32.4290   25.7492 C   0  0  0  0  0  0
  -27.5591  -37.1806   24.8459 C   0  0  0  0  0  0
  -21.4210  -29.3098   22.3637 N   0  0  0  0  0  0
  -26.4298  -37.3747   23.9398 N   0  0  0  0  0  0
  -24.6961  -31.0470   22.0911 N   0  0  0  0  0  0
  -23.4195  -28.8166   23.3014 O   0  0  0  0  0  0
  -28.3462  -26.4000   20.1663 O   0  0  0  0  0  0
  -26.5650  -34.8903   22.4640 O   0  0  0  0  0  0
  -23.5450  -32.1424   23.7162 O   0  0  0  0  0  0
  -29.5668  -19.8329   21.3897 C   0  0  0  0  0  0
  -29.6076  -18.9363   20.3264 C   0  0  0  0  0  0
  -28.8032  -21.3579   19.8198 C   0  0  0  0  0  0
  -28.2349  -23.9563   19.2224 C   0  0  0  0  0  0
  -32.4932  -18.3210   21.2280 C   0  0  0  0  0  0
  -27.2350  -24.5501   21.5281 C   0  0  0  0  0  0
  -34.9766  -18.8702   21.2120 C   0  0  0  0  0  0
  -33.4883  -19.7915   19.3743 C   0  0  0  0  0  0
  -33.2843  -20.6550   21.7122 C   0  0  0  0  0  0
  -30.3460  -17.5383   20.1682 C   0  0  1  0  0  0
  -29.8736  -16.1226   20.8371 C   0  0  2  0  0  0
  -28.2979  -24.9149   20.4783 C   0  0  2  0  0  0
  -33.5648  -19.3881   20.8700 C   0  0  0  0  0  0
  -29.1367  -21.1748   21.1076 N   0  0  0  0  0  0
  -28.4209  -22.5879   19.1133 N   0  0  0  0  0  0
  -31.7889  -17.8012   20.2107 N   0  0  0  0  0  0
  -27.9995  -24.5223   18.1540 O   0  0  0  0  0  0
  -32.2376  -18.0736   22.4089 O   0  0  0  0  0  0
  -29.8398  -16.2387   22.1674 F   0  0  0  0  0  0
  -28.9483  -19.8029   18.9260 S   0  0  0  0  0  0
  -31.4744  -12.5323   19.1839 H   0  0  0  0  0  0
  -30.3429  -11.4574   19.9515 H   0  0  0  0  0  0
  -29.7857  -11.7278   17.5173 H   0  0  0  0  0  0
  -29.6489  -13.4601   17.7332 H   0  0  0  0  0  0
  -27.9004  -11.2778   18.9275 H   0  0  0  0  0  0
  -27.3771  -12.4969   17.8005 H   0  0  0  0  0  0
  -27.6343  -14.2494   19.4525 H   0  0  0  0  0  0
  -28.7024  -12.1826   21.4399 H   0  0  0  0  0  0
  -28.4255  -13.8664   21.7827 H   0  0  0  0  0  0
  -25.2737   -9.5691   22.4774 H   0  0  0  0  0  0
  -24.0008   -7.4618   22.7441 H   0  0  0  0  0  0
  -21.0850   -8.8766   19.8926 H   0  0  0  0  0  0
  -22.3674  -10.9685   19.6182 H   0  0  0  0  0  0
  -21.2004   -7.6155   23.9720 H   0  0  0  0  0  0
  -21.1482   -6.0524   25.9079 H   0  0  0  0  0  0
  -22.0597   -2.7621   23.2830 H   0  0  0  0  0  0
  -22.4093  -11.9842   22.4817 H   0  0  0  0  0  0
  -21.1102  -13.1206   22.2653 H   0  0  0  0  0  0
  -24.6613  -15.8532   20.5258 H   0  0  0  0  0  0
  -26.2746  -15.6273   20.0791 H   0  0  0  0  0  0
  -26.7185  -32.5395   23.1021 H   0  0  0  0  0  0
  -24.9958  -33.9701   25.0284 H   0  0  0  0  0  0
  -22.7272  -31.2938   21.3836 H   0  0  0  0  0  0
  -23.3737  -35.9669   23.3284 H   0  0  0  0  0  0
  -24.3564  -36.8959   22.2043 H   0  0  0  0  0  0
  -23.7324  -37.6544   23.6671 H   0  0  0  0  0  0
  -26.0999  -31.5242   20.5924 H   0  0  0  0  0  0
  -26.8478  -30.8263   21.9993 H   0  0  0  0  0  0
  -28.1228  -28.9359   21.1888 H   0  0  0  0  0  0
  -25.9653  -25.8639   19.0443 H   0  0  0  0  0  0
  -23.9742  -27.2746   19.0305 H   0  0  0  0  0  0
  -23.7696  -30.5675   19.3968 H   0  0  0  0  0  0
  -22.7620  -29.2246   19.8500 H   0  0  0  0  0  0
  -25.1306  -36.1878   25.0816 H   0  0  0  0  0  0
  -20.9941  -28.3349   24.1362 H   0  0  0  0  0  0
  -20.5649  -26.2404   23.3638 H   0  0  0  0  0  0
  -21.6664  -26.7504   22.1218 H   0  0  0  0  0  0
  -19.6981  -25.6328   21.1212 H   0  0  0  0  0  0
  -19.6671  -27.3217   20.6707 H   0  0  0  0  0  0
  -17.4207  -26.6640   21.3989 H   0  0  0  0  0  0
  -18.0376  -26.0121   22.9024 H   0  0  0  0  0  0
  -19.7957  -30.7247   24.2273 H   0  0  0  0  0  0
  -17.5053  -31.6259   24.5228 H   0  0  0  0  0  0
  -15.5372  -30.3035   23.7645 H   0  0  0  0  0  0
  -15.8659  -28.0834   22.7089 H   0  0  0  0  0  0
  -24.5917  -30.7088   25.7725 H   0  0  0  0  0  0
  -24.8953  -32.2909   26.4784 H   0  0  0  0  0  0
  -25.8028  -30.8927   27.0218 H   0  0  0  0  0  0
  -26.2987  -29.6698   24.1156 H   0  0  0  0  0  0
  -27.3997  -29.7176   25.4730 H   0  0  0  0  0  0
  -27.8890  -30.4209   23.9485 H   0  0  0  0  0  0
  -27.2663  -33.3565   26.2099 H   0  0  0  0  0  0
  -28.3881  -32.6881   25.0323 H   0  0  0  0  0  0
  -28.0782  -31.8415   26.5401 H   0  0  0  0  0  0
  -28.2577  -38.0127   24.7447 H   0  0  0  0  0  0
  -28.1108  -36.2640   24.6312 H   0  0  0  0  0  0
  -27.2288  -37.1471   25.8860 H   0  0  0  0  0  0
  -20.9468  -29.8802   21.6785 H   0  0  0  0  0  0
  -26.0178  -38.2828   24.1364 H   0  0  0  0  0  0
  -29.9441  -19.6165   22.3787 H   0  0  0  0  0  0
  -27.3036  -25.2170   22.3872 H   0  0  0  0  0  0
  -27.3826  -23.5256   21.8791 H   0  0  0  0  0  0
  -26.2209  -24.6202   21.1368 H   0  0  0  0  0  0
  -35.2276  -17.9705   20.6519 H   0  0  0  0  0  0
  -35.0761  -18.6349   22.2725 H   0  0  0  0  0  0
  -35.7317  -19.6217   20.9766 H   0  0  0  0  0  0
  -33.6767  -18.9508   18.7024 H   0  0  0  0  0  0
  -34.2103  -20.5728   19.1381 H   0  0  0  0  0  0
  -32.5072  -20.2053   19.1273 H   0  0  0  0  0  0
  -33.3549  -20.4642   22.7842 H   0  0  0  0  0  0
  -32.2861  -21.0463   21.5171 H   0  0  0  0  0  0
  -33.9889  -21.4505   21.4804 H   0  0  0  0  0  0
  -30.2281  -17.3090   19.1085 H   0  0  0  0  0  0
  -28.8323  -15.9956   20.5489 H   0  0  0  0  0  0
  -29.2623  -24.6908   20.9373 H   0  0  0  0  0  0
  -28.2755  -22.3703   18.1381 H   0  0  0  0  0  0
  -32.2059  -17.9486   19.3011 H   0  0  0  0  0  0
  1 25  1  0  0  0
  1 30  2  0  0  0
  1 81  1  0  0  0
  2  3  1  0  0  0
  2 25  1  0  0  0
  2 91  1  0  0  0
  2 92  1  0  0  0
  3  4  1  0  0  0
  3 93  1  0  0  0
  3 94  1  0  0  0
  4  5  1  0  0  0
  4 95  1  0  0  0
  4 96  1  0  0  0
  5  6  1  0  0  0
  5 26  1  0  0  0
  5 97  1  0  0  0
  6 25  1  0  0  0
  6 98  1  0  0  0
  6 99  1  0  0  0
  7  8  2  0  0  0
  7 26  1  0  0  0
  7 29  1  0  0  0
  8  9  1  0  0  0
  8 22  1  0  0  0
  9 10  1  0  0  0
  9 27  2  0  0  0
 10 11  2  0  0  0
 10 15  1  0  0  0
 11 12  1  0  0  0
 11100  1  0  0  0
 12 13  2  0  0  0
 12101  1  0  0  0
 13 14  1  0  0  0
 13 31  1  0  0  0
 14 15  2  0  0  0
 14102  1  0  0  0
 15103  1  0  0  0
 16 17  2  0  0  0
 16 21  1  0  0  0
 16 31  1  0  0  0
 17 18  1  0  0  0
 17104  1  0  0  0
 18 19  2  0  0  0
 18105  1  0  0  0
 19 20  1  0  0  0
 19 24  1  0  0  0
 20 21  2  0  0  0
 20106  1  0  0  0
 21 23  1  0  0  0
 22 28  1  0  0  0
 22 32  2  0  0  0
 26 27  1  0  0  0
 28107  1  0  0  0
 28108  1  0  0  0
 29109  1  0  0  0
 29110  1  0  0  0
 33 34  1  0  0  0
 33 66  1  0  0  0
 33 70  2  0  0  0
 34 36  1  0  0  0
 34 59  1  0  0  0
 34111  1  0  0  0
 35 44  2  0  0  0
 35 45  1  0  0  0
 35 68  1  0  0  0
 36 56  1  0  0  0
 36112  1  0  0  0
 37 39  1  0  0  0
 37 47  1  0  0  0
 37 66  1  0  0  0
 37113  1  0  0  0
 38 43  2  0  0  0
 38 46  1  0  0  0
 38 47  1  0  0  0
 39 64  1  0  0  0
 39 67  2  0  0  0
 40 52  1  0  0  0
 40 53  2  0  0  0
 40 58  1  0  0  0
 41114  1  0  0  0
 41115  1  0  0  0
 41116  1  0  0  0
 41 48  1  0  0  0
 42 43  1  0  0  0
 42 66  1  0  0  0
 42117  1  0  0  0
 42118  1  0  0  0
 43 44  1  0  0  0
 44119  1  0  0  0
 45 46  2  0  0  0
 45120  1  0  0  0
 46121  1  0  0  0
 47122  1  0  0  0
 47123  1  0  0  0
 48 56  1  0  0  0
 48 65  1  0  0  0
 48124  1  0  0  0
 49 50  1  0  0  0
 49 53  1  0  0  0
 49 64  1  0  0  0
 49125  1  0  0  0
 50 51  1  0  0  0
 50126  1  0  0  0
 50127  1  0  0  0
 51 52  1  0  0  0
 51128  1  0  0  0
 51129  1  0  0  0
 52130  1  0  0  0
 52131  1  0  0  0
 53 54  1  0  0  0
 54 55  2  0  0  0
 54132  1  0  0  0
 55 57  1  0  0  0
 55133  1  0  0  0
 56 69  2  0  0  0
 57 58  2  0  0  0
 57134  1  0  0  0
 58135  1  0  0  0
 59 60  1  0  0  0
 59 61  1  0  0  0
 59 62  1  0  0  0
 60136  1  0  0  0
 60137  1  0  0  0
 60138  1  0  0  0
 61139  1  0  0  0
 61140  1  0  0  0
 61141  1  0  0  0
 62142  1  0  0  0
 62143  1  0  0  0
 62144  1  0  0  0
 63 65  1  0  0  0
 63145  1  0  0  0
 63146  1  0  0  0
 63147  1  0  0  0
 64148  1  0  0  0
 65149  1  0  0  0
 68 82  1  0  0  0
 71 72  2  0  0  0
 71 84  1  0  0  0
 71150  1  0  0  0
 72 80  1  0  0  0
 72 90  1  0  0  0
 73 84  2  0  0  0
 73 85  1  0  0  0
 73 90  1  0  0  0
 74 82  1  0  0  0
 74 85  1  0  0  0
 74 87  2  0  0  0
 75 83  1  0  0  0
 75 86  1  0  0  0
 75 88  2  0  0  0
 76151  1  0  0  0
 76152  1  0  0  0
 76153  1  0  0  0
 76 82  1  0  0  0
 77154  1  0  0  0
 77155  1  0  0  0
 77156  1  0  0  0
 77 83  1  0  0  0
 78 83  1  0  0  0
 78157  1  0  0  0
 78158  1  0  0  0
 78159  1  0  0  0
 79 83  1  0  0  0
 79160  1  0  0  0
 79161  1  0  0  0
 79162  1  0  0  0
 80 81  1  0  0  0
 80 86  1  0  0  0
 80163  1  0  0  0
 81 89  1  0  0  0
 81164  1  0  0  0
 82165  1  0  0  0
 85166  1  0  0  0
 86167  1  0  0  0
M  ISO  4   1 100  68 101  81 100  82 101
M  END
> <chiral flag>
0

> <version>
0

> <s_m_source_file>
/data/baiqing/PycharmProjects/Reinvent-master-3.2/result/LINK_invent/BTK/process_docking_weight1_custom_product_contain_oxygen_bond_distance_aromatic_linkinvent_7_9_3/rearranged_h_0185.sdf

> <i_m_source_file_index>
32

> <r_mmod_Potential_Energy-OPLS-2005>
142.12809753418

> <r_mmod_Stretch_Energy-OPLS-2005>
123.203659057617

> <r_mmod_Bend_Energy-OPLS-2005>
276.119934082031

> <r_mmod_Torsional_Energy-OPLS-2005>
216.115158081055

> <r_mmod_Improper_Torsional_Energy-OPLS-2005>
7.40692090988159

> <r_mmod_Van_der_Waal_Energy-OPLS-2005>
105.224678039551

> <r_mmod_Electrostatic_Energy-OPLS-2005>
-420.643218994141

> <r_mmod_Solvation_Energy-OPLS-2005>
-244.845016479492

> <b_mmod_Minimization_Converged-OPLS-2005>
0

> <r_mmod_RMS_Derivative-OPLS-2005>
5.03350925445557

$$$$
32
                    3D
 Structure written by MMmdl.
147155  0  0  1  0            999 V2000
  -30.5229  -15.1051   20.3885 C   0  0  0  0  0  0
  -30.4570  -12.7163   19.4678 C   0  0  0  0  0  0
  -29.5164  -12.4543   18.2686 C   0  0  0  0  0  0
  -28.0863  -12.1839   18.7641 C   0  0  0  0  0  0
  -27.6117  -13.2293   19.8013 C   0  0  2  0  0  0
  -28.6579  -13.4184   20.9172 C   0  0  0  0  0  0
  -25.2453  -13.8115   20.5873 C   0  0  0  0  0  0
  -24.1792  -13.0454   20.9222 C   0  0  0  0  0  0
  -24.6336  -11.6859   20.8746 C   0  0  0  0  0  0
  -23.9025  -10.4265   21.0403 C   0  0  0  0  0  0
  -24.3572   -9.4200   21.9196 C   0  0  0  0  0  0
  -23.6276   -8.2247   22.0760 C   0  0  0  0  0  0
  -22.4253   -8.0256   21.3538 C   0  0  0  0  0  0
  -21.9871   -9.0230   20.4643 C   0  0  0  0  0  0
  -22.7170  -10.2105   20.3060 C   0  0  0  0  0  0
  -21.6823   -6.0714   22.5278 C   0  0  0  0  0  0
  -21.4003   -6.5638   23.8206 C   0  0  0  0  0  0
  -21.3663   -5.6779   24.9188 C   0  0  0  0  0  0
  -21.6036   -4.3046   24.7218 C   0  0  0  0  0  0
  -21.8820   -3.8140   23.4343 C   0  0  0  0  0  0
  -21.9191   -4.6971   22.3397 C   0  0  0  0  0  0
  -22.7757  -13.5224   21.1952 C   0  0  0  0  0  0
  -22.1642   -4.2152   21.0985 F   0  0  0  0  0  0
  -21.5649   -3.4525   25.7733 F   0  0  0  0  0  0
  -29.9037  -13.8531   20.2672 N   0  0  0  0  0  0
  -26.2836  -12.9327   20.3236 N   0  0  0  0  0  0
  -25.9253  -11.6481   20.5710 N   0  0  0  0  0  0
  -22.0413  -12.8237   22.0447 N   0  0  0  0  0  0
  -25.4471  -15.1893   20.4688 N   0  0  0  0  0  0
  -31.7585  -15.0909   20.3038 O   0  0  0  0  0  0
  -21.6626   -6.8850   21.4216 O   0  0  0  0  0  0
  -22.3515  -14.5552   20.6773 O   0  0  0  0  0  0
  -24.6493  -31.8380   23.1795 C   0  0  0  0  0  0
  -25.9223  -32.4653   23.8190 C   0  0  1  0  0  0
  -27.1777  -27.0299   20.1874 C   0  0  0  0  0  0
  -25.5953  -33.8450   24.2144 N   0  0  0  0  0  0
  -23.4491  -30.4551   21.5351 C   0  0  2  0  0  0
  -24.8987  -28.8650   20.1167 C   0  0  0  0  0  0
  -22.7598  -29.4530   22.4918 C   0  0  0  0  0  0
  -18.0268  -28.1406   22.8471 C   0  0  0  0  0  0
  -24.1493  -36.7195   23.2656 C   0  0  0  0  0  0
  -26.0104  -30.6893   21.3780 C   0  0  0  0  0  0
  -26.0809  -29.2777   20.7454 C   0  0  0  0  0  0
  -27.2181  -28.3731   20.7698 C   0  0  0  0  0  0
  -26.0078  -26.7917   19.4307 C   0  0  0  0  0  0
  -24.8805  -27.6388   19.4450 C   0  0  0  0  0  0
  -23.6805  -29.7777   20.1590 C   0  0  0  0  0  0
  -25.4109  -36.2942   24.0332 C   0  0  1  0  0  0
  -20.5895  -28.3716   23.1239 C   0  0  2  0  0  0
  -20.6808  -26.9439   22.5370 C   0  0  0  0  0  0
  -19.5799  -26.6429   21.5184 C   0  0  0  0  0  0
  -18.1951  -26.7927   22.1573 C   0  0  0  0  0  0
  -19.1557  -28.8876   23.2848 C   0  0  0  0  0  0
  -18.9521  -30.1481   23.8848 C   0  0  0  0  0  0
  -17.6562  -30.6628   24.0598 C   0  0  0  0  0  0
  -25.9093  -34.9359   23.5047 C   0  0  0  0  0  0
  -16.5423  -29.9172   23.6362 C   0  0  0  0  0  0
  -16.7257  -28.6569   23.0367 C   0  0  0  0  0  0
  -26.4543  -31.6507   25.0592 C   0  0  0  0  0  0
  -25.3732  -31.3785   26.1301 C   0  0  0  0  0  0
  -27.0287  -30.2880   24.6081 C   0  0  0  0  0  0
  -27.6178  -32.4196   25.7267 C   0  0  0  0  0  0
  -27.5567  -37.1702   24.8496 C   0  0  0  0  0  0
  -21.4291  -29.3064   22.3652 N   0  0  0  0  0  0
  -26.4237  -37.3701   23.9487 N   0  0  0  0  0  0
  -24.7289  -31.0153   22.0889 N   0  0  0  0  0  0
  -23.4208  -28.8103   23.3073 O   0  0  0  0  0  0
  -28.1657  -25.9520   20.2511 O   0  0  0  0  0  0
  -26.5701  -34.8859   22.4652 O   0  0  0  0  0  0
  -23.5598  -32.1264   23.6995 O   0  0  0  0  0  0
  -30.7496  -18.1856   21.7365 C   0  0  0  0  0  0
  -29.9068  -17.8405   20.6979 C   0  0  0  0  0  0
  -29.4636  -20.3523   20.9081 C   0  0  0  0  0  0
  -28.7320  -23.0230   20.2664 C   0  0  0  0  0  0
  -26.3730  -24.0879   21.0283 C   0  0  0  0  0  0
  -27.8819  -24.4354   20.7511 C   0  0  2  0  0  0
  -29.1480  -19.0971   20.3023 N   0  0  0  0  0  0
  -29.7785  -16.3458   20.2385 N   0  0  0  0  0  0
  -28.6993  -21.7396   20.9664 N   0  0  0  0  0  0
  -29.3872  -23.1104   19.2117 O   0  0  0  0  0  0
  -30.7180  -19.9366   22.1431 S   0  0  0  0  0  0
  -31.4560  -12.9395   19.0917 H   0  0  0  0  0  0
  -30.5606  -11.8294   20.0921 H   0  0  0  0  0  0
  -29.8783  -11.5901   17.7064 H   0  0  0  0  0  0
  -29.5227  -13.3001   17.5814 H   0  0  0  0  0  0
  -28.1112  -11.2116   19.2611 H   0  0  0  0  0  0
  -27.3847  -12.0804   17.9385 H   0  0  0  0  0  0
  -27.5239  -14.1675   19.2529 H   0  0  0  0  0  0
  -28.8042  -12.5109   21.5028 H   0  0  0  0  0  0
  -28.3127  -14.1832   21.6158 H   0  0  0  0  0  0
  -25.2737   -9.5693   22.4777 H   0  0  0  0  0  0
  -23.9980   -7.4617   22.7451 H   0  0  0  0  0  0
  -21.0806   -8.8710   19.8929 H   0  0  0  0  0  0
  -22.3621  -10.9657   19.6166 H   0  0  0  0  0  0
  -21.1982   -7.6143   23.9702 H   0  0  0  0  0  0
  -21.1482   -6.0539   25.9089 H   0  0  0  0  0  0
  -22.0608   -2.7611   23.2843 H   0  0  0  0  0  0
  -22.3976  -11.9843   22.4840 H   0  0  0  0  0  0
  -21.1032  -13.1267   22.2634 H   0  0  0  0  0  0
  -24.7322  -15.8573   20.7251 H   0  0  0  0  0  0
  -26.3719  -15.5923   20.4362 H   0  0  0  0  0  0
  -26.7240  -32.5212   23.0874 H   0  0  0  0  0  0
  -25.0035  -33.9587   25.0239 H   0  0  0  0  0  0
  -22.7610  -31.2863   21.3702 H   0  0  0  0  0  0
  -23.3751  -35.9537   23.3225 H   0  0  0  0  0  0
  -24.3612  -36.8883   22.2078 H   0  0  0  0  0  0
  -23.7229  -37.6369   23.6717 H   0  0  0  0  0  0
  -26.1384  -31.4306   20.5874 H   0  0  0  0  0  0
  -26.8965  -30.7722   21.9960 H   0  0  0  0  0  0
  -28.1144  -28.6842   21.2886 H   0  0  0  0  0  0
  -25.9356  -25.9066   18.8134 H   0  0  0  0  0  0
  -23.9768  -27.3291   18.9338 H   0  0  0  0  0  0
  -23.8178  -30.5425   19.3944 H   0  0  0  0  0  0
  -22.7934  -29.2163   19.8539 H   0  0  0  0  0  0
  -25.1290  -36.1731   25.0802 H   0  0  0  0  0  0
  -20.9922  -28.3236   24.1359 H   0  0  0  0  0  0
  -20.5743  -26.2325   23.3571 H   0  0  0  0  0  0
  -21.6672  -26.7512   22.1152 H   0  0  0  0  0  0
  -19.7036  -25.6394   21.1108 H   0  0  0  0  0  0
  -19.6690  -27.3344   20.6822 H   0  0  0  0  0  0
  -17.4231  -26.6689   21.3935 H   0  0  0  0  0  0
  -18.0314  -26.0083   22.8977 H   0  0  0  0  0  0
  -19.8058  -30.7276   24.2127 H   0  0  0  0  0  0
  -17.5173  -31.6210   24.5299 H   0  0  0  0  0  0
  -15.5457  -30.3128   23.7697 H   0  0  0  0  0  0
  -15.8619  -28.0910   22.7131 H   0  0  0  0  0  0
  -24.5962  -30.7089   25.7613 H   0  0  0  0  0  0
  -24.8891  -32.3030   26.4507 H   0  0  0  0  0  0
  -25.7999  -30.9093   27.0215 H   0  0  0  0  0  0
  -26.2798  -29.6651   24.1181 H   0  0  0  0  0  0
  -27.4071  -29.7097   25.4545 H   0  0  0  0  0  0
  -27.8645  -30.4051   23.9166 H   0  0  0  0  0  0
  -27.2998  -33.3739   26.1492 H   0  0  0  0  0  0
  -28.4117  -32.6356   25.0079 H   0  0  0  0  0  0
  -28.0668  -31.8481   26.5449 H   0  0  0  0  0  0
  -28.2550  -38.0019   24.7560 H   0  0  0  0  0  0
  -28.1060  -36.2586   24.6237 H   0  0  0  0  0  0
  -27.2314  -37.1185   25.8890 H   0  0  0  0  0  0
  -20.9547  -29.8696   21.6732 H   0  0  0  0  0  0
  -26.0071  -38.2729   24.1628 H   0  0  0  0  0  0
  -31.3773  -17.5184   22.3441 H   0  0  0  0  0  0
  -26.2154  -23.0131   21.1074 H   0  0  0  0  0  0
  -25.6360  -24.3884   20.2878 H   0  0  0  0  0  0
  -26.0220  -24.4956   21.9805 H   0  0  0  0  0  0
  -28.2751  -24.5125   21.7650 H   0  0  0  0  0  0
  -28.9875  -16.2061   19.6295 H   0  0  0  0  0  0
  -28.1856  -21.8458   21.8583 H   0  0  0  0  0  0
  1 25  1  0  0  0
  1 30  2  0  0  0
  1 78  1  0  0  0
  2  3  1  0  0  0
  2 25  1  0  0  0
  2 82  1  0  0  0
  2 83  1  0  0  0
  3  4  1  0  0  0
  3 84  1  0  0  0
  3 85  1  0  0  0
  4  5  1  0  0  0
  4 86  1  0  0  0
  4 87  1  0  0  0
  5  6  1  0  0  0
  5 26  1  0  0  0
  5 88  1  0  0  0
  6 25  1  0  0  0
  6 89  1  0  0  0
  6 90  1  0  0  0
  7  8  2  0  0  0
  7 26  1  0  0  0
  7 29  1  0  0  0
  8  9  1  0  0  0
  8 22  1  0  0  0
  9 10  1  0  0  0
  9 27  2  0  0  0
 10 11  2  0  0  0
 10 15  1  0  0  0
 11 12  1  0  0  0
 11 91  1  0  0  0
 12 13  2  0  0  0
 12 92  1  0  0  0
 13 14  1  0  0  0
 13 31  1  0  0  0
 14 15  2  0  0  0
 14 93  1  0  0  0
 15 94  1  0  0  0
 16 17  2  0  0  0
 16 21  1  0  0  0
 16 31  1  0  0  0
 17 18  1  0  0  0
 17 95  1  0  0  0
 18 19  2  0  0  0
 18 96  1  0  0  0
 19 20  1  0  0  0
 19 24  1  0  0  0
 20 21  2  0  0  0
 20 97  1  0  0  0
 21 23  1  0  0  0
 22 28  1  0  0  0
 22 32  2  0  0  0
 26 27  1  0  0  0
 28 98  1  0  0  0
 28 99  1  0  0  0
 29100  1  0  0  0
 29101  1  0  0  0
 33 34  1  0  0  0
 33 66  1  0  0  0
 33 70  2  0  0  0
 34 36  1  0  0  0
 34 59  1  0  0  0
 34102  1  0  0  0
 35 44  2  0  0  0
 35 45  1  0  0  0
 35 68  1  0  0  0
 36 56  1  0  0  0
 36103  1  0  0  0
 37 39  1  0  0  0
 37 47  1  0  0  0
 37 66  1  0  0  0
 37104  1  0  0  0
 38 43  2  0  0  0
 38 46  1  0  0  0
 38 47  1  0  0  0
 39 64  1  0  0  0
 39 67  2  0  0  0
 40 52  1  0  0  0
 40 53  2  0  0  0
 40 58  1  0  0  0
 41105  1  0  0  0
 41106  1  0  0  0
 41107  1  0  0  0
 41 48  1  0  0  0
 42 43  1  0  0  0
 42 66  1  0  0  0
 42108  1  0  0  0
 42109  1  0  0  0
 43 44  1  0  0  0
 44110  1  0  0  0
 45 46  2  0  0  0
 45111  1  0  0  0
 46112  1  0  0  0
 47113  1  0  0  0
 47114  1  0  0  0
 48 56  1  0  0  0
 48 65  1  0  0  0
 48115  1  0  0  0
 49 50  1  0  0  0
 49 53  1  0  0  0
 49 64  1  0  0  0
 49116  1  0  0  0
 50 51  1  0  0  0
 50117  1  0  0  0
 50118  1  0  0  0
 51 52  1  0  0  0
 51119  1  0  0  0
 51120  1  0  0  0
 52121  1  0  0  0
 52122  1  0  0  0
 53 54  1  0  0  0
 54 55  2  0  0  0
 54123  1  0  0  0
 55 57  1  0  0  0
 55124  1  0  0  0
 56 69  2  0  0  0
 57 58  2  0  0  0
 57125  1  0  0  0
 58126  1  0  0  0
 59 60  1  0  0  0
 59 61  1  0  0  0
 59 62  1  0  0  0
 60127  1  0  0  0
 60128  1  0  0  0
 60129  1  0  0  0
 61130  1  0  0  0
 61131  1  0  0  0
 61132  1  0  0  0
 62133  1  0  0  0
 62134  1  0  0  0
 62135  1  0  0  0
 63 65  1  0  0  0
 63136  1  0  0  0
 63137  1  0  0  0
 63138  1  0  0  0
 64139  1  0  0  0
 65140  1  0  0  0
 68 76  1  0  0  0
 71 72  2  0  0  0
 71 81  1  0  0  0
 71141  1  0  0  0
 72 77  1  0  0  0
 72 78  1  0  0  0
 73 77  2  0  0  0
 73 79  1  0  0  0
 73 81  1  0  0  0
 74 76  1  0  0  0
 74 79  1  0  0  0
 74 80  2  0  0  0
 75142  1  0  0  0
 75143  1  0  0  0
 75144  1  0  0  0
 75 76  1  0  0  0
 76145  1  0  0  0
 78146  1  0  0  0
 79147  1  0  0  0
M  ISO  4   1 100  68 101  76 101  78 100
M  END
> <chiral flag>
0

> <version>
0

> <s_m_source_file>
/data/baiqing/PycharmProjects/Reinvent-master-3.2/result/LINK_invent/BTK/process_docking_weight1_custom_product_contain_oxygen_bond_distance_aromatic_linkinvent_7_9_3/rearranged_h_0185.sdf

> <i_m_source_file_index>
33

> <r_mmod_Potential_Energy-OPLS-2005>
798.002258300781

> <r_mmod_Stretch_Energy-OPLS-2005>
397.286987304688

> <r_mmod_Bend_Energy-OPLS-2005>
317.484619140625

> <r_mmod_Torsional_Energy-OPLS-2005>
304.396209716797

> <r_mmod_Improper_Torsional_Energy-OPLS-2005>
14.4118642807007

> <r_mmod_Van_der_Waal_Energy-OPLS-2005>
110.834014892578

> <r_mmod_Electrostatic_Energy-OPLS-2005>
-425.489410400391

> <r_mmod_Solvation_Energy-OPLS-2005>
-256.088531494141

> <b_mmod_Minimization_Converged-OPLS-2005>
0

> <r_mmod_RMS_Derivative-OPLS-2005>
19.4947566986084

$$$$
33
                    3D
 Structure written by MMmdl.
154162  0  0  1  0            999 V2000
  -30.6144  -14.7718   20.4351 C   0  0  0  0  0  0
  -30.4314  -12.4667   19.4673 C   0  0  0  0  0  0
  -29.5146  -12.5163   18.2264 C   0  0  0  0  0  0
  -28.0373  -12.3607   18.6371 C   0  0  0  0  0  0
  -27.6509  -13.2419   19.8545 C   0  0  2  0  0  0
  -28.7041  -13.2030   20.9844 C   0  0  0  0  0  0
  -25.2591  -13.8242   20.5686 C   0  0  0  0  0  0
  -24.1884  -13.0440   20.9197 C   0  0  0  0  0  0
  -24.6520  -11.6952   20.8782 C   0  0  0  0  0  0
  -23.9183  -10.4320   21.0442 C   0  0  0  0  0  0
  -24.3711   -9.4211   21.9219 C   0  0  0  0  0  0
  -23.6353   -8.2259   22.0768 C   0  0  0  0  0  0
  -22.4332   -8.0333   21.3545 C   0  0  0  0  0  0
  -22.0002   -9.0327   20.4643 C   0  0  0  0  0  0
  -22.7359  -10.2190   20.3074 C   0  0  0  0  0  0
  -21.6888   -6.0786   22.5271 C   0  0  0  0  0  0
  -21.4029   -6.5668   23.8207 C   0  0  0  0  0  0
  -21.3646   -5.6812   24.9148 C   0  0  0  0  0  0
  -21.6026   -4.3073   24.7208 C   0  0  0  0  0  0
  -21.8813   -3.8178   23.4330 C   0  0  0  0  0  0
  -21.9183   -4.7005   22.3381 C   0  0  0  0  0  0
  -22.7898  -13.5229   21.1806 C   0  0  0  0  0  0
  -22.1658   -4.2193   21.0971 F   0  0  0  0  0  0
  -21.5622   -3.4543   25.7717 F   0  0  0  0  0  0
  -29.9934  -13.5435   20.3807 N   0  0  0  0  0  0
  -26.3051  -12.9461   20.3353 N   0  0  0  0  0  0
  -25.9461  -11.6590   20.5866 N   0  0  0  0  0  0
  -22.0557  -12.8214   22.0373 N   0  0  0  0  0  0
  -25.4149  -15.1971   20.4059 N   0  0  0  0  0  0
  -31.8159  -14.8577   20.1641 O   0  0  0  0  0  0
  -21.6658   -6.8948   21.4254 O   0  0  0  0  0  0
  -22.3548  -14.5491   20.6595 O   0  0  0  0  0  0
  -24.6282  -31.8526   23.1827 C   0  0  0  0  0  0
  -25.9121  -32.4694   23.8243 C   0  0  1  0  0  0
  -27.2540  -27.2684   20.1399 C   0  0  0  0  0  0
  -25.5974  -33.8510   24.2256 N   0  0  0  0  0  0
  -23.4257  -30.4681   21.5186 C   0  0  2  0  0  0
  -24.8746  -28.8886   20.1191 C   0  0  0  0  0  0
  -22.7414  -29.4661   22.4787 C   0  0  0  0  0  0
  -18.0323  -28.1353   22.8496 C   0  0  0  0  0  0
  -24.1524  -36.7227   23.2624 C   0  0  0  0  0  0
  -25.9611  -30.7776   21.3434 C   0  0  0  0  0  0
  -26.0423  -29.3902   20.7077 C   0  0  0  0  0  0
  -27.2253  -28.5901   20.7039 C   0  0  0  0  0  0
  -26.0488  -26.8033   19.5731 C   0  0  0  0  0  0
  -24.8814  -27.5994   19.5568 C   0  0  0  0  0  0
  -23.6366  -29.7667   20.1474 C   0  0  0  0  0  0
  -25.4122  -36.3018   24.0357 C   0  0  1  0  0  0
  -20.5909  -28.3717   23.1184 C   0  0  2  0  0  0
  -20.6744  -26.9417   22.5339 C   0  0  0  0  0  0
  -19.5715  -26.6398   21.5112 C   0  0  0  0  0  0
  -18.1950  -26.7918   22.1586 C   0  0  0  0  0  0
  -19.1571  -28.8833   23.2871 C   0  0  0  0  0  0
  -18.9518  -30.1412   23.8922 C   0  0  0  0  0  0
  -17.6532  -30.6571   24.0583 C   0  0  0  0  0  0
  -25.9084  -34.9394   23.5123 C   0  0  0  0  0  0
  -16.5413  -29.9091   23.6324 C   0  0  0  0  0  0
  -16.7324  -28.6467   23.0412 C   0  0  0  0  0  0
  -26.4531  -31.6443   25.0592 C   0  0  0  0  0  0
  -25.3800  -31.3603   26.1338 C   0  0  0  0  0  0
  -27.0265  -30.2840   24.5955 C   0  0  0  0  0  0
  -27.6161  -32.4030   25.7410 C   0  0  0  0  0  0
  -27.5584  -37.1731   24.8499 C   0  0  0  0  0  0
  -21.4116  -29.3140   22.3565 N   0  0  0  0  0  0
  -26.4288  -37.3715   23.9454 N   0  0  0  0  0  0
  -24.6911  -31.0507   22.0747 N   0  0  0  0  0  0
  -23.4104  -28.8225   23.2912 O   0  0  0  0  0  0
  -28.4155  -26.4720   20.2269 O   0  0  0  0  0  0
  -26.5628  -34.8898   22.4688 O   0  0  0  0  0  0
  -23.5431  -32.1374   23.7124 O   0  0  0  0  0  0
  -31.2336  -17.8457   21.1882 C   0  0  0  0  0  0
  -30.0885  -17.3505   20.6167 C   0  0  0  0  0  0
  -29.6866  -19.7083   20.4701 C   0  0  0  0  0  0
  -28.5124  -25.2211   18.0505 C   0  0  0  0  0  0
  -28.4320  -23.6717   20.1939 C   0  0  0  0  0  0
  -29.5355  -22.4491   20.2477 C   0  0  2  0  0  0
  -28.7408  -25.1579   19.5732 C   0  0  1  0  0  0
  -30.7888  -22.7241   19.3819 C   0  0  0  0  0  0
  -29.2125  -18.4385   20.2306 N   0  0  0  0  0  0
  -29.7998  -15.8973   20.5347 N   0  0  0  0  0  0
  -29.0920  -20.9909   20.1418 N   0  0  0  0  0  0
  -31.5208  -23.6821   19.9487 F   0  0  0  0  0  0
  -31.5830  -21.6651   19.2369 F   0  0  0  0  0  0
  -31.2514  -19.6039   21.2864 S   0  0  0  0  0  0
  -31.4777  -12.5745   19.1748 H   0  0  0  0  0  0
  -30.3486  -11.5016   19.9648 H   0  0  0  0  0  0
  -29.7964  -11.7403   17.5111 H   0  0  0  0  0  0
  -29.6483  -13.4653   17.7025 H   0  0  0  0  0  0
  -27.8671  -11.3109   18.8667 H   0  0  0  0  0  0
  -27.3888  -12.5983   17.7932 H   0  0  0  0  0  0
  -27.6355  -14.2621   19.4734 H   0  0  0  0  0  0
  -28.7679  -12.2307   21.4689 H   0  0  0  0  0  0
  -28.4531  -13.9202   21.7680 H   0  0  0  0  0  0
  -25.2887   -9.5655   22.4776 H   0  0  0  0  0  0
  -24.0029   -7.4675   22.7515 H   0  0  0  0  0  0
  -21.0922   -8.8896   19.8995 H   0  0  0  0  0  0
  -22.3868  -10.9737   19.6174 H   0  0  0  0  0  0
  -21.2053   -7.6189   23.9719 H   0  0  0  0  0  0
  -21.1465   -6.0547   25.9056 H   0  0  0  0  0  0
  -22.0605   -2.7653   23.2809 H   0  0  0  0  0  0
  -22.4208  -11.9894   22.4745 H   0  0  0  0  0  0
  -21.1183  -13.1239   22.2595 H   0  0  0  0  0  0
  -24.6251  -15.8305   20.4838 H   0  0  0  0  0  0
  -26.2519  -15.6588   20.0724 H   0  0  0  0  0  0
  -26.7204  -32.5373   23.0993 H   0  0  0  0  0  0
  -25.0268  -33.9678   25.0506 H   0  0  0  0  0  0
  -22.7295  -31.2916   21.3500 H   0  0  0  0  0  0
  -23.3783  -35.9566   23.3254 H   0  0  0  0  0  0
  -24.3643  -36.8815   22.2041 H   0  0  0  0  0  0
  -23.7291  -37.6437   23.6637 H   0  0  0  0  0  0
  -26.0689  -31.5242   20.5541 H   0  0  0  0  0  0
  -26.8504  -30.8531   21.9589 H   0  0  0  0  0  0
  -28.1196  -28.9790   21.1720 H   0  0  0  0  0  0
  -25.9832  -25.7896   19.2080 H   0  0  0  0  0  0
  -23.9722  -27.1834   19.1428 H   0  0  0  0  0  0
  -23.7286  -30.5122   19.3547 H   0  0  0  0  0  0
  -22.7647  -29.1671   19.8783 H   0  0  0  0  0  0
  -25.1276  -36.1845   25.0844 H   0  0  0  0  0  0
  -21.0142  -28.3307   24.1232 H   0  0  0  0  0  0
  -20.5449  -26.2382   23.3570 H   0  0  0  0  0  0
  -21.6637  -26.7290   22.1244 H   0  0  0  0  0  0
  -19.6861  -25.6310   21.1132 H   0  0  0  0  0  0
  -19.6614  -27.3186   20.6620 H   0  0  0  0  0  0
  -17.4165  -26.6681   21.4032 H   0  0  0  0  0  0
  -18.0418  -26.0015   22.8954 H   0  0  0  0  0  0
  -19.8017  -30.7200   24.2284 H   0  0  0  0  0  0
  -17.5127  -31.6244   24.5177 H   0  0  0  0  0  0
  -15.5427  -30.3041   23.7574 H   0  0  0  0  0  0
  -15.8727  -28.0754   22.7208 H   0  0  0  0  0  0
  -24.6152  -30.6679   25.7782 H   0  0  0  0  0  0
  -24.8782  -32.2738   26.4538 H   0  0  0  0  0  0
  -25.8238  -30.9074   27.0230 H   0  0  0  0  0  0
  -26.2834  -29.6733   24.0801 H   0  0  0  0  0  0
  -27.3753  -29.6896   25.4420 H   0  0  0  0  0  0
  -27.8811  -30.4062   23.9287 H   0  0  0  0  0  0
  -27.2930  -33.3386   26.2001 H   0  0  0  0  0  0
  -28.4117  -32.6378   25.0320 H   0  0  0  0  0  0
  -28.0680  -31.8035   26.5323 H   0  0  0  0  0  0
  -28.2601  -38.0027   24.7569 H   0  0  0  0  0  0
  -28.1082  -36.2562   24.6307 H   0  0  0  0  0  0
  -27.2331  -37.1368   25.8910 H   0  0  0  0  0  0
  -20.9202  -29.8930   21.6881 H   0  0  0  0  0  0
  -26.0131  -38.2780   24.1449 H   0  0  0  0  0  0
  -32.0686  -17.2886   21.5903 H   0  0  0  0  0  0
  -28.9568  -24.3541   17.5650 H   0  0  0  0  0  0
  -28.9723  -26.1089   17.6124 H   0  0  0  0  0  0
  -27.4592  -25.2172   17.7804 H   0  0  0  0  0  0
  -28.1287  -23.8396   21.2266 H   0  0  0  0  0  0
  -27.5315  -23.2971   19.7052 H   0  0  0  0  0  0
  -29.9275  -22.4720   21.2653 H   0  0  0  0  0  0
  -29.8232  -25.2487   19.6463 H   0  0  0  0  0  0
  -30.5403  -23.0336   18.3700 H   0  0  0  0  0  0
  -28.8178  -15.6766   20.5556 H   0  0  0  0  0  0
  -28.2267  -20.8822   19.6251 H   0  0  0  0  0  0
  1 25  1  0  0  0
  1 30  2  0  0  0
  1 80  1  0  0  0
  2  3  1  0  0  0
  2 25  1  0  0  0
  2 85  1  0  0  0
  2 86  1  0  0  0
  3  4  1  0  0  0
  3 87  1  0  0  0
  3 88  1  0  0  0
  4  5  1  0  0  0
  4 89  1  0  0  0
  4 90  1  0  0  0
  5  6  1  0  0  0
  5 26  1  0  0  0
  5 91  1  0  0  0
  6 25  1  0  0  0
  6 92  1  0  0  0
  6 93  1  0  0  0
  7  8  2  0  0  0
  7 26  1  0  0  0
  7 29  1  0  0  0
  8  9  1  0  0  0
  8 22  1  0  0  0
  9 10  1  0  0  0
  9 27  2  0  0  0
 10 11  2  0  0  0
 10 15  1  0  0  0
 11 12  1  0  0  0
 11 94  1  0  0  0
 12 13  2  0  0  0
 12 95  1  0  0  0
 13 14  1  0  0  0
 13 31  1  0  0  0
 14 15  2  0  0  0
 14 96  1  0  0  0
 15 97  1  0  0  0
 16 17  2  0  0  0
 16 21  1  0  0  0
 16 31  1  0  0  0
 17 18  1  0  0  0
 17 98  1  0  0  0
 18 19  2  0  0  0
 18 99  1  0  0  0
 19 20  1  0  0  0
 19 24  1  0  0  0
 20 21  2  0  0  0
 20100  1  0  0  0
 21 23  1  0  0  0
 22 28  1  0  0  0
 22 32  2  0  0  0
 26 27  1  0  0  0
 28101  1  0  0  0
 28102  1  0  0  0
 29103  1  0  0  0
 29104  1  0  0  0
 33 34  1  0  0  0
 33 66  1  0  0  0
 33 70  2  0  0  0
 34 36  1  0  0  0
 34 59  1  0  0  0
 34105  1  0  0  0
 35 44  2  0  0  0
 35 45  1  0  0  0
 35 68  1  0  0  0
 36 56  1  0  0  0
 36106  1  0  0  0
 37 39  1  0  0  0
 37 47  1  0  0  0
 37 66  1  0  0  0
 37107  1  0  0  0
 38 43  2  0  0  0
 38 46  1  0  0  0
 38 47  1  0  0  0
 39 64  1  0  0  0
 39 67  2  0  0  0
 40 52  1  0  0  0
 40 53  2  0  0  0
 40 58  1  0  0  0
 41108  1  0  0  0
 41109  1  0  0  0
 41110  1  0  0  0
 41 48  1  0  0  0
 42 43  1  0  0  0
 42 66  1  0  0  0
 42111  1  0  0  0
 42112  1  0  0  0
 43 44  1  0  0  0
 44113  1  0  0  0
 45 46  2  0  0  0
 45114  1  0  0  0
 46115  1  0  0  0
 47116  1  0  0  0
 47117  1  0  0  0
 48 56  1  0  0  0
 48 65  1  0  0  0
 48118  1  0  0  0
 49 50  1  0  0  0
 49 53  1  0  0  0
 49 64  1  0  0  0
 49119  1  0  0  0
 50 51  1  0  0  0
 50120  1  0  0  0
 50121  1  0  0  0
 51 52  1  0  0  0
 51122  1  0  0  0
 51123  1  0  0  0
 52124  1  0  0  0
 52125  1  0  0  0
 53 54  1  0  0  0
 54 55  2  0  0  0
 54126  1  0  0  0
 55 57  1  0  0  0
 55127  1  0  0  0
 56 69  2  0  0  0
 57 58  2  0  0  0
 57128  1  0  0  0
 58129  1  0  0  0
 59 60  1  0  0  0
 59 61  1  0  0  0
 59 62  1  0  0  0
 60130  1  0  0  0
 60131  1  0  0  0
 60132  1  0  0  0
 61133  1  0  0  0
 61134  1  0  0  0
 61135  1  0  0  0
 62136  1  0  0  0
 62137  1  0  0  0
 62138  1  0  0  0
 63 65  1  0  0  0
 63139  1  0  0  0
 63140  1  0  0  0
 63141  1  0  0  0
 64142  1  0  0  0
 65143  1  0  0  0
 68 77  1  0  0  0
 71 72  2  0  0  0
 71 84  1  0  0  0
 71144  1  0  0  0
 72 79  1  0  0  0
 72 80  1  0  0  0
 73 79  2  0  0  0
 73 81  1  0  0  0
 73 84  1  0  0  0
 74145  1  0  0  0
 74146  1  0  0  0
 74147  1  0  0  0
 74 77  1  0  0  0
 75 77  1  0  0  0
 75148  1  0  0  0
 75149  1  0  0  0
 75 76  1  0  0  0
 76 78  1  0  0  0
 76 81  1  0  0  0
 76150  1  0  0  0
 77151  1  0  0  0
 78 82  1  0  0  0
 78 83  1  0  0  0
 78152  1  0  0  0
 80153  1  0  0  0
 81154  1  0  0  0
M  ISO  4   1 100  68 101  77 101  80 100
M  END
> <chiral flag>
0

> <version>
0

> <s_m_source_file>
/data/baiqing/PycharmProjects/Reinvent-master-3.2/result/LINK_invent/BTK/process_docking_weight1_custom_product_contain_oxygen_bond_distance_aromatic_linkinvent_7_9_3/rearranged_h_0185.sdf

> <i_m_source_file_index>
34

> <r_mmod_Potential_Energy-OPLS-2005>
152.953155517578

> <r_mmod_Stretch_Energy-OPLS-2005>
128.001419067383

> <r_mmod_Bend_Energy-OPLS-2005>
213.350036621094

> <r_mmod_Torsional_Energy-OPLS-2005>
233.256408691406

> <r_mmod_Improper_Torsional_Energy-OPLS-2005>
6.7630877494812

> <r_mmod_Van_der_Waal_Energy-OPLS-2005>
119.208923339844

> <r_mmod_Electrostatic_Energy-OPLS-2005>
-418.466888427734

> <r_mmod_Solvation_Energy-OPLS-2005>
-218.413681030273

> <b_mmod_Minimization_Converged-OPLS-2005>
0

> <r_mmod_RMS_Derivative-OPLS-2005>
6.25931549072266

$$$$
34
                    3D
 Structure written by MMmdl.
156164  0  0  1  0            999 V2000
  -30.6001  -14.7201   20.4764 C   0  0  0  0  0  0
  -30.4404  -12.4385   19.4717 C   0  0  0  0  0  0
  -29.5140  -12.5134   18.2366 C   0  0  0  0  0  0
  -28.0384  -12.3391   18.6471 C   0  0  0  0  0  0
  -27.6491  -13.2256   19.8599 C   0  0  2  0  0  0
  -28.6932  -13.1235   20.9948 C   0  0  0  0  0  0
  -25.2541  -13.8187   20.5693 C   0  0  0  0  0  0
  -24.1819  -13.0440   20.9198 C   0  0  0  0  0  0
  -24.6399  -11.6915   20.8740 C   0  0  0  0  0  0
  -23.9070  -10.4295   21.0405 C   0  0  0  0  0  0
  -24.3621   -9.4210   21.9182 C   0  0  0  0  0  0
  -23.6296   -8.2243   22.0752 C   0  0  0  0  0  0
  -22.4277   -8.0282   21.3544 C   0  0  0  0  0  0
  -21.9912   -9.0255   20.4645 C   0  0  0  0  0  0
  -22.7242  -10.2135   20.3054 C   0  0  0  0  0  0
  -21.6853   -6.0736   22.5280 C   0  0  0  0  0  0
  -21.4015   -6.5641   23.8214 C   0  0  0  0  0  0
  -21.3660   -5.6793   24.9175 C   0  0  0  0  0  0
  -21.6044   -4.3055   24.7226 C   0  0  0  0  0  0
  -21.8819   -3.8147   23.4347 C   0  0  0  0  0  0
  -21.9193   -4.6964   22.3404 C   0  0  0  0  0  0
  -22.7840  -13.5226   21.1861 C   0  0  0  0  0  0
  -22.1661   -4.2150   21.0982 F   0  0  0  0  0  0
  -21.5629   -3.4539   25.7739 F   0  0  0  0  0  0
  -30.0016  -13.4811   20.4270 N   0  0  0  0  0  0
  -26.2971  -12.9382   20.3308 N   0  0  0  0  0  0
  -25.9331  -11.6529   20.5755 N   0  0  0  0  0  0
  -22.0485  -12.8215   22.0417 N   0  0  0  0  0  0
  -25.4244  -15.1911   20.4115 N   0  0  0  0  0  0
  -31.7669  -14.8619   20.0967 O   0  0  0  0  0  0
  -21.6640   -6.8879   21.4242 O   0  0  0  0  0  0
  -22.3525  -14.5532   20.6711 O   0  0  0  0  0  0
  -24.6316  -31.8560   23.1997 C   0  0  0  0  0  0
  -25.9145  -32.4756   23.8338 C   0  0  1  0  0  0
  -27.2193  -27.2619   20.1173 C   0  0  0  0  0  0
  -25.5944  -33.8559   24.2259 N   0  0  0  0  0  0
  -23.4275  -30.4805   21.5432 C   0  0  2  0  0  0
  -24.8731  -28.9313   20.1083 C   0  0  0  0  0  0
  -22.7504  -29.4609   22.4910 C   0  0  0  0  0  0
  -18.0293  -28.1387   22.8487 C   0  0  0  0  0  0
  -24.1490  -36.7279   23.2639 C   0  0  0  0  0  0
  -25.9746  -30.7665   21.3822 C   0  0  0  0  0  0
  -26.0447  -29.3903   20.7221 C   0  0  0  0  0  0
  -27.2163  -28.5664   20.7207 C   0  0  0  0  0  0
  -26.0230  -26.8818   19.4630 C   0  0  0  0  0  0
  -24.8678  -27.6847   19.4693 C   0  0  0  0  0  0
  -23.6450  -29.8184   20.1579 C   0  0  0  0  0  0
  -25.4116  -36.3069   24.0327 C   0  0  1  0  0  0
  -20.5899  -28.3700   23.1265 C   0  0  2  0  0  0
  -20.6781  -26.9417   22.5404 C   0  0  0  0  0  0
  -19.5753  -26.6384   21.5211 C   0  0  0  0  0  0
  -18.1936  -26.7930   22.1626 C   0  0  0  0  0  0
  -19.1548  -28.8861   23.2872 C   0  0  0  0  0  0
  -18.9468  -30.1460   23.8892 C   0  0  0  0  0  0
  -17.6468  -30.6589   24.0561 C   0  0  0  0  0  0
  -25.9060  -34.9440   23.5094 C   0  0  0  0  0  0
  -16.5359  -29.9086   23.6330 C   0  0  0  0  0  0
  -16.7280  -28.6502   23.0356 C   0  0  0  0  0  0
  -26.4511  -31.6585   25.0730 C   0  0  0  0  0  0
  -25.3729  -31.3739   26.1447 C   0  0  0  0  0  0
  -27.0360  -30.2999   24.6227 C   0  0  0  0  0  0
  -27.6060  -32.4331   25.7504 C   0  0  0  0  0  0
  -27.5579  -37.1793   24.8464 C   0  0  0  0  0  0
  -21.4211  -29.3048   22.3653 N   0  0  0  0  0  0
  -26.4287  -37.3771   23.9414 N   0  0  0  0  0  0
  -24.6969  -31.0524   22.0975 N   0  0  0  0  0  0
  -23.4204  -28.8149   23.3008 O   0  0  0  0  0  0
  -28.3213  -26.3728   20.2023 O   0  0  0  0  0  0
  -26.5629  -34.8918   22.4661 O   0  0  0  0  0  0
  -23.5466  -32.1385   23.7291 O   0  0  0  0  0  0
  -30.7984  -17.9405   19.8686 C   0  0  0  0  0  0
  -30.6260  -19.3879   19.9265 C   0  0  0  0  0  0
  -29.6119  -19.8451   20.7493 C   0  0  0  0  0  0
  -29.9283  -17.1865   20.6360 C   0  0  0  0  0  0
  -28.9872  -23.8334   20.6238 C   0  0  0  0  0  0
  -28.2801  -21.2648   22.4473 C   0  0  0  0  0  0
  -29.2835  -21.3111   21.2773 C   0  0  2  0  0  0
  -28.2276  -24.9358   19.7416 C   0  0  2  0  0  0
  -28.7182  -24.8781   18.2788 C   0  0  0  0  0  0
  -31.4989  -20.2167   19.2085 N   0  0  0  0  0  0
  -29.8012  -15.7981   20.8172 N   0  0  0  0  0  0
  -28.8788  -22.4685   20.3660 N   0  0  0  0  0  0
  -29.6413  -24.2249   21.5939 O   0  0  0  0  0  0
  -30.0100  -25.1984   18.1836 F   0  0  0  0  0  0
  -28.0027  -25.6685   17.4780 F   0  0  0  0  0  0
  -28.8312  -18.3679   21.4025 S   0  0  0  0  0  0
  -31.4812  -12.5680   19.1702 H   0  0  0  0  0  0
  -30.3860  -11.4524   19.9357 H   0  0  0  0  0  0
  -29.7925  -11.7501   17.5088 H   0  0  0  0  0  0
  -29.6445  -13.4746   17.7366 H   0  0  0  0  0  0
  -27.8889  -11.2879   18.8962 H   0  0  0  0  0  0
  -27.3827  -12.5463   17.8005 H   0  0  0  0  0  0
  -27.6544  -14.2538   19.4976 H   0  0  0  0  0  0
  -28.7212  -12.1122   21.4034 H   0  0  0  0  0  0
  -28.4272  -13.7759   21.8278 H   0  0  0  0  0  0
  -25.2766   -9.5686   22.4755 H   0  0  0  0  0  0
  -24.0007   -7.4634   22.7470 H   0  0  0  0  0  0
  -21.0843   -8.8774   19.8951 H   0  0  0  0  0  0
  -22.3700  -10.9672   19.6163 H   0  0  0  0  0  0
  -21.2006   -7.6149   23.9718 H   0  0  0  0  0  0
  -21.1482   -6.0523   25.9079 H   0  0  0  0  0  0
  -22.0597   -2.7609   23.2847 H   0  0  0  0  0  0
  -22.4102  -11.9877   22.4805 H   0  0  0  0  0  0
  -21.1101  -13.1237   22.2622 H   0  0  0  0  0  0
  -24.6549  -15.8434   20.5177 H   0  0  0  0  0  0
  -26.2703  -15.6311   20.0724 H   0  0  0  0  0  0
  -26.7211  -32.5401   23.1077 H   0  0  0  0  0  0
  -25.0096  -33.9699   25.0409 H   0  0  0  0  0  0
  -22.7239  -31.3032   21.3994 H   0  0  0  0  0  0
  -23.3756  -35.9607   23.3297 H   0  0  0  0  0  0
  -24.3580  -36.8903   22.2053 H   0  0  0  0  0  0
  -23.7239  -37.6477   23.6665 H   0  0  0  0  0  0
  -26.1172  -31.5280   20.6144 H   0  0  0  0  0  0
  -26.8511  -30.8115   22.0169 H   0  0  0  0  0  0
  -28.1098  -28.9108   21.2221 H   0  0  0  0  0  0
  -25.9320  -25.9458   18.9368 H   0  0  0  0  0  0
  -23.9735  -27.3314   18.9745 H   0  0  0  0  0  0
  -23.7707  -30.5968   19.4043 H   0  0  0  0  0  0
  -22.7628  -29.2537   19.8506 H   0  0  0  0  0  0
  -25.1297  -36.1913   25.0819 H   0  0  0  0  0  0
  -20.9993  -28.3279   24.1385 H   0  0  0  0  0  0
  -20.5678  -26.2314   23.3612 H   0  0  0  0  0  0
  -21.6647  -26.7438   22.1199 H   0  0  0  0  0  0
  -19.6913  -25.6293   21.1246 H   0  0  0  0  0  0
  -19.6688  -27.3190   20.6737 H   0  0  0  0  0  0
  -17.4205  -26.6678   21.4030 H   0  0  0  0  0  0
  -18.0336  -26.0073   22.9024 H   0  0  0  0  0  0
  -19.7945  -30.7275   24.2261 H   0  0  0  0  0  0
  -17.5024  -31.6269   24.5161 H   0  0  0  0  0  0
  -15.5359  -30.2987   23.7655 H   0  0  0  0  0  0
  -15.8681  -28.0816   22.7076 H   0  0  0  0  0  0
  -24.5912  -30.7079   25.7775 H   0  0  0  0  0  0
  -24.8912  -32.2909   26.4850 H   0  0  0  0  0  0
  -25.8044  -30.8934   27.0237 H   0  0  0  0  0  0
  -26.2948  -29.6744   24.1239 H   0  0  0  0  0  0
  -27.4021  -29.7268   25.4757 H   0  0  0  0  0  0
  -27.8839  -30.4267   23.9491 H   0  0  0  0  0  0
  -27.2662  -33.3636   26.2065 H   0  0  0  0  0  0
  -28.3879  -32.6883   25.0338 H   0  0  0  0  0  0
  -28.0722  -31.8469   26.5434 H   0  0  0  0  0  0
  -28.2586  -38.0101   24.7526 H   0  0  0  0  0  0
  -28.1087  -36.2633   24.6269 H   0  0  0  0  0  0
  -27.2302  -37.1414   25.8867 H   0  0  0  0  0  0
  -20.9398  -29.8775   21.6860 H   0  0  0  0  0  0
  -26.0163  -38.2842   24.1426 H   0  0  0  0  0  0
  -31.5767  -17.4982   19.2626 H   0  0  0  0  0  0
  -28.6375  -20.6171   23.2484 H   0  0  0  0  0  0
  -27.3082  -20.8922   22.1228 H   0  0  0  0  0  0
  -28.1239  -22.2478   22.8914 H   0  0  0  0  0  0
  -30.2219  -21.6485   21.7209 H   0  0  0  0  0  0
  -27.1983  -24.5891   19.7923 H   0  0  0  0  0  0
  -28.6207  -23.8685   17.8784 H   0  0  0  0  0  0
  -32.3767  -19.8328   18.8717 H   0  0  0  0  0  0
  -31.5588  -21.1998   19.4532 H   0  0  0  0  0  0
  -28.9173  -15.5116   21.2109 H   0  0  0  0  0  0
  -28.3496  -22.2043   19.5463 H   0  0  0  0  0  0
  1 25  1  0  0  0
  1 30  2  0  0  0
  1 81  1  0  0  0
  2  3  1  0  0  0
  2 25  1  0  0  0
  2 87  1  0  0  0
  2 88  1  0  0  0
  3  4  1  0  0  0
  3 89  1  0  0  0
  3 90  1  0  0  0
  4  5  1  0  0  0
  4 91  1  0  0  0
  4 92  1  0  0  0
  5  6  1  0  0  0
  5 26  1  0  0  0
  5 93  1  0  0  0
  6 25  1  0  0  0
  6 94  1  0  0  0
  6 95  1  0  0  0
  7  8  2  0  0  0
  7 26  1  0  0  0
  7 29  1  0  0  0
  8  9  1  0  0  0
  8 22  1  0  0  0
  9 10  1  0  0  0
  9 27  2  0  0  0
 10 11  2  0  0  0
 10 15  1  0  0  0
 11 12  1  0  0  0
 11 96  1  0  0  0
 12 13  2  0  0  0
 12 97  1  0  0  0
 13 14  1  0  0  0
 13 31  1  0  0  0
 14 15  2  0  0  0
 14 98  1  0  0  0
 15 99  1  0  0  0
 16 17  2  0  0  0
 16 21  1  0  0  0
 16 31  1  0  0  0
 17 18  1  0  0  0
 17100  1  0  0  0
 18 19  2  0  0  0
 18101  1  0  0  0
 19 20  1  0  0  0
 19 24  1  0  0  0
 20 21  2  0  0  0
 20102  1  0  0  0
 21 23  1  0  0  0
 22 28  1  0  0  0
 22 32  2  0  0  0
 26 27  1  0  0  0
 28103  1  0  0  0
 28104  1  0  0  0
 29105  1  0  0  0
 29106  1  0  0  0
 33 34  1  0  0  0
 33 66  1  0  0  0
 33 70  2  0  0  0
 34 36  1  0  0  0
 34 59  1  0  0  0
 34107  1  0  0  0
 35 44  2  0  0  0
 35 45  1  0  0  0
 35 68  1  0  0  0
 36 56  1  0  0  0
 36108  1  0  0  0
 37 39  1  0  0  0
 37 47  1  0  0  0
 37 66  1  0  0  0
 37109  1  0  0  0
 38 43  2  0  0  0
 38 46  1  0  0  0
 38 47  1  0  0  0
 39 64  1  0  0  0
 39 67  2  0  0  0
 40 52  1  0  0  0
 40 53  2  0  0  0
 40 58  1  0  0  0
 41110  1  0  0  0
 41111  1  0  0  0
 41112  1  0  0  0
 41 48  1  0  0  0
 42 43  1  0  0  0
 42 66  1  0  0  0
 42113  1  0  0  0
 42114  1  0  0  0
 43 44  1  0  0  0
 44115  1  0  0  0
 45 46  2  0  0  0
 45116  1  0  0  0
 46117  1  0  0  0
 47118  1  0  0  0
 47119  1  0  0  0
 48 56  1  0  0  0
 48 65  1  0  0  0
 48120  1  0  0  0
 49 50  1  0  0  0
 49 53  1  0  0  0
 49 64  1  0  0  0
 49121  1  0  0  0
 50 51  1  0  0  0
 50122  1  0  0  0
 50123  1  0  0  0
 51 52  1  0  0  0
 51124  1  0  0  0
 51125  1  0  0  0
 52126  1  0  0  0
 52127  1  0  0  0
 53 54  1  0  0  0
 54 55  2  0  0  0
 54128  1  0  0  0
 55 57  1  0  0  0
 55129  1  0  0  0
 56 69  2  0  0  0
 57 58  2  0  0  0
 57130  1  0  0  0
 58131  1  0  0  0
 59 60  1  0  0  0
 59 61  1  0  0  0
 59 62  1  0  0  0
 60132  1  0  0  0
 60133  1  0  0  0
 60134  1  0  0  0
 61135  1  0  0  0
 61136  1  0  0  0
 61137  1  0  0  0
 62138  1  0  0  0
 62139  1  0  0  0
 62140  1  0  0  0
 63 65  1  0  0  0
 63141  1  0  0  0
 63142  1  0  0  0
 63143  1  0  0  0
 64144  1  0  0  0
 65145  1  0  0  0
 68 78  1  0  0  0
 71 72  1  0  0  0
 71 74  2  0  0  0
 71146  1  0  0  0
 72 73  2  0  0  0
 72 80  1  0  0  0
 73 77  1  0  0  0
 73 86  1  0  0  0
 74 81  1  0  0  0
 74 86  1  0  0  0
 75 78  1  0  0  0
 75 82  1  0  0  0
 75 83  2  0  0  0
 76147  1  0  0  0
 76148  1  0  0  0
 76149  1  0  0  0
 76 77  1  0  0  0
 77 82  1  0  0  0
 77150  1  0  0  0
 78 79  1  0  0  0
 78151  1  0  0  0
 79 84  1  0  0  0
 79 85  1  0  0  0
 79152  1  0  0  0
 80153  1  0  0  0
 80154  1  0  0  0
 81155  1  0  0  0
 82156  1  0  0  0
M  ISO  4   1 100  68 101  78 101  81 100
M  END
> <chiral flag>
0

> <version>
0

> <s_m_source_file>
/data/baiqing/PycharmProjects/Reinvent-master-3.2/result/LINK_invent/BTK/process_docking_weight1_custom_product_contain_oxygen_bond_distance_aromatic_linkinvent_7_9_3/rearranged_h_0185.sdf

> <i_m_source_file_index>
35

> <r_mmod_Potential_Energy-OPLS-2005>
105.51976776123

> <r_mmod_Stretch_Energy-OPLS-2005>
115.342193603516

> <r_mmod_Bend_Energy-OPLS-2005>
174.290878295898

> <r_mmod_Torsional_Energy-OPLS-2005>
199.968856811523

> <r_mmod_Improper_Torsional_Energy-OPLS-2005>
7.66158437728882

> <r_mmod_Van_der_Waal_Energy-OPLS-2005>
121.629890441895

> <r_mmod_Electrostatic_Energy-OPLS-2005>
-342.227600097656

> <r_mmod_Solvation_Energy-OPLS-2005>
-249.783126831055

> <b_mmod_Minimization_Converged-OPLS-2005>
0

> <r_mmod_RMS_Derivative-OPLS-2005>
0.281276941299438

$$$$
35
                    3D
 Structure written by MMmdl.
162170  0  0  1  0            999 V2000
  -30.6183  -14.7706   20.5025 C   0  0  0  0  0  0
  -30.4348  -12.4790   19.4877 C   0  0  0  0  0  0
  -29.5161  -12.5283   18.2462 C   0  0  0  0  0  0
  -28.0446  -12.3379   18.6594 C   0  0  0  0  0  0
  -27.6460  -13.2363   19.8600 C   0  0  2  0  0  0
  -28.6870  -13.1691   20.9991 C   0  0  0  0  0  0
  -25.2516  -13.8197   20.5702 C   0  0  0  0  0  0
  -24.1806  -13.0440   20.9192 C   0  0  0  0  0  0
  -24.6403  -11.6917   20.8744 C   0  0  0  0  0  0
  -23.9081  -10.4293   21.0410 C   0  0  0  0  0  0
  -24.3626   -9.4200   21.9188 C   0  0  0  0  0  0
  -23.6295   -8.2238   22.0757 C   0  0  0  0  0  0
  -22.4274   -8.0279   21.3545 C   0  0  0  0  0  0
  -21.9915   -9.0256   20.4649 C   0  0  0  0  0  0
  -22.7250  -10.2131   20.3059 C   0  0  0  0  0  0
  -21.6846   -6.0733   22.5283 C   0  0  0  0  0  0
  -21.4014   -6.5642   23.8214 C   0  0  0  0  0  0
  -21.3659   -5.6796   24.9176 C   0  0  0  0  0  0
  -21.6046   -4.3059   24.7228 C   0  0  0  0  0  0
  -21.8822   -3.8146   23.4351 C   0  0  0  0  0  0
  -21.9191   -4.6962   22.3404 C   0  0  0  0  0  0
  -22.7825  -13.5214   21.1866 C   0  0  0  0  0  0
  -22.1658   -4.2145   21.0985 F   0  0  0  0  0  0
  -21.5627   -3.4544   25.7742 F   0  0  0  0  0  0
  -29.9895  -13.5399   20.4280 N   0  0  0  0  0  0
  -26.2959  -12.9422   20.3317 N   0  0  0  0  0  0
  -25.9343  -11.6556   20.5759 N   0  0  0  0  0  0
  -22.0482  -12.8193   22.0422 N   0  0  0  0  0  0
  -25.4214  -15.1920   20.4121 N   0  0  0  0  0  0
  -31.7589  -14.8864   20.0435 O   0  0  0  0  0  0
  -21.6635   -6.8876   21.4240 O   0  0  0  0  0  0
  -22.3502  -14.5524   20.6715 O   0  0  0  0  0  0
  -24.6352  -31.8509   23.1981 C   0  0  0  0  0  0
  -25.9165  -32.4736   23.8325 C   0  0  1  0  0  0
  -27.2151  -27.2224   20.1490 C   0  0  0  0  0  0
  -25.5940  -33.8538   24.2231 N   0  0  0  0  0  0
  -23.4354  -30.4727   21.5408 C   0  0  2  0  0  0
  -24.8860  -28.9155   20.1102 C   0  0  0  0  0  0
  -22.7538  -29.4568   22.4897 C   0  0  0  0  0  0
  -18.0300  -28.1399   22.8478 C   0  0  0  0  0  0
  -24.1476  -36.7257   23.2646 C   0  0  0  0  0  0
  -25.9847  -30.7498   21.3882 C   0  0  0  0  0  0
  -26.0567  -29.3684   20.7333 C   0  0  0  0  0  0
  -27.2262  -28.5340   20.7437 C   0  0  0  0  0  0
  -26.0397  -26.8690   19.4561 C   0  0  0  0  0  0
  -24.8841  -27.6743   19.4568 C   0  0  0  0  0  0
  -23.6585  -29.8073   20.1573 C   0  0  0  0  0  0
  -25.4106  -36.3043   24.0320 C   0  0  1  0  0  0
  -20.5906  -28.3701   23.1267 C   0  0  2  0  0  0
  -20.6778  -26.9402   22.5432 C   0  0  0  0  0  0
  -19.5756  -26.6370   21.5231 C   0  0  0  0  0  0
  -18.1924  -26.7946   22.1610 C   0  0  0  0  0  0
  -19.1557  -28.8868   23.2865 C   0  0  0  0  0  0
  -18.9478  -30.1470   23.8881 C   0  0  0  0  0  0
  -17.6476  -30.6591   24.0567 C   0  0  0  0  0  0
  -25.9058  -34.9425   23.5076 C   0  0  0  0  0  0
  -16.5365  -29.9088   23.6346 C   0  0  0  0  0  0
  -16.7287  -28.6513   23.0354 C   0  0  0  0  0  0
  -26.4518  -31.6595   25.0743 C   0  0  0  0  0  0
  -25.3718  -31.3783   26.1454 C   0  0  0  0  0  0
  -27.0393  -30.3002   24.6291 C   0  0  0  0  0  0
  -27.6043  -32.4383   25.7511 C   0  0  0  0  0  0
  -27.5567  -37.1781   24.8468 C   0  0  0  0  0  0
  -21.4237  -29.3033   22.3642 N   0  0  0  0  0  0
  -26.4269  -37.3754   23.9425 N   0  0  0  0  0  0
  -24.7040  -31.0440   22.0982 N   0  0  0  0  0  0
  -23.4221  -28.8104   23.3007 O   0  0  0  0  0  0
  -28.2764  -26.2762   20.1792 O   0  0  0  0  0  0
  -26.5634  -34.8917   22.4647 O   0  0  0  0  0  0
  -23.5496  -32.1344   23.7255 O   0  0  0  0  0  0
  -29.8445  -18.6469   20.4016 C   0  0  0  0  0  0
  -31.1285  -19.1534   20.4068 C   0  0  0  0  0  0
  -29.4385  -21.0346   20.4742 C   0  0  0  0  0  0
  -28.9990  -23.6392   20.3007 C   0  0  0  0  0  0
  -32.3979  -18.3713   20.3084 C   0  0  0  0  0  0
  -25.8301  -23.6619   20.5940 C   0  0  0  0  0  0
  -26.8621  -23.9158   22.8906 C   0  0  0  0  0  0
  -29.9776  -16.1705   22.3889 C   0  0  0  0  0  0
  -29.4484  -17.1176   20.1408 C   0  0  0  0  0  0
  -28.1374  -24.9074   20.8600 C   0  0  2  0  0  0
  -26.7423  -24.5366   21.4827 C   0  0  0  0  0  0
  -28.9067  -19.7595   20.4651 N   0  0  0  0  0  0
  -28.6764  -22.3100   20.5957 N   0  0  0  0  0  0
  -29.9208  -15.8969   20.9537 N   0  0  0  0  0  0
  -29.9821  -23.8915   19.5983 O   0  0  0  0  0  0
  -31.1953  -20.9237   20.4558 S   0  0  0  0  0  0
  -31.4773  -12.5991   19.1880 H   0  0  0  0  0  0
  -30.3779  -11.5005   19.9675 H   0  0  0  0  0  0
  -29.8056  -11.7593   17.5282 H   0  0  0  0  0  0
  -29.6354  -13.4851   17.7353 H   0  0  0  0  0  0
  -27.9147  -11.2886   18.9267 H   0  0  0  0  0  0
  -27.3844  -12.5206   17.8108 H   0  0  0  0  0  0
  -27.6422  -14.2601   19.4850 H   0  0  0  0  0  0
  -28.7297  -12.1685   21.4319 H   0  0  0  0  0  0
  -28.4026  -13.8387   21.8111 H   0  0  0  0  0  0
  -25.2770   -9.5664   22.4765 H   0  0  0  0  0  0
  -23.9994   -7.4629   22.7479 H   0  0  0  0  0  0
  -21.0843   -8.8784   19.8960 H   0  0  0  0  0  0
  -22.3713  -10.9672   19.6169 H   0  0  0  0  0  0
  -21.2011   -7.6152   23.9711 H   0  0  0  0  0  0
  -21.1476   -6.0529   25.9076 H   0  0  0  0  0  0
  -22.0602   -2.7608   23.2860 H   0  0  0  0  0  0
  -22.4102  -11.9844   22.4794 H   0  0  0  0  0  0
  -21.1112  -13.1224   22.2667 H   0  0  0  0  0  0
  -24.6574  -15.8487   20.5255 H   0  0  0  0  0  0
  -26.2787  -15.6310   20.1027 H   0  0  0  0  0  0
  -26.7229  -32.5380   23.1060 H   0  0  0  0  0  0
  -25.0104  -33.9660   25.0387 H   0  0  0  0  0  0
  -22.7332  -31.2954   21.3925 H   0  0  0  0  0  0
  -23.3751  -35.9578   23.3303 H   0  0  0  0  0  0
  -24.3550  -36.8900   22.2062 H   0  0  0  0  0  0
  -23.7224  -37.6442   23.6695 H   0  0  0  0  0  0
  -26.1326  -31.5066   20.6161 H   0  0  0  0  0  0
  -26.8591  -30.7992   22.0255 H   0  0  0  0  0  0
  -28.1201  -28.8692   21.2507 H   0  0  0  0  0  0
  -26.0057  -25.9343   18.9210 H   0  0  0  0  0  0
  -23.9962  -27.3303   18.9442 H   0  0  0  0  0  0
  -23.7883  -30.5836   19.4021 H   0  0  0  0  0  0
  -22.7770  -29.2422   19.8495 H   0  0  0  0  0  0
  -25.1291  -36.1863   25.0809 H   0  0  0  0  0  0
  -21.0001  -28.3299   24.1387 H   0  0  0  0  0  0
  -20.5666  -26.2310   23.3648 H   0  0  0  0  0  0
  -21.6650  -26.7403   22.1245 H   0  0  0  0  0  0
  -19.6910  -25.6275   21.1269 H   0  0  0  0  0  0
  -19.6716  -27.3176   20.6758 H   0  0  0  0  0  0
  -17.4220  -26.6746   21.3981 H   0  0  0  0  0  0
  -18.0258  -26.0074   22.8977 H   0  0  0  0  0  0
  -19.7958  -30.7290   24.2231 H   0  0  0  0  0  0
  -17.5040  -31.6268   24.5179 H   0  0  0  0  0  0
  -15.5368  -30.2994   23.7674 H   0  0  0  0  0  0
  -15.8683  -28.0835   22.7065 H   0  0  0  0  0  0
  -24.5996  -30.6974   25.7856 H   0  0  0  0  0  0
  -24.8772  -32.2949   26.4688 H   0  0  0  0  0  0
  -25.8050  -30.9185   27.0347 H   0  0  0  0  0  0
  -26.3018  -29.6732   24.1271 H   0  0  0  0  0  0
  -27.4002  -29.7293   25.4856 H   0  0  0  0  0  0
  -27.8920  -30.4263   23.9613 H   0  0  0  0  0  0
  -27.2616  -33.3703   26.2023 H   0  0  0  0  0  0
  -28.3872  -32.6925   25.0351 H   0  0  0  0  0  0
  -28.0695  -31.8570   26.5481 H   0  0  0  0  0  0
  -28.2593  -38.0072   24.7502 H   0  0  0  0  0  0
  -28.1047  -36.2599   24.6295 H   0  0  0  0  0  0
  -27.2295  -37.1447   25.8876 H   0  0  0  0  0  0
  -20.9430  -29.8740   21.6826 H   0  0  0  0  0  0
  -26.0134  -38.2809   24.1478 H   0  0  0  0  0  0
  -32.3227  -17.5943   19.5472 H   0  0  0  0  0  0
  -32.6342  -17.8919   21.2575 H   0  0  0  0  0  0
  -33.2392  -19.0111   20.0410 H   0  0  0  0  0  0
  -24.7845  -23.7874   20.8784 H   0  0  0  0  0  0
  -26.0520  -22.5992   20.6900 H   0  0  0  0  0  0
  -25.9150  -23.9062   19.5374 H   0  0  0  0  0  0
  -25.8784  -23.7618   23.3354 H   0  0  0  0  0  0
  -27.4160  -24.5700   23.5662 H   0  0  0  0  0  0
  -27.3690  -22.9514   22.8820 H   0  0  0  0  0  0
  -29.1642  -16.8284   22.6967 H   0  0  0  0  0  0
  -30.9212  -16.6518   22.6483 H   0  0  0  0  0  0
  -29.8985  -15.2566   22.9802 H   0  0  0  0  0  0
  -29.6983  -16.8934   19.1028 H   0  0  0  0  0  0
  -28.3605  -17.0527   20.1622 H   0  0  0  0  0  0
  -28.7341  -25.1415   21.7419 H   0  0  0  0  0  0
  -26.2009  -25.4612   21.6656 H   0  0  0  0  0  0
  -27.7735  -22.2044   21.0323 H   0  0  0  0  0  0
  1 25  1  0  0  0
  1 30  2  0  0  0
  1 84  1  0  0  0
  2  3  1  0  0  0
  2 25  1  0  0  0
  2 87  1  0  0  0
  2 88  1  0  0  0
  3  4  1  0  0  0
  3 89  1  0  0  0
  3 90  1  0  0  0
  4  5  1  0  0  0
  4 91  1  0  0  0
  4 92  1  0  0  0
  5  6  1  0  0  0
  5 26  1  0  0  0
  5 93  1  0  0  0
  6 25  1  0  0  0
  6 94  1  0  0  0
  6 95  1  0  0  0
  7  8  2  0  0  0
  7 26  1  0  0  0
  7 29  1  0  0  0
  8  9  1  0  0  0
  8 22  1  0  0  0
  9 10  1  0  0  0
  9 27  2  0  0  0
 10 11  2  0  0  0
 10 15  1  0  0  0
 11 12  1  0  0  0
 11 96  1  0  0  0
 12 13  2  0  0  0
 12 97  1  0  0  0
 13 14  1  0  0  0
 13 31  1  0  0  0
 14 15  2  0  0  0
 14 98  1  0  0  0
 15 99  1  0  0  0
 16 17  2  0  0  0
 16 21  1  0  0  0
 16 31  1  0  0  0
 17 18  1  0  0  0
 17100  1  0  0  0
 18 19  2  0  0  0
 18101  1  0  0  0
 19 20  1  0  0  0
 19 24  1  0  0  0
 20 21  2  0  0  0
 20102  1  0  0  0
 21 23  1  0  0  0
 22 28  1  0  0  0
 22 32  2  0  0  0
 26 27  1  0  0  0
 28103  1  0  0  0
 28104  1  0  0  0
 29105  1  0  0  0
 29106  1  0  0  0
 33 34  1  0  0  0
 33 66  1  0  0  0
 33 70  2  0  0  0
 34 36  1  0  0  0
 34 59  1  0  0  0
 34107  1  0  0  0
 35 44  2  0  0  0
 35 45  1  0  0  0
 35 68  1  0  0  0
 36 56  1  0  0  0
 36108  1  0  0  0
 37 39  1  0  0  0
 37 47  1  0  0  0
 37 66  1  0  0  0
 37109  1  0  0  0
 38 43  2  0  0  0
 38 46  1  0  0  0
 38 47  1  0  0  0
 39 64  1  0  0  0
 39 67  2  0  0  0
 40 52  1  0  0  0
 40 53  2  0  0  0
 40 58  1  0  0  0
 41110  1  0  0  0
 41111  1  0  0  0
 41112  1  0  0  0
 41 48  1  0  0  0
 42 43  1  0  0  0
 42 66  1  0  0  0
 42113  1  0  0  0
 42114  1  0  0  0
 43 44  1  0  0  0
 44115  1  0  0  0
 45 46  2  0  0  0
 45116  1  0  0  0
 46117  1  0  0  0
 47118  1  0  0  0
 47119  1  0  0  0
 48 56  1  0  0  0
 48 65  1  0  0  0
 48120  1  0  0  0
 49 50  1  0  0  0
 49 53  1  0  0  0
 49 64  1  0  0  0
 49121  1  0  0  0
 50 51  1  0  0  0
 50122  1  0  0  0
 50123  1  0  0  0
 51 52  1  0  0  0
 51124  1  0  0  0
 51125  1  0  0  0
 52126  1  0  0  0
 52127  1  0  0  0
 53 54  1  0  0  0
 54 55  2  0  0  0
 54128  1  0  0  0
 55 57  1  0  0  0
 55129  1  0  0  0
 56 69  2  0  0  0
 57 58  2  0  0  0
 57130  1  0  0  0
 58131  1  0  0  0
 59 60  1  0  0  0
 59 61  1  0  0  0
 59 62  1  0  0  0
 60132  1  0  0  0
 60133  1  0  0  0
 60134  1  0  0  0
 61135  1  0  0  0
 61136  1  0  0  0
 61137  1  0  0  0
 62138  1  0  0  0
 62139  1  0  0  0
 62140  1  0  0  0
 63 65  1  0  0  0
 63141  1  0  0  0
 63142  1  0  0  0
 63143  1  0  0  0
 64144  1  0  0  0
 65145  1  0  0  0
 68 80  1  0  0  0
 71 72  2  0  0  0
 71 79  1  0  0  0
 71 82  1  0  0  0
 72 75  1  0  0  0
 72 86  1  0  0  0
 73 82  2  0  0  0
 73 83  1  0  0  0
 73 86  1  0  0  0
 74 80  1  0  0  0
 74 83  1  0  0  0
 74 85  2  0  0  0
 75146  1  0  0  0
 75147  1  0  0  0
 75148  1  0  0  0
 76149  1  0  0  0
 76150  1  0  0  0
 76151  1  0  0  0
 76 81  1  0  0  0
 77 81  1  0  0  0
 77152  1  0  0  0
 77153  1  0  0  0
 77154  1  0  0  0
 78 84  1  0  0  0
 78155  1  0  0  0
 78156  1  0  0  0
 78157  1  0  0  0
 79 84  1  0  0  0
 79158  1  0  0  0
 79159  1  0  0  0
 80 81  1  0  0  0
 80160  1  0  0  0
 81161  1  0  0  0
 83162  1  0  0  0
M  ISO  4   1 100  68 101  80 101  84 100
M  END
> <chiral flag>
0

> <version>
0

> <s_m_source_file>
/data/baiqing/PycharmProjects/Reinvent-master-3.2/result/LINK_invent/BTK/process_docking_weight1_custom_product_contain_oxygen_bond_distance_aromatic_linkinvent_7_9_3/rearranged_h_0185.sdf

> <i_m_source_file_index>
36

> <r_mmod_Potential_Energy-OPLS-2005>
325.823822021484

> <r_mmod_Stretch_Energy-OPLS-2005>
154.087524414062

> <r_mmod_Bend_Energy-OPLS-2005>
214.911209106445

> <r_mmod_Torsional_Energy-OPLS-2005>
313.109497070312

> <r_mmod_Improper_Torsional_Energy-OPLS-2005>
5.06993818283081

> <r_mmod_Van_der_Waal_Energy-OPLS-2005>
108.802154541016

> <r_mmod_Electrostatic_Energy-OPLS-2005>
-355.82421875

> <r_mmod_Solvation_Energy-OPLS-2005>
-218.011047363281

> <b_mmod_Minimization_Converged-OPLS-2005>
0

> <r_mmod_RMS_Derivative-OPLS-2005>
1.36679434776306

$$$$
36
                    3D
 Structure written by MMmdl.
162170  0  0  1  0            999 V2000
  -30.6276  -14.6254   20.5866 C   0  0  0  0  0  0
  -30.4523  -12.4060   19.4525 C   0  0  0  0  0  0
  -29.5162  -12.5409   18.2285 C   0  0  0  0  0  0
  -28.0370  -12.3733   18.6327 C   0  0  0  0  0  0
  -27.6600  -13.2198   19.8791 C   0  0  2  0  0  0
  -28.7055  -13.0250   21.0045 C   0  0  0  0  0  0
  -25.2409  -13.8059   20.5465 C   0  0  0  0  0  0
  -24.1742  -13.0327   20.9092 C   0  0  0  0  0  0
  -24.6396  -11.6849   20.8723 C   0  0  0  0  0  0
  -23.9066  -10.4252   21.0409 C   0  0  0  0  0  0
  -24.3615   -9.4179   21.9186 C   0  0  0  0  0  0
  -23.6279   -8.2222   22.0771 C   0  0  0  0  0  0
  -22.4267   -8.0263   21.3552 C   0  0  0  0  0  0
  -21.9898   -9.0237   20.4653 C   0  0  0  0  0  0
  -22.7233  -10.2106   20.3055 C   0  0  0  0  0  0
  -21.6850   -6.0719   22.5279 C   0  0  0  0  0  0
  -21.3999   -6.5626   23.8210 C   0  0  0  0  0  0
  -21.3657   -5.6782   24.9175 C   0  0  0  0  0  0
  -21.6045   -4.3042   24.7224 C   0  0  0  0  0  0
  -21.8823   -3.8131   23.4346 C   0  0  0  0  0  0
  -21.9202   -4.6947   22.3405 C   0  0  0  0  0  0
  -22.7779  -13.5136   21.1813 C   0  0  0  0  0  0
  -22.1661   -4.2127   21.0981 F   0  0  0  0  0  0
  -21.5640   -3.4532   25.7737 F   0  0  0  0  0  0
  -30.0329  -13.3922   20.4691 N   0  0  0  0  0  0
  -26.2995  -12.9336   20.3365 N   0  0  0  0  0  0
  -25.9358  -11.6486   20.5814 N   0  0  0  0  0  0
  -22.0460  -12.8171   22.0416 N   0  0  0  0  0  0
  -25.3765  -15.1719   20.3647 N   0  0  0  0  0  0
  -31.7157  -14.8799   20.0624 O   0  0  0  0  0  0
  -21.6641   -6.8854   21.4238 O   0  0  0  0  0  0
  -22.3447  -14.5455   20.6701 O   0  0  0  0  0  0
  -24.6226  -31.8608   23.2038 C   0  0  0  0  0  0
  -25.9078  -32.4791   23.8371 C   0  0  1  0  0  0
  -27.2484  -27.3509   20.1388 C   0  0  0  0  0  0
  -25.5904  -33.8591   24.2296 N   0  0  0  0  0  0
  -23.4185  -30.4790   21.5449 C   0  0  2  0  0  0
  -24.8735  -28.9263   20.1287 C   0  0  0  0  0  0
  -22.7458  -29.4620   22.4960 C   0  0  0  0  0  0
  -18.0285  -28.1376   22.8492 C   0  0  0  0  0  0
  -24.1484  -36.7297   23.2635 C   0  0  0  0  0  0
  -25.9543  -30.7989   21.3734 C   0  0  0  0  0  0
  -26.0357  -29.4199   20.7377 C   0  0  0  0  0  0
  -27.2271  -28.6399   20.7428 C   0  0  0  0  0  0
  -26.0703  -26.8935   19.5156 C   0  0  0  0  0  0
  -24.8885  -27.6624   19.5143 C   0  0  0  0  0  0
  -23.6369  -29.8016   20.1656 C   0  0  0  0  0  0
  -25.4108  -36.3089   24.0329 C   0  0  1  0  0  0
  -20.5881  -28.3678   23.1287 C   0  0  2  0  0  0
  -20.6770  -26.9402   22.5411 C   0  0  0  0  0  0
  -19.5753  -26.6381   21.5206 C   0  0  0  0  0  0
  -18.1932  -26.7919   22.1622 C   0  0  0  0  0  0
  -19.1535  -28.8847   23.2884 C   0  0  0  0  0  0
  -18.9455  -30.1449   23.8901 C   0  0  0  0  0  0
  -17.6456  -30.6583   24.0564 C   0  0  0  0  0  0
  -25.9039  -34.9458   23.5113 C   0  0  0  0  0  0
  -16.5348  -29.9082   23.6328 C   0  0  0  0  0  0
  -16.7272  -28.6496   23.0357 C   0  0  0  0  0  0
  -26.4484  -31.6591   25.0727 C   0  0  0  0  0  0
  -25.3728  -31.3726   26.1462 C   0  0  0  0  0  0
  -27.0312  -30.3017   24.6144 C   0  0  0  0  0  0
  -27.6057  -32.4318   25.7485 C   0  0  0  0  0  0
  -27.5579  -37.1794   24.8458 C   0  0  0  0  0  0
  -21.4180  -29.3025   22.3679 N   0  0  0  0  0  0
  -26.4288  -37.3781   23.9409 N   0  0  0  0  0  0
  -24.6831  -31.0638   22.0980 N   0  0  0  0  0  0
  -23.4181  -28.8171   23.3048 O   0  0  0  0  0  0
  -28.3866  -26.5584   20.0103 O   0  0  0  0  0  0
  -26.5612  -34.8916   22.4682 O   0  0  0  0  0  0
  -23.5390  -32.1393   23.7372 O   0  0  0  0  0  0
  -28.3701  -17.4498   21.1058 C   0  0  0  0  0  0
  -29.6002  -16.9461   20.9943 C   0  0  0  0  0  0
  -28.1946  -18.8446   20.7581 C   0  0  0  0  0  0
  -28.8594  -23.7990   22.7231 C   0  0  0  0  0  0
  -26.8309  -20.6672   20.0183 C   0  0  0  0  0  0
  -28.8885  -25.7709   21.1260 C   0  0  0  0  0  0
  -29.6003  -20.7703   21.4311 C   0  0  0  0  0  0
  -28.6256  -24.1957   21.2488 C   0  0  1  0  0  0
  -29.2782  -23.1333   20.2314 C   0  0  1  0  0  0
  -30.0810  -23.7838   19.0742 C   0  0  0  0  0  0
  -27.0070  -19.3453   20.5769 N   0  0  0  0  0  0
  -29.4365  -19.5060   20.6440 N   0  0  0  0  0  0
  -29.8645  -15.5554   21.2272 N   0  0  0  0  0  0
  -30.1170  -21.9878   20.7380 N   0  0  0  0  0  0
  -27.3334  -16.6470   21.3771 F   0  0  0  0  0  0
  -29.3232  -24.6180   18.3656 F   0  0  0  0  0  0
  -31.1512  -24.4307   19.5341 F   0  0  0  0  0  0
  -30.5028  -22.8243   18.2466 F   0  0  0  0  0  0
  -30.7366  -18.2676   20.6433 S   0  0  0  0  0  0
  -31.4909  -12.5506   19.1510 H   0  0  0  0  0  0
  -30.4003  -11.3967   19.8644 H   0  0  0  0  0  0
  -29.7819  -11.8052   17.4688 H   0  0  0  0  0  0
  -29.6608  -13.5186   17.7650 H   0  0  0  0  0  0
  -27.8722  -11.3155   18.8408 H   0  0  0  0  0  0
  -27.3848  -12.6203   17.7939 H   0  0  0  0  0  0
  -27.6888  -14.2657   19.5713 H   0  0  0  0  0  0
  -28.7170  -11.9849   21.3330 H   0  0  0  0  0  0
  -28.4318  -13.6007   21.8899 H   0  0  0  0  0  0
  -25.2771   -9.5654   22.4739 H   0  0  0  0  0  0
  -23.9994   -7.4621   22.7493 H   0  0  0  0  0  0
  -21.0832   -8.8747   19.8962 H   0  0  0  0  0  0
  -22.3699  -10.9637   19.6149 H   0  0  0  0  0  0
  -21.1979   -7.6134   23.9695 H   0  0  0  0  0  0
  -21.1468   -6.0521   25.9072 H   0  0  0  0  0  0
  -22.0609   -2.7592   23.2867 H   0  0  0  0  0  0
  -22.4078  -11.9835   22.4797 H   0  0  0  0  0  0
  -21.1093  -13.1227   22.2659 H   0  0  0  0  0  0
  -24.6094  -15.8040   20.5590 H   0  0  0  0  0  0
  -26.2731  -15.6466   20.3460 H   0  0  0  0  0  0
  -26.7154  -32.5488   23.1138 H   0  0  0  0  0  0
  -25.0050  -33.9743   25.0437 H   0  0  0  0  0  0
  -22.7120  -31.2977   21.3950 H   0  0  0  0  0  0
  -23.3740  -35.9634   23.3300 H   0  0  0  0  0  0
  -24.3570  -36.8912   22.2046 H   0  0  0  0  0  0
  -23.7243  -37.6503   23.6655 H   0  0  0  0  0  0
  -26.0737  -31.5512   20.5926 H   0  0  0  0  0  0
  -26.8394  -30.8635   21.9943 H   0  0  0  0  0  0
  -28.1290  -29.0255   21.1975 H   0  0  0  0  0  0
  -26.0693  -25.9303   19.0247 H   0  0  0  0  0  0
  -24.0000  -27.2781   19.0328 H   0  0  0  0  0  0
  -23.7492  -30.5698   19.3994 H   0  0  0  0  0  0
  -22.7612  -29.2202   19.8710 H   0  0  0  0  0  0
  -25.1282  -36.1945   25.0821 H   0  0  0  0  0  0
  -20.9981  -28.3250   24.1405 H   0  0  0  0  0  0
  -20.5665  -26.2283   23.3602 H   0  0  0  0  0  0
  -21.6637  -26.7425   22.1208 H   0  0  0  0  0  0
  -19.6913  -25.6295   21.1222 H   0  0  0  0  0  0
  -19.6694  -27.3200   20.6744 H   0  0  0  0  0  0
  -17.4197  -26.6672   21.4023 H   0  0  0  0  0  0
  -18.0337  -26.0058   22.9019 H   0  0  0  0  0  0
  -19.7931  -30.7262   24.2277 H   0  0  0  0  0  0
  -17.5007  -31.6260   24.5168 H   0  0  0  0  0  0
  -15.5348  -30.2982   23.7652 H   0  0  0  0  0  0
  -15.8673  -28.0810   22.7079 H   0  0  0  0  0  0
  -24.5899  -30.7078   25.7795 H   0  0  0  0  0  0
  -24.8926  -32.2892   26.4898 H   0  0  0  0  0  0
  -25.8058  -30.8896   27.0233 H   0  0  0  0  0  0
  -26.2867  -29.6777   24.1182 H   0  0  0  0  0  0
  -27.4038  -29.7262   25.4631 H   0  0  0  0  0  0
  -27.8730  -30.4312   23.9335 H   0  0  0  0  0  0
  -27.2679  -33.3615   26.2078 H   0  0  0  0  0  0
  -28.3859  -32.6881   25.0304 H   0  0  0  0  0  0
  -28.0736  -31.8431   26.5387 H   0  0  0  0  0  0
  -28.2593  -38.0096   24.7516 H   0  0  0  0  0  0
  -28.1080  -36.2627   24.6269 H   0  0  0  0  0  0
  -27.2295  -37.1419   25.8861 H   0  0  0  0  0  0
  -20.9366  -29.8709   21.6852 H   0  0  0  0  0  0
  -26.0167  -38.2848   24.1436 H   0  0  0  0  0  0
  -28.3607  -24.4861   23.4068 H   0  0  0  0  0  0
  -29.9214  -23.8058   22.9712 H   0  0  0  0  0  0
  -28.4612  -22.8162   22.9572 H   0  0  0  0  0  0
  -25.8430  -20.7493   19.5634 H   0  0  0  0  0  0
  -27.5476  -20.8689   19.2209 H   0  0  0  0  0  0
  -26.8855  -21.4426   20.7834 H   0  0  0  0  0  0
  -29.9642  -25.9382   21.1692 H   0  0  0  0  0  0
  -28.5076  -26.2550   22.0270 H   0  0  0  0  0  0
  -30.3393  -20.5373   22.1995 H   0  0  0  0  0  0
  -28.6965  -20.9949   21.9926 H   0  0  0  0  0  0
  -27.5504  -24.0950   21.0976 H   0  0  0  0  0  0
  -28.4408  -22.6793   19.7159 H   0  0  0  0  0  0
  -29.0795  -15.1094   21.6761 H   0  0  0  0  0  0
  -30.7465  -21.7215   19.9862 H   0  0  0  0  0  0
  1 25  1  0  0  0
  1 30  2  0  0  0
  1 83  1  0  0  0
  2  3  1  0  0  0
  2 25  1  0  0  0
  2 90  1  0  0  0
  2 91  1  0  0  0
  3  4  1  0  0  0
  3 92  1  0  0  0
  3 93  1  0  0  0
  4  5  1  0  0  0
  4 94  1  0  0  0
  4 95  1  0  0  0
  5  6  1  0  0  0
  5 26  1  0  0  0
  5 96  1  0  0  0
  6 25  1  0  0  0
  6 97  1  0  0  0
  6 98  1  0  0  0
  7  8  2  0  0  0
  7 26  1  0  0  0
  7 29  1  0  0  0
  8  9  1  0  0  0
  8 22  1  0  0  0
  9 10  1  0  0  0
  9 27  2  0  0  0
 10 11  2  0  0  0
 10 15  1  0  0  0
 11 12  1  0  0  0
 11 99  1  0  0  0
 12 13  2  0  0  0
 12100  1  0  0  0
 13 14  1  0  0  0
 13 31  1  0  0  0
 14 15  2  0  0  0
 14101  1  0  0  0
 15102  1  0  0  0
 16 17  2  0  0  0
 16 21  1  0  0  0
 16 31  1  0  0  0
 17 18  1  0  0  0
 17103  1  0  0  0
 18 19  2  0  0  0
 18104  1  0  0  0
 19 20  1  0  0  0
 19 24  1  0  0  0
 20 21  2  0  0  0
 20105  1  0  0  0
 21 23  1  0  0  0
 22 28  1  0  0  0
 22 32  2  0  0  0
 26 27  1  0  0  0
 28106  1  0  0  0
 28107  1  0  0  0
 29108  1  0  0  0
 29109  1  0  0  0
 33 34  1  0  0  0
 33 66  1  0  0  0
 33 70  2  0  0  0
 34 36  1  0  0  0
 34 59  1  0  0  0
 34110  1  0  0  0
 35 44  2  0  0  0
 35 45  1  0  0  0
 35 68  1  0  0  0
 36 56  1  0  0  0
 36111  1  0  0  0
 37 39  1  0  0  0
 37 47  1  0  0  0
 37 66  1  0  0  0
 37112  1  0  0  0
 38 43  2  0  0  0
 38 46  1  0  0  0
 38 47  1  0  0  0
 39 64  1  0  0  0
 39 67  2  0  0  0
 40 52  1  0  0  0
 40 53  2  0  0  0
 40 58  1  0  0  0
 41113  1  0  0  0
 41114  1  0  0  0
 41115  1  0  0  0
 41 48  1  0  0  0
 42 43  1  0  0  0
 42 66  1  0  0  0
 42116  1  0  0  0
 42117  1  0  0  0
 43 44  1  0  0  0
 44118  1  0  0  0
 45 46  2  0  0  0
 45119  1  0  0  0
 46120  1  0  0  0
 47121  1  0  0  0
 47122  1  0  0  0
 48 56  1  0  0  0
 48 65  1  0  0  0
 48123  1  0  0  0
 49 50  1  0  0  0
 49 53  1  0  0  0
 49 64  1  0  0  0
 49124  1  0  0  0
 50 51  1  0  0  0
 50125  1  0  0  0
 50126  1  0  0  0
 51 52  1  0  0  0
 51127  1  0  0  0
 51128  1  0  0  0
 52129  1  0  0  0
 52130  1  0  0  0
 53 54  1  0  0  0
 54 55  2  0  0  0
 54131  1  0  0  0
 55 57  1  0  0  0
 55132  1  0  0  0
 56 69  2  0  0  0
 57 58  2  0  0  0
 57133  1  0  0  0
 58134  1  0  0  0
 59 60  1  0  0  0
 59 61  1  0  0  0
 59 62  1  0  0  0
 60135  1  0  0  0
 60136  1  0  0  0
 60137  1  0  0  0
 61138  1  0  0  0
 61139  1  0  0  0
 61140  1  0  0  0
 62141  1  0  0  0
 62142  1  0  0  0
 62143  1  0  0  0
 63 65  1  0  0  0
 63144  1  0  0  0
 63145  1  0  0  0
 63146  1  0  0  0
 64147  1  0  0  0
 65148  1  0  0  0
 68 76  1  0  0  0
 71 72  2  0  0  0
 71 73  1  0  0  0
 71 85  1  0  0  0
 72 83  1  0  0  0
 72 89  1  0  0  0
 73 81  2  0  0  0
 73 82  1  0  0  0
 74149  1  0  0  0
 74150  1  0  0  0
 74151  1  0  0  0
 74 78  1  0  0  0
 75 81  1  0  0  0
 75152  1  0  0  0
 75153  1  0  0  0
 75154  1  0  0  0
 76 78  1  0  0  0
 76155  1  0  0  0
 76156  1  0  0  0
 77 82  1  0  0  0
 77 84  1  0  0  0
 77157  1  0  0  0
 77158  1  0  0  0
 78 79  1  0  0  0
 78159  1  0  0  0
 79 80  1  0  0  0
 79 84  1  0  0  0
 79160  1  0  0  0
 80 86  1  0  0  0
 80 87  1  0  0  0
 80 88  1  0  0  0
 82 89  1  0  0  0
 83161  1  0  0  0
 84162  1  0  0  0
M  ISO  4   1 100  68 101  76 101  83 100
M  END
> <chiral flag>
0

> <version>
0

> <s_m_source_file>
/data/baiqing/PycharmProjects/Reinvent-master-3.2/result/LINK_invent/BTK/process_docking_weight1_custom_product_contain_oxygen_bond_distance_aromatic_linkinvent_7_9_3/rearranged_h_0185.sdf

> <i_m_source_file_index>
37

> <r_mmod_Potential_Energy-OPLS-2005>
290.853912353516

> <r_mmod_Stretch_Energy-OPLS-2005>
80.1676483154297

> <r_mmod_Bend_Energy-OPLS-2005>
261.936889648438

> <r_mmod_Torsional_Energy-OPLS-2005>
308.554260253906

> <r_mmod_Improper_Torsional_Energy-OPLS-2005>
10.080171585083

> <r_mmod_Van_der_Waal_Energy-OPLS-2005>
132.113189697266

> <r_mmod_Electrostatic_Energy-OPLS-2005>
-336.05712890625

> <r_mmod_Solvation_Energy-OPLS-2005>
-204.14013671875

> <b_mmod_Minimization_Converged-OPLS-2005>
0

> <r_mmod_RMS_Derivative-OPLS-2005>
2.18041944503784

$$$$
37
                    3D
 Structure written by MMmdl.
158166  0  0  1  0            999 V2000
  -30.7272  -14.4875   20.4692 C   0  0  0  0  0  0
  -30.4057  -12.2877   19.4382 C   0  0  0  0  0  0
  -29.4938  -12.4741   18.2094 C   0  0  0  0  0  0
  -28.0137  -12.3519   18.6177 C   0  0  0  0  0  0
  -27.6536  -13.2154   19.8579 C   0  0  2  0  0  0
  -28.6993  -13.0592   20.9860 C   0  0  0  0  0  0
  -25.2564  -13.8178   20.5677 C   0  0  0  0  0  0
  -24.1832  -13.0440   20.9189 C   0  0  0  0  0  0
  -24.6397  -11.6909   20.8733 C   0  0  0  0  0  0
  -23.9060  -10.4296   21.0400 C   0  0  0  0  0  0
  -24.3615   -9.4206   21.9172 C   0  0  0  0  0  0
  -23.6294   -8.2237   22.0737 C   0  0  0  0  0  0
  -22.4275   -8.0276   21.3535 C   0  0  0  0  0  0
  -21.9913   -9.0247   20.4631 C   0  0  0  0  0  0
  -22.7237  -10.2130   20.3045 C   0  0  0  0  0  0
  -21.6853   -6.0734   22.5278 C   0  0  0  0  0  0
  -21.4016   -6.5637   23.8209 C   0  0  0  0  0  0
  -21.3659   -5.6788   24.9173 C   0  0  0  0  0  0
  -21.6050   -4.3050   24.7226 C   0  0  0  0  0  0
  -21.8815   -3.8140   23.4344 C   0  0  0  0  0  0
  -21.9193   -4.6962   22.3403 C   0  0  0  0  0  0
  -22.7859  -13.5225   21.1851 C   0  0  0  0  0  0
  -22.1662   -4.2146   21.0981 F   0  0  0  0  0  0
  -21.5627   -3.4539   25.7740 F   0  0  0  0  0  0
  -30.0278  -13.3205   20.4158 N   0  0  0  0  0  0
  -26.2990  -12.9363   20.3306 N   0  0  0  0  0  0
  -25.9325  -11.6513   20.5753 N   0  0  0  0  0  0
  -22.0498  -12.8222   22.0404 N   0  0  0  0  0  0
  -25.4276  -15.1898   20.4097 N   0  0  0  0  0  0
  -31.9258  -14.5286   20.1851 O   0  0  0  0  0  0
  -21.6634   -6.8879   21.4240 O   0  0  0  0  0  0
  -22.3546  -14.5532   20.6695 O   0  0  0  0  0  0
  -24.6157  -31.8708   23.2152 C   0  0  0  0  0  0
  -25.9054  -32.4835   23.8435 C   0  0  1  0  0  0
  -27.2051  -27.4267   20.0813 C   0  0  0  0  0  0
  -25.5920  -33.8642   24.2362 N   0  0  0  0  0  0
  -23.4013  -30.5014   21.5575 C   0  0  2  0  0  0
  -24.8386  -28.9841   20.1073 C   0  0  0  0  0  0
  -22.7426  -29.4674   22.5001 C   0  0  0  0  0  0
  -18.0281  -28.1385   22.8485 C   0  0  0  0  0  0
  -24.1487  -36.7321   23.2636 C   0  0  0  0  0  0
  -25.9360  -30.8328   21.3723 C   0  0  0  0  0  0
  -26.0063  -29.4737   20.7072 C   0  0  0  0  0  0
  -27.1956  -28.7046   20.6901 C   0  0  0  0  0  0
  -26.0181  -26.9782   19.4493 C   0  0  0  0  0  0
  -24.8407  -27.7362   19.4728 C   0  0  0  0  0  0
  -23.6045  -29.8503   20.1667 C   0  0  0  0  0  0
  -25.4108  -36.3123   24.0338 C   0  0  1  0  0  0
  -20.5870  -28.3671   23.1312 C   0  0  2  0  0  0
  -20.6769  -26.9412   22.5409 C   0  0  0  0  0  0
  -19.5742  -26.6398   21.5211 C   0  0  0  0  0  0
  -18.1922  -26.7930   22.1623 C   0  0  0  0  0  0
  -19.1526  -28.8842   23.2892 C   0  0  0  0  0  0
  -18.9454  -30.1451   23.8902 C   0  0  0  0  0  0
  -17.6456  -30.6585   24.0570 C   0  0  0  0  0  0
  -25.9034  -34.9487   23.5139 C   0  0  0  0  0  0
  -16.5347  -29.9089   23.6332 C   0  0  0  0  0  0
  -16.7264  -28.6508   23.0343 C   0  0  0  0  0  0
  -26.4478  -31.6611   25.0764 C   0  0  0  0  0  0
  -25.3746  -31.3726   26.1513 C   0  0  0  0  0  0
  -27.0296  -30.3048   24.6140 C   0  0  0  0  0  0
  -27.6053  -32.4333   25.7517 C   0  0  0  0  0  0
  -27.5583  -37.1817   24.8466 C   0  0  0  0  0  0
  -21.4151  -29.3044   22.3736 N   0  0  0  0  0  0
  -26.4299  -37.3802   23.9404 N   0  0  0  0  0  0
  -24.6695  -31.0816   22.1057 N   0  0  0  0  0  0
  -23.4204  -28.8203   23.3027 O   0  0  0  0  0  0
  -28.3311  -26.6204   20.1414 O   0  0  0  0  0  0
  -26.5589  -34.8929   22.4699 O   0  0  0  0  0  0
  -23.5351  -32.1473   23.7542 O   0  0  0  0  0  0
  -29.5781  -18.0441   20.5361 C   0  0  0  0  0  0
  -31.4816  -18.2710   18.5744 C   0  0  0  0  0  0
  -29.8507  -19.3339   20.0062 C   0  0  0  0  0  0
  -30.8184  -19.4420   18.9765 C   0  0  0  0  0  0
  -30.3042  -16.9114   20.0814 C   0  0  0  0  0  0
  -29.5350  -21.6822   20.7939 C   0  0  0  0  0  0
  -27.6728  -22.6836   22.1732 C   0  0  0  0  0  0
  -29.0883  -24.2447   20.6787 C   0  0  0  0  0  0
  -28.0326  -25.2091   20.1094 C   0  0  0  0  0  0
  -28.4911  -22.8120   20.8709 C   0  0  1  0  0  0
  -31.2291  -17.0614   19.1027 N   0  0  0  0  0  0
  -31.1150  -20.6555   18.3446 N   0  0  0  0  0  0
  -29.0852  -20.4679   20.4167 N   0  0  0  0  0  0
  -30.0046  -15.6203   20.6418 N   0  0  0  0  0  0
  -30.7115  -21.9130   21.0851 O   0  0  0  0  0  0
  -31.4543  -12.3450   19.1404 H   0  0  0  0  0  0
  -30.2720  -11.2939   19.8689 H   0  0  0  0  0  0
  -29.7317  -11.7310   17.4470 H   0  0  0  0  0  0
  -29.6758  -13.4484   17.7519 H   0  0  0  0  0  0
  -27.8195  -11.3013   18.8331 H   0  0  0  0  0  0
  -27.3670  -12.6115   17.7781 H   0  0  0  0  0  0
  -27.6798  -14.2531   19.5266 H   0  0  0  0  0  0
  -28.6686  -12.0490   21.3977 H   0  0  0  0  0  0
  -28.4813  -13.7320   21.8167 H   0  0  0  0  0  0
  -25.2767   -9.5686   22.4739 H   0  0  0  0  0  0
  -24.0004   -7.4633   22.7461 H   0  0  0  0  0  0
  -21.0838   -8.8762   19.8952 H   0  0  0  0  0  0
  -22.3684  -10.9663   19.6149 H   0  0  0  0  0  0
  -21.2009   -7.6144   23.9722 H   0  0  0  0  0  0
  -21.1489   -6.0513   25.9079 H   0  0  0  0  0  0
  -22.0598   -2.7602   23.2846 H   0  0  0  0  0  0
  -22.4115  -11.9898   22.4826 H   0  0  0  0  0  0
  -21.1108  -13.1234   22.2579 H   0  0  0  0  0  0
  -24.6609  -15.8442   20.5278 H   0  0  0  0  0  0
  -26.2709  -15.6317   20.0662 H   0  0  0  0  0  0
  -26.7121  -32.5535   23.1192 H   0  0  0  0  0  0
  -25.0091  -33.9814   25.0516 H   0  0  0  0  0  0
  -22.6904  -31.3197   21.4275 H   0  0  0  0  0  0
  -23.3746  -35.9656   23.3315 H   0  0  0  0  0  0
  -24.3584  -36.8925   22.2050 H   0  0  0  0  0  0
  -23.7242  -37.6537   23.6633 H   0  0  0  0  0  0
  -26.0594  -31.6041   20.6106 H   0  0  0  0  0  0
  -26.8216  -30.8739   21.9949 H   0  0  0  0  0  0
  -28.0923  -29.0720   21.1698 H   0  0  0  0  0  0
  -25.9634  -26.0294   18.9381 H   0  0  0  0  0  0
  -23.9463  -27.3582   18.9975 H   0  0  0  0  0  0
  -23.7144  -30.6330   19.4150 H   0  0  0  0  0  0
  -22.7261  -29.2749   19.8666 H   0  0  0  0  0  0
  -25.1278  -36.2005   25.0830 H   0  0  0  0  0  0
  -20.9945  -28.3224   24.1439 H   0  0  0  0  0  0
  -20.5695  -26.2273   23.3591 H   0  0  0  0  0  0
  -21.6634  -26.7471   22.1186 H   0  0  0  0  0  0
  -19.6909  -25.6320   21.1221 H   0  0  0  0  0  0
  -19.6676  -27.3218   20.6753 H   0  0  0  0  0  0
  -17.4196  -26.6681   21.4024 H   0  0  0  0  0  0
  -18.0321  -26.0074   22.9017 H   0  0  0  0  0  0
  -19.7931  -30.7270   24.2263 H   0  0  0  0  0  0
  -17.5013  -31.6258   24.5189 H   0  0  0  0  0  0
  -15.5349  -30.2994   23.7656 H   0  0  0  0  0  0
  -15.8663  -28.0839   22.7047 H   0  0  0  0  0  0
  -24.5896  -30.7087   25.7867 H   0  0  0  0  0  0
  -24.8954  -32.2886   26.4984 H   0  0  0  0  0  0
  -25.8102  -30.8890   27.0265 H   0  0  0  0  0  0
  -26.2837  -29.6827   24.1172 H   0  0  0  0  0  0
  -27.4043  -29.7268   25.4602 H   0  0  0  0  0  0
  -27.8691  -30.4369   23.9306 H   0  0  0  0  0  0
  -27.2666  -33.3627   26.2112 H   0  0  0  0  0  0
  -28.3843  -32.6916   25.0327 H   0  0  0  0  0  0
  -28.0732  -31.8451   26.5422 H   0  0  0  0  0  0
  -28.2611  -38.0105   24.7508 H   0  0  0  0  0  0
  -28.1073  -36.2644   24.6293 H   0  0  0  0  0  0
  -27.2305  -37.1473   25.8870 H   0  0  0  0  0  0
  -20.9319  -29.8798   21.6982 H   0  0  0  0  0  0
  -26.0199  -38.2887   24.1396 H   0  0  0  0  0  0
  -28.8237  -17.9320   21.3016 H   0  0  0  0  0  0
  -32.2283  -18.3004   17.7938 H   0  0  0  0  0  0
  -28.2888  -22.8714   23.0535 H   0  0  0  0  0  0
  -27.2443  -21.6854   22.2795 H   0  0  0  0  0  0
  -26.8389  -23.3850   22.1985 H   0  0  0  0  0  0
  -29.4653  -24.6174   21.6313 H   0  0  0  0  0  0
  -29.9399  -24.2265   19.9971 H   0  0  0  0  0  0
  -27.1223  -25.0342   20.6831 H   0  0  0  0  0  0
  -27.8265  -24.9115   19.0798 H   0  0  0  0  0  0
  -27.8153  -22.6343   20.0309 H   0  0  0  0  0  0
  -32.0165  -20.7127   17.8811 H   0  0  0  0  0  0
  -30.9530  -21.4752   18.9230 H   0  0  0  0  0  0
  -28.0831  -20.3630   20.3642 H   0  0  0  0  0  0
  -29.0799  -15.5056   21.0217 H   0  0  0  0  0  0
  1 25  1  0  0  0
  1 30  2  0  0  0
  1 84  1  0  0  0
  2  3  1  0  0  0
  2 25  1  0  0  0
  2 86  1  0  0  0
  2 87  1  0  0  0
  3  4  1  0  0  0
  3 88  1  0  0  0
  3 89  1  0  0  0
  4  5  1  0  0  0
  4 90  1  0  0  0
  4 91  1  0  0  0
  5  6  1  0  0  0
  5 26  1  0  0  0
  5 92  1  0  0  0
  6 25  1  0  0  0
  6 93  1  0  0  0
  6 94  1  0  0  0
  7  8  2  0  0  0
  7 26  1  0  0  0
  7 29  1  0  0  0
  8  9  1  0  0  0
  8 22  1  0  0  0
  9 10  1  0  0  0
  9 27  2  0  0  0
 10 11  2  0  0  0
 10 15  1  0  0  0
 11 12  1  0  0  0
 11 95  1  0  0  0
 12 13  2  0  0  0
 12 96  1  0  0  0
 13 14  1  0  0  0
 13 31  1  0  0  0
 14 15  2  0  0  0
 14 97  1  0  0  0
 15 98  1  0  0  0
 16 17  2  0  0  0
 16 21  1  0  0  0
 16 31  1  0  0  0
 17 18  1  0  0  0
 17 99  1  0  0  0
 18 19  2  0  0  0
 18100  1  0  0  0
 19 20  1  0  0  0
 19 24  1  0  0  0
 20 21  2  0  0  0
 20101  1  0  0  0
 21 23  1  0  0  0
 22 28  1  0  0  0
 22 32  2  0  0  0
 26 27  1  0  0  0
 28102  1  0  0  0
 28103  1  0  0  0
 29104  1  0  0  0
 29105  1  0  0  0
 33 34  1  0  0  0
 33 66  1  0  0  0
 33 70  2  0  0  0
 34 36  1  0  0  0
 34 59  1  0  0  0
 34106  1  0  0  0
 35 44  2  0  0  0
 35 45  1  0  0  0
 35 68  1  0  0  0
 36 56  1  0  0  0
 36107  1  0  0  0
 37 39  1  0  0  0
 37 47  1  0  0  0
 37 66  1  0  0  0
 37108  1  0  0  0
 38 43  2  0  0  0
 38 46  1  0  0  0
 38 47  1  0  0  0
 39 64  1  0  0  0
 39 67  2  0  0  0
 40 52  1  0  0  0
 40 53  2  0  0  0
 40 58  1  0  0  0
 41109  1  0  0  0
 41110  1  0  0  0
 41111  1  0  0  0
 41 48  1  0  0  0
 42 43  1  0  0  0
 42 66  1  0  0  0
 42112  1  0  0  0
 42113  1  0  0  0
 43 44  1  0  0  0
 44114  1  0  0  0
 45 46  2  0  0  0
 45115  1  0  0  0
 46116  1  0  0  0
 47117  1  0  0  0
 47118  1  0  0  0
 48 56  1  0  0  0
 48 65  1  0  0  0
 48119  1  0  0  0
 49 50  1  0  0  0
 49 53  1  0  0  0
 49 64  1  0  0  0
 49120  1  0  0  0
 50 51  1  0  0  0
 50121  1  0  0  0
 50122  1  0  0  0
 51 52  1  0  0  0
 51123  1  0  0  0
 51124  1  0  0  0
 52125  1  0  0  0
 52126  1  0  0  0
 53 54  1  0  0  0
 54 55  2  0  0  0
 54127  1  0  0  0
 55 57  1  0  0  0
 55128  1  0  0  0
 56 69  2  0  0  0
 57 58  2  0  0  0
 57129  1  0  0  0
 58130  1  0  0  0
 59 60  1  0  0  0
 59 61  1  0  0  0
 59 62  1  0  0  0
 60131  1  0  0  0
 60132  1  0  0  0
 60133  1  0  0  0
 61134  1  0  0  0
 61135  1  0  0  0
 61136  1  0  0  0
 62137  1  0  0  0
 62138  1  0  0  0
 62139  1  0  0  0
 63 65  1  0  0  0
 63140  1  0  0  0
 63141  1  0  0  0
 63142  1  0  0  0
 64143  1  0  0  0
 65144  1  0  0  0
 68 79  1  0  0  0
 71 73  2  0  0  0
 71 75  1  0  0  0
 71145  1  0  0  0
 72 74  2  0  0  0
 72 81  1  0  0  0
 72146  1  0  0  0
 73 74  1  0  0  0
 73 83  1  0  0  0
 74 82  1  0  0  0
 75 81  2  0  0  0
 75 84  1  0  0  0
 76 80  1  0  0  0
 76 83  1  0  0  0
 76 85  2  0  0  0
 77147  1  0  0  0
 77148  1  0  0  0
 77149  1  0  0  0
 77 80  1  0  0  0
 78 79  1  0  0  0
 78 80  1  0  0  0
 78150  1  0  0  0
 78151  1  0  0  0
 79152  1  0  0  0
 79153  1  0  0  0
 80154  1  0  0  0
 82155  1  0  0  0
 82156  1  0  0  0
 83157  1  0  0  0
 84158  1  0  0  0
M  ISO  4   1 100  68 101  79 101  84 100
M  END
> <chiral flag>
0

> <version>
0

> <s_m_source_file>
/data/baiqing/PycharmProjects/Reinvent-master-3.2/result/LINK_invent/BTK/process_docking_weight1_custom_product_contain_oxygen_bond_distance_aromatic_linkinvent_7_9_3/rearranged_h_0185.sdf

> <i_m_source_file_index>
38

> <r_mmod_Potential_Energy-OPLS-2005>
-178.827041625977

> <r_mmod_Stretch_Energy-OPLS-2005>
40.7701110839844

> <r_mmod_Bend_Energy-OPLS-2005>
100.906272888184

> <r_mmod_Torsional_Energy-OPLS-2005>
265.104034423828

> <r_mmod_Improper_Torsional_Energy-OPLS-2005>
10.3875684738159

> <r_mmod_Van_der_Waal_Energy-OPLS-2005>
178.711547851562

> <r_mmod_Electrostatic_Energy-OPLS-2005>
-534.733154296875

> <r_mmod_Solvation_Energy-OPLS-2005>
-267.787750244141

> <b_mmod_Minimization_Converged-OPLS-2005>
0

> <r_mmod_RMS_Derivative-OPLS-2005>
1.80169486999512

$$$$
38
                    3D
 Structure written by MMmdl.
148156  0  0  1  0            999 V2000
  -30.6010  -14.7425   20.4873 C   0  0  0  0  0  0
  -30.4449  -12.4559   19.4943 C   0  0  0  0  0  0
  -29.5296  -12.5360   18.2529 C   0  0  0  0  0  0
  -28.0515  -12.3470   18.6495 C   0  0  0  0  0  0
  -27.6497  -13.2329   19.8615 C   0  0  2  0  0  0
  -28.6878  -13.1389   21.0033 C   0  0  0  0  0  0
  -25.2506  -13.8183   20.5645 C   0  0  0  0  0  0
  -24.1788  -13.0421   20.9158 C   0  0  0  0  0  0
  -24.6398  -11.6898   20.8712 C   0  0  0  0  0  0
  -23.9052  -10.4292   21.0397 C   0  0  0  0  0  0
  -24.3600   -9.4206   21.9166 C   0  0  0  0  0  0
  -23.6272   -8.2238   22.0735 C   0  0  0  0  0  0
  -22.4256   -8.0276   21.3538 C   0  0  0  0  0  0
  -21.9890   -9.0250   20.4622 C   0  0  0  0  0  0
  -22.7216  -10.2130   20.3037 C   0  0  0  0  0  0
  -21.6857   -6.0728   22.5291 C   0  0  0  0  0  0
  -21.4020   -6.5621   23.8226 C   0  0  0  0  0  0
  -21.3662   -5.6772   24.9185 C   0  0  0  0  0  0
  -21.6053   -4.3034   24.7237 C   0  0  0  0  0  0
  -21.8812   -3.8123   23.4354 C   0  0  0  0  0  0
  -21.9185   -4.6954   22.3417 C   0  0  0  0  0  0
  -22.7804  -13.5208   21.1838 C   0  0  0  0  0  0
  -22.1651   -4.2132   21.1000 F   0  0  0  0  0  0
  -21.5636   -3.4518   25.7753 F   0  0  0  0  0  0
  -30.0006  -13.5010   20.4485 N   0  0  0  0  0  0
  -26.2963  -12.9398   20.3275 N   0  0  0  0  0  0
  -25.9329  -11.6540   20.5697 N   0  0  0  0  0  0
  -22.0438  -12.8230   22.0417 N   0  0  0  0  0  0
  -25.4142  -15.1918   20.4070 N   0  0  0  0  0  0
  -31.7700  -14.8601   20.1015 O   0  0  0  0  0  0
  -21.6614   -6.8870   21.4254 O   0  0  0  0  0  0
  -22.3472  -14.5519   20.6677 O   0  0  0  0  0  0
  -24.6337  -31.8544   23.2001 C   0  0  0  0  0  0
  -25.9167  -32.4727   23.8345 C   0  0  1  0  0  0
  -27.1974  -27.2416   20.1329 C   0  0  0  0  0  0
  -25.5959  -33.8540   24.2255 N   0  0  0  0  0  0
  -23.4293  -30.4840   21.5385 C   0  0  2  0  0  0
  -24.8756  -28.9388   20.1015 C   0  0  0  0  0  0
  -22.7524  -29.4617   22.4856 C   0  0  0  0  0  0
  -18.0289  -28.1390   22.8477 C   0  0  0  0  0  0
  -24.1501  -36.7289   23.2637 C   0  0  0  0  0  0
  -25.9788  -30.7621   21.3874 C   0  0  0  0  0  0
  -26.0464  -29.3857   20.7277 C   0  0  0  0  0  0
  -27.2077  -28.5459   20.7403 C   0  0  0  0  0  0
  -26.0154  -26.8951   19.4376 C   0  0  0  0  0  0
  -24.8678  -27.7035   19.4438 C   0  0  0  0  0  0
  -23.6496  -29.8262   20.1517 C   0  0  0  0  0  0
  -25.4119  -36.3045   24.0317 C   0  0  1  0  0  0
  -20.5906  -28.3701   23.1249 C   0  0  2  0  0  0
  -20.6768  -26.9412   22.5407 C   0  0  0  0  0  0
  -19.5751  -26.6378   21.5205 C   0  0  0  0  0  0
  -18.1933  -26.7933   22.1613 C   0  0  0  0  0  0
  -19.1550  -28.8853   23.2862 C   0  0  0  0  0  0
  -18.9467  -30.1446   23.8877 C   0  0  0  0  0  0
  -17.6474  -30.6583   24.0558 C   0  0  0  0  0  0
  -25.9060  -34.9419   23.5075 C   0  0  0  0  0  0
  -16.5361  -29.9086   23.6333 C   0  0  0  0  0  0
  -16.7277  -28.6510   23.0348 C   0  0  0  0  0  0
  -26.4528  -31.6565   25.0749 C   0  0  0  0  0  0
  -25.3752  -31.3737   26.1466 C   0  0  0  0  0  0
  -27.0375  -30.2962   24.6285 C   0  0  0  0  0  0
  -27.6066  -32.4318   25.7533 C   0  0  0  0  0  0
  -27.5578  -37.1802   24.8451 C   0  0  0  0  0  0
  -21.4219  -29.3058   22.3628 N   0  0  0  0  0  0
  -26.4281  -37.3753   23.9400 N   0  0  0  0  0  0
  -24.6995  -31.0534   22.0960 N   0  0  0  0  0  0
  -23.4237  -28.8141   23.2938 O   0  0  0  0  0  0
  -28.2574  -26.3016   20.2336 O   0  0  0  0  0  0
  -26.5635  -34.8898   22.4650 O   0  0  0  0  0  0
  -23.5489  -32.1357   23.7295 O   0  0  0  0  0  0
  -29.8638  -17.2419   20.3539 C   0  0  0  0  0  0
  -30.1685  -17.5359   19.0450 C   0  0  0  0  0  0
  -29.4586  -19.6096   20.2478 C   0  0  0  0  0  0
  -28.9123  -22.1623   20.0016 C   0  0  0  0  0  0
  -28.0006  -24.8305   19.9539 C   0  0  0  0  0  0
  -28.7260  -23.5900   20.7344 C   0  0  1  0  0  0
  -29.4390  -18.4636   21.0229 N   0  0  0  0  0  0
  -29.8544  -15.8489   20.8735 N   0  0  0  0  0  0
  -29.1168  -20.9834   20.7138 N   0  0  0  0  0  0
  -28.8463  -22.1473   18.7706 O   0  0  0  0  0  0
  -28.0212  -23.3662   21.9520 O   0  0  0  0  0  0
  -30.5044  -16.6105   18.1115 F   0  0  0  0  0  0
  -29.9991  -19.2267   18.6030 S   0  0  0  0  0  0
  -31.4879  -12.5848   19.1981 H   0  0  0  0  0  0
  -30.3876  -11.4688   19.9559 H   0  0  0  0  0  0
  -29.8281  -11.7961   17.5101 H   0  0  0  0  0  0
  -29.6581  -13.5110   17.7779 H   0  0  0  0  0  0
  -27.9067  -11.2929   18.8904 H   0  0  0  0  0  0
  -27.4052  -12.5547   17.7967 H   0  0  0  0  0  0
  -27.6538  -14.2625   19.5047 H   0  0  0  0  0  0
  -28.7141  -12.1291   21.4145 H   0  0  0  0  0  0
  -28.4114  -13.7894   21.8350 H   0  0  0  0  0  0
  -25.2767   -9.5702   22.4692 H   0  0  0  0  0  0
  -24.0005   -7.4648   22.7454 H   0  0  0  0  0  0
  -21.0817   -8.8759   19.8935 H   0  0  0  0  0  0
  -22.3676  -10.9651   19.6122 H   0  0  0  0  0  0
  -21.2004   -7.6132   23.9731 H   0  0  0  0  0  0
  -21.1501   -6.0500   25.9097 H   0  0  0  0  0  0
  -22.0584   -2.7585   23.2852 H   0  0  0  0  0  0
  -22.4016  -11.9897   22.4883 H   0  0  0  0  0  0
  -21.1052  -13.1276   22.2581 H   0  0  0  0  0  0
  -24.6347  -15.8342   20.4981 H   0  0  0  0  0  0
  -26.2562  -15.6406   20.0688 H   0  0  0  0  0  0
  -26.7238  -32.5376   23.1091 H   0  0  0  0  0  0
  -25.0095  -33.9682   25.0384 H   0  0  0  0  0  0
  -22.7231  -31.3043   21.3926 H   0  0  0  0  0  0
  -23.3741  -35.9646   23.3285 H   0  0  0  0  0  0
  -24.3579  -36.8935   22.2053 H   0  0  0  0  0  0
  -23.7285  -37.6497   23.6679 H   0  0  0  0  0  0
  -26.1299  -31.5242   20.6216 H   0  0  0  0  0  0
  -26.8524  -30.8031   22.0259 H   0  0  0  0  0  0
  -28.0956  -28.8701   21.2660 H   0  0  0  0  0  0
  -25.9325  -25.9764   18.8789 H   0  0  0  0  0  0
  -23.9796  -27.3686   18.9245 H   0  0  0  0  0  0
  -23.7753  -30.6020   19.3953 H   0  0  0  0  0  0
  -22.7693  -29.2594   19.8439 H   0  0  0  0  0  0
  -25.1307  -36.1868   25.0809 H   0  0  0  0  0  0
  -21.0008  -28.3286   24.1362 H   0  0  0  0  0  0
  -20.5635  -26.2325   23.3621 H   0  0  0  0  0  0
  -21.6640  -26.7407   22.1221 H   0  0  0  0  0  0
  -19.6912  -25.6281   21.1246 H   0  0  0  0  0  0
  -19.6700  -27.3181   20.6734 H   0  0  0  0  0  0
  -17.4211  -26.6675   21.4010 H   0  0  0  0  0  0
  -18.0329  -26.0073   22.9003 H   0  0  0  0  0  0
  -19.7936  -30.7267   24.2255 H   0  0  0  0  0  0
  -17.5018  -31.6257   24.5174 H   0  0  0  0  0  0
  -15.5355  -30.2987   23.7649 H   0  0  0  0  0  0
  -15.8678  -28.0821   22.7068 H   0  0  0  0  0  0
  -24.5927  -30.7080   25.7806 H   0  0  0  0  0  0
  -24.8960  -32.2926   26.4870 H   0  0  0  0  0  0
  -25.8086  -30.8934   27.0251 H   0  0  0  0  0  0
  -26.2977  -29.6694   24.1294 H   0  0  0  0  0  0
  -27.3989  -29.7246   25.4846 H   0  0  0  0  0  0
  -27.8896  -30.4176   23.9588 H   0  0  0  0  0  0
  -27.2645  -33.3608   26.2104 H   0  0  0  0  0  0
  -28.3907  -32.6893   25.0399 H   0  0  0  0  0  0
  -28.0712  -31.8453   26.5466 H   0  0  0  0  0  0
  -28.2577  -38.0116   24.7485 H   0  0  0  0  0  0
  -28.1091  -36.2641   24.6276 H   0  0  0  0  0  0
  -27.2299  -37.1451   25.8856 H   0  0  0  0  0  0
  -20.9386  -29.8812   21.6862 H   0  0  0  0  0  0
  -26.0146  -38.2820   24.1400 H   0  0  0  0  0  0
  -26.9397  -24.6097   20.0562 H   0  0  0  0  0  0
  -28.1954  -24.7177   18.8876 H   0  0  0  0  0  0
  -29.7318  -23.9158   20.9945 H   0  0  0  0  0  0
  -29.0706  -15.6347   21.4712 H   0  0  0  0  0  0
  -29.0590  -21.1007   21.7159 H   0  0  0  0  0  0
  -27.1317  -23.1094   21.7216 H   0  0  0  0  0  0
  1 25  1  0  0  0
  1 30  2  0  0  0
  1 78  1  0  0  0
  2  3  1  0  0  0
  2 25  1  0  0  0
  2 84  1  0  0  0
  2 85  1  0  0  0
  3  4  1  0  0  0
  3 86  1  0  0  0
  3 87  1  0  0  0
  4  5  1  0  0  0
  4 88  1  0  0  0
  4 89  1  0  0  0
  5  6  1  0  0  0
  5 26  1  0  0  0
  5 90  1  0  0  0
  6 25  1  0  0  0
  6 91  1  0  0  0
  6 92  1  0  0  0
  7  8  2  0  0  0
  7 26  1  0  0  0
  7 29  1  0  0  0
  8  9  1  0  0  0
  8 22  1  0  0  0
  9 10  1  0  0  0
  9 27  2  0  0  0
 10 11  2  0  0  0
 10 15  1  0  0  0
 11 12  1  0  0  0
 11 93  1  0  0  0
 12 13  2  0  0  0
 12 94  1  0  0  0
 13 14  1  0  0  0
 13 31  1  0  0  0
 14 15  2  0  0  0
 14 95  1  0  0  0
 15 96  1  0  0  0
 16 17  2  0  0  0
 16 21  1  0  0  0
 16 31  1  0  0  0
 17 18  1  0  0  0
 17 97  1  0  0  0
 18 19  2  0  0  0
 18 98  1  0  0  0
 19 20  1  0  0  0
 19 24  1  0  0  0
 20 21  2  0  0  0
 20 99  1  0  0  0
 21 23  1  0  0  0
 22 28  1  0  0  0
 22 32  2  0  0  0
 26 27  1  0  0  0
 28100  1  0  0  0
 28101  1  0  0  0
 29102  1  0  0  0
 29103  1  0  0  0
 33 34  1  0  0  0
 33 66  1  0  0  0
 33 70  2  0  0  0
 34 36  1  0  0  0
 34 59  1  0  0  0
 34104  1  0  0  0
 35 44  2  0  0  0
 35 45  1  0  0  0
 35 68  1  0  0  0
 36 56  1  0  0  0
 36105  1  0  0  0
 37 39  1  0  0  0
 37 47  1  0  0  0
 37 66  1  0  0  0
 37106  1  0  0  0
 38 43  2  0  0  0
 38 46  1  0  0  0
 38 47  1  0  0  0
 39 64  1  0  0  0
 39 67  2  0  0  0
 40 52  1  0  0  0
 40 53  2  0  0  0
 40 58  1  0  0  0
 41107  1  0  0  0
 41108  1  0  0  0
 41109  1  0  0  0
 41 48  1  0  0  0
 42 43  1  0  0  0
 42 66  1  0  0  0
 42110  1  0  0  0
 42111  1  0  0  0
 43 44  1  0  0  0
 44112  1  0  0  0
 45 46  2  0  0  0
 45113  1  0  0  0
 46114  1  0  0  0
 47115  1  0  0  0
 47116  1  0  0  0
 48 56  1  0  0  0
 48 65  1  0  0  0
 48117  1  0  0  0
 49 50  1  0  0  0
 49 53  1  0  0  0
 49 64  1  0  0  0
 49118  1  0  0  0
 50 51  1  0  0  0
 50119  1  0  0  0
 50120  1  0  0  0
 51 52  1  0  0  0
 51121  1  0  0  0
 51122  1  0  0  0
 52123  1  0  0  0
 52124  1  0  0  0
 53 54  1  0  0  0
 54 55  2  0  0  0
 54125  1  0  0  0
 55 57  1  0  0  0
 55126  1  0  0  0
 56 69  2  0  0  0
 57 58  2  0  0  0
 57127  1  0  0  0
 58128  1  0  0  0
 59 60  1  0  0  0
 59 61  1  0  0  0
 59 62  1  0  0  0
 60129  1  0  0  0
 60130  1  0  0  0
 60131  1  0  0  0
 61132  1  0  0  0
 61133  1  0  0  0
 61134  1  0  0  0
 62135  1  0  0  0
 62136  1  0  0  0
 62137  1  0  0  0
 63 65  1  0  0  0
 63138  1  0  0  0
 63139  1  0  0  0
 63140  1  0  0  0
 64141  1  0  0  0
 65142  1  0  0  0
 68 75  1  0  0  0
 71 72  2  0  0  0
 71 77  1  0  0  0
 71 78  1  0  0  0
 72 82  1  0  0  0
 72 83  1  0  0  0
 73 77  2  0  0  0
 73 79  1  0  0  0
 73 83  1  0  0  0
 74 76  1  0  0  0
 74 79  1  0  0  0
 74 80  2  0  0  0
 75 76  1  0  0  0
 75143  1  0  0  0
 75144  1  0  0  0
 76 81  1  0  0  0
 76145  1  0  0  0
 78146  1  0  0  0
 79147  1  0  0  0
 81148  1  0  0  0
M  ISO  4   1 100  68 101  75 101  78 100
M  END
> <chiral flag>
0

> <version>
0

> <s_m_source_file>
/data/baiqing/PycharmProjects/Reinvent-master-3.2/result/LINK_invent/BTK/process_docking_weight1_custom_product_contain_oxygen_bond_distance_aromatic_linkinvent_7_9_3/rearranged_h_0185.sdf

> <i_m_source_file_index>
39

> <r_mmod_Potential_Energy-OPLS-2005>
71.6657104492188

> <r_mmod_Stretch_Energy-OPLS-2005>
132.459884643555

> <r_mmod_Bend_Energy-OPLS-2005>
167.866546630859

> <r_mmod_Torsional_Energy-OPLS-2005>
239.302383422852

> <r_mmod_Improper_Torsional_Energy-OPLS-2005>
3.8539776802063

> <r_mmod_Van_der_Waal_Energy-OPLS-2005>
126.562568664551

> <r_mmod_Electrostatic_Energy-OPLS-2005>
-443.206298828125

> <r_mmod_Solvation_Energy-OPLS-2005>
-249.742691040039

> <b_mmod_Minimization_Converged-OPLS-2005>
0

> <r_mmod_RMS_Derivative-OPLS-2005>
3.40800786018372

$$$$
39
                    3D
 Structure written by MMmdl.
149157  0  0  1  0            999 V2000
  -30.4988  -15.0317   20.4040 C   0  0  0  0  0  0
  -30.4447  -12.6418   19.5031 C   0  0  0  0  0  0
  -29.5280  -12.5490   18.2597 C   0  0  0  0  0  0
  -28.0632  -12.3177   18.6766 C   0  0  0  0  0  0
  -27.6273  -13.2531   19.8347 C   0  0  2  0  0  0
  -28.6694  -13.3051   20.9724 C   0  0  0  0  0  0
  -25.2454  -13.8225   20.5695 C   0  0  0  0  0  0
  -24.1783  -13.0446   20.9230 C   0  0  0  0  0  0
  -24.6408  -11.6934   20.8752 C   0  0  0  0  0  0
  -23.9092  -10.4300   21.0395 C   0  0  0  0  0  0
  -24.3641   -9.4213   21.9174 C   0  0  0  0  0  0
  -23.6305   -8.2251   22.0750 C   0  0  0  0  0  0
  -22.4287   -8.0285   21.3540 C   0  0  0  0  0  0
  -21.9928   -9.0261   20.4638 C   0  0  0  0  0  0
  -22.7264  -10.2140   20.3046 C   0  0  0  0  0  0
  -21.6863   -6.0735   22.5272 C   0  0  0  0  0  0
  -21.4024   -6.5636   23.8208 C   0  0  0  0  0  0
  -21.3674   -5.6787   24.9171 C   0  0  0  0  0  0
  -21.6042   -4.3047   24.7219 C   0  0  0  0  0  0
  -21.8819   -3.8141   23.4337 C   0  0  0  0  0  0
  -21.9197   -4.6962   22.3395 C   0  0  0  0  0  0
  -22.7798  -13.5208   21.1874 C   0  0  0  0  0  0
  -22.1656   -4.2150   21.0969 F   0  0  0  0  0  0
  -21.5638   -3.4526   25.7729 F   0  0  0  0  0  0
  -29.9352  -13.7473   20.3710 N   0  0  0  0  0  0
  -26.2884  -12.9463   20.3218 N   0  0  0  0  0  0
  -25.9341  -11.6589   20.5726 N   0  0  0  0  0  0
  -22.0439  -12.8207   22.0435 N   0  0  0  0  0  0
  -25.4080  -15.1961   20.4098 N   0  0  0  0  0  0
  -31.7084  -15.0941   20.1438 O   0  0  0  0  0  0
  -21.6653   -6.8882   21.4232 O   0  0  0  0  0  0
  -22.3478  -14.5503   20.6706 O   0  0  0  0  0  0
  -24.6497  -31.8377   23.1829 C   0  0  0  0  0  0
  -25.9232  -32.4663   23.8241 C   0  0  1  0  0  0
  -27.2180  -27.0726   20.1655 C   0  0  0  0  0  0
  -25.5956  -33.8474   24.2161 N   0  0  0  0  0  0
  -23.4571  -30.4564   21.5290 C   0  0  2  0  0  0
  -24.9094  -28.8724   20.1111 C   0  0  0  0  0  0
  -22.7598  -29.4521   22.4819 C   0  0  0  0  0  0
  -18.0306  -28.1405   22.8458 C   0  0  0  0  0  0
  -24.1494  -36.7252   23.2643 C   0  0  0  0  0  0
  -26.0175  -30.6930   21.3914 C   0  0  0  0  0  0
  -26.0893  -29.2976   20.7351 C   0  0  0  0  0  0
  -27.2435  -28.4155   20.7429 C   0  0  0  0  0  0
  -26.0115  -26.7680   19.4956 C   0  0  0  0  0  0
  -24.8875  -27.6235   19.4736 C   0  0  0  0  0  0
  -23.6884  -29.7814   20.1508 C   0  0  0  0  0  0
  -25.4128  -36.3023   24.0311 C   0  0  1  0  0  0
  -20.5919  -28.3742   23.1204 C   0  0  2  0  0  0
  -20.6790  -26.9433   22.5393 C   0  0  0  0  0  0
  -19.5768  -26.6380   21.5201 C   0  0  0  0  0  0
  -18.1951  -26.7937   22.1611 C   0  0  0  0  0  0
  -19.1561  -28.8888   23.2828 C   0  0  0  0  0  0
  -18.9483  -30.1481   23.8865 C   0  0  0  0  0  0
  -17.6482  -30.6596   24.0555 C   0  0  0  0  0  0
  -25.9081  -34.9393   23.5054 C   0  0  0  0  0  0
  -16.5370  -29.9091   23.6335 C   0  0  0  0  0  0
  -16.7292  -28.6508   23.0350 C   0  0  0  0  0  0
  -26.4530  -31.6546   25.0704 C   0  0  0  0  0  0
  -25.3694  -31.3759   26.1386 C   0  0  0  0  0  0
  -27.0400  -30.2929   24.6335 C   0  0  0  0  0  0
  -27.6054  -32.4316   25.7503 C   0  0  0  0  0  0
  -27.5577  -37.1791   24.8463 C   0  0  0  0  0  0
  -21.4278  -29.3058   22.3567 N   0  0  0  0  0  0
  -26.4292  -37.3736   23.9401 N   0  0  0  0  0  0
  -24.7283  -31.0184   22.0892 N   0  0  0  0  0  0
  -23.4207  -28.8071   23.2993 O   0  0  0  0  0  0
  -28.2412  -26.0358   20.2439 O   0  0  0  0  0  0
  -26.5674  -34.8898   22.4639 O   0  0  0  0  0  0
  -23.5601  -32.1276   23.7009 O   0  0  0  0  0  0
  -28.7526  -18.7537   20.4906 C   0  0  0  0  0  0
  -30.5494  -19.8659   20.2612 C   0  0  0  0  0  0
  -29.7836  -17.7532   20.4393 C   0  0  0  0  0  0
  -28.8997  -23.1775   20.3635 C   0  0  0  0  0  0
  -27.3251  -21.4141   21.4375 C   0  0  0  0  0  0
  -27.8780  -24.4980   20.0977 C   0  0  0  0  0  0
  -28.4212  -21.5528   20.3620 C   0  0  2  0  0  0
  -30.9320  -18.5524   20.2853 N   0  0  0  0  0  0
  -29.2282  -20.1460   20.3893 N   0  0  0  0  0  0
  -29.6672  -16.2011   20.5296 N   0  0  0  0  0  0
  -30.0938  -23.4123   20.5732 O   0  0  0  0  0  0
  -31.4742  -12.8160   19.1865 H   0  0  0  0  0  0
  -30.4566  -11.6965   20.0476 H   0  0  0  0  0  0
  -29.8620  -11.7490   17.5972 H   0  0  0  0  0  0
  -29.6018  -13.4736   17.6846 H   0  0  0  0  0  0
  -27.9699  -11.2769   18.9879 H   0  0  0  0  0  0
  -27.4012  -12.4400   17.8185 H   0  0  0  0  0  0
  -27.5805  -14.2506   19.3978 H   0  0  0  0  0  0
  -28.7783  -12.3332   21.4557 H   0  0  0  0  0  0
  -28.3530  -14.0014   21.7509 H   0  0  0  0  0  0
  -25.2783   -9.5699   22.4756 H   0  0  0  0  0  0
  -24.0012   -7.4653   22.7488 H   0  0  0  0  0  0
  -21.0849   -8.8785   19.8959 H   0  0  0  0  0  0
  -22.3709  -10.9677   19.6159 H   0  0  0  0  0  0
  -21.2017   -7.6145   23.9713 H   0  0  0  0  0  0
  -21.1497   -6.0514   25.9078 H   0  0  0  0  0  0
  -22.0588   -2.7600   23.2832 H   0  0  0  0  0  0
  -22.4056  -11.9892   22.4862 H   0  0  0  0  0  0
  -21.1047  -13.1232   22.2607 H   0  0  0  0  0  0
  -24.6286  -15.8375   20.5151 H   0  0  0  0  0  0
  -26.2276  -15.6357   20.0130 H   0  0  0  0  0  0
  -26.7298  -32.5255   23.0967 H   0  0  0  0  0  0
  -25.0058  -33.9573   25.0279 H   0  0  0  0  0  0
  -22.7633  -31.2843   21.3682 H   0  0  0  0  0  0
  -23.3759  -35.9583   23.3298 H   0  0  0  0  0  0
  -24.3571  -36.8895   22.2060 H   0  0  0  0  0  0
  -23.7249  -37.6445   23.6688 H   0  0  0  0  0  0
  -26.1783  -31.4416   20.6144 H   0  0  0  0  0  0
  -26.8853  -30.7485   22.0369 H   0  0  0  0  0  0
  -28.1380  -28.7360   21.2586 H   0  0  0  0  0  0
  -25.8991  -25.8155   18.9996 H   0  0  0  0  0  0
  -23.9897  -27.2929   18.9703 H   0  0  0  0  0  0
  -23.8317  -30.5532   19.3936 H   0  0  0  0  0  0
  -22.8017  -29.2267   19.8373 H   0  0  0  0  0  0
  -25.1324  -36.1851   25.0804 H   0  0  0  0  0  0
  -21.0015  -28.3349   24.1325 H   0  0  0  0  0  0
  -20.5670  -26.2364   23.3630 H   0  0  0  0  0  0
  -21.6661  -26.7427   22.1204 H   0  0  0  0  0  0
  -19.6937  -25.6281   21.1263 H   0  0  0  0  0  0
  -19.6712  -27.3162   20.6712 H   0  0  0  0  0  0
  -17.4217  -26.6657   21.4025 H   0  0  0  0  0  0
  -18.0367  -26.0095   22.9025 H   0  0  0  0  0  0
  -19.7962  -30.7298   24.2223 H   0  0  0  0  0  0
  -17.5037  -31.6271   24.5170 H   0  0  0  0  0  0
  -15.5370  -30.2987   23.7685 H   0  0  0  0  0  0
  -15.8684  -28.0826   22.7085 H   0  0  0  0  0  0
  -24.5872  -30.7115   25.7694 H   0  0  0  0  0  0
  -24.8885  -32.2948   26.4750 H   0  0  0  0  0  0
  -25.7947  -30.8958   27.0206 H   0  0  0  0  0  0
  -26.3028  -29.6634   24.1341 H   0  0  0  0  0  0
  -27.3975  -29.7256   25.4938 H   0  0  0  0  0  0
  -27.8954  -30.4134   23.9686 H   0  0  0  0  0  0
  -27.2643  -33.3637   26.2024 H   0  0  0  0  0  0
  -28.3905  -32.6842   25.0361 H   0  0  0  0  0  0
  -28.0679  -31.8474   26.5471 H   0  0  0  0  0  0
  -28.2596  -38.0087   24.7499 H   0  0  0  0  0  0
  -28.1075  -36.2615   24.6311 H   0  0  0  0  0  0
  -27.2288  -37.1456   25.8865 H   0  0  0  0  0  0
  -20.9504  -29.8773   21.6736 H   0  0  0  0  0  0
  -26.0161  -38.2811   24.1386 H   0  0  0  0  0  0
  -27.6896  -18.5831   20.5932 H   0  0  0  0  0  0
  -31.2729  -20.6603   20.1430 H   0  0  0  0  0  0
  -26.7116  -22.3076   21.5438 H   0  0  0  0  0  0
  -27.7624  -21.1978   22.4135 H   0  0  0  0  0  0
  -26.6419  -20.6009   21.1952 H   0  0  0  0  0  0
  -27.0029  -24.3383   20.7263 H   0  0  0  0  0  0
  -27.5236  -24.3646   19.0764 H   0  0  0  0  0  0
  -27.8934  -21.5142   19.4090 H   0  0  0  0  0  0
  -28.7154  -15.9089   20.6908 H   0  0  0  0  0  0
  1 25  1  0  0  0
  1 30  2  0  0  0
  1 80  1  0  0  0
  2  3  1  0  0  0
  2 25  1  0  0  0
  2 82  1  0  0  0
  2 83  1  0  0  0
  3  4  1  0  0  0
  3 84  1  0  0  0
  3 85  1  0  0  0
  4  5  1  0  0  0
  4 86  1  0  0  0
  4 87  1  0  0  0
  5  6  1  0  0  0
  5 26  1  0  0  0
  5 88  1  0  0  0
  6 25  1  0  0  0
  6 89  1  0  0  0
  6 90  1  0  0  0
  7  8  2  0  0  0
  7 26  1  0  0  0
  7 29  1  0  0  0
  8  9  1  0  0  0
  8 22  1  0  0  0
  9 10  1  0  0  0
  9 27  2  0  0  0
 10 11  2  0  0  0
 10 15  1  0  0  0
 11 12  1  0  0  0
 11 91  1  0  0  0
 12 13  2  0  0  0
 12 92  1  0  0  0
 13 14  1  0  0  0
 13 31  1  0  0  0
 14 15  2  0  0  0
 14 93  1  0  0  0
 15 94  1  0  0  0
 16 17  2  0  0  0
 16 21  1  0  0  0
 16 31  1  0  0  0
 17 18  1  0  0  0
 17 95  1  0  0  0
 18 19  2  0  0  0
 18 96  1  0  0  0
 19 20  1  0  0  0
 19 24  1  0  0  0
 20 21  2  0  0  0
 20 97  1  0  0  0
 21 23  1  0  0  0
 22 28  1  0  0  0
 22 32  2  0  0  0
 26 27  1  0  0  0
 28 98  1  0  0  0
 28 99  1  0  0  0
 29100  1  0  0  0
 29101  1  0  0  0
 33 34  1  0  0  0
 33 66  1  0  0  0
 33 70  2  0  0  0
 34 36  1  0  0  0
 34 59  1  0  0  0
 34102  1  0  0  0
 35 44  2  0  0  0
 35 45  1  0  0  0
 35 68  1  0  0  0
 36 56  1  0  0  0
 36103  1  0  0  0
 37 39  1  0  0  0
 37 47  1  0  0  0
 37 66  1  0  0  0
 37104  1  0  0  0
 38 43  2  0  0  0
 38 46  1  0  0  0
 38 47  1  0  0  0
 39 64  1  0  0  0
 39 67  2  0  0  0
 40 52  1  0  0  0
 40 53  2  0  0  0
 40 58  1  0  0  0
 41105  1  0  0  0
 41106  1  0  0  0
 41107  1  0  0  0
 41 48  1  0  0  0
 42 43  1  0  0  0
 42 66  1  0  0  0
 42108  1  0  0  0
 42109  1  0  0  0
 43 44  1  0  0  0
 44110  1  0  0  0
 45 46  2  0  0  0
 45111  1  0  0  0
 46112  1  0  0  0
 47113  1  0  0  0
 47114  1  0  0  0
 48 56  1  0  0  0
 48 65  1  0  0  0
 48115  1  0  0  0
 49 50  1  0  0  0
 49 53  1  0  0  0
 49 64  1  0  0  0
 49116  1  0  0  0
 50 51  1  0  0  0
 50117  1  0  0  0
 50118  1  0  0  0
 51 52  1  0  0  0
 51119  1  0  0  0
 51120  1  0  0  0
 52121  1  0  0  0
 52122  1  0  0  0
 53 54  1  0  0  0
 54 55  2  0  0  0
 54123  1  0  0  0
 55 57  1  0  0  0
 55124  1  0  0  0
 56 69  2  0  0  0
 57 58  2  0  0  0
 57125  1  0  0  0
 58126  1  0  0  0
 59 60  1  0  0  0
 59 61  1  0  0  0
 59 62  1  0  0  0
 60127  1  0  0  0
 60128  1  0  0  0
 60129  1  0  0  0
 61130  1  0  0  0
 61131  1  0  0  0
 61132  1  0  0  0
 62133  1  0  0  0
 62134  1  0  0  0
 62135  1  0  0  0
 63 65  1  0  0  0
 63136  1  0  0  0
 63137  1  0  0  0
 63138  1  0  0  0
 64139  1  0  0  0
 65140  1  0  0  0
 68 76  1  0  0  0
 71 73  2  0  0  0
 71 79  1  0  0  0
 71141  1  0  0  0
 72 78  2  0  0  0
 72 79  1  0  0  0
 72142  1  0  0  0
 73 78  1  0  0  0
 73 80  1  0  0  0
 74 76  1  0  0  0
 74 77  1  0  0  0
 74 81  2  0  0  0
 75143  1  0  0  0
 75144  1  0  0  0
 75145  1  0  0  0
 75 77  1  0  0  0
 76146  1  0  0  0
 76147  1  0  0  0
 77 79  1  0  0  0
 77148  1  0  0  0
 80149  1  0  0  0
M  ISO  4   1 100  68 101  76 101  80 100
M  END
> <chiral flag>
0

> <version>
0

> <s_m_source_file>
/data/baiqing/PycharmProjects/Reinvent-master-3.2/result/LINK_invent/BTK/process_docking_weight1_custom_product_contain_oxygen_bond_distance_aromatic_linkinvent_7_9_3/rearranged_h_0185.sdf

> <i_m_source_file_index>
40

> <r_mmod_Potential_Energy-OPLS-2005>
633.922485351562

> <r_mmod_Stretch_Energy-OPLS-2005>
323.860870361328

> <r_mmod_Bend_Energy-OPLS-2005>
301.110290527344

> <r_mmod_Torsional_Energy-OPLS-2005>
227.545684814453

> <r_mmod_Improper_Torsional_Energy-OPLS-2005>
4.63392400741577

> <r_mmod_Van_der_Waal_Energy-OPLS-2005>
108.994720458984

> <r_mmod_Electrostatic_Energy-OPLS-2005>
-316.930389404297

> <r_mmod_Solvation_Energy-OPLS-2005>
-271.824249267578

> <b_mmod_Minimization_Converged-OPLS-2005>
0

> <r_mmod_RMS_Derivative-OPLS-2005>
1.48509955406189

$$$$
40
                    3D
 Structure written by MMmdl.
154162  0  0  1  0            999 V2000
  -30.6559  -14.5215   20.5762 C   0  0  0  0  0  0
  -30.4391  -12.3349   19.4341 C   0  0  0  0  0  0
  -29.5052  -12.5080   18.2156 C   0  0  0  0  0  0
  -28.0267  -12.3543   18.6277 C   0  0  0  0  0  0
  -27.6638  -13.2027   19.8752 C   0  0  2  0  0  0
  -28.7030  -12.9834   20.9987 C   0  0  0  0  0  0
  -25.2600  -13.8152   20.5685 C   0  0  0  0  0  0
  -24.1845  -13.0441   20.9185 C   0  0  0  0  0  0
  -24.6387  -11.6905   20.8714 C   0  0  0  0  0  0
  -23.9046  -10.4298   21.0393 C   0  0  0  0  0  0
  -24.3600   -9.4219   21.9182 C   0  0  0  0  0  0
  -23.6290   -8.2246   22.0749 C   0  0  0  0  0  0
  -22.4273   -8.0275   21.3537 C   0  0  0  0  0  0
  -21.9900   -9.0245   20.4638 C   0  0  0  0  0  0
  -22.7213  -10.2136   20.3051 C   0  0  0  0  0  0
  -21.6846   -6.0734   22.5285 C   0  0  0  0  0  0
  -21.4006   -6.5637   23.8220 C   0  0  0  0  0  0
  -21.3668   -5.6789   24.9182 C   0  0  0  0  0  0
  -21.6040   -4.3053   24.7232 C   0  0  0  0  0  0
  -21.8817   -3.8145   23.4356 C   0  0  0  0  0  0
  -21.9194   -4.6959   22.3410 C   0  0  0  0  0  0
  -22.7861  -13.5239   21.1864 C   0  0  0  0  0  0
  -22.1658   -4.2142   21.0987 F   0  0  0  0  0  0
  -21.5641   -3.4539   25.7752 F   0  0  0  0  0  0
  -30.0369  -13.3118   20.4603 N   0  0  0  0  0  0
  -26.3026  -12.9315   20.3348 N   0  0  0  0  0  0
  -25.9314  -11.6475   20.5741 N   0  0  0  0  0  0
  -22.0498  -12.8226   22.0414 N   0  0  0  0  0  0
  -25.4327  -15.1874   20.4095 N   0  0  0  0  0  0
  -31.7530  -14.7635   20.0609 O   0  0  0  0  0  0
  -21.6630   -6.8873   21.4248 O   0  0  0  0  0  0
  -22.3551  -14.5556   20.6732 O   0  0  0  0  0  0
  -24.6169  -31.8680   23.2079 C   0  0  0  0  0  0
  -25.9050  -32.4822   23.8409 C   0  0  1  0  0  0
  -27.2438  -27.4258   20.1143 C   0  0  0  0  0  0
  -25.5900  -33.8616   24.2353 N   0  0  0  0  0  0
  -23.4083  -30.4901   21.5463 C   0  0  2  0  0  0
  -24.8600  -28.9535   20.1111 C   0  0  0  0  0  0
  -22.7446  -29.4662   22.4962 C   0  0  0  0  0  0
  -18.0271  -28.1377   22.8464 C   0  0  0  0  0  0
  -24.1494  -36.7320   23.2649 C   0  0  0  0  0  0
  -25.9372  -30.8322   21.3627 C   0  0  0  0  0  0
  -26.0180  -29.4654   20.7109 C   0  0  0  0  0  0
  -27.2157  -28.7104   20.7055 C   0  0  0  0  0  0
  -26.0729  -26.9312   19.5040 C   0  0  0  0  0  0
  -24.8836  -27.6865   19.4991 C   0  0  0  0  0  0
  -23.6213  -29.8225   20.1597 C   0  0  0  0  0  0
  -25.4110  -36.3121   24.0364 C   0  0  1  0  0  0
  -20.5873  -28.3677   23.1294 C   0  0  2  0  0  0
  -20.6766  -26.9416   22.5401 C   0  0  0  0  0  0
  -19.5746  -26.6387   21.5193 C   0  0  0  0  0  0
  -18.1917  -26.7917   22.1600 C   0  0  0  0  0  0
  -19.1526  -28.8838   23.2869 C   0  0  0  0  0  0
  -18.9459  -30.1433   23.8897 C   0  0  0  0  0  0
  -17.6468  -30.6582   24.0560 C   0  0  0  0  0  0
  -25.9032  -34.9481   23.5156 C   0  0  0  0  0  0
  -16.5352  -29.9093   23.6318 C   0  0  0  0  0  0
  -16.7263  -28.6511   23.0334 C   0  0  0  0  0  0
  -26.4476  -31.6584   25.0720 C   0  0  0  0  0  0
  -25.3743  -31.3679   26.1470 C   0  0  0  0  0  0
  -27.0297  -30.3037   24.6061 C   0  0  0  0  0  0
  -27.6082  -32.4292   25.7451 C   0  0  0  0  0  0
  -27.5592  -37.1811   24.8473 C   0  0  0  0  0  0
  -21.4172  -29.3044   22.3705 N   0  0  0  0  0  0
  -26.4295  -37.3807   23.9424 N   0  0  0  0  0  0
  -24.6719  -31.0781   22.0978 N   0  0  0  0  0  0
  -23.4198  -28.8218   23.3031 O   0  0  0  0  0  0
  -28.3874  -26.6515   20.1224 O   0  0  0  0  0  0
  -26.5594  -34.8940   22.4714 O   0  0  0  0  0  0
  -23.5356  -32.1429   23.7465 O   0  0  0  0  0  0
  -30.5433  -17.6623   20.1977 C   0  0  0  0  0  0
  -29.8392  -16.8053   21.0234 C   0  0  0  0  0  0
  -28.9948  -19.1777   20.9583 C   0  0  0  0  0  0
  -28.3418  -22.8866   21.1002 C   0  0  0  0  0  0
  -26.9177  -20.2161   20.0236 C   0  0  0  0  0  0
  -28.3460  -25.5162   21.0207 C   0  0  0  0  0  0
  -28.0942  -20.4018   20.9960 C   0  0  2  0  0  0
  -28.8925  -24.1737   20.4124 C   0  0  1  0  0  0
  -30.0488  -18.9843   20.1541 N   0  0  0  0  0  0
  -29.9481  -15.4567   21.2469 N   0  0  0  0  0  0
  -28.7815  -21.6756   20.6839 N   0  0  0  0  0  0
  -27.5015  -22.9812   21.9971 O   0  0  0  0  0  0
  -30.3124  -24.1508   20.4841 O   0  0  0  0  0  0
  -28.5751  -17.7043   21.8418 S   0  0  0  0  0  0
  -31.4815  -12.4555   19.1331 H   0  0  0  0  0  0
  -30.3621  -11.3225   19.8337 H   0  0  0  0  0  0
  -29.7546  -11.7760   17.4450 H   0  0  0  0  0  0
  -29.6635  -13.4898   17.7658 H   0  0  0  0  0  0
  -27.8525  -11.2987   18.8403 H   0  0  0  0  0  0
  -27.3732  -12.6062   17.7923 H   0  0  0  0  0  0
  -27.7090  -14.2494   19.5725 H   0  0  0  0  0  0
  -28.6893  -11.9435   21.3272 H   0  0  0  0  0  0
  -28.4425  -13.5632   21.8849 H   0  0  0  0  0  0
  -25.2749   -9.5702   22.4749 H   0  0  0  0  0  0
  -24.0002   -7.4638   22.7465 H   0  0  0  0  0  0
  -21.0829   -8.8751   19.8942 H   0  0  0  0  0  0
  -22.3663  -10.9666   19.6155 H   0  0  0  0  0  0
  -21.1979   -7.6141   23.9720 H   0  0  0  0  0  0
  -21.1495   -6.0521   25.9084 H   0  0  0  0  0  0
  -22.0588   -2.7609   23.2861 H   0  0  0  0  0  0
  -22.4092  -11.9877   22.4793 H   0  0  0  0  0  0
  -21.1118  -13.1252   22.2619 H   0  0  0  0  0  0
  -24.6659  -15.8424   20.5123 H   0  0  0  0  0  0
  -26.2872  -15.6254   20.0915 H   0  0  0  0  0  0
  -26.7139  -32.5564   23.1200 H   0  0  0  0  0  0
  -25.0076  -33.9764   25.0521 H   0  0  0  0  0  0
  -22.6946  -31.3057   21.4036 H   0  0  0  0  0  0
  -23.3755  -35.9646   23.3310 H   0  0  0  0  0  0
  -24.3602  -36.8918   22.2058 H   0  0  0  0  0  0
  -23.7212  -37.6529   23.6641 H   0  0  0  0  0  0
  -26.0443  -31.5963   20.5924 H   0  0  0  0  0  0
  -26.8287  -30.8949   21.9758 H   0  0  0  0  0  0
  -28.1092  -29.1009   21.1710 H   0  0  0  0  0  0
  -26.0820  -25.9576   19.0366 H   0  0  0  0  0  0
  -23.9974  -27.2848   19.0265 H   0  0  0  0  0  0
  -23.7376  -30.5987   19.4027 H   0  0  0  0  0  0
  -22.7442  -29.2460   19.8588 H   0  0  0  0  0  0
  -25.1265  -36.2007   25.0854 H   0  0  0  0  0  0
  -20.9944  -28.3250   24.1426 H   0  0  0  0  0  0
  -20.5660  -26.2302   23.3603 H   0  0  0  0  0  0
  -21.6642  -26.7464   22.1206 H   0  0  0  0  0  0
  -19.6920  -25.6303   21.1215 H   0  0  0  0  0  0
  -19.6671  -27.3210   20.6732 H   0  0  0  0  0  0
  -17.4194  -26.6651   21.4000 H   0  0  0  0  0  0
  -18.0317  -26.0050   22.8987 H   0  0  0  0  0  0
  -19.7946  -30.7208   24.2299 H   0  0  0  0  0  0
  -17.5044  -31.6266   24.5166 H   0  0  0  0  0  0
  -15.5360  -30.3008   23.7645 H   0  0  0  0  0  0
  -15.8652  -28.0843   22.7054 H   0  0  0  0  0  0
  -24.5922  -30.7018   25.7815 H   0  0  0  0  0  0
  -24.8913  -32.2821   26.4936 H   0  0  0  0  0  0
  -25.8098  -30.8839   27.0216 H   0  0  0  0  0  0
  -26.2816  -29.6772   24.1189 H   0  0  0  0  0  0
  -27.4180  -29.7293   25.4478 H   0  0  0  0  0  0
  -27.8614  -30.4391   23.9138 H   0  0  0  0  0  0
  -27.2764  -33.3628   26.2023 H   0  0  0  0  0  0
  -28.3886  -32.6785   25.0241 H   0  0  0  0  0  0
  -28.0760  -31.8384   26.5342 H   0  0  0  0  0  0
  -28.2620  -38.0105   24.7533 H   0  0  0  0  0  0
  -28.1071  -36.2627   24.6276 H   0  0  0  0  0  0
  -27.2313  -37.1465   25.8880 H   0  0  0  0  0  0
  -20.9338  -29.8796   21.6950 H   0  0  0  0  0  0
  -26.0194  -38.2896   24.1398 H   0  0  0  0  0  0
  -31.3812  -17.4131   19.5619 H   0  0  0  0  0  0
  -26.3471  -19.3193   20.2659 H   0  0  0  0  0  0
  -27.2694  -20.1216   18.9957 H   0  0  0  0  0  0
  -26.2299  -21.0604   20.0658 H   0  0  0  0  0  0
  -27.3205  -25.3716   21.3694 H   0  0  0  0  0  0
  -28.9057  -25.7744   21.9215 H   0  0  0  0  0  0
  -27.6938  -20.4526   22.0108 H   0  0  0  0  0  0
  -28.5850  -24.1238   19.3668 H   0  0  0  0  0  0
  -29.1861  -15.0626   21.7775 H   0  0  0  0  0  0
  -29.5322  -21.6476   20.0068 H   0  0  0  0  0  0
  -30.5367  -24.1465   21.4101 H   0  0  0  0  0  0
  1 25  1  0  0  0
  1 30  2  0  0  0
  1 80  1  0  0  0
  2  3  1  0  0  0
  2 25  1  0  0  0
  2 85  1  0  0  0
  2 86  1  0  0  0
  3  4  1  0  0  0
  3 87  1  0  0  0
  3 88  1  0  0  0
  4  5  1  0  0  0
  4 89  1  0  0  0
  4 90  1  0  0  0
  5  6  1  0  0  0
  5 26  1  0  0  0
  5 91  1  0  0  0
  6 25  1  0  0  0
  6 92  1  0  0  0
  6 93  1  0  0  0
  7  8  2  0  0  0
  7 26  1  0  0  0
  7 29  1  0  0  0
  8  9  1  0  0  0
  8 22  1  0  0  0
  9 10  1  0  0  0
  9 27  2  0  0  0
 10 11  2  0  0  0
 10 15  1  0  0  0
 11 12  1  0  0  0
 11 94  1  0  0  0
 12 13  2  0  0  0
 12 95  1  0  0  0
 13 14  1  0  0  0
 13 31  1  0  0  0
 14 15  2  0  0  0
 14 96  1  0  0  0
 15 97  1  0  0  0
 16 17  2  0  0  0
 16 21  1  0  0  0
 16 31  1  0  0  0
 17 18  1  0  0  0
 17 98  1  0  0  0
 18 19  2  0  0  0
 18 99  1  0  0  0
 19 20  1  0  0  0
 19 24  1  0  0  0
 20 21  2  0  0  0
 20100  1  0  0  0
 21 23  1  0  0  0
 22 28  1  0  0  0
 22 32  2  0  0  0
 26 27  1  0  0  0
 28101  1  0  0  0
 28102  1  0  0  0
 29103  1  0  0  0
 29104  1  0  0  0
 33 34  1  0  0  0
 33 66  1  0  0  0
 33 70  2  0  0  0
 34 36  1  0  0  0
 34 59  1  0  0  0
 34105  1  0  0  0
 35 44  2  0  0  0
 35 45  1  0  0  0
 35 68  1  0  0  0
 36 56  1  0  0  0
 36106  1  0  0  0
 37 39  1  0  0  0
 37 47  1  0  0  0
 37 66  1  0  0  0
 37107  1  0  0  0
 38 43  2  0  0  0
 38 46  1  0  0  0
 38 47  1  0  0  0
 39 64  1  0  0  0
 39 67  2  0  0  0
 40 52  1  0  0  0
 40 53  2  0  0  0
 40 58  1  0  0  0
 41108  1  0  0  0
 41109  1  0  0  0
 41110  1  0  0  0
 41 48  1  0  0  0
 42 43  1  0  0  0
 42 66  1  0  0  0
 42111  1  0  0  0
 42112  1  0  0  0
 43 44  1  0  0  0
 44113  1  0  0  0
 45 46  2  0  0  0
 45114  1  0  0  0
 46115  1  0  0  0
 47116  1  0  0  0
 47117  1  0  0  0
 48 56  1  0  0  0
 48 65  1  0  0  0
 48118  1  0  0  0
 49 50  1  0  0  0
 49 53  1  0  0  0
 49 64  1  0  0  0
 49119  1  0  0  0
 50 51  1  0  0  0
 50120  1  0  0  0
 50121  1  0  0  0
 51 52  1  0  0  0
 51122  1  0  0  0
 51123  1  0  0  0
 52124  1  0  0  0
 52125  1  0  0  0
 53 54  1  0  0  0
 54 55  2  0  0  0
 54126  1  0  0  0
 55 57  1  0  0  0
 55127  1  0  0  0
 56 69  2  0  0  0
 57 58  2  0  0  0
 57128  1  0  0  0
 58129  1  0  0  0
 59 60  1  0  0  0
 59 61  1  0  0  0
 59 62  1  0  0  0
 60130  1  0  0  0
 60131  1  0  0  0
 60132  1  0  0  0
 61133  1  0  0  0
 61134  1  0  0  0
 61135  1  0  0  0
 62136  1  0  0  0
 62137  1  0  0  0
 62138  1  0  0  0
 63 65  1  0  0  0
 63139  1  0  0  0
 63140  1  0  0  0
 63141  1  0  0  0
 64142  1  0  0  0
 65143  1  0  0  0
 68 76  1  0  0  0
 71 72  2  0  0  0
 71 79  1  0  0  0
 71144  1  0  0  0
 72 80  1  0  0  0
 72 84  1  0  0  0
 73 77  1  0  0  0
 73 79  2  0  0  0
 73 84  1  0  0  0
 74 78  1  0  0  0
 74 81  1  0  0  0
 74 82  2  0  0  0
 75145  1  0  0  0
 75146  1  0  0  0
 75147  1  0  0  0
 75 77  1  0  0  0
 76 78  1  0  0  0
 76148  1  0  0  0
 76149  1  0  0  0
 77 81  1  0  0  0
 77150  1  0  0  0
 78 83  1  0  0  0
 78151  1  0  0  0
 80152  1  0  0  0
 81153  1  0  0  0
 83154  1  0  0  0
M  ISO  4   1 100  68 101  76 101  80 100
M  END
> <chiral flag>
0

> <version>
0

> <s_m_source_file>
/data/baiqing/PycharmProjects/Reinvent-master-3.2/result/LINK_invent/BTK/process_docking_weight1_custom_product_contain_oxygen_bond_distance_aromatic_linkinvent_7_9_3/rearranged_h_0185.sdf

> <i_m_source_file_index>
41

> <r_mmod_Potential_Energy-OPLS-2005>
-176.239074707031

> <r_mmod_Stretch_Energy-OPLS-2005>
43.7887268066406

> <r_mmod_Bend_Energy-OPLS-2005>
107.123023986816

> <r_mmod_Torsional_Energy-OPLS-2005>
228.613250732422

> <r_mmod_Improper_Torsional_Energy-OPLS-2005>
4.58305358886719

> <r_mmod_Van_der_Waal_Energy-OPLS-2005>
127.169250488281

> <r_mmod_Electrostatic_Energy-OPLS-2005>
-460.198699951172

> <r_mmod_Solvation_Energy-OPLS-2005>
-244.686401367188

> <b_mmod_Minimization_Converged-OPLS-2005>
0

> <r_mmod_RMS_Derivative-OPLS-2005>
2.41219043731689

$$$$
41
                    3D
 Structure written by MMmdl.
152160  0  0  1  0            999 V2000
  -30.6567  -14.5655   20.5531 C   0  0  0  0  0  0
  -30.4372  -12.3610   19.4386 C   0  0  0  0  0  0
  -29.5030  -12.5218   18.2194 C   0  0  0  0  0  0
  -28.0241  -12.3651   18.6267 C   0  0  0  0  0  0
  -27.6575  -13.2112   19.8740 C   0  0  2  0  0  0
  -28.7020  -13.0180   20.9989 C   0  0  0  0  0  0
  -25.2507  -13.8112   20.5649 C   0  0  0  0  0  0
  -24.1802  -13.0396   20.9212 C   0  0  0  0  0  0
  -24.6374  -11.6877   20.8746 C   0  0  0  0  0  0
  -23.9039  -10.4275   21.0409 C   0  0  0  0  0  0
  -24.3603   -9.4192   21.9179 C   0  0  0  0  0  0
  -23.6289   -8.2225   22.0748 C   0  0  0  0  0  0
  -22.4266   -8.0261   21.3537 C   0  0  0  0  0  0
  -21.9897   -9.0235   20.4633 C   0  0  0  0  0  0
  -22.7217  -10.2117   20.3054 C   0  0  0  0  0  0
  -21.6840   -6.0726   22.5285 C   0  0  0  0  0  0
  -21.4001   -6.5639   23.8215 C   0  0  0  0  0  0
  -21.3668   -5.6794   24.9187 C   0  0  0  0  0  0
  -21.6043   -4.3053   24.7227 C   0  0  0  0  0  0
  -21.8825   -3.8142   23.4351 C   0  0  0  0  0  0
  -21.9191   -4.6957   22.3408 C   0  0  0  0  0  0
  -22.7820  -13.5186   21.1879 C   0  0  0  0  0  0
  -22.1660   -4.2149   21.0981 F   0  0  0  0  0  0
  -21.5641   -3.4535   25.7741 F   0  0  0  0  0  0
  -30.0317  -13.3523   20.4535 N   0  0  0  0  0  0
  -26.2983  -12.9327   20.3351 N   0  0  0  0  0  0
  -25.9303  -11.6487   20.5778 N   0  0  0  0  0  0
  -22.0458  -12.8187   22.0440 N   0  0  0  0  0  0
  -25.4067  -15.1825   20.3966 N   0  0  0  0  0  0
  -31.7699  -14.7725   20.0584 O   0  0  0  0  0  0
  -21.6625   -6.8867   21.4242 O   0  0  0  0  0  0
  -22.3515  -14.5505   20.6746 O   0  0  0  0  0  0
  -24.6206  -31.8630   23.2050 C   0  0  0  0  0  0
  -25.9099  -32.4776   23.8351 C   0  0  1  0  0  0
  -27.2365  -27.3759   20.0885 C   0  0  0  0  0  0
  -25.5949  -33.8580   24.2286 N   0  0  0  0  0  0
  -23.4085  -30.4870   21.5458 C   0  0  2  0  0  0
  -24.8551  -28.9406   20.1138 C   0  0  0  0  0  0
  -22.7424  -29.4654   22.4960 C   0  0  0  0  0  0
  -18.0278  -28.1372   22.8483 C   0  0  0  0  0  0
  -24.1499  -36.7292   23.2628 C   0  0  0  0  0  0
  -25.9433  -30.8091   21.3672 C   0  0  0  0  0  0
  -26.0189  -29.4393   20.7094 C   0  0  0  0  0  0
  -27.2075  -28.6635   20.6924 C   0  0  0  0  0  0
  -26.0423  -26.8973   19.5048 C   0  0  0  0  0  0
  -24.8646  -27.6710   19.5123 C   0  0  0  0  0  0
  -23.6191  -29.8138   20.1630 C   0  0  0  0  0  0
  -25.4118  -36.3073   24.0323 C   0  0  1  0  0  0
  -20.5870  -28.3676   23.1295 C   0  0  2  0  0  0
  -20.6772  -26.9408   22.5407 C   0  0  0  0  0  0
  -19.5753  -26.6377   21.5208 C   0  0  0  0  0  0
  -18.1930  -26.7913   22.1617 C   0  0  0  0  0  0
  -19.1525  -28.8839   23.2880 C   0  0  0  0  0  0
  -18.9458  -30.1445   23.8888 C   0  0  0  0  0  0
  -17.6463  -30.6581   24.0562 C   0  0  0  0  0  0
  -25.9057  -34.9444   23.5093 C   0  0  0  0  0  0
  -16.5355  -29.9080   23.6332 C   0  0  0  0  0  0
  -16.7269  -28.6496   23.0351 C   0  0  0  0  0  0
  -26.4494  -31.6569   25.0704 C   0  0  0  0  0  0
  -25.3732  -31.3753   26.1438 C   0  0  0  0  0  0
  -27.0345  -30.2987   24.6164 C   0  0  0  0  0  0
  -27.6042  -32.4294   25.7494 C   0  0  0  0  0  0
  -27.5582  -37.1795   24.8453 C   0  0  0  0  0  0
  -21.4144  -29.3046   22.3695 N   0  0  0  0  0  0
  -26.4288  -37.3774   23.9407 N   0  0  0  0  0  0
  -24.6755  -31.0682   22.0972 N   0  0  0  0  0  0
  -23.4168  -28.8197   23.3028 O   0  0  0  0  0  0
  -28.4130  -26.6322   20.1205 O   0  0  0  0  0  0
  -26.5599  -34.8905   22.4643 O   0  0  0  0  0  0
  -23.5391  -32.1411   23.7430 O   0  0  0  0  0  0
  -29.6598  -19.0708   20.3375 C   0  0  0  0  0  0
  -29.6164  -16.8421   20.6729 C   0  0  0  0  0  0
  -30.2640  -20.4682   20.1916 C   0  0  0  0  0  0
  -31.0848  -23.4649   20.1530 C   0  0  0  0  0  0
  -28.5842  -25.3818   19.3859 C   0  0  0  0  0  0
  -29.6795  -22.9607   19.7468 C   0  0  2  0  0  0
  -28.5855  -24.0168   20.1935 C   0  0  0  0  0  0
  -30.3596  -17.9633   20.7486 N   0  0  0  0  0  0
  -28.3822  -18.8518   19.9606 N   0  0  0  0  0  0
  -29.9554  -15.5394   21.1826 N   0  0  0  0  0  0
  -29.4219  -21.5437   20.1731 N   0  0  0  0  0  0
  -31.4881  -20.5715   20.0725 O   0  0  0  0  0  0
  -27.3793  -23.4648   20.0506 F   0  0  0  0  0  0
  -28.7641  -24.2785   21.4891 F   0  0  0  0  0  0
  -28.0215  -17.2047   20.0872 S   0  0  0  0  0  0
  -31.4789  -12.4804   19.1350 H   0  0  0  0  0  0
  -30.3652  -11.3546   19.8542 H   0  0  0  0  0  0
  -29.7576  -11.7935   17.4491 H   0  0  0  0  0  0
  -29.6537  -13.5042   17.7693 H   0  0  0  0  0  0
  -27.8421  -11.3095   18.8319 H   0  0  0  0  0  0
  -27.3742  -12.6248   17.7901 H   0  0  0  0  0  0
  -27.6873  -14.2538   19.5594 H   0  0  0  0  0  0
  -28.6971  -11.9831   21.3446 H   0  0  0  0  0  0
  -28.4428  -13.6112   21.8764 H   0  0  0  0  0  0
  -25.2753   -9.5681   22.4744 H   0  0  0  0  0  0
  -24.0007   -7.4615   22.7462 H   0  0  0  0  0  0
  -21.0838   -8.8748   19.8929 H   0  0  0  0  0  0
  -22.3677  -10.9659   19.6166 H   0  0  0  0  0  0
  -21.1980   -7.6144   23.9721 H   0  0  0  0  0  0
  -21.1489   -6.0516   25.9087 H   0  0  0  0  0  0
  -22.0591   -2.7597   23.2844 H   0  0  0  0  0  0
  -22.4075  -11.9855   22.4845 H   0  0  0  0  0  0
  -21.1074  -13.1210   22.2651 H   0  0  0  0  0  0
  -24.6140  -15.8120   20.4626 H   0  0  0  0  0  0
  -26.2201  -15.6099   19.9778 H   0  0  0  0  0  0
  -26.7156  -32.5459   23.1090 H   0  0  0  0  0  0
  -25.0148  -33.9728   25.0466 H   0  0  0  0  0  0
  -22.6994  -31.3053   21.4032 H   0  0  0  0  0  0
  -23.3761  -35.9624   23.3269 H   0  0  0  0  0  0
  -24.3599  -36.8933   22.2045 H   0  0  0  0  0  0
  -23.7246  -37.6487   23.6664 H   0  0  0  0  0  0
  -26.0656  -31.5779   20.6035 H   0  0  0  0  0  0
  -26.8268  -30.8566   21.9936 H   0  0  0  0  0  0
  -28.1059  -29.0474   21.1552 H   0  0  0  0  0  0
  -25.9840  -25.9159   19.0613 H   0  0  0  0  0  0
  -23.9625  -27.2758   19.0661 H   0  0  0  0  0  0
  -23.7262  -30.5845   19.3993 H   0  0  0  0  0  0
  -22.7419  -29.2341   19.8692 H   0  0  0  0  0  0
  -25.1295  -36.1912   25.0815 H   0  0  0  0  0  0
  -20.9960  -28.3256   24.1418 H   0  0  0  0  0  0
  -20.5692  -26.2290   23.3600 H   0  0  0  0  0  0
  -21.6645  -26.7451   22.1203 H   0  0  0  0  0  0
  -19.6926  -25.6287   21.1243 H   0  0  0  0  0  0
  -19.6693  -27.3183   20.6735 H   0  0  0  0  0  0
  -17.4201  -26.6653   21.4012 H   0  0  0  0  0  0
  -18.0338  -26.0046   22.9004 H   0  0  0  0  0  0
  -19.7941  -30.7258   24.2246 H   0  0  0  0  0  0
  -17.5028  -31.6263   24.5161 H   0  0  0  0  0  0
  -15.5357  -30.2984   23.7666 H   0  0  0  0  0  0
  -15.8665  -28.0823   22.7065 H   0  0  0  0  0  0
  -24.5879  -30.7122   25.7789 H   0  0  0  0  0  0
  -24.8969  -32.2960   26.4821 H   0  0  0  0  0  0
  -25.8053  -30.8955   27.0230 H   0  0  0  0  0  0
  -26.2950  -29.6730   24.1158 H   0  0  0  0  0  0
  -27.4005  -29.7235   25.4681 H   0  0  0  0  0  0
  -27.8818  -30.4252   23.9420 H   0  0  0  0  0  0
  -27.2629  -33.3566   26.2106 H   0  0  0  0  0  0
  -28.3863  -32.6898   25.0351 H   0  0  0  0  0  0
  -28.0701  -31.8398   26.5399 H   0  0  0  0  0  0
  -28.2572  -38.0119   24.7531 H   0  0  0  0  0  0
  -28.1106  -36.2649   24.6240 H   0  0  0  0  0  0
  -27.2304  -37.1393   25.8855 H   0  0  0  0  0  0
  -20.9315  -29.8758   21.6899 H   0  0  0  0  0  0
  -26.0163  -38.2841   24.1430 H   0  0  0  0  0  0
  -31.2025  -24.5337   19.9871 H   0  0  0  0  0  0
  -31.8676  -22.9856   19.5677 H   0  0  0  0  0  0
  -31.2863  -23.2835   21.2088 H   0  0  0  0  0  0
  -27.9317  -25.3059   18.5175 H   0  0  0  0  0  0
  -29.5603  -25.4963   18.9172 H   0  0  0  0  0  0
  -29.6430  -22.9337   18.6558 H   0  0  0  0  0  0
  -29.1781  -15.1166   21.6667 H   0  0  0  0  0  0
  -28.4489  -21.3060   20.3097 H   0  0  0  0  0  0
  1 25  1  0  0  0
  1 30  2  0  0  0
  1 80  1  0  0  0
  2  3  1  0  0  0
  2 25  1  0  0  0
  2 86  1  0  0  0
  2 87  1  0  0  0
  3  4  1  0  0  0
  3 88  1  0  0  0
  3 89  1  0  0  0
  4  5  1  0  0  0
  4 90  1  0  0  0
  4 91  1  0  0  0
  5  6  1  0  0  0
  5 26  1  0  0  0
  5 92  1  0  0  0
  6 25  1  0  0  0
  6 93  1  0  0  0
  6 94  1  0  0  0
  7  8  2  0  0  0
  7 26  1  0  0  0
  7 29  1  0  0  0
  8  9  1  0  0  0
  8 22  1  0  0  0
  9 10  1  0  0  0
  9 27  2  0  0  0
 10 11  2  0  0  0
 10 15  1  0  0  0
 11 12  1  0  0  0
 11 95  1  0  0  0
 12 13  2  0  0  0
 12 96  1  0  0  0
 13 14  1  0  0  0
 13 31  1  0  0  0
 14 15  2  0  0  0
 14 97  1  0  0  0
 15 98  1  0  0  0
 16 17  2  0  0  0
 16 21  1  0  0  0
 16 31  1  0  0  0
 17 18  1  0  0  0
 17 99  1  0  0  0
 18 19  2  0  0  0
 18100  1  0  0  0
 19 20  1  0  0  0
 19 24  1  0  0  0
 20 21  2  0  0  0
 20101  1  0  0  0
 21 23  1  0  0  0
 22 28  1  0  0  0
 22 32  2  0  0  0
 26 27  1  0  0  0
 28102  1  0  0  0
 28103  1  0  0  0
 29104  1  0  0  0
 29105  1  0  0  0
 33 34  1  0  0  0
 33 66  1  0  0  0
 33 70  2  0  0  0
 34 36  1  0  0  0
 34 59  1  0  0  0
 34106  1  0  0  0
 35 44  2  0  0  0
 35 45  1  0  0  0
 35 68  1  0  0  0
 36 56  1  0  0  0
 36107  1  0  0  0
 37 39  1  0  0  0
 37 47  1  0  0  0
 37 66  1  0  0  0
 37108  1  0  0  0
 38 43  2  0  0  0
 38 46  1  0  0  0
 38 47  1  0  0  0
 39 64  1  0  0  0
 39 67  2  0  0  0
 40 52  1  0  0  0
 40 53  2  0  0  0
 40 58  1  0  0  0
 41109  1  0  0  0
 41110  1  0  0  0
 41111  1  0  0  0
 41 48  1  0  0  0
 42 43  1  0  0  0
 42 66  1  0  0  0
 42112  1  0  0  0
 42113  1  0  0  0
 43 44  1  0  0  0
 44114  1  0  0  0
 45 46  2  0  0  0
 45115  1  0  0  0
 46116  1  0  0  0
 47117  1  0  0  0
 47118  1  0  0  0
 48 56  1  0  0  0
 48 65  1  0  0  0
 48119  1  0  0  0
 49 50  1  0  0  0
 49 53  1  0  0  0
 49 64  1  0  0  0
 49120  1  0  0  0
 50 51  1  0  0  0
 50121  1  0  0  0
 50122  1  0  0  0
 51 52  1  0  0  0
 51123  1  0  0  0
 51124  1  0  0  0
 52125  1  0  0  0
 52126  1  0  0  0
 53 54  1  0  0  0
 54 55  2  0  0  0
 54127  1  0  0  0
 55 57  1  0  0  0
 55128  1  0  0  0
 56 69  2  0  0  0
 57 58  2  0  0  0
 57129  1  0  0  0
 58130  1  0  0  0
 59 60  1  0  0  0
 59 61  1  0  0  0
 59 62  1  0  0  0
 60131  1  0  0  0
 60132  1  0  0  0
 60133  1  0  0  0
 61134  1  0  0  0
 61135  1  0  0  0
 61136  1  0  0  0
 62137  1  0  0  0
 62138  1  0  0  0
 62139  1  0  0  0
 63 65  1  0  0  0
 63140  1  0  0  0
 63141  1  0  0  0
 63142  1  0  0  0
 64143  1  0  0  0
 65144  1  0  0  0
 68 75  1  0  0  0
 71 73  1  0  0  0
 71 78  1  0  0  0
 71 79  2  0  0  0
 72 78  2  0  0  0
 72 80  1  0  0  0
 72 85  1  0  0  0
 73 81  1  0  0  0
 73 82  2  0  0  0
 74145  1  0  0  0
 74146  1  0  0  0
 74147  1  0  0  0
 74 76  1  0  0  0
 75 77  1  0  0  0
 75148  1  0  0  0
 75149  1  0  0  0
 76 77  1  0  0  0
 76 81  1  0  0  0
 76150  1  0  0  0
 77 83  1  0  0  0
 77 84  1  0  0  0
 79 85  1  0  0  0
 80151  1  0  0  0
 81152  1  0  0  0
M  ISO  4   1 100  68 101  75 101  80 100
M  END
> <chiral flag>
0

> <version>
0

> <s_m_source_file>
/data/baiqing/PycharmProjects/Reinvent-master-3.2/result/LINK_invent/BTK/process_docking_weight1_custom_product_contain_oxygen_bond_distance_aromatic_linkinvent_7_9_3/rearranged_h_0185.sdf

> <i_m_source_file_index>
42

> <r_mmod_Potential_Energy-OPLS-2005>
-29.3938961029053

> <r_mmod_Stretch_Energy-OPLS-2005>
61.8118209838867

> <r_mmod_Bend_Energy-OPLS-2005>
144.474899291992

> <r_mmod_Torsional_Energy-OPLS-2005>
261.672760009766

> <r_mmod_Improper_Torsional_Energy-OPLS-2005>
7.95264101028442

> <r_mmod_Van_der_Waal_Energy-OPLS-2005>
127.762748718262

> <r_mmod_Electrostatic_Energy-OPLS-2005>
-412.316192626953

> <r_mmod_Solvation_Energy-OPLS-2005>
-245.941116333008

> <b_mmod_Minimization_Converged-OPLS-2005>
0

> <r_mmod_RMS_Derivative-OPLS-2005>
2.34883427619934

$$$$
42
                    3D
 Structure written by MMmdl.
152160  0  0  1  0            999 V2000
  -30.6255  -14.7743   20.4251 C   0  0  0  0  0  0
  -30.4217  -12.4677   19.4836 C   0  0  0  0  0  0
  -29.5057  -12.5012   18.2412 C   0  0  0  0  0  0
  -28.0336  -12.3272   18.6575 C   0  0  0  0  0  0
  -27.6357  -13.2409   19.8476 C   0  0  2  0  0  0
  -28.6812  -13.2098   20.9837 C   0  0  0  0  0  0
  -25.2475  -13.8216   20.5717 C   0  0  0  0  0  0
  -24.1773  -13.0437   20.9189 C   0  0  0  0  0  0
  -24.6390  -11.6923   20.8740 C   0  0  0  0  0  0
  -23.9078  -10.4292   21.0403 C   0  0  0  0  0  0
  -24.3626   -9.4208   21.9185 C   0  0  0  0  0  0
  -23.6298   -8.2244   22.0754 C   0  0  0  0  0  0
  -22.4280   -8.0283   21.3545 C   0  0  0  0  0  0
  -21.9917   -9.0259   20.4645 C   0  0  0  0  0  0
  -22.7248  -10.2135   20.3052 C   0  0  0  0  0  0
  -21.6855   -6.0737   22.5279 C   0  0  0  0  0  0
  -21.4013   -6.5641   23.8213 C   0  0  0  0  0  0
  -21.3660   -5.6795   24.9178 C   0  0  0  0  0  0
  -21.6045   -4.3058   24.7229 C   0  0  0  0  0  0
  -21.8820   -3.8149   23.4350 C   0  0  0  0  0  0
  -21.9194   -4.6964   22.3405 C   0  0  0  0  0  0
  -22.7796  -13.5206   21.1863 C   0  0  0  0  0  0
  -22.1666   -4.2150   21.0983 F   0  0  0  0  0  0
  -21.5628   -3.4540   25.7742 F   0  0  0  0  0  0
  -29.9784  -13.5547   20.3919 N   0  0  0  0  0  0
  -26.2916  -12.9446   20.3314 N   0  0  0  0  0  0
  -25.9327  -11.6575   20.5772 N   0  0  0  0  0  0
  -22.0459  -12.8188   22.0427 N   0  0  0  0  0  0
  -25.4135  -15.1946   20.4210 N   0  0  0  0  0  0
  -31.8263  -14.7887   20.1402 O   0  0  0  0  0  0
  -21.6645   -6.8878   21.4240 O   0  0  0  0  0  0
  -22.3471  -14.5519   20.6730 O   0  0  0  0  0  0
  -24.6324  -31.8526   23.1947 C   0  0  0  0  0  0
  -25.9142  -32.4736   23.8307 C   0  0  1  0  0  0
  -27.2230  -27.2429   20.1312 C   0  0  0  0  0  0
  -25.5933  -33.8540   24.2233 N   0  0  0  0  0  0
  -23.4296  -30.4730   21.5379 C   0  0  2  0  0  0
  -24.8766  -28.9114   20.1084 C   0  0  0  0  0  0
  -22.7501  -29.4597   22.4904 C   0  0  0  0  0  0
  -18.0292  -28.1384   22.8481 C   0  0  0  0  0  0
  -24.1489  -36.7275   23.2642 C   0  0  0  0  0  0
  -25.9754  -30.7592   21.3763 C   0  0  0  0  0  0
  -26.0462  -29.3793   20.7185 C   0  0  0  0  0  0
  -27.2181  -28.5567   20.7175 C   0  0  0  0  0  0
  -26.0276  -26.8391   19.4984 C   0  0  0  0  0  0
  -24.8730  -27.6508   19.4883 C   0  0  0  0  0  0
  -23.6480  -29.8009   20.1553 C   0  0  0  0  0  0
  -25.4118  -36.3058   24.0323 C   0  0  1  0  0  0
  -20.5896  -28.3709   23.1265 C   0  0  2  0  0  0
  -20.6784  -26.9421   22.5414 C   0  0  0  0  0  0
  -19.5762  -26.6373   21.5217 C   0  0  0  0  0  0
  -18.1940  -26.7923   22.1629 C   0  0  0  0  0  0
  -19.1543  -28.8863   23.2865 C   0  0  0  0  0  0
  -18.9462  -30.1467   23.8878 C   0  0  0  0  0  0
  -17.6458  -30.6590   24.0552 C   0  0  0  0  0  0
  -25.9060  -34.9429   23.5082 C   0  0  0  0  0  0
  -16.5351  -29.9080   23.6328 C   0  0  0  0  0  0
  -16.7277  -28.6498   23.0352 C   0  0  0  0  0  0
  -26.4505  -31.6576   25.0712 C   0  0  0  0  0  0
  -25.3720  -31.3731   26.1428 C   0  0  0  0  0  0
  -27.0366  -30.2990   24.6224 C   0  0  0  0  0  0
  -27.6047  -32.4331   25.7491 C   0  0  0  0  0  0
  -27.5577  -37.1793   24.8466 C   0  0  0  0  0  0
  -21.4205  -29.3063   22.3658 N   0  0  0  0  0  0
  -26.4291  -37.3760   23.9405 N   0  0  0  0  0  0
  -24.6981  -31.0480   22.0922 N   0  0  0  0  0  0
  -23.4193  -28.8142   23.3014 O   0  0  0  0  0  0
  -28.3424  -26.3797   20.2171 O   0  0  0  0  0  0
  -26.5641  -34.8913   22.4656 O   0  0  0  0  0  0
  -23.5472  -32.1359   23.7239 O   0  0  0  0  0  0
  -29.3424  -18.5206   20.6184 C   0  0  0  0  0  0
  -28.1843  -18.5433   21.3820 C   0  0  0  0  0  0
  -28.7540  -20.8727   20.5178 C   0  0  0  0  0  0
  -30.2940  -17.2781   20.3799 C   0  0  0  0  0  0
  -26.7526  -23.5031   21.0201 C   0  0  0  0  0  0
  -28.4127  -24.9584   19.7064 C   0  0  0  0  0  0
  -28.2359  -23.6361   20.6480 C   0  0  2  0  0  0
  -29.6163  -19.8739   20.1456 N   0  0  0  0  0  0
  -27.5477  -17.5102   22.0751 N   0  0  0  0  0  0
  -28.8128  -22.2932   20.1806 N   0  0  0  0  0  0
  -29.8872  -15.9530   20.5747 N   0  0  0  0  0  0
  -31.4351  -17.5396   19.9760 O   0  0  0  0  0  0
  -27.4722  -20.1622   21.5024 S   0  0  0  0  0  0
  -31.4639  -12.5713   19.1770 H   0  0  0  0  0  0
  -30.3575  -11.5018   19.9870 H   0  0  0  0  0  0
  -29.7903  -11.7146   17.5409 H   0  0  0  0  0  0
  -29.6312  -13.4461   17.7103 H   0  0  0  0  0  0
  -27.8952  -11.2815   18.9351 H   0  0  0  0  0  0
  -27.3745  -12.5049   17.8068 H   0  0  0  0  0  0
  -27.6186  -14.2558   19.4500 H   0  0  0  0  0  0
  -28.7211  -12.2252   21.4516 H   0  0  0  0  0  0
  -28.4148  -13.9151   21.7724 H   0  0  0  0  0  0
  -25.2766   -9.5689   22.4767 H   0  0  0  0  0  0
  -24.0009   -7.4634   22.7469 H   0  0  0  0  0  0
  -21.0851   -8.8780   19.8945 H   0  0  0  0  0  0
  -22.3709  -10.9680   19.6164 H   0  0  0  0  0  0
  -21.2005   -7.6149   23.9718 H   0  0  0  0  0  0
  -21.1480   -6.0526   25.9083 H   0  0  0  0  0  0
  -22.0596   -2.7609   23.2853 H   0  0  0  0  0  0
  -22.4090  -11.9847   22.4800 H   0  0  0  0  0  0
  -21.1077  -13.1199   22.2648 H   0  0  0  0  0  0
  -24.6566  -15.8462   20.5942 H   0  0  0  0  0  0
  -26.2968  -15.6621   20.2584 H   0  0  0  0  0  0
  -26.7208  -32.5373   23.1046 H   0  0  0  0  0  0
  -25.0064  -33.9670   25.0369 H   0  0  0  0  0  0
  -22.7274  -31.2955   21.3881 H   0  0  0  0  0  0
  -23.3754  -35.9606   23.3300 H   0  0  0  0  0  0
  -24.3578  -36.8906   22.2057 H   0  0  0  0  0  0
  -23.7244  -37.6472   23.6676 H   0  0  0  0  0  0
  -26.1191  -31.5190   20.6071 H   0  0  0  0  0  0
  -26.8510  -30.8065   22.0122 H   0  0  0  0  0  0
  -28.1142  -28.9105   21.2076 H   0  0  0  0  0  0
  -25.9484  -25.8688   19.0340 H   0  0  0  0  0  0
  -23.9747  -27.2842   19.0115 H   0  0  0  0  0  0
  -23.7737  -30.5741   19.3964 H   0  0  0  0  0  0
  -22.7659  -29.2340   19.8523 H   0  0  0  0  0  0
  -25.1305  -36.1896   25.0817 H   0  0  0  0  0  0
  -20.9985  -28.3290   24.1386 H   0  0  0  0  0  0
  -20.5681  -26.2321   23.3625 H   0  0  0  0  0  0
  -21.6653  -26.7440   22.1212 H   0  0  0  0  0  0
  -19.6924  -25.6276   21.1265 H   0  0  0  0  0  0
  -19.6697  -27.3169   20.6733 H   0  0  0  0  0  0
  -17.4209  -26.6659   21.4034 H   0  0  0  0  0  0
  -18.0344  -26.0076   22.9034 H   0  0  0  0  0  0
  -19.7938  -30.7290   24.2236 H   0  0  0  0  0  0
  -17.5008  -31.6269   24.5153 H   0  0  0  0  0  0
  -15.5350  -30.2973   23.7655 H   0  0  0  0  0  0
  -15.8680  -28.0806   22.7076 H   0  0  0  0  0  0
  -24.5898  -30.7079   25.7752 H   0  0  0  0  0  0
  -24.8912  -32.2903   26.4836 H   0  0  0  0  0  0
  -25.8031  -30.8917   27.0215 H   0  0  0  0  0  0
  -26.2964  -29.6719   24.1242 H   0  0  0  0  0  0
  -27.4031  -29.7273   25.4761 H   0  0  0  0  0  0
  -27.8846  -30.4258   23.9490 H   0  0  0  0  0  0
  -27.2641  -33.3635   26.2049 H   0  0  0  0  0  0
  -28.3867  -32.6887   25.0328 H   0  0  0  0  0  0
  -28.0709  -31.8474   26.5425 H   0  0  0  0  0  0
  -28.2593  -38.0090   24.7509 H   0  0  0  0  0  0
  -28.1074  -36.2620   24.6299 H   0  0  0  0  0  0
  -27.2295  -37.1451   25.8869 H   0  0  0  0  0  0
  -20.9396  -29.8785   21.6860 H   0  0  0  0  0  0
  -26.0164  -38.2832   24.1402 H   0  0  0  0  0  0
  -26.1565  -23.1624   20.1732 H   0  0  0  0  0  0
  -26.3476  -24.4638   21.3409 H   0  0  0  0  0  0
  -26.5999  -22.8123   21.8475 H   0  0  0  0  0  0
  -27.8042  -24.8487   18.8101 H   0  0  0  0  0  0
  -29.4310  -24.8985   19.3211 H   0  0  0  0  0  0
  -28.7777  -23.8595   21.5683 H   0  0  0  0  0  0
  -28.1092  -16.8964   22.6579 H   0  0  0  0  0  0
  -26.7087  -17.7684   22.5874 H   0  0  0  0  0  0
  -29.5668  -22.4532   19.5192 H   0  0  0  0  0  0
  -28.9167  -15.8540   20.8242 H   0  0  0  0  0  0
  1 25  1  0  0  0
  1 30  2  0  0  0
  1 81  1  0  0  0
  2  3  1  0  0  0
  2 25  1  0  0  0
  2 84  1  0  0  0
  2 85  1  0  0  0
  3  4  1  0  0  0
  3 86  1  0  0  0
  3 87  1  0  0  0
  4  5  1  0  0  0
  4 88  1  0  0  0
  4 89  1  0  0  0
  5  6  1  0  0  0
  5 26  1  0  0  0
  5 90  1  0  0  0
  6 25  1  0  0  0
  6 91  1  0  0  0
  6 92  1  0  0  0
  7  8  2  0  0  0
  7 26  1  0  0  0
  7 29  1  0  0  0
  8  9  1  0  0  0
  8 22  1  0  0  0
  9 10  1  0  0  0
  9 27  2  0  0  0
 10 11  2  0  0  0
 10 15  1  0  0  0
 11 12  1  0  0  0
 11 93  1  0  0  0
 12 13  2  0  0  0
 12 94  1  0  0  0
 13 14  1  0  0  0
 13 31  1  0  0  0
 14 15  2  0  0  0
 14 95  1  0  0  0
 15 96  1  0  0  0
 16 17  2  0  0  0
 16 21  1  0  0  0
 16 31  1  0  0  0
 17 18  1  0  0  0
 17 97  1  0  0  0
 18 19  2  0  0  0
 18 98  1  0  0  0
 19 20  1  0  0  0
 19 24  1  0  0  0
 20 21  2  0  0  0
 20 99  1  0  0  0
 21 23  1  0  0  0
 22 28  1  0  0  0
 22 32  2  0  0  0
 26 27  1  0  0  0
 28100  1  0  0  0
 28101  1  0  0  0
 29102  1  0  0  0
 29103  1  0  0  0
 33 34  1  0  0  0
 33 66  1  0  0  0
 33 70  2  0  0  0
 34 36  1  0  0  0
 34 59  1  0  0  0
 34104  1  0  0  0
 35 44  2  0  0  0
 35 45  1  0  0  0
 35 68  1  0  0  0
 36 56  1  0  0  0
 36105  1  0  0  0
 37 39  1  0  0  0
 37 47  1  0  0  0
 37 66  1  0  0  0
 37106  1  0  0  0
 38 43  2  0  0  0
 38 46  1  0  0  0
 38 47  1  0  0  0
 39 64  1  0  0  0
 39 67  2  0  0  0
 40 52  1  0  0  0
 40 53  2  0  0  0
 40 58  1  0  0  0
 41107  1  0  0  0
 41108  1  0  0  0
 41109  1  0  0  0
 41 48  1  0  0  0
 42 43  1  0  0  0
 42 66  1  0  0  0
 42110  1  0  0  0
 42111  1  0  0  0
 43 44  1  0  0  0
 44112  1  0  0  0
 45 46  2  0  0  0
 45113  1  0  0  0
 46114  1  0  0  0
 47115  1  0  0  0
 47116  1  0  0  0
 48 56  1  0  0  0
 48 65  1  0  0  0
 48117  1  0  0  0
 49 50  1  0  0  0
 49 53  1  0  0  0
 49 64  1  0  0  0
 49118  1  0  0  0
 50 51  1  0  0  0
 50119  1  0  0  0
 50120  1  0  0  0
 51 52  1  0  0  0
 51121  1  0  0  0
 51122  1  0  0  0
 52123  1  0  0  0
 52124  1  0  0  0
 53 54  1  0  0  0
 54 55  2  0  0  0
 54125  1  0  0  0
 55 57  1  0  0  0
 55126  1  0  0  0
 56 69  2  0  0  0
 57 58  2  0  0  0
 57127  1  0  0  0
 58128  1  0  0  0
 59 60  1  0  0  0
 59 61  1  0  0  0
 59 62  1  0  0  0
 60129  1  0  0  0
 60130  1  0  0  0
 60131  1  0  0  0
 61132  1  0  0  0
 61133  1  0  0  0
 61134  1  0  0  0
 62135  1  0  0  0
 62136  1  0  0  0
 62137  1  0  0  0
 63 65  1  0  0  0
 63138  1  0  0  0
 63139  1  0  0  0
 63140  1  0  0  0
 64141  1  0  0  0
 65142  1  0  0  0
 68 76  1  0  0  0
 71 72  2  0  0  0
 71 74  1  0  0  0
 71 78  1  0  0  0
 72 79  1  0  0  0
 72 83  1  0  0  0
 73 78  2  0  0  0
 73 80  1  0  0  0
 73 83  1  0  0  0
 74 81  1  0  0  0
 74 82  2  0  0  0
 75143  1  0  0  0
 75144  1  0  0  0
 75145  1  0  0  0
 75 77  1  0  0  0
 76 77  1  0  0  0
 76146  1  0  0  0
 76147  1  0  0  0
 77 80  1  0  0  0
 77148  1  0  0  0
 79149  1  0  0  0
 79150  1  0  0  0
 80151  1  0  0  0
 81152  1  0  0  0
M  ISO  4   1 100  68 101  76 101  81 100
M  END
> <chiral flag>
0

> <version>
0

> <s_m_source_file>
/data/baiqing/PycharmProjects/Reinvent-master-3.2/result/LINK_invent/BTK/process_docking_weight1_custom_product_contain_oxygen_bond_distance_aromatic_linkinvent_7_9_3/rearranged_h_0185.sdf

> <i_m_source_file_index>
43

> <r_mmod_Potential_Energy-OPLS-2005>
177.581619262695

> <r_mmod_Stretch_Energy-OPLS-2005>
136.487350463867

> <r_mmod_Bend_Energy-OPLS-2005>
187.15348815918

> <r_mmod_Torsional_Energy-OPLS-2005>
206.965927124023

> <r_mmod_Improper_Torsional_Energy-OPLS-2005>
9.60934925079346

> <r_mmod_Van_der_Waal_Energy-OPLS-2005>
116.585105895996

> <r_mmod_Electrostatic_Energy-OPLS-2005>
-329.743316650391

> <r_mmod_Solvation_Energy-OPLS-2005>
-245.650665283203

> <b_mmod_Minimization_Converged-OPLS-2005>
0

> <r_mmod_RMS_Derivative-OPLS-2005>
0.768588423728943

$$$$
43
                    3D
 Structure written by MMmdl.
143151  0  0  1  0            999 V2000
  -30.4022  -15.3611   20.3397 C   0  0  0  0  0  0
  -30.4469  -12.8721   19.5438 C   0  0  0  0  0  0
  -29.5493  -12.5863   18.3132 C   0  0  0  0  0  0
  -28.1096  -12.2735   18.7533 C   0  0  0  0  0  0
  -27.6131  -13.2778   19.8228 C   0  0  2  0  0  0
  -28.6409  -13.4973   20.9561 C   0  0  0  0  0  0
  -25.2370  -13.8257   20.5691 C   0  0  0  0  0  0
  -24.1743  -13.0436   20.9232 C   0  0  0  0  0  0
  -24.6416  -11.6941   20.8763 C   0  0  0  0  0  0
  -23.9119  -10.4296   21.0410 C   0  0  0  0  0  0
  -24.3660   -9.4207   21.9188 C   0  0  0  0  0  0
  -23.6317   -8.2250   22.0756 C   0  0  0  0  0  0
  -22.4289   -8.0291   21.3558 C   0  0  0  0  0  0
  -21.9947   -9.0257   20.4651 C   0  0  0  0  0  0
  -22.7296  -10.2136   20.3053 C   0  0  0  0  0  0
  -21.6859   -6.0755   22.5279 C   0  0  0  0  0  0
  -21.4020   -6.5649   23.8222 C   0  0  0  0  0  0
  -21.3656   -5.6796   24.9176 C   0  0  0  0  0  0
  -21.6041   -4.3057   24.7213 C   0  0  0  0  0  0
  -21.8829   -3.8157   23.4335 C   0  0  0  0  0  0
  -21.9189   -4.6982   22.3390 C   0  0  0  0  0  0
  -22.7759  -13.5174   21.1861 C   0  0  0  0  0  0
  -22.1666   -4.2183   21.0963 F   0  0  0  0  0  0
  -21.5627   -3.4520   25.7719 F   0  0  0  0  0  0
  -29.8644  -14.0299   20.3292 N   0  0  0  0  0  0
  -26.2834  -12.9547   20.3225 N   0  0  0  0  0  0
  -25.9366  -11.6654   20.5779 N   0  0  0  0  0  0
  -22.0428  -12.8151   22.0433 N   0  0  0  0  0  0
  -25.3915  -15.1990   20.4057 N   0  0  0  0  0  0
  -31.6203  -15.3536   20.1025 O   0  0  0  0  0  0
  -21.6638   -6.8901   21.4255 O   0  0  0  0  0  0
  -22.3422  -14.5455   20.6698 O   0  0  0  0  0  0
  -24.6660  -31.8174   23.1671 C   0  0  0  0  0  0
  -25.9318  -32.4551   23.8147 C   0  0  1  0  0  0
  -27.2387  -26.8860   20.1828 C   0  0  0  0  0  0
  -25.5974  -33.8371   24.2024 N   0  0  0  0  0  0
  -23.4822  -30.4258   21.5152 C   0  0  2  0  0  0
  -24.9437  -28.8047   20.1088 C   0  0  0  0  0  0
  -22.7658  -29.4396   22.4763 C   0  0  0  0  0  0
  -18.0305  -28.1447   22.8434 C   0  0  0  0  0  0
  -24.1495  -36.7182   23.2652 C   0  0  0  0  0  0
  -26.0576  -30.6135   21.4030 C   0  0  0  0  0  0
  -26.1285  -29.1980   20.7452 C   0  0  0  0  0  0
  -27.2653  -28.2620   20.7533 C   0  0  0  0  0  0
  -26.0260  -26.6570   19.4947 C   0  0  0  0  0  0
  -24.9221  -27.5553   19.4661 C   0  0  0  0  0  0
  -23.7273  -29.7365   20.1419 C   0  0  0  0  0  0
  -25.4147  -36.2935   24.0278 C   0  0  1  0  0  0
  -20.5916  -28.3787   23.1195 C   0  0  2  0  0  0
  -20.6788  -26.9434   22.5474 C   0  0  0  0  0  0
  -19.5773  -26.6327   21.5272 C   0  0  0  0  0  0
  -18.1923  -26.7983   22.1591 C   0  0  0  0  0  0
  -19.1562  -28.8934   23.2812 C   0  0  0  0  0  0
  -18.9463  -30.1523   23.8860 C   0  0  0  0  0  0
  -17.6450  -30.6605   24.0589 C   0  0  0  0  0  0
  -25.9102  -34.9322   23.4964 C   0  0  0  0  0  0
  -16.5359  -29.9096   23.6341 C   0  0  0  0  0  0
  -16.7294  -28.6537   23.0325 C   0  0  0  0  0  0
  -26.4580  -31.6538   25.0692 C   0  0  0  0  0  0
  -25.3684  -31.3808   26.1318 C   0  0  0  0  0  0
  -27.0499  -30.2899   24.6492 C   0  0  0  0  0  0
  -27.6049  -32.4382   25.7508 C   0  0  0  0  0  0
  -27.5551  -37.1761   24.8474 C   0  0  0  0  0  0
  -21.4313  -29.3060   22.3540 N   0  0  0  0  0  0
  -26.4283  -37.3679   23.9374 N   0  0  0  0  0  0
  -24.7558  -30.9812   22.0804 N   0  0  0  0  0  0
  -23.4185  -28.7924   23.3001 O   0  0  0  0  0  0
  -28.2475  -25.7701   20.2965 O   0  0  0  0  0  0
  -26.5741  -34.8889   22.4579 O   0  0  0  0  0  0
  -23.5721  -32.1156   23.6762 O   0  0  0  0  0  0
  -30.7401  -18.7882   19.4229 C   0  0  0  0  0  0
  -29.7447  -18.2577   20.2152 C   0  0  0  0  0  0
  -29.2608  -20.8990   20.1751 C   0  0  0  0  0  0
  -28.8705  -22.5748   20.6466 C   0  0  0  0  0  0
  -28.1968  -24.1284   19.9250 C   0  0  0  0  0  0
  -28.9436  -19.5329   20.6128 N   0  0  0  0  0  0
  -29.6155  -16.6390   20.4631 N   0  0  0  0  0  0
  -30.6887  -20.5771   19.1552 S   0  0  0  0  0  0
  -31.4600  -13.0880   19.2019 H   0  0  0  0  0  0
  -30.5396  -11.9882   20.1749 H   0  0  0  0  0  0
  -29.9567  -11.7588   17.7283 H   0  0  0  0  0  0
  -29.5446  -13.4582   17.6583 H   0  0  0  0  0  0
  -28.1107  -11.2676   19.1759 H   0  0  0  0  0  0
  -27.4378  -12.2422   17.8949 H   0  0  0  0  0  0
  -27.5199  -14.2273   19.2924 H   0  0  0  0  0  0
  -28.8325  -12.5764   21.5070 H   0  0  0  0  0  0
  -28.2585  -14.2162   21.6807 H   0  0  0  0  0  0
  -25.2818   -9.5660   22.4774 H   0  0  0  0  0  0
  -24.0019   -7.4637   22.7469 H   0  0  0  0  0  0
  -21.0882   -8.8770   19.8959 H   0  0  0  0  0  0
  -22.3750  -10.9661   19.6142 H   0  0  0  0  0  0
  -21.2032   -7.6155   23.9740 H   0  0  0  0  0  0
  -21.1465   -6.0516   25.9084 H   0  0  0  0  0  0
  -22.0612   -2.7619   23.2814 H   0  0  0  0  0  0
  -22.4069  -11.9815   22.4806 H   0  0  0  0  0  0
  -21.1067  -13.1184   22.2701 H   0  0  0  0  0  0
  -24.6039  -15.8348   20.4918 H   0  0  0  0  0  0
  -26.2195  -15.6461   20.0342 H   0  0  0  0  0  0
  -26.7349  -32.5077   23.0834 H   0  0  0  0  0  0
  -25.0091  -33.9452   25.0149 H   0  0  0  0  0  0
  -22.7964  -31.2574   21.3384 H   0  0  0  0  0  0
  -23.3758  -35.9505   23.3316 H   0  0  0  0  0  0
  -24.3551  -36.8847   22.2062 H   0  0  0  0  0  0
  -23.7264  -37.6376   23.6724 H   0  0  0  0  0  0
  -26.2482  -31.3541   20.6247 H   0  0  0  0  0  0
  -26.9104  -30.6663   22.0664 H   0  0  0  0  0  0
  -28.1631  -28.5683   21.2691 H   0  0  0  0  0  0
  -25.8941  -25.7050   19.0021 H   0  0  0  0  0  0
  -24.0233  -27.2474   18.9502 H   0  0  0  0  0  0
  -23.8846  -30.5055   19.3847 H   0  0  0  0  0  0
  -22.8375  -29.1926   19.8190 H   0  0  0  0  0  0
  -25.1354  -36.1729   25.0767 H   0  0  0  0  0  0
  -20.9983  -28.3437   24.1318 H   0  0  0  0  0  0
  -20.5602  -26.2435   23.3752 H   0  0  0  0  0  0
  -21.6679  -26.7375   22.1355 H   0  0  0  0  0  0
  -19.6886  -25.6196   21.1427 H   0  0  0  0  0  0
  -19.6793  -27.3006   20.6715 H   0  0  0  0  0  0
  -17.4233  -26.6757   21.3962 H   0  0  0  0  0  0
  -18.0162  -26.0162   22.8986 H   0  0  0  0  0  0
  -19.7918  -30.7354   24.2233 H   0  0  0  0  0  0
  -17.4977  -31.6249   24.5249 H   0  0  0  0  0  0
  -15.5343  -30.2948   23.7699 H   0  0  0  0  0  0
  -15.8704  -28.0844   22.7026 H   0  0  0  0  0  0
  -24.5880  -30.7160   25.7600 H   0  0  0  0  0  0
  -24.8878  -32.3024   26.4606 H   0  0  0  0  0  0
  -25.7895  -30.9055   27.0184 H   0  0  0  0  0  0
  -26.3190  -29.6548   24.1494 H   0  0  0  0  0  0
  -27.3970  -29.7311   25.5193 H   0  0  0  0  0  0
  -27.9145  -30.4042   23.9959 H   0  0  0  0  0  0
  -27.2582  -33.3727   26.1943 H   0  0  0  0  0  0
  -28.3959  -32.6889   25.0414 H   0  0  0  0  0  0
  -28.0611  -31.8618   26.5573 H   0  0  0  0  0  0
  -28.2586  -38.0044   24.7448 H   0  0  0  0  0  0
  -28.1037  -36.2554   24.6398 H   0  0  0  0  0  0
  -27.2244  -37.1510   25.8882 H   0  0  0  0  0  0
  -20.9545  -29.8751   21.6690 H   0  0  0  0  0  0
  -26.0126  -38.2733   24.1393 H   0  0  0  0  0  0
  -31.5311  -18.2283   18.9399 H   0  0  0  0  0  0
  -29.8539  -22.9172   20.9713 H   0  0  0  0  0  0
  -28.3365  -22.4657   21.5903 H   0  0  0  0  0  0
  -27.1443  -23.9146   19.7437 H   0  0  0  0  0  0
  -28.6288  -24.1429   18.9236 H   0  0  0  0  0  0
  -28.6769  -16.4011   20.7442 H   0  0  0  0  0  0
  1 25  1  0  0  0
  1 30  2  0  0  0
  1 77  1  0  0  0
  2  3  1  0  0  0
  2 25  1  0  0  0
  2 79  1  0  0  0
  2 80  1  0  0  0
  3  4  1  0  0  0
  3 81  1  0  0  0
  3 82  1  0  0  0
  4  5  1  0  0  0
  4 83  1  0  0  0
  4 84  1  0  0  0
  5  6  1  0  0  0
  5 26  1  0  0  0
  5 85  1  0  0  0
  6 25  1  0  0  0
  6 86  1  0  0  0
  6 87  1  0  0  0
  7  8  2  0  0  0
  7 26  1  0  0  0
  7 29  1  0  0  0
  8  9  1  0  0  0
  8 22  1  0  0  0
  9 10  1  0  0  0
  9 27  2  0  0  0
 10 11  2  0  0  0
 10 15  1  0  0  0
 11 12  1  0  0  0
 11 88  1  0  0  0
 12 13  2  0  0  0
 12 89  1  0  0  0
 13 14  1  0  0  0
 13 31  1  0  0  0
 14 15  2  0  0  0
 14 90  1  0  0  0
 15 91  1  0  0  0
 16 17  2  0  0  0
 16 21  1  0  0  0
 16 31  1  0  0  0
 17 18  1  0  0  0
 17 92  1  0  0  0
 18 19  2  0  0  0
 18 93  1  0  0  0
 19 20  1  0  0  0
 19 24  1  0  0  0
 20 21  2  0  0  0
 20 94  1  0  0  0
 21 23  1  0  0  0
 22 28  1  0  0  0
 22 32  2  0  0  0
 26 27  1  0  0  0
 28 95  1  0  0  0
 28 96  1  0  0  0
 29 97  1  0  0  0
 29 98  1  0  0  0
 33 34  1  0  0  0
 33 66  1  0  0  0
 33 70  2  0  0  0
 34 36  1  0  0  0
 34 59  1  0  0  0
 34 99  1  0  0  0
 35 44  2  0  0  0
 35 45  1  0  0  0
 35 68  1  0  0  0
 36 56  1  0  0  0
 36100  1  0  0  0
 37 39  1  0  0  0
 37 47  1  0  0  0
 37 66  1  0  0  0
 37101  1  0  0  0
 38 43  2  0  0  0
 38 46  1  0  0  0
 38 47  1  0  0  0
 39 64  1  0  0  0
 39 67  2  0  0  0
 40 52  1  0  0  0
 40 53  2  0  0  0
 40 58  1  0  0  0
 41102  1  0  0  0
 41103  1  0  0  0
 41104  1  0  0  0
 41 48  1  0  0  0
 42 43  1  0  0  0
 42 66  1  0  0  0
 42105  1  0  0  0
 42106  1  0  0  0
 43 44  1  0  0  0
 44107  1  0  0  0
 45 46  2  0  0  0
 45108  1  0  0  0
 46109  1  0  0  0
 47110  1  0  0  0
 47111  1  0  0  0
 48 56  1  0  0  0
 48 65  1  0  0  0
 48112  1  0  0  0
 49 50  1  0  0  0
 49 53  1  0  0  0
 49 64  1  0  0  0
 49113  1  0  0  0
 50 51  1  0  0  0
 50114  1  0  0  0
 50115  1  0  0  0
 51 52  1  0  0  0
 51116  1  0  0  0
 51117  1  0  0  0
 52118  1  0  0  0
 52119  1  0  0  0
 53 54  1  0  0  0
 54 55  2  0  0  0
 54120  1  0  0  0
 55 57  1  0  0  0
 55121  1  0  0  0
 56 69  2  0  0  0
 57 58  2  0  0  0
 57122  1  0  0  0
 58123  1  0  0  0
 59 60  1  0  0  0
 59 61  1  0  0  0
 59 62  1  0  0  0
 60124  1  0  0  0
 60125  1  0  0  0
 60126  1  0  0  0
 61127  1  0  0  0
 61128  1  0  0  0
 61129  1  0  0  0
 62130  1  0  0  0
 62131  1  0  0  0
 62132  1  0  0  0
 63 65  1  0  0  0
 63133  1  0  0  0
 63134  1  0  0  0
 63135  1  0  0  0
 64136  1  0  0  0
 65137  1  0  0  0
 68 75  1  0  0  0
 71 72  2  0  0  0
 71 78  1  0  0  0
 71138  1  0  0  0
 72 76  1  0  0  0
 72 77  1  0  0  0
 73 74  1  0  0  0
 73 76  2  0  0  0
 73 78  1  0  0  0
 74 75  1  0  0  0
 74139  1  0  0  0
 74140  1  0  0  0
 75141  1  0  0  0
 75142  1  0  0  0
 77143  1  0  0  0
M  ISO  4   1 100  68 101  75 101  77 100
M  END
> <chiral flag>
0

> <version>
0

> <s_m_source_file>
/data/baiqing/PycharmProjects/Reinvent-master-3.2/result/LINK_invent/BTK/process_docking_weight1_custom_product_contain_oxygen_bond_distance_aromatic_linkinvent_7_9_3/rearranged_h_0185.sdf

> <i_m_source_file_index>
44

> <r_mmod_Potential_Energy-OPLS-2005>
1431.31567382812

> <r_mmod_Stretch_Energy-OPLS-2005>
682.936767578125

> <r_mmod_Bend_Energy-OPLS-2005>
487.218688964844

> <r_mmod_Torsional_Energy-OPLS-2005>
205.861480712891

> <r_mmod_Improper_Torsional_Energy-OPLS-2005>
4.86352872848511

> <r_mmod_Van_der_Waal_Energy-OPLS-2005>
106.954727172852

> <r_mmod_Electrostatic_Energy-OPLS-2005>
-379.755310058594

> <r_mmod_Solvation_Energy-OPLS-2005>
-222.853332519531

> <b_mmod_Minimization_Converged-OPLS-2005>
0

> <r_mmod_RMS_Derivative-OPLS-2005>
3.8500292301178

$$$$
44
                    3D
 Structure written by MMmdl.
156164  0  0  1  0            999 V2000
  -30.6245  -14.7478   20.4549 C   0  0  0  0  0  0
  -30.4243  -12.4596   19.4745 C   0  0  0  0  0  0
  -29.5021  -12.4996   18.2376 C   0  0  0  0  0  0
  -28.0315  -12.3226   18.6569 C   0  0  0  0  0  0
  -27.6365  -13.2337   19.8496 C   0  0  2  0  0  0
  -28.6814  -13.1887   20.9842 C   0  0  0  0  0  0
  -25.2485  -13.8207   20.5715 C   0  0  0  0  0  0
  -24.1782  -13.0446   20.9226 C   0  0  0  0  0  0
  -24.6378  -11.6927   20.8765 C   0  0  0  0  0  0
  -23.9062  -10.4303   21.0420 C   0  0  0  0  0  0
  -24.3616   -9.4208   21.9189 C   0  0  0  0  0  0
  -23.6292   -8.2240   22.0750 C   0  0  0  0  0  0
  -22.4276   -8.0277   21.3542 C   0  0  0  0  0  0
  -21.9912   -9.0256   20.4652 C   0  0  0  0  0  0
  -22.7236  -10.2140   20.3066 C   0  0  0  0  0  0
  -21.6851   -6.0732   22.5283 C   0  0  0  0  0  0
  -21.4014   -6.5640   23.8216 C   0  0  0  0  0  0
  -21.3658   -5.6794   24.9181 C   0  0  0  0  0  0
  -21.6042   -4.3055   24.7233 C   0  0  0  0  0  0
  -21.8815   -3.8146   23.4355 C   0  0  0  0  0  0
  -21.9195   -4.6960   22.3411 C   0  0  0  0  0  0
  -22.7805  -13.5220   21.1888 C   0  0  0  0  0  0
  -22.1660   -4.2141   21.0988 F   0  0  0  0  0  0
  -21.5634   -3.4540   25.7747 F   0  0  0  0  0  0
  -29.9779  -13.5338   20.3928 N   0  0  0  0  0  0
  -26.2906  -12.9413   20.3307 N   0  0  0  0  0  0
  -25.9307  -11.6555   20.5785 N   0  0  0  0  0  0
  -22.0459  -12.8204   22.0447 N   0  0  0  0  0  0
  -25.4169  -15.1935   20.4127 N   0  0  0  0  0  0
  -31.8204  -14.8095   20.1587 O   0  0  0  0  0  0
  -21.6638   -6.8874   21.4241 O   0  0  0  0  0  0
  -22.3486  -14.5525   20.6735 O   0  0  0  0  0  0
  -24.6297  -31.8549   23.1975 C   0  0  0  0  0  0
  -25.9136  -32.4739   23.8315 C   0  0  1  0  0  0
  -27.2206  -27.2697   20.1509 C   0  0  0  0  0  0
  -25.5945  -33.8545   24.2254 N   0  0  0  0  0  0
  -23.4250  -30.4752   21.5411 C   0  0  2  0  0  0
  -24.8711  -28.9119   20.1178 C   0  0  0  0  0  0
  -22.7489  -29.4602   22.4933 C   0  0  0  0  0  0
  -18.0289  -28.1382   22.8493 C   0  0  0  0  0  0
  -24.1492  -36.7268   23.2646 C   0  0  0  0  0  0
  -25.9671  -30.7729   21.3721 C   0  0  0  0  0  0
  -26.0407  -29.3934   20.7202 C   0  0  0  0  0  0
  -27.2208  -28.5892   20.7141 C   0  0  0  0  0  0
  -26.0346  -26.8447   19.5216 C   0  0  0  0  0  0
  -24.8722  -27.6455   19.5070 C   0  0  0  0  0  0
  -23.6420  -29.8009   20.1596 C   0  0  0  0  0  0
  -25.4122  -36.3064   24.0334 C   0  0  1  0  0  0
  -20.5894  -28.3692   23.1281 C   0  0  2  0  0  0
  -20.6788  -26.9411   22.5418 C   0  0  0  0  0  0
  -19.5763  -26.6379   21.5221 C   0  0  0  0  0  0
  -18.1939  -26.7924   22.1623 C   0  0  0  0  0  0
  -19.1544  -28.8849   23.2882 C   0  0  0  0  0  0
  -18.9463  -30.1455   23.8897 C   0  0  0  0  0  0
  -17.6467  -30.6588   24.0559 C   0  0  0  0  0  0
  -25.9064  -34.9431   23.5095 C   0  0  0  0  0  0
  -16.5355  -29.9088   23.6335 C   0  0  0  0  0  0
  -16.7279  -28.6500   23.0361 C   0  0  0  0  0  0
  -26.4504  -31.6552   25.0697 C   0  0  0  0  0  0
  -25.3722  -31.3711   26.1416 C   0  0  0  0  0  0
  -27.0353  -30.2963   24.6176 C   0  0  0  0  0  0
  -27.6064  -32.4281   25.7470 C   0  0  0  0  0  0
  -27.5579  -37.1790   24.8474 C   0  0  0  0  0  0
  -21.4199  -29.3035   22.3662 N   0  0  0  0  0  0
  -26.4291  -37.3765   23.9413 N   0  0  0  0  0  0
  -24.6928  -31.0532   22.0933 N   0  0  0  0  0  0
  -23.4187  -28.8171   23.3051 O   0  0  0  0  0  0
  -28.3410  -26.4178   20.1248 O   0  0  0  0  0  0
  -26.5629  -34.8914   22.4663 O   0  0  0  0  0  0
  -23.5457  -32.1365   23.7291 O   0  0  0  0  0  0
  -28.1513  -20.3404   19.9530 C   0  0  0  0  0  0
  -29.0238  -21.2312   20.5669 C   0  0  0  0  0  0
  -29.6827  -18.6694   20.5441 C   0  0  0  0  0  0
  -28.2941  -23.7014   20.2704 C   0  0  0  0  0  0
  -28.5222  -26.3633   23.2375 C   0  0  0  0  0  0
  -26.3565  -25.2400   22.4988 C   0  0  0  0  0  0
  -30.5106  -17.3196   20.5348 C   0  0  0  0  0  0
  -28.4748  -25.1593   20.9469 C   0  0  2  0  0  0
  -27.8942  -25.2369   22.3947 C   0  0  0  0  0  0
  -28.5160  -18.9533   19.9344 N   0  0  0  0  0  0
  -28.9910  -22.6218   20.8008 N   0  0  0  0  0  0
  -29.9027  -15.9216   20.6318 N   0  0  0  0  0  0
  -27.5624  -23.5772   19.2864 O   0  0  0  0  0  0
  -27.0177  -20.7300   19.4184 F   0  0  0  0  0  0
  -30.3541  -20.2150   21.1916 S   0  0  0  0  0  0
  -31.4645  -12.5796   19.1663 H   0  0  0  0  0  0
  -30.3694  -11.4886   19.9701 H   0  0  0  0  0  0
  -29.7843  -11.7194   17.5297 H   0  0  0  0  0  0
  -29.6243  -13.4494   17.7151 H   0  0  0  0  0  0
  -27.8970  -11.2760   18.9330 H   0  0  0  0  0  0
  -27.3688  -12.4993   17.8096 H   0  0  0  0  0  0
  -27.6263  -14.2507   19.4573 H   0  0  0  0  0  0
  -28.7204  -12.1999   21.4435 H   0  0  0  0  0  0
  -28.4166  -13.8877   21.7793 H   0  0  0  0  0  0
  -25.2757   -9.5677   22.4769 H   0  0  0  0  0  0
  -23.9998   -7.4625   22.7464 H   0  0  0  0  0  0
  -21.0839   -8.8781   19.8959 H   0  0  0  0  0  0
  -22.3688  -10.9682   19.6184 H   0  0  0  0  0  0
  -21.1999   -7.6147   23.9716 H   0  0  0  0  0  0
  -21.1484   -6.0529   25.9084 H   0  0  0  0  0  0
  -22.0592   -2.7604   23.2867 H   0  0  0  0  0  0
  -22.4081  -11.9863   22.4822 H   0  0  0  0  0  0
  -21.1078  -13.1226   22.2677 H   0  0  0  0  0  0
  -24.6482  -15.8447   20.5289 H   0  0  0  0  0  0
  -26.2615  -15.6369   20.0747 H   0  0  0  0  0  0
  -26.7202  -32.5396   23.1058 H   0  0  0  0  0  0
  -25.0098  -33.9675   25.0404 H   0  0  0  0  0  0
  -22.7214  -31.2977   21.3937 H   0  0  0  0  0  0
  -23.3760  -35.9594   23.3313 H   0  0  0  0  0  0
  -24.3574  -36.8879   22.2057 H   0  0  0  0  0  0
  -23.7236  -37.6469   23.6661 H   0  0  0  0  0  0
  -26.1034  -31.5323   20.6014 H   0  0  0  0  0  0
  -26.8446  -30.8217   22.0049 H   0  0  0  0  0  0
  -28.1235  -28.9657   21.1734 H   0  0  0  0  0  0
  -26.0055  -25.8708   19.0535 H   0  0  0  0  0  0
  -23.9757  -27.2703   19.0339 H   0  0  0  0  0  0
  -23.7694  -30.5739   19.4005 H   0  0  0  0  0  0
  -22.7584  -29.2366   19.8568 H   0  0  0  0  0  0
  -25.1304  -36.1910   25.0826 H   0  0  0  0  0  0
  -20.9985  -28.3271   24.1403 H   0  0  0  0  0  0
  -20.5698  -26.2301   23.3624 H   0  0  0  0  0  0
  -21.6658  -26.7449   22.1204 H   0  0  0  0  0  0
  -19.6932  -25.6290   21.1257 H   0  0  0  0  0  0
  -19.6702  -27.3186   20.6749 H   0  0  0  0  0  0
  -17.4215  -26.6674   21.4019 H   0  0  0  0  0  0
  -18.0329  -26.0062   22.9013 H   0  0  0  0  0  0
  -19.7941  -30.7270   24.2266 H   0  0  0  0  0  0
  -17.5023  -31.6276   24.5154 H   0  0  0  0  0  0
  -15.5359  -30.2989   23.7671 H   0  0  0  0  0  0
  -15.8673  -28.0823   22.7084 H   0  0  0  0  0  0
  -24.5886  -30.7083   25.7733 H   0  0  0  0  0  0
  -24.8942  -32.2900   26.4836 H   0  0  0  0  0  0
  -25.8023  -30.8871   27.0195 H   0  0  0  0  0  0
  -26.2943  -29.6713   24.1181 H   0  0  0  0  0  0
  -27.4016  -29.7218   25.4693 H   0  0  0  0  0  0
  -27.8823  -30.4233   23.9431 H   0  0  0  0  0  0
  -27.2679  -33.3590   26.2035 H   0  0  0  0  0  0
  -28.3882  -32.6833   25.0306 H   0  0  0  0  0  0
  -28.0718  -31.8408   26.5393 H   0  0  0  0  0  0
  -28.2608  -38.0079   24.7516 H   0  0  0  0  0  0
  -28.1062  -36.2609   24.6309 H   0  0  0  0  0  0
  -27.2293  -37.1452   25.8876 H   0  0  0  0  0  0
  -20.9393  -29.8724   21.6834 H   0  0  0  0  0  0
  -26.0171  -38.2840   24.1405 H   0  0  0  0  0  0
  -28.1961  -26.3054   24.2762 H   0  0  0  0  0  0
  -28.2481  -27.3500   22.8716 H   0  0  0  0  0  0
  -29.6110  -26.3037   23.2351 H   0  0  0  0  0  0
  -26.0372  -25.0318   23.5209 H   0  0  0  0  0  0
  -25.9076  -24.4796   21.8599 H   0  0  0  0  0  0
  -25.9262  -26.2038   22.2298 H   0  0  0  0  0  0
  -31.2373  -17.3953   21.3443 H   0  0  0  0  0  0
  -31.1102  -17.3439   19.6235 H   0  0  0  0  0  0
  -29.5545  -25.1624   21.1010 H   0  0  0  0  0  0
  -28.2050  -24.3134   22.8859 H   0  0  0  0  0  0
  -29.6279  -22.9119   21.5290 H   0  0  0  0  0  0
  -28.9121  -15.8569   20.8096 H   0  0  0  0  0  0
  1 25  1  0  0  0
  1 30  2  0  0  0
  1 82  1  0  0  0
  2  3  1  0  0  0
  2 25  1  0  0  0
  2 86  1  0  0  0
  2 87  1  0  0  0
  3  4  1  0  0  0
  3 88  1  0  0  0
  3 89  1  0  0  0
  4  5  1  0  0  0
  4 90  1  0  0  0
  4 91  1  0  0  0
  5  6  1  0  0  0
  5 26  1  0  0  0
  5 92  1  0  0  0
  6 25  1  0  0  0
  6 93  1  0  0  0
  6 94  1  0  0  0
  7  8  2  0  0  0
  7 26  1  0  0  0
  7 29  1  0  0  0
  8  9  1  0  0  0
  8 22  1  0  0  0
  9 10  1  0  0  0
  9 27  2  0  0  0
 10 11  2  0  0  0
 10 15  1  0  0  0
 11 12  1  0  0  0
 11 95  1  0  0  0
 12 13  2  0  0  0
 12 96  1  0  0  0
 13 14  1  0  0  0
 13 31  1  0  0  0
 14 15  2  0  0  0
 14 97  1  0  0  0
 15 98  1  0  0  0
 16 17  2  0  0  0
 16 21  1  0  0  0
 16 31  1  0  0  0
 17 18  1  0  0  0
 17 99  1  0  0  0
 18 19  2  0  0  0
 18100  1  0  0  0
 19 20  1  0  0  0
 19 24  1  0  0  0
 20 21  2  0  0  0
 20101  1  0  0  0
 21 23  1  0  0  0
 22 28  1  0  0  0
 22 32  2  0  0  0
 26 27  1  0  0  0
 28102  1  0  0  0
 28103  1  0  0  0
 29104  1  0  0  0
 29105  1  0  0  0
 33 34  1  0  0  0
 33 66  1  0  0  0
 33 70  2  0  0  0
 34 36  1  0  0  0
 34 59  1  0  0  0
 34106  1  0  0  0
 35 44  2  0  0  0
 35 45  1  0  0  0
 35 68  1  0  0  0
 36 56  1  0  0  0
 36107  1  0  0  0
 37 39  1  0  0  0
 37 47  1  0  0  0
 37 66  1  0  0  0
 37108  1  0  0  0
 38 43  2  0  0  0
 38 46  1  0  0  0
 38 47  1  0  0  0
 39 64  1  0  0  0
 39 67  2  0  0  0
 40 52  1  0  0  0
 40 53  2  0  0  0
 40 58  1  0  0  0
 41109  1  0  0  0
 41110  1  0  0  0
 41111  1  0  0  0
 41 48  1  0  0  0
 42 43  1  0  0  0
 42 66  1  0  0  0
 42112  1  0  0  0
 42113  1  0  0  0
 43 44  1  0  0  0
 44114  1  0  0  0
 45 46  2  0  0  0
 45115  1  0  0  0
 46116  1  0  0  0
 47117  1  0  0  0
 47118  1  0  0  0
 48 56  1  0  0  0
 48 65  1  0  0  0
 48119  1  0  0  0
 49 50  1  0  0  0
 49 53  1  0  0  0
 49 64  1  0  0  0
 49120  1  0  0  0
 50 51  1  0  0  0
 50121  1  0  0  0
 50122  1  0  0  0
 51 52  1  0  0  0
 51123  1  0  0  0
 51124  1  0  0  0
 52125  1  0  0  0
 52126  1  0  0  0
 53 54  1  0  0  0
 54 55  2  0  0  0
 54127  1  0  0  0
 55 57  1  0  0  0
 55128  1  0  0  0
 56 69  2  0  0  0
 57 58  2  0  0  0
 57129  1  0  0  0
 58130  1  0  0  0
 59 60  1  0  0  0
 59 61  1  0  0  0
 59 62  1  0  0  0
 60131  1  0  0  0
 60132  1  0  0  0
 60133  1  0  0  0
 61134  1  0  0  0
 61135  1  0  0  0
 61136  1  0  0  0
 62137  1  0  0  0
 62138  1  0  0  0
 62139  1  0  0  0
 63 65  1  0  0  0
 63140  1  0  0  0
 63141  1  0  0  0
 63142  1  0  0  0
 64143  1  0  0  0
 65144  1  0  0  0
 68 78  1  0  0  0
 71 72  2  0  0  0
 71 80  1  0  0  0
 71 84  1  0  0  0
 72 81  1  0  0  0
 72 85  1  0  0  0
 73 77  1  0  0  0
 73 80  2  0  0  0
 73 85  1  0  0  0
 74 78  1  0  0  0
 74 81  1  0  0  0
 74 83  2  0  0  0
 75145  1  0  0  0
 75146  1  0  0  0
 75147  1  0  0  0
 75 79  1  0  0  0
 76 79  1  0  0  0
 76148  1  0  0  0
 76149  1  0  0  0
 76150  1  0  0  0
 77 82  1  0  0  0
 77151  1  0  0  0
 77152  1  0  0  0
 78 79  1  0  0  0
 78153  1  0  0  0
 79154  1  0  0  0
 81155  1  0  0  0
 82156  1  0  0  0
M  ISO  4   1 100  68 101  78 101  82 100
M  END
> <chiral flag>
0

> <version>
0

> <s_m_source_file>
/data/baiqing/PycharmProjects/Reinvent-master-3.2/result/LINK_invent/BTK/process_docking_weight1_custom_product_contain_oxygen_bond_distance_aromatic_linkinvent_7_9_3/rearranged_h_0185.sdf

> <i_m_source_file_index>
45

> <r_mmod_Potential_Energy-OPLS-2005>
83.3462524414062

> <r_mmod_Stretch_Energy-OPLS-2005>
115.459655761719

> <r_mmod_Bend_Energy-OPLS-2005>
220.518905639648

> <r_mmod_Torsional_Energy-OPLS-2005>
239.807022094727

> <r_mmod_Improper_Torsional_Energy-OPLS-2005>
5.63197040557861

> <r_mmod_Van_der_Waal_Energy-OPLS-2005>
104.11799621582

> <r_mmod_Electrostatic_Energy-OPLS-2005>
-444.820404052734

> <r_mmod_Solvation_Energy-OPLS-2005>
-238.352172851562

> <b_mmod_Minimization_Converged-OPLS-2005>
0

> <r_mmod_RMS_Derivative-OPLS-2005>
1.39425408840179

$$$$
45
                    3D
 Structure written by MMmdl.
159167  0  0  1  0            999 V2000
  -30.7021  -14.4645   20.4966 C   0  0  0  0  0  0
  -30.4224  -12.2826   19.4228 C   0  0  0  0  0  0
  -29.4923  -12.4856   18.2068 C   0  0  0  0  0  0
  -28.0138  -12.3522   18.6243 C   0  0  0  0  0  0
  -27.6600  -13.1966   19.8775 C   0  0  2  0  0  0
  -28.7100  -12.9990   20.9977 C   0  0  0  0  0  0
  -25.2591  -13.8134   20.5689 C   0  0  0  0  0  0
  -24.1833  -13.0426   20.9186 C   0  0  0  0  0  0
  -24.6371  -11.6889   20.8750 C   0  0  0  0  0  0
  -23.9032  -10.4284   21.0419 C   0  0  0  0  0  0
  -24.3590   -9.4204   21.9191 C   0  0  0  0  0  0
  -23.6274   -8.2233   22.0756 C   0  0  0  0  0  0
  -22.4263   -8.0268   21.3537 C   0  0  0  0  0  0
  -21.9886   -9.0249   20.4651 C   0  0  0  0  0  0
  -22.7211  -10.2128   20.3062 C   0  0  0  0  0  0
  -21.6844   -6.0731   22.5279 C   0  0  0  0  0  0
  -21.4011   -6.5640   23.8216 C   0  0  0  0  0  0
  -21.3657   -5.6792   24.9174 C   0  0  0  0  0  0
  -21.6046   -4.3051   24.7225 C   0  0  0  0  0  0
  -21.8822   -3.8141   23.4345 C   0  0  0  0  0  0
  -21.9192   -4.6960   22.3402 C   0  0  0  0  0  0
  -22.7862  -13.5236   21.1860 C   0  0  0  0  0  0
  -22.1657   -4.2143   21.0981 F   0  0  0  0  0  0
  -21.5633   -3.4540   25.7740 F   0  0  0  0  0  0
  -30.0419  -13.2785   20.4340 N   0  0  0  0  0  0
  -26.3016  -12.9279   20.3393 N   0  0  0  0  0  0
  -25.9298  -11.6454   20.5794 N   0  0  0  0  0  0
  -22.0479  -12.8234   22.0403 N   0  0  0  0  0  0
  -25.4308  -15.1856   20.4084 N   0  0  0  0  0  0
  -31.8772  -14.6004   20.1410 O   0  0  0  0  0  0
  -21.6625   -6.8870   21.4240 O   0  0  0  0  0  0
  -22.3568  -14.5552   20.6714 O   0  0  0  0  0  0
  -24.6098  -31.8703   23.2126 C   0  0  0  0  0  0
  -25.9008  -32.4831   23.8411 C   0  0  1  0  0  0
  -27.2345  -27.4594   20.1012 C   0  0  0  0  0  0
  -25.5891  -33.8633   24.2351 N   0  0  0  0  0  0
  -23.3966  -30.4921   21.5532 C   0  0  2  0  0  0
  -24.8445  -28.9587   20.1195 C   0  0  0  0  0  0
  -22.7379  -29.4654   22.5017 C   0  0  0  0  0  0
  -18.0259  -28.1363   22.8491 C   0  0  0  0  0  0
  -24.1492  -36.7325   23.2639 C   0  0  0  0  0  0
  -25.9223  -30.8425   21.3628 C   0  0  0  0  0  0
  -26.0017  -29.4779   20.7132 C   0  0  0  0  0  0
  -27.2016  -28.7352   20.7014 C   0  0  0  0  0  0
  -26.0651  -26.9492   19.4964 C   0  0  0  0  0  0
  -24.8687  -27.6914   19.5097 C   0  0  0  0  0  0
  -23.6039  -29.8206   20.1693 C   0  0  0  0  0  0
  -25.4110  -36.3122   24.0346 C   0  0  1  0  0  0
  -20.5844  -28.3643   23.1338 C   0  0  2  0  0  0
  -20.6749  -26.9388   22.5420 C   0  0  0  0  0  0
  -19.5741  -26.6377   21.5208 C   0  0  0  0  0  0
  -18.1916  -26.7914   22.1613 C   0  0  0  0  0  0
  -19.1507  -28.8820   23.2910 C   0  0  0  0  0  0
  -18.9436  -30.1428   23.8910 C   0  0  0  0  0  0
  -17.6442  -30.6578   24.0550 C   0  0  0  0  0  0
  -25.9028  -34.9481   23.5147 C   0  0  0  0  0  0
  -16.5334  -29.9073   23.6328 C   0  0  0  0  0  0
  -16.7247  -28.6489   23.0352 C   0  0  0  0  0  0
  -26.4459  -31.6590   25.0719 C   0  0  0  0  0  0
  -25.3745  -31.3693   26.1487 C   0  0  0  0  0  0
  -27.0269  -30.3029   24.6069 C   0  0  0  0  0  0
  -27.6067  -32.4281   25.7460 C   0  0  0  0  0  0
  -27.5591  -37.1812   24.8463 C   0  0  0  0  0  0
  -21.4113  -29.3020   22.3756 N   0  0  0  0  0  0
  -26.4301  -37.3800   23.9413 N   0  0  0  0  0  0
  -24.6608  -31.0818   22.1018 N   0  0  0  0  0  0
  -23.4167  -28.8199   23.3050 O   0  0  0  0  0  0
  -28.4086  -26.7483   20.0795 O   0  0  0  0  0  0
  -26.5579  -34.8926   22.4700 O   0  0  0  0  0  0
  -23.5298  -32.1446   23.7540 O   0  0  0  0  0  0
  -29.2829  -17.7271   17.8297 C   0  0  0  0  0  0
  -30.0745  -18.8292   18.1738 C   0  0  0  0  0  0
  -29.2337  -16.6424   18.7179 C   0  0  0  0  0  0
  -30.7596  -18.8210   19.3987 C   0  0  0  0  0  0
  -29.9655  -16.6841   19.9240 C   0  0  0  0  0  0
  -30.1124  -22.0634   19.7122 C   0  0  0  0  0  0
  -32.7891  -19.7453   20.6852 C   0  0  0  0  0  0
  -29.2576  -23.0578   20.5053 C   0  0  0  0  0  0
  -28.3604  -25.4541   20.6854 C   0  0  0  0  0  0
  -31.5688  -20.0523   19.8016 C   0  0  2  0  0  0
  -29.2892  -24.4929   19.9308 C   0  0  1  0  0  0
  -30.6703  -17.7888   20.2759 N   0  0  0  0  0  0
  -29.9207  -15.5287   20.7424 N   0  0  0  0  0  0
  -30.7189  -21.0825   20.3963 N   0  0  0  0  0  0
  -30.2160  -22.1789   18.4887 O   0  0  0  0  0  0
  -30.5371  -24.9685   19.9842 F   0  0  0  0  0  0
  -31.4667  -12.3713   19.1175 H   0  0  0  0  0  0
  -30.3149  -11.2755   19.8274 H   0  0  0  0  0  0
  -29.7245  -11.7552   17.4310 H   0  0  0  0  0  0
  -29.6657  -13.4661   17.7627 H   0  0  0  0  0  0
  -27.8257  -11.2971   18.8271 H   0  0  0  0  0  0
  -27.3615  -12.6251   17.7931 H   0  0  0  0  0  0
  -27.6878  -14.2383   19.5730 H   0  0  0  0  0  0
  -28.6802  -11.9725   21.3701 H   0  0  0  0  0  0
  -28.4892  -13.6332   21.8573 H   0  0  0  0  0  0
  -25.2727   -9.5694   22.4771 H   0  0  0  0  0  0
  -23.9994   -7.4624   22.7461 H   0  0  0  0  0  0
  -21.0816   -8.8772   19.8954 H   0  0  0  0  0  0
  -22.3668  -10.9673   19.6176 H   0  0  0  0  0  0
  -21.2002   -7.6150   23.9715 H   0  0  0  0  0  0
  -21.1476   -6.0518   25.9079 H   0  0  0  0  0  0
  -22.0600   -2.7603   23.2837 H   0  0  0  0  0  0
  -22.4038  -11.9868   22.4784 H   0  0  0  0  0  0
  -21.1120  -13.1323   22.2624 H   0  0  0  0  0  0
  -24.6597  -15.8360   20.5177 H   0  0  0  0  0  0
  -26.2780  -15.6300   20.0785 H   0  0  0  0  0  0
  -26.7075  -32.5554   23.1176 H   0  0  0  0  0  0
  -25.0051  -33.9805   25.0504 H   0  0  0  0  0  0
  -22.6827  -31.3064   21.4140 H   0  0  0  0  0  0
  -23.3758  -35.9652   23.3291 H   0  0  0  0  0  0
  -24.3603  -36.8942   22.2058 H   0  0  0  0  0  0
  -23.7232  -37.6529   23.6643 H   0  0  0  0  0  0
  -26.0299  -31.6075   20.5926 H   0  0  0  0  0  0
  -26.8113  -30.8970   21.9789 H   0  0  0  0  0  0
  -28.0962  -29.1327   21.1609 H   0  0  0  0  0  0
  -26.0783  -25.9848   19.0080 H   0  0  0  0  0  0
  -23.9787  -27.2870   19.0482 H   0  0  0  0  0  0
  -23.7053  -30.5914   19.4043 H   0  0  0  0  0  0
  -22.7309  -29.2321   19.8807 H   0  0  0  0  0  0
  -25.1283  -36.2000   25.0839 H   0  0  0  0  0  0
  -20.9925  -28.3195   24.1463 H   0  0  0  0  0  0
  -20.5664  -26.2244   23.3594 H   0  0  0  0  0  0
  -21.6621  -26.7446   22.1212 H   0  0  0  0  0  0
  -19.6906  -25.6289   21.1230 H   0  0  0  0  0  0
  -19.6693  -27.3193   20.6744 H   0  0  0  0  0  0
  -17.4194  -26.6656   21.4009 H   0  0  0  0  0  0
  -18.0321  -26.0049   22.9002 H   0  0  0  0  0  0
  -19.7918  -30.7233   24.2291 H   0  0  0  0  0  0
  -17.5005  -31.6270   24.5127 H   0  0  0  0  0  0
  -15.5331  -30.2975   23.7661 H   0  0  0  0  0  0
  -15.8644  -28.0810   22.7068 H   0  0  0  0  0  0
  -24.5893  -30.7073   25.7815 H   0  0  0  0  0  0
  -24.8971  -32.2851   26.4981 H   0  0  0  0  0  0
  -25.8113  -30.8813   27.0210 H   0  0  0  0  0  0
  -26.2786  -29.6799   24.1154 H   0  0  0  0  0  0
  -27.4070  -29.7259   25.4510 H   0  0  0  0  0  0
  -27.8615  -30.4338   23.9181 H   0  0  0  0  0  0
  -27.2728  -33.3585   26.2064 H   0  0  0  0  0  0
  -28.3859  -32.6824   25.0262 H   0  0  0  0  0  0
  -28.0748  -31.8376   26.5345 H   0  0  0  0  0  0
  -28.2603  -38.0111   24.7521 H   0  0  0  0  0  0
  -28.1086  -36.2649   24.6263 H   0  0  0  0  0  0
  -27.2318  -37.1439   25.8866 H   0  0  0  0  0  0
  -20.9261  -29.8736   21.6985 H   0  0  0  0  0  0
  -26.0200  -38.2887   24.1399 H   0  0  0  0  0  0
  -28.7393  -17.7075   16.8965 H   0  0  0  0  0  0
  -30.1435  -19.6801   17.5095 H   0  0  0  0  0  0
  -28.6581  -15.7761   18.4323 H   0  0  0  0  0  0
  -33.4430  -19.0187   20.2016 H   0  0  0  0  0  0
  -32.4958  -19.3396   21.6526 H   0  0  0  0  0  0
  -33.3783  -20.6450   20.8644 H   0  0  0  0  0  0
  -29.5885  -23.0766   21.5440 H   0  0  0  0  0  0
  -28.2322  -22.6870   20.5089 H   0  0  0  0  0  0
  -28.6777  -25.5442   21.7252 H   0  0  0  0  0  0
  -27.3532  -25.0349   20.7085 H   0  0  0  0  0  0
  -31.9916  -20.4472   18.8757 H   0  0  0  0  0  0
  -29.0016  -24.4781   18.8786 H   0  0  0  0  0  0
  -29.0021  -15.2732   21.0632 H   0  0  0  0  0  0
  -30.5494  -21.0106   21.3891 H   0  0  0  0  0  0
  1 25  1  0  0  0
  1 30  2  0  0  0
  1 83  1  0  0  0
  2  3  1  0  0  0
  2 25  1  0  0  0
  2 87  1  0  0  0
  2 88  1  0  0  0
  3  4  1  0  0  0
  3 89  1  0  0  0
  3 90  1  0  0  0
  4  5  1  0  0  0
  4 91  1  0  0  0
  4 92  1  0  0  0
  5  6  1  0  0  0
  5 26  1  0  0  0
  5 93  1  0  0  0
  6 25  1  0  0  0
  6 94  1  0  0  0
  6 95  1  0  0  0
  7  8  2  0  0  0
  7 26  1  0  0  0
  7 29  1  0  0  0
  8  9  1  0  0  0
  8 22  1  0  0  0
  9 10  1  0  0  0
  9 27  2  0  0  0
 10 11  2  0  0  0
 10 15  1  0  0  0
 11 12  1  0  0  0
 11 96  1  0  0  0
 12 13  2  0  0  0
 12 97  1  0  0  0
 13 14  1  0  0  0
 13 31  1  0  0  0
 14 15  2  0  0  0
 14 98  1  0  0  0
 15 99  1  0  0  0
 16 17  2  0  0  0
 16 21  1  0  0  0
 16 31  1  0  0  0
 17 18  1  0  0  0
 17100  1  0  0  0
 18 19  2  0  0  0
 18101  1  0  0  0
 19 20  1  0  0  0
 19 24  1  0  0  0
 20 21  2  0  0  0
 20102  1  0  0  0
 21 23  1  0  0  0
 22 28  1  0  0  0
 22 32  2  0  0  0
 26 27  1  0  0  0
 28103  1  0  0  0
 28104  1  0  0  0
 29105  1  0  0  0
 29106  1  0  0  0
 33 34  1  0  0  0
 33 66  1  0  0  0
 33 70  2  0  0  0
 34 36  1  0  0  0
 34 59  1  0  0  0
 34107  1  0  0  0
 35 44  2  0  0  0
 35 45  1  0  0  0
 35 68  1  0  0  0
 36 56  1  0  0  0
 36108  1  0  0  0
 37 39  1  0  0  0
 37 47  1  0  0  0
 37 66  1  0  0  0
 37109  1  0  0  0
 38 43  2  0  0  0
 38 46  1  0  0  0
 38 47  1  0  0  0
 39 64  1  0  0  0
 39 67  2  0  0  0
 40 52  1  0  0  0
 40 53  2  0  0  0
 40 58  1  0  0  0
 41110  1  0  0  0
 41111  1  0  0  0
 41112  1  0  0  0
 41 48  1  0  0  0
 42 43  1  0  0  0
 42 66  1  0  0  0
 42113  1  0  0  0
 42114  1  0  0  0
 43 44  1  0  0  0
 44115  1  0  0  0
 45 46  2  0  0  0
 45116  1  0  0  0
 46117  1  0  0  0
 47118  1  0  0  0
 47119  1  0  0  0
 48 56  1  0  0  0
 48 65  1  0  0  0
 48120  1  0  0  0
 49 50  1  0  0  0
 49 53  1  0  0  0
 49 64  1  0  0  0
 49121  1  0  0  0
 50 51  1  0  0  0
 50122  1  0  0  0
 50123  1  0  0  0
 51 52  1  0  0  0
 51124  1  0  0  0
 51125  1  0  0  0
 52126  1  0  0  0
 52127  1  0  0  0
 53 54  1  0  0  0
 54 55  2  0  0  0
 54128  1  0  0  0
 55 57  1  0  0  0
 55129  1  0  0  0
 56 69  2  0  0  0
 57 58  2  0  0  0
 57130  1  0  0  0
 58131  1  0  0  0
 59 60  1  0  0  0
 59 61  1  0  0  0
 59 62  1  0  0  0
 60132  1  0  0  0
 60133  1  0  0  0
 60134  1  0  0  0
 61135  1  0  0  0
 61136  1  0  0  0
 61137  1  0  0  0
 62138  1  0  0  0
 62139  1  0  0  0
 62140  1  0  0  0
 63 65  1  0  0  0
 63141  1  0  0  0
 63142  1  0  0  0
 63143  1  0  0  0
 64144  1  0  0  0
 65145  1  0  0  0
 68 79  1  0  0  0
 71 72  2  0  0  0
 71 73  1  0  0  0
 71146  1  0  0  0
 72 74  1  0  0  0
 72147  1  0  0  0
 73 75  2  0  0  0
 73148  1  0  0  0
 74 80  1  0  0  0
 74 82  2  0  0  0
 75 82  1  0  0  0
 75 83  1  0  0  0
 76 78  1  0  0  0
 76 84  1  0  0  0
 76 85  2  0  0  0
 77149  1  0  0  0
 77150  1  0  0  0
 77151  1  0  0  0
 77 80  1  0  0  0
 78 81  1  0  0  0
 78152  1  0  0  0
 78153  1  0  0  0
 79 81  1  0  0  0
 79154  1  0  0  0
 79155  1  0  0  0
 80 84  1  0  0  0
 80156  1  0  0  0
 81 86  1  0  0  0
 81157  1  0  0  0
 83158  1  0  0  0
 84159  1  0  0  0
M  ISO  4   1 100  68 101  79 101  83 100
M  END
> <chiral flag>
0

> <version>
0

> <s_m_source_file>
/data/baiqing/PycharmProjects/Reinvent-master-3.2/result/LINK_invent/BTK/process_docking_weight1_custom_product_contain_oxygen_bond_distance_aromatic_linkinvent_7_9_3/rearranged_h_0185.sdf

> <i_m_source_file_index>
46

> <r_mmod_Potential_Energy-OPLS-2005>
-353.938720703125

> <r_mmod_Stretch_Energy-OPLS-2005>
32.4878616333008

> <r_mmod_Bend_Energy-OPLS-2005>
89.3512268066406

> <r_mmod_Torsional_Energy-OPLS-2005>
250.221862792969

> <r_mmod_Improper_Torsional_Energy-OPLS-2005>
8.85576438903809

> <r_mmod_Van_der_Waal_Energy-OPLS-2005>
154.565826416016

> <r_mmod_Electrostatic_Energy-OPLS-2005>
-657.029846191406

> <r_mmod_Solvation_Energy-OPLS-2005>
-246.783966064453

> <b_mmod_Minimization_Converged-OPLS-2005>
0

> <r_mmod_RMS_Derivative-OPLS-2005>
1.81576240062714

$$$$
46
                    3D
 Structure written by MMmdl.
153161  0  0  1  0            999 V2000
  -30.6258  -14.7240   20.4526 C   0  0  0  0  0  0
  -30.4230  -12.4399   19.4734 C   0  0  0  0  0  0
  -29.5048  -12.4994   18.2337 C   0  0  0  0  0  0
  -28.0303  -12.3310   18.6467 C   0  0  0  0  0  0
  -27.6381  -13.2325   19.8480 C   0  0  2  0  0  0
  -28.6819  -13.1710   20.9837 C   0  0  0  0  0  0
  -25.2492  -13.8198   20.5689 C   0  0  0  0  0  0
  -24.1792  -13.0444   20.9224 C   0  0  0  0  0  0
  -24.6385  -11.6924   20.8761 C   0  0  0  0  0  0
  -23.9064  -10.4295   21.0414 C   0  0  0  0  0  0
  -24.3619   -9.4210   21.9187 C   0  0  0  0  0  0
  -23.6297   -8.2245   22.0755 C   0  0  0  0  0  0
  -22.4278   -8.0280   21.3549 C   0  0  0  0  0  0
  -21.9913   -9.0251   20.4648 C   0  0  0  0  0  0
  -22.7240  -10.2133   20.3059 C   0  0  0  0  0  0
  -21.6853   -6.0734   22.5281 C   0  0  0  0  0  0
  -21.4010   -6.5640   23.8214 C   0  0  0  0  0  0
  -21.3661   -5.6794   24.9177 C   0  0  0  0  0  0
  -21.6046   -4.3057   24.7227 C   0  0  0  0  0  0
  -21.8819   -3.8148   23.4349 C   0  0  0  0  0  0
  -21.9192   -4.6962   22.3403 C   0  0  0  0  0  0
  -22.7815  -13.5225   21.1877 C   0  0  0  0  0  0
  -22.1663   -4.2149   21.0980 F   0  0  0  0  0  0
  -21.5629   -3.4541   25.7738 F   0  0  0  0  0  0
  -29.9820  -13.5100   20.3969 N   0  0  0  0  0  0
  -26.2913  -12.9411   20.3274 N   0  0  0  0  0  0
  -25.9312  -11.6552   20.5758 N   0  0  0  0  0  0
  -22.0462  -12.8210   22.0429 N   0  0  0  0  0  0
  -25.4173  -15.1917   20.4062 N   0  0  0  0  0  0
  -31.8207  -14.7930   20.1537 O   0  0  0  0  0  0
  -21.6643   -6.8877   21.4242 O   0  0  0  0  0  0
  -22.3499  -14.5531   20.6722 O   0  0  0  0  0  0
  -24.6295  -31.8546   23.1957 C   0  0  0  0  0  0
  -25.9122  -32.4746   23.8305 C   0  0  1  0  0  0
  -27.2266  -27.2727   20.1168 C   0  0  0  0  0  0
  -25.5926  -33.8549   24.2234 N   0  0  0  0  0  0
  -23.4247  -30.4754   21.5389 C   0  0  2  0  0  0
  -24.8706  -28.9183   20.1066 C   0  0  0  0  0  0
  -22.7487  -29.4595   22.4906 C   0  0  0  0  0  0
  -18.0290  -28.1387   22.8489 C   0  0  0  0  0  0
  -24.1491  -36.7271   23.2638 C   0  0  0  0  0  0
  -25.9677  -30.7714   21.3701 C   0  0  0  0  0  0
  -26.0398  -29.3945   20.7107 C   0  0  0  0  0  0
  -27.2151  -28.5827   20.7037 C   0  0  0  0  0  0
  -26.0245  -26.8432   19.5166 C   0  0  0  0  0  0
  -24.8671  -27.6502   19.5015 C   0  0  0  0  0  0
  -23.6406  -29.8047   20.1558 C   0  0  0  0  0  0
  -25.4118  -36.3057   24.0323 C   0  0  1  0  0  0
  -20.5891  -28.3690   23.1274 C   0  0  2  0  0  0
  -20.6772  -26.9409   22.5406 C   0  0  0  0  0  0
  -19.5750  -26.6381   21.5208 C   0  0  0  0  0  0
  -18.1932  -26.7930   22.1625 C   0  0  0  0  0  0
  -19.1543  -28.8857   23.2877 C   0  0  0  0  0  0
  -18.9469  -30.1460   23.8893 C   0  0  0  0  0  0
  -17.6469  -30.6589   24.0566 C   0  0  0  0  0  0
  -25.9060  -34.9434   23.5080 C   0  0  0  0  0  0
  -16.5359  -29.9090   23.6331 C   0  0  0  0  0  0
  -16.7277  -28.6506   23.0353 C   0  0  0  0  0  0
  -26.4497  -31.6578   25.0701 C   0  0  0  0  0  0
  -25.3718  -31.3736   26.1422 C   0  0  0  0  0  0
  -27.0335  -30.2996   24.6173 C   0  0  0  0  0  0
  -27.6052  -32.4317   25.7479 C   0  0  0  0  0  0
  -27.5577  -37.1786   24.8466 C   0  0  0  0  0  0
  -21.4194  -29.3038   22.3662 N   0  0  0  0  0  0
  -26.4284  -37.3762   23.9417 N   0  0  0  0  0  0
  -24.6932  -31.0520   22.0920 N   0  0  0  0  0  0
  -23.4198  -28.8140   23.3000 O   0  0  0  0  0  0
  -28.3652  -26.4445   20.2074 O   0  0  0  0  0  0
  -26.5635  -34.8917   22.4652 O   0  0  0  0  0  0
  -23.5446  -32.1358   23.7263 O   0  0  0  0  0  0
  -28.4989  -19.1041   21.0695 C   0  0  0  0  0  0
  -29.6630  -18.6608   20.4525 C   0  0  0  0  0  0
  -29.0984  -21.1977   20.1990 C   0  0  0  0  0  0
  -28.2991  -23.7370   20.1996 C   0  0  0  0  0  0
  -27.5748  -18.2601   21.8922 C   0  0  0  0  0  0
  -28.3016  -25.1640   17.9982 C   0  0  0  0  0  0
  -30.4636  -17.2941   20.4502 C   0  0  0  0  0  0
  -28.6351  -25.1453   19.5017 C   0  0  1  0  0  0
  -28.1981  -20.4994   20.9178 N   0  0  0  0  0  0
  -29.0782  -22.6402   19.8683 N   0  0  0  0  0  0
  -29.8908  -15.8899   20.6180 N   0  0  0  0  0  0
  -27.3655  -23.6686   21.0030 O   0  0  0  0  0  0
  -30.3805  -20.0785   19.6382 S   0  0  0  0  0  0
  -31.4665  -12.5509   19.1726 H   0  0  0  0  0  0
  -30.3553  -11.4650   19.9592 H   0  0  0  0  0  0
  -29.7838  -11.7249   17.5178 H   0  0  0  0  0  0
  -29.6373  -13.4532   17.7202 H   0  0  0  0  0  0
  -27.8820  -11.2826   18.9090 H   0  0  0  0  0  0
  -27.3741  -12.5258   17.7976 H   0  0  0  0  0  0
  -27.6322  -14.2533   19.4657 H   0  0  0  0  0  0
  -28.7118  -12.1771   21.4327 H   0  0  0  0  0  0
  -28.4233  -13.8635   21.7865 H   0  0  0  0  0  0
  -25.2757   -9.5687   22.4768 H   0  0  0  0  0  0
  -24.0005   -7.4632   22.7469 H   0  0  0  0  0  0
  -21.0849   -8.8767   19.8948 H   0  0  0  0  0  0
  -22.3694  -10.9674   19.6171 H   0  0  0  0  0  0
  -21.2001   -7.6148   23.9715 H   0  0  0  0  0  0
  -21.1485   -6.0525   25.9079 H   0  0  0  0  0  0
  -22.0597   -2.7609   23.2847 H   0  0  0  0  0  0
  -22.4083  -11.9868   22.4810 H   0  0  0  0  0  0
  -21.1077  -13.1227   22.2637 H   0  0  0  0  0  0
  -24.6402  -15.8373   20.4927 H   0  0  0  0  0  0
  -26.2446  -15.6197   20.0130 H   0  0  0  0  0  0
  -26.7185  -32.5393   23.1041 H   0  0  0  0  0  0
  -25.0084  -33.9692   25.0385 H   0  0  0  0  0  0
  -22.7203  -31.2964   21.3904 H   0  0  0  0  0  0
  -23.3757  -35.9599   23.3300 H   0  0  0  0  0  0
  -24.3581  -36.8892   22.2053 H   0  0  0  0  0  0
  -23.7242  -37.6470   23.6666 H   0  0  0  0  0  0
  -26.1029  -31.5323   20.6009 H   0  0  0  0  0  0
  -26.8469  -30.8201   22.0008 H   0  0  0  0  0  0
  -28.1131  -28.9437   21.1855 H   0  0  0  0  0  0
  -25.9386  -25.8528   19.1028 H   0  0  0  0  0  0
  -23.9636  -27.2691   19.0455 H   0  0  0  0  0  0
  -23.7634  -30.5789   19.3979 H   0  0  0  0  0  0
  -22.7593  -29.2361   19.8532 H   0  0  0  0  0  0
  -25.1299  -36.1889   25.0813 H   0  0  0  0  0  0
  -20.9993  -28.3261   24.1391 H   0  0  0  0  0  0
  -20.5664  -26.2298   23.3607 H   0  0  0  0  0  0
  -21.6640  -26.7424   22.1206 H   0  0  0  0  0  0
  -19.6919  -25.6292   21.1239 H   0  0  0  0  0  0
  -19.6698  -27.3192   20.6741 H   0  0  0  0  0  0
  -17.4198  -26.6672   21.4033 H   0  0  0  0  0  0
  -18.0343  -26.0070   22.9024 H   0  0  0  0  0  0
  -19.7946  -30.7274   24.2261 H   0  0  0  0  0  0
  -17.5026  -31.6273   24.5163 H   0  0  0  0  0  0
  -15.5360  -30.2996   23.7660 H   0  0  0  0  0  0
  -15.8671  -28.0827   22.7074 H   0  0  0  0  0  0
  -24.5915  -30.7058   25.7754 H   0  0  0  0  0  0
  -24.8886  -32.2905   26.4804 H   0  0  0  0  0  0
  -25.8034  -30.8953   27.0221 H   0  0  0  0  0  0
  -26.2909  -29.6752   24.1194 H   0  0  0  0  0  0
  -27.4020  -29.7253   25.4681 H   0  0  0  0  0  0
  -27.8782  -30.4274   23.9401 H   0  0  0  0  0  0
  -27.2672  -33.3639   26.2015 H   0  0  0  0  0  0
  -28.3887  -32.6833   25.0319 H   0  0  0  0  0  0
  -28.0686  -31.8459   26.5429 H   0  0  0  0  0  0
  -28.2576  -38.0101   24.7521 H   0  0  0  0  0  0
  -28.1087  -36.2629   24.6269 H   0  0  0  0  0  0
  -27.2298  -37.1396   25.8868 H   0  0  0  0  0  0
  -20.9370  -29.8760   21.6874 H   0  0  0  0  0  0
  -26.0155  -38.2827   24.1441 H   0  0  0  0  0  0
  -28.1277  -17.5665   22.5255 H   0  0  0  0  0  0
  -26.9126  -17.6715   21.2579 H   0  0  0  0  0  0
  -26.9471  -18.8654   22.5468 H   0  0  0  0  0  0
  -28.9141  -24.4404   17.4601 H   0  0  0  0  0  0
  -28.5051  -26.1432   17.5651 H   0  0  0  0  0  0
  -27.2673  -24.9023   17.7881 H   0  0  0  0  0  0
  -31.2342  -17.3834   21.2175 H   0  0  0  0  0  0
  -31.0242  -17.2688   19.5141 H   0  0  0  0  0  0
  -29.7257  -25.1511   19.5234 H   0  0  0  0  0  0
  -29.8221  -22.8931   19.2347 H   0  0  0  0  0  0
  -28.9045  -15.7956   20.8023 H   0  0  0  0  0  0
  1 25  1  0  0  0
  1 30  2  0  0  0
  1 81  1  0  0  0
  2  3  1  0  0  0
  2 25  1  0  0  0
  2 84  1  0  0  0
  2 85  1  0  0  0
  3  4  1  0  0  0
  3 86  1  0  0  0
  3 87  1  0  0  0
  4  5  1  0  0  0
  4 88  1  0  0  0
  4 89  1  0  0  0
  5  6  1  0  0  0
  5 26  1  0  0  0
  5 90  1  0  0  0
  6 25  1  0  0  0
  6 91  1  0  0  0
  6 92  1  0  0  0
  7  8  2  0  0  0
  7 26  1  0  0  0
  7 29  1  0  0  0
  8  9  1  0  0  0
  8 22  1  0  0  0
  9 10  1  0  0  0
  9 27  2  0  0  0
 10 11  2  0  0  0
 10 15  1  0  0  0
 11 12  1  0  0  0
 11 93  1  0  0  0
 12 13  2  0  0  0
 12 94  1  0  0  0
 13 14  1  0  0  0
 13 31  1  0  0  0
 14 15  2  0  0  0
 14 95  1  0  0  0
 15 96  1  0  0  0
 16 17  2  0  0  0
 16 21  1  0  0  0
 16 31  1  0  0  0
 17 18  1  0  0  0
 17 97  1  0  0  0
 18 19  2  0  0  0
 18 98  1  0  0  0
 19 20  1  0  0  0
 19 24  1  0  0  0
 20 21  2  0  0  0
 20 99  1  0  0  0
 21 23  1  0  0  0
 22 28  1  0  0  0
 22 32  2  0  0  0
 26 27  1  0  0  0
 28100  1  0  0  0
 28101  1  0  0  0
 29102  1  0  0  0
 29103  1  0  0  0
 33 34  1  0  0  0
 33 66  1  0  0  0
 33 70  2  0  0  0
 34 36  1  0  0  0
 34 59  1  0  0  0
 34104  1  0  0  0
 35 44  2  0  0  0
 35 45  1  0  0  0
 35 68  1  0  0  0
 36 56  1  0  0  0
 36105  1  0  0  0
 37 39  1  0  0  0
 37 47  1  0  0  0
 37 66  1  0  0  0
 37106  1  0  0  0
 38 43  2  0  0  0
 38 46  1  0  0  0
 38 47  1  0  0  0
 39 64  1  0  0  0
 39 67  2  0  0  0
 40 52  1  0  0  0
 40 53  2  0  0  0
 40 58  1  0  0  0
 41107  1  0  0  0
 41108  1  0  0  0
 41109  1  0  0  0
 41 48  1  0  0  0
 42 43  1  0  0  0
 42 66  1  0  0  0
 42110  1  0  0  0
 42111  1  0  0  0
 43 44  1  0  0  0
 44112  1  0  0  0
 45 46  2  0  0  0
 45113  1  0  0  0
 46114  1  0  0  0
 47115  1  0  0  0
 47116  1  0  0  0
 48 56  1  0  0  0
 48 65  1  0  0  0
 48117  1  0  0  0
 49 50  1  0  0  0
 49 53  1  0  0  0
 49 64  1  0  0  0
 49118  1  0  0  0
 50 51  1  0  0  0
 50119  1  0  0  0
 50120  1  0  0  0
 51 52  1  0  0  0
 51121  1  0  0  0
 51122  1  0  0  0
 52123  1  0  0  0
 52124  1  0  0  0
 53 54  1  0  0  0
 54 55  2  0  0  0
 54125  1  0  0  0
 55 57  1  0  0  0
 55126  1  0  0  0
 56 69  2  0  0  0
 57 58  2  0  0  0
 57127  1  0  0  0
 58128  1  0  0  0
 59 60  1  0  0  0
 59 61  1  0  0  0
 59 62  1  0  0  0
 60129  1  0  0  0
 60130  1  0  0  0
 60131  1  0  0  0
 61132  1  0  0  0
 61133  1  0  0  0
 61134  1  0  0  0
 62135  1  0  0  0
 62136  1  0  0  0
 62137  1  0  0  0
 63 65  1  0  0  0
 63138  1  0  0  0
 63139  1  0  0  0
 63140  1  0  0  0
 64141  1  0  0  0
 65142  1  0  0  0
 68 78  1  0  0  0
 71 72  2  0  0  0
 71 75  1  0  0  0
 71 79  1  0  0  0
 72 77  1  0  0  0
 72 83  1  0  0  0
 73 79  2  0  0  0
 73 80  1  0  0  0
 73 83  1  0  0  0
 74 78  1  0  0  0
 74 80  1  0  0  0
 74 82  2  0  0  0
 75143  1  0  0  0
 75144  1  0  0  0
 75145  1  0  0  0
 76146  1  0  0  0
 76147  1  0  0  0
 76148  1  0  0  0
 76 78  1  0  0  0
 77 81  1  0  0  0
 77149  1  0  0  0
 77150  1  0  0  0
 78151  1  0  0  0
 80152  1  0  0  0
 81153  1  0  0  0
M  ISO  4   1 100  68 101  78 101  81 100
M  END
> <chiral flag>
0

> <version>
0

> <s_m_source_file>
/data/baiqing/PycharmProjects/Reinvent-master-3.2/result/LINK_invent/BTK/process_docking_weight1_custom_product_contain_oxygen_bond_distance_aromatic_linkinvent_7_9_3/rearranged_h_0185.sdf

> <i_m_source_file_index>
47

> <r_mmod_Potential_Energy-OPLS-2005>
28.953727722168

> <r_mmod_Stretch_Energy-OPLS-2005>
108.086158752441

> <r_mmod_Bend_Energy-OPLS-2005>
221.51985168457

> <r_mmod_Torsional_Energy-OPLS-2005>
202.276611328125

> <r_mmod_Improper_Torsional_Energy-OPLS-2005>
5.7061824798584

> <r_mmod_Van_der_Waal_Energy-OPLS-2005>
109.752449035645

> <r_mmod_Electrostatic_Energy-OPLS-2005>
-437.361358642578

> <r_mmod_Solvation_Energy-OPLS-2005>
-257.200775146484

> <b_mmod_Minimization_Converged-OPLS-2005>
0

> <r_mmod_RMS_Derivative-OPLS-2005>
0.888943493366241

$$$$
47
                    3D
 Structure written by MMmdl.
153161  0  0  1  0            999 V2000
  -30.5942  -14.7590   20.4669 C   0  0  0  0  0  0
  -30.4288  -12.4648   19.4748 C   0  0  0  0  0  0
  -29.5091  -12.5246   18.2366 C   0  0  0  0  0  0
  -28.0331  -12.3449   18.6431 C   0  0  0  0  0  0
  -27.6360  -13.2337   19.8519 C   0  0  2  0  0  0
  -28.6792  -13.1655   20.9883 C   0  0  0  0  0  0
  -25.2465  -13.8198   20.5697 C   0  0  0  0  0  0
  -24.1760  -13.0442   20.9205 C   0  0  0  0  0  0
  -24.6363  -11.6923   20.8741 C   0  0  0  0  0  0
  -23.9048  -10.4301   21.0404 C   0  0  0  0  0  0
  -24.3600   -9.4221   21.9185 C   0  0  0  0  0  0
  -23.6284   -8.2248   22.0755 C   0  0  0  0  0  0
  -22.4266   -8.0283   21.3551 C   0  0  0  0  0  0
  -21.9897   -9.0256   20.4652 C   0  0  0  0  0  0
  -22.7221  -10.2137   20.3063 C   0  0  0  0  0  0
  -21.6854   -6.0725   22.5280 C   0  0  0  0  0  0
  -21.4018   -6.5634   23.8212 C   0  0  0  0  0  0
  -21.3665   -5.6793   24.9177 C   0  0  0  0  0  0
  -21.6035   -4.3055   24.7229 C   0  0  0  0  0  0
  -21.8822   -3.8142   23.4358 C   0  0  0  0  0  0
  -21.9195   -4.6951   22.3408 C   0  0  0  0  0  0
  -22.7777  -13.5221   21.1878 C   0  0  0  0  0  0
  -22.1661   -4.2142   21.0978 F   0  0  0  0  0  0
  -21.5625   -3.4538   25.7737 F   0  0  0  0  0  0
  -29.9772  -13.5260   20.4057 N   0  0  0  0  0  0
  -26.2891  -12.9406   20.3275 N   0  0  0  0  0  0
  -25.9290  -11.6546   20.5718 N   0  0  0  0  0  0
  -22.0437  -12.8208   22.0441 N   0  0  0  0  0  0
  -25.4138  -15.1930   20.4118 N   0  0  0  0  0  0
  -31.7822  -14.8391   20.1332 O   0  0  0  0  0  0
  -21.6650   -6.8870   21.4241 O   0  0  0  0  0  0
  -22.3464  -14.5544   20.6754 O   0  0  0  0  0  0
  -24.6331  -31.8469   23.1928 C   0  0  0  0  0  0
  -25.9146  -32.4695   23.8284 C   0  0  1  0  0  0
  -27.2376  -27.2475   20.1169 C   0  0  0  0  0  0
  -25.5918  -33.8491   24.2211 N   0  0  0  0  0  0
  -23.4313  -30.4643   21.5361 C   0  0  2  0  0  0
  -24.8785  -28.8958   20.1119 C   0  0  0  0  0  0
  -22.7500  -29.4565   22.4930 C   0  0  0  0  0  0
  -18.0270  -28.1391   22.8504 C   0  0  0  0  0  0
  -24.1462  -36.7219   23.2646 C   0  0  0  0  0  0
  -25.9763  -30.7517   21.3750 C   0  0  0  0  0  0
  -26.0483  -29.3731   20.7157 C   0  0  0  0  0  0
  -27.2243  -28.5587   20.7050 C   0  0  0  0  0  0
  -26.0405  -26.8237   19.5054 C   0  0  0  0  0  0
  -24.8799  -27.6302   19.4987 C   0  0  0  0  0  0
  -23.6471  -29.7815   20.1581 C   0  0  0  0  0  0
  -25.4101  -36.3023   24.0336 C   0  0  1  0  0  0
  -20.5878  -28.3676   23.1285 C   0  0  2  0  0  0
  -20.6731  -26.9391   22.5420 C   0  0  0  0  0  0
  -19.5712  -26.6389   21.5209 C   0  0  0  0  0  0
  -18.1904  -26.7940   22.1644 C   0  0  0  0  0  0
  -19.1532  -28.8862   23.2878 C   0  0  0  0  0  0
  -18.9463  -30.1463   23.8891 C   0  0  0  0  0  0
  -17.6463  -30.6605   24.0558 C   0  0  0  0  0  0
  -25.9065  -34.9403   23.5087 C   0  0  0  0  0  0
  -16.5347  -29.9100   23.6341 C   0  0  0  0  0  0
  -16.7257  -28.6507   23.0385 C   0  0  0  0  0  0
  -26.4503  -31.6549   25.0707 C   0  0  0  0  0  0
  -25.3726  -31.3729   26.1440 C   0  0  0  0  0  0
  -27.0364  -30.2956   24.6248 C   0  0  0  0  0  0
  -27.6031  -32.4304   25.7483 C   0  0  0  0  0  0
  -27.5558  -37.1770   24.8485 C   0  0  0  0  0  0
  -21.4205  -29.3009   22.3668 N   0  0  0  0  0  0
  -26.4262  -37.3736   23.9437 N   0  0  0  0  0  0
  -24.6985  -31.0421   22.0909 N   0  0  0  0  0  0
  -23.4178  -28.8132   23.3066 O   0  0  0  0  0  0
  -28.3789  -26.4154   20.2053 O   0  0  0  0  0  0
  -26.5651  -34.8901   22.4676 O   0  0  0  0  0  0
  -23.5486  -32.1299   23.7230 O   0  0  0  0  0  0
  -31.7148  -18.9528   21.7284 C   0  0  0  0  0  0
  -30.9176  -20.0122   21.2662 C   0  0  0  0  0  0
  -31.3170  -17.6219   21.5341 C   0  0  0  0  0  0
  -29.6908  -19.7739   20.6150 C   0  0  0  0  0  0
  -30.1329  -17.3335   20.8139 C   0  0  0  0  0  0
  -29.2252  -22.3186   20.0925 C   0  0  0  0  0  0
  -28.5112  -25.0846   18.0740 C   0  0  0  0  0  0
  -28.2324  -23.5910   20.2469 C   0  0  0  0  0  0
  -28.6320  -25.0474   19.6085 C   0  0  1  0  0  0
  -29.3331  -18.4270   20.4166 N   0  0  0  0  0  0
  -28.8587  -20.9856   20.3261 N   0  0  0  0  0  0
  -29.7957  -15.8920   20.6397 N   0  0  0  0  0  0
  -30.3725  -22.5743   19.7184 O   0  0  0  0  0  0
  -32.0662  -16.6434   22.0954 F   0  0  0  0  0  0
  -31.4704  -12.5892   19.1747 H   0  0  0  0  0  0
  -30.3724  -11.4858   19.9536 H   0  0  0  0  0  0
  -29.7955  -11.7599   17.5138 H   0  0  0  0  0  0
  -29.6334  -13.4845   17.7332 H   0  0  0  0  0  0
  -27.8837  -11.2920   18.8880 H   0  0  0  0  0  0
  -27.3822  -12.5545   17.7943 H   0  0  0  0  0  0
  -27.6262  -14.2562   19.4761 H   0  0  0  0  0  0
  -28.7140  -12.1661   21.4257 H   0  0  0  0  0  0
  -28.4083  -13.8421   21.8004 H   0  0  0  0  0  0
  -25.2749   -9.5694   22.4760 H   0  0  0  0  0  0
  -24.0003   -7.4625   22.7464 H   0  0  0  0  0  0
  -21.0833   -8.8768   19.8943 H   0  0  0  0  0  0
  -22.3681  -10.9669   19.6175 H   0  0  0  0  0  0
  -21.2016   -7.6145   23.9715 H   0  0  0  0  0  0
  -21.1481   -6.0523   25.9079 H   0  0  0  0  0  0
  -22.0594   -2.7606   23.2860 H   0  0  0  0  0  0
  -22.4069  -11.9872   22.4828 H   0  0  0  0  0  0
  -21.1063  -13.1238   22.2674 H   0  0  0  0  0  0
  -24.6402  -15.8408   20.5130 H   0  0  0  0  0  0
  -26.2551  -15.6398   20.0687 H   0  0  0  0  0  0
  -26.7209  -32.5330   23.1009 H   0  0  0  0  0  0
  -24.9994  -33.9581   25.0306 H   0  0  0  0  0  0
  -22.7317  -31.2880   21.3821 H   0  0  0  0  0  0
  -23.3729  -35.9544   23.3325 H   0  0  0  0  0  0
  -24.3535  -36.8823   22.2056 H   0  0  0  0  0  0
  -23.7211  -37.6427   23.6650 H   0  0  0  0  0  0
  -26.1310  -31.5119   20.6082 H   0  0  0  0  0  0
  -26.8485  -30.7928   22.0170 H   0  0  0  0  0  0
  -28.1233  -28.9194   21.1833 H   0  0  0  0  0  0
  -25.9752  -25.8402   19.0682 H   0  0  0  0  0  0
  -23.9799  -27.2515   19.0336 H   0  0  0  0  0  0
  -23.7668  -30.5456   19.3895 H   0  0  0  0  0  0
  -22.7685  -29.2054   19.8626 H   0  0  0  0  0  0
  -25.1280  -36.1848   25.0822 H   0  0  0  0  0  0
  -20.9961  -28.3245   24.1406 H   0  0  0  0  0  0
  -20.5589  -26.2283   23.3621 H   0  0  0  0  0  0
  -21.6607  -26.7376   22.1252 H   0  0  0  0  0  0
  -19.6851  -25.6300   21.1237 H   0  0  0  0  0  0
  -19.6660  -27.3195   20.6743 H   0  0  0  0  0  0
  -17.4157  -26.6668   21.4059 H   0  0  0  0  0  0
  -18.0323  -26.0074   22.9041 H   0  0  0  0  0  0
  -19.7936  -30.7277   24.2266 H   0  0  0  0  0  0
  -17.5021  -31.6294   24.5139 H   0  0  0  0  0  0
  -15.5355  -30.3005   23.7691 H   0  0  0  0  0  0
  -15.8641  -28.0820   22.7146 H   0  0  0  0  0  0
  -24.5891  -30.7064   25.7816 H   0  0  0  0  0  0
  -24.8926  -32.2909   26.4841 H   0  0  0  0  0  0
  -25.8060  -30.8947   27.0235 H   0  0  0  0  0  0
  -26.2987  -29.6701   24.1212 H   0  0  0  0  0  0
  -27.3960  -29.7230   25.4812 H   0  0  0  0  0  0
  -27.8884  -30.4222   23.9558 H   0  0  0  0  0  0
  -27.2609  -33.3600   26.2037 H   0  0  0  0  0  0
  -28.3846  -32.6882   25.0318 H   0  0  0  0  0  0
  -28.0680  -31.8446   26.5427 H   0  0  0  0  0  0
  -28.2601  -38.0043   24.7512 H   0  0  0  0  0  0
  -28.1030  -36.2585   24.6319 H   0  0  0  0  0  0
  -27.2288  -37.1432   25.8891 H   0  0  0  0  0  0
  -20.9411  -29.8663   21.6802 H   0  0  0  0  0  0
  -26.0132  -38.2796   24.1449 H   0  0  0  0  0  0
  -32.6263  -19.1599   22.2701 H   0  0  0  0  0  0
  -31.2514  -21.0176   21.4768 H   0  0  0  0  0  0
  -27.4805  -25.0646   17.7274 H   0  0  0  0  0  0
  -29.0110  -24.2254   17.6254 H   0  0  0  0  0  0
  -28.9841  -25.9806   17.6682 H   0  0  0  0  0  0
  -28.1238  -23.7313   21.3213 H   0  0  0  0  0  0
  -27.2426  -23.3080   19.8918 H   0  0  0  0  0  0
  -29.7125  -25.0459   19.7554 H   0  0  0  0  0  0
  -27.8644  -20.8264   20.3988 H   0  0  0  0  0  0
  -28.8105  -15.6956   20.6540 H   0  0  0  0  0  0
  1 25  1  0  0  0
  1 30  2  0  0  0
  1 82  1  0  0  0
  2  3  1  0  0  0
  2 25  1  0  0  0
  2 85  1  0  0  0
  2 86  1  0  0  0
  3  4  1  0  0  0
  3 87  1  0  0  0
  3 88  1  0  0  0
  4  5  1  0  0  0
  4 89  1  0  0  0
  4 90  1  0  0  0
  5  6  1  0  0  0
  5 26  1  0  0  0
  5 91  1  0  0  0
  6 25  1  0  0  0
  6 92  1  0  0  0
  6 93  1  0  0  0
  7  8  2  0  0  0
  7 26  1  0  0  0
  7 29  1  0  0  0
  8  9  1  0  0  0
  8 22  1  0  0  0
  9 10  1  0  0  0
  9 27  2  0  0  0
 10 11  2  0  0  0
 10 15  1  0  0  0
 11 12  1  0  0  0
 11 94  1  0  0  0
 12 13  2  0  0  0
 12 95  1  0  0  0
 13 14  1  0  0  0
 13 31  1  0  0  0
 14 15  2  0  0  0
 14 96  1  0  0  0
 15 97  1  0  0  0
 16 17  2  0  0  0
 16 21  1  0  0  0
 16 31  1  0  0  0
 17 18  1  0  0  0
 17 98  1  0  0  0
 18 19  2  0  0  0
 18 99  1  0  0  0
 19 20  1  0  0  0
 19 24  1  0  0  0
 20 21  2  0  0  0
 20100  1  0  0  0
 21 23  1  0  0  0
 22 28  1  0  0  0
 22 32  2  0  0  0
 26 27  1  0  0  0
 28101  1  0  0  0
 28102  1  0  0  0
 29103  1  0  0  0
 29104  1  0  0  0
 33 34  1  0  0  0
 33 66  1  0  0  0
 33 70  2  0  0  0
 34 36  1  0  0  0
 34 59  1  0  0  0
 34105  1  0  0  0
 35 44  2  0  0  0
 35 45  1  0  0  0
 35 68  1  0  0  0
 36 56  1  0  0  0
 36106  1  0  0  0
 37 39  1  0  0  0
 37 47  1  0  0  0
 37 66  1  0  0  0
 37107  1  0  0  0
 38 43  2  0  0  0
 38 46  1  0  0  0
 38 47  1  0  0  0
 39 64  1  0  0  0
 39 67  2  0  0  0
 40 52  1  0  0  0
 40 53  2  0  0  0
 40 58  1  0  0  0
 41108  1  0  0  0
 41109  1  0  0  0
 41110  1  0  0  0
 41 48  1  0  0  0
 42 43  1  0  0  0
 42 66  1  0  0  0
 42111  1  0  0  0
 42112  1  0  0  0
 43 44  1  0  0  0
 44113  1  0  0  0
 45 46  2  0  0  0
 45114  1  0  0  0
 46115  1  0  0  0
 47116  1  0  0  0
 47117  1  0  0  0
 48 56  1  0  0  0
 48 65  1  0  0  0
 48118  1  0  0  0
 49 50  1  0  0  0
 49 53  1  0  0  0
 49 64  1  0  0  0
 49119  1  0  0  0
 50 51  1  0  0  0
 50120  1  0  0  0
 50121  1  0  0  0
 51 52  1  0  0  0
 51122  1  0  0  0
 51123  1  0  0  0
 52124  1  0  0  0
 52125  1  0  0  0
 53 54  1  0  0  0
 54 55  2  0  0  0
 54126  1  0  0  0
 55 57  1  0  0  0
 55127  1  0  0  0
 56 69  2  0  0  0
 57 58  2  0  0  0
 57128  1  0  0  0
 58129  1  0  0  0
 59 60  1  0  0  0
 59 61  1  0  0  0
 59 62  1  0  0  0
 60130  1  0  0  0
 60131  1  0  0  0
 60132  1  0  0  0
 61133  1  0  0  0
 61134  1  0  0  0
 61135  1  0  0  0
 62136  1  0  0  0
 62137  1  0  0  0
 62138  1  0  0  0
 63 65  1  0  0  0
 63139  1  0  0  0
 63140  1  0  0  0
 63141  1  0  0  0
 64142  1  0  0  0
 65143  1  0  0  0
 68 79  1  0  0  0
 71 72  2  0  0  0
 71 73  1  0  0  0
 71144  1  0  0  0
 72 74  1  0  0  0
 72145  1  0  0  0
 73 75  2  0  0  0
 73 84  1  0  0  0
 74 80  2  0  0  0
 74 81  1  0  0  0
 75 80  1  0  0  0
 75 82  1  0  0  0
 76 78  1  0  0  0
 76 81  1  0  0  0
 76 83  2  0  0  0
 77146  1  0  0  0
 77147  1  0  0  0
 77148  1  0  0  0
 77 79  1  0  0  0
 78 79  1  0  0  0
 78149  1  0  0  0
 78150  1  0  0  0
 79151  1  0  0  0
 81152  1  0  0  0
 82153  1  0  0  0
M  ISO  4   1 100  68 101  79 101  82 100
M  END
> <chiral flag>
0

> <version>
0

> <s_m_source_file>
/data/baiqing/PycharmProjects/Reinvent-master-3.2/result/LINK_invent/BTK/process_docking_weight1_custom_product_contain_oxygen_bond_distance_aromatic_linkinvent_7_9_3/rearranged_h_0185.sdf

> <i_m_source_file_index>
48

> <r_mmod_Potential_Energy-OPLS-2005>
61.4610176086426

> <r_mmod_Stretch_Energy-OPLS-2005>
147.858825683594

> <r_mmod_Bend_Energy-OPLS-2005>
214.634140014648

> <r_mmod_Torsional_Energy-OPLS-2005>
223.962005615234

> <r_mmod_Improper_Torsional_Energy-OPLS-2005>
7.34143352508545

> <r_mmod_Van_der_Waal_Energy-OPLS-2005>
144.6943359375

> <r_mmod_Electrostatic_Energy-OPLS-2005>
-526.062744140625

> <r_mmod_Solvation_Energy-OPLS-2005>
-238.985565185547

> <b_mmod_Minimization_Converged-OPLS-2005>
0

> <r_mmod_RMS_Derivative-OPLS-2005>
2.44774913787842

$$$$
48
                    3D
 Structure written by MMmdl.
159167  0  0  1  0            999 V2000
  -30.6471  -14.7640   20.4328 C   0  0  0  0  0  0
  -30.4168  -12.4606   19.4918 C   0  0  0  0  0  0
  -29.5082  -12.5035   18.2451 C   0  0  0  0  0  0
  -28.0357  -12.3284   18.6565 C   0  0  0  0  0  0
  -27.6368  -13.2411   19.8474 C   0  0  2  0  0  0
  -28.6800  -13.2145   20.9867 C   0  0  0  0  0  0
  -25.2486  -13.8218   20.5704 C   0  0  0  0  0  0
  -24.1791  -13.0449   20.9214 C   0  0  0  0  0  0
  -24.6393  -11.6932   20.8752 C   0  0  0  0  0  0
  -23.9075  -10.4303   21.0408 C   0  0  0  0  0  0
  -24.3627   -9.4215   21.9182 C   0  0  0  0  0  0
  -23.6303   -8.2247   22.0751 C   0  0  0  0  0  0
  -22.4284   -8.0283   21.3543 C   0  0  0  0  0  0
  -21.9921   -9.0256   20.4644 C   0  0  0  0  0  0
  -22.7248  -10.2137   20.3055 C   0  0  0  0  0  0
  -21.6854   -6.0737   22.5280 C   0  0  0  0  0  0
  -21.4014   -6.5642   23.8212 C   0  0  0  0  0  0
  -21.3660   -5.6795   24.9174 C   0  0  0  0  0  0
  -21.6044   -4.3057   24.7224 C   0  0  0  0  0  0
  -21.8821   -3.8147   23.4347 C   0  0  0  0  0  0
  -21.9194   -4.6964   22.3403 C   0  0  0  0  0  0
  -22.7813  -13.5223   21.1870 C   0  0  0  0  0  0
  -22.1662   -4.2149   21.0980 F   0  0  0  0  0  0
  -21.5627   -3.4541   25.7737 F   0  0  0  0  0  0
  -29.9802  -13.5535   20.3992 N   0  0  0  0  0  0
  -26.2916  -12.9442   20.3282 N   0  0  0  0  0  0
  -25.9326  -11.6576   20.5759 N   0  0  0  0  0  0
  -22.0465  -12.8204   22.0423 N   0  0  0  0  0  0
  -25.4164  -15.1944   20.4120 N   0  0  0  0  0  0
  -31.8453  -14.7502   20.1391 O   0  0  0  0  0  0
  -21.6644   -6.8883   21.4244 O   0  0  0  0  0  0
  -22.3494  -14.5524   20.6710 O   0  0  0  0  0  0
  -24.6347  -31.8534   23.1996 C   0  0  0  0  0  0
  -25.9166  -32.4745   23.8335 C   0  0  1  0  0  0
  -27.2035  -27.2242   20.1223 C   0  0  0  0  0  0
  -25.5960  -33.8552   24.2249 N   0  0  0  0  0  0
  -23.4318  -30.4801   21.5438 C   0  0  2  0  0  0
  -24.8747  -28.9308   20.1059 C   0  0  0  0  0  0
  -22.7522  -29.4595   22.4897 C   0  0  0  0  0  0
  -18.0294  -28.1392   22.8479 C   0  0  0  0  0  0
  -24.1485  -36.7267   23.2635 C   0  0  0  0  0  0
  -25.9822  -30.7519   21.3887 C   0  0  0  0  0  0
  -26.0481  -29.3733   20.7285 C   0  0  0  0  0  0
  -27.2102  -28.5291   20.7344 C   0  0  0  0  0  0
  -26.0111  -26.8828   19.4393 C   0  0  0  0  0  0
  -24.8643  -27.6948   19.4509 C   0  0  0  0  0  0
  -23.6499  -29.8227   20.1569 C   0  0  0  0  0  0
  -25.4117  -36.3064   24.0323 C   0  0  1  0  0  0
  -20.5906  -28.3711   23.1255 C   0  0  2  0  0  0
  -20.6782  -26.9424   22.5406 C   0  0  0  0  0  0
  -19.5756  -26.6383   21.5215 C   0  0  0  0  0  0
  -18.1936  -26.7929   22.1625 C   0  0  0  0  0  0
  -19.1551  -28.8868   23.2857 C   0  0  0  0  0  0
  -18.9472  -30.1463   23.8881 C   0  0  0  0  0  0
  -17.6474  -30.6591   24.0565 C   0  0  0  0  0  0
  -25.9069  -34.9438   23.5090 C   0  0  0  0  0  0
  -16.5363  -29.9090   23.6332 C   0  0  0  0  0  0
  -16.7280  -28.6507   23.0353 C   0  0  0  0  0  0
  -26.4520  -31.6579   25.0739 C   0  0  0  0  0  0
  -25.3726  -31.3741   26.1446 C   0  0  0  0  0  0
  -27.0365  -30.2986   24.6254 C   0  0  0  0  0  0
  -27.6070  -32.4324   25.7517 C   0  0  0  0  0  0
  -27.5572  -37.1793   24.8467 C   0  0  0  0  0  0
  -21.4224  -29.3053   22.3643 N   0  0  0  0  0  0
  -26.4284  -37.3770   23.9414 N   0  0  0  0  0  0
  -24.7023  -31.0470   22.0996 N   0  0  0  0  0  0
  -23.4208  -28.8119   23.2992 O   0  0  0  0  0  0
  -28.2806  -26.2926   20.2190 O   0  0  0  0  0  0
  -26.5634  -34.8925   22.4656 O   0  0  0  0  0  0
  -23.5489  -32.1380   23.7269 O   0  0  0  0  0  0
  -28.6559  -20.6070   21.8295 C   0  0  0  0  0  0
  -29.5897  -19.8089   19.8322 C   0  0  0  0  0  0
  -29.0405  -20.9779   20.5616 C   0  0  0  0  0  0
  -29.6424  -18.6006   20.5674 C   0  0  0  0  0  0
  -30.3978  -17.2614   20.3104 C   0  0  0  0  0  0
  -28.6648  -23.6227   20.5731 C   0  0  0  0  0  0
  -28.0241  -23.9296   17.2596 C   0  0  0  0  0  0
  -29.0123  -26.2134   17.5695 C   0  0  0  0  0  0
  -28.1909  -24.8775   19.6586 C   0  0  2  0  0  0
  -28.8195  -24.8323   18.2270 C   0  0  0  0  0  0
  -30.1194  -19.8658   18.4175 C   0  0  0  0  0  0
  -28.8442  -22.3563   20.0123 N   0  0  0  0  0  0
  -29.9460  -15.9679   20.5986 N   0  0  0  0  0  0
  -31.4913  -17.4353   19.7669 O   0  0  0  0  0  0
  -28.8360  -23.8085   21.7809 O   0  0  0  0  0  0
  -29.6154  -20.9016   17.7449 F   0  0  0  0  0  0
  -31.4455  -19.9955   18.3992 F   0  0  0  0  0  0
  -29.7977  -18.7721   17.7241 F   0  0  0  0  0  0
  -28.9622  -18.8932   22.1549 S   0  0  0  0  0  0
  -31.4623  -12.5478   19.1915 H   0  0  0  0  0  0
  -30.3368  -11.4943   19.9934 H   0  0  0  0  0  0
  -29.7956  -11.7222   17.5405 H   0  0  0  0  0  0
  -29.6369  -13.4520   17.7216 H   0  0  0  0  0  0
  -27.8983  -11.2824   18.9324 H   0  0  0  0  0  0
  -27.3789  -12.5065   17.8044 H   0  0  0  0  0  0
  -27.6211  -14.2559   19.4496 H   0  0  0  0  0  0
  -28.7171  -12.2313   21.4585 H   0  0  0  0  0  0
  -28.4125  -13.9224   21.7724 H   0  0  0  0  0  0
  -25.2771   -9.5686   22.4757 H   0  0  0  0  0  0
  -24.0010   -7.4638   22.7472 H   0  0  0  0  0  0
  -21.0849   -8.8776   19.8950 H   0  0  0  0  0  0
  -22.3706  -10.9677   19.6164 H   0  0  0  0  0  0
  -21.2007   -7.6151   23.9716 H   0  0  0  0  0  0
  -21.1479   -6.0524   25.9078 H   0  0  0  0  0  0
  -22.0598   -2.7609   23.2845 H   0  0  0  0  0  0
  -22.4093  -11.9873   22.4817 H   0  0  0  0  0  0
  -21.1078  -13.1214   22.2627 H   0  0  0  0  0  0
  -24.6446  -15.8446   20.5155 H   0  0  0  0  0  0
  -26.2582  -15.6340   20.0638 H   0  0  0  0  0  0
  -26.7229  -32.5370   23.1067 H   0  0  0  0  0  0
  -25.0130  -33.9686   25.0412 H   0  0  0  0  0  0
  -22.7293  -31.3040   21.4013 H   0  0  0  0  0  0
  -23.3762  -35.9584   23.3303 H   0  0  0  0  0  0
  -24.3564  -36.8887   22.2046 H   0  0  0  0  0  0
  -23.7231  -37.6466   23.6660 H   0  0  0  0  0  0
  -26.1306  -31.5115   20.6200 H   0  0  0  0  0  0
  -26.8562  -30.7958   22.0271 H   0  0  0  0  0  0
  -28.1000  -28.8559   21.2538 H   0  0  0  0  0  0
  -25.9031  -25.9709   18.8777 H   0  0  0  0  0  0
  -23.9732  -27.3598   18.9378 H   0  0  0  0  0  0
  -23.7799  -30.6037   19.4065 H   0  0  0  0  0  0
  -22.7650  -29.2637   19.8468 H   0  0  0  0  0  0
  -25.1302  -36.1902   25.0815 H   0  0  0  0  0  0
  -20.9996  -28.3287   24.1378 H   0  0  0  0  0  0
  -20.5684  -26.2324   23.3614 H   0  0  0  0  0  0
  -21.6647  -26.7442   22.1201 H   0  0  0  0  0  0
  -19.6927  -25.6292   21.1245 H   0  0  0  0  0  0
  -19.6691  -27.3193   20.6743 H   0  0  0  0  0  0
  -17.4206  -26.6677   21.4026 H   0  0  0  0  0  0
  -18.0337  -26.0070   22.9021 H   0  0  0  0  0  0
  -19.7950  -30.7278   24.2246 H   0  0  0  0  0  0
  -17.5030  -31.6266   24.5174 H   0  0  0  0  0  0
  -15.5363  -30.2992   23.7660 H   0  0  0  0  0  0
  -15.8678  -28.0821   22.7081 H   0  0  0  0  0  0
  -24.5922  -30.7067   25.7770 H   0  0  0  0  0  0
  -24.8894  -32.2907   26.4829 H   0  0  0  0  0  0
  -25.8031  -30.8948   27.0246 H   0  0  0  0  0  0
  -26.2954  -29.6733   24.1254 H   0  0  0  0  0  0
  -27.4003  -29.7257   25.4793 H   0  0  0  0  0  0
  -27.8862  -30.4244   23.9538 H   0  0  0  0  0  0
  -27.2681  -33.3642   26.2058 H   0  0  0  0  0  0
  -28.3902  -32.6847   25.0357 H   0  0  0  0  0  0
  -28.0713  -31.8463   26.5458 H   0  0  0  0  0  0
  -28.2600  -38.0080   24.7510 H   0  0  0  0  0  0
  -28.1060  -36.2616   24.6301 H   0  0  0  0  0  0
  -27.2282  -37.1445   25.8866 H   0  0  0  0  0  0
  -20.9418  -29.8783   21.6848 H   0  0  0  0  0  0
  -26.0158  -38.2840   24.1427 H   0  0  0  0  0  0
  -28.2061  -21.2236   22.5995 H   0  0  0  0  0  0
  -28.5381  -23.8324   16.3026 H   0  0  0  0  0  0
  -27.0365  -24.3458   17.0569 H   0  0  0  0  0  0
  -27.8725  -22.9220   17.6409 H   0  0  0  0  0  0
  -29.4899  -26.1200   16.5937 H   0  0  0  0  0  0
  -29.6487  -26.8616   18.1731 H   0  0  0  0  0  0
  -28.0608  -26.7227   17.4150 H   0  0  0  0  0  0
  -27.1453  -24.6034   19.5760 H   0  0  0  0  0  0
  -29.8211  -24.4087   18.3216 H   0  0  0  0  0  0
  -28.8060  -22.3870   19.0008 H   0  0  0  0  0  0
  -28.9966  -15.8954   20.9227 H   0  0  0  0  0  0
  1 25  1  0  0  0
  1 30  2  0  0  0
  1 83  1  0  0  0
  2  3  1  0  0  0
  2 25  1  0  0  0
  2 90  1  0  0  0
  2 91  1  0  0  0
  3  4  1  0  0  0
  3 92  1  0  0  0
  3 93  1  0  0  0
  4  5  1  0  0  0
  4 94  1  0  0  0
  4 95  1  0  0  0
  5  6  1  0  0  0
  5 26  1  0  0  0
  5 96  1  0  0  0
  6 25  1  0  0  0
  6 97  1  0  0  0
  6 98  1  0  0  0
  7  8  2  0  0  0
  7 26  1  0  0  0
  7 29  1  0  0  0
  8  9  1  0  0  0
  8 22  1  0  0  0
  9 10  1  0  0  0
  9 27  2  0  0  0
 10 11  2  0  0  0
 10 15  1  0  0  0
 11 12  1  0  0  0
 11 99  1  0  0  0
 12 13  2  0  0  0
 12100  1  0  0  0
 13 14  1  0  0  0
 13 31  1  0  0  0
 14 15  2  0  0  0
 14101  1  0  0  0
 15102  1  0  0  0
 16 17  2  0  0  0
 16 21  1  0  0  0
 16 31  1  0  0  0
 17 18  1  0  0  0
 17103  1  0  0  0
 18 19  2  0  0  0
 18104  1  0  0  0
 19 20  1  0  0  0
 19 24  1  0  0  0
 20 21  2  0  0  0
 20105  1  0  0  0
 21 23  1  0  0  0
 22 28  1  0  0  0
 22 32  2  0  0  0
 26 27  1  0  0  0
 28106  1  0  0  0
 28107  1  0  0  0
 29108  1  0  0  0
 29109  1  0  0  0
 33 34  1  0  0  0
 33 66  1  0  0  0
 33 70  2  0  0  0
 34 36  1  0  0  0
 34 59  1  0  0  0
 34110  1  0  0  0
 35 44  2  0  0  0
 35 45  1  0  0  0
 35 68  1  0  0  0
 36 56  1  0  0  0
 36111  1  0  0  0
 37 39  1  0  0  0
 37 47  1  0  0  0
 37 66  1  0  0  0
 37112  1  0  0  0
 38 43  2  0  0  0
 38 46  1  0  0  0
 38 47  1  0  0  0
 39 64  1  0  0  0
 39 67  2  0  0  0
 40 52  1  0  0  0
 40 53  2  0  0  0
 40 58  1  0  0  0
 41113  1  0  0  0
 41114  1  0  0  0
 41115  1  0  0  0
 41 48  1  0  0  0
 42 43  1  0  0  0
 42 66  1  0  0  0
 42116  1  0  0  0
 42117  1  0  0  0
 43 44  1  0  0  0
 44118  1  0  0  0
 45 46  2  0  0  0
 45119  1  0  0  0
 46120  1  0  0  0
 47121  1  0  0  0
 47122  1  0  0  0
 48 56  1  0  0  0
 48 65  1  0  0  0
 48123  1  0  0  0
 49 50  1  0  0  0
 49 53  1  0  0  0
 49 64  1  0  0  0
 49124  1  0  0  0
 50 51  1  0  0  0
 50125  1  0  0  0
 50126  1  0  0  0
 51 52  1  0  0  0
 51127  1  0  0  0
 51128  1  0  0  0
 52129  1  0  0  0
 52130  1  0  0  0
 53 54  1  0  0  0
 54 55  2  0  0  0
 54131  1  0  0  0
 55 57  1  0  0  0
 55132  1  0  0  0
 56 69  2  0  0  0
 57 58  2  0  0  0
 57133  1  0  0  0
 58134  1  0  0  0
 59 60  1  0  0  0
 59 61  1  0  0  0
 59 62  1  0  0  0
 60135  1  0  0  0
 60136  1  0  0  0
 60137  1  0  0  0
 61138  1  0  0  0
 61139  1  0  0  0
 61140  1  0  0  0
 62141  1  0  0  0
 62142  1  0  0  0
 62143  1  0  0  0
 63 65  1  0  0  0
 63144  1  0  0  0
 63145  1  0  0  0
 63146  1  0  0  0
 64147  1  0  0  0
 65148  1  0  0  0
 68 79  1  0  0  0
 71 73  2  0  0  0
 71 89  1  0  0  0
 71149  1  0  0  0
 72 73  1  0  0  0
 72 74  2  0  0  0
 72 81  1  0  0  0
 73 82  1  0  0  0
 74 75  1  0  0  0
 74 89  1  0  0  0
 75 83  1  0  0  0
 75 84  2  0  0  0
 76 79  1  0  0  0
 76 82  1  0  0  0
 76 85  2  0  0  0
 77150  1  0  0  0
 77151  1  0  0  0
 77152  1  0  0  0
 77 80  1  0  0  0
 78 80  1  0  0  0
 78153  1  0  0  0
 78154  1  0  0  0
 78155  1  0  0  0
 79 80  1  0  0  0
 79156  1  0  0  0
 80157  1  0  0  0
 81 86  1  0  0  0
 81 87  1  0  0  0
 81 88  1  0  0  0
 82158  1  0  0  0
 83159  1  0  0  0
M  ISO  4   1 100  68 101  79 101  83 100
M  END
> <chiral flag>
0

> <version>
0

> <s_m_source_file>
/data/baiqing/PycharmProjects/Reinvent-master-3.2/result/LINK_invent/BTK/process_docking_weight1_custom_product_contain_oxygen_bond_distance_aromatic_linkinvent_7_9_3/rearranged_h_0185.sdf

> <i_m_source_file_index>
49

> <r_mmod_Potential_Energy-OPLS-2005>
202.110931396484

> <r_mmod_Stretch_Energy-OPLS-2005>
143.570892333984

> <r_mmod_Bend_Energy-OPLS-2005>
199.034805297852

> <r_mmod_Torsional_Energy-OPLS-2005>
261.130920410156

> <r_mmod_Improper_Torsional_Energy-OPLS-2005>
5.79150819778442

> <r_mmod_Van_der_Waal_Energy-OPLS-2005>
133.760070800781

> <r_mmod_Electrostatic_Energy-OPLS-2005>
-404.487976074219

> <r_mmod_Solvation_Energy-OPLS-2005>
-241.429656982422

> <b_mmod_Minimization_Converged-OPLS-2005>
0

> <r_mmod_RMS_Derivative-OPLS-2005>
1.01832151412964

$$$$
49
                    3D
 Structure written by MMmdl.
156164  0  0  1  0            999 V2000
  -30.6195  -14.7270   20.4472 C   0  0  0  0  0  0
  -30.4302  -12.4357   19.4632 C   0  0  0  0  0  0
  -29.5086  -12.5062   18.2252 C   0  0  0  0  0  0
  -28.0293  -12.3427   18.6367 C   0  0  0  0  0  0
  -27.6411  -13.2333   19.8489 C   0  0  2  0  0  0
  -28.6929  -13.1551   20.9773 C   0  0  0  0  0  0
  -25.2489  -13.8218   20.5691 C   0  0  0  0  0  0
  -24.1803  -13.0440   20.9210 C   0  0  0  0  0  0
  -24.6409  -11.6923   20.8752 C   0  0  0  0  0  0
  -23.9067  -10.4312   21.0391 C   0  0  0  0  0  0
  -24.3614   -9.4220   21.9173 C   0  0  0  0  0  0
  -23.6317   -8.2233   22.0743 C   0  0  0  0  0  0
  -22.4298   -8.0258   21.3518 C   0  0  0  0  0  0
  -21.9912   -9.0229   20.4628 C   0  0  0  0  0  0
  -22.7233  -10.2134   20.3043 C   0  0  0  0  0  0
  -21.6854   -6.0720   22.5264 C   0  0  0  0  0  0
  -21.4027   -6.5624   23.8189 C   0  0  0  0  0  0
  -21.3669   -5.6781   24.9158 C   0  0  0  0  0  0
  -21.6051   -4.3065   24.7224 C   0  0  0  0  0  0
  -21.8819   -3.8136   23.4347 C   0  0  0  0  0  0
  -21.9209   -4.6949   22.3393 C   0  0  0  0  0  0
  -22.7822  -13.5193   21.1871 C   0  0  0  0  0  0
  -22.1658   -4.2124   21.0969 F   0  0  0  0  0  0
  -21.5627   -3.4555   25.7727 F   0  0  0  0  0  0
  -29.9937  -13.5017   20.3926 N   0  0  0  0  0  0
  -26.2932  -12.9428   20.3278 N   0  0  0  0  0  0
  -25.9333  -11.6564   20.5756 N   0  0  0  0  0  0
  -22.0476  -12.8183   22.0458 N   0  0  0  0  0  0
  -25.4186  -15.1943   20.4064 N   0  0  0  0  0  0
  -31.8150  -14.8165   20.1589 O   0  0  0  0  0  0
  -21.6650   -6.8851   21.4223 O   0  0  0  0  0  0
  -22.3483  -14.5476   20.6707 O   0  0  0  0  0  0
  -24.6321  -31.8534   23.1944 C   0  0  0  0  0  0
  -25.9158  -32.4730   23.8300 C   0  0  1  0  0  0
  -27.2352  -27.2683   20.1233 C   0  0  0  0  0  0
  -25.5948  -33.8536   24.2229 N   0  0  0  0  0  0
  -23.4299  -30.4732   21.5388 C   0  0  2  0  0  0
  -24.8814  -28.9132   20.1131 C   0  0  0  0  0  0
  -22.7506  -29.4586   22.4899 C   0  0  0  0  0  0
  -18.0291  -28.1372   22.8471 C   0  0  0  0  0  0
  -24.1501  -36.7286   23.2633 C   0  0  0  0  0  0
  -25.9778  -30.7664   21.3725 C   0  0  0  0  0  0
  -26.0535  -29.3880   20.7180 C   0  0  0  0  0  0
  -27.2340  -28.5796   20.7068 C   0  0  0  0  0  0
  -26.0405  -26.8569   19.4938 C   0  0  0  0  0  0
  -24.8799  -27.6557   19.4886 C   0  0  0  0  0  0
  -23.6502  -29.7972   20.1563 C   0  0  0  0  0  0
  -25.4115  -36.3064   24.0320 C   0  0  1  0  0  0
  -20.5891  -28.3699   23.1251 C   0  0  2  0  0  0
  -20.6779  -26.9410   22.5399 C   0  0  0  0  0  0
  -19.5762  -26.6373   21.5208 C   0  0  0  0  0  0
  -18.1935  -26.7925   22.1614 C   0  0  0  0  0  0
  -19.1537  -28.8848   23.2860 C   0  0  0  0  0  0
  -18.9455  -30.1451   23.8887 C   0  0  0  0  0  0
  -17.6468  -30.6591   24.0550 C   0  0  0  0  0  0
  -25.9058  -34.9438   23.5071 C   0  0  0  0  0  0
  -16.5362  -29.9082   23.6319 C   0  0  0  0  0  0
  -16.7279  -28.6489   23.0349 C   0  0  0  0  0  0
  -26.4517  -31.6570   25.0708 C   0  0  0  0  0  0
  -25.3741  -31.3731   26.1429 C   0  0  0  0  0  0
  -27.0332  -30.2970   24.6199 C   0  0  0  0  0  0
  -27.6042  -32.4324   25.7513 C   0  0  0  0  0  0
  -27.5583  -37.1789   24.8448 C   0  0  0  0  0  0
  -21.4213  -29.3054   22.3649 N   0  0  0  0  0  0
  -26.4277  -37.3769   23.9417 N   0  0  0  0  0  0
  -24.6999  -31.0488   22.0914 N   0  0  0  0  0  0
  -23.4198  -28.8132   23.2997 O   0  0  0  0  0  0
  -28.3485  -26.3967   20.1195 O   0  0  0  0  0  0
  -26.5626  -34.8918   22.4639 O   0  0  0  0  0  0
  -23.5468  -32.1369   23.7243 O   0  0  0  0  0  0
  -29.7290  -19.6451   20.3349 C   0  0  0  0  0  0
  -31.0727  -19.6340   20.6894 C   0  0  0  0  0  0
  -30.1464  -17.2886   20.5495 C   0  0  0  0  0  0
  -28.8900  -20.8670   19.9440 C   0  0  0  0  0  0
  -28.5726  -23.6035   18.3785 C   0  0  0  0  0  0
  -30.5065  -24.2292   19.7885 C   0  0  0  0  0  0
  -29.0367  -22.3127   20.6346 C   0  0  0  0  0  0
  -28.1738  -24.9538   20.5128 C   0  0  0  0  0  0
  -29.0403  -23.7526   19.8424 C   0  0  0  0  0  0
  -29.2462  -18.2795   20.2685 N   0  0  0  0  0  0
  -31.9832  -20.6848   20.8345 N   0  0  0  0  0  0
  -29.8179  -15.8521   20.5638 N   0  0  0  0  0  0
  -27.9574  -20.7449   19.1395 O   0  0  0  0  0  0
  -31.7107  -17.9989   20.9414 S   0  0  0  0  0  0
  -31.4741  -12.5505   19.1622 H   0  0  0  0  0  0
  -30.3563  -11.4556   19.9363 H   0  0  0  0  0  0
  -29.7867  -11.7394   17.5014 H   0  0  0  0  0  0
  -29.6476  -13.4671   17.7286 H   0  0  0  0  0  0
  -27.8712  -11.2917   18.8820 H   0  0  0  0  0  0
  -27.3745  -12.5563   17.7911 H   0  0  0  0  0  0
  -27.6354  -14.2595   19.4804 H   0  0  0  0  0  0
  -28.7244  -12.1496   21.4027 H   0  0  0  0  0  0
  -28.4384  -13.8341   21.7953 H   0  0  0  0  0  0
  -25.2752   -9.5718   22.4769 H   0  0  0  0  0  0
  -24.0025   -7.4632   22.7484 H   0  0  0  0  0  0
  -21.0815   -8.8753   19.8959 H   0  0  0  0  0  0
  -22.3666  -10.9657   19.6165 H   0  0  0  0  0  0
  -21.2024   -7.6152   23.9697 H   0  0  0  0  0  0
  -21.1480   -6.0517   25.9060 H   0  0  0  0  0  0
  -22.0609   -2.7586   23.2855 H   0  0  0  0  0  0
  -22.4076  -11.9823   22.4825 H   0  0  0  0  0  0
  -21.1088  -13.1184   22.2651 H   0  0  0  0  0  0
  -24.6543  -15.8519   20.5126 H   0  0  0  0  0  0
  -26.2612  -15.6287   20.0524 H   0  0  0  0  0  0
  -26.7225  -32.5384   23.1041 H   0  0  0  0  0  0
  -25.0105  -33.9677   25.0383 H   0  0  0  0  0  0
  -22.7281  -31.2957   21.3827 H   0  0  0  0  0  0
  -23.3776  -35.9597   23.3244 H   0  0  0  0  0  0
  -24.3579  -36.8967   22.2049 H   0  0  0  0  0  0
  -23.7247  -37.6470   23.6683 H   0  0  0  0  0  0
  -26.1137  -31.5268   20.6022 H   0  0  0  0  0  0
  -26.8549  -30.8154   22.0057 H   0  0  0  0  0  0
  -28.1366  -28.9439   21.1761 H   0  0  0  0  0  0
  -25.9970  -25.8983   18.9967 H   0  0  0  0  0  0
  -23.9870  -27.2897   19.0005 H   0  0  0  0  0  0
  -23.7744  -30.5686   19.3944 H   0  0  0  0  0  0
  -22.7722  -29.2250   19.8509 H   0  0  0  0  0  0
  -25.1300  -36.1874   25.0813 H   0  0  0  0  0  0
  -20.9987  -28.3276   24.1381 H   0  0  0  0  0  0
  -20.5648  -26.2319   23.3604 H   0  0  0  0  0  0
  -21.6638  -26.7421   22.1203 H   0  0  0  0  0  0
  -19.6921  -25.6277   21.1242 H   0  0  0  0  0  0
  -19.6706  -27.3161   20.6710 H   0  0  0  0  0  0
  -17.4211  -26.6654   21.4022 H   0  0  0  0  0  0
  -18.0353  -26.0062   22.8995 H   0  0  0  0  0  0
  -19.7937  -30.7247   24.2272 H   0  0  0  0  0  0
  -17.5023  -31.6261   24.5148 H   0  0  0  0  0  0
  -15.5355  -30.2984   23.7652 H   0  0  0  0  0  0
  -15.8666  -28.0805   22.7088 H   0  0  0  0  0  0
  -24.5918  -30.7072   25.7782 H   0  0  0  0  0  0
  -24.8939  -32.2903   26.4840 H   0  0  0  0  0  0
  -25.8072  -30.8934   27.0213 H   0  0  0  0  0  0
  -26.2891  -29.6743   24.1216 H   0  0  0  0  0  0
  -27.3985  -29.7206   25.4712 H   0  0  0  0  0  0
  -27.8794  -30.4218   23.9437 H   0  0  0  0  0  0
  -27.2603  -33.3609   26.2073 H   0  0  0  0  0  0
  -28.3877  -32.6908   25.0388 H   0  0  0  0  0  0
  -28.0673  -31.8470   26.5464 H   0  0  0  0  0  0
  -28.2549  -38.0144   24.7539 H   0  0  0  0  0  0
  -28.1136  -36.2664   24.6200 H   0  0  0  0  0  0
  -27.2296  -37.1341   25.8852 H   0  0  0  0  0  0
  -20.9403  -29.8810   21.6887 H   0  0  0  0  0  0
  -26.0154  -38.2826   24.1456 H   0  0  0  0  0  0
  -29.2023  -22.8999   17.8303 H   0  0  0  0  0  0
  -28.6209  -24.5550   17.8465 H   0  0  0  0  0  0
  -27.5436  -23.2495   18.3124 H   0  0  0  0  0  0
  -31.1596  -23.4823   19.3353 H   0  0  0  0  0  0
  -30.8892  -24.4407   20.7886 H   0  0  0  0  0  0
  -30.6057  -25.1457   19.2046 H   0  0  0  0  0  0
  -29.9114  -22.2689   21.2818 H   0  0  0  0  0  0
  -28.2126  -22.3508   21.3455 H   0  0  0  0  0  0
  -28.3778  -24.9283   21.5835 H   0  0  0  0  0  0
  -27.1214  -24.6701   20.4462 H   0  0  0  0  0  0
  -31.8024  -21.6562   20.6010 H   0  0  0  0  0  0
  -32.9222  -20.5476   21.1928 H   0  0  0  0  0  0
  -28.8346  -15.6587   20.6363 H   0  0  0  0  0  0
  1 25  1  0  0  0
  1 30  2  0  0  0
  1 82  1  0  0  0
  2  3  1  0  0  0
  2 25  1  0  0  0
  2 85  1  0  0  0
  2 86  1  0  0  0
  3  4  1  0  0  0
  3 87  1  0  0  0
  3 88  1  0  0  0
  4  5  1  0  0  0
  4 89  1  0  0  0
  4 90  1  0  0  0
  5  6  1  0  0  0
  5 26  1  0  0  0
  5 91  1  0  0  0
  6 25  1  0  0  0
  6 92  1  0  0  0
  6 93  1  0  0  0
  7  8  2  0  0  0
  7 26  1  0  0  0
  7 29  1  0  0  0
  8  9  1  0  0  0
  8 22  1  0  0  0
  9 10  1  0  0  0
  9 27  2  0  0  0
 10 11  2  0  0  0
 10 15  1  0  0  0
 11 12  1  0  0  0
 11 94  1  0  0  0
 12 13  2  0  0  0
 12 95  1  0  0  0
 13 14  1  0  0  0
 13 31  1  0  0  0
 14 15  2  0  0  0
 14 96  1  0  0  0
 15 97  1  0  0  0
 16 17  2  0  0  0
 16 21  1  0  0  0
 16 31  1  0  0  0
 17 18  1  0  0  0
 17 98  1  0  0  0
 18 19  2  0  0  0
 18 99  1  0  0  0
 19 20  1  0  0  0
 19 24  1  0  0  0
 20 21  2  0  0  0
 20100  1  0  0  0
 21 23  1  0  0  0
 22 28  1  0  0  0
 22 32  2  0  0  0
 26 27  1  0  0  0
 28101  1  0  0  0
 28102  1  0  0  0
 29103  1  0  0  0
 29104  1  0  0  0
 33 34  1  0  0  0
 33 66  1  0  0  0
 33 70  2  0  0  0
 34 36  1  0  0  0
 34 59  1  0  0  0
 34105  1  0  0  0
 35 44  2  0  0  0
 35 45  1  0  0  0
 35 68  1  0  0  0
 36 56  1  0  0  0
 36106  1  0  0  0
 37 39  1  0  0  0
 37 47  1  0  0  0
 37 66  1  0  0  0
 37107  1  0  0  0
 38 43  2  0  0  0
 38 46  1  0  0  0
 38 47  1  0  0  0
 39 64  1  0  0  0
 39 67  2  0  0  0
 40 52  1  0  0  0
 40 53  2  0  0  0
 40 58  1  0  0  0
 41108  1  0  0  0
 41109  1  0  0  0
 41110  1  0  0  0
 41 48  1  0  0  0
 42 43  1  0  0  0
 42 66  1  0  0  0
 42111  1  0  0  0
 42112  1  0  0  0
 43 44  1  0  0  0
 44113  1  0  0  0
 45 46  2  0  0  0
 45114  1  0  0  0
 46115  1  0  0  0
 47116  1  0  0  0
 47117  1  0  0  0
 48 56  1  0  0  0
 48 65  1  0  0  0
 48118  1  0  0  0
 49 50  1  0  0  0
 49 53  1  0  0  0
 49 64  1  0  0  0
 49119  1  0  0  0
 50 51  1  0  0  0
 50120  1  0  0  0
 50121  1  0  0  0
 51 52  1  0  0  0
 51122  1  0  0  0
 51123  1  0  0  0
 52124  1  0  0  0
 52125  1  0  0  0
 53 54  1  0  0  0
 54 55  2  0  0  0
 54126  1  0  0  0
 55 57  1  0  0  0
 55127  1  0  0  0
 56 69  2  0  0  0
 57 58  2  0  0  0
 57128  1  0  0  0
 58129  1  0  0  0
 59 60  1  0  0  0
 59 61  1  0  0  0
 59 62  1  0  0  0
 60130  1  0  0  0
 60131  1  0  0  0
 60132  1  0  0  0
 61133  1  0  0  0
 61134  1  0  0  0
 61135  1  0  0  0
 62136  1  0  0  0
 62137  1  0  0  0
 62138  1  0  0  0
 63 65  1  0  0  0
 63139  1  0  0  0
 63140  1  0  0  0
 63141  1  0  0  0
 64142  1  0  0  0
 65143  1  0  0  0
 68 78  1  0  0  0
 71 72  2  0  0  0
 71 74  1  0  0  0
 71 80  1  0  0  0
 72 81  1  0  0  0
 72 84  1  0  0  0
 73 80  2  0  0  0
 73 82  1  0  0  0
 73 84  1  0  0  0
 74 77  1  0  0  0
 74 83  2  0  0  0
 75144  1  0  0  0
 75145  1  0  0  0
 75146  1  0  0  0
 75 79  1  0  0  0
 76 79  1  0  0  0
 76147  1  0  0  0
 76148  1  0  0  0
 76149  1  0  0  0
 77 79  1  0  0  0
 77150  1  0  0  0
 77151  1  0  0  0
 78 79  1  0  0  0
 78152  1  0  0  0
 78153  1  0  0  0
 81154  1  0  0  0
 81155  1  0  0  0
 82156  1  0  0  0
M  ISO  4   1 100  68 101  78 101  82 100
M  END
> <chiral flag>
0

> <version>
0

> <s_m_source_file>
/data/baiqing/PycharmProjects/Reinvent-master-3.2/result/LINK_invent/BTK/process_docking_weight1_custom_product_contain_oxygen_bond_distance_aromatic_linkinvent_7_9_3/rearranged_h_0185.sdf

> <i_m_source_file_index>
50

> <r_mmod_Potential_Energy-OPLS-2005>
276.517700195312

> <r_mmod_Stretch_Energy-OPLS-2005>
124.434310913086

> <r_mmod_Bend_Energy-OPLS-2005>
179.283599853516

> <r_mmod_Torsional_Energy-OPLS-2005>
249.207946777344

> <r_mmod_Improper_Torsional_Energy-OPLS-2005>
7.68860578536987

> <r_mmod_Van_der_Waal_Energy-OPLS-2005>
114.195693969727

> <r_mmod_Electrostatic_Energy-OPLS-2005>
-251.277862548828

> <r_mmod_Solvation_Energy-OPLS-2005>
-224.026916503906

> <b_mmod_Minimization_Converged-OPLS-2005>
0

> <r_mmod_RMS_Derivative-OPLS-2005>
4.87515115737915

$$$$
50
                    3D
 Structure written by MMmdl.
154162  0  0  1  0            999 V2000
  -30.5638  -14.7833   20.4541 C   0  0  0  0  0  0
  -30.4463  -12.4832   19.4708 C   0  0  0  0  0  0
  -29.5127  -12.5143   18.2383 C   0  0  0  0  0  0
  -28.0396  -12.3209   18.6560 C   0  0  0  0  0  0
  -27.6401  -13.2236   19.8518 C   0  0  2  0  0  0
  -28.6882  -13.1516   20.9838 C   0  0  0  0  0  0
  -25.2516  -13.8170   20.5641 C   0  0  0  0  0  0
  -24.1794  -13.0418   20.9248 C   0  0  0  0  0  0
  -24.6373  -11.6908   20.8803 C   0  0  0  0  0  0
  -23.9042  -10.4293   21.0430 C   0  0  0  0  0  0
  -24.3592   -9.4208   21.9193 C   0  0  0  0  0  0
  -23.6271   -8.2245   22.0745 C   0  0  0  0  0  0
  -22.4270   -8.0266   21.3526 C   0  0  0  0  0  0
  -21.9898   -9.0252   20.4643 C   0  0  0  0  0  0
  -22.7223  -10.2140   20.3071 C   0  0  0  0  0  0
  -21.6843   -6.0713   22.5285 C   0  0  0  0  0  0
  -21.4000   -6.5620   23.8206 C   0  0  0  0  0  0
  -21.3671   -5.6784   24.9171 C   0  0  0  0  0  0
  -21.6050   -4.3050   24.7219 C   0  0  0  0  0  0
  -21.8824   -3.8135   23.4352 C   0  0  0  0  0  0
  -21.9187   -4.6944   22.3402 C   0  0  0  0  0  0
  -22.7844  -13.5250   21.1878 C   0  0  0  0  0  0
  -22.1662   -4.2139   21.0977 F   0  0  0  0  0  0
  -21.5636   -3.4536   25.7733 F   0  0  0  0  0  0
  -29.9777  -13.5370   20.3950 N   0  0  0  0  0  0
  -26.2921  -12.9344   20.3289 N   0  0  0  0  0  0
  -25.9297  -11.6507   20.5813 N   0  0  0  0  0  0
  -22.0450  -12.8249   22.0439 N   0  0  0  0  0  0
  -25.4131  -15.1843   20.3823 N   0  0  0  0  0  0
  -31.7663  -14.9002   20.1953 O   0  0  0  0  0  0
  -21.6621   -6.8865   21.4239 O   0  0  0  0  0  0
  -22.3537  -14.5545   20.6705 O   0  0  0  0  0  0
  -24.6456  -31.8539   23.1891 C   0  0  0  0  0  0
  -25.9261  -32.4722   23.8246 C   0  0  1  0  0  0
  -27.1616  -27.1772   20.1156 C   0  0  0  0  0  0
  -25.6014  -33.8521   24.2229 N   0  0  0  0  0  0
  -23.4357  -30.4859   21.5357 C   0  0  2  0  0  0
  -24.8607  -28.9310   20.1028 C   0  0  0  0  0  0
  -22.7528  -29.4666   22.4788 C   0  0  0  0  0  0
  -18.0353  -28.1409   22.8453 C   0  0  0  0  0  0
  -24.1489  -36.7245   23.2630 C   0  0  0  0  0  0
  -25.9893  -30.7407   21.3737 C   0  0  0  0  0  0
  -26.0435  -29.3582   20.7152 C   0  0  0  0  0  0
  -27.1979  -28.4957   20.7128 C   0  0  0  0  0  0
  -25.9441  -26.8452   19.4881 C   0  0  0  0  0  0
  -24.8185  -27.6846   19.4757 C   0  0  0  0  0  0
  -23.6459  -29.8322   20.1492 C   0  0  0  0  0  0
  -25.4129  -36.3025   24.0305 C   0  0  1  0  0  0
  -20.5969  -28.3793   23.1129 C   0  0  2  0  0  0
  -20.6863  -26.9505   22.5331 C   0  0  0  0  0  0
  -19.5808  -26.6427   21.5161 C   0  0  0  0  0  0
  -18.2001  -26.7941   22.1592 C   0  0  0  0  0  0
  -19.1630  -28.8905   23.2803 C   0  0  0  0  0  0
  -18.9543  -30.1467   23.8855 C   0  0  0  0  0  0
  -17.6559  -30.6592   24.0578 C   0  0  0  0  0  0
  -25.9080  -34.9417   23.5052 C   0  0  0  0  0  0
  -16.5442  -29.9114   23.6347 C   0  0  0  0  0  0
  -16.7358  -28.6548   23.0319 C   0  0  0  0  0  0
  -26.4577  -31.6536   25.0645 C   0  0  0  0  0  0
  -25.3752  -31.3715   26.1322 C   0  0  0  0  0  0
  -27.0443  -30.2950   24.6113 C   0  0  0  0  0  0
  -27.6106  -32.4299   25.7394 C   0  0  0  0  0  0
  -27.5577  -37.1756   24.8474 C   0  0  0  0  0  0
  -21.4239  -29.3162   22.3495 N   0  0  0  0  0  0
  -26.4302  -37.3744   23.9429 N   0  0  0  0  0  0
  -24.7132  -31.0441   22.0891 N   0  0  0  0  0  0
  -23.4192  -28.8153   23.2874 O   0  0  0  0  0  0
  -28.2182  -26.2102   20.1606 O   0  0  0  0  0  0
  -26.5622  -34.8879   22.4597 O   0  0  0  0  0  0
  -23.5589  -32.1406   23.7178 O   0  0  0  0  0  0
  -29.6287  -19.7327   20.5797 C   0  0  0  0  0  0
  -30.7096  -19.6350   21.4506 C   0  0  0  0  0  0
  -29.9946  -17.3424   20.6703 C   0  0  0  0  0  0
  -29.0156  -21.0582   20.0791 C   0  0  0  0  0  0
  -27.5601  -24.0902   18.7887 C   0  0  0  0  0  0
  -26.9045  -24.3891   21.2657 C   0  0  0  0  0  0
  -29.2153  -23.7034   20.5227 C   0  0  0  0  0  0
  -27.9690  -24.6782   20.1709 C   0  0  0  0  0  0
  -29.2505  -18.3863   20.1611 N   0  0  0  0  0  0
  -31.4442  -20.6352   22.0963 N   0  0  0  0  0  0
  -29.7196  -15.8899   20.5033 N   0  0  0  0  0  0
  -28.4260  -21.1218   18.9980 O   0  0  0  0  0  0
  -29.1482  -22.2451   20.9129 O   0  0  0  0  0  0
  -31.2514  -17.9741   21.7255 S   0  0  0  0  0  0
  -31.4816  -12.6393   19.1598 H   0  0  0  0  0  0
  -30.4206  -11.5089   19.9584 H   0  0  0  0  0  0
  -29.8062  -11.7413   17.5257 H   0  0  0  0  0  0
  -29.6226  -13.4685   17.7188 H   0  0  0  0  0  0
  -27.9141  -11.2746   18.9331 H   0  0  0  0  0  0
  -27.3770  -12.4952   17.8085 H   0  0  0  0  0  0
  -27.6327  -14.2441   19.4719 H   0  0  0  0  0  0
  -28.7412  -12.1444   21.3977 H   0  0  0  0  0  0
  -28.4219  -13.8068   21.8149 H   0  0  0  0  0  0
  -25.2717   -9.5685   22.4784 H   0  0  0  0  0  0
  -23.9977   -7.4627   22.7469 H   0  0  0  0  0  0
  -21.0824   -8.8764   19.8952 H   0  0  0  0  0  0
  -22.3657  -10.9670   19.6201 H   0  0  0  0  0  0
  -21.1981   -7.6127   23.9709 H   0  0  0  0  0  0
  -21.1495   -6.0502   25.9071 H   0  0  0  0  0  0
  -22.0591   -2.7596   23.2845 H   0  0  0  0  0  0
  -22.4017  -11.9885   22.4833 H   0  0  0  0  0  0
  -21.1091  -13.1313   22.2645 H   0  0  0  0  0  0
  -24.6102  -15.8042   20.3958 H   0  0  0  0  0  0
  -26.1876  -15.5711   19.8560 H   0  0  0  0  0  0
  -26.7307  -32.5355   23.0939 H   0  0  0  0  0  0
  -25.0263  -33.9652   25.0432 H   0  0  0  0  0  0
  -22.7445  -31.3172   21.3904 H   0  0  0  0  0  0
  -23.3746  -35.9587   23.3344 H   0  0  0  0  0  0
  -24.3621  -36.8842   22.2055 H   0  0  0  0  0  0
  -23.7275  -37.6443   23.6653 H   0  0  0  0  0  0
  -26.1322  -31.5000   20.6055 H   0  0  0  0  0  0
  -26.8717  -30.7867   21.9992 H   0  0  0  0  0  0
  -28.0950  -28.8091   21.2241 H   0  0  0  0  0  0
  -25.7765  -25.9002   19.0164 H   0  0  0  0  0  0
  -23.9082  -27.3616   18.9882 H   0  0  0  0  0  0
  -23.7823  -30.6163   19.4071 H   0  0  0  0  0  0
  -22.7611  -29.2796   19.8279 H   0  0  0  0  0  0
  -25.1301  -36.1826   25.0796 H   0  0  0  0  0  0
  -21.0126  -28.3458   24.1210 H   0  0  0  0  0  0
  -20.5798  -26.2439   23.3584 H   0  0  0  0  0  0
  -21.6711  -26.7532   22.1066 H   0  0  0  0  0  0
  -19.7010  -25.6339   21.1184 H   0  0  0  0  0  0
  -19.6691  -27.3210   20.6654 H   0  0  0  0  0  0
  -17.4248  -26.6662   21.4024 H   0  0  0  0  0  0
  -18.0454  -26.0064   22.8981 H   0  0  0  0  0  0
  -19.8051  -30.7278   24.2176 H   0  0  0  0  0  0
  -17.5161  -31.6247   24.5217 H   0  0  0  0  0  0
  -15.5462  -30.3015   23.7703 H   0  0  0  0  0  0
  -15.8756  -28.0905   22.6984 H   0  0  0  0  0  0
  -24.5942  -30.7038   25.7650 H   0  0  0  0  0  0
  -24.8891  -32.2883   26.4628 H   0  0  0  0  0  0
  -25.8006  -30.8965   27.0167 H   0  0  0  0  0  0
  -26.3036  -29.6631   24.1180 H   0  0  0  0  0  0
  -27.4214  -29.7225   25.4597 H   0  0  0  0  0  0
  -27.8847  -30.4246   23.9302 H   0  0  0  0  0  0
  -27.2737  -33.3671   26.1828 H   0  0  0  0  0  0
  -28.3944  -32.6772   25.0223 H   0  0  0  0  0  0
  -28.0702  -31.8507   26.5405 H   0  0  0  0  0  0
  -28.2525  -38.0094   24.7577 H   0  0  0  0  0  0
  -28.1103  -36.2630   24.6216 H   0  0  0  0  0  0
  -27.2317  -37.1320   25.8870 H   0  0  0  0  0  0
  -20.9435  -29.8963   21.6780 H   0  0  0  0  0  0
  -26.0129  -38.2767   24.1509 H   0  0  0  0  0  0
  -28.4243  -23.7856   18.1952 H   0  0  0  0  0  0
  -26.9738  -23.1820   18.9474 H   0  0  0  0  0  0
  -27.0080  -24.7135   18.1012 H   0  0  0  0  0  0
  -26.9921  -23.3818   21.6802 H   0  0  0  0  0  0
  -25.8799  -24.4657   20.9027 H   0  0  0  0  0  0
  -27.0082  -25.0616   22.1178 H   0  0  0  0  0  0
  -29.6626  -24.1468   21.4094 H   0  0  0  0  0  0
  -29.9788  -23.8228   19.7527 H   0  0  0  0  0  0
  -31.2959  -21.6261   21.9165 H   0  0  0  0  0  0
  -32.2214  -20.4626   22.7318 H   0  0  0  0  0  0
  -28.7386  -15.6516   20.4795 H   0  0  0  0  0  0
  1 25  1  0  0  0
  1 30  2  0  0  0
  1 81  1  0  0  0
  2  3  1  0  0  0
  2 25  1  0  0  0
  2 85  1  0  0  0
  2 86  1  0  0  0
  3  4  1  0  0  0
  3 87  1  0  0  0
  3 88  1  0  0  0
  4  5  1  0  0  0
  4 89  1  0  0  0
  4 90  1  0  0  0
  5  6  1  0  0  0
  5 26  1  0  0  0
  5 91  1  0  0  0
  6 25  1  0  0  0
  6 92  1  0  0  0
  6 93  1  0  0  0
  7  8  2  0  0  0
  7 26  1  0  0  0
  7 29  1  0  0  0
  8  9  1  0  0  0
  8 22  1  0  0  0
  9 10  1  0  0  0
  9 27  2  0  0  0
 10 11  2  0  0  0
 10 15  1  0  0  0
 11 12  1  0  0  0
 11 94  1  0  0  0
 12 13  2  0  0  0
 12 95  1  0  0  0
 13 14  1  0  0  0
 13 31  1  0  0  0
 14 15  2  0  0  0
 14 96  1  0  0  0
 15 97  1  0  0  0
 16 17  2  0  0  0
 16 21  1  0  0  0
 16 31  1  0  0  0
 17 18  1  0  0  0
 17 98  1  0  0  0
 18 19  2  0  0  0
 18 99  1  0  0  0
 19 20  1  0  0  0
 19 24  1  0  0  0
 20 21  2  0  0  0
 20100  1  0  0  0
 21 23  1  0  0  0
 22 28  1  0  0  0
 22 32  2  0  0  0
 26 27  1  0  0  0
 28101  1  0  0  0
 28102  1  0  0  0
 29103  1  0  0  0
 29104  1  0  0  0
 33 34  1  0  0  0
 33 66  1  0  0  0
 33 70  2  0  0  0
 34 36  1  0  0  0
 34 59  1  0  0  0
 34105  1  0  0  0
 35 44  2  0  0  0
 35 45  1  0  0  0
 35 68  1  0  0  0
 36 56  1  0  0  0
 36106  1  0  0  0
 37 39  1  0  0  0
 37 47  1  0  0  0
 37 66  1  0  0  0
 37107  1  0  0  0
 38 43  2  0  0  0
 38 46  1  0  0  0
 38 47  1  0  0  0
 39 64  1  0  0  0
 39 67  2  0  0  0
 40 52  1  0  0  0
 40 53  2  0  0  0
 40 58  1  0  0  0
 41108  1  0  0  0
 41109  1  0  0  0
 41110  1  0  0  0
 41 48  1  0  0  0
 42 43  1  0  0  0
 42 66  1  0  0  0
 42111  1  0  0  0
 42112  1  0  0  0
 43 44  1  0  0  0
 44113  1  0  0  0
 45 46  2  0  0  0
 45114  1  0  0  0
 46115  1  0  0  0
 47116  1  0  0  0
 47117  1  0  0  0
 48 56  1  0  0  0
 48 65  1  0  0  0
 48118  1  0  0  0
 49 50  1  0  0  0
 49 53  1  0  0  0
 49 64  1  0  0  0
 49119  1  0  0  0
 50 51  1  0  0  0
 50120  1  0  0  0
 50121  1  0  0  0
 51 52  1  0  0  0
 51122  1  0  0  0
 51123  1  0  0  0
 52124  1  0  0  0
 52125  1  0  0  0
 53 54  1  0  0  0
 54 55  2  0  0  0
 54126  1  0  0  0
 55 57  1  0  0  0
 55127  1  0  0  0
 56 69  2  0  0  0
 57 58  2  0  0  0
 57128  1  0  0  0
 58129  1  0  0  0
 59 60  1  0  0  0
 59 61  1  0  0  0
 59 62  1  0  0  0
 60130  1  0  0  0
 60131  1  0  0  0
 60132  1  0  0  0
 61133  1  0  0  0
 61134  1  0  0  0
 61135  1  0  0  0
 62136  1  0  0  0
 62137  1  0  0  0
 62138  1  0  0  0
 63 65  1  0  0  0
 63139  1  0  0  0
 63140  1  0  0  0
 63141  1  0  0  0
 64142  1  0  0  0
 65143  1  0  0  0
 68 78  1  0  0  0
 71 72  2  0  0  0
 71 74  1  0  0  0
 71 79  1  0  0  0
 72 80  1  0  0  0
 72 84  1  0  0  0
 73 79  2  0  0  0
 73 81  1  0  0  0
 73 84  1  0  0  0
 74 82  2  0  0  0
 74 83  1  0  0  0
 75144  1  0  0  0
 75145  1  0  0  0
 75146  1  0  0  0
 75 78  1  0  0  0
 76 78  1  0  0  0
 76147  1  0  0  0
 76148  1  0  0  0
 76149  1  0  0  0
 77 78  1  0  0  0
 77 83  1  0  0  0
 77150  1  0  0  0
 77151  1  0  0  0
 80152  1  0  0  0
 80153  1  0  0  0
 81154  1  0  0  0
M  ISO  4   1 100  68 101  78 101  81 100
M  END
> <chiral flag>
0

> <version>
0

> <s_m_source_file>
/data/baiqing/PycharmProjects/Reinvent-master-3.2/result/LINK_invent/BTK/process_docking_weight1_custom_product_contain_oxygen_bond_distance_aromatic_linkinvent_7_9_3/rearranged_h_0185.sdf

> <i_m_source_file_index>
51

> <r_mmod_Potential_Energy-OPLS-2005>
364.372772216797

> <r_mmod_Stretch_Energy-OPLS-2005>
161.856384277344

> <r_mmod_Bend_Energy-OPLS-2005>
215.601440429688

> <r_mmod_Torsional_Energy-OPLS-2005>
239.45849609375

> <r_mmod_Improper_Torsional_Energy-OPLS-2005>
9.78182220458984

> <r_mmod_Van_der_Waal_Energy-OPLS-2005>
128.628295898438

> <r_mmod_Electrostatic_Energy-OPLS-2005>
-295.140258789062

> <r_mmod_Solvation_Energy-OPLS-2005>
-222.59407043457

> <b_mmod_Minimization_Converged-OPLS-2005>
0

> <r_mmod_RMS_Derivative-OPLS-2005>
7.89121198654175

$$$$
51
                    3D
 Structure written by MMmdl.
151159  0  0  1  0            999 V2000
  -30.6193  -14.8073   20.4591 C   0  0  0  0  0  0
  -30.4361  -12.5043   19.4651 C   0  0  0  0  0  0
  -29.5106  -12.5053   18.2306 C   0  0  0  0  0  0
  -28.0379  -12.3232   18.6500 C   0  0  0  0  0  0
  -27.6348  -13.2376   19.8378 C   0  0  2  0  0  0
  -28.6872  -13.2212   20.9655 C   0  0  0  0  0  0
  -25.2500  -13.8207   20.5701 C   0  0  0  0  0  0
  -24.1805  -13.0441   20.9231 C   0  0  0  0  0  0
  -24.6404  -11.6922   20.8758 C   0  0  0  0  0  0
  -23.9084  -10.4292   21.0401 C   0  0  0  0  0  0
  -24.3635   -9.4203   21.9175 C   0  0  0  0  0  0
  -23.6305   -8.2241   22.0741 C   0  0  0  0  0  0
  -22.4285   -8.0283   21.3533 C   0  0  0  0  0  0
  -21.9926   -9.0258   20.4632 C   0  0  0  0  0  0
  -22.7260  -10.2136   20.3043 C   0  0  0  0  0  0
  -21.6856   -6.0734   22.5268 C   0  0  0  0  0  0
  -21.4019   -6.5635   23.8203 C   0  0  0  0  0  0
  -21.3665   -5.6785   24.9164 C   0  0  0  0  0  0
  -21.6053   -4.3050   24.7208 C   0  0  0  0  0  0
  -21.8827   -3.8146   23.4325 C   0  0  0  0  0  0
  -21.9201   -4.6964   22.3386 C   0  0  0  0  0  0
  -22.7824  -13.5212   21.1891 C   0  0  0  0  0  0
  -22.1664   -4.2149   21.0961 F   0  0  0  0  0  0
  -21.5634   -3.4533   25.7720 F   0  0  0  0  0  0
  -29.9681  -13.5928   20.3539 N   0  0  0  0  0  0
  -26.2923  -12.9419   20.3263 N   0  0  0  0  0  0
  -25.9333  -11.6559   20.5758 N   0  0  0  0  0  0
  -22.0475  -12.8196   22.0442 N   0  0  0  0  0  0
  -25.4182  -15.1933   20.4097 N   0  0  0  0  0  0
  -31.8394  -14.8296   20.2767 O   0  0  0  0  0  0
  -21.6646   -6.8880   21.4230 O   0  0  0  0  0  0
  -22.3505  -14.5515   20.6731 O   0  0  0  0  0  0
  -24.6399  -31.8498   23.1964 C   0  0  0  0  0  0
  -25.9194  -32.4733   23.8324 C   0  0  1  0  0  0
  -27.2097  -27.2035   20.1166 C   0  0  0  0  0  0
  -25.5956  -33.8537   24.2228 N   0  0  0  0  0  0
  -23.4373  -30.4765   21.5441 C   0  0  2  0  0  0
  -24.8779  -28.9211   20.1140 C   0  0  0  0  0  0
  -22.7537  -29.4600   22.4921 C   0  0  0  0  0  0
  -18.0301  -28.1400   22.8483 C   0  0  0  0  0  0
  -24.1483  -36.7268   23.2640 C   0  0  0  0  0  0
  -25.9913  -30.7447   21.3849 C   0  0  0  0  0  0
  -26.0595  -29.3652   20.7214 C   0  0  0  0  0  0
  -27.2271  -28.5221   20.7080 C   0  0  0  0  0  0
  -25.9842  -26.8425   19.5036 C   0  0  0  0  0  0
  -24.8485  -27.6683   19.4954 C   0  0  0  0  0  0
  -23.6540  -29.8140   20.1611 C   0  0  0  0  0  0
  -25.4116  -36.3053   24.0317 C   0  0  1  0  0  0
  -20.5906  -28.3718   23.1251 C   0  0  2  0  0  0
  -20.6792  -26.9432   22.5396 C   0  0  0  0  0  0
  -19.5762  -26.6393   21.5210 C   0  0  0  0  0  0
  -18.1945  -26.7940   22.1627 C   0  0  0  0  0  0
  -19.1551  -28.8880   23.2856 C   0  0  0  0  0  0
  -18.9469  -30.1482   23.8873 C   0  0  0  0  0  0
  -17.6464  -30.6595   24.0564 C   0  0  0  0  0  0
  -25.9067  -34.9433   23.5078 C   0  0  0  0  0  0
  -16.5358  -29.9083   23.6346 C   0  0  0  0  0  0
  -16.7282  -28.6505   23.0361 C   0  0  0  0  0  0
  -26.4521  -31.6588   25.0749 C   0  0  0  0  0  0
  -25.3711  -31.3765   26.1447 C   0  0  0  0  0  0
  -27.0381  -30.2986   24.6309 C   0  0  0  0  0  0
  -27.6054  -32.4350   25.7526 C   0  0  0  0  0  0
  -27.5572  -37.1791   24.8465 C   0  0  0  0  0  0
  -21.4239  -29.3054   22.3641 N   0  0  0  0  0  0
  -26.4284  -37.3759   23.9408 N   0  0  0  0  0  0
  -24.7100  -31.0411   22.0978 N   0  0  0  0  0  0
  -23.4201  -28.8138   23.3046 O   0  0  0  0  0  0
  -28.2880  -26.2595   20.1583 O   0  0  0  0  0  0
  -26.5626  -34.8918   22.4640 O   0  0  0  0  0  0
  -23.5531  -32.1357   23.7212 O   0  0  0  0  0  0
  -29.6597  -18.6093   20.1318 C   0  0  0  0  0  0
  -29.4415  -18.7844   18.7688 C   0  0  0  0  0  0
  -29.1232  -20.9806   20.0022 C   0  0  0  0  0  0
  -30.2888  -17.2926   20.7762 C   0  0  0  0  0  0
  -29.0710  -23.6113   20.1188 C   0  0  0  0  0  0
  -28.1175  -24.8396   18.1588 C   0  0  0  0  0  0
  -28.0604  -24.8152   19.7048 C   0  0  2  0  0  0
  -29.4355  -19.8957   20.8004 N   0  0  0  0  0  0
  -29.5502  -17.8753   17.7136 N   0  0  0  0  0  0
  -28.6104  -22.3253   20.4030 N   0  0  0  0  0  0
  -29.8762  -15.9938   20.4580 N   0  0  0  0  0  0
  -31.1894  -17.4536   21.6104 O   0  0  0  0  0  0
  -30.2808  -23.8569   20.1546 O   0  0  0  0  0  0
  -29.0390  -20.4499   18.3269 S   0  0  0  0  0  0
  -31.4730  -12.6429   19.1546 H   0  0  0  0  0  0
  -30.4014  -11.5426   19.9809 H   0  0  0  0  0  0
  -29.8031  -11.7133   17.5398 H   0  0  0  0  0  0
  -29.6257  -13.4454   17.6895 H   0  0  0  0  0  0
  -27.9048  -11.2776   18.9296 H   0  0  0  0  0  0
  -27.3777  -12.4962   17.7990 H   0  0  0  0  0  0
  -27.6115  -14.2489   19.4337 H   0  0  0  0  0  0
  -28.7477  -12.2359   21.4300 H   0  0  0  0  0  0
  -28.4208  -13.9243   21.7558 H   0  0  0  0  0  0
  -25.2776   -9.5682   22.4757 H   0  0  0  0  0  0
  -24.0013   -7.4633   22.7459 H   0  0  0  0  0  0
  -21.0857   -8.8782   19.8932 H   0  0  0  0  0  0
  -22.3716  -10.9678   19.6158 H   0  0  0  0  0  0
  -21.2003   -7.6143   23.9705 H   0  0  0  0  0  0
  -21.1486   -6.0509   25.9067 H   0  0  0  0  0  0
  -22.0605   -2.7607   23.2820 H   0  0  0  0  0  0
  -22.4093  -11.9849   22.4819 H   0  0  0  0  0  0
  -21.1081  -13.1198   22.2621 H   0  0  0  0  0  0
  -24.6548  -15.8504   20.5269 H   0  0  0  0  0  0
  -26.2604  -15.6302   20.0602 H   0  0  0  0  0  0
  -26.7268  -32.5349   23.1068 H   0  0  0  0  0  0
  -25.0112  -33.9665   25.0381 H   0  0  0  0  0  0
  -22.7396  -31.3029   21.3982 H   0  0  0  0  0  0
  -23.3751  -35.9592   23.3296 H   0  0  0  0  0  0
  -24.3572  -36.8904   22.2058 H   0  0  0  0  0  0
  -23.7240  -37.6469   23.6670 H   0  0  0  0  0  0
  -26.1400  -31.5060   20.6173 H   0  0  0  0  0  0
  -26.8665  -30.7877   22.0228 H   0  0  0  0  0  0
  -28.1309  -28.8580   21.1962 H   0  0  0  0  0  0
  -25.8370  -25.8845   19.0341 H   0  0  0  0  0  0
  -23.9408  -27.3147   19.0253 H   0  0  0  0  0  0
  -23.7805  -30.5898   19.4054 H   0  0  0  0  0  0
  -22.7699  -29.2504   19.8568 H   0  0  0  0  0  0
  -25.1304  -36.1894   25.0810 H   0  0  0  0  0  0
  -20.9992  -28.3298   24.1373 H   0  0  0  0  0  0
  -20.5713  -26.2326   23.3605 H   0  0  0  0  0  0
  -21.6659  -26.7467   22.1175 H   0  0  0  0  0  0
  -19.6925  -25.6297   21.1261 H   0  0  0  0  0  0
  -19.6699  -27.3188   20.6731 H   0  0  0  0  0  0
  -17.4210  -26.6681   21.4035 H   0  0  0  0  0  0
  -18.0347  -26.0083   22.9031 H   0  0  0  0  0  0
  -19.7942  -30.7312   24.2222 H   0  0  0  0  0  0
  -17.5015  -31.6275   24.5167 H   0  0  0  0  0  0
  -15.5356  -30.2976   23.7694 H   0  0  0  0  0  0
  -15.8684  -28.0824   22.7085 H   0  0  0  0  0  0
  -24.5889  -30.7115   25.7768 H   0  0  0  0  0  0
  -24.8903  -32.2946   26.4829 H   0  0  0  0  0  0
  -25.8002  -30.8970   27.0256 H   0  0  0  0  0  0
  -26.2997  -29.6726   24.1284 H   0  0  0  0  0  0
  -27.3967  -29.7271   25.4883 H   0  0  0  0  0  0
  -27.8916  -30.4224   23.9637 H   0  0  0  0  0  0
  -27.2638  -33.3659   26.2059 H   0  0  0  0  0  0
  -28.3879  -32.6905   25.0367 H   0  0  0  0  0  0
  -28.0701  -31.8515   26.5485 H   0  0  0  0  0  0
  -28.2590  -38.0087   24.7510 H   0  0  0  0  0  0
  -28.1073  -36.2626   24.6292 H   0  0  0  0  0  0
  -27.2290  -37.1436   25.8867 H   0  0  0  0  0  0
  -20.9440  -29.8750   21.6813 H   0  0  0  0  0  0
  -26.0162  -38.2832   24.1407 H   0  0  0  0  0  0
  -27.7813  -23.8910   17.7383 H   0  0  0  0  0  0
  -29.1381  -25.0081   17.8117 H   0  0  0  0  0  0
  -27.5122  -25.6209   17.7065 H   0  0  0  0  0  0
  -27.0793  -24.4895   20.0500 H   0  0  0  0  0  0
  -29.9232  -16.9335   17.7883 H   0  0  0  0  0  0
  -29.4499  -18.1624   16.7429 H   0  0  0  0  0  0
  -27.6123  -22.3172   20.5510 H   0  0  0  0  0  0
  -28.9378  -15.9234   20.1054 H   0  0  0  0  0  0
  1 25  1  0  0  0
  1 30  2  0  0  0
  1 81  1  0  0  0
  2  3  1  0  0  0
  2 25  1  0  0  0
  2 85  1  0  0  0
  2 86  1  0  0  0
  3  4  1  0  0  0
  3 87  1  0  0  0
  3 88  1  0  0  0
  4  5  1  0  0  0
  4 89  1  0  0  0
  4 90  1  0  0  0
  5  6  1  0  0  0
  5 26  1  0  0  0
  5 91  1  0  0  0
  6 25  1  0  0  0
  6 92  1  0  0  0
  6 93  1  0  0  0
  7  8  2  0  0  0
  7 26  1  0  0  0
  7 29  1  0  0  0
  8  9  1  0  0  0
  8 22  1  0  0  0
  9 10  1  0  0  0
  9 27  2  0  0  0
 10 11  2  0  0  0
 10 15  1  0  0  0
 11 12  1  0  0  0
 11 94  1  0  0  0
 12 13  2  0  0  0
 12 95  1  0  0  0
 13 14  1  0  0  0
 13 31  1  0  0  0
 14 15  2  0  0  0
 14 96  1  0  0  0
 15 97  1  0  0  0
 16 17  2  0  0  0
 16 21  1  0  0  0
 16 31  1  0  0  0
 17 18  1  0  0  0
 17 98  1  0  0  0
 18 19  2  0  0  0
 18 99  1  0  0  0
 19 20  1  0  0  0
 19 24  1  0  0  0
 20 21  2  0  0  0
 20100  1  0  0  0
 21 23  1  0  0  0
 22 28  1  0  0  0
 22 32  2  0  0  0
 26 27  1  0  0  0
 28101  1  0  0  0
 28102  1  0  0  0
 29103  1  0  0  0
 29104  1  0  0  0
 33 34  1  0  0  0
 33 66  1  0  0  0
 33 70  2  0  0  0
 34 36  1  0  0  0
 34 59  1  0  0  0
 34105  1  0  0  0
 35 44  2  0  0  0
 35 45  1  0  0  0
 35 68  1  0  0  0
 36 56  1  0  0  0
 36106  1  0  0  0
 37 39  1  0  0  0
 37 47  1  0  0  0
 37 66  1  0  0  0
 37107  1  0  0  0
 38 43  2  0  0  0
 38 46  1  0  0  0
 38 47  1  0  0  0
 39 64  1  0  0  0
 39 67  2  0  0  0
 40 52  1  0  0  0
 40 53  2  0  0  0
 40 58  1  0  0  0
 41108  1  0  0  0
 41109  1  0  0  0
 41110  1  0  0  0
 41 48  1  0  0  0
 42 43  1  0  0  0
 42 66  1  0  0  0
 42111  1  0  0  0
 42112  1  0  0  0
 43 44  1  0  0  0
 44113  1  0  0  0
 45 46  2  0  0  0
 45114  1  0  0  0
 46115  1  0  0  0
 47116  1  0  0  0
 47117  1  0  0  0
 48 56  1  0  0  0
 48 65  1  0  0  0
 48118  1  0  0  0
 49 50  1  0  0  0
 49 53  1  0  0  0
 49 64  1  0  0  0
 49119  1  0  0  0
 50 51  1  0  0  0
 50120  1  0  0  0
 50121  1  0  0  0
 51 52  1  0  0  0
 51122  1  0  0  0
 51123  1  0  0  0
 52124  1  0  0  0
 52125  1  0  0  0
 53 54  1  0  0  0
 54 55  2  0  0  0
 54126  1  0  0  0
 55 57  1  0  0  0
 55127  1  0  0  0
 56 69  2  0  0  0
 57 58  2  0  0  0
 57128  1  0  0  0
 58129  1  0  0  0
 59 60  1  0  0  0
 59 61  1  0  0  0
 59 62  1  0  0  0
 60130  1  0  0  0
 60131  1  0  0  0
 60132  1  0  0  0
 61133  1  0  0  0
 61134  1  0  0  0
 61135  1  0  0  0
 62136  1  0  0  0
 62137  1  0  0  0
 62138  1  0  0  0
 63 65  1  0  0  0
 63139  1  0  0  0
 63140  1  0  0  0
 63141  1  0  0  0
 64142  1  0  0  0
 65143  1  0  0  0
 68 77  1  0  0  0
 71 72  2  0  0  0
 71 74  1  0  0  0
 71 78  1  0  0  0
 72 79  1  0  0  0
 72 84  1  0  0  0
 73 78  2  0  0  0
 73 80  1  0  0  0
 73 84  1  0  0  0
 74 81  1  0  0  0
 74 82  2  0  0  0
 75 77  1  0  0  0
 75 80  1  0  0  0
 75 83  2  0  0  0
 76144  1  0  0  0
 76145  1  0  0  0
 76146  1  0  0  0
 76 77  1  0  0  0
 77147  1  0  0  0
 79148  1  0  0  0
 79149  1  0  0  0
 80150  1  0  0  0
 81151  1  0  0  0
M  ISO  4   1 100  68 101  77 101  81 100
M  END
> <chiral flag>
0

> <version>
0

> <s_m_source_file>
/data/baiqing/PycharmProjects/Reinvent-master-3.2/result/LINK_invent/BTK/process_docking_weight1_custom_product_contain_oxygen_bond_distance_aromatic_linkinvent_7_9_3/rearranged_h_0185.sdf

> <i_m_source_file_index>
52

> <r_mmod_Potential_Energy-OPLS-2005>
290.439788818359

> <r_mmod_Stretch_Energy-OPLS-2005>
156.256240844727

> <r_mmod_Bend_Energy-OPLS-2005>
198.322875976562

> <r_mmod_Torsional_Energy-OPLS-2005>
298.385864257812

> <r_mmod_Improper_Torsional_Energy-OPLS-2005>
12.5217885971069

> <r_mmod_Van_der_Waal_Energy-OPLS-2005>
121.872337341309

> <r_mmod_Electrostatic_Energy-OPLS-2005>
-340.180389404297

> <r_mmod_Solvation_Energy-OPLS-2005>
-280.698089599609

> <b_mmod_Minimization_Converged-OPLS-2005>
0

> <r_mmod_RMS_Derivative-OPLS-2005>
1.49921035766602

$$$$
52
                    3D
 Structure written by MMmdl.
163171  0  0  1  0            999 V2000
  -30.6910  -14.5768   20.4752 C   0  0  0  0  0  0
  -30.4157  -12.3495   19.4570 C   0  0  0  0  0  0
  -29.5018  -12.5004   18.2223 C   0  0  0  0  0  0
  -28.0239  -12.3558   18.6315 C   0  0  0  0  0  0
  -27.6517  -13.2263   19.8618 C   0  0  2  0  0  0
  -28.6946  -13.0989   20.9964 C   0  0  0  0  0  0
  -25.2524  -13.8173   20.5702 C   0  0  0  0  0  0
  -24.1789  -13.0427   20.9179 C   0  0  0  0  0  0
  -24.6373  -11.6895   20.8704 C   0  0  0  0  0  0
  -23.9024  -10.4284   21.0368 C   0  0  0  0  0  0
  -24.3567   -9.4204   21.9154 C   0  0  0  0  0  0
  -23.6258   -8.2231   22.0735 C   0  0  0  0  0  0
  -22.4250   -8.0244   21.3531 C   0  0  0  0  0  0
  -21.9878   -9.0212   20.4650 C   0  0  0  0  0  0
  -22.7181  -10.2111   20.3034 C   0  0  0  0  0  0
  -21.6862   -6.0694   22.5273 C   0  0  0  0  0  0
  -21.4015   -6.5607   23.8194 C   0  0  0  0  0  0
  -21.3681   -5.6769   24.9159 C   0  0  0  0  0  0
  -21.6053   -4.3032   24.7229 C   0  0  0  0  0  0
  -21.8814   -3.8118   23.4347 C   0  0  0  0  0  0
  -21.9203   -4.6922   22.3400 C   0  0  0  0  0  0
  -22.7819  -13.5228   21.1876 C   0  0  0  0  0  0
  -22.1668   -4.2091   21.0977 F   0  0  0  0  0  0
  -21.5650   -3.4526   25.7758 F   0  0  0  0  0  0
  -30.0189  -13.3876   20.4273 N   0  0  0  0  0  0
  -26.2968  -12.9385   20.3309 N   0  0  0  0  0  0
  -25.9305  -11.6525   20.5704 N   0  0  0  0  0  0
  -22.0455  -12.8238   22.0429 N   0  0  0  0  0  0
  -25.4242  -15.1879   20.4124 N   0  0  0  0  0  0
  -31.8761  -14.6454   20.1406 O   0  0  0  0  0  0
  -21.6622   -6.8830   21.4232 O   0  0  0  0  0  0
  -22.3526  -14.5548   20.6734 O   0  0  0  0  0  0
  -24.6234  -31.8652   23.2076 C   0  0  0  0  0  0
  -25.9106  -32.4798   23.8379 C   0  0  1  0  0  0
  -27.2177  -27.3636   20.0803 C   0  0  0  0  0  0
  -25.5941  -33.8596   24.2308 N   0  0  0  0  0  0
  -23.4114  -30.4924   21.5515 C   0  0  2  0  0  0
  -24.8523  -28.9590   20.1098 C   0  0  0  0  0  0
  -22.7461  -29.4648   22.4981 C   0  0  0  0  0  0
  -18.0279  -28.1388   22.8489 C   0  0  0  0  0  0
  -24.1494  -36.7299   23.2637 C   0  0  0  0  0  0
  -25.9511  -30.8063   21.3735 C   0  0  0  0  0  0
  -26.0206  -29.4393   20.7114 C   0  0  0  0  0  0
  -27.2020  -28.6490   20.6964 C   0  0  0  0  0  0
  -26.0138  -26.9223   19.4751 C   0  0  0  0  0  0
  -24.8477  -27.7045   19.4896 C   0  0  0  0  0  0
  -23.6205  -29.8344   20.1636 C   0  0  0  0  0  0
  -25.4115  -36.3087   24.0328 C   0  0  1  0  0  0
  -20.5879  -28.3674   23.1312 C   0  0  2  0  0  0
  -20.6776  -26.9415   22.5410 C   0  0  0  0  0  0
  -19.5746  -26.6394   21.5215 C   0  0  0  0  0  0
  -18.1927  -26.7933   22.1626 C   0  0  0  0  0  0
  -19.1534  -28.8849   23.2887 C   0  0  0  0  0  0
  -18.9459  -30.1453   23.8894 C   0  0  0  0  0  0
  -17.6460  -30.6587   24.0566 C   0  0  0  0  0  0
  -25.9050  -34.9457   23.5107 C   0  0  0  0  0  0
  -16.5344  -29.9086   23.6329 C   0  0  0  0  0  0
  -16.7269  -28.6506   23.0344 C   0  0  0  0  0  0
  -26.4494  -31.6591   25.0735 C   0  0  0  0  0  0
  -25.3737  -31.3742   26.1470 C   0  0  0  0  0  0
  -27.0315  -30.3008   24.6174 C   0  0  0  0  0  0
  -27.6056  -32.4327   25.7506 C   0  0  0  0  0  0
  -27.5588  -37.1800   24.8461 C   0  0  0  0  0  0
  -21.4186  -29.3042   22.3729 N   0  0  0  0  0  0
  -26.4294  -37.3784   23.9415 N   0  0  0  0  0  0
  -24.6803  -31.0706   22.1001 N   0  0  0  0  0  0
  -23.4220  -28.8189   23.3028 O   0  0  0  0  0  0
  -28.3649  -26.5671   20.1250 O   0  0  0  0  0  0
  -26.5607  -34.8921   22.4669 O   0  0  0  0  0  0
  -23.5408  -32.1443   23.7423 O   0  0  0  0  0  0
  -29.9527  -19.2849   19.6655 C   0  0  0  0  0  0
  -30.7629  -18.8983   18.6026 C   0  0  0  0  0  0
  -30.2055  -16.9953   20.0938 C   0  0  0  0  0  0
  -29.3825  -20.7049   19.8600 C   0  0  0  0  0  0
  -29.1792  -24.1313   19.9369 C   0  0  0  0  0  0
  -30.6164  -22.6386   15.9076 C   0  0  0  0  0  0
  -32.1863  -24.0360   19.2272 C   0  0  0  0  0  0
  -28.4469  -25.3590   19.3008 C   0  0  0  0  0  0
  -31.6164  -22.9453   17.0330 C   0  0  0  0  0  0
  -29.7818  -23.0922   18.9115 C   0  0  1  0  0  0
  -31.0439  -23.7329   18.2339 C   0  0  1  0  0  0
  -29.6124  -18.1538   20.4747 N   0  0  0  0  0  0
  -31.2349  -19.6078   17.5005 N   0  0  0  0  0  0
  -29.9702  -15.7081   20.7180 N   0  0  0  0  0  0
  -30.1481  -21.7211   19.3922 N   0  0  0  0  0  0
  -28.2785  -20.9037   20.3754 O   0  0  0  0  0  0
  -29.2674  -24.0101   21.1628 O   0  0  0  0  0  0
  -31.2083  -17.2157   18.6651 S   0  0  0  0  0  0
  -31.4629  -12.4288   19.1590 H   0  0  0  0  0  0
  -30.3063  -11.3557   19.8961 H   0  0  0  0  0  0
  -29.7568  -11.7559   17.4680 H   0  0  0  0  0  0
  -29.6634  -13.4738   17.7551 H   0  0  0  0  0  0
  -27.8454  -11.3032   18.8533 H   0  0  0  0  0  0
  -27.3734  -12.6046   17.7931 H   0  0  0  0  0  0
  -27.6678  -14.2598   19.5174 H   0  0  0  0  0  0
  -28.6815  -12.0946   21.4217 H   0  0  0  0  0  0
  -28.4514  -13.7792   21.8157 H   0  0  0  0  0  0
  -25.2694   -9.5710   22.4745 H   0  0  0  0  0  0
  -23.9976   -7.4624   22.7444 H   0  0  0  0  0  0
  -21.0811   -8.8718   19.8953 H   0  0  0  0  0  0
  -22.3602  -10.9627   19.6155 H   0  0  0  0  0  0
  -21.1989   -7.6127   23.9678 H   0  0  0  0  0  0
  -21.1527   -6.0503   25.9061 H   0  0  0  0  0  0
  -22.0591   -2.7578   23.2850 H   0  0  0  0  0  0
  -22.4061  -11.9909   22.4850 H   0  0  0  0  0  0
  -21.1062  -13.1257   22.2607 H   0  0  0  0  0  0
  -24.6517  -15.8382   20.5081 H   0  0  0  0  0  0
  -26.2714  -15.6269   20.0760 H   0  0  0  0  0  0
  -26.7178  -32.5466   23.1131 H   0  0  0  0  0  0
  -25.0100  -33.9744   25.0460 H   0  0  0  0  0  0
  -22.6999  -31.3104   21.4169 H   0  0  0  0  0  0
  -23.3741  -35.9646   23.3304 H   0  0  0  0  0  0
  -24.3595  -36.8907   22.2053 H   0  0  0  0  0  0
  -23.7261  -37.6512   23.6646 H   0  0  0  0  0  0
  -26.0849  -31.5748   20.6110 H   0  0  0  0  0  0
  -26.8314  -30.8469   22.0029 H   0  0  0  0  0  0
  -28.1005  -29.0191   21.1700 H   0  0  0  0  0  0
  -25.8984  -25.9663   18.9951 H   0  0  0  0  0  0
  -23.9458  -27.3311   19.0250 H   0  0  0  0  0  0
  -23.7368  -30.6143   19.4093 H   0  0  0  0  0  0
  -22.7405  -29.2619   19.8636 H   0  0  0  0  0  0
  -25.1292  -36.1937   25.0817 H   0  0  0  0  0  0
  -20.9949  -28.3234   24.1441 H   0  0  0  0  0  0
  -20.5694  -26.2289   23.3600 H   0  0  0  0  0  0
  -21.6639  -26.7477   22.1198 H   0  0  0  0  0  0
  -19.6908  -25.6304   21.1245 H   0  0  0  0  0  0
  -19.6673  -27.3207   20.6743 H   0  0  0  0  0  0
  -17.4202  -26.6680   21.4018 H   0  0  0  0  0  0
  -18.0321  -26.0079   22.9028 H   0  0  0  0  0  0
  -19.7928  -30.7275   24.2261 H   0  0  0  0  0  0
  -17.5006  -31.6259   24.5181 H   0  0  0  0  0  0
  -15.5343  -30.2981   23.7645 H   0  0  0  0  0  0
  -15.8672  -28.0818   22.7050 H   0  0  0  0  0  0
  -24.5891  -30.7110   25.7814 H   0  0  0  0  0  0
  -24.8948  -32.2914   26.4906 H   0  0  0  0  0  0
  -25.8063  -30.8914   27.0243 H   0  0  0  0  0  0
  -26.2873  -29.6781   24.1190 H   0  0  0  0  0  0
  -27.3999  -29.7243   25.4673 H   0  0  0  0  0  0
  -27.8761  -30.4278   23.9398 H   0  0  0  0  0  0
  -27.2652  -33.3619   26.2095 H   0  0  0  0  0  0
  -28.3857  -32.6909   25.0330 H   0  0  0  0  0  0
  -28.0741  -31.8453   26.5417 H   0  0  0  0  0  0
  -28.2589  -38.0112   24.7519 H   0  0  0  0  0  0
  -28.1093  -36.2638   24.6256 H   0  0  0  0  0  0
  -27.2313  -37.1429   25.8866 H   0  0  0  0  0  0
  -20.9371  -29.8765   21.6941 H   0  0  0  0  0  0
  -26.0165  -38.2862   24.1396 H   0  0  0  0  0  0
  -31.1210  -22.1317   15.0839 H   0  0  0  0  0  0
  -30.1734  -23.5508   15.5058 H   0  0  0  0  0  0
  -29.8088  -21.9833   16.2344 H   0  0  0  0  0  0
  -33.0656  -24.4283   18.7131 H   0  0  0  0  0  0
  -32.5011  -23.1405   19.7635 H   0  0  0  0  0  0
  -31.9008  -24.7852   19.9678 H   0  0  0  0  0  0
  -27.4922  -24.9474   19.0041 H   0  0  0  0  0  0
  -28.9403  -25.6409   18.3734 H   0  0  0  0  0  0
  -32.4285  -23.5290   16.5933 H   0  0  0  0  0  0
  -32.0918  -22.0324   17.3835 H   0  0  0  0  0  0
  -29.0149  -22.9460   18.1521 H   0  0  0  0  0  0
  -30.7487  -24.6947   17.8155 H   0  0  0  0  0  0
  -30.7173  -20.3897   17.1132 H   0  0  0  0  0  0
  -31.7185  -19.0995   16.7666 H   0  0  0  0  0  0
  -29.0788  -15.5942   21.1705 H   0  0  0  0  0  0
  -31.0408  -21.3910   19.0480 H   0  0  0  0  0  0
  1 25  1  0  0  0
  1 30  2  0  0  0
  1 84  1  0  0  0
  2  3  1  0  0  0
  2 25  1  0  0  0
  2 89  1  0  0  0
  2 90  1  0  0  0
  3  4  1  0  0  0
  3 91  1  0  0  0
  3 92  1  0  0  0
  4  5  1  0  0  0
  4 93  1  0  0  0
  4 94  1  0  0  0
  5  6  1  0  0  0
  5 26  1  0  0  0
  5 95  1  0  0  0
  6 25  1  0  0  0
  6 96  1  0  0  0
  6 97  1  0  0  0
  7  8  2  0  0  0
  7 26  1  0  0  0
  7 29  1  0  0  0
  8  9  1  0  0  0
  8 22  1  0  0  0
  9 10  1  0  0  0
  9 27  2  0  0  0
 10 11  2  0  0  0
 10 15  1  0  0  0
 11 12  1  0  0  0
 11 98  1  0  0  0
 12 13  2  0  0  0
 12 99  1  0  0  0
 13 14  1  0  0  0
 13 31  1  0  0  0
 14 15  2  0  0  0
 14100  1  0  0  0
 15101  1  0  0  0
 16 17  2  0  0  0
 16 21  1  0  0  0
 16 31  1  0  0  0
 17 18  1  0  0  0
 17102  1  0  0  0
 18 19  2  0  0  0
 18103  1  0  0  0
 19 20  1  0  0  0
 19 24  1  0  0  0
 20 21  2  0  0  0
 20104  1  0  0  0
 21 23  1  0  0  0
 22 28  1  0  0  0
 22 32  2  0  0  0
 26 27  1  0  0  0
 28105  1  0  0  0
 28106  1  0  0  0
 29107  1  0  0  0
 29108  1  0  0  0
 33 34  1  0  0  0
 33 66  1  0  0  0
 33 70  2  0  0  0
 34 36  1  0  0  0
 34 59  1  0  0  0
 34109  1  0  0  0
 35 44  2  0  0  0
 35 45  1  0  0  0
 35 68  1  0  0  0
 36 56  1  0  0  0
 36110  1  0  0  0
 37 39  1  0  0  0
 37 47  1  0  0  0
 37 66  1  0  0  0
 37111  1  0  0  0
 38 43  2  0  0  0
 38 46  1  0  0  0
 38 47  1  0  0  0
 39 64  1  0  0  0
 39 67  2  0  0  0
 40 52  1  0  0  0
 40 53  2  0  0  0
 40 58  1  0  0  0
 41112  1  0  0  0
 41113  1  0  0  0
 41114  1  0  0  0
 41 48  1  0  0  0
 42 43  1  0  0  0
 42 66  1  0  0  0
 42115  1  0  0  0
 42116  1  0  0  0
 43 44  1  0  0  0
 44117  1  0  0  0
 45 46  2  0  0  0
 45118  1  0  0  0
 46119  1  0  0  0
 47120  1  0  0  0
 47121  1  0  0  0
 48 56  1  0  0  0
 48 65  1  0  0  0
 48122  1  0  0  0
 49 50  1  0  0  0
 49 53  1  0  0  0
 49 64  1  0  0  0
 49123  1  0  0  0
 50 51  1  0  0  0
 50124  1  0  0  0
 50125  1  0  0  0
 51 52  1  0  0  0
 51126  1  0  0  0
 51127  1  0  0  0
 52128  1  0  0  0
 52129  1  0  0  0
 53 54  1  0  0  0
 54 55  2  0  0  0
 54130  1  0  0  0
 55 57  1  0  0  0
 55131  1  0  0  0
 56 69  2  0  0  0
 57 58  2  0  0  0
 57132  1  0  0  0
 58133  1  0  0  0
 59 60  1  0  0  0
 59 61  1  0  0  0
 59 62  1  0  0  0
 60134  1  0  0  0
 60135  1  0  0  0
 60136  1  0  0  0
 61137  1  0  0  0
 61138  1  0  0  0
 61139  1  0  0  0
 62140  1  0  0  0
 62141  1  0  0  0
 62142  1  0  0  0
 63 65  1  0  0  0
 63143  1  0  0  0
 63144  1  0  0  0
 63145  1  0  0  0
 64146  1  0  0  0
 65147  1  0  0  0
 68 78  1  0  0  0
 71 72  2  0  0  0
 71 74  1  0  0  0
 71 82  1  0  0  0
 72 83  1  0  0  0
 72 88  1  0  0  0
 73 82  2  0  0  0
 73 84  1  0  0  0
 73 88  1  0  0  0
 74 85  1  0  0  0
 74 86  2  0  0  0
 75 78  1  0  0  0
 75 80  1  0  0  0
 75 87  2  0  0  0
 76 79  1  0  0  0
 76148  1  0  0  0
 76149  1  0  0  0
 76150  1  0  0  0
 77151  1  0  0  0
 77152  1  0  0  0
 77153  1  0  0  0
 77 81  1  0  0  0
 78154  1  0  0  0
 78155  1  0  0  0
 79 81  1  0  0  0
 79156  1  0  0  0
 79157  1  0  0  0
 80 81  1  0  0  0
 80 85  1  0  0  0
 80158  1  0  0  0
 81159  1  0  0  0
 83160  1  0  0  0
 83161  1  0  0  0
 84162  1  0  0  0
 85163  1  0  0  0
M  ISO  4   1 100  68 101  78 101  84 100
M  END
> <chiral flag>
0

> <version>
0

> <s_m_source_file>
/data/baiqing/PycharmProjects/Reinvent-master-3.2/result/LINK_invent/BTK/process_docking_weight1_custom_product_contain_oxygen_bond_distance_aromatic_linkinvent_7_9_3/rearranged_h_0185.sdf

> <i_m_source_file_index>
53

> <r_mmod_Potential_Energy-OPLS-2005>
108.956909179688

> <r_mmod_Stretch_Energy-OPLS-2005>
66.3184814453125

> <r_mmod_Bend_Energy-OPLS-2005>
141.732879638672

> <r_mmod_Torsional_Energy-OPLS-2005>
273.205932617188

> <r_mmod_Improper_Torsional_Energy-OPLS-2005>
9.71004962921143

> <r_mmod_Van_der_Waal_Energy-OPLS-2005>
134.714508056641

> <r_mmod_Electrostatic_Energy-OPLS-2005>
-289.406402587891

> <r_mmod_Solvation_Energy-OPLS-2005>
-261.993408203125

> <b_mmod_Minimization_Converged-OPLS-2005>
0

> <r_mmod_RMS_Derivative-OPLS-2005>
3.00884366035461

$$$$
53
                    3D
 Structure written by MMmdl.
153161  0  0  1  0            999 V2000
  -30.6551  -14.6234   20.4287 C   0  0  0  0  0  0
  -30.4351  -12.3662   19.4453 C   0  0  0  0  0  0
  -29.5013  -12.4842   18.2186 C   0  0  0  0  0  0
  -28.0249  -12.3392   18.6370 C   0  0  0  0  0  0
  -27.6524  -13.2017   19.8716 C   0  0  2  0  0  0
  -28.7133  -13.0861   20.9928 C   0  0  0  0  0  0
  -25.2575  -13.8102   20.5701 C   0  0  0  0  0  0
  -24.1836  -13.0399   20.9215 C   0  0  0  0  0  0
  -24.6396  -11.6866   20.8799 C   0  0  0  0  0  0
  -23.9064  -10.4275   21.0441 C   0  0  0  0  0  0
  -24.3610   -9.4181   21.9192 C   0  0  0  0  0  0
  -23.6282   -8.2214   22.0753 C   0  0  0  0  0  0
  -22.4239   -8.0271   21.3549 C   0  0  0  0  0  0
  -21.9897   -9.0252   20.4645 C   0  0  0  0  0  0
  -22.7237  -10.2132   20.3083 C   0  0  0  0  0  0
  -21.6855   -6.0712   22.5273 C   0  0  0  0  0  0
  -21.4001   -6.5621   23.8197 C   0  0  0  0  0  0
  -21.3667   -5.6786   24.9162 C   0  0  0  0  0  0
  -21.6067   -4.3049   24.7212 C   0  0  0  0  0  0
  -21.8827   -3.8134   23.4340 C   0  0  0  0  0  0
  -21.9186   -4.6937   22.3395 C   0  0  0  0  0  0
  -22.7871  -13.5211   21.1829 C   0  0  0  0  0  0
  -22.1651   -4.2137   21.0963 F   0  0  0  0  0  0
  -21.5645   -3.4534   25.7722 F   0  0  0  0  0  0
  -30.0274  -13.4057   20.4113 N   0  0  0  0  0  0
  -26.3005  -12.9252   20.3448 N   0  0  0  0  0  0
  -25.9326  -11.6426   20.5861 N   0  0  0  0  0  0
  -22.0470  -12.8265   22.0400 N   0  0  0  0  0  0
  -25.4282  -15.1801   20.3976 N   0  0  0  0  0  0
  -31.8241  -14.7518   20.0541 O   0  0  0  0  0  0
  -21.6623   -6.8863   21.4238 O   0  0  0  0  0  0
  -22.3578  -14.5496   20.6624 O   0  0  0  0  0  0
  -24.6198  -31.8611   23.2026 C   0  0  0  0  0  0
  -25.9050  -32.4803   23.8380 C   0  0  1  0  0  0
  -27.2553  -27.3753   20.1035 C   0  0  0  0  0  0
  -25.5852  -33.8597   24.2269 N   0  0  0  0  0  0
  -23.4148  -30.4802   21.5405 C   0  0  2  0  0  0
  -24.8683  -28.9356   20.1126 C   0  0  0  0  0  0
  -22.7469  -29.4612   22.4913 C   0  0  0  0  0  0
  -18.0283  -28.1380   22.8486 C   0  0  0  0  0  0
  -24.1474  -36.7314   23.2644 C   0  0  0  0  0  0
  -25.9509  -30.8053   21.3733 C   0  0  0  0  0  0
  -26.0288  -29.4368   20.7139 C   0  0  0  0  0  0
  -27.2226  -28.6670   20.7017 C   0  0  0  0  0  0
  -26.0691  -26.9018   19.5012 C   0  0  0  0  0  0
  -24.8877  -27.6678   19.5031 C   0  0  0  0  0  0
  -23.6312  -29.8068   20.1590 C   0  0  0  0  0  0
  -25.4096  -36.3097   24.0337 C   0  0  1  0  0  0
  -20.5892  -28.3664   23.1286 C   0  0  2  0  0  0
  -20.6745  -26.9383   22.5413 C   0  0  0  0  0  0
  -19.5728  -26.6366   21.5199 C   0  0  0  0  0  0
  -18.1910  -26.7925   22.1623 C   0  0  0  0  0  0
  -19.1545  -28.8837   23.2881 C   0  0  0  0  0  0
  -18.9470  -30.1442   23.8897 C   0  0  0  0  0  0
  -17.6467  -30.6575   24.0560 C   0  0  0  0  0  0
  -25.9040  -34.9481   23.5135 C   0  0  0  0  0  0
  -16.5348  -29.9083   23.6333 C   0  0  0  0  0  0
  -16.7275  -28.6509   23.0339 C   0  0  0  0  0  0
  -26.4425  -31.6635   25.0767 C   0  0  0  0  0  0
  -25.3665  -31.3797   26.1509 C   0  0  0  0  0  0
  -27.0282  -30.3069   24.6231 C   0  0  0  0  0  0
  -27.5986  -32.4388   25.7521 C   0  0  0  0  0  0
  -27.5593  -37.1789   24.8439 C   0  0  0  0  0  0
  -21.4184  -29.3027   22.3699 N   0  0  0  0  0  0
  -26.4264  -37.3799   23.9438 N   0  0  0  0  0  0
  -24.6798  -31.0682   22.0953 N   0  0  0  0  0  0
  -23.4216  -28.8166   23.2992 O   0  0  0  0  0  0
  -28.4273  -26.6188   20.1288 O   0  0  0  0  0  0
  -26.5632  -34.8935   22.4714 O   0  0  0  0  0  0
  -23.5381  -32.1360   23.7398 O   0  0  0  0  0  0
  -28.7156  -18.0232   18.0979 C   0  0  0  0  0  0
  -29.0715  -16.8369   18.7541 C   0  0  0  0  0  0
  -29.7336  -16.9382   19.9953 C   0  0  0  0  0  0
  -29.6125  -19.2918   19.7761 C   0  0  0  0  0  0
  -29.3390  -21.7796   20.0160 C   0  0  0  0  0  0
  -30.1869  -23.0835   20.1359 C   0  0  0  0  0  0
  -28.4094  -25.1823   19.8633 C   0  0  0  0  0  0
  -29.5763  -24.4607   20.6295 C   0  0  1  0  0  0
  -28.9871  -19.2339   18.6089 N   0  0  0  0  0  0
  -30.0036  -18.2016   20.4813 N   0  0  0  0  0  0
  -29.8888  -15.7051   20.7496 N   0  0  0  0  0  0
  -29.9633  -20.5739   20.2072 N   0  0  0  0  0  0
  -28.1346  -21.8834   19.7578 O   0  0  0  0  0  0
  -29.2076  -24.3553   21.9923 O   0  0  0  0  0  0
  -28.7628  -15.6490   18.1925 F   0  0  0  0  0  0
  -31.4761  -12.4719   19.1323 H   0  0  0  0  0  0
  -30.3508  -11.3770   19.8986 H   0  0  0  0  0  0
  -29.7582  -11.7264   17.4777 H   0  0  0  0  0  0
  -29.6522  -13.4459   17.7291 H   0  0  0  0  0  0
  -27.8537  -11.2863   18.8598 H   0  0  0  0  0  0
  -27.3687  -12.5842   17.7998 H   0  0  0  0  0  0
  -27.6512  -14.2325   19.5464 H   0  0  0  0  0  0
  -28.7307  -12.0770   21.4059 H   0  0  0  0  0  0
  -28.4741  -13.7483   21.8270 H   0  0  0  0  0  0
  -25.2765   -9.5641   22.4754 H   0  0  0  0  0  0
  -24.0004   -7.4597   22.7470 H   0  0  0  0  0  0
  -21.0821   -8.8770   19.8951 H   0  0  0  0  0  0
  -22.3691  -10.9673   19.6190 H   0  0  0  0  0  0
  -21.1987   -7.6125   23.9701 H   0  0  0  0  0  0
  -21.1489   -6.0505   25.9077 H   0  0  0  0  0  0
  -22.0603   -2.7594   23.2831 H   0  0  0  0  0  0
  -22.4050  -11.9954   22.4891 H   0  0  0  0  0  0
  -21.1069  -13.1316   22.2513 H   0  0  0  0  0  0
  -24.6476  -15.8238   20.4648 H   0  0  0  0  0  0
  -26.2451  -15.5958   19.9714 H   0  0  0  0  0  0
  -26.7142  -32.5473   23.1157 H   0  0  0  0  0  0
  -24.9916  -33.9736   25.0354 H   0  0  0  0  0  0
  -22.7091  -31.3009   21.3931 H   0  0  0  0  0  0
  -23.3755  -35.9628   23.3241 H   0  0  0  0  0  0
  -24.3584  -36.8998   22.2076 H   0  0  0  0  0  0
  -23.7186  -37.6483   23.6696 H   0  0  0  0  0  0
  -26.0898  -31.5769   20.6132 H   0  0  0  0  0  0
  -26.8320  -30.8490   22.0055 H   0  0  0  0  0  0
  -28.1177  -29.0520   21.1739 H   0  0  0  0  0  0
  -26.0400  -25.9319   19.0259 H   0  0  0  0  0  0
  -23.9986  -27.2744   19.0326 H   0  0  0  0  0  0
  -23.7484  -30.5752   19.3963 H   0  0  0  0  0  0
  -22.7568  -29.2287   19.8574 H   0  0  0  0  0  0
  -25.1271  -36.1949   25.0823 H   0  0  0  0  0  0
  -20.9978  -28.3205   24.1409 H   0  0  0  0  0  0
  -20.5587  -26.2269   23.3608 H   0  0  0  0  0  0
  -21.6615  -26.7363   22.1234 H   0  0  0  0  0  0
  -19.6867  -25.6272   21.1229 H   0  0  0  0  0  0
  -19.6663  -27.3178   20.6728 H   0  0  0  0  0  0
  -17.4169  -26.6668   21.4031 H   0  0  0  0  0  0
  -18.0316  -26.0059   22.9018 H   0  0  0  0  0  0
  -19.7939  -30.7263   24.2241 H   0  0  0  0  0  0
  -17.5020  -31.6257   24.5170 H   0  0  0  0  0  0
  -15.5352  -30.2992   23.7644 H   0  0  0  0  0  0
  -15.8662  -28.0829   22.7050 H   0  0  0  0  0  0
  -24.5750  -30.7240   25.7833 H   0  0  0  0  0  0
  -24.8958  -32.2997   26.5010 H   0  0  0  0  0  0
  -25.7988  -30.8889   27.0242 H   0  0  0  0  0  0
  -26.2885  -29.6838   24.1177 H   0  0  0  0  0  0
  -27.3890  -29.7302   25.4760 H   0  0  0  0  0  0
  -27.8782  -30.4365   23.9524 H   0  0  0  0  0  0
  -27.2554  -33.3636   26.2167 H   0  0  0  0  0  0
  -28.3741  -32.7047   25.0325 H   0  0  0  0  0  0
  -28.0705  -31.8485   26.5377 H   0  0  0  0  0  0
  -28.2542  -38.0159   24.7619 H   0  0  0  0  0  0
  -28.1165  -36.2713   24.6086 H   0  0  0  0  0  0
  -27.2354  -37.1219   25.8844 H   0  0  0  0  0  0
  -20.9355  -29.8792   21.6942 H   0  0  0  0  0  0
  -26.0157  -38.2861   24.1507 H   0  0  0  0  0  0
  -28.1722  -18.0045   17.1647 H   0  0  0  0  0  0
  -30.6026  -23.2428   19.1413 H   0  0  0  0  0  0
  -31.0487  -22.8639   20.7677 H   0  0  0  0  0  0
  -27.4616  -24.7236   20.1502 H   0  0  0  0  0  0
  -28.5238  -25.0427   18.7877 H   0  0  0  0  0  0
  -30.4187  -25.1580   20.6027 H   0  0  0  0  0  0
  -29.0358  -15.4192   21.1976 H   0  0  0  0  0  0
  -30.8861  -20.6214   20.6061 H   0  0  0  0  0  0
  -28.8089  -25.1870   22.2283 H   0  0  0  0  0  0
  1 25  1  0  0  0
  1 30  2  0  0  0
  1 81  1  0  0  0
  2  3  1  0  0  0
  2 25  1  0  0  0
  2 86  1  0  0  0
  2 87  1  0  0  0
  3  4  1  0  0  0
  3 88  1  0  0  0
  3 89  1  0  0  0
  4  5  1  0  0  0
  4 90  1  0  0  0
  4 91  1  0  0  0
  5  6  1  0  0  0
  5 26  1  0  0  0
  5 92  1  0  0  0
  6 25  1  0  0  0
  6 93  1  0  0  0
  6 94  1  0  0  0
  7  8  2  0  0  0
  7 26  1  0  0  0
  7 29  1  0  0  0
  8  9  1  0  0  0
  8 22  1  0  0  0
  9 10  1  0  0  0
  9 27  2  0  0  0
 10 11  2  0  0  0
 10 15  1  0  0  0
 11 12  1  0  0  0
 11 95  1  0  0  0
 12 13  2  0  0  0
 12 96  1  0  0  0
 13 14  1  0  0  0
 13 31  1  0  0  0
 14 15  2  0  0  0
 14 97  1  0  0  0
 15 98  1  0  0  0
 16 17  2  0  0  0
 16 21  1  0  0  0
 16 31  1  0  0  0
 17 18  1  0  0  0
 17 99  1  0  0  0
 18 19  2  0  0  0
 18100  1  0  0  0
 19 20  1  0  0  0
 19 24  1  0  0  0
 20 21  2  0  0  0
 20101  1  0  0  0
 21 23  1  0  0  0
 22 28  1  0  0  0
 22 32  2  0  0  0
 26 27  1  0  0  0
 28102  1  0  0  0
 28103  1  0  0  0
 29104  1  0  0  0
 29105  1  0  0  0
 33 34  1  0  0  0
 33 66  1  0  0  0
 33 70  2  0  0  0
 34 36  1  0  0  0
 34 59  1  0  0  0
 34106  1  0  0  0
 35 44  2  0  0  0
 35 45  1  0  0  0
 35 68  1  0  0  0
 36 56  1  0  0  0
 36107  1  0  0  0
 37 39  1  0  0  0
 37 47  1  0  0  0
 37 66  1  0  0  0
 37108  1  0  0  0
 38 43  2  0  0  0
 38 46  1  0  0  0
 38 47  1  0  0  0
 39 64  1  0  0  0
 39 67  2  0  0  0
 40 52  1  0  0  0
 40 53  2  0  0  0
 40 58  1  0  0  0
 41109  1  0  0  0
 41110  1  0  0  0
 41111  1  0  0  0
 41 48  1  0  0  0
 42 43  1  0  0  0
 42 66  1  0  0  0
 42112  1  0  0  0
 42113  1  0  0  0
 43 44  1  0  0  0
 44114  1  0  0  0
 45 46  2  0  0  0
 45115  1  0  0  0
 46116  1  0  0  0
 47117  1  0  0  0
 47118  1  0  0  0
 48 56  1  0  0  0
 48 65  1  0  0  0
 48119  1  0  0  0
 49 50  1  0  0  0
 49 53  1  0  0  0
 49 64  1  0  0  0
 49120  1  0  0  0
 50 51  1  0  0  0
 50121  1  0  0  0
 50122  1  0  0  0
 51 52  1  0  0  0
 51123  1  0  0  0
 51124  1  0  0  0
 52125  1  0  0  0
 52126  1  0  0  0
 53 54  1  0  0  0
 54 55  2  0  0  0
 54127  1  0  0  0
 55 57  1  0  0  0
 55128  1  0  0  0
 56 69  2  0  0  0
 57 58  2  0  0  0
 57129  1  0  0  0
 58130  1  0  0  0
 59 60  1  0  0  0
 59 61  1  0  0  0
 59 62  1  0  0  0
 60131  1  0  0  0
 60132  1  0  0  0
 60133  1  0  0  0
 61134  1  0  0  0
 61135  1  0  0  0
 61136  1  0  0  0
 62137  1  0  0  0
 62138  1  0  0  0
 62139  1  0  0  0
 63 65  1  0  0  0
 63140  1  0  0  0
 63141  1  0  0  0
 63142  1  0  0  0
 64143  1  0  0  0
 65144  1  0  0  0
 68 77  1  0  0  0
 71 72  2  0  0  0
 71 79  1  0  0  0
 71145  1  0  0  0
 72 73  1  0  0  0
 72 85  1  0  0  0
 73 80  2  0  0  0
 73 81  1  0  0  0
 74 79  2  0  0  0
 74 80  1  0  0  0
 74 82  1  0  0  0
 75 76  1  0  0  0
 75 82  1  0  0  0
 75 83  2  0  0  0
 76 78  1  0  0  0
 76146  1  0  0  0
 76147  1  0  0  0
 77 78  1  0  0  0
 77148  1  0  0  0
 77149  1  0  0  0
 78 84  1  0  0  0
 78150  1  0  0  0
 81151  1  0  0  0
 82152  1  0  0  0
 84153  1  0  0  0
M  ISO  4   1 100  68 101  77 101  81 100
M  END
> <chiral flag>
0

> <version>
0

> <s_m_source_file>
/data/baiqing/PycharmProjects/Reinvent-master-3.2/result/LINK_invent/BTK/process_docking_weight1_custom_product_contain_oxygen_bond_distance_aromatic_linkinvent_7_9_3/rearranged_h_0185.sdf

> <i_m_source_file_index>
54

> <r_mmod_Potential_Energy-OPLS-2005>
-344.689636230469

> <r_mmod_Stretch_Energy-OPLS-2005>
61.9094505310059

> <r_mmod_Bend_Energy-OPLS-2005>
139.610626220703

> <r_mmod_Torsional_Energy-OPLS-2005>
254.940368652344

> <r_mmod_Improper_Torsional_Energy-OPLS-2005>
8.17293357849121

> <r_mmod_Van_der_Waal_Energy-OPLS-2005>
152.930191040039

> <r_mmod_Electrostatic_Energy-OPLS-2005>
-733.088562011719

> <r_mmod_Solvation_Energy-OPLS-2005>
-266.082824707031

> <b_mmod_Minimization_Converged-OPLS-2005>
0

> <r_mmod_RMS_Derivative-OPLS-2005>
5.76211738586426

$$$$
54
                    3D
 Structure written by MMmdl.
157165  0  0  1  0            999 V2000
  -30.6108  -14.6393   20.5002 C   0  0  0  0  0  0
  -30.4339  -12.3938   19.4476 C   0  0  0  0  0  0
  -29.5030  -12.5185   18.2214 C   0  0  0  0  0  0
  -28.0266  -12.3540   18.6337 C   0  0  0  0  0  0
  -27.6538  -13.2155   19.8692 C   0  0  2  0  0  0
  -28.6971  -13.0608   20.9979 C   0  0  0  0  0  0
  -25.2571  -13.8159   20.5701 C   0  0  0  0  0  0
  -24.1823  -13.0434   20.9191 C   0  0  0  0  0  0
  -24.6387  -11.6900   20.8735 C   0  0  0  0  0  0
  -23.9052  -10.4293   21.0398 C   0  0  0  0  0  0
  -24.3604   -9.4215   21.9177 C   0  0  0  0  0  0
  -23.6289   -8.2244   22.0750 C   0  0  0  0  0  0
  -22.4278   -8.0272   21.3539 C   0  0  0  0  0  0
  -21.9903   -9.0241   20.4640 C   0  0  0  0  0  0
  -22.7221  -10.2128   20.3051 C   0  0  0  0  0  0
  -21.6855   -6.0728   22.5270 C   0  0  0  0  0  0
  -21.4012   -6.5634   23.8201 C   0  0  0  0  0  0
  -21.3665   -5.6790   24.9166 C   0  0  0  0  0  0
  -21.6049   -4.3054   24.7220 C   0  0  0  0  0  0
  -21.8819   -3.8142   23.4341 C   0  0  0  0  0  0
  -21.9197   -4.6957   22.3397 C   0  0  0  0  0  0
  -22.7855  -13.5232   21.1864 C   0  0  0  0  0  0
  -22.1666   -4.2143   21.0977 F   0  0  0  0  0  0
  -21.5635   -3.4541   25.7736 F   0  0  0  0  0  0
  -30.0115  -13.4078   20.4360 N   0  0  0  0  0  0
  -26.2996  -12.9338   20.3348 N   0  0  0  0  0  0
  -25.9321  -11.6498   20.5763 N   0  0  0  0  0  0
  -22.0501  -12.8206   22.0407 N   0  0  0  0  0  0
  -25.4322  -15.1874   20.4114 N   0  0  0  0  0  0
  -31.7680  -14.8075   20.1033 O   0  0  0  0  0  0
  -21.6643   -6.8866   21.4231 O   0  0  0  0  0  0
  -22.3544  -14.5547   20.6724 O   0  0  0  0  0  0
  -24.6269  -31.8600   23.1989 C   0  0  0  0  0  0
  -25.9119  -32.4785   23.8325 C   0  0  1  0  0  0
  -27.2236  -27.3190   20.1268 C   0  0  0  0  0  0
  -25.5925  -33.8582   24.2258 N   0  0  0  0  0  0
  -23.4210  -30.4841   21.5402 C   0  0  2  0  0  0
  -24.8678  -28.9393   20.1097 C   0  0  0  0  0  0
  -22.7485  -29.4638   22.4903 C   0  0  0  0  0  0
  -18.0298  -28.1360   22.8493 C   0  0  0  0  0  0
  -24.1504  -36.7312   23.2640 C   0  0  0  0  0  0
  -25.9625  -30.7941   21.3686 C   0  0  0  0  0  0
  -26.0364  -29.4216   20.7120 C   0  0  0  0  0  0
  -27.2185  -28.6243   20.7082 C   0  0  0  0  0  0
  -26.0341  -26.8931   19.4923 C   0  0  0  0  0  0
  -24.8683  -27.6807   19.4907 C   0  0  0  0  0  0
  -23.6351  -29.8177   20.1558 C   0  0  0  0  0  0
  -25.4127  -36.3095   24.0330 C   0  0  1  0  0  0
  -20.5909  -28.3685   23.1265 C   0  0  2  0  0  0
  -20.6801  -26.9398   22.5407 C   0  0  0  0  0  0
  -19.5772  -26.6355   21.5218 C   0  0  0  0  0  0
  -18.1948  -26.7916   22.1609 C   0  0  0  0  0  0
  -19.1554  -28.8834   23.2883 C   0  0  0  0  0  0
  -18.9471  -30.1447   23.8891 C   0  0  0  0  0  0
  -17.6461  -30.6566   24.0573 C   0  0  0  0  0  0
  -25.9057  -34.9462   23.5099 C   0  0  0  0  0  0
  -16.5360  -29.9070   23.6317 C   0  0  0  0  0  0
  -16.7283  -28.6482   23.0356 C   0  0  0  0  0  0
  -26.4481  -31.6597   25.0704 C   0  0  0  0  0  0
  -25.3698  -31.3746   26.1413 C   0  0  0  0  0  0
  -27.0336  -30.3030   24.6155 C   0  0  0  0  0  0
  -27.6028  -32.4346   25.7472 C   0  0  0  0  0  0
  -27.5597  -37.1804   24.8461 C   0  0  0  0  0  0
  -21.4199  -29.3057   22.3659 N   0  0  0  0  0  0
  -26.4311  -37.3786   23.9399 N   0  0  0  0  0  0
  -24.6885  -31.0636   22.0923 N   0  0  0  0  0  0
  -23.4213  -28.8192   23.2987 O   0  0  0  0  0  0
  -28.3381  -26.4667   20.1992 O   0  0  0  0  0  0
  -26.5633  -34.8939   22.4671 O   0  0  0  0  0  0
  -23.5430  -32.1378   23.7321 O   0  0  0  0  0  0
  -30.2100  -19.2049   19.6715 C   0  0  0  0  0  0
  -30.3605  -17.7685   19.6111 C   0  0  0  0  0  0
  -29.8947  -17.0451   20.6936 C   0  0  0  0  0  0
  -29.6130  -19.6440   20.8281 C   0  0  0  0  0  0
  -30.5297  -24.4788   21.3339 C   0  0  0  0  0  0
  -31.9757  -24.1286   20.9946 C   0  0  0  0  0  0
  -27.2755  -24.7268   21.6221 C   0  0  0  0  0  0
  -29.4444  -24.0841   20.3094 C   0  0  2  0  0  0
  -28.1317  -24.9992   20.3630 C   0  0  2  0  0  0
  -29.8202  -15.6758   20.9226 N   0  0  0  0  0  0
  -29.2182  -22.5725   20.1492 N   0  0  0  0  0  0
  -30.2707  -25.0404   22.4000 O   0  0  0  0  0  0
  -27.9779  -21.3312   22.0850 O   0  0  0  0  0  0
  -30.4842  -21.6653   22.2613 O   0  0  0  0  0  0
  -30.8808  -17.1987   18.5490 F   0  0  0  0  0  0
  -29.1969  -18.2295   21.8140 S   0  0  0  0  0  0
  -29.3000  -21.3574   21.4417 S   0  0  0  0  0  0
  -31.4746  -12.5204   19.1439 H   0  0  0  0  0  0
  -30.3680  -11.3930   19.8763 H   0  0  0  0  0  0
  -29.7643  -11.7716   17.4703 H   0  0  0  0  0  0
  -29.6451  -13.4918   17.7475 H   0  0  0  0  0  0
  -27.8614  -11.2983   18.8539 H   0  0  0  0  0  0
  -27.3725  -12.5951   17.7953 H   0  0  0  0  0  0
  -27.6769  -14.2548   19.5412 H   0  0  0  0  0  0
  -28.7085  -12.0372   21.3749 H   0  0  0  0  0  0
  -28.4426  -13.6882   21.8536 H   0  0  0  0  0  0
  -25.2751   -9.5703   22.4752 H   0  0  0  0  0  0
  -24.0012   -7.4636   22.7462 H   0  0  0  0  0  0
  -21.0840   -8.8738   19.8933 H   0  0  0  0  0  0
  -22.3665  -10.9662   19.6161 H   0  0  0  0  0  0
  -21.1993   -7.6143   23.9699 H   0  0  0  0  0  0
  -21.1493   -6.0525   25.9067 H   0  0  0  0  0  0
  -22.0596   -2.7605   23.2839 H   0  0  0  0  0  0
  -22.4125  -11.9857   22.4766 H   0  0  0  0  0  0
  -21.1120  -13.1213   22.2631 H   0  0  0  0  0  0
  -24.6677  -15.8462   20.5143 H   0  0  0  0  0  0
  -26.2847  -15.6191   20.0766 H   0  0  0  0  0  0
  -26.7196  -32.5454   23.1077 H   0  0  0  0  0  0
  -25.0118  -33.9718   25.0434 H   0  0  0  0  0  0
  -22.7173  -31.3059   21.3938 H   0  0  0  0  0  0
  -23.3787  -35.9628   23.3281 H   0  0  0  0  0  0
  -24.3598  -36.8936   22.2058 H   0  0  0  0  0  0
  -23.7224  -37.6491   23.6678 H   0  0  0  0  0  0
  -26.1014  -31.5584   20.6021 H   0  0  0  0  0  0
  -26.8410  -30.8369   22.0009 H   0  0  0  0  0  0
  -28.1140  -28.9882   21.1922 H   0  0  0  0  0  0
  -25.9739  -25.9290   19.0126 H   0  0  0  0  0  0
  -23.9718  -27.3036   19.0186 H   0  0  0  0  0  0
  -23.7573  -30.5919   19.3971 H   0  0  0  0  0  0
  -22.7573  -29.2449   19.8503 H   0  0  0  0  0  0
  -25.1309  -36.1950   25.0826 H   0  0  0  0  0  0
  -21.0017  -28.3260   24.1378 H   0  0  0  0  0  0
  -20.5708  -26.2295   23.3613 H   0  0  0  0  0  0
  -21.6660  -26.7429   22.1179 H   0  0  0  0  0  0
  -19.6951  -25.6266   21.1246 H   0  0  0  0  0  0
  -19.6716  -27.3181   20.6767 H   0  0  0  0  0  0
  -17.4229  -26.6691   21.3994 H   0  0  0  0  0  0
  -18.0319  -26.0027   22.8968 H   0  0  0  0  0  0
  -19.7950  -30.7276   24.2232 H   0  0  0  0  0  0
  -17.5015  -31.6239   24.5195 H   0  0  0  0  0  0
  -15.5368  -30.2978   23.7627 H   0  0  0  0  0  0
  -15.8680  -28.0800   22.7074 H   0  0  0  0  0  0
  -24.5876  -30.7105   25.7710 H   0  0  0  0  0  0
  -24.8916  -32.2936   26.4826 H   0  0  0  0  0  0
  -25.7983  -30.8901   27.0196 H   0  0  0  0  0  0
  -26.2904  -29.6768   24.1211 H   0  0  0  0  0  0
  -27.4082  -29.7288   25.4636 H   0  0  0  0  0  0
  -27.8745  -30.4338   23.9342 H   0  0  0  0  0  0
  -27.2636  -33.3680   26.1984 H   0  0  0  0  0  0
  -28.3857  -32.6845   25.0299 H   0  0  0  0  0  0
  -28.0681  -31.8517   26.5428 H   0  0  0  0  0  0
  -28.2597  -38.0128   24.7540 H   0  0  0  0  0  0
  -28.1102  -36.2651   24.6239 H   0  0  0  0  0  0
  -27.2308  -37.1382   25.8862 H   0  0  0  0  0  0
  -20.9372  -29.8788   21.6876 H   0  0  0  0  0  0
  -26.0204  -38.2863   24.1395 H   0  0  0  0  0  0
  -30.5541  -19.8554   18.8813 H   0  0  0  0  0  0
  -32.0308  -23.1667   20.4864 H   0  0  0  0  0  0
  -32.5721  -24.0690   21.9049 H   0  0  0  0  0  0
  -32.4104  -24.8884   20.3449 H   0  0  0  0  0  0
  -27.0818  -23.6645   21.7441 H   0  0  0  0  0  0
  -26.3010  -25.2099   21.5748 H   0  0  0  0  0  0
  -27.7584  -25.0798   22.5308 H   0  0  0  0  0  0
  -29.9035  -24.3788   19.3656 H   0  0  0  0  0  0
  -27.5590  -24.6622   19.5012 H   0  0  0  0  0  0
  -28.9791  -15.3782   21.3934 H   0  0  0  0  0  0
  -28.4108  -22.3830   19.5553 H   0  0  0  0  0  0
  1 25  1  0  0  0
  1 30  2  0  0  0
  1 80  1  0  0  0
  2  3  1  0  0  0
  2 25  1  0  0  0
  2 88  1  0  0  0
  2 89  1  0  0  0
  3  4  1  0  0  0
  3 90  1  0  0  0
  3 91  1  0  0  0
  4  5  1  0  0  0
  4 92  1  0  0  0
  4 93  1  0  0  0
  5  6  1  0  0  0
  5 26  1  0  0  0
  5 94  1  0  0  0
  6 25  1  0  0  0
  6 95  1  0  0  0
  6 96  1  0  0  0
  7  8  2  0  0  0
  7 26  1  0  0  0
  7 29  1  0  0  0
  8  9  1  0  0  0
  8 22  1  0  0  0
  9 10  1  0  0  0
  9 27  2  0  0  0
 10 11  2  0  0  0
 10 15  1  0  0  0
 11 12  1  0  0  0
 11 97  1  0  0  0
 12 13  2  0  0  0
 12 98  1  0  0  0
 13 14  1  0  0  0
 13 31  1  0  0  0
 14 15  2  0  0  0
 14 99  1  0  0  0
 15100  1  0  0  0
 16 17  2  0  0  0
 16 21  1  0  0  0
 16 31  1  0  0  0
 17 18  1  0  0  0
 17101  1  0  0  0
 18 19  2  0  0  0
 18102  1  0  0  0
 19 20  1  0  0  0
 19 24  1  0  0  0
 20 21  2  0  0  0
 20103  1  0  0  0
 21 23  1  0  0  0
 22 28  1  0  0  0
 22 32  2  0  0  0
 26 27  1  0  0  0
 28104  1  0  0  0
 28105  1  0  0  0
 29106  1  0  0  0
 29107  1  0  0  0
 33 34  1  0  0  0
 33 66  1  0  0  0
 33 70  2  0  0  0
 34 36  1  0  0  0
 34 59  1  0  0  0
 34108  1  0  0  0
 35 44  2  0  0  0
 35 45  1  0  0  0
 35 68  1  0  0  0
 36 56  1  0  0  0
 36109  1  0  0  0
 37 39  1  0  0  0
 37 47  1  0  0  0
 37 66  1  0  0  0
 37110  1  0  0  0
 38 43  2  0  0  0
 38 46  1  0  0  0
 38 47  1  0  0  0
 39 64  1  0  0  0
 39 67  2  0  0  0
 40 52  1  0  0  0
 40 53  2  0  0  0
 40 58  1  0  0  0
 41111  1  0  0  0
 41112  1  0  0  0
 41113  1  0  0  0
 41 48  1  0  0  0
 42 43  1  0  0  0
 42 66  1  0  0  0
 42114  1  0  0  0
 42115  1  0  0  0
 43 44  1  0  0  0
 44116  1  0  0  0
 45 46  2  0  0  0
 45117  1  0  0  0
 46118  1  0  0  0
 47119  1  0  0  0
 47120  1  0  0  0
 48 56  1  0  0  0
 48 65  1  0  0  0
 48121  1  0  0  0
 49 50  1  0  0  0
 49 53  1  0  0  0
 49 64  1  0  0  0
 49122  1  0  0  0
 50 51  1  0  0  0
 50123  1  0  0  0
 50124  1  0  0  0
 51 52  1  0  0  0
 51125  1  0  0  0
 51126  1  0  0  0
 52127  1  0  0  0
 52128  1  0  0  0
 53 54  1  0  0  0
 54 55  2  0  0  0
 54129  1  0  0  0
 55 57  1  0  0  0
 55130  1  0  0  0
 56 69  2  0  0  0
 57 58  2  0  0  0
 57131  1  0  0  0
 58132  1  0  0  0
 59 60  1  0  0  0
 59 61  1  0  0  0
 59 62  1  0  0  0
 60133  1  0  0  0
 60134  1  0  0  0
 60135  1  0  0  0
 61136  1  0  0  0
 61137  1  0  0  0
 61138  1  0  0  0
 62139  1  0  0  0
 62140  1  0  0  0
 62141  1  0  0  0
 63 65  1  0  0  0
 63142  1  0  0  0
 63143  1  0  0  0
 63144  1  0  0  0
 64145  1  0  0  0
 65146  1  0  0  0
 68 79  1  0  0  0
 71 72  1  0  0  0
 71 74  2  0  0  0
 71147  1  0  0  0
 72 73  2  0  0  0
 72 85  1  0  0  0
 73 80  1  0  0  0
 73 86  1  0  0  0
 74 86  1  0  0  0
 74 87  1  0  0  0
 75 76  1  0  0  0
 75 78  1  0  0  0
 75 82  2  0  0  0
 76148  1  0  0  0
 76149  1  0  0  0
 76150  1  0  0  0
 77151  1  0  0  0
 77152  1  0  0  0
 77153  1  0  0  0
 77 79  1  0  0  0
 78 79  1  0  0  0
 78 81  1  0  0  0
 78154  1  0  0  0
 79155  1  0  0  0
 80156  1  0  0  0
 81157  1  0  0  0
 81 87  1  0  0  0
 83 87  2  0  0  0
 84 87  2  0  0  0
M  ISO  4   1 100  68 101  79 101  80 100
M  END
> <chiral flag>
0

> <version>
0

> <s_m_source_file>
/data/baiqing/PycharmProjects/Reinvent-master-3.2/result/LINK_invent/BTK/process_docking_weight1_custom_product_contain_oxygen_bond_distance_aromatic_linkinvent_7_9_3/rearranged_h_0185.sdf

> <i_m_source_file_index>
55

> <r_mmod_Potential_Energy-OPLS-2005>
-291.590545654297

> <r_mmod_Stretch_Energy-OPLS-2005>
78.8158416748047

> <r_mmod_Bend_Energy-OPLS-2005>
151.270217895508

> <r_mmod_Torsional_Energy-OPLS-2005>
231.007995605469

> <r_mmod_Improper_Torsional_Energy-OPLS-2005>
7.30367660522461

> <r_mmod_Van_der_Waal_Energy-OPLS-2005>
119.117042541504

> <r_mmod_Electrostatic_Energy-OPLS-2005>
-665.518859863281

> <r_mmod_Solvation_Energy-OPLS-2005>
-262.952606201172

> <b_mmod_Minimization_Converged-OPLS-2005>
0

> <r_mmod_RMS_Derivative-OPLS-2005>
2.43168663978577

$$$$
55
                    3D
 Structure written by MMmdl.
162170  0  0  1  0            999 V2000
  -30.6781  -14.7264   20.4924 C   0  0  0  0  0  0
  -30.4145  -12.4359   19.5150 C   0  0  0  0  0  0
  -29.5031  -12.4395   18.2699 C   0  0  0  0  0  0
  -28.0184  -12.3107   18.6708 C   0  0  0  0  0  0
  -27.6216  -13.1883   19.8957 C   0  0  2  0  0  0
  -28.6865  -13.1774   21.0207 C   0  0  0  0  0  0
  -25.2178  -13.7868   20.5641 C   0  0  0  0  0  0
  -24.1575  -13.0187   20.9250 C   0  0  0  0  0  0
  -24.6241  -11.6687   20.8892 C   0  0  0  0  0  0
  -23.8973  -10.4123   21.0490 C   0  0  0  0  0  0
  -24.3550   -9.4052   21.9228 C   0  0  0  0  0  0
  -23.6240   -8.2108   22.0756 C   0  0  0  0  0  0
  -22.4202   -8.0183   21.3548 C   0  0  0  0  0  0
  -21.9867   -9.0149   20.4636 C   0  0  0  0  0  0
  -22.7211  -10.2010   20.3089 C   0  0  0  0  0  0
  -21.6804   -6.0689   22.5288 C   0  0  0  0  0  0
  -21.4000   -6.5616   23.8226 C   0  0  0  0  0  0
  -21.3678   -5.6787   24.9199 C   0  0  0  0  0  0
  -21.6049   -4.3043   24.7238 C   0  0  0  0  0  0
  -21.8811   -3.8112   23.4364 C   0  0  0  0  0  0
  -21.9171   -4.6929   22.3414 C   0  0  0  0  0  0
  -22.7616  -13.4988   21.1879 C   0  0  0  0  0  0
  -22.1635   -4.2119   21.0993 F   0  0  0  0  0  0
  -21.5647   -3.4531   25.7756 F   0  0  0  0  0  0
  -29.9788  -13.5350   20.4112 N   0  0  0  0  0  0
  -26.2764  -12.9094   20.3653 N   0  0  0  0  0  0
  -25.9202  -11.6272   20.6112 N   0  0  0  0  0  0
  -22.0317  -12.8027   22.0503 N   0  0  0  0  0  0
  -25.3400  -15.1534   20.3621 N   0  0  0  0  0  0
  -31.8694  -14.7513   20.1858 O   0  0  0  0  0  0
  -21.6560   -6.8799   21.4239 O   0  0  0  0  0  0
  -22.3333  -14.5338   20.6740 O   0  0  0  0  0  0
  -24.6197  -31.8657   23.2075 C   0  0  0  0  0  0
  -25.9078  -32.4767   23.8395 C   0  0  1  0  0  0
  -27.1986  -27.3935   20.0976 C   0  0  0  0  0  0
  -25.5965  -33.8562   24.2322 N   0  0  0  0  0  0
  -23.3998  -30.4945   21.5549 C   0  0  2  0  0  0
  -24.8431  -28.9597   20.1107 C   0  0  0  0  0  0
  -22.7438  -29.4647   22.5090 C   0  0  0  0  0  0
  -18.0272  -28.1519   22.8435 C   0  0  0  0  0  0
  -24.1502  -36.7310   23.2619 C   0  0  0  0  0  0
  -25.9322  -30.8285   21.3604 C   0  0  0  0  0  0
  -26.0056  -29.4585   20.7057 C   0  0  0  0  0  0
  -27.1928  -28.6774   20.7014 C   0  0  0  0  0  0
  -26.0245  -26.9338   19.4717 C   0  0  0  0  0  0
  -24.8524  -27.7065   19.4767 C   0  0  0  0  0  0
  -23.6038  -29.8255   20.1634 C   0  0  0  0  0  0
  -25.4097  -36.3086   24.0311 C   0  0  1  0  0  0
  -20.5885  -28.3557   23.1374 C   0  0  2  0  0  0
  -20.6735  -26.9238   22.5463 C   0  0  0  0  0  0
  -19.5729  -26.6385   21.5129 C   0  0  0  0  0  0
  -18.1772  -26.8166   22.1259 C   0  0  0  0  0  0
  -19.1556  -28.8855   23.2962 C   0  0  0  0  0  0
  -18.9634  -30.1456   23.9015 C   0  0  0  0  0  0
  -17.6683  -30.6670   24.0761 C   0  0  0  0  0  0
  -25.9027  -34.9430   23.5091 C   0  0  0  0  0  0
  -16.5505  -29.9217   23.6534 C   0  0  0  0  0  0
  -16.7307  -28.6677   23.0398 C   0  0  0  0  0  0
  -26.4497  -31.6555   25.0695 C   0  0  0  0  0  0
  -25.3757  -31.3614   26.1416 C   0  0  0  0  0  0
  -27.0304  -30.2997   24.6037 C   0  0  0  0  0  0
  -27.6069  -32.4253   25.7503 C   0  0  0  0  0  0
  -27.5586  -37.1795   24.8446 C   0  0  0  0  0  0
  -21.4184  -29.2958   22.3833 N   0  0  0  0  0  0
  -26.4310  -37.3766   23.9390 N   0  0  0  0  0  0
  -24.6688  -31.0794   22.0965 N   0  0  0  0  0  0
  -23.4280  -28.8074   23.2974 O   0  0  0  0  0  0
  -28.3303  -26.6126   20.0064 O   0  0  0  0  0  0
  -26.5610  -34.8890   22.4651 O   0  0  0  0  0  0
  -23.5405  -32.1419   23.7463 O   0  0  0  0  0  0
  -29.2670  -18.3463   19.7103 C   0  0  0  0  0  0
  -28.9686  -18.9698   18.4911 C   0  0  0  0  0  0
  -29.2364  -20.6672   20.1375 C   0  0  0  0  0  0
  -28.3950  -23.0719   20.2327 C   0  0  0  0  0  0
  -28.0912  -18.5712   17.3370 C   0  0  0  0  0  0
  -27.4902  -23.8293   22.5221 C   0  0  0  0  0  0
  -28.8319  -16.0960   18.6594 C   0  0  0  0  0  0
  -27.8019  -16.7972   20.9312 C   0  0  0  0  0  0
  -28.5744  -25.6183   21.0271 C   0  0  0  0  0  0
  -27.7761  -24.2537   21.0668 C   0  0  1  0  0  0
  -29.0533  -16.7929   20.0319 C   0  0  0  0  0  0
  -29.3447  -19.4125   20.6827 N   0  0  0  0  0  0
  -28.8225  -21.8918   20.8090 N   0  0  0  0  0  0
  -30.0643  -15.9394   20.7894 N   0  0  0  0  0  0
  -28.4402  -23.2677   19.0196 O   0  0  0  0  0  0
  -29.5214  -20.6004   18.4258 S   0  0  0  0  0  0
  -31.4595  -12.5225   19.2222 H   0  0  0  0  0  0
  -30.3515  -11.4785   20.0336 H   0  0  0  0  0  0
  -29.7809  -11.6089   17.6199 H   0  0  0  0  0  0
  -29.6756  -13.3309   17.6720 H   0  0  0  0  0  0
  -27.8371  -11.2602   18.8984 H   0  0  0  0  0  0
  -27.3852  -12.5408   17.8178 H   0  0  0  0  0  0
  -27.5319  -14.1945   19.5416 H   0  0  0  0  0  0
  -28.7412  -12.1944   21.4894 H   0  0  0  0  0  0
  -28.4352  -13.8686   21.8289 H   0  0  0  0  0  0
  -25.2674   -9.5530   22.4820 H   0  0  0  0  0  0
  -23.9928   -7.4483   22.7463 H   0  0  0  0  0  0
  -21.0820   -8.8675   19.8919 H   0  0  0  0  0  0
  -22.3694  -10.9561   19.6203 H   0  0  0  0  0  0
  -21.1996   -7.6122   23.9733 H   0  0  0  0  0  0
  -21.1535   -6.0507   25.9114 H   0  0  0  0  0  0
  -22.0574   -2.7568   23.2864 H   0  0  0  0  0  0
  -22.3953  -11.9704   22.4891 H   0  0  0  0  0  0
  -21.0977  -13.1105   22.2847 H   0  0  0  0  0  0
  -24.5532  -15.7797   20.4911 H   0  0  0  0  0  0
  -26.1801  -15.6149   20.0491 H   0  0  0  0  0  0
  -26.7074  -32.5475   23.1124 H   0  0  0  0  0  0
  -25.0087  -33.9723   25.0456 H   0  0  0  0  0  0
  -22.6817  -31.3058   21.4171 H   0  0  0  0  0  0
  -23.3773  -35.9672   23.3290 H   0  0  0  0  0  0
  -24.3566  -36.8928   22.2047 H   0  0  0  0  0  0
  -23.7322  -37.6495   23.6669 H   0  0  0  0  0  0
  -26.0478  -31.5896   20.5903 H   0  0  0  0  0  0
  -26.8217  -30.8868   21.9747 H   0  0  0  0  0  0
  -28.0854  -29.0440   21.1899 H   0  0  0  0  0  0
  -26.0196  -25.9883   18.9536 H   0  0  0  0  0  0
  -23.9653  -27.3478   18.9747 H   0  0  0  0  0  0
  -23.6958  -30.5943   19.3990 H   0  0  0  0  0  0
  -22.7342  -29.2331   19.8694 H   0  0  0  0  0  0
  -25.1331  -36.1905   25.0831 H   0  0  0  0  0  0
  -21.0079  -28.2978   24.1453 H   0  0  0  0  0  0
  -20.5587  -26.2144   23.3642 H   0  0  0  0  0  0
  -21.6624  -26.7163   22.1376 H   0  0  0  0  0  0
  -19.6750  -25.6292   21.1173 H   0  0  0  0  0  0
  -19.6882  -27.3245   20.6711 H   0  0  0  0  0  0
  -17.4245  -26.7426   21.3369 H   0  0  0  0  0  0
  -17.9639  -26.0097   22.8173 H   0  0  0  0  0  0
  -19.8188  -30.7287   24.2275 H   0  0  0  0  0  0
  -17.5280  -31.6343   24.5306 H   0  0  0  0  0  0
  -15.5604  -30.3223   23.7868 H   0  0  0  0  0  0
  -15.8637  -28.1124   22.7015 H   0  0  0  0  0  0
  -24.5956  -30.6954   25.7690 H   0  0  0  0  0  0
  -24.8958  -32.2760   26.4921 H   0  0  0  0  0  0
  -25.8109  -30.8705   27.0148 H   0  0  0  0  0  0
  -26.2820  -29.6770   24.1102 H   0  0  0  0  0  0
  -27.4070  -29.7178   25.4479 H   0  0  0  0  0  0
  -27.8692  -30.4277   23.9177 H   0  0  0  0  0  0
  -27.2676  -33.3534   26.2139 H   0  0  0  0  0  0
  -28.3919  -32.6823   25.0360 H   0  0  0  0  0  0
  -28.0727  -31.8327   26.5410 H   0  0  0  0  0  0
  -28.2588  -38.0103   24.7504 H   0  0  0  0  0  0
  -28.1109  -36.2627   24.6308 H   0  0  0  0  0  0
  -27.2270  -37.1467   25.8835 H   0  0  0  0  0  0
  -20.9333  -29.8796   21.7129 H   0  0  0  0  0  0
  -26.0174  -38.2837   24.1397 H   0  0  0  0  0  0
  -28.6117  -17.9920   16.5724 H   0  0  0  0  0  0
  -27.6587  -19.4464   16.8513 H   0  0  0  0  0  0
  -27.2141  -18.0329   17.6954 H   0  0  0  0  0  0
  -26.8852  -22.9255   22.5804 H   0  0  0  0  0  0
  -26.9669  -24.6185   23.0725 H   0  0  0  0  0  0
  -28.4168  -23.6297   23.0577 H   0  0  0  0  0  0
  -27.8111  -16.1742   18.2910 H   0  0  0  0  0  0
  -29.0465  -15.0529   18.6176 H   0  0  0  0  0  0
  -29.5373  -16.4767   17.9267 H   0  0  0  0  0  0
  -26.9473  -17.2360   20.4220 H   0  0  0  0  0  0
  -27.9623  -17.4121   21.8169 H   0  0  0  0  0  0
  -27.5487  -15.8164   21.3160 H   0  0  0  0  0  0
  -29.6305  -25.3747   20.9331 H   0  0  0  0  0  0
  -28.4719  -26.1320   21.9890 H   0  0  0  0  0  0
  -26.7997  -24.4557   20.6167 H   0  0  0  0  0  0
  -28.7147  -21.8281   21.8064 H   0  0  0  0  0  0
  -30.7150  -16.5513   21.2562 H   0  0  0  0  0  0
  1 25  1  0  0  0
  1 30  2  0  0  0
  1 84  1  0  0  0
  2  3  1  0  0  0
  2 25  1  0  0  0
  2 87  1  0  0  0
  2 88  1  0  0  0
  3  4  1  0  0  0
  3 89  1  0  0  0
  3 90  1  0  0  0
  4  5  1  0  0  0
  4 91  1  0  0  0
  4 92  1  0  0  0
  5  6  1  0  0  0
  5 26  1  0  0  0
  5 93  1  0  0  0
  6 25  1  0  0  0
  6 94  1  0  0  0
  6 95  1  0  0  0
  7  8  2  0  0  0
  7 26  1  0  0  0
  7 29  1  0  0  0
  8  9  1  0  0  0
  8 22  1  0  0  0
  9 10  1  0  0  0
  9 27  2  0  0  0
 10 11  2  0  0  0
 10 15  1  0  0  0
 11 12  1  0  0  0
 11 96  1  0  0  0
 12 13  2  0  0  0
 12 97  1  0  0  0
 13 14  1  0  0  0
 13 31  1  0  0  0
 14 15  2  0  0  0
 14 98  1  0  0  0
 15 99  1  0  0  0
 16 17  2  0  0  0
 16 21  1  0  0  0
 16 31  1  0  0  0
 17 18  1  0  0  0
 17100  1  0  0  0
 18 19  2  0  0  0
 18101  1  0  0  0
 19 20  1  0  0  0
 19 24  1  0  0  0
 20 21  2  0  0  0
 20102  1  0  0  0
 21 23  1  0  0  0
 22 28  1  0  0  0
 22 32  2  0  0  0
 26 27  1  0  0  0
 28103  1  0  0  0
 28104  1  0  0  0
 29105  1  0  0  0
 29106  1  0  0  0
 33 34  1  0  0  0
 33 66  1  0  0  0
 33 70  2  0  0  0
 34 36  1  0  0  0
 34 59  1  0  0  0
 34107  1  0  0  0
 35 44  2  0  0  0
 35 45  1  0  0  0
 35 68  1  0  0  0
 36 56  1  0  0  0
 36108  1  0  0  0
 37 39  1  0  0  0
 37 47  1  0  0  0
 37 66  1  0  0  0
 37109  1  0  0  0
 38 43  2  0  0  0
 38 46  1  0  0  0
 38 47  1  0  0  0
 39 64  1  0  0  0
 39 67  2  0  0  0
 40 52  1  0  0  0
 40 53  2  0  0  0
 40 58  1  0  0  0
 41110  1  0  0  0
 41111  1  0  0  0
 41112  1  0  0  0
 41 48  1  0  0  0
 42 43  1  0  0  0
 42 66  1  0  0  0
 42113  1  0  0  0
 42114  1  0  0  0
 43 44  1  0  0  0
 44115  1  0  0  0
 45 46  2  0  0  0
 45116  1  0  0  0
 46117  1  0  0  0
 47118  1  0  0  0
 47119  1  0  0  0
 48 56  1  0  0  0
 48 65  1  0  0  0
 48120  1  0  0  0
 49 50  1  0  0  0
 49 53  1  0  0  0
 49 64  1  0  0  0
 49121  1  0  0  0
 50 51  1  0  0  0
 50122  1  0  0  0
 50123  1  0  0  0
 51 52  1  0  0  0
 51124  1  0  0  0
 51125  1  0  0  0
 52126  1  0  0  0
 52127  1  0  0  0
 53 54  1  0  0  0
 54 55  2  0  0  0
 54128  1  0  0  0
 55 57  1  0  0  0
 55129  1  0  0  0
 56 69  2  0  0  0
 57 58  2  0  0  0
 57130  1  0  0  0
 58131  1  0  0  0
 59 60  1  0  0  0
 59 61  1  0  0  0
 59 62  1  0  0  0
 60132  1  0  0  0
 60133  1  0  0  0
 60134  1  0  0  0
 61135  1  0  0  0
 61136  1  0  0  0
 61137  1  0  0  0
 62138  1  0  0  0
 62139  1  0  0  0
 62140  1  0  0  0
 63 65  1  0  0  0
 63141  1  0  0  0
 63142  1  0  0  0
 63143  1  0  0  0
 64144  1  0  0  0
 65145  1  0  0  0
 68 79  1  0  0  0
 71 72  2  0  0  0
 71 81  1  0  0  0
 71 82  1  0  0  0
 72 75  1  0  0  0
 72 86  1  0  0  0
 73 82  2  0  0  0
 73 83  1  0  0  0
 73 86  1  0  0  0
 74 80  1  0  0  0
 74 83  1  0  0  0
 74 85  2  0  0  0
 75146  1  0  0  0
 75147  1  0  0  0
 75148  1  0  0  0
 76149  1  0  0  0
 76150  1  0  0  0
 76151  1  0  0  0
 76 80  1  0  0  0
 77152  1  0  0  0
 77153  1  0  0  0
 77154  1  0  0  0
 77 81  1  0  0  0
 78 81  1  0  0  0
 78155  1  0  0  0
 78156  1  0  0  0
 78157  1  0  0  0
 79 80  1  0  0  0
 79158  1  0  0  0
 79159  1  0  0  0
 80160  1  0  0  0
 81 84  1  0  0  0
 83161  1  0  0  0
 84162  1  0  0  0
M  ISO  4   1 100  68 101  79 101  84 100
M  END
> <chiral flag>
0

> <version>
0

> <s_m_source_file>
/data/baiqing/PycharmProjects/Reinvent-master-3.2/result/LINK_invent/BTK/process_docking_weight1_custom_product_contain_oxygen_bond_distance_aromatic_linkinvent_7_9_3/rearranged_h_0185.sdf

> <i_m_source_file_index>
56

> <r_mmod_Potential_Energy-OPLS-2005>
173.717010498047

> <r_mmod_Stretch_Energy-OPLS-2005>
94.6797256469727

> <r_mmod_Bend_Energy-OPLS-2005>
210.826812744141

> <r_mmod_Torsional_Energy-OPLS-2005>
362.359649658203

> <r_mmod_Improper_Torsional_Energy-OPLS-2005>
11.0312442779541

> <r_mmod_Van_der_Waal_Energy-OPLS-2005>
175.418609619141

> <r_mmod_Electrostatic_Energy-OPLS-2005>
-516.549987792969

> <r_mmod_Solvation_Energy-OPLS-2005>
-223.553955078125

> <b_mmod_Minimization_Converged-OPLS-2005>
0

> <r_mmod_RMS_Derivative-OPLS-2005>
12.1393041610718

$$$$
56
                    3D
 Structure written by MMmdl.
155163  0  0  1  0            999 V2000
  -30.5873  -14.7391   20.4602 C   0  0  0  0  0  0
  -30.4426  -12.4480   19.4614 C   0  0  0  0  0  0
  -29.5083  -12.4994   18.2308 C   0  0  0  0  0  0
  -28.0339  -12.3254   18.6467 C   0  0  0  0  0  0
  -27.6419  -13.2240   19.8488 C   0  0  2  0  0  0
  -28.6905  -13.1417   20.9801 C   0  0  0  0  0  0
  -25.2508  -13.8182   20.5705 C   0  0  0  0  0  0
  -24.1814  -13.0430   20.9231 C   0  0  0  0  0  0
  -24.6402  -11.6905   20.8787 C   0  0  0  0  0  0
  -23.9083  -10.4281   21.0430 C   0  0  0  0  0  0
  -24.3635   -9.4184   21.9201 C   0  0  0  0  0  0
  -23.6303   -8.2225   22.0763 C   0  0  0  0  0  0
  -22.4285   -8.0281   21.3548 C   0  0  0  0  0  0
  -21.9928   -9.0252   20.4652 C   0  0  0  0  0  0
  -22.7261  -10.2127   20.3066 C   0  0  0  0  0  0
  -21.6844   -6.0744   22.5280 C   0  0  0  0  0  0
  -21.4010   -6.5652   23.8217 C   0  0  0  0  0  0
  -21.3659   -5.6807   24.9183 C   0  0  0  0  0  0
  -21.6038   -4.3069   24.7223 C   0  0  0  0  0  0
  -21.8818   -3.8156   23.4348 C   0  0  0  0  0  0
  -21.9193   -4.6974   22.3406 C   0  0  0  0  0  0
  -22.7824  -13.5196   21.1885 C   0  0  0  0  0  0
  -22.1660   -4.2163   21.0984 F   0  0  0  0  0  0
  -21.5625   -3.4554   25.7735 F   0  0  0  0  0  0
  -29.9932  -13.4988   20.3999 N   0  0  0  0  0  0
  -26.2938  -12.9383   20.3288 N   0  0  0  0  0  0
  -25.9327  -11.6535   20.5773 N   0  0  0  0  0  0
  -22.0479  -12.8182   22.0440 N   0  0  0  0  0  0
  -25.4165  -15.1915   20.4079 N   0  0  0  0  0  0
  -31.7845  -14.8662   20.1815 O   0  0  0  0  0  0
  -21.6637   -6.8889   21.4245 O   0  0  0  0  0  0
  -22.3505  -14.5500   20.6724 O   0  0  0  0  0  0
  -24.6288  -31.8568   23.1984 C   0  0  0  0  0  0
  -25.9111  -32.4768   23.8334 C   0  0  1  0  0  0
  -27.2217  -27.2815   20.1377 C   0  0  0  0  0  0
  -25.5911  -33.8572   24.2256 N   0  0  0  0  0  0
  -23.4247  -30.4775   21.5436 C   0  0  2  0  0  0
  -24.8723  -28.9218   20.1139 C   0  0  0  0  0  0
  -22.7499  -29.4596   22.4934 C   0  0  0  0  0  0
  -18.0287  -28.1384   22.8497 C   0  0  0  0  0  0
  -24.1485  -36.7296   23.2634 C   0  0  0  0  0  0
  -25.9671  -30.7746   21.3741 C   0  0  0  0  0  0
  -26.0418  -29.3966   20.7225 C   0  0  0  0  0  0
  -27.2218  -28.5901   20.7199 C   0  0  0  0  0  0
  -26.0353  -26.8681   19.4959 C   0  0  0  0  0  0
  -24.8727  -27.6649   19.4874 C   0  0  0  0  0  0
  -23.6420  -29.8075   20.1614 C   0  0  0  0  0  0
  -25.4118  -36.3084   24.0319 C   0  0  1  0  0  0
  -20.5892  -28.3683   23.1280 C   0  0  2  0  0  0
  -20.6769  -26.9401   22.5415 C   0  0  0  0  0  0
  -19.5735  -26.6383   21.5221 C   0  0  0  0  0  0
  -18.1919  -26.7932   22.1634 C   0  0  0  0  0  0
  -19.1544  -28.8855   23.2884 C   0  0  0  0  0  0
  -18.9469  -30.1462   23.8887 C   0  0  0  0  0  0
  -17.6466  -30.6585   24.0566 C   0  0  0  0  0  0
  -25.9048  -34.9446   23.5090 C   0  0  0  0  0  0
  -16.5355  -29.9078   23.6344 C   0  0  0  0  0  0
  -16.7276  -28.6504   23.0349 C   0  0  0  0  0  0
  -26.4497  -31.6591   25.0712 C   0  0  0  0  0  0
  -25.3722  -31.3712   26.1433 C   0  0  0  0  0  0
  -27.0345  -30.3016   24.6172 C   0  0  0  0  0  0
  -27.6055  -32.4338   25.7484 C   0  0  0  0  0  0
  -27.5588  -37.1797   24.8467 C   0  0  0  0  0  0
  -21.4209  -29.3041   22.3686 N   0  0  0  0  0  0
  -26.4300  -37.3782   23.9409 N   0  0  0  0  0  0
  -24.6930  -31.0538   22.0959 N   0  0  0  0  0  0
  -23.4222  -28.8141   23.3014 O   0  0  0  0  0  0
  -28.3281  -26.4121   20.1513 O   0  0  0  0  0  0
  -26.5620  -34.8913   22.4660 O   0  0  0  0  0  0
  -23.5442  -32.1378   23.7291 O   0  0  0  0  0  0
  -30.8047  -19.4152   20.8721 C   0  0  0  0  0  0
  -29.5894  -19.8819   20.3447 C   0  0  0  0  0  0
  -29.8756  -17.2850   20.5339 C   0  0  0  0  0  0
  -31.9555  -20.2709   21.2134 C   0  0  0  0  0  0
  -29.1132  -22.3734   20.6810 C   0  0  0  0  0  0
  -33.0989  -19.5996   21.9695 C   0  0  0  0  0  0
  -30.3202  -24.2705   19.5007 C   0  0  0  0  0  0
  -28.1416  -24.9946   20.6147 C   0  0  0  0  0  0
  -28.9225  -23.7688   19.9019 C   0  0  2  0  0  0
  -30.9197  -17.9892   20.9913 N   0  0  0  0  0  0
  -29.1606  -21.1772   19.9870 N   0  0  0  0  0  0
  -29.7273  -15.8157   20.5876 N   0  0  0  0  0  0
  -32.0890  -21.4639   20.9252 O   0  0  0  0  0  0
  -29.2263  -22.3818   21.9096 O   0  0  0  0  0  0
  -28.2768  -23.4936   18.7651 F   0  0  0  0  0  0
  -28.6162  -18.4282   19.9602 S   0  0  0  0  0  0
  -31.4781  -12.5931   19.1488 H   0  0  0  0  0  0
  -30.4054  -11.4681   19.9407 H   0  0  0  0  0  0
  -29.7830  -11.7260   17.5117 H   0  0  0  0  0  0
  -29.6338  -13.4545   17.7186 H   0  0  0  0  0  0
  -27.8871  -11.2771   18.9100 H   0  0  0  0  0  0
  -27.3764  -12.5168   17.7972 H   0  0  0  0  0  0
  -27.6353  -14.2454   19.4689 H   0  0  0  0  0  0
  -28.7233  -12.1381   21.4057 H   0  0  0  0  0  0
  -28.4273  -13.8100   21.8022 H   0  0  0  0  0  0
  -25.2781   -9.5650   22.4772 H   0  0  0  0  0  0
  -24.0010   -7.4609   22.7480 H   0  0  0  0  0  0
  -21.0862   -8.8773   19.8945 H   0  0  0  0  0  0
  -22.3736  -10.9673   19.6171 H   0  0  0  0  0  0
  -21.2005   -7.6163   23.9722 H   0  0  0  0  0  0
  -21.1479   -6.0543   25.9087 H   0  0  0  0  0  0
  -22.0596   -2.7616   23.2849 H   0  0  0  0  0  0
  -22.4113  -11.9846   22.4820 H   0  0  0  0  0  0
  -21.1085  -13.1181   22.2638 H   0  0  0  0  0  0
  -24.6345  -15.8318   20.5016 H   0  0  0  0  0  0
  -26.2362  -15.6321   20.0120 H   0  0  0  0  0  0
  -26.7165  -32.5427   23.1070 H   0  0  0  0  0  0
  -25.0043  -33.9710   25.0393 H   0  0  0  0  0  0
  -22.7202  -31.2990   21.3987 H   0  0  0  0  0  0
  -23.3759  -35.9614   23.3297 H   0  0  0  0  0  0
  -24.3566  -36.8940   22.2048 H   0  0  0  0  0  0
  -23.7221  -37.6484   23.6676 H   0  0  0  0  0  0
  -26.0938  -31.5283   20.5960 H   0  0  0  0  0  0
  -26.8493  -30.8336   21.9995 H   0  0  0  0  0  0
  -28.1216  -28.9554   21.1951 H   0  0  0  0  0  0
  -26.0016  -25.9101   18.9973 H   0  0  0  0  0  0
  -23.9805  -27.2993   18.9958 H   0  0  0  0  0  0
  -23.7585  -30.5806   19.4012 H   0  0  0  0  0  0
  -22.7616  -29.2358   19.8624 H   0  0  0  0  0  0
  -25.1295  -36.1946   25.0814 H   0  0  0  0  0  0
  -20.9972  -28.3261   24.1404 H   0  0  0  0  0  0
  -20.5657  -26.2301   23.3622 H   0  0  0  0  0  0
  -21.6635  -26.7414   22.1208 H   0  0  0  0  0  0
  -19.6872  -25.6297   21.1237 H   0  0  0  0  0  0
  -19.6653  -27.3209   20.6757 H   0  0  0  0  0  0
  -17.4190  -26.6694   21.4035 H   0  0  0  0  0  0
  -18.0294  -26.0079   22.9025 H   0  0  0  0  0  0
  -19.7943  -30.7285   24.2243 H   0  0  0  0  0  0
  -17.5016  -31.6260   24.5168 H   0  0  0  0  0  0
  -15.5349  -30.2954   23.7681 H   0  0  0  0  0  0
  -15.8691  -28.0813   22.7039 H   0  0  0  0  0  0
  -24.5943  -30.7012   25.7768 H   0  0  0  0  0  0
  -24.8840  -32.2847   26.4826 H   0  0  0  0  0  0
  -25.8043  -30.8934   27.0234 H   0  0  0  0  0  0
  -26.2905  -29.6755   24.1223 H   0  0  0  0  0  0
  -27.4085  -29.7287   25.4667 H   0  0  0  0  0  0
  -27.8765  -30.4321   23.9372 H   0  0  0  0  0  0
  -27.2693  -33.3684   26.1994 H   0  0  0  0  0  0
  -28.3896  -32.6825   25.0318 H   0  0  0  0  0  0
  -28.0688  -31.8500   26.5453 H   0  0  0  0  0  0
  -28.2592  -38.0107   24.7536 H   0  0  0  0  0  0
  -28.1100  -36.2631   24.6293 H   0  0  0  0  0  0
  -27.2289  -37.1455   25.8865 H   0  0  0  0  0  0
  -20.9389  -29.8819   21.6941 H   0  0  0  0  0  0
  -26.0186  -38.2850   24.1459 H   0  0  0  0  0  0
  -33.3620  -18.6443   21.5163 H   0  0  0  0  0  0
  -32.8123  -19.4342   23.0087 H   0  0  0  0  0  0
  -33.9827  -20.2359   21.9516 H   0  0  0  0  0  0
  -30.8502  -24.6822   20.3609 H   0  0  0  0  0  0
  -30.2501  -25.0599   18.7515 H   0  0  0  0  0  0
  -30.9398  -23.4769   19.0825 H   0  0  0  0  0  0
  -28.4415  -25.0138   21.6638 H   0  0  0  0  0  0
  -27.0833  -24.7370   20.6528 H   0  0  0  0  0  0
  -28.8419  -21.2792   19.0307 H   0  0  0  0  0  0
  -28.7661  -15.5191   20.6168 H   0  0  0  0  0  0
  1 25  1  0  0  0
  1 30  2  0  0  0
  1 82  1  0  0  0
  2  3  1  0  0  0
  2 25  1  0  0  0
  2 87  1  0  0  0
  2 88  1  0  0  0
  3  4  1  0  0  0
  3 89  1  0  0  0
  3 90  1  0  0  0
  4  5  1  0  0  0
  4 91  1  0  0  0
  4 92  1  0  0  0
  5  6  1  0  0  0
  5 26  1  0  0  0
  5 93  1  0  0  0
  6 25  1  0  0  0
  6 94  1  0  0  0
  6 95  1  0  0  0
  7  8  2  0  0  0
  7 26  1  0  0  0
  7 29  1  0  0  0
  8  9  1  0  0  0
  8 22  1  0  0  0
  9 10  1  0  0  0
  9 27  2  0  0  0
 10 11  2  0  0  0
 10 15  1  0  0  0
 11 12  1  0  0  0
 11 96  1  0  0  0
 12 13  2  0  0  0
 12 97  1  0  0  0
 13 14  1  0  0  0
 13 31  1  0  0  0
 14 15  2  0  0  0
 14 98  1  0  0  0
 15 99  1  0  0  0
 16 17  2  0  0  0
 16 21  1  0  0  0
 16 31  1  0  0  0
 17 18  1  0  0  0
 17100  1  0  0  0
 18 19  2  0  0  0
 18101  1  0  0  0
 19 20  1  0  0  0
 19 24  1  0  0  0
 20 21  2  0  0  0
 20102  1  0  0  0
 21 23  1  0  0  0
 22 28  1  0  0  0
 22 32  2  0  0  0
 26 27  1  0  0  0
 28103  1  0  0  0
 28104  1  0  0  0
 29105  1  0  0  0
 29106  1  0  0  0
 33 34  1  0  0  0
 33 66  1  0  0  0
 33 70  2  0  0  0
 34 36  1  0  0  0
 34 59  1  0  0  0
 34107  1  0  0  0
 35 44  2  0  0  0
 35 45  1  0  0  0
 35 68  1  0  0  0
 36 56  1  0  0  0
 36108  1  0  0  0
 37 39  1  0  0  0
 37 47  1  0  0  0
 37 66  1  0  0  0
 37109  1  0  0  0
 38 43  2  0  0  0
 38 46  1  0  0  0
 38 47  1  0  0  0
 39 64  1  0  0  0
 39 67  2  0  0  0
 40 52  1  0  0  0
 40 53  2  0  0  0
 40 58  1  0  0  0
 41110  1  0  0  0
 41111  1  0  0  0
 41112  1  0  0  0
 41 48  1  0  0  0
 42 43  1  0  0  0
 42 66  1  0  0  0
 42113  1  0  0  0
 42114  1  0  0  0
 43 44  1  0  0  0
 44115  1  0  0  0
 45 46  2  0  0  0
 45116  1  0  0  0
 46117  1  0  0  0
 47118  1  0  0  0
 47119  1  0  0  0
 48 56  1  0  0  0
 48 65  1  0  0  0
 48120  1  0  0  0
 49 50  1  0  0  0
 49 53  1  0  0  0
 49 64  1  0  0  0
 49121  1  0  0  0
 50 51  1  0  0  0
 50122  1  0  0  0
 50123  1  0  0  0
 51 52  1  0  0  0
 51124  1  0  0  0
 51125  1  0  0  0
 52126  1  0  0  0
 52127  1  0  0  0
 53 54  1  0  0  0
 54 55  2  0  0  0
 54128  1  0  0  0
 55 57  1  0  0  0
 55129  1  0  0  0
 56 69  2  0  0  0
 57 58  2  0  0  0
 57130  1  0  0  0
 58131  1  0  0  0
 59 60  1  0  0  0
 59 61  1  0  0  0
 59 62  1  0  0  0
 60132  1  0  0  0
 60133  1  0  0  0
 60134  1  0  0  0
 61135  1  0  0  0
 61136  1  0  0  0
 61137  1  0  0  0
 62138  1  0  0  0
 62139  1  0  0  0
 62140  1  0  0  0
 63 65  1  0  0  0
 63141  1  0  0  0
 63142  1  0  0  0
 63143  1  0  0  0
 64144  1  0  0  0
 65145  1  0  0  0
 68 78  1  0  0  0
 71 72  2  0  0  0
 71 74  1  0  0  0
 71 80  1  0  0  0
 72 81  1  0  0  0
 72 86  1  0  0  0
 73 80  2  0  0  0
 73 82  1  0  0  0
 73 86  1  0  0  0
 74 76  1  0  0  0
 74 83  2  0  0  0
 75 79  1  0  0  0
 75 81  1  0  0  0
 75 84  2  0  0  0
 76146  1  0  0  0
 76147  1  0  0  0
 76148  1  0  0  0
 77149  1  0  0  0
 77150  1  0  0  0
 77151  1  0  0  0
 77 79  1  0  0  0
 78 79  1  0  0  0
 78152  1  0  0  0
 78153  1  0  0  0
 79 85  1  0  0  0
 81154  1  0  0  0
 82155  1  0  0  0
M  ISO  4   1 100  68 101  78 101  82 100
M  END
> <chiral flag>
0

> <version>
0

> <s_m_source_file>
/data/baiqing/PycharmProjects/Reinvent-master-3.2/result/LINK_invent/BTK/process_docking_weight1_custom_product_contain_oxygen_bond_distance_aromatic_linkinvent_7_9_3/rearranged_h_0185.sdf

> <i_m_source_file_index>
57

> <r_mmod_Potential_Energy-OPLS-2005>
136.152526855469

> <r_mmod_Stretch_Energy-OPLS-2005>
107.55029296875

> <r_mmod_Bend_Energy-OPLS-2005>
164.38883972168

> <r_mmod_Torsional_Energy-OPLS-2005>
267.726440429688

> <r_mmod_Improper_Torsional_Energy-OPLS-2005>
7.18653869628906

> <r_mmod_Van_der_Waal_Energy-OPLS-2005>
115.697746276855

> <r_mmod_Electrostatic_Energy-OPLS-2005>
-365.428985595703

> <r_mmod_Solvation_Energy-OPLS-2005>
-238.906173706055

> <b_mmod_Minimization_Converged-OPLS-2005>
0

> <r_mmod_RMS_Derivative-OPLS-2005>
2.24954199790955

$$$$
57
                    3D
 Structure written by MMmdl.
153161  0  0  1  0            999 V2000
  -30.6049  -14.7240   20.4836 C   0  0  0  0  0  0
  -30.4396  -12.4410   19.4776 C   0  0  0  0  0  0
  -29.5158  -12.5165   18.2407 C   0  0  0  0  0  0
  -28.0402  -12.3429   18.6488 C   0  0  0  0  0  0
  -27.6504  -13.2280   19.8626 C   0  0  2  0  0  0
  -28.6932  -13.1260   20.9991 C   0  0  0  0  0  0
  -25.2537  -13.8189   20.5692 C   0  0  0  0  0  0
  -24.1815  -13.0440   20.9196 C   0  0  0  0  0  0
  -24.6399  -11.6915   20.8736 C   0  0  0  0  0  0
  -23.9068  -10.4292   21.0397 C   0  0  0  0  0  0
  -24.3618   -9.4209   21.9178 C   0  0  0  0  0  0
  -23.6292   -8.2244   22.0752 C   0  0  0  0  0  0
  -22.4276   -8.0277   21.3540 C   0  0  0  0  0  0
  -21.9910   -9.0253   20.4645 C   0  0  0  0  0  0
  -22.7237  -10.2134   20.3050 C   0  0  0  0  0  0
  -21.6855   -6.0731   22.5275 C   0  0  0  0  0  0
  -21.4018   -6.5634   23.8208 C   0  0  0  0  0  0
  -21.3663   -5.6787   24.9170 C   0  0  0  0  0  0
  -21.6046   -4.3050   24.7220 C   0  0  0  0  0  0
  -21.8820   -3.8140   23.4342 C   0  0  0  0  0  0
  -21.9194   -4.6958   22.3398 C   0  0  0  0  0  0
  -22.7833  -13.5226   21.1854 C   0  0  0  0  0  0
  -22.1659   -4.2141   21.0976 F   0  0  0  0  0  0
  -21.5631   -3.4535   25.7735 F   0  0  0  0  0  0
  -30.0038  -13.4838   20.4360 N   0  0  0  0  0  0
  -26.2976  -12.9394   20.3315 N   0  0  0  0  0  0
  -25.9335  -11.6538   20.5754 N   0  0  0  0  0  0
  -22.0473  -12.8224   22.0414 N   0  0  0  0  0  0
  -25.4232  -15.1916   20.4111 N   0  0  0  0  0  0
  -31.7610  -14.8627   20.0701 O   0  0  0  0  0  0
  -21.6640   -6.8874   21.4237 O   0  0  0  0  0  0
  -22.3519  -14.5527   20.6692 O   0  0  0  0  0  0
  -24.6302  -31.8569   23.2015 C   0  0  0  0  0  0
  -25.9131  -32.4762   23.8356 C   0  0  1  0  0  0
  -27.2102  -27.2560   20.1434 C   0  0  0  0  0  0
  -25.5933  -33.8566   24.2277 N   0  0  0  0  0  0
  -23.4278  -30.4806   21.5433 C   0  0  2  0  0  0
  -24.8775  -28.9330   20.1091 C   0  0  0  0  0  0
  -22.7500  -29.4606   22.4904 C   0  0  0  0  0  0
  -18.0293  -28.1387   22.8483 C   0  0  0  0  0  0
  -24.1491  -36.7288   23.2640 C   0  0  0  0  0  0
  -25.9747  -30.7649   21.3889 C   0  0  0  0  0  0
  -26.0457  -29.3864   20.7358 C   0  0  0  0  0  0
  -27.2147  -28.5577   20.7504 C   0  0  0  0  0  0
  -26.0434  -26.9079   19.4309 C   0  0  0  0  0  0
  -24.8814  -27.6998   19.4439 C   0  0  0  0  0  0
  -23.6481  -29.8187   20.1580 C   0  0  0  0  0  0
  -25.4118  -36.3076   24.0330 C   0  0  1  0  0  0
  -20.5898  -28.3700   23.1263 C   0  0  2  0  0  0
  -20.6779  -26.9416   22.5406 C   0  0  0  0  0  0
  -19.5754  -26.6381   21.5210 C   0  0  0  0  0  0
  -18.1936  -26.7927   22.1624 C   0  0  0  0  0  0
  -19.1547  -28.8859   23.2869 C   0  0  0  0  0  0
  -18.9467  -30.1459   23.8891 C   0  0  0  0  0  0
  -17.6466  -30.6587   24.0563 C   0  0  0  0  0  0
  -25.9055  -34.9442   23.5105 C   0  0  0  0  0  0
  -16.5358  -29.9085   23.6331 C   0  0  0  0  0  0
  -16.7279  -28.6503   23.0353 C   0  0  0  0  0  0
  -26.4496  -31.6583   25.0743 C   0  0  0  0  0  0
  -25.3718  -31.3734   26.1463 C   0  0  0  0  0  0
  -27.0347  -30.3000   24.6237 C   0  0  0  0  0  0
  -27.6050  -32.4323   25.7513 C   0  0  0  0  0  0
  -27.5582  -37.1803   24.8467 C   0  0  0  0  0  0
  -21.4208  -29.3049   22.3650 N   0  0  0  0  0  0
  -26.4296  -37.3770   23.9405 N   0  0  0  0  0  0
  -24.6960  -31.0528   22.0999 N   0  0  0  0  0  0
  -23.4199  -28.8141   23.3000 O   0  0  0  0  0  0
  -28.2891  -26.3388   20.1671 O   0  0  0  0  0  0
  -26.5626  -34.8912   22.4673 O   0  0  0  0  0  0
  -23.5450  -32.1402   23.7298 O   0  0  0  0  0  0
  -30.1041  -19.2339   19.4513 C   0  0  0  0  0  0
  -29.6232  -19.8615   20.5929 C   0  0  0  0  0  0
  -29.9048  -17.2527   20.6559 C   0  0  0  0  0  0
  -29.0724  -22.2981   20.1102 C   0  0  0  0  0  0
  -30.4146  -24.4193   19.6510 C   0  0  0  0  0  0
  -26.7476  -24.2666   20.6274 C   0  0  0  0  0  0
  -29.3218  -23.8298   20.5590 C   0  0  1  0  0  0
  -28.1338  -24.9374   20.7410 C   0  0  1  0  0  0
  -30.2604  -17.8152   19.4879 N   0  0  0  0  0  0
  -29.4795  -21.2299   20.8891 N   0  0  0  0  0  0
  -29.8431  -15.7945   20.9129 N   0  0  0  0  0  0
  -28.5282  -22.0928   19.0235 O   0  0  0  0  0  0
  -30.4642  -19.9095   18.3845 F   0  0  0  0  0  0
  -29.3354  -18.5476   21.7764 S   0  0  0  0  0  0
  -31.4809  -12.5663   19.1766 H   0  0  0  0  0  0
  -30.3825  -11.4543   19.9401 H   0  0  0  0  0  0
  -29.7956  -11.7531   17.5135 H   0  0  0  0  0  0
  -29.6474  -13.4773   17.7408 H   0  0  0  0  0  0
  -27.8902  -11.2917   18.8968 H   0  0  0  0  0  0
  -27.3859  -12.5516   17.8017 H   0  0  0  0  0  0
  -27.6566  -14.2571   19.5026 H   0  0  0  0  0  0
  -28.7202  -12.1151   21.4088 H   0  0  0  0  0  0
  -28.4225  -13.7775   21.8310 H   0  0  0  0  0  0
  -25.2764   -9.5690   22.4749 H   0  0  0  0  0  0
  -24.0002   -7.4641   22.7477 H   0  0  0  0  0  0
  -21.0837   -8.8775   19.8955 H   0  0  0  0  0  0
  -22.3693  -10.9672   19.6156 H   0  0  0  0  0  0
  -21.2010   -7.6142   23.9710 H   0  0  0  0  0  0
  -21.1486   -6.0515   25.9074 H   0  0  0  0  0  0
  -22.0597   -2.7601   23.2842 H   0  0  0  0  0  0
  -22.4089  -11.9894   22.4818 H   0  0  0  0  0  0
  -21.1087  -13.1251   22.2608 H   0  0  0  0  0  0
  -24.6526  -15.8429   20.5137 H   0  0  0  0  0  0
  -26.2665  -15.6299   20.0641 H   0  0  0  0  0  0
  -26.7194  -32.5414   23.1094 H   0  0  0  0  0  0
  -25.0072  -33.9708   25.0416 H   0  0  0  0  0  0
  -22.7239  -31.3030   21.3985 H   0  0  0  0  0  0
  -23.3753  -35.9621   23.3302 H   0  0  0  0  0  0
  -24.3582  -36.8909   22.2055 H   0  0  0  0  0  0
  -23.7245  -37.6489   23.6663 H   0  0  0  0  0  0
  -26.1190  -31.5229   20.6180 H   0  0  0  0  0  0
  -26.8507  -30.8124   22.0240 H   0  0  0  0  0  0
  -28.1046  -28.8943   21.2635 H   0  0  0  0  0  0
  -26.0114  -25.9913   18.8634 H   0  0  0  0  0  0
  -23.9996  -27.3598   18.9191 H   0  0  0  0  0  0
  -23.7730  -30.5969   19.4041 H   0  0  0  0  0  0
  -22.7668  -29.2523   19.8512 H   0  0  0  0  0  0
  -25.1298  -36.1927   25.0824 H   0  0  0  0  0  0
  -20.9997  -28.3278   24.1381 H   0  0  0  0  0  0
  -20.5679  -26.2309   23.3610 H   0  0  0  0  0  0
  -21.6646  -26.7437   22.1201 H   0  0  0  0  0  0
  -19.6915  -25.6290   21.1245 H   0  0  0  0  0  0
  -19.6689  -27.3185   20.6735 H   0  0  0  0  0  0
  -17.4205  -26.6673   21.4029 H   0  0  0  0  0  0
  -18.0340  -26.0070   22.9023 H   0  0  0  0  0  0
  -19.7943  -30.7277   24.2254 H   0  0  0  0  0  0
  -17.5021  -31.6266   24.5168 H   0  0  0  0  0  0
  -15.5358  -30.2987   23.7654 H   0  0  0  0  0  0
  -15.8680  -28.0820   22.7069 H   0  0  0  0  0  0
  -24.5892  -30.7082   25.7794 H   0  0  0  0  0  0
  -24.8907  -32.2902   26.4879 H   0  0  0  0  0  0
  -25.8035  -30.8918   27.0245 H   0  0  0  0  0  0
  -26.2936  -29.6751   24.1239 H   0  0  0  0  0  0
  -27.3997  -29.7263   25.4767 H   0  0  0  0  0  0
  -27.8832  -30.4269   23.9509 H   0  0  0  0  0  0
  -27.2672  -33.3629   26.2084 H   0  0  0  0  0  0
  -28.3866  -32.6867   25.0343 H   0  0  0  0  0  0
  -28.0710  -31.8450   26.5435 H   0  0  0  0  0  0
  -28.2599  -38.0101   24.7508 H   0  0  0  0  0  0
  -28.1078  -36.2630   24.6297 H   0  0  0  0  0  0
  -27.2300  -37.1460   25.8870 H   0  0  0  0  0  0
  -20.9389  -29.8780   21.6866 H   0  0  0  0  0  0
  -26.0175  -38.2846   24.1396 H   0  0  0  0  0  0
  -31.2466  -23.7268   19.5169 H   0  0  0  0  0  0
  -30.8216  -25.3370   20.0764 H   0  0  0  0  0  0
  -30.0173  -24.6577   18.6642 H   0  0  0  0  0  0
  -25.9495  -24.8905   21.0277 H   0  0  0  0  0  0
  -26.7116  -23.3501   21.2162 H   0  0  0  0  0  0
  -26.5110  -23.9935   19.5995 H   0  0  0  0  0  0
  -29.7817  -23.7364   21.5438 H   0  0  0  0  0  0
  -28.1887  -25.1729   21.8052 H   0  0  0  0  0  0
  -29.7594  -21.4851   21.8265 H   0  0  0  0  0  0
  -29.0291  -15.5112   21.4352 H   0  0  0  0  0  0
  1 25  1  0  0  0
  1 30  2  0  0  0
  1 81  1  0  0  0
  2  3  1  0  0  0
  2 25  1  0  0  0
  2 85  1  0  0  0
  2 86  1  0  0  0
  3  4  1  0  0  0
  3 87  1  0  0  0
  3 88  1  0  0  0
  4  5  1  0  0  0
  4 89  1  0  0  0
  4 90  1  0  0  0
  5  6  1  0  0  0
  5 26  1  0  0  0
  5 91  1  0  0  0
  6 25  1  0  0  0
  6 92  1  0  0  0
  6 93  1  0  0  0
  7  8  2  0  0  0
  7 26  1  0  0  0
  7 29  1  0  0  0
  8  9  1  0  0  0
  8 22  1  0  0  0
  9 10  1  0  0  0
  9 27  2  0  0  0
 10 11  2  0  0  0
 10 15  1  0  0  0
 11 12  1  0  0  0
 11 94  1  0  0  0
 12 13  2  0  0  0
 12 95  1  0  0  0
 13 14  1  0  0  0
 13 31  1  0  0  0
 14 15  2  0  0  0
 14 96  1  0  0  0
 15 97  1  0  0  0
 16 17  2  0  0  0
 16 21  1  0  0  0
 16 31  1  0  0  0
 17 18  1  0  0  0
 17 98  1  0  0  0
 18 19  2  0  0  0
 18 99  1  0  0  0
 19 20  1  0  0  0
 19 24  1  0  0  0
 20 21  2  0  0  0
 20100  1  0  0  0
 21 23  1  0  0  0
 22 28  1  0  0  0
 22 32  2  0  0  0
 26 27  1  0  0  0
 28101  1  0  0  0
 28102  1  0  0  0
 29103  1  0  0  0
 29104  1  0  0  0
 33 34  1  0  0  0
 33 66  1  0  0  0
 33 70  2  0  0  0
 34 36  1  0  0  0
 34 59  1  0  0  0
 34105  1  0  0  0
 35 44  2  0  0  0
 35 45  1  0  0  0
 35 68  1  0  0  0
 36 56  1  0  0  0
 36106  1  0  0  0
 37 39  1  0  0  0
 37 47  1  0  0  0
 37 66  1  0  0  0
 37107  1  0  0  0
 38 43  2  0  0  0
 38 46  1  0  0  0
 38 47  1  0  0  0
 39 64  1  0  0  0
 39 67  2  0  0  0
 40 52  1  0  0  0
 40 53  2  0  0  0
 40 58  1  0  0  0
 41108  1  0  0  0
 41109  1  0  0  0
 41110  1  0  0  0
 41 48  1  0  0  0
 42 43  1  0  0  0
 42 66  1  0  0  0
 42111  1  0  0  0
 42112  1  0  0  0
 43 44  1  0  0  0
 44113  1  0  0  0
 45 46  2  0  0  0
 45114  1  0  0  0
 46115  1  0  0  0
 47116  1  0  0  0
 47117  1  0  0  0
 48 56  1  0  0  0
 48 65  1  0  0  0
 48118  1  0  0  0
 49 50  1  0  0  0
 49 53  1  0  0  0
 49 64  1  0  0  0
 49119  1  0  0  0
 50 51  1  0  0  0
 50120  1  0  0  0
 50121  1  0  0  0
 51 52  1  0  0  0
 51122  1  0  0  0
 51123  1  0  0  0
 52124  1  0  0  0
 52125  1  0  0  0
 53 54  1  0  0  0
 54 55  2  0  0  0
 54126  1  0  0  0
 55 57  1  0  0  0
 55127  1  0  0  0
 56 69  2  0  0  0
 57 58  2  0  0  0
 57128  1  0  0  0
 58129  1  0  0  0
 59 60  1  0  0  0
 59 61  1  0  0  0
 59 62  1  0  0  0
 60130  1  0  0  0
 60131  1  0  0  0
 60132  1  0  0  0
 61133  1  0  0  0
 61134  1  0  0  0
 61135  1  0  0  0
 62136  1  0  0  0
 62137  1  0  0  0
 62138  1  0  0  0
 63 65  1  0  0  0
 63139  1  0  0  0
 63140  1  0  0  0
 63141  1  0  0  0
 64142  1  0  0  0
 65143  1  0  0  0
 68 78  1  0  0  0
 71 72  2  0  0  0
 71 79  1  0  0  0
 71 83  1  0  0  0
 72 80  1  0  0  0
 72 84  1  0  0  0
 73 79  2  0  0  0
 73 81  1  0  0  0
 73 84  1  0  0  0
 74 77  1  0  0  0
 74 80  1  0  0  0
 74 82  2  0  0  0
 75144  1  0  0  0
 75145  1  0  0  0
 75146  1  0  0  0
 75 77  1  0  0  0
 76147  1  0  0  0
 76148  1  0  0  0
 76149  1  0  0  0
 76 78  1  0  0  0
 77 78  1  0  0  0
 77150  1  0  0  0
 78151  1  0  0  0
 80152  1  0  0  0
 81153  1  0  0  0
M  ISO  4   1 100  68 101  78 101  81 100
M  END
> <chiral flag>
0

> <version>
0

> <s_m_source_file>
/data/baiqing/PycharmProjects/Reinvent-master-3.2/result/LINK_invent/BTK/process_docking_weight1_custom_product_contain_oxygen_bond_distance_aromatic_linkinvent_7_9_3/rearranged_h_0185.sdf

> <i_m_source_file_index>
58

> <r_mmod_Potential_Energy-OPLS-2005>
118.556457519531

> <r_mmod_Stretch_Energy-OPLS-2005>
117.792953491211

> <r_mmod_Bend_Energy-OPLS-2005>
187.499038696289

> <r_mmod_Torsional_Energy-OPLS-2005>
268.526489257812

> <r_mmod_Improper_Torsional_Energy-OPLS-2005>
3.70780777931213

> <r_mmod_Van_der_Waal_Energy-OPLS-2005>
124.665344238281

> <r_mmod_Electrostatic_Energy-OPLS-2005>
-418.793090820312

> <r_mmod_Solvation_Energy-OPLS-2005>
-246.542724609375

> <b_mmod_Minimization_Converged-OPLS-2005>
0

> <r_mmod_RMS_Derivative-OPLS-2005>
0.631626546382904

$$$$
58
                    3D
 Structure written by MMmdl.
157165  0  0  1  0            999 V2000
  -30.6123  -14.8115   20.5272 C   0  0  0  0  0  0
  -30.4362  -12.5148   19.5193 C   0  0  0  0  0  0
  -29.5306  -12.5286   18.2686 C   0  0  0  0  0  0
  -28.0549  -12.3351   18.6598 C   0  0  0  0  0  0
  -27.6410  -13.2479   19.8492 C   0  0  2  0  0  0
  -28.6701  -13.2175   21.0012 C   0  0  0  0  0  0
  -25.2503  -13.8250   20.5648 C   0  0  0  0  0  0
  -24.1801  -13.0495   20.9166 C   0  0  0  0  0  0
  -24.6415  -11.6957   20.8707 C   0  0  0  0  0  0
  -23.9112  -10.4359   21.0392 C   0  0  0  0  0  0
  -24.3659   -9.4291   21.9162 C   0  0  0  0  0  0
  -23.6334   -8.2302   22.0725 C   0  0  0  0  0  0
  -22.4330   -8.0328   21.3520 C   0  0  0  0  0  0
  -21.9946   -9.0315   20.4644 C   0  0  0  0  0  0
  -22.7285  -10.2207   20.3045 C   0  0  0  0  0  0
  -21.6883   -6.0779   22.5251 C   0  0  0  0  0  0
  -21.4068   -6.5664   23.8223 C   0  0  0  0  0  0
  -21.3618   -5.6785   24.9150 C   0  0  0  0  0  0
  -21.6040   -4.3064   24.7170 C   0  0  0  0  0  0
  -21.8817   -3.8176   23.4272 C   0  0  0  0  0  0
  -21.9221   -4.7007   22.3367 C   0  0  0  0  0  0
  -22.7840  -13.5316   21.1804 C   0  0  0  0  0  0
  -22.1687   -4.2205   21.0947 F   0  0  0  0  0  0
  -21.5568   -3.4529   25.7688 F   0  0  0  0  0  0
  -29.9755  -13.5854   20.4422 N   0  0  0  0  0  0
  -26.2953  -12.9466   20.3236 N   0  0  0  0  0  0
  -25.9362  -11.6616   20.5719 N   0  0  0  0  0  0
  -22.0427  -12.8369   22.0354 N   0  0  0  0  0  0
  -25.4265  -15.1965   20.4002 N   0  0  0  0  0  0
  -31.7880  -14.8748   20.1519 O   0  0  0  0  0  0
  -21.6652   -6.8933   21.4261 O   0  0  0  0  0  0
  -22.3547  -14.5614   20.6647 O   0  0  0  0  0  0
  -24.6201  -31.8569   23.2014 C   0  0  0  0  0  0
  -25.9050  -32.4767   23.8333 C   0  0  1  0  0  0
  -27.2563  -27.2975   20.1694 C   0  0  0  0  0  0
  -25.5854  -33.8566   24.2281 N   0  0  0  0  0  0
  -23.4243  -30.4775   21.5420 C   0  0  2  0  0  0
  -24.8838  -28.9340   20.1080 C   0  0  0  0  0  0
  -22.7510  -29.4600   22.4938 C   0  0  0  0  0  0
  -18.0277  -28.1376   22.8517 C   0  0  0  0  0  0
  -24.1480  -36.7307   23.2648 C   0  0  0  0  0  0
  -25.9582  -30.7906   21.3697 C   0  0  0  0  0  0
  -26.0423  -29.4088   20.7334 C   0  0  0  0  0  0
  -27.2201  -28.6018   20.7620 C   0  0  0  0  0  0
  -26.0830  -26.8972   19.4766 C   0  0  0  0  0  0
  -24.9118  -27.6855   19.4643 C   0  0  0  0  0  0
  -23.6441  -29.8048   20.1568 C   0  0  0  0  0  0
  -25.4083  -36.3079   24.0337 C   0  0  1  0  0  0
  -20.5878  -28.3654   23.1331 C   0  0  2  0  0  0
  -20.6766  -26.9385   22.5439 C   0  0  0  0  0  0
  -19.5735  -26.6384   21.5247 C   0  0  0  0  0  0
  -18.1919  -26.7928   22.1657 C   0  0  0  0  0  0
  -19.1525  -28.8841   23.2921 C   0  0  0  0  0  0
  -18.9448  -30.1457   23.8920 C   0  0  0  0  0  0
  -17.6437  -30.6585   24.0571 C   0  0  0  0  0  0
  -25.9012  -34.9454   23.5116 C   0  0  0  0  0  0
  -16.5336  -29.9092   23.6288 C   0  0  0  0  0  0
  -16.7270  -28.6494   23.0358 C   0  0  0  0  0  0
  -26.4446  -31.6556   25.0689 C   0  0  0  0  0  0
  -25.3706  -31.3692   26.1438 C   0  0  0  0  0  0
  -27.0244  -30.2987   24.6045 C   0  0  0  0  0  0
  -27.6033  -32.4277   25.7449 C   0  0  0  0  0  0
  -27.5567  -37.1786   24.8454 C   0  0  0  0  0  0
  -21.4204  -29.3011   22.3715 N   0  0  0  0  0  0
  -26.4250  -37.3778   23.9439 N   0  0  0  0  0  0
  -24.6881  -31.0607   22.0944 N   0  0  0  0  0  0
  -23.4227  -28.8119   23.3027 O   0  0  0  0  0  0
  -28.3872  -26.4546   20.3257 O   0  0  0  0  0  0
  -26.5631  -34.8922   22.4716 O   0  0  0  0  0  0
  -23.5358  -32.1394   23.7303 O   0  0  0  0  0  0
  -30.8058  -17.6634   19.3604 C   0  0  0  0  0  0
  -30.3075  -20.0479   19.4279 C   0  0  0  0  0  0
  -30.9087  -18.9482   18.8020 C   0  0  0  0  0  0
  -30.0754  -17.4236   20.5383 C   0  0  0  0  0  0
  -29.6232  -19.8647   20.6353 C   0  0  0  0  0  0
  -27.0079  -22.2483   20.8609 C   0  0  0  0  0  0
  -28.9905  -25.0342   18.5136 C   0  0  0  0  0  0
  -29.0586  -23.8075   20.8244 C   0  0  0  0  0  0
  -28.5257  -22.2709   20.5803 C   0  0  1  0  0  0
  -28.3928  -25.0072   19.9323 C   0  0  1  0  0  0
  -29.5091  -18.5604   21.1586 N   0  0  0  0  0  0
  -29.9098  -15.9686   20.9273 N   0  0  0  0  0  0
  -29.1300  -21.0577   21.2963 N   0  0  0  0  0  0
  -31.5972  -19.1215   17.6550 F   0  0  0  0  0  0
  -31.4736  -12.6504   19.2105 H   0  0  0  0  0  0
  -30.4063  -11.5454   20.0154 H   0  0  0  0  0  0
  -29.8556  -11.7552   17.5735 H   0  0  0  0  0  0
  -29.6501  -13.4789   17.7434 H   0  0  0  0  0  0
  -27.9186  -11.2900   18.9365 H   0  0  0  0  0  0
  -27.4081  -12.5138   17.7990 H   0  0  0  0  0  0
  -27.6373  -14.2669   19.4579 H   0  0  0  0  0  0
  -28.7023  -12.2367   21.4750 H   0  0  0  0  0  0
  -28.3677  -13.9290   21.7744 H   0  0  0  0  0  0
  -25.2769   -9.5812   22.4727 H   0  0  0  0  0  0
  -24.0047   -7.4720   22.7464 H   0  0  0  0  0  0
  -21.0822   -8.8877   19.8949 H   0  0  0  0  0  0
  -22.3709  -10.9757   19.6135 H   0  0  0  0  0  0
  -21.2121   -7.6188   23.9771 H   0  0  0  0  0  0
  -21.1406   -6.0483   25.9079 H   0  0  0  0  0  0
  -22.0638   -2.7637   23.2749 H   0  0  0  0  0  0
  -22.4004  -12.0043   22.4827 H   0  0  0  0  0  0
  -21.1054  -13.1452   22.2473 H   0  0  0  0  0  0
  -24.6647  -15.8617   20.4868 H   0  0  0  0  0  0
  -26.2868  -15.6205   20.0751 H   0  0  0  0  0  0
  -26.7141  -32.5490   23.1102 H   0  0  0  0  0  0
  -24.9891  -33.9733   25.0352 H   0  0  0  0  0  0
  -22.7136  -31.2936   21.3970 H   0  0  0  0  0  0
  -23.3721  -35.9661   23.3269 H   0  0  0  0  0  0
  -24.3573  -36.8963   22.2072 H   0  0  0  0  0  0
  -23.7232  -37.6499   23.6678 H   0  0  0  0  0  0
  -26.0604  -31.5377   20.5821 H   0  0  0  0  0  0
  -26.8472  -30.8721   21.9792 H   0  0  0  0  0  0
  -28.0930  -28.9555   21.2924 H   0  0  0  0  0  0
  -26.0361  -25.9578   18.9406 H   0  0  0  0  0  0
  -24.0348  -27.3272   18.9410 H   0  0  0  0  0  0
  -23.7490  -30.5786   19.3965 H   0  0  0  0  0  0
  -22.7692  -29.2214   19.8591 H   0  0  0  0  0  0
  -25.1258  -36.1928   25.0818 H   0  0  0  0  0  0
  -20.9980  -28.3221   24.1469 H   0  0  0  0  0  0
  -20.5701  -26.2270   23.3642 H   0  0  0  0  0  0
  -21.6636  -26.7475   22.1222 H   0  0  0  0  0  0
  -19.6898  -25.6312   21.1258 H   0  0  0  0  0  0
  -19.6655  -27.3227   20.6813 H   0  0  0  0  0  0
  -17.4213  -26.6711   21.4043 H   0  0  0  0  0  0
  -18.0287  -26.0069   22.9039 H   0  0  0  0  0  0
  -19.7915  -30.7271   24.2330 H   0  0  0  0  0  0
  -17.4981  -31.6269   24.5160 H   0  0  0  0  0  0
  -15.5335  -30.2999   23.7589 H   0  0  0  0  0  0
  -15.8677  -28.0818   22.7065 H   0  0  0  0  0  0
  -24.5881  -30.7016   25.7784 H   0  0  0  0  0  0
  -24.8879  -32.2860   26.4843 H   0  0  0  0  0  0
  -25.8048  -30.8899   27.0225 H   0  0  0  0  0  0
  -26.2761  -29.6783   24.1071 H   0  0  0  0  0  0
  -27.3991  -29.7154   25.4466 H   0  0  0  0  0  0
  -27.8620  -30.4286   23.9185 H   0  0  0  0  0  0
  -27.2640  -33.3571   26.2024 H   0  0  0  0  0  0
  -28.3812  -32.6824   25.0251 H   0  0  0  0  0  0
  -28.0699  -31.8386   26.5349 H   0  0  0  0  0  0
  -28.2567  -38.0105   24.7519 H   0  0  0  0  0  0
  -28.1073  -36.2634   24.6220 H   0  0  0  0  0  0
  -27.2313  -37.1387   25.8865 H   0  0  0  0  0  0
  -20.9373  -29.8734   21.6919 H   0  0  0  0  0  0
  -26.0129  -38.2843   24.1458 H   0  0  0  0  0  0
  -31.2909  -16.8569   18.8192 H   0  0  0  0  0  0
  -30.4238  -21.0231   18.9824 H   0  0  0  0  0  0
  -26.4626  -22.8534   20.1350 H   0  0  0  0  0  0
  -26.7680  -22.6369   21.8600 H   0  0  0  0  0  0
  -26.5995  -21.2366   20.7837 H   0  0  0  0  0  0
  -29.2082  -24.0360   18.1449 H   0  0  0  0  0  0
  -29.9228  -25.6014   18.4827 H   0  0  0  0  0  0
  -28.3171  -25.5106   17.8090 H   0  0  0  0  0  0
  -30.1391  -23.8380   20.6512 H   0  0  0  0  0  0
  -28.9499  -24.0730   21.8830 H   0  0  0  0  0  0
  -28.6619  -22.0837   19.5166 H   0  0  0  0  0  0
  -27.3519  -24.7106   19.8749 H   0  0  0  0  0  0
  -29.0629  -15.7757   21.4366 H   0  0  0  0  0  0
  -28.7176  -20.8784   22.2088 H   0  0  0  0  0  0
  1 25  1  0  0  0
  1 30  2  0  0  0
  1 82  1  0  0  0
  2  3  1  0  0  0
  2 25  1  0  0  0
  2 85  1  0  0  0
  2 86  1  0  0  0
  3  4  1  0  0  0
  3 87  1  0  0  0
  3 88  1  0  0  0
  4  5  1  0  0  0
  4 89  1  0  0  0
  4 90  1  0  0  0
  5  6  1  0  0  0
  5 26  1  0  0  0
  5 91  1  0  0  0
  6 25  1  0  0  0
  6 92  1  0  0  0
  6 93  1  0  0  0
  7  8  2  0  0  0
  7 26  1  0  0  0
  7 29  1  0  0  0
  8  9  1  0  0  0
  8 22  1  0  0  0
  9 10  1  0  0  0
  9 27  2  0  0  0
 10 11  2  0  0  0
 10 15  1  0  0  0
 11 12  1  0  0  0
 11 94  1  0  0  0
 12 13  2  0  0  0
 12 95  1  0  0  0
 13 14  1  0  0  0
 13 31  1  0  0  0
 14 15  2  0  0  0
 14 96  1  0  0  0
 15 97  1  0  0  0
 16 17  2  0  0  0
 16 21  1  0  0  0
 16 31  1  0  0  0
 17 18  1  0  0  0
 17 98  1  0  0  0
 18 19  2  0  0  0
 18 99  1  0  0  0
 19 20  1  0  0  0
 19 24  1  0  0  0
 20 21  2  0  0  0
 20100  1  0  0  0
 21 23  1  0  0  0
 22 28  1  0  0  0
 22 32  2  0  0  0
 26 27  1  0  0  0
 28101  1  0  0  0
 28102  1  0  0  0
 29103  1  0  0  0
 29104  1  0  0  0
 33 34  1  0  0  0
 33 66  1  0  0  0
 33 70  2  0  0  0
 34 36  1  0  0  0
 34 59  1  0  0  0
 34105  1  0  0  0
 35 44  2  0  0  0
 35 45  1  0  0  0
 35 68  1  0  0  0
 36 56  1  0  0  0
 36106  1  0  0  0
 37 39  1  0  0  0
 37 47  1  0  0  0
 37 66  1  0  0  0
 37107  1  0  0  0
 38 43  2  0  0  0
 38 46  1  0  0  0
 38 47  1  0  0  0
 39 64  1  0  0  0
 39 67  2  0  0  0
 40 52  1  0  0  0
 40 53  2  0  0  0
 40 58  1  0  0  0
 41108  1  0  0  0
 41109  1  0  0  0
 41110  1  0  0  0
 41 48  1  0  0  0
 42 43  1  0  0  0
 42 66  1  0  0  0
 42111  1  0  0  0
 42112  1  0  0  0
 43 44  1  0  0  0
 44113  1  0  0  0
 45 46  2  0  0  0
 45114  1  0  0  0
 46115  1  0  0  0
 47116  1  0  0  0
 47117  1  0  0  0
 48 56  1  0  0  0
 48 65  1  0  0  0
 48118  1  0  0  0
 49 50  1  0  0  0
 49 53  1  0  0  0
 49 64  1  0  0  0
 49119  1  0  0  0
 50 51  1  0  0  0
 50120  1  0  0  0
 50121  1  0  0  0
 51 52  1  0  0  0
 51122  1  0  0  0
 51123  1  0  0  0
 52124  1  0  0  0
 52125  1  0  0  0
 53 54  1  0  0  0
 54 55  2  0  0  0
 54126  1  0  0  0
 55 57  1  0  0  0
 55127  1  0  0  0
 56 69  2  0  0  0
 57 58  2  0  0  0
 57128  1  0  0  0
 58129  1  0  0  0
 59 60  1  0  0  0
 59 61  1  0  0  0
 59 62  1  0  0  0
 60130  1  0  0  0
 60131  1  0  0  0
 60132  1  0  0  0
 61133  1  0  0  0
 61134  1  0  0  0
 61135  1  0  0  0
 62136  1  0  0  0
 62137  1  0  0  0
 62138  1  0  0  0
 63 65  1  0  0  0
 63139  1  0  0  0
 63140  1  0  0  0
 63141  1  0  0  0
 64142  1  0  0  0
 65143  1  0  0  0
 68 80  1  0  0  0
 71 73  2  0  0  0
 71 74  1  0  0  0
 71144  1  0  0  0
 72 73  1  0  0  0
 72 75  2  0  0  0
 72145  1  0  0  0
 73 84  1  0  0  0
 74 81  2  0  0  0
 74 82  1  0  0  0
 75 81  1  0  0  0
 75 83  1  0  0  0
 76146  1  0  0  0
 76147  1  0  0  0
 76148  1  0  0  0
 76 79  1  0  0  0
 77149  1  0  0  0
 77150  1  0  0  0
 77151  1  0  0  0
 77 80  1  0  0  0
 78 79  1  0  0  0
 78 80  1  0  0  0
 78152  1  0  0  0
 78153  1  0  0  0
 79 83  1  0  0  0
 79154  1  0  0  0
 80155  1  0  0  0
 82156  1  0  0  0
 83157  1  0  0  0
M  ISO  4   1 100  68 101  80 101  82 100
M  END
> <chiral flag>
0

> <version>
0

> <s_m_source_file>
/data/baiqing/PycharmProjects/Reinvent-master-3.2/result/LINK_invent/BTK/process_docking_weight1_custom_product_contain_oxygen_bond_distance_aromatic_linkinvent_7_9_3/rearranged_h_0185.sdf

> <i_m_source_file_index>
59

> <r_mmod_Potential_Energy-OPLS-2005>
50.0708656311035

> <r_mmod_Stretch_Energy-OPLS-2005>
154.673370361328

> <r_mmod_Bend_Energy-OPLS-2005>
199.335601806641

> <r_mmod_Torsional_Energy-OPLS-2005>
227.44938659668

> <r_mmod_Improper_Torsional_Energy-OPLS-2005>
5.68465089797974

> <r_mmod_Van_der_Waal_Energy-OPLS-2005>
150.745300292969

> <r_mmod_Electrostatic_Energy-OPLS-2005>
-568.888305664062

> <r_mmod_Solvation_Energy-OPLS-2005>
-216.383361816406

> <b_mmod_Minimization_Converged-OPLS-2005>
0

> <r_mmod_RMS_Derivative-OPLS-2005>
11.4218835830688

$$$$
59
                    3D
 Structure written by MMmdl.
151159  0  0  1  0            999 V2000
  -30.5154  -15.0086   20.4169 C   0  0  0  0  0  0
  -30.4443  -12.6288   19.5063 C   0  0  0  0  0  0
  -29.5250  -12.5401   18.2641 C   0  0  0  0  0  0
  -28.0583  -12.3211   18.6787 C   0  0  0  0  0  0
  -27.6298  -13.2514   19.8433 C   0  0  2  0  0  0
  -28.6738  -13.2863   20.9810 C   0  0  0  0  0  0
  -25.2475  -13.8219   20.5749 C   0  0  0  0  0  0
  -24.1781  -13.0445   20.9246 C   0  0  0  0  0  0
  -24.6396  -11.6930   20.8758 C   0  0  0  0  0  0
  -23.9066  -10.4295   21.0394 C   0  0  0  0  0  0
  -24.3616   -9.4217   21.9178 C   0  0  0  0  0  0
  -23.6295   -8.2249   22.0755 C   0  0  0  0  0  0
  -22.4289   -8.0273   21.3533 C   0  0  0  0  0  0
  -21.9907   -9.0245   20.4642 C   0  0  0  0  0  0
  -22.7232  -10.2127   20.3052 C   0  0  0  0  0  0
  -21.6868   -6.0728   22.5275 C   0  0  0  0  0  0
  -21.4015   -6.5631   23.8202 C   0  0  0  0  0  0
  -21.3665   -5.6787   24.9171 C   0  0  0  0  0  0
  -21.6054   -4.3049   24.7227 C   0  0  0  0  0  0
  -21.8829   -3.8137   23.4343 C   0  0  0  0  0  0
  -21.9200   -4.6953   22.3398 C   0  0  0  0  0  0
  -22.7797  -13.5211   21.1897 C   0  0  0  0  0  0
  -22.1669   -4.2129   21.0974 F   0  0  0  0  0  0
  -21.5633   -3.4540   25.7742 F   0  0  0  0  0  0
  -29.9408  -13.7298   20.3837 N   0  0  0  0  0  0
  -26.2891  -12.9448   20.3274 N   0  0  0  0  0  0
  -25.9328  -11.6568   20.5737 N   0  0  0  0  0  0
  -22.0464  -12.8165   22.0440 N   0  0  0  0  0  0
  -25.4150  -15.1955   20.4172 N   0  0  0  0  0  0
  -31.7160  -15.0693   20.1213 O   0  0  0  0  0  0
  -21.6658   -6.8870   21.4232 O   0  0  0  0  0  0
  -22.3469  -14.5505   20.6748 O   0  0  0  0  0  0
  -24.6457  -31.8406   23.1848 C   0  0  0  0  0  0
  -25.9211  -32.4700   23.8255 C   0  0  1  0  0  0
  -27.2192  -27.0873   20.1698 C   0  0  0  0  0  0
  -25.5943  -33.8505   24.2167 N   0  0  0  0  0  0
  -23.4541  -30.4562   21.5330 C   0  0  2  0  0  0
  -24.9072  -28.8741   20.1172 C   0  0  0  0  0  0
  -22.7599  -29.4512   22.4868 C   0  0  0  0  0  0
  -18.0307  -28.1372   22.8495 C   0  0  0  0  0  0
  -24.1481  -36.7247   23.2641 C   0  0  0  0  0  0
  -26.0135  -30.6991   21.3923 C   0  0  0  0  0  0
  -26.0863  -29.3036   20.7387 C   0  0  0  0  0  0
  -27.2445  -28.4293   20.7421 C   0  0  0  0  0  0
  -26.0171  -26.7757   19.4974 C   0  0  0  0  0  0
  -24.8901  -27.6264   19.4771 C   0  0  0  0  0  0
  -23.6843  -29.7805   20.1554 C   0  0  0  0  0  0
  -25.4127  -36.3047   24.0306 C   0  0  1  0  0  0
  -20.5921  -28.3696   23.1239 C   0  0  2  0  0  0
  -20.6777  -26.9400   22.5412 C   0  0  0  0  0  0
  -19.5752  -26.6367   21.5215 C   0  0  0  0  0  0
  -18.1937  -26.7919   22.1625 C   0  0  0  0  0  0
  -19.1566  -28.8861   23.2850 C   0  0  0  0  0  0
  -18.9475  -30.1457   23.8882 C   0  0  0  0  0  0
  -17.6470  -30.6581   24.0552 C   0  0  0  0  0  0
  -25.9081  -34.9419   23.5052 C   0  0  0  0  0  0
  -16.5364  -29.9068   23.6340 C   0  0  0  0  0  0
  -16.7290  -28.6472   23.0395 C   0  0  0  0  0  0
  -26.4508  -31.6589   25.0715 C   0  0  0  0  0  0
  -25.3649  -31.3797   26.1376 C   0  0  0  0  0  0
  -27.0372  -30.2992   24.6307 C   0  0  0  0  0  0
  -27.6043  -32.4342   25.7499 C   0  0  0  0  0  0
  -27.5589  -37.1783   24.8464 C   0  0  0  0  0  0
  -21.4282  -29.3018   22.3618 N   0  0  0  0  0  0
  -26.4295  -37.3766   23.9412 N   0  0  0  0  0  0
  -24.7251  -31.0213   22.0914 N   0  0  0  0  0  0
  -23.4226  -28.8062   23.3033 O   0  0  0  0  0  0
  -28.2596  -26.0697   20.2196 O   0  0  0  0  0  0
  -26.5686  -34.8920   22.4644 O   0  0  0  0  0  0
  -23.5564  -32.1292   23.7040 O   0  0  0  0  0  0
  -29.4140  -20.1964   20.3586 C   0  0  0  0  0  0
  -30.7494  -20.1315   19.9693 C   0  0  0  0  0  0
  -29.9290  -17.7151   20.4325 C   0  0  0  0  0  0
  -28.5338  -21.5399   20.4939 C   0  0  0  0  0  0
  -27.6224  -24.5522   21.9764 C   0  0  0  0  0  0
  -28.9553  -23.1522   20.1755 C   0  0  2  0  0  0
  -27.9607  -24.5321   20.4745 C   0  0  2  0  0  0
  -29.0107  -18.7708   20.6087 N   0  0  0  0  0  0
  -31.5972  -21.1715   19.5913 N   0  0  0  0  0  0
  -29.7174  -16.1881   20.6046 N   0  0  0  0  0  0
  -27.3585  -21.4133   20.8561 O   0  0  0  0  0  0
  -29.2223  -23.2744   18.7849 O   0  0  0  0  0  0
  -31.4420  -18.4777   19.9352 S   0  0  0  0  0  0
  -31.4746  -12.7997   19.1907 H   0  0  0  0  0  0
  -30.4587  -11.6810   20.0472 H   0  0  0  0  0  0
  -29.8533  -11.7320   17.6075 H   0  0  0  0  0  0
  -29.6042  -13.4583   17.6803 H   0  0  0  0  0  0
  -27.9577  -11.2790   18.9836 H   0  0  0  0  0  0
  -27.3991  -12.4550   17.8209 H   0  0  0  0  0  0
  -27.5905  -14.2533   19.4161 H   0  0  0  0  0  0
  -28.7805  -12.3034   21.4440 H   0  0  0  0  0  0
  -28.3633  -13.9657   21.7747 H   0  0  0  0  0  0
  -25.2767   -9.5693   22.4745 H   0  0  0  0  0  0
  -24.0017   -7.4639   22.7469 H   0  0  0  0  0  0
  -21.0848   -8.8745   19.8938 H   0  0  0  0  0  0
  -22.3682  -10.9656   19.6151 H   0  0  0  0  0  0
  -21.1993   -7.6142   23.9688 H   0  0  0  0  0  0
  -21.1483   -6.0529   25.9066 H   0  0  0  0  0  0
  -22.0597   -2.7597   23.2865 H   0  0  0  0  0  0
  -22.4129  -11.9827   22.4800 H   0  0  0  0  0  0
  -21.1057  -13.1125   22.2641 H   0  0  0  0  0  0
  -24.6540  -15.8509   20.5527 H   0  0  0  0  0  0
  -26.2447  -15.6302   20.0369 H   0  0  0  0  0  0
  -26.7274  -32.5290   23.0975 H   0  0  0  0  0  0
  -25.0066  -33.9619   25.0299 H   0  0  0  0  0  0
  -22.7552  -31.2802   21.3741 H   0  0  0  0  0  0
  -23.3781  -35.9544   23.3278 H   0  0  0  0  0  0
  -24.3565  -36.8911   22.2067 H   0  0  0  0  0  0
  -23.7185  -37.6407   23.6696 H   0  0  0  0  0  0
  -26.1722  -31.4481   20.6158 H   0  0  0  0  0  0
  -26.8825  -30.7573   22.0350 H   0  0  0  0  0  0
  -28.1433  -28.7591   21.2452 H   0  0  0  0  0  0
  -25.9195  -25.8328   18.9817 H   0  0  0  0  0  0
  -23.9957  -27.2956   18.9664 H   0  0  0  0  0  0
  -23.8205  -30.5503   19.3957 H   0  0  0  0  0  0
  -22.7981  -29.2217   19.8484 H   0  0  0  0  0  0
  -25.1318  -36.1890   25.0798 H   0  0  0  0  0  0
  -21.0001  -28.3284   24.1362 H   0  0  0  0  0  0
  -20.5654  -26.2313   23.3633 H   0  0  0  0  0  0
  -21.6640  -26.7386   22.1213 H   0  0  0  0  0  0
  -19.6901  -25.6269   21.1259 H   0  0  0  0  0  0
  -19.6689  -27.3161   20.6732 H   0  0  0  0  0  0
  -17.4208  -26.6688   21.4025 H   0  0  0  0  0  0
  -18.0319  -26.0053   22.9007 H   0  0  0  0  0  0
  -19.7950  -30.7273   24.2250 H   0  0  0  0  0  0
  -17.5021  -31.6274   24.5123 H   0  0  0  0  0  0
  -15.5360  -30.2957   23.7659 H   0  0  0  0  0  0
  -15.8693  -28.0757   22.7156 H   0  0  0  0  0  0
  -24.5838  -30.7147   25.7660 H   0  0  0  0  0  0
  -24.8815  -32.2985   26.4712 H   0  0  0  0  0  0
  -25.7871  -30.9007   27.0219 H   0  0  0  0  0  0
  -26.2994  -29.6731   24.1279 H   0  0  0  0  0  0
  -27.3948  -29.7282   25.4882 H   0  0  0  0  0  0
  -27.8915  -30.4241   23.9653 H   0  0  0  0  0  0
  -27.2667  -33.3670   26.2026 H   0  0  0  0  0  0
  -28.3891  -32.6862   25.0353 H   0  0  0  0  0  0
  -28.0675  -31.8500   26.5460 H   0  0  0  0  0  0
  -28.2584  -38.0105   24.7565 H   0  0  0  0  0  0
  -28.1106  -36.2642   24.6230 H   0  0  0  0  0  0
  -27.2305  -37.1353   25.8862 H   0  0  0  0  0  0
  -20.9508  -29.8739   21.6793 H   0  0  0  0  0  0
  -26.0167  -38.2826   24.1450 H   0  0  0  0  0  0
  -27.2683  -23.5877   22.3353 H   0  0  0  0  0  0
  -26.8437  -25.2805   22.2002 H   0  0  0  0  0  0
  -28.4980  -24.8198   22.5683 H   0  0  0  0  0  0
  -29.8952  -23.3138   20.7052 H   0  0  0  0  0  0
  -27.0314  -24.3043   19.9560 H   0  0  0  0  0  0
  -31.2227  -22.0139   19.1579 H   0  0  0  0  0  0
  -32.5348  -20.9717   19.2515 H   0  0  0  0  0  0
  -28.7743  -15.9590   20.8705 H   0  0  0  0  0  0
  -29.4303  -24.1908   18.6304 H   0  0  0  0  0  0
  1 25  1  0  0  0
  1 30  2  0  0  0
  1 80  1  0  0  0
  2  3  1  0  0  0
  2 25  1  0  0  0
  2 84  1  0  0  0
  2 85  1  0  0  0
  3  4  1  0  0  0
  3 86  1  0  0  0
  3 87  1  0  0  0
  4  5  1  0  0  0
  4 88  1  0  0  0
  4 89  1  0  0  0
  5  6  1  0  0  0
  5 26  1  0  0  0
  5 90  1  0  0  0
  6 25  1  0  0  0
  6 91  1  0  0  0
  6 92  1  0  0  0
  7  8  2  0  0  0
  7 26  1  0  0  0
  7 29  1  0  0  0
  8  9  1  0  0  0
  8 22  1  0  0  0
  9 10  1  0  0  0
  9 27  2  0  0  0
 10 11  2  0  0  0
 10 15  1  0  0  0
 11 12  1  0  0  0
 11 93  1  0  0  0
 12 13  2  0  0  0
 12 94  1  0  0  0
 13 14  1  0  0  0
 13 31  1  0  0  0
 14 15  2  0  0  0
 14 95  1  0  0  0
 15 96  1  0  0  0
 16 17  2  0  0  0
 16 21  1  0  0  0
 16 31  1  0  0  0
 17 18  1  0  0  0
 17 97  1  0  0  0
 18 19  2  0  0  0
 18 98  1  0  0  0
 19 20  1  0  0  0
 19 24  1  0  0  0
 20 21  2  0  0  0
 20 99  1  0  0  0
 21 23  1  0  0  0
 22 28  1  0  0  0
 22 32  2  0  0  0
 26 27  1  0  0  0
 28100  1  0  0  0
 28101  1  0  0  0
 29102  1  0  0  0
 29103  1  0  0  0
 33 34  1  0  0  0
 33 66  1  0  0  0
 33 70  2  0  0  0
 34 36  1  0  0  0
 34 59  1  0  0  0
 34104  1  0  0  0
 35 44  2  0  0  0
 35 45  1  0  0  0
 35 68  1  0  0  0
 36 56  1  0  0  0
 36105  1  0  0  0
 37 39  1  0  0  0
 37 47  1  0  0  0
 37 66  1  0  0  0
 37106  1  0  0  0
 38 43  2  0  0  0
 38 46  1  0  0  0
 38 47  1  0  0  0
 39 64  1  0  0  0
 39 67  2  0  0  0
 40 52  1  0  0  0
 40 53  2  0  0  0
 40 58  1  0  0  0
 41107  1  0  0  0
 41108  1  0  0  0
 41109  1  0  0  0
 41 48  1  0  0  0
 42 43  1  0  0  0
 42 66  1  0  0  0
 42110  1  0  0  0
 42111  1  0  0  0
 43 44  1  0  0  0
 44112  1  0  0  0
 45 46  2  0  0  0
 45113  1  0  0  0
 46114  1  0  0  0
 47115  1  0  0  0
 47116  1  0  0  0
 48 56  1  0  0  0
 48 65  1  0  0  0
 48117  1  0  0  0
 49 50  1  0  0  0
 49 53  1  0  0  0
 49 64  1  0  0  0
 49118  1  0  0  0
 50 51  1  0  0  0
 50119  1  0  0  0
 50120  1  0  0  0
 51 52  1  0  0  0
 51121  1  0  0  0
 51122  1  0  0  0
 52123  1  0  0  0
 52124  1  0  0  0
 53 54  1  0  0  0
 54 55  2  0  0  0
 54125  1  0  0  0
 55 57  1  0  0  0
 55126  1  0  0  0
 56 69  2  0  0  0
 57 58  2  0  0  0
 57127  1  0  0  0
 58128  1  0  0  0
 59 60  1  0  0  0
 59 61  1  0  0  0
 59 62  1  0  0  0
 60129  1  0  0  0
 60130  1  0  0  0
 60131  1  0  0  0
 61132  1  0  0  0
 61133  1  0  0  0
 61134  1  0  0  0
 62135  1  0  0  0
 62136  1  0  0  0
 62137  1  0  0  0
 63 65  1  0  0  0
 63138  1  0  0  0
 63139  1  0  0  0
 63140  1  0  0  0
 64141  1  0  0  0
 65142  1  0  0  0
 68 77  1  0  0  0
 71 72  2  0  0  0
 71 74  1  0  0  0
 71 78  1  0  0  0
 72 79  1  0  0  0
 72 83  1  0  0  0
 73 78  2  0  0  0
 73 80  1  0  0  0
 73 83  1  0  0  0
 74 76  1  0  0  0
 74 81  2  0  0  0
 75143  1  0  0  0
 75144  1  0  0  0
 75145  1  0  0  0
 75 77  1  0  0  0
 76 77  1  0  0  0
 76 82  1  0  0  0
 76146  1  0  0  0
 77147  1  0  0  0
 79148  1  0  0  0
 79149  1  0  0  0
 80150  1  0  0  0
 82151  1  0  0  0
M  ISO  4   1 100  68 101  77 101  80 100
M  END
> <chiral flag>
0

> <version>
0

> <s_m_source_file>
/data/baiqing/PycharmProjects/Reinvent-master-3.2/result/LINK_invent/BTK/process_docking_weight1_custom_product_contain_oxygen_bond_distance_aromatic_linkinvent_7_9_3/rearranged_h_0185.sdf

> <i_m_source_file_index>
60

> <r_mmod_Potential_Energy-OPLS-2005>
754.508422851562

> <r_mmod_Stretch_Energy-OPLS-2005>
328.110717773438

> <r_mmod_Bend_Energy-OPLS-2005>
277.713592529297

> <r_mmod_Torsional_Energy-OPLS-2005>
240.540802001953

> <r_mmod_Improper_Torsional_Energy-OPLS-2005>
6.3242769241333

> <r_mmod_Van_der_Waal_Energy-OPLS-2005>
107.007827758789

> <r_mmod_Electrostatic_Energy-OPLS-2005>
-200.642303466797

> <r_mmod_Solvation_Energy-OPLS-2005>
-239.328308105469

> <b_mmod_Minimization_Converged-OPLS-2005>
0

> <r_mmod_RMS_Derivative-OPLS-2005>
2.8275043964386

$$$$
60
                    3D
 Structure written by MMmdl.
162170  0  0  1  0            999 V2000
  -30.5210  -14.8832   20.4334 C   0  0  0  0  0  0
  -30.4517  -12.5412   19.4866 C   0  0  0  0  0  0
  -29.5239  -12.5248   18.2481 C   0  0  0  0  0  0
  -28.0531  -12.3191   18.6626 C   0  0  0  0  0  0
  -27.6388  -13.2318   19.8455 C   0  0  2  0  0  0
  -28.6827  -13.2003   20.9833 C   0  0  0  0  0  0
  -25.2505  -13.8173   20.5683 C   0  0  0  0  0  0
  -24.1805  -13.0430   20.9235 C   0  0  0  0  0  0
  -24.6392  -11.6906   20.8757 C   0  0  0  0  0  0
  -23.9063  -10.4287   21.0415 C   0  0  0  0  0  0
  -24.3615   -9.4202   21.9190 C   0  0  0  0  0  0
  -23.6291   -8.2237   22.0755 C   0  0  0  0  0  0
  -22.4272   -8.0277   21.3544 C   0  0  0  0  0  0
  -21.9908   -9.0252   20.4647 C   0  0  0  0  0  0
  -22.7236  -10.2132   20.3061 C   0  0  0  0  0  0
  -21.6851   -6.0732   22.5276 C   0  0  0  0  0  0
  -21.4014   -6.5636   23.8209 C   0  0  0  0  0  0
  -21.3660   -5.6790   24.9173 C   0  0  0  0  0  0
  -21.6045   -4.3052   24.7224 C   0  0  0  0  0  0
  -21.8819   -3.8143   23.4344 C   0  0  0  0  0  0
  -21.9193   -4.6960   22.3400 C   0  0  0  0  0  0
  -22.7828  -13.5222   21.1882 C   0  0  0  0  0  0
  -22.1662   -4.2147   21.0978 F   0  0  0  0  0  0
  -21.5631   -3.4536   25.7737 F   0  0  0  0  0  0
  -29.9701  -13.6089   20.4018 N   0  0  0  0  0  0
  -26.2919  -12.9376   20.3235 N   0  0  0  0  0  0
  -25.9319  -11.6524   20.5732 N   0  0  0  0  0  0
  -22.0460  -12.8218   22.0430 N   0  0  0  0  0  0
  -25.4178  -15.1892   20.4035 N   0  0  0  0  0  0
  -31.7123  -15.0153   20.1270 O   0  0  0  0  0  0
  -21.6638   -6.8874   21.4237 O   0  0  0  0  0  0
  -22.3524  -14.5528   20.6719 O   0  0  0  0  0  0
  -24.6399  -31.8457   23.1892 C   0  0  0  0  0  0
  -25.9182  -32.4705   23.8273 C   0  0  1  0  0  0
  -27.2310  -27.1771   20.1328 C   0  0  0  0  0  0
  -25.5937  -33.8509   24.2192 N   0  0  0  0  0  0
  -23.4415  -30.4649   21.5335 C   0  0  2  0  0  0
  -24.8899  -28.8930   20.1100 C   0  0  0  0  0  0
  -22.7546  -29.4554   22.4866 C   0  0  0  0  0  0
  -18.0297  -28.1400   22.8478 C   0  0  0  0  0  0
  -24.1487  -36.7263   23.2642 C   0  0  0  0  0  0
  -25.9931  -30.7327   21.3791 C   0  0  0  0  0  0
  -26.0646  -29.3465   20.7211 C   0  0  0  0  0  0
  -27.2313  -28.5026   20.7171 C   0  0  0  0  0  0
  -26.0165  -26.7980   19.5199 C   0  0  0  0  0  0
  -24.8751  -27.6294   19.4984 C   0  0  0  0  0  0
  -23.6656  -29.7919   20.1527 C   0  0  0  0  0  0
  -25.4118  -36.3038   24.0317 C   0  0  1  0  0  0
  -20.5906  -28.3718   23.1248 C   0  0  2  0  0  0
  -20.6779  -26.9423   22.5411 C   0  0  0  0  0  0
  -19.5754  -26.6385   21.5215 C   0  0  0  0  0  0
  -18.1935  -26.7939   22.1625 C   0  0  0  0  0  0
  -19.1553  -28.8876   23.2857 C   0  0  0  0  0  0
  -18.9471  -30.1472   23.8884 C   0  0  0  0  0  0
  -17.6469  -30.6596   24.0563 C   0  0  0  0  0  0
  -25.9067  -34.9413   23.5065 C   0  0  0  0  0  0
  -16.5360  -29.9094   23.6332 C   0  0  0  0  0  0
  -16.7283  -28.6513   23.0352 C   0  0  0  0  0  0
  -26.4515  -31.6570   25.0709 C   0  0  0  0  0  0
  -25.3710  -31.3758   26.1415 C   0  0  0  0  0  0
  -27.0374  -30.2971   24.6265 C   0  0  0  0  0  0
  -27.6045  -32.4335   25.7498 C   0  0  0  0  0  0
  -27.5574  -37.1785   24.8462 C   0  0  0  0  0  0
  -21.4241  -29.3051   22.3626 N   0  0  0  0  0  0
  -26.4282  -37.3750   23.9409 N   0  0  0  0  0  0
  -24.7111  -31.0350   22.0899 N   0  0  0  0  0  0
  -23.4206  -28.8103   23.3003 O   0  0  0  0  0  0
  -28.3405  -26.2681   20.2141 O   0  0  0  0  0  0
  -26.5656  -34.8908   22.4646 O   0  0  0  0  0  0
  -23.5528  -32.1312   23.7139 O   0  0  0  0  0  0
  -28.2945  -18.0866   20.4858 C   0  0  0  0  0  0
  -29.0124  -20.3591   20.0861 C   0  0  0  0  0  0
  -29.5920  -17.4756   20.4743 C   0  0  0  0  0  0
  -30.3381  -19.7677   20.1677 C   0  0  0  0  0  0
  -29.4339  -20.6939   17.1786 C   0  0  0  0  0  0
  -28.1301  -25.0324   18.0475 C   0  0  0  0  0  0
  -27.0585  -21.7141   19.0975 C   0  0  0  0  0  0
  -29.2934  -21.9603   18.0520 C   0  0  0  0  0  0
  -28.6129  -23.3366   20.2216 C   0  0  0  0  0  0
  -28.5369  -24.8953   19.5315 C   0  0  2  0  0  0
  -28.5728  -21.8352   19.4324 C   0  0  2  0  0  0
  -28.0198  -19.4310   20.2998 N   0  0  0  0  0  0
  -30.6079  -18.4044   20.3413 N   0  0  0  0  0  0
  -31.4775  -20.5487   20.0260 N   0  0  0  0  0  0
  -29.6419  -15.9637   20.6372 N   0  0  0  0  0  0
  -31.4853  -12.7073   19.1785 H   0  0  0  0  0  0
  -30.4426  -11.5736   19.9906 H   0  0  0  0  0  0
  -29.8316  -11.7388   17.5570 H   0  0  0  0  0  0
  -29.6222  -13.4653   17.7035 H   0  0  0  0  0  0
  -27.9355  -11.2732   18.9484 H   0  0  0  0  0  0
  -27.3917  -12.4772   17.8098 H   0  0  0  0  0  0
  -27.6189  -14.2443   19.4430 H   0  0  0  0  0  0
  -28.7529  -12.2030   21.4202 H   0  0  0  0  0  0
  -28.3904  -13.8667   21.7964 H   0  0  0  0  0  0
  -25.2760   -9.5681   22.4765 H   0  0  0  0  0  0
  -24.0001   -7.4626   22.7470 H   0  0  0  0  0  0
  -21.0841   -8.8771   19.8949 H   0  0  0  0  0  0
  -22.3695  -10.9674   19.6172 H   0  0  0  0  0  0
  -21.2005   -7.6145   23.9713 H   0  0  0  0  0  0
  -21.1485   -6.0520   25.9076 H   0  0  0  0  0  0
  -22.0598   -2.7605   23.2843 H   0  0  0  0  0  0
  -22.4074  -11.9888   22.4835 H   0  0  0  0  0  0
  -21.1075  -13.1246   22.2621 H   0  0  0  0  0  0
  -24.6281  -15.8215   20.4778 H   0  0  0  0  0  0
  -26.2082  -15.6027   19.9292 H   0  0  0  0  0  0
  -26.7249  -32.5322   23.1007 H   0  0  0  0  0  0
  -25.0049  -33.9622   25.0317 H   0  0  0  0  0  0
  -22.7426  -31.2896   21.3797 H   0  0  0  0  0  0
  -23.3751  -35.9592   23.3288 H   0  0  0  0  0  0
  -24.3572  -36.8913   22.2060 H   0  0  0  0  0  0
  -23.7240  -37.6455   23.6691 H   0  0  0  0  0  0
  -26.1408  -31.4884   20.6065 H   0  0  0  0  0  0
  -26.8667  -30.7845   22.0174 H   0  0  0  0  0  0
  -28.1302  -28.8488   21.2076 H   0  0  0  0  0  0
  -25.9121  -25.8161   19.0871 H   0  0  0  0  0  0
  -23.9707  -27.2683   19.0284 H   0  0  0  0  0  0
  -23.8015  -30.5651   19.3957 H   0  0  0  0  0  0
  -22.7812  -29.2325   19.8430 H   0  0  0  0  0  0
  -25.1306  -36.1864   25.0809 H   0  0  0  0  0  0
  -20.9999  -28.3306   24.1368 H   0  0  0  0  0  0
  -20.5664  -26.2333   23.3628 H   0  0  0  0  0  0
  -21.6647  -26.7427   22.1214 H   0  0  0  0  0  0
  -19.6911  -25.6289   21.1260 H   0  0  0  0  0  0
  -19.6692  -27.3182   20.6734 H   0  0  0  0  0  0
  -17.4203  -26.6681   21.4030 H   0  0  0  0  0  0
  -18.0332  -26.0090   22.9029 H   0  0  0  0  0  0
  -19.7947  -30.7290   24.2250 H   0  0  0  0  0  0
  -17.5024  -31.6273   24.5170 H   0  0  0  0  0  0
  -15.5361  -30.2994   23.7663 H   0  0  0  0  0  0
  -15.8681  -28.0831   22.7073 H   0  0  0  0  0  0
  -24.5887  -30.7103   25.7748 H   0  0  0  0  0  0
  -24.8900  -32.2941   26.4794 H   0  0  0  0  0  0
  -25.8004  -30.8967   27.0224 H   0  0  0  0  0  0
  -26.2980  -29.6703   24.1265 H   0  0  0  0  0  0
  -27.3991  -29.7262   25.4828 H   0  0  0  0  0  0
  -27.8885  -30.4216   23.9567 H   0  0  0  0  0  0
  -27.2629  -33.3646   26.2033 H   0  0  0  0  0  0
  -28.3882  -32.6880   25.0350 H   0  0  0  0  0  0
  -28.0683  -31.8490   26.5454 H   0  0  0  0  0  0
  -28.2581  -38.0091   24.7515 H   0  0  0  0  0  0
  -28.1080  -36.2622   24.6278 H   0  0  0  0  0  0
  -27.2293  -37.1422   25.8864 H   0  0  0  0  0  0
  -20.9442  -29.8783   21.6827 H   0  0  0  0  0  0
  -26.0149  -38.2816   24.1420 H   0  0  0  0  0  0
  -27.4206  -17.4655   20.6177 H   0  0  0  0  0  0
  -29.7753  -20.9665   16.1796 H   0  0  0  0  0  0
  -28.4859  -20.1712   17.0568 H   0  0  0  0  0  0
  -30.1620  -19.9834   17.5636 H   0  0  0  0  0  0
  -28.9222  -24.6967   17.3809 H   0  0  0  0  0  0
  -27.9897  -26.0758   17.7675 H   0  0  0  0  0  0
  -27.2108  -24.5084   17.7991 H   0  0  0  0  0  0
  -26.8392  -20.8717   18.4420 H   0  0  0  0  0  0
  -26.6615  -22.5962   18.6038 H   0  0  0  0  0  0
  -26.4654  -21.5785   20.0028 H   0  0  0  0  0  0
  -28.7448  -22.6482   17.4231 H   0  0  0  0  0  0
  -30.2835  -22.3942   18.1938 H   0  0  0  0  0  0
  -27.8449  -23.3053   20.9949 H   0  0  0  0  0  0
  -29.5401  -23.3285   20.7957 H   0  0  0  0  0  0
  -29.6140  -25.0236   19.4141 H   0  0  0  0  0  0
  -31.3844  -21.4888   19.6614 H   0  0  0  0  0  0
  -32.3639  -20.1021   19.8246 H   0  0  0  0  0  0
  -28.7327  -15.5967   20.8676 H   0  0  0  0  0  0
  1 25  1  0  0  0
  1 30  2  0  0  0
  1 85  1  0  0  0
  2  3  1  0  0  0
  2 25  1  0  0  0
  2 86  1  0  0  0
  2 87  1  0  0  0
  3  4  1  0  0  0
  3 88  1  0  0  0
  3 89  1  0  0  0
  4  5  1  0  0  0
  4 90  1  0  0  0
  4 91  1  0  0  0
  5  6  1  0  0  0
  5 26  1  0  0  0
  5 92  1  0  0  0
  6 25  1  0  0  0
  6 93  1  0  0  0
  6 94  1  0  0  0
  7  8  2  0  0  0
  7 26  1  0  0  0
  7 29  1  0  0  0
  8  9  1  0  0  0
  8 22  1  0  0  0
  9 10  1  0  0  0
  9 27  2  0  0  0
 10 11  2  0  0  0
 10 15  1  0  0  0
 11 12  1  0  0  0
 11 95  1  0  0  0
 12 13  2  0  0  0
 12 96  1  0  0  0
 13 14  1  0  0  0
 13 31  1  0  0  0
 14 15  2  0  0  0
 14 97  1  0  0  0
 15 98  1  0  0  0
 16 17  2  0  0  0
 16 21  1  0  0  0
 16 31  1  0  0  0
 17 18  1  0  0  0
 17 99  1  0  0  0
 18 19  2  0  0  0
 18100  1  0  0  0
 19 20  1  0  0  0
 19 24  1  0  0  0
 20 21  2  0  0  0
 20101  1  0  0  0
 21 23  1  0  0  0
 22 28  1  0  0  0
 22 32  2  0  0  0
 26 27  1  0  0  0
 28102  1  0  0  0
 28103  1  0  0  0
 29104  1  0  0  0
 29105  1  0  0  0
 33 34  1  0  0  0
 33 66  1  0  0  0
 33 70  2  0  0  0
 34 36  1  0  0  0
 34 59  1  0  0  0
 34106  1  0  0  0
 35 44  2  0  0  0
 35 45  1  0  0  0
 35 68  1  0  0  0
 36 56  1  0  0  0
 36107  1  0  0  0
 37 39  1  0  0  0
 37 47  1  0  0  0
 37 66  1  0  0  0
 37108  1  0  0  0
 38 43  2  0  0  0
 38 46  1  0  0  0
 38 47  1  0  0  0
 39 64  1  0  0  0
 39 67  2  0  0  0
 40 52  1  0  0  0
 40 53  2  0  0  0
 40 58  1  0  0  0
 41109  1  0  0  0
 41110  1  0  0  0
 41111  1  0  0  0
 41 48  1  0  0  0
 42 43  1  0  0  0
 42 66  1  0  0  0
 42112  1  0  0  0
 42113  1  0  0  0
 43 44  1  0  0  0
 44114  1  0  0  0
 45 46  2  0  0  0
 45115  1  0  0  0
 46116  1  0  0  0
 47117  1  0  0  0
 47118  1  0  0  0
 48 56  1  0  0  0
 48 65  1  0  0  0
 48119  1  0  0  0
 49 50  1  0  0  0
 49 53  1  0  0  0
 49 64  1  0  0  0
 49120  1  0  0  0
 50 51  1  0  0  0
 50121  1  0  0  0
 50122  1  0  0  0
 51 52  1  0  0  0
 51123  1  0  0  0
 51124  1  0  0  0
 52125  1  0  0  0
 52126  1  0  0  0
 53 54  1  0  0  0
 54 55  2  0  0  0
 54127  1  0  0  0
 55 57  1  0  0  0
 55128  1  0  0  0
 56 69  2  0  0  0
 57 58  2  0  0  0
 57129  1  0  0  0
 58130  1  0  0  0
 59 60  1  0  0  0
 59 61  1  0  0  0
 59 62  1  0  0  0
 60131  1  0  0  0
 60132  1  0  0  0
 60133  1  0  0  0
 61134  1  0  0  0
 61135  1  0  0  0
 61136  1  0  0  0
 62137  1  0  0  0
 62138  1  0  0  0
 62139  1  0  0  0
 63 65  1  0  0  0
 63140  1  0  0  0
 63141  1  0  0  0
 63142  1  0  0  0
 64143  1  0  0  0
 65144  1  0  0  0
 68 80  1  0  0  0
 71 73  2  0  0  0
 71 82  1  0  0  0
 71145  1  0  0  0
 72 74  1  0  0  0
 72 81  1  0  0  0
 72 82  2  0  0  0
 73 83  1  0  0  0
 73 85  1  0  0  0
 74 83  2  0  0  0
 74 84  1  0  0  0
 75 78  1  0  0  0
 75146  1  0  0  0
 75147  1  0  0  0
 75148  1  0  0  0
 76149  1  0  0  0
 76150  1  0  0  0
 76151  1  0  0  0
 76 80  1  0  0  0
 77152  1  0  0  0
 77153  1  0  0  0
 77154  1  0  0  0
 77 81  1  0  0  0
 78 81  1  0  0  0
 78155  1  0  0  0
 78156  1  0  0  0
 79 80  1  0  0  0
 79 81  1  0  0  0
 79157  1  0  0  0
 79158  1  0  0  0
 80159  1  0  0  0
 84160  1  0  0  0
 84161  1  0  0  0
 85162  1  0  0  0
M  ISO  4   1 100  68 101  80 101  85 100
M  END
> <chiral flag>
0

> <version>
0

> <s_m_source_file>
/data/baiqing/PycharmProjects/Reinvent-master-3.2/result/LINK_invent/BTK/process_docking_weight1_custom_product_contain_oxygen_bond_distance_aromatic_linkinvent_7_9_3/rearranged_h_0185.sdf

> <i_m_source_file_index>
61

> <r_mmod_Potential_Energy-OPLS-2005>
549.964782714844

> <r_mmod_Stretch_Energy-OPLS-2005>
243.34651184082

> <r_mmod_Bend_Energy-OPLS-2005>
332.962860107422

> <r_mmod_Torsional_Energy-OPLS-2005>
244.998260498047

> <r_mmod_Improper_Torsional_Energy-OPLS-2005>
9.46301174163818

> <r_mmod_Van_der_Waal_Energy-OPLS-2005>
153.6982421875

> <r_mmod_Electrostatic_Energy-OPLS-2005>
-353.004852294922

> <r_mmod_Solvation_Energy-OPLS-2005>
-230.646499633789

> <b_mmod_Minimization_Converged-OPLS-2005>
0

> <r_mmod_RMS_Derivative-OPLS-2005>
0.462869673967361

$$$$
61
                    3D
 Structure written by MMmdl.
151159  0  0  1  0            999 V2000
  -30.6335  -14.7249   20.4671 C   0  0  0  0  0  0
  -30.4277  -12.4480   19.4624 C   0  0  0  0  0  0
  -29.5077  -12.5065   18.2248 C   0  0  0  0  0  0
  -28.0333  -12.3306   18.6398 C   0  0  0  0  0  0
  -27.6390  -13.2319   19.8425 C   0  0  2  0  0  0
  -28.6852  -13.1713   20.9759 C   0  0  0  0  0  0
  -25.2509  -13.8203   20.5691 C   0  0  0  0  0  0
  -24.1803  -13.0449   20.9216 C   0  0  0  0  0  0
  -24.6395  -11.6927   20.8746 C   0  0  0  0  0  0
  -23.9076  -10.4301   21.0409 C   0  0  0  0  0  0
  -24.3632   -9.4213   21.9186 C   0  0  0  0  0  0
  -23.6309   -8.2246   22.0753 C   0  0  0  0  0  0
  -22.4288   -8.0285   21.3545 C   0  0  0  0  0  0
  -21.9919   -9.0256   20.4647 C   0  0  0  0  0  0
  -22.7246  -10.2135   20.3054 C   0  0  0  0  0  0
  -21.6858   -6.0744   22.5287 C   0  0  0  0  0  0
  -21.4010   -6.5642   23.8220 C   0  0  0  0  0  0
  -21.3657   -5.6792   24.9182 C   0  0  0  0  0  0
  -21.6042   -4.3058   24.7228 C   0  0  0  0  0  0
  -21.8820   -3.8151   23.4348 C   0  0  0  0  0  0
  -21.9189   -4.6967   22.3405 C   0  0  0  0  0  0
  -22.7827  -13.5229   21.1869 C   0  0  0  0  0  0
  -22.1667   -4.2155   21.0984 F   0  0  0  0  0  0
  -21.5624   -3.4538   25.7735 F   0  0  0  0  0  0
  -29.9844  -13.5142   20.3878 N   0  0  0  0  0  0
  -26.2925  -12.9409   20.3243 N   0  0  0  0  0  0
  -25.9320  -11.6549   20.5726 N   0  0  0  0  0  0
  -22.0467  -12.8226   22.0424 N   0  0  0  0  0  0
  -25.4199  -15.1929   20.4116 N   0  0  0  0  0  0
  -31.8311  -14.7958   20.1811 O   0  0  0  0  0  0
  -21.6647   -6.8885   21.4250 O   0  0  0  0  0  0
  -22.3514  -14.5529   20.6707 O   0  0  0  0  0  0
  -24.6307  -31.8567   23.1982 C   0  0  0  0  0  0
  -25.9135  -32.4765   23.8330 C   0  0  1  0  0  0
  -27.2216  -27.2807   20.1326 C   0  0  0  0  0  0
  -25.5935  -33.8562   24.2252 N   0  0  0  0  0  0
  -23.4269  -30.4787   21.5410 C   0  0  2  0  0  0
  -24.8754  -28.9240   20.1132 C   0  0  0  0  0  0
  -22.7494  -29.4620   22.4919 C   0  0  0  0  0  0
  -18.0289  -28.1387   22.8483 C   0  0  0  0  0  0
  -24.1491  -36.7291   23.2637 C   0  0  0  0  0  0
  -25.9708  -30.7763   21.3738 C   0  0  0  0  0  0
  -26.0467  -29.3987   20.7190 C   0  0  0  0  0  0
  -27.2275  -28.5906   20.7150 C   0  0  0  0  0  0
  -26.0322  -26.8668   19.4989 C   0  0  0  0  0  0
  -24.8720  -27.6653   19.4908 C   0  0  0  0  0  0
  -23.6445  -29.8086   20.1587 C   0  0  0  0  0  0
  -25.4118  -36.3077   24.0323 C   0  0  1  0  0  0
  -20.5891  -28.3705   23.1267 C   0  0  2  0  0  0
  -20.6775  -26.9424   22.5408 C   0  0  0  0  0  0
  -19.5754  -26.6383   21.5212 C   0  0  0  0  0  0
  -18.1932  -26.7931   22.1619 C   0  0  0  0  0  0
  -19.1540  -28.8862   23.2873 C   0  0  0  0  0  0
  -18.9459  -30.1455   23.8901 C   0  0  0  0  0  0
  -17.6461  -30.6591   24.0555 C   0  0  0  0  0  0
  -25.9061  -34.9451   23.5093 C   0  0  0  0  0  0
  -16.5351  -29.9090   23.6324 C   0  0  0  0  0  0
  -16.7274  -28.6499   23.0358 C   0  0  0  0  0  0
  -26.4500  -31.6581   25.0716 C   0  0  0  0  0  0
  -25.3714  -31.3733   26.1433 C   0  0  0  0  0  0
  -27.0326  -30.2989   24.6199 C   0  0  0  0  0  0
  -27.6068  -32.4309   25.7488 C   0  0  0  0  0  0
  -27.5588  -37.1792   24.8454 C   0  0  0  0  0  0
  -21.4205  -29.3054   22.3657 N   0  0  0  0  0  0
  -26.4288  -37.3783   23.9416 N   0  0  0  0  0  0
  -24.6953  -31.0545   22.0948 N   0  0  0  0  0  0
  -23.4197  -28.8168   23.3025 O   0  0  0  0  0  0
  -28.3088  -26.3847   20.1400 O   0  0  0  0  0  0
  -26.5637  -34.8925   22.4662 O   0  0  0  0  0  0
  -23.5458  -32.1381   23.7285 O   0  0  0  0  0  0
  -29.4299  -19.1353   19.2952 C   0  0  0  0  0  0
  -29.0680  -20.5481   19.2541 C   0  0  0  0  0  0
  -29.7735  -18.6372   20.5366 C   0  0  0  0  0  0
  -29.0912  -21.2197   20.4633 C   0  0  0  0  0  0
  -28.6594  -23.7281   20.0887 C   0  0  0  0  0  0
  -28.6813  -25.2116   22.2258 C   0  0  0  0  0  0
  -30.4534  -17.2741   20.9582 C   0  0  0  0  0  0
  -28.1049  -25.0574   20.8092 C   0  0  1  0  0  0
  -28.7753  -22.5460   20.8062 N   0  0  0  0  0  0
  -29.8990  -15.8805   20.6831 N   0  0  0  0  0  0
  -28.9542  -23.7796   18.8914 O   0  0  0  0  0  0
  -29.5723  -19.9972   21.6775 S   0  0  0  0  0  0
  -31.4705  -12.5642   19.1626 H   0  0  0  0  0  0
  -30.3627  -11.4727   19.9466 H   0  0  0  0  0  0
  -29.7935  -11.7367   17.5064 H   0  0  0  0  0  0
  -29.6348  -13.4631   17.7139 H   0  0  0  0  0  0
  -27.8918  -11.2818   18.9034 H   0  0  0  0  0  0
  -27.3760  -12.5220   17.7909 H   0  0  0  0  0  0
  -27.6307  -14.2534   19.4606 H   0  0  0  0  0  0
  -28.7194  -12.1766   21.4234 H   0  0  0  0  0  0
  -28.4243  -13.8609   21.7805 H   0  0  0  0  0  0
  -25.2779   -9.5689   22.4755 H   0  0  0  0  0  0
  -24.0024   -7.4631   22.7459 H   0  0  0  0  0  0
  -21.0851   -8.8774   19.8952 H   0  0  0  0  0  0
  -22.3714  -10.9672   19.6159 H   0  0  0  0  0  0
  -21.2013   -7.6152   23.9728 H   0  0  0  0  0  0
  -21.1476   -6.0525   25.9090 H   0  0  0  0  0  0
  -22.0599   -2.7609   23.2846 H   0  0  0  0  0  0
  -22.4092  -11.9911   22.4851 H   0  0  0  0  0  0
  -21.1067  -13.1235   22.2581 H   0  0  0  0  0  0
  -24.6499  -15.8446   20.5209 H   0  0  0  0  0  0
  -26.2647  -15.6326   20.0701 H   0  0  0  0  0  0
  -26.7209  -32.5426   23.1083 H   0  0  0  0  0  0
  -25.0046  -33.9697   25.0373 H   0  0  0  0  0  0
  -22.7240  -31.3010   21.3932 H   0  0  0  0  0  0
  -23.3762  -35.9615   23.3283 H   0  0  0  0  0  0
  -24.3582  -36.8928   22.2055 H   0  0  0  0  0  0
  -23.7229  -37.6482   23.6668 H   0  0  0  0  0  0
  -26.1038  -31.5371   20.6032 H   0  0  0  0  0  0
  -26.8497  -30.8284   22.0047 H   0  0  0  0  0  0
  -28.1272  -28.9515   21.1934 H   0  0  0  0  0  0
  -25.9940  -25.8999   19.0170 H   0  0  0  0  0  0
  -23.9764  -27.2978   19.0094 H   0  0  0  0  0  0
  -23.7656  -30.5804   19.3984 H   0  0  0  0  0  0
  -22.7641  -29.2375   19.8587 H   0  0  0  0  0  0
  -25.1295  -36.1926   25.0816 H   0  0  0  0  0  0
  -20.9984  -28.3285   24.1389 H   0  0  0  0  0  0
  -20.5662  -26.2324   23.3620 H   0  0  0  0  0  0
  -21.6647  -26.7441   22.1215 H   0  0  0  0  0  0
  -19.6918  -25.6290   21.1254 H   0  0  0  0  0  0
  -19.6690  -27.3180   20.6732 H   0  0  0  0  0  0
  -17.4205  -26.6674   21.4022 H   0  0  0  0  0  0
  -18.0333  -26.0073   22.9015 H   0  0  0  0  0  0
  -19.7936  -30.7260   24.2290 H   0  0  0  0  0  0
  -17.5017  -31.6277   24.5149 H   0  0  0  0  0  0
  -15.5352  -30.2992   23.7648 H   0  0  0  0  0  0
  -15.8672  -28.0815   22.7087 H   0  0  0  0  0  0
  -24.5890  -30.7094   25.7739 H   0  0  0  0  0  0
  -24.8911  -32.2905   26.4851 H   0  0  0  0  0  0
  -25.8019  -30.8897   27.0211 H   0  0  0  0  0  0
  -26.2897  -29.6750   24.1220 H   0  0  0  0  0  0
  -27.3984  -29.7244   25.4719 H   0  0  0  0  0  0
  -27.8790  -30.4236   23.9442 H   0  0  0  0  0  0
  -27.2693  -33.3613   26.2063 H   0  0  0  0  0  0
  -28.3882  -32.6859   25.0317 H   0  0  0  0  0  0
  -28.0736  -31.8431   26.5401 H   0  0  0  0  0  0
  -28.2583  -38.0115   24.7550 H   0  0  0  0  0  0
  -28.1105  -36.2649   24.6213 H   0  0  0  0  0  0
  -27.2315  -37.1365   25.8857 H   0  0  0  0  0  0
  -20.9399  -29.8771   21.6854 H   0  0  0  0  0  0
  -26.0168  -38.2851   24.1443 H   0  0  0  0  0  0
  -29.4730  -18.5515   18.3862 H   0  0  0  0  0  0
  -28.8041  -21.0180   18.3174 H   0  0  0  0  0  0
  -28.4886  -24.3349   22.8432 H   0  0  0  0  0  0
  -28.2335  -26.0659   22.7349 H   0  0  0  0  0  0
  -29.7582  -25.3709   22.1962 H   0  0  0  0  0  0
  -30.6026  -17.3067   22.0381 H   0  0  0  0  0  0
  -31.4673  -17.3014   20.5556 H   0  0  0  0  0  0
  -27.0349  -24.8814   20.9242 H   0  0  0  0  0  0
  -28.5960  -22.6802   21.7923 H   0  0  0  0  0  0
  -28.9066  -15.7591   20.8157 H   0  0  0  0  0  0
  1 25  1  0  0  0
  1 30  2  0  0  0
  1 80  1  0  0  0
  2  3  1  0  0  0
  2 25  1  0  0  0
  2 83  1  0  0  0
  2 84  1  0  0  0
  3  4  1  0  0  0
  3 85  1  0  0  0
  3 86  1  0  0  0
  4  5  1  0  0  0
  4 87  1  0  0  0
  4 88  1  0  0  0
  5  6  1  0  0  0
  5 26  1  0  0  0
  5 89  1  0  0  0
  6 25  1  0  0  0
  6 90  1  0  0  0
  6 91  1  0  0  0
  7  8  2  0  0  0
  7 26  1  0  0  0
  7 29  1  0  0  0
  8  9  1  0  0  0
  8 22  1  0  0  0
  9 10  1  0  0  0
  9 27  2  0  0  0
 10 11  2  0  0  0
 10 15  1  0  0  0
 11 12  1  0  0  0
 11 92  1  0  0  0
 12 13  2  0  0  0
 12 93  1  0  0  0
 13 14  1  0  0  0
 13 31  1  0  0  0
 14 15  2  0  0  0
 14 94  1  0  0  0
 15 95  1  0  0  0
 16 17  2  0  0  0
 16 21  1  0  0  0
 16 31  1  0  0  0
 17 18  1  0  0  0
 17 96  1  0  0  0
 18 19  2  0  0  0
 18 97  1  0  0  0
 19 20  1  0  0  0
 19 24  1  0  0  0
 20 21  2  0  0  0
 20 98  1  0  0  0
 21 23  1  0  0  0
 22 28  1  0  0  0
 22 32  2  0  0  0
 26 27  1  0  0  0
 28 99  1  0  0  0
 28100  1  0  0  0
 29101  1  0  0  0
 29102  1  0  0  0
 33 34  1  0  0  0
 33 66  1  0  0  0
 33 70  2  0  0  0
 34 36  1  0  0  0
 34 59  1  0  0  0
 34103  1  0  0  0
 35 44  2  0  0  0
 35 45  1  0  0  0
 35 68  1  0  0  0
 36 56  1  0  0  0
 36104  1  0  0  0
 37 39  1  0  0  0
 37 47  1  0  0  0
 37 66  1  0  0  0
 37105  1  0  0  0
 38 43  2  0  0  0
 38 46  1  0  0  0
 38 47  1  0  0  0
 39 64  1  0  0  0
 39 67  2  0  0  0
 40 52  1  0  0  0
 40 53  2  0  0  0
 40 58  1  0  0  0
 41106  1  0  0  0
 41107  1  0  0  0
 41108  1  0  0  0
 41 48  1  0  0  0
 42 43  1  0  0  0
 42 66  1  0  0  0
 42109  1  0  0  0
 42110  1  0  0  0
 43 44  1  0  0  0
 44111  1  0  0  0
 45 46  2  0  0  0
 45112  1  0  0  0
 46113  1  0  0  0
 47114  1  0  0  0
 47115  1  0  0  0
 48 56  1  0  0  0
 48 65  1  0  0  0
 48116  1  0  0  0
 49 50  1  0  0  0
 49 53  1  0  0  0
 49 64  1  0  0  0
 49117  1  0  0  0
 50 51  1  0  0  0
 50118  1  0  0  0
 50119  1  0  0  0
 51 52  1  0  0  0
 51120  1  0  0  0
 51121  1  0  0  0
 52122  1  0  0  0
 52123  1  0  0  0
 53 54  1  0  0  0
 54 55  2  0  0  0
 54124  1  0  0  0
 55 57  1  0  0  0
 55125  1  0  0  0
 56 69  2  0  0  0
 57 58  2  0  0  0
 57126  1  0  0  0
 58127  1  0  0  0
 59 60  1  0  0  0
 59 61  1  0  0  0
 59 62  1  0  0  0
 60128  1  0  0  0
 60129  1  0  0  0
 60130  1  0  0  0
 61131  1  0  0  0
 61132  1  0  0  0
 61133  1  0  0  0
 62134  1  0  0  0
 62135  1  0  0  0
 62136  1  0  0  0
 63 65  1  0  0  0
 63137  1  0  0  0
 63138  1  0  0  0
 63139  1  0  0  0
 64140  1  0  0  0
 65141  1  0  0  0
 68 78  1  0  0  0
 71 72  1  0  0  0
 71 73  2  0  0  0
 71142  1  0  0  0
 72 74  2  0  0  0
 72143  1  0  0  0
 73 77  1  0  0  0
 73 82  1  0  0  0
 74 79  1  0  0  0
 74 82  1  0  0  0
 75 78  1  0  0  0
 75 79  1  0  0  0
 75 81  2  0  0  0
 76144  1  0  0  0
 76145  1  0  0  0
 76146  1  0  0  0
 76 78  1  0  0  0
 77 80  1  0  0  0
 77147  1  0  0  0
 77148  1  0  0  0
 78149  1  0  0  0
 79150  1  0  0  0
 80151  1  0  0  0
M  ISO  4   1 100  68 101  78 101  80 100
M  END
> <chiral flag>
0

> <version>
0

> <s_m_source_file>
/data/baiqing/PycharmProjects/Reinvent-master-3.2/result/LINK_invent/BTK/process_docking_weight1_custom_product_contain_oxygen_bond_distance_aromatic_linkinvent_7_9_3/rearranged_h_0185.sdf

> <i_m_source_file_index>
62

> <r_mmod_Potential_Energy-OPLS-2005>
63.4979286193848

> <r_mmod_Stretch_Energy-OPLS-2005>
105.398590087891

> <r_mmod_Bend_Energy-OPLS-2005>
170.805679321289

> <r_mmod_Torsional_Energy-OPLS-2005>
244.359115600586

> <r_mmod_Improper_Torsional_Energy-OPLS-2005>
5.07242965698242

> <r_mmod_Van_der_Waal_Energy-OPLS-2005>
114.843719482422

> <r_mmod_Electrostatic_Energy-OPLS-2005>
-418.005798339844

> <r_mmod_Solvation_Energy-OPLS-2005>
-236.511001586914

> <b_mmod_Minimization_Converged-OPLS-2005>
0

> <r_mmod_RMS_Derivative-OPLS-2005>
1.48425137996674

$$$$
62
                    3D
 Structure written by MMmdl.
164172  0  0  1  0            999 V2000
  -30.6119  -14.8262   20.4258 C   0  0  0  0  0  0
  -30.4155  -12.5109   19.4824 C   0  0  0  0  0  0
  -29.5041  -12.4989   18.2385 C   0  0  0  0  0  0
  -28.0348  -12.3152   18.6608 C   0  0  0  0  0  0
  -27.6248  -13.2451   19.8355 C   0  0  2  0  0  0
  -28.6682  -13.2587   20.9707 C   0  0  0  0  0  0
  -25.2437  -13.8175   20.5719 C   0  0  0  0  0  0
  -24.1780  -13.0422   20.9329 C   0  0  0  0  0  0
  -24.6392  -11.6914   20.8813 C   0  0  0  0  0  0
  -23.9076  -10.4293   21.0435 C   0  0  0  0  0  0
  -24.3629   -9.4206   21.9203 C   0  0  0  0  0  0
  -23.6306   -8.2240   22.0766 C   0  0  0  0  0  0
  -22.4294   -8.0276   21.3549 C   0  0  0  0  0  0
  -21.9930   -9.0252   20.4660 C   0  0  0  0  0  0
  -22.7255  -10.2130   20.3078 C   0  0  0  0  0  0
  -21.6857   -6.0745   22.5275 C   0  0  0  0  0  0
  -21.4014   -6.5652   23.8205 C   0  0  0  0  0  0
  -21.3650   -5.6800   24.9168 C   0  0  0  0  0  0
  -21.6043   -4.3063   24.7218 C   0  0  0  0  0  0
  -21.8820   -3.8156   23.4339 C   0  0  0  0  0  0
  -21.9201   -4.6973   22.3401 C   0  0  0  0  0  0
  -22.7792  -13.5189   21.1943 C   0  0  0  0  0  0
  -22.1671   -4.2159   21.0975 F   0  0  0  0  0  0
  -21.5631   -3.4553   25.7732 F   0  0  0  0  0  0
  -29.9453  -13.6185   20.3543 N   0  0  0  0  0  0
  -26.2855  -12.9426   20.3249 N   0  0  0  0  0  0
  -25.9315  -11.6557   20.5765 N   0  0  0  0  0  0
  -22.0409  -12.8179   22.0472 N   0  0  0  0  0  0
  -25.4072  -15.1850   20.3878 N   0  0  0  0  0  0
  -31.8238  -14.8248   20.2071 O   0  0  0  0  0  0
  -21.6650   -6.8883   21.4237 O   0  0  0  0  0  0
  -22.3503  -14.5489   20.6747 O   0  0  0  0  0  0
  -24.6357  -31.8484   23.1920 C   0  0  0  0  0  0
  -25.9164  -32.4716   23.8286 C   0  0  1  0  0  0
  -27.2184  -27.2082   20.1283 C   0  0  0  0  0  0
  -25.5937  -33.8522   24.2207 N   0  0  0  0  0  0
  -23.4341  -30.4707   21.5350 C   0  0  2  0  0  0
  -24.8786  -28.9020   20.1065 C   0  0  0  0  0  0
  -22.7504  -29.4598   22.4878 C   0  0  0  0  0  0
  -18.0296  -28.1417   22.8479 C   0  0  0  0  0  0
  -24.1490  -36.7249   23.2640 C   0  0  0  0  0  0
  -25.9823  -30.7473   21.3741 C   0  0  0  0  0  0
  -26.0515  -29.3653   20.7139 C   0  0  0  0  0  0
  -27.2187  -28.5300   20.7100 C   0  0  0  0  0  0
  -26.0135  -26.8094   19.5140 C   0  0  0  0  0  0
  -24.8675  -27.6343   19.4986 C   0  0  0  0  0  0
  -23.6535  -29.7987   20.1530 C   0  0  0  0  0  0
  -25.4123  -36.3040   24.0316 C   0  0  1  0  0  0
  -20.5895  -28.3747   23.1261 C   0  0  2  0  0  0
  -20.6784  -26.9455   22.5415 C   0  0  0  0  0  0
  -19.5770  -26.6421   21.5212 C   0  0  0  0  0  0
  -18.1947  -26.7962   22.1614 C   0  0  0  0  0  0
  -19.1546  -28.8890   23.2877 C   0  0  0  0  0  0
  -18.9468  -30.1484   23.8905 C   0  0  0  0  0  0
  -17.6462  -30.6606   24.0588 C   0  0  0  0  0  0
  -25.9067  -34.9414   23.5065 C   0  0  0  0  0  0
  -16.5353  -29.9114   23.6336 C   0  0  0  0  0  0
  -16.7278  -28.6535   23.0347 C   0  0  0  0  0  0
  -26.4512  -31.6583   25.0709 C   0  0  0  0  0  0
  -25.3718  -31.3761   26.1422 C   0  0  0  0  0  0
  -27.0370  -30.2998   24.6227 C   0  0  0  0  0  0
  -27.6050  -32.4340   25.7496 C   0  0  0  0  0  0
  -27.5570  -37.1785   24.8462 C   0  0  0  0  0  0
  -21.4198  -29.3105   22.3645 N   0  0  0  0  0  0
  -26.4286  -37.3750   23.9402 N   0  0  0  0  0  0
  -24.7034  -31.0425   22.0902 N   0  0  0  0  0  0
  -23.4180  -28.8124   23.2987 O   0  0  0  0  0  0
  -28.3234  -26.3213   20.2533 O   0  0  0  0  0  0
  -26.5646  -34.8902   22.4639 O   0  0  0  0  0  0
  -23.5497  -32.1319   23.7205 O   0  0  0  0  0  0
  -28.6909  -18.5116   20.3390 C   0  0  0  0  0  0
  -27.5467  -18.6693   19.5711 C   0  0  0  0  0  0
  -28.5154  -20.9363   20.1008 C   0  0  0  0  0  0
  -28.0496  -23.5436   20.0857 C   0  0  0  0  0  0
  -27.6545  -18.7046   23.3905 C   0  0  0  0  0  0
  -28.4765  -25.1096   18.0390 C   0  0  0  0  0  0
  -30.7553  -17.9716   22.7715 C   0  0  0  0  0  0
  -28.3542  -17.3355   23.4458 C   0  0  0  0  0  0
  -29.1336  -17.0656   20.9557 C   0  0  2  0  0  0
  -28.6082  -24.9848   19.5686 C   0  0  1  0  0  0
  -29.5298  -17.0958   22.4634 C   0  0  2  0  0  0
  -29.2601  -19.8483   20.5493 N   0  0  0  0  0  0
  -26.6711  -17.6902   19.1203 N   0  0  0  0  0  0
  -28.8597  -22.3976   20.1503 N   0  0  0  0  0  0
  -29.9601  -16.0384   20.1628 N   0  0  0  0  0  0
  -26.8599  -23.4781   20.4027 O   0  0  0  0  0  0
  -27.1049  -20.3444   19.2389 S   0  0  0  0  0  0
  -31.4567  -12.6297   19.1785 H   0  0  0  0  0  0
  -30.3687  -11.5580   20.0117 H   0  0  0  0  0  0
  -29.8033  -11.7037   17.5551 H   0  0  0  0  0  0
  -29.6153  -13.4333   17.6875 H   0  0  0  0  0  0
  -27.9116  -11.2737   18.9606 H   0  0  0  0  0  0
  -27.3729  -12.4673   17.8072 H   0  0  0  0  0  0
  -27.5964  -14.2536   19.4208 H   0  0  0  0  0  0
  -28.7326  -12.2897   21.4675 H   0  0  0  0  0  0
  -28.3933  -13.9894   21.7341 H   0  0  0  0  0  0
  -25.2778   -9.5684   22.4769 H   0  0  0  0  0  0
  -24.0018   -7.4637   22.7488 H   0  0  0  0  0  0
  -21.0863   -8.8769   19.8966 H   0  0  0  0  0  0
  -22.3721  -10.9664   19.6182 H   0  0  0  0  0  0
  -21.2003   -7.6158   23.9709 H   0  0  0  0  0  0
  -21.1467   -6.0533   25.9068 H   0  0  0  0  0  0
  -22.0613   -2.7626   23.2831 H   0  0  0  0  0  0
  -22.4005  -11.9837   22.4866 H   0  0  0  0  0  0
  -21.1029  -13.1213   22.2670 H   0  0  0  0  0  0
  -24.5413  -15.7090   20.3080 H   0  0  0  0  0  0
  -26.0791  -15.4400   19.6730 H   0  0  0  0  0  0
  -26.7220  -32.5345   23.1011 H   0  0  0  0  0  0
  -25.0076  -33.9639   25.0347 H   0  0  0  0  0  0
  -22.7333  -31.2941   21.3840 H   0  0  0  0  0  0
  -23.3757  -35.9575   23.3298 H   0  0  0  0  0  0
  -24.3570  -36.8883   22.2054 H   0  0  0  0  0  0
  -23.7237  -37.6443   23.6677 H   0  0  0  0  0  0
  -26.1247  -31.5069   20.6040 H   0  0  0  0  0  0
  -26.8580  -30.7975   22.0099 H   0  0  0  0  0  0
  -28.1161  -28.8783   21.2020 H   0  0  0  0  0  0
  -25.9177  -25.8179   19.1013 H   0  0  0  0  0  0
  -23.9589  -27.2630   19.0447 H   0  0  0  0  0  0
  -23.7864  -30.5735   19.3971 H   0  0  0  0  0  0
  -22.7684  -29.2391   19.8453 H   0  0  0  0  0  0
  -25.1311  -36.1869   25.0808 H   0  0  0  0  0  0
  -20.9995  -28.3342   24.1379 H   0  0  0  0  0  0
  -20.5657  -26.2356   23.3623 H   0  0  0  0  0  0
  -21.6656  -26.7468   22.1222 H   0  0  0  0  0  0
  -19.6937  -25.6327   21.1261 H   0  0  0  0  0  0
  -19.6727  -27.3219   20.6735 H   0  0  0  0  0  0
  -17.4208  -26.6701   21.4023 H   0  0  0  0  0  0
  -18.0363  -26.0106   22.9013 H   0  0  0  0  0  0
  -19.7940  -30.7308   24.2277 H   0  0  0  0  0  0
  -17.5018  -31.6282   24.5201 H   0  0  0  0  0  0
  -15.5358  -30.3016   23.7677 H   0  0  0  0  0  0
  -15.8682  -28.0869   22.7040 H   0  0  0  0  0  0
  -24.5881  -30.7118   25.7753 H   0  0  0  0  0  0
  -24.8925  -32.2950   26.4817 H   0  0  0  0  0  0
  -25.8018  -30.8956   27.0219 H   0  0  0  0  0  0
  -26.2967  -29.6732   24.1236 H   0  0  0  0  0  0
  -27.4020  -29.7275   25.4764 H   0  0  0  0  0  0
  -27.8856  -30.4264   23.9499 H   0  0  0  0  0  0
  -27.2641  -33.3641   26.2055 H   0  0  0  0  0  0
  -28.3885  -32.6906   25.0351 H   0  0  0  0  0  0
  -28.0698  -31.8485   26.5438 H   0  0  0  0  0  0
  -28.2591  -38.0081   24.7504 H   0  0  0  0  0  0
  -28.1065  -36.2609   24.6301 H   0  0  0  0  0  0
  -27.2279  -37.1442   25.8863 H   0  0  0  0  0  0
  -20.9390  -29.8833   21.6847 H   0  0  0  0  0  0
  -26.0150  -38.2815   24.1410 H   0  0  0  0  0  0
  -28.3594  -19.5318   23.4709 H   0  0  0  0  0  0
  -26.9446  -18.8013   24.2134 H   0  0  0  0  0  0
  -27.0822  -18.8307   22.4726 H   0  0  0  0  0  0
  -29.0934  -25.9260   17.6655 H   0  0  0  0  0  0
  -27.4541  -25.2872   17.7127 H   0  0  0  0  0  0
  -28.8142  -24.1992   17.5423 H   0  0  0  0  0  0
  -31.1183  -17.7925   23.7837 H   0  0  0  0  0  0
  -30.5311  -19.0338   22.6974 H   0  0  0  0  0  0
  -31.5756  -17.7569   22.0859 H   0  0  0  0  0  0
  -28.7262  -17.1864   24.4598 H   0  0  0  0  0  0
  -27.6036  -16.5559   23.3021 H   0  0  0  0  0  0
  -28.1976  -16.5064   20.9855 H   0  0  0  0  0  0
  -29.6795  -24.8831   19.7452 H   0  0  0  0  0  0
  -29.8462  -16.0843   22.7191 H   0  0  0  0  0  0
  -26.2910  -17.1237   19.8734 H   0  0  0  0  0  0
  -25.9020  -18.0480   18.5619 H   0  0  0  0  0  0
  -29.8487  -22.5870   20.0844 H   0  0  0  0  0  0
  -30.5584  -16.5642   19.5449 H   0  0  0  0  0  0
  1 25  1  0  0  0
  1 30  2  0  0  0
  1 85  1  0  0  0
  2  3  1  0  0  0
  2 25  1  0  0  0
  2 88  1  0  0  0
  2 89  1  0  0  0
  3  4  1  0  0  0
  3 90  1  0  0  0
  3 91  1  0  0  0
  4  5  1  0  0  0
  4 92  1  0  0  0
  4 93  1  0  0  0
  5  6  1  0  0  0
  5 26  1  0  0  0
  5 94  1  0  0  0
  6 25  1  0  0  0
  6 95  1  0  0  0
  6 96  1  0  0  0
  7  8  2  0  0  0
  7 26  1  0  0  0
  7 29  1  0  0  0
  8  9  1  0  0  0
  8 22  1  0  0  0
  9 10  1  0  0  0
  9 27  2  0  0  0
 10 11  2  0  0  0
 10 15  1  0  0  0
 11 12  1  0  0  0
 11 97  1  0  0  0
 12 13  2  0  0  0
 12 98  1  0  0  0
 13 14  1  0  0  0
 13 31  1  0  0  0
 14 15  2  0  0  0
 14 99  1  0  0  0
 15100  1  0  0  0
 16 17  2  0  0  0
 16 21  1  0  0  0
 16 31  1  0  0  0
 17 18  1  0  0  0
 17101  1  0  0  0
 18 19  2  0  0  0
 18102  1  0  0  0
 19 20  1  0  0  0
 19 24  1  0  0  0
 20 21  2  0  0  0
 20103  1  0  0  0
 21 23  1  0  0  0
 22 28  1  0  0  0
 22 32  2  0  0  0
 26 27  1  0  0  0
 28104  1  0  0  0
 28105  1  0  0  0
 29106  1  0  0  0
 29107  1  0  0  0
 33 34  1  0  0  0
 33 66  1  0  0  0
 33 70  2  0  0  0
 34 36  1  0  0  0
 34 59  1  0  0  0
 34108  1  0  0  0
 35 44  2  0  0  0
 35 45  1  0  0  0
 35 68  1  0  0  0
 36 56  1  0  0  0
 36109  1  0  0  0
 37 39  1  0  0  0
 37 47  1  0  0  0
 37 66  1  0  0  0
 37110  1  0  0  0
 38 43  2  0  0  0
 38 46  1  0  0  0
 38 47  1  0  0  0
 39 64  1  0  0  0
 39 67  2  0  0  0
 40 52  1  0  0  0
 40 53  2  0  0  0
 40 58  1  0  0  0
 41111  1  0  0  0
 41112  1  0  0  0
 41113  1  0  0  0
 41 48  1  0  0  0
 42 43  1  0  0  0
 42 66  1  0  0  0
 42114  1  0  0  0
 42115  1  0  0  0
 43 44  1  0  0  0
 44116  1  0  0  0
 45 46  2  0  0  0
 45117  1  0  0  0
 46118  1  0  0  0
 47119  1  0  0  0
 47120  1  0  0  0
 48 56  1  0  0  0
 48 65  1  0  0  0
 48121  1  0  0  0
 49 50  1  0  0  0
 49 53  1  0  0  0
 49 64  1  0  0  0
 49122  1  0  0  0
 50 51  1  0  0  0
 50123  1  0  0  0
 50124  1  0  0  0
 51 52  1  0  0  0
 51125  1  0  0  0
 51126  1  0  0  0
 52127  1  0  0  0
 52128  1  0  0  0
 53 54  1  0  0  0
 54 55  2  0  0  0
 54129  1  0  0  0
 55 57  1  0  0  0
 55130  1  0  0  0
 56 69  2  0  0  0
 57 58  2  0  0  0
 57131  1  0  0  0
 58132  1  0  0  0
 59 60  1  0  0  0
 59 61  1  0  0  0
 59 62  1  0  0  0
 60133  1  0  0  0
 60134  1  0  0  0
 60135  1  0  0  0
 61136  1  0  0  0
 61137  1  0  0  0
 61138  1  0  0  0
 62139  1  0  0  0
 62140  1  0  0  0
 62141  1  0  0  0
 63 65  1  0  0  0
 63142  1  0  0  0
 63143  1  0  0  0
 63144  1  0  0  0
 64145  1  0  0  0
 65146  1  0  0  0
 68 80  1  0  0  0
 71 72  2  0  0  0
 71 79  1  0  0  0
 71 82  1  0  0  0
 72 83  1  0  0  0
 72 87  1  0  0  0
 73 82  2  0  0  0
 73 84  1  0  0  0
 73 87  1  0  0  0
 74 80  1  0  0  0
 74 84  1  0  0  0
 74 86  2  0  0  0
 75 78  1  0  0  0
 75147  1  0  0  0
 75148  1  0  0  0
 75149  1  0  0  0
 76150  1  0  0  0
 76151  1  0  0  0
 76152  1  0  0  0
 76 80  1  0  0  0
 77153  1  0  0  0
 77154  1  0  0  0
 77155  1  0  0  0
 77 81  1  0  0  0
 78 81  1  0  0  0
 78156  1  0  0  0
 78157  1  0  0  0
 79 81  1  0  0  0
 79 85  1  0  0  0
 79158  1  0  0  0
 80159  1  0  0  0
 81160  1  0  0  0
 83161  1  0  0  0
 83162  1  0  0  0
 84163  1  0  0  0
 85164  1  0  0  0
M  ISO  4   1 100  68 101  80 101  85 100
M  END
> <chiral flag>
0

> <version>
0

> <s_m_source_file>
/data/baiqing/PycharmProjects/Reinvent-master-3.2/result/LINK_invent/BTK/process_docking_weight1_custom_product_contain_oxygen_bond_distance_aromatic_linkinvent_7_9_3/rearranged_h_0185.sdf

> <i_m_source_file_index>
63

> <r_mmod_Potential_Energy-OPLS-2005>
358.294555664062

> <r_mmod_Stretch_Energy-OPLS-2005>
169.81364440918

> <r_mmod_Bend_Energy-OPLS-2005>
280.34912109375

> <r_mmod_Torsional_Energy-OPLS-2005>
313.216430664062

> <r_mmod_Improper_Torsional_Energy-OPLS-2005>
34.9980545043945

> <r_mmod_Van_der_Waal_Energy-OPLS-2005>
97.3421173095703

> <r_mmod_Electrostatic_Energy-OPLS-2005>
-440.35302734375

> <r_mmod_Solvation_Energy-OPLS-2005>
-224.343658447266

> <b_mmod_Minimization_Converged-OPLS-2005>
0

> <r_mmod_RMS_Derivative-OPLS-2005>
1.86852812767029

$$$$
63
                    3D
 Structure written by MMmdl.
158166  0  0  1  0            999 V2000
  -30.6126  -14.7485   20.4733 C   0  0  0  0  0  0
  -30.4321  -12.4603   19.4685 C   0  0  0  0  0  0
  -29.5085  -12.5091   18.2323 C   0  0  0  0  0  0
  -28.0348  -12.3310   18.6473 C   0  0  0  0  0  0
  -27.6392  -13.2292   19.8490 C   0  0  2  0  0  0
  -28.6846  -13.1669   20.9828 C   0  0  0  0  0  0
  -25.2499  -13.8182   20.5684 C   0  0  0  0  0  0
  -24.1800  -13.0435   20.9221 C   0  0  0  0  0  0
  -24.6382  -11.6912   20.8752 C   0  0  0  0  0  0
  -23.9052  -10.4295   21.0418 C   0  0  0  0  0  0
  -24.3607   -9.4210   21.9195 C   0  0  0  0  0  0
  -23.6289   -8.2244   22.0761 C   0  0  0  0  0  0
  -22.4274   -8.0278   21.3546 C   0  0  0  0  0  0
  -21.9905   -9.0247   20.4648 C   0  0  0  0  0  0
  -22.7225  -10.2133   20.3063 C   0  0  0  0  0  0
  -21.6852   -6.0728   22.5276 C   0  0  0  0  0  0
  -21.4013   -6.5636   23.8206 C   0  0  0  0  0  0
  -21.3664   -5.6794   24.9172 C   0  0  0  0  0  0
  -21.6053   -4.3056   24.7225 C   0  0  0  0  0  0
  -21.8821   -3.8140   23.4348 C   0  0  0  0  0  0
  -21.9196   -4.6957   22.3402 C   0  0  0  0  0  0
  -22.7820  -13.5215   21.1884 C   0  0  0  0  0  0
  -22.1667   -4.2138   21.0980 F   0  0  0  0  0  0
  -21.5634   -3.4542   25.7738 F   0  0  0  0  0  0
  -29.9816  -13.5249   20.3941 N   0  0  0  0  0  0
  -26.2920  -12.9384   20.3258 N   0  0  0  0  0  0
  -25.9308  -11.6531   20.5743 N   0  0  0  0  0  0
  -22.0477  -12.8188   22.0429 N   0  0  0  0  0  0
  -25.4184  -15.1911   20.4074 N   0  0  0  0  0  0
  -31.8126  -14.8217   20.1870 O   0  0  0  0  0  0
  -21.6646   -6.8870   21.4237 O   0  0  0  0  0  0
  -22.3507  -14.5523   20.6734 O   0  0  0  0  0  0
  -24.6293  -31.8560   23.1989 C   0  0  0  0  0  0
  -25.9116  -32.4765   23.8339 C   0  0  1  0  0  0
  -27.2232  -27.2708   20.1390 C   0  0  0  0  0  0
  -25.5912  -33.8571   24.2264 N   0  0  0  0  0  0
  -23.4267  -30.4759   21.5429 C   0  0  2  0  0  0
  -24.8739  -28.9147   20.1219 C   0  0  0  0  0  0
  -22.7486  -29.4595   22.4929 C   0  0  0  0  0  0
  -18.0287  -28.1387   22.8495 C   0  0  0  0  0  0
  -24.1480  -36.7288   23.2643 C   0  0  0  0  0  0
  -25.9711  -30.7714   21.3766 C   0  0  0  0  0  0
  -26.0453  -29.3920   20.7243 C   0  0  0  0  0  0
  -27.2261  -28.5855   20.7122 C   0  0  0  0  0  0
  -26.0274  -26.8426   19.5298 C   0  0  0  0  0  0
  -24.8687  -27.6467   19.5149 C   0  0  0  0  0  0
  -23.6458  -29.8038   20.1621 C   0  0  0  0  0  0
  -25.4113  -36.3082   24.0325 C   0  0  1  0  0  0
  -20.5889  -28.3694   23.1286 C   0  0  2  0  0  0
  -20.6787  -26.9419   22.5416 C   0  0  0  0  0  0
  -19.5761  -26.6389   21.5223 C   0  0  0  0  0  0
  -18.1935  -26.7937   22.1626 C   0  0  0  0  0  0
  -19.1538  -28.8855   23.2884 C   0  0  0  0  0  0
  -18.9456  -30.1457   23.8900 C   0  0  0  0  0  0
  -17.6459  -30.6594   24.0561 C   0  0  0  0  0  0
  -25.9050  -34.9447   23.5100 C   0  0  0  0  0  0
  -16.5347  -29.9097   23.6331 C   0  0  0  0  0  0
  -16.7276  -28.6508   23.0367 C   0  0  0  0  0  0
  -26.4496  -31.6597   25.0726 C   0  0  0  0  0  0
  -25.3716  -31.3748   26.1441 C   0  0  0  0  0  0
  -27.0362  -30.3011   24.6228 C   0  0  0  0  0  0
  -27.6044  -32.4354   25.7496 C   0  0  0  0  0  0
  -27.5582  -37.1794   24.8457 C   0  0  0  0  0  0
  -21.4197  -29.3032   22.3658 N   0  0  0  0  0  0
  -26.4292  -37.3778   23.9406 N   0  0  0  0  0  0
  -24.6949  -31.0526   22.0958 N   0  0  0  0  0  0
  -23.4178  -28.8148   23.3044 O   0  0  0  0  0  0
  -28.3422  -26.4192   20.0979 O   0  0  0  0  0  0
  -26.5631  -34.8919   22.4674 O   0  0  0  0  0  0
  -23.5442  -32.1381   23.7278 O   0  0  0  0  0  0
  -29.3358  -18.4163   20.3613 C   0  0  0  0  0  0
  -30.1675  -17.3116   20.8217 C   0  0  0  0  0  0
  -29.7082  -19.7877   20.6755 C   0  0  0  0  0  0
  -31.4989  -18.9174   21.8028 C   0  0  0  0  0  0
  -28.4903  -23.8063   18.5059 C   0  0  0  0  0  0
  -30.7605  -22.8362   20.2497 C   0  0  0  0  0  0
  -28.3138  -25.0803   20.7704 C   0  0  0  0  0  0
  -28.3272  -23.6297   20.0248 C   0  0  2  0  0  0
  -29.3054  -22.4502   20.5988 C   0  0  1  0  0  0
  -31.2609  -17.6404   21.5509 N   0  0  0  0  0  0
  -30.8051  -19.9799   21.4316 N   0  0  0  0  0  0
  -32.6231  -19.1682   22.5222 N   0  0  0  0  0  0
  -29.8220  -15.8862   20.5938 N   0  0  0  0  0  0
  -29.0126  -20.9918   20.2351 N   0  0  0  0  0  0
  -28.2193  -18.1641   19.6337 F   0  0  0  0  0  0
  -31.4725  -12.5861   19.1660 H   0  0  0  0  0  0
  -30.3783  -11.4837   19.9520 H   0  0  0  0  0  0
  -29.7899  -11.7371   17.5146 H   0  0  0  0  0  0
  -29.6344  -13.4639   17.7188 H   0  0  0  0  0  0
  -27.8911  -11.2817   18.9079 H   0  0  0  0  0  0
  -27.3776  -12.5260   17.7996 H   0  0  0  0  0  0
  -27.6303  -14.2493   19.4655 H   0  0  0  0  0  0
  -28.7228  -12.1690   21.4232 H   0  0  0  0  0  0
  -28.4193  -13.8473   21.7936 H   0  0  0  0  0  0
  -25.2760   -9.5690   22.4757 H   0  0  0  0  0  0
  -24.0010   -7.4634   22.7471 H   0  0  0  0  0  0
  -21.0850   -8.8753   19.8943 H   0  0  0  0  0  0
  -22.3687  -10.9667   19.6165 H   0  0  0  0  0  0
  -21.1999   -7.6142   23.9697 H   0  0  0  0  0  0
  -21.1489   -6.0529   25.9070 H   0  0  0  0  0  0
  -22.0596   -2.7600   23.2849 H   0  0  0  0  0  0
  -22.4101  -11.9845   22.4794 H   0  0  0  0  0  0
  -21.1095  -13.1199   22.2642 H   0  0  0  0  0  0
  -24.6409  -15.8350   20.5050 H   0  0  0  0  0  0
  -26.2392  -15.6280   20.0093 H   0  0  0  0  0  0
  -26.7173  -32.5404   23.1077 H   0  0  0  0  0  0
  -25.0013  -33.9722   25.0376 H   0  0  0  0  0  0
  -22.7216  -31.2960   21.3947 H   0  0  0  0  0  0
  -23.3753  -35.9606   23.3291 H   0  0  0  0  0  0
  -24.3562  -36.8935   22.2057 H   0  0  0  0  0  0
  -23.7218  -37.6474   23.6688 H   0  0  0  0  0  0
  -26.1072  -31.5311   20.6056 H   0  0  0  0  0  0
  -26.8511  -30.8217   22.0072 H   0  0  0  0  0  0
  -28.1328  -28.9566   21.1684 H   0  0  0  0  0  0
  -25.9881  -25.8691   19.0618 H   0  0  0  0  0  0
  -23.9706  -27.2744   19.0421 H   0  0  0  0  0  0
  -23.7701  -30.5781   19.4045 H   0  0  0  0  0  0
  -22.7644  -29.2374   19.8575 H   0  0  0  0  0  0
  -25.1294  -36.1937   25.0819 H   0  0  0  0  0  0
  -20.9965  -28.3291   24.1417 H   0  0  0  0  0  0
  -20.5711  -26.2307   23.3618 H   0  0  0  0  0  0
  -21.6652  -26.7473   22.1187 H   0  0  0  0  0  0
  -19.6923  -25.6297   21.1264 H   0  0  0  0  0  0
  -19.6707  -27.3187   20.6742 H   0  0  0  0  0  0
  -17.4209  -26.6684   21.4022 H   0  0  0  0  0  0
  -18.0319  -26.0087   22.9024 H   0  0  0  0  0  0
  -19.7929  -30.7271   24.2274 H   0  0  0  0  0  0
  -17.5019  -31.6282   24.5150 H   0  0  0  0  0  0
  -15.5348  -30.3004   23.7660 H   0  0  0  0  0  0
  -15.8674  -28.0826   22.7100 H   0  0  0  0  0  0
  -24.5853  -30.7158   25.7747 H   0  0  0  0  0  0
  -24.8948  -32.2922   26.4898 H   0  0  0  0  0  0
  -25.8008  -30.8871   27.0201 H   0  0  0  0  0  0
  -26.2962  -29.6734   24.1244 H   0  0  0  0  0  0
  -27.4032  -29.7296   25.4767 H   0  0  0  0  0  0
  -27.8842  -30.4289   23.9494 H   0  0  0  0  0  0
  -27.2638  -33.3643   26.2083 H   0  0  0  0  0  0
  -28.3837  -32.6943   25.0316 H   0  0  0  0  0  0
  -28.0740  -31.8486   26.5403 H   0  0  0  0  0  0
  -28.2582  -38.0111   24.7529 H   0  0  0  0  0  0
  -28.1100  -36.2640   24.6256 H   0  0  0  0  0  0
  -27.2295  -37.1393   25.8859 H   0  0  0  0  0  0
  -20.9385  -29.8726   21.6834 H   0  0  0  0  0  0
  -26.0171  -38.2845   24.1438 H   0  0  0  0  0  0
  -27.7104  -24.4489   18.0973 H   0  0  0  0  0  0
  -28.4263  -22.8485   17.9894 H   0  0  0  0  0  0
  -29.4473  -24.2630   18.2553 H   0  0  0  0  0  0
  -30.9253  -23.9086   20.3558 H   0  0  0  0  0  0
  -31.0088  -22.5707   19.2213 H   0  0  0  0  0  0
  -31.4893  -22.3579   20.9015 H   0  0  0  0  0  0
  -29.1879  -25.1014   21.4210 H   0  0  0  0  0  0
  -27.4815  -25.0803   21.4751 H   0  0  0  0  0  0
  -27.3136  -23.2512   20.1621 H   0  0  0  0  0  0
  -29.2109  -22.4907   21.6856 H   0  0  0  0  0  0
  -33.0112  -18.3971   23.0486 H   0  0  0  0  0  0
  -32.6968  -20.0794   22.9543 H   0  0  0  0  0  0
  -28.8326  -15.7148   20.5445 H   0  0  0  0  0  0
  -28.1791  -20.8125   19.6858 H   0  0  0  0  0  0
  1 25  1  0  0  0
  1 30  2  0  0  0
  1 83  1  0  0  0
  2  3  1  0  0  0
  2 25  1  0  0  0
  2 86  1  0  0  0
  2 87  1  0  0  0
  3  4  1  0  0  0
  3 88  1  0  0  0
  3 89  1  0  0  0
  4  5  1  0  0  0
  4 90  1  0  0  0
  4 91  1  0  0  0
  5  6  1  0  0  0
  5 26  1  0  0  0
  5 92  1  0  0  0
  6 25  1  0  0  0
  6 93  1  0  0  0
  6 94  1  0  0  0
  7  8  2  0  0  0
  7 26  1  0  0  0
  7 29  1  0  0  0
  8  9  1  0  0  0
  8 22  1  0  0  0
  9 10  1  0  0  0
  9 27  2  0  0  0
 10 11  2  0  0  0
 10 15  1  0  0  0
 11 12  1  0  0  0
 11 95  1  0  0  0
 12 13  2  0  0  0
 12 96  1  0  0  0
 13 14  1  0  0  0
 13 31  1  0  0  0
 14 15  2  0  0  0
 14 97  1  0  0  0
 15 98  1  0  0  0
 16 17  2  0  0  0
 16 21  1  0  0  0
 16 31  1  0  0  0
 17 18  1  0  0  0
 17 99  1  0  0  0
 18 19  2  0  0  0
 18100  1  0  0  0
 19 20  1  0  0  0
 19 24  1  0  0  0
 20 21  2  0  0  0
 20101  1  0  0  0
 21 23  1  0  0  0
 22 28  1  0  0  0
 22 32  2  0  0  0
 26 27  1  0  0  0
 28102  1  0  0  0
 28103  1  0  0  0
 29104  1  0  0  0
 29105  1  0  0  0
 33 34  1  0  0  0
 33 66  1  0  0  0
 33 70  2  0  0  0
 34 36  1  0  0  0
 34 59  1  0  0  0
 34106  1  0  0  0
 35 44  2  0  0  0
 35 45  1  0  0  0
 35 68  1  0  0  0
 36 56  1  0  0  0
 36107  1  0  0  0
 37 39  1  0  0  0
 37 47  1  0  0  0
 37 66  1  0  0  0
 37108  1  0  0  0
 38 43  2  0  0  0
 38 46  1  0  0  0
 38 47  1  0  0  0
 39 64  1  0  0  0
 39 67  2  0  0  0
 40 52  1  0  0  0
 40 53  2  0  0  0
 40 58  1  0  0  0
 41109  1  0  0  0
 41110  1  0  0  0
 41111  1  0  0  0
 41 48  1  0  0  0
 42 43  1  0  0  0
 42 66  1  0  0  0
 42112  1  0  0  0
 42113  1  0  0  0
 43 44  1  0  0  0
 44114  1  0  0  0
 45 46  2  0  0  0
 45115  1  0  0  0
 46116  1  0  0  0
 47117  1  0  0  0
 47118  1  0  0  0
 48 56  1  0  0  0
 48 65  1  0  0  0
 48119  1  0  0  0
 49 50  1  0  0  0
 49 53  1  0  0  0
 49 64  1  0  0  0
 49120  1  0  0  0
 50 51  1  0  0  0
 50121  1  0  0  0
 50122  1  0  0  0
 51 52  1  0  0  0
 51123  1  0  0  0
 51124  1  0  0  0
 52125  1  0  0  0
 52126  1  0  0  0
 53 54  1  0  0  0
 54 55  2  0  0  0
 54127  1  0  0  0
 55 57  1  0  0  0
 55128  1  0  0  0
 56 69  2  0  0  0
 57 58  2  0  0  0
 57129  1  0  0  0
 58130  1  0  0  0
 59 60  1  0  0  0
 59 61  1  0  0  0
 59 62  1  0  0  0
 60131  1  0  0  0
 60132  1  0  0  0
 60133  1  0  0  0
 61134  1  0  0  0
 61135  1  0  0  0
 61136  1  0  0  0
 62137  1  0  0  0
 62138  1  0  0  0
 62139  1  0  0  0
 63 65  1  0  0  0
 63140  1  0  0  0
 63141  1  0  0  0
 63142  1  0  0  0
 64143  1  0  0  0
 65144  1  0  0  0
 68 77  1  0  0  0
 71 72  2  0  0  0
 71 73  1  0  0  0
 71 85  1  0  0  0
 72 80  1  0  0  0
 72 83  1  0  0  0
 73 81  2  0  0  0
 73 84  1  0  0  0
 74 80  2  0  0  0
 74 81  1  0  0  0
 74 82  1  0  0  0
 75145  1  0  0  0
 75146  1  0  0  0
 75147  1  0  0  0
 75 78  1  0  0  0
 76148  1  0  0  0
 76149  1  0  0  0
 76150  1  0  0  0
 76 79  1  0  0  0
 77 78  1  0  0  0
 77151  1  0  0  0
 77152  1  0  0  0
 78 79  1  0  0  0
 78153  1  0  0  0
 79 84  1  0  0  0
 79154  1  0  0  0
 82155  1  0  0  0
 82156  1  0  0  0
 83157  1  0  0  0
 84158  1  0  0  0
M  ISO  4   1 100  68 101  77 101  83 100
M  END
> <chiral flag>
0

> <version>
0

> <s_m_source_file>
/data/baiqing/PycharmProjects/Reinvent-master-3.2/result/LINK_invent/BTK/process_docking_weight1_custom_product_contain_oxygen_bond_distance_aromatic_linkinvent_7_9_3/rearranged_h_0185.sdf

> <i_m_source_file_index>
64

> <r_mmod_Potential_Energy-OPLS-2005>
-287.348876953125

> <r_mmod_Stretch_Energy-OPLS-2005>
125.806541442871

> <r_mmod_Bend_Energy-OPLS-2005>
187.400192260742

> <r_mmod_Torsional_Energy-OPLS-2005>
258.581817626953

> <r_mmod_Improper_Torsional_Energy-OPLS-2005>
10.1202163696289

> <r_mmod_Van_der_Waal_Energy-OPLS-2005>
141.873870849609

> <r_mmod_Electrostatic_Energy-OPLS-2005>
-856.297668457031

> <r_mmod_Solvation_Energy-OPLS-2005>
-234.286010742188

> <b_mmod_Minimization_Converged-OPLS-2005>
0

> <r_mmod_RMS_Derivative-OPLS-2005>
1.68077862262726

$$$$
64
                    3D
 Structure written by MMmdl.
153161  0  0  1  0            999 V2000
  -30.6570  -14.7274   20.4380 C   0  0  0  0  0  0
  -30.4150  -12.4309   19.5070 C   0  0  0  0  0  0
  -29.5125  -12.4988   18.2563 C   0  0  0  0  0  0
  -28.0373  -12.3303   18.6613 C   0  0  0  0  0  0
  -27.6417  -13.2397   19.8566 C   0  0  2  0  0  0
  -28.6807  -13.1977   21.0006 C   0  0  0  0  0  0
  -25.2491  -13.8224   20.5713 C   0  0  0  0  0  0
  -24.1788  -13.0447   20.9201 C   0  0  0  0  0  0
  -24.6388  -11.6925   20.8745 C   0  0  0  0  0  0
  -23.9074  -10.4291   21.0399 C   0  0  0  0  0  0
  -24.3621   -9.4209   21.9180 C   0  0  0  0  0  0
  -23.6291   -8.2246   22.0752 C   0  0  0  0  0  0
  -22.4278   -8.0275   21.3539 C   0  0  0  0  0  0
  -21.9914   -9.0253   20.4646 C   0  0  0  0  0  0
  -22.7244  -10.2133   20.3052 C   0  0  0  0  0  0
  -21.6854   -6.0730   22.5272 C   0  0  0  0  0  0
  -21.4022   -6.5641   23.8206 C   0  0  0  0  0  0
  -21.3662   -5.6796   24.9173 C   0  0  0  0  0  0
  -21.6037   -4.3054   24.7227 C   0  0  0  0  0  0
  -21.8822   -3.8144   23.4349 C   0  0  0  0  0  0
  -21.9197   -4.6957   22.3401 C   0  0  0  0  0  0
  -22.7807  -13.5210   21.1863 C   0  0  0  0  0  0
  -22.1660   -4.2136   21.0977 F   0  0  0  0  0  0
  -21.5627   -3.4540   25.7747 F   0  0  0  0  0  0
  -29.9920  -13.5182   20.4260 N   0  0  0  0  0  0
  -26.2931  -12.9451   20.3314 N   0  0  0  0  0  0
  -25.9331  -11.6583   20.5784 N   0  0  0  0  0  0
  -22.0476  -12.8183   22.0424 N   0  0  0  0  0  0
  -25.4187  -15.1945   20.4139 N   0  0  0  0  0  0
  -31.8434  -14.7371   20.0952 O   0  0  0  0  0  0
  -21.6643   -6.8871   21.4231 O   0  0  0  0  0  0
  -22.3491  -14.5517   20.6719 O   0  0  0  0  0  0
  -24.6323  -31.8555   23.2005 C   0  0  0  0  0  0
  -25.9138  -32.4761   23.8348 C   0  0  1  0  0  0
  -27.2078  -27.2530   20.1325 C   0  0  0  0  0  0
  -25.5945  -33.8568   24.2263 N   0  0  0  0  0  0
  -23.4302  -30.4792   21.5448 C   0  0  2  0  0  0
  -24.8790  -28.9407   20.0999 C   0  0  0  0  0  0
  -22.7522  -29.4592   22.4920 C   0  0  0  0  0  0
  -18.0293  -28.1390   22.8463 C   0  0  0  0  0  0
  -24.1492  -36.7292   23.2636 C   0  0  0  0  0  0
  -25.9778  -30.7666   21.3858 C   0  0  0  0  0  0
  -26.0502  -29.3919   20.7225 C   0  0  0  0  0  0
  -27.2191  -28.5593   20.7328 C   0  0  0  0  0  0
  -26.0300  -26.9059   19.4299 C   0  0  0  0  0  0
  -24.8761  -27.7064   19.4402 C   0  0  0  0  0  0
  -23.6475  -29.8224   20.1574 C   0  0  0  0  0  0
  -25.4114  -36.3073   24.0321 C   0  0  1  0  0  0
  -20.5893  -28.3696   23.1260 C   0  0  2  0  0  0
  -20.6784  -26.9413   22.5399 C   0  0  0  0  0  0
  -19.5761  -26.6380   21.5205 C   0  0  0  0  0  0
  -18.1930  -26.7929   22.1606 C   0  0  0  0  0  0
  -19.1546  -28.8859   23.2844 C   0  0  0  0  0  0
  -18.9472  -30.1455   23.8859 C   0  0  0  0  0  0
  -17.6473  -30.6579   24.0556 C   0  0  0  0  0  0
  -25.9060  -34.9443   23.5091 C   0  0  0  0  0  0
  -16.5360  -29.9073   23.6350 C   0  0  0  0  0  0
  -16.7281  -28.6505   23.0346 C   0  0  0  0  0  0
  -26.4507  -31.6592   25.0743 C   0  0  0  0  0  0
  -25.3724  -31.3762   26.1463 C   0  0  0  0  0  0
  -27.0359  -30.2999   24.6256 C   0  0  0  0  0  0
  -27.6060  -32.4350   25.7518 C   0  0  0  0  0  0
  -27.5574  -37.1787   24.8463 C   0  0  0  0  0  0
  -21.4224  -29.3042   22.3654 N   0  0  0  0  0  0
  -26.4287  -37.3769   23.9411 N   0  0  0  0  0  0
  -24.6989  -31.0511   22.0996 N   0  0  0  0  0  0
  -23.4221  -28.8125   23.3022 O   0  0  0  0  0  0
  -28.2432  -26.2880   20.2640 O   0  0  0  0  0  0
  -26.5633  -34.8928   22.4662 O   0  0  0  0  0  0
  -23.5478  -32.1387   23.7285 O   0  0  0  0  0  0
  -29.3456  -20.5705   21.7948 C   0  0  0  0  0  0
  -29.6797  -19.1477   21.8399 C   0  0  0  0  0  0
  -29.7325  -18.5304   20.6045 C   0  0  0  0  0  0
  -29.1195  -21.1188   20.5435 C   0  0  0  0  0  0
  -30.2794  -17.1639   20.1213 C   0  0  0  0  0  0
  -28.9103  -23.6754   20.6338 C   0  0  0  0  0  0
  -26.7751  -24.6570   21.4714 C   0  0  0  0  0  0
  -27.8284  -24.8265   20.3456 C   0  0  1  0  0  0
  -30.0114  -18.4064   23.1052 C   0  0  0  0  0  0
  -28.6594  -22.3923   20.1733 N   0  0  0  0  0  0
  -29.9650  -15.9167   20.6579 N   0  0  0  0  0  0
  -31.0474  -17.2500   19.1580 O   0  0  0  0  0  0
  -29.9214  -23.9380   21.2904 O   0  0  0  0  0  0
  -29.8992  -19.1846   24.1826 F   0  0  0  0  0  0
  -29.1975  -17.3641   23.2755 F   0  0  0  0  0  0
  -31.2604  -17.9415   23.0743 F   0  0  0  0  0  0
  -29.3512  -19.7809   19.3854 S   0  0  0  0  0  0
  -31.4651  -12.5015   19.2177 H   0  0  0  0  0  0
  -30.3153  -11.4616   19.9989 H   0  0  0  0  0  0
  -29.7941  -11.7224   17.5441 H   0  0  0  0  0  0
  -29.6530  -13.4537   17.7477 H   0  0  0  0  0  0
  -27.8924  -11.2831   18.9319 H   0  0  0  0  0  0
  -27.3835  -12.5151   17.8089 H   0  0  0  0  0  0
  -27.6329  -14.2574   19.4663 H   0  0  0  0  0  0
  -28.7009  -12.2143   21.4708 H   0  0  0  0  0  0
  -28.4169  -13.9064   21.7867 H   0  0  0  0  0  0
  -25.2767   -9.5689   22.4756 H   0  0  0  0  0  0
  -23.9998   -7.4647   22.7481 H   0  0  0  0  0  0
  -21.0839   -8.8772   19.8957 H   0  0  0  0  0  0
  -22.3692  -10.9671   19.6160 H   0  0  0  0  0  0
  -21.2019   -7.6151   23.9704 H   0  0  0  0  0  0
  -21.1479   -6.0531   25.9073 H   0  0  0  0  0  0
  -22.0599   -2.7602   23.2860 H   0  0  0  0  0  0
  -22.4122  -11.9836   22.4776 H   0  0  0  0  0  0
  -21.1098  -13.1196   22.2674 H   0  0  0  0  0  0
  -24.6503  -15.8476   20.5206 H   0  0  0  0  0  0
  -26.2665  -15.6326   20.0781 H   0  0  0  0  0  0
  -26.7190  -32.5403   23.1077 H   0  0  0  0  0  0
  -25.0102  -33.9717   25.0414 H   0  0  0  0  0  0
  -22.7273  -31.3016   21.3995 H   0  0  0  0  0  0
  -23.3761  -35.9624   23.3314 H   0  0  0  0  0  0
  -24.3568  -36.8921   22.2050 H   0  0  0  0  0  0
  -23.7253  -37.6492   23.6667 H   0  0  0  0  0  0
  -26.1194  -31.5311   20.6204 H   0  0  0  0  0  0
  -26.8547  -30.8105   22.0205 H   0  0  0  0  0  0
  -28.1053  -28.8867   21.2572 H   0  0  0  0  0  0
  -25.9522  -25.9693   18.9019 H   0  0  0  0  0  0
  -23.9868  -27.3606   18.9311 H   0  0  0  0  0  0
  -23.7691  -30.6042   19.4071 H   0  0  0  0  0  0
  -22.7656  -29.2563   19.8506 H   0  0  0  0  0  0
  -25.1289  -36.1929   25.0814 H   0  0  0  0  0  0
  -20.9951  -28.3264   24.1398 H   0  0  0  0  0  0
  -20.5697  -26.2297   23.3596 H   0  0  0  0  0  0
  -21.6646  -26.7451   22.1173 H   0  0  0  0  0  0
  -19.6936  -25.6289   21.1236 H   0  0  0  0  0  0
  -19.6706  -27.3189   20.6734 H   0  0  0  0  0  0
  -17.4201  -26.6674   21.4006 H   0  0  0  0  0  0
  -18.0316  -26.0083   22.9015 H   0  0  0  0  0  0
  -19.7959  -30.7265   24.2215 H   0  0  0  0  0  0
  -17.5044  -31.6265   24.5151 H   0  0  0  0  0  0
  -15.5358  -30.2959   23.7720 H   0  0  0  0  0  0
  -15.8679  -28.0822   22.7070 H   0  0  0  0  0  0
  -24.5890  -30.7125   25.7790 H   0  0  0  0  0  0
  -24.8921  -32.2938   26.4858 H   0  0  0  0  0  0
  -25.8025  -30.8947   27.0253 H   0  0  0  0  0  0
  -26.2951  -29.6731   24.1271 H   0  0  0  0  0  0
  -27.4005  -29.7283   25.4797 H   0  0  0  0  0  0
  -27.8859  -30.4260   23.9551 H   0  0  0  0  0  0
  -27.2672  -33.3686   26.2027 H   0  0  0  0  0  0
  -28.3903  -32.6850   25.0361 H   0  0  0  0  0  0
  -28.0692  -31.8515   26.5485 H   0  0  0  0  0  0
  -28.2576  -38.0090   24.7494 H   0  0  0  0  0  0
  -28.1078  -36.2614   24.6308 H   0  0  0  0  0  0
  -27.2282  -37.1459   25.8860 H   0  0  0  0  0  0
  -20.9416  -29.8809   21.6883 H   0  0  0  0  0  0
  -26.0179  -38.2851   24.1419 H   0  0  0  0  0  0
  -29.2698  -21.1413   22.7098 H   0  0  0  0  0  0
  -25.8057  -25.0791   21.2175 H   0  0  0  0  0  0
  -27.1123  -25.1319   22.3930 H   0  0  0  0  0  0
  -26.5854  -23.6065   21.6995 H   0  0  0  0  0  0
  -27.3933  -24.5381   19.3886 H   0  0  0  0  0  0
  -27.9323  -22.3717   19.4701 H   0  0  0  0  0  0
  -29.1183  -15.8610   21.1987 H   0  0  0  0  0  0
  1 25  1  0  0  0
  1 30  2  0  0  0
  1 81  1  0  0  0
  2  3  1  0  0  0
  2 25  1  0  0  0
  2 88  1  0  0  0
  2 89  1  0  0  0
  3  4  1  0  0  0
  3 90  1  0  0  0
  3 91  1  0  0  0
  4  5  1  0  0  0
  4 92  1  0  0  0
  4 93  1  0  0  0
  5  6  1  0  0  0
  5 26  1  0  0  0
  5 94  1  0  0  0
  6 25  1  0  0  0
  6 95  1  0  0  0
  6 96  1  0  0  0
  7  8  2  0  0  0
  7 26  1  0  0  0
  7 29  1  0  0  0
  8  9  1  0  0  0
  8 22  1  0  0  0
  9 10  1  0  0  0
  9 27  2  0  0  0
 10 11  2  0  0  0
 10 15  1  0  0  0
 11 12  1  0  0  0
 11 97  1  0  0  0
 12 13  2  0  0  0
 12 98  1  0  0  0
 13 14  1  0  0  0
 13 31  1  0  0  0
 14 15  2  0  0  0
 14 99  1  0  0  0
 15100  1  0  0  0
 16 17  2  0  0  0
 16 21  1  0  0  0
 16 31  1  0  0  0
 17 18  1  0  0  0
 17101  1  0  0  0
 18 19  2  0  0  0
 18102  1  0  0  0
 19 20  1  0  0  0
 19 24  1  0  0  0
 20 21  2  0  0  0
 20103  1  0  0  0
 21 23  1  0  0  0
 22 28  1  0  0  0
 22 32  2  0  0  0
 26 27  1  0  0  0
 28104  1  0  0  0
 28105  1  0  0  0
 29106  1  0  0  0
 29107  1  0  0  0
 33 34  1  0  0  0
 33 66  1  0  0  0
 33 70  2  0  0  0
 34 36  1  0  0  0
 34 59  1  0  0  0
 34108  1  0  0  0
 35 44  2  0  0  0
 35 45  1  0  0  0
 35 68  1  0  0  0
 36 56  1  0  0  0
 36109  1  0  0  0
 37 39  1  0  0  0
 37 47  1  0  0  0
 37 66  1  0  0  0
 37110  1  0  0  0
 38 43  2  0  0  0
 38 46  1  0  0  0
 38 47  1  0  0  0
 39 64  1  0  0  0
 39 67  2  0  0  0
 40 52  1  0  0  0
 40 53  2  0  0  0
 40 58  1  0  0  0
 41111  1  0  0  0
 41112  1  0  0  0
 41113  1  0  0  0
 41 48  1  0  0  0
 42 43  1  0  0  0
 42 66  1  0  0  0
 42114  1  0  0  0
 42115  1  0  0  0
 43 44  1  0  0  0
 44116  1  0  0  0
 45 46  2  0  0  0
 45117  1  0  0  0
 46118  1  0  0  0
 47119  1  0  0  0
 47120  1  0  0  0
 48 56  1  0  0  0
 48 65  1  0  0  0
 48121  1  0  0  0
 49 50  1  0  0  0
 49 53  1  0  0  0
 49 64  1  0  0  0
 49122  1  0  0  0
 50 51  1  0  0  0
 50123  1  0  0  0
 50124  1  0  0  0
 51 52  1  0  0  0
 51125  1  0  0  0
 51126  1  0  0  0
 52127  1  0  0  0
 52128  1  0  0  0
 53 54  1  0  0  0
 54 55  2  0  0  0
 54129  1  0  0  0
 55 57  1  0  0  0
 55130  1  0  0  0
 56 69  2  0  0  0
 57 58  2  0  0  0
 57131  1  0  0  0
 58132  1  0  0  0
 59 60  1  0  0  0
 59 61  1  0  0  0
 59 62  1  0  0  0
 60133  1  0  0  0
 60134  1  0  0  0
 60135  1  0  0  0
 61136  1  0  0  0
 61137  1  0  0  0
 61138  1  0  0  0
 62139  1  0  0  0
 62140  1  0  0  0
 62141  1  0  0  0
 63 65  1  0  0  0
 63142  1  0  0  0
 63143  1  0  0  0
 63144  1  0  0  0
 64145  1  0  0  0
 65146  1  0  0  0
 68 78  1  0  0  0
 71 72  1  0  0  0
 71 74  2  0  0  0
 71147  1  0  0  0
 72 73  2  0  0  0
 72 79  1  0  0  0
 73 75  1  0  0  0
 73 87  1  0  0  0
 74 80  1  0  0  0
 74 87  1  0  0  0
 75 81  1  0  0  0
 75 82  2  0  0  0
 76 78  1  0  0  0
 76 80  1  0  0  0
 76 83  2  0  0  0
 77148  1  0  0  0
 77149  1  0  0  0
 77150  1  0  0  0
 77 78  1  0  0  0
 78151  1  0  0  0
 79 84  1  0  0  0
 79 85  1  0  0  0
 79 86  1  0  0  0
 80152  1  0  0  0
 81153  1  0  0  0
M  ISO  4   1 100  68 101  78 101  81 100
M  END
> <chiral flag>
0

> <version>
0

> <s_m_source_file>
/data/baiqing/PycharmProjects/Reinvent-master-3.2/result/LINK_invent/BTK/process_docking_weight1_custom_product_contain_oxygen_bond_distance_aromatic_linkinvent_7_9_3/rearranged_h_0185.sdf

> <i_m_source_file_index>
65

> <r_mmod_Potential_Energy-OPLS-2005>
44.2942924499512

> <r_mmod_Stretch_Energy-OPLS-2005>
114.470672607422

> <r_mmod_Bend_Energy-OPLS-2005>
178.992797851562

> <r_mmod_Torsional_Energy-OPLS-2005>
287.109161376953

> <r_mmod_Improper_Torsional_Energy-OPLS-2005>
5.95660495758057

> <r_mmod_Van_der_Waal_Energy-OPLS-2005>
133.004913330078

> <r_mmod_Electrostatic_Energy-OPLS-2005>
-521.319274902344

> <r_mmod_Solvation_Energy-OPLS-2005>
-249.537094116211

> <b_mmod_Minimization_Converged-OPLS-2005>
0

> <r_mmod_RMS_Derivative-OPLS-2005>
1.91668820381165

$$$$
65
                    3D
 Structure written by MMmdl.
169178  0  0  1  0            999 V2000
  -30.4815  -15.0278   20.4147 C   0  0  0  0  0  0
  -30.4504  -12.6398   19.5130 C   0  0  0  0  0  0
  -29.5347  -12.5529   18.2680 C   0  0  0  0  0  0
  -28.0662  -12.3267   18.6772 C   0  0  0  0  0  0
  -27.6293  -13.2527   19.8417 C   0  0  2  0  0  0
  -28.6675  -13.2883   20.9838 C   0  0  0  0  0  0
  -25.2442  -13.8211   20.5692 C   0  0  0  0  0  0
  -24.1769  -13.0432   20.9252 C   0  0  0  0  0  0
  -24.6389  -11.6925   20.8751 C   0  0  0  0  0  0
  -23.9059  -10.4295   21.0391 C   0  0  0  0  0  0
  -24.3606   -9.4221   21.9188 C   0  0  0  0  0  0
  -23.6299   -8.2243   22.0756 C   0  0  0  0  0  0
  -22.4285   -8.0272   21.3538 C   0  0  0  0  0  0
  -21.9905   -9.0240   20.4648 C   0  0  0  0  0  0
  -22.7212  -10.2134   20.3056 C   0  0  0  0  0  0
  -21.6851   -6.0742   22.5285 C   0  0  0  0  0  0
  -21.4001   -6.5644   23.8223 C   0  0  0  0  0  0
  -21.3665   -5.6795   24.9187 C   0  0  0  0  0  0
  -21.6052   -4.3060   24.7232 C   0  0  0  0  0  0
  -21.8816   -3.8143   23.4351 C   0  0  0  0  0  0
  -21.9194   -4.6964   22.3410 C   0  0  0  0  0  0
  -22.7782  -13.5200   21.1918 C   0  0  0  0  0  0
  -22.1669   -4.2153   21.0984 F   0  0  0  0  0  0
  -21.5636   -3.4549   25.7746 F   0  0  0  0  0  0
  -29.9379  -13.7350   20.3928 N   0  0  0  0  0  0
  -26.2870  -12.9445   20.3237 N   0  0  0  0  0  0
  -25.9318  -11.6577   20.5708 N   0  0  0  0  0  0
  -22.0412  -12.8197   22.0465 N   0  0  0  0  0  0
  -25.4096  -15.1942   20.4091 N   0  0  0  0  0  0
  -31.6800  -15.1146   20.1118 O   0  0  0  0  0  0
  -21.6636   -6.8876   21.4246 O   0  0  0  0  0  0
  -22.3485  -14.5513   20.6782 O   0  0  0  0  0  0
  -24.6482  -31.8365   23.1837 C   0  0  0  0  0  0
  -25.9233  -32.4655   23.8232 C   0  0  1  0  0  0
  -27.2034  -27.0669   20.1766 C   0  0  0  0  0  0
  -25.5967  -33.8471   24.2148 N   0  0  0  0  0  0
  -23.4563  -30.4556   21.5307 C   0  0  2  0  0  0
  -24.9064  -28.8700   20.1148 C   0  0  0  0  0  0
  -22.7607  -29.4504   22.4832 C   0  0  0  0  0  0
  -18.0318  -28.1392   22.8494 C   0  0  0  0  0  0
  -24.1497  -36.7245   23.2641 C   0  0  0  0  0  0
  -26.0180  -30.6871   21.3957 C   0  0  0  0  0  0
  -26.0853  -29.2909   20.7438 C   0  0  0  0  0  0
  -27.2369  -28.4066   20.7575 C   0  0  0  0  0  0
  -26.0124  -26.7774   19.4810 C   0  0  0  0  0  0
  -24.8857  -27.6283   19.4645 C   0  0  0  0  0  0
  -23.6897  -29.7835   20.1517 C   0  0  0  0  0  0
  -25.4127  -36.3007   24.0307 C   0  0  1  0  0  0
  -20.5935  -28.3714   23.1246 C   0  0  2  0  0  0
  -20.6797  -26.9414   22.5408 C   0  0  0  0  0  0
  -19.5763  -26.6372   21.5227 C   0  0  0  0  0  0
  -18.1954  -26.7941   22.1640 C   0  0  0  0  0  0
  -19.1577  -28.8877   23.2862 C   0  0  0  0  0  0
  -18.9483  -30.1481   23.8869 C   0  0  0  0  0  0
  -17.6474  -30.6588   24.0557 C   0  0  0  0  0  0
  -25.9083  -34.9383   23.5037 C   0  0  0  0  0  0
  -16.5370  -29.9073   23.6326 C   0  0  0  0  0  0
  -16.7300  -28.6491   23.0356 C   0  0  0  0  0  0
  -26.4523  -31.6554   25.0703 C   0  0  0  0  0  0
  -25.3694  -31.3791   26.1394 C   0  0  0  0  0  0
  -27.0377  -30.2925   24.6343 C   0  0  0  0  0  0
  -27.6035  -32.4329   25.7499 C   0  0  0  0  0  0
  -27.5571  -37.1783   24.8457 C   0  0  0  0  0  0
  -21.4291  -29.3033   22.3606 N   0  0  0  0  0  0
  -26.4266  -37.3733   23.9419 N   0  0  0  0  0  0
  -24.7276  -31.0164   22.0914 N   0  0  0  0  0  0
  -23.4228  -28.8052   23.3003 O   0  0  0  0  0  0
  -28.2285  -26.0326   20.1896 O   0  0  0  0  0  0
  -26.5662  -34.8890   22.4618 O   0  0  0  0  0  0
  -23.5587  -32.1267   23.7023 O   0  0  0  0  0  0
  -30.3075  -19.9095   19.6185 C   0  0  0  0  0  0
  -29.2344  -20.4904   20.3476 C   0  0  0  0  0  0
  -29.6692  -17.7231   20.4693 C   0  0  0  0  0  0
  -28.6291  -23.1522   20.0106 C   0  0  0  0  0  0
  -30.8842  -21.1083   17.4009 C   0  0  0  0  0  0
  -32.0498  -21.3305   16.4302 C   0  0  0  0  0  0
  -33.6198  -21.6852   18.4144 C   0  0  0  0  0  0
  -31.3824  -20.5528   18.7480 C   0  0  1  0  0  0
  -32.4970  -21.3948   19.4534 C   0  0  0  0  0  0
  -33.1190  -22.2337   17.0597 C   0  0  0  0  0  0
  -31.9814  -22.7177   20.0529 C   0  0  0  0  0  0
  -33.1153  -20.5830   20.6118 C   0  0  0  0  0  0
  -26.6005  -24.2737   21.2132 C   0  0  0  0  0  0
  -28.0448  -24.5513   20.7514 C   0  0  1  0  0  0
  -30.4914  -18.4592   19.6958 N   0  0  0  0  0  0
  -28.7570  -21.8544   20.6337 N   0  0  0  0  0  0
  -29.6458  -16.1736   20.6420 N   0  0  0  0  0  0
  -28.8957  -23.2771   18.8197 O   0  0  0  0  0  0
  -34.1509  -22.3087   16.2209 F   0  0  0  0  0  0
  -32.6303  -23.4655   17.2064 F   0  0  0  0  0  0
  -28.5139  -18.9935   21.1551 S   0  0  0  0  0  0
  -31.4787  -12.8256   19.1983 H   0  0  0  0  0  0
  -30.4725  -11.6888   20.0490 H   0  0  0  0  0  0
  -29.8671  -11.7492   17.6090 H   0  0  0  0  0  0
  -29.6188  -13.4764   17.6911 H   0  0  0  0  0  0
  -27.9647  -11.2830   18.9783 H   0  0  0  0  0  0
  -27.4092  -12.4618   17.8175 H   0  0  0  0  0  0
  -27.5868  -14.2551   19.4153 H   0  0  0  0  0  0
  -28.7695  -12.3079   21.4533 H   0  0  0  0  0  0
  -28.3499  -13.9736   21.7725 H   0  0  0  0  0  0
  -25.2737   -9.5727   22.4790 H   0  0  0  0  0  0
  -24.0038   -7.4620   22.7454 H   0  0  0  0  0  0
  -21.0855   -8.8721   19.8938 H   0  0  0  0  0  0
  -22.3636  -10.9676   19.6182 H   0  0  0  0  0  0
  -21.1974   -7.6147   23.9730 H   0  0  0  0  0  0
  -21.1499   -6.0523   25.9098 H   0  0  0  0  0  0
  -22.0589   -2.7605   23.2842 H   0  0  0  0  0  0
  -22.4011  -11.9863   22.4877 H   0  0  0  0  0  0
  -21.1015  -13.1214   22.2634 H   0  0  0  0  0  0
  -24.6252  -15.8324   20.4967 H   0  0  0  0  0  0
  -26.2253  -15.6269   19.9968 H   0  0  0  0  0  0
  -26.7299  -32.5232   23.0946 H   0  0  0  0  0  0
  -25.0103  -33.9579   25.0289 H   0  0  0  0  0  0
  -22.7626  -31.2830   21.3723 H   0  0  0  0  0  0
  -23.3753  -35.9581   23.3263 H   0  0  0  0  0  0
  -24.3585  -36.8905   22.2061 H   0  0  0  0  0  0
  -23.7250  -37.6434   23.6697 H   0  0  0  0  0  0
  -26.1833  -31.4333   20.6178 H   0  0  0  0  0  0
  -26.8858  -30.7400   22.0408 H   0  0  0  0  0  0
  -28.1340  -28.7270   21.2683 H   0  0  0  0  0  0
  -25.9332  -25.8363   18.9584 H   0  0  0  0  0  0
  -23.9931  -27.3041   18.9467 H   0  0  0  0  0  0
  -23.8463  -30.5569   19.3993 H   0  0  0  0  0  0
  -22.8017  -29.2365   19.8283 H   0  0  0  0  0  0
  -25.1319  -36.1804   25.0790 H   0  0  0  0  0  0
  -21.0046  -28.3286   24.1357 H   0  0  0  0  0  0
  -20.5717  -26.2316   23.3627 H   0  0  0  0  0  0
  -21.6662  -26.7419   22.1189 H   0  0  0  0  0  0
  -19.6914  -25.6278   21.1266 H   0  0  0  0  0  0
  -19.6694  -27.3181   20.6765 H   0  0  0  0  0  0
  -17.4227  -26.6706   21.4032 H   0  0  0  0  0  0
  -18.0323  -26.0083   22.9032 H   0  0  0  0  0  0
  -19.7950  -30.7326   24.2214 H   0  0  0  0  0  0
  -17.5012  -31.6266   24.5171 H   0  0  0  0  0  0
  -15.5368  -30.2960   23.7666 H   0  0  0  0  0  0
  -15.8708  -28.0804   22.7074 H   0  0  0  0  0  0
  -24.5900  -30.7088   25.7742 H   0  0  0  0  0  0
  -24.8857  -32.2997   26.4674 H   0  0  0  0  0  0
  -25.7974  -30.9080   27.0252 H   0  0  0  0  0  0
  -26.3001  -29.6650   24.1329 H   0  0  0  0  0  0
  -27.3929  -29.7221   25.4934 H   0  0  0  0  0  0
  -27.8931  -30.4108   23.9695 H   0  0  0  0  0  0
  -27.2621  -33.3677   26.1946 H   0  0  0  0  0  0
  -28.3928  -32.6804   25.0391 H   0  0  0  0  0  0
  -28.0602  -31.8530   26.5529 H   0  0  0  0  0  0
  -28.2558  -38.0112   24.7536 H   0  0  0  0  0  0
  -28.1097  -36.2645   24.6237 H   0  0  0  0  0  0
  -27.2292  -37.1362   25.8856 H   0  0  0  0  0  0
  -20.9508  -29.8752   21.6787 H   0  0  0  0  0  0
  -26.0112  -38.2781   24.1450 H   0  0  0  0  0  0
  -30.1802  -20.4091   16.9520 H   0  0  0  0  0  0
  -30.3562  -22.0423   17.5213 H   0  0  0  0  0  0
  -31.6830  -21.7693   15.5017 H   0  0  0  0  0  0
  -32.4889  -20.3683   16.1588 H   0  0  0  0  0  0
  -34.1597  -20.7587   18.2152 H   0  0  0  0  0  0
  -34.3655  -22.3637   18.8334 H   0  0  0  0  0  0
  -31.9704  -19.7038   18.3918 H   0  0  0  0  0  0
  -31.4426  -23.3199   19.3251 H   0  0  0  0  0  0
  -32.8004  -23.3344   20.4259 H   0  0  0  0  0  0
  -31.3193  -22.5361   20.8984 H   0  0  0  0  0  0
  -33.5053  -19.6243   20.2646 H   0  0  0  0  0  0
  -32.3840  -20.3672   21.3914 H   0  0  0  0  0  0
  -33.9382  -21.1257   21.0809 H   0  0  0  0  0  0
  -25.9325  -24.1131   20.3680 H   0  0  0  0  0  0
  -26.2037  -25.0870   21.8220 H   0  0  0  0  0  0
  -26.5514  -23.3732   21.8261 H   0  0  0  0  0  0
  -28.6333  -24.5903   21.6677 H   0  0  0  0  0  0
  -28.3370  -21.8994   21.5532 H   0  0  0  0  0  0
  -28.7476  -15.8692   20.9835 H   0  0  0  0  0  0
  1 25  1  0  0  0
  1 30  2  0  0  0
  1 87  1  0  0  0
  2  3  1  0  0  0
  2 25  1  0  0  0
  2 92  1  0  0  0
  2 93  1  0  0  0
  3  4  1  0  0  0
  3 94  1  0  0  0
  3 95  1  0  0  0
  4  5  1  0  0  0
  4 96  1  0  0  0
  4 97  1  0  0  0
  5  6  1  0  0  0
  5 26  1  0  0  0
  5 98  1  0  0  0
  6 25  1  0  0  0
  6 99  1  0  0  0
  6100  1  0  0  0
  7  8  2  0  0  0
  7 26  1  0  0  0
  7 29  1  0  0  0
  8  9  1  0  0  0
  8 22  1  0  0  0
  9 10  1  0  0  0
  9 27  2  0  0  0
 10 11  2  0  0  0
 10 15  1  0  0  0
 11 12  1  0  0  0
 11101  1  0  0  0
 12 13  2  0  0  0
 12102  1  0  0  0
 13 14  1  0  0  0
 13 31  1  0  0  0
 14 15  2  0  0  0
 14103  1  0  0  0
 15104  1  0  0  0
 16 17  2  0  0  0
 16 21  1  0  0  0
 16 31  1  0  0  0
 17 18  1  0  0  0
 17105  1  0  0  0
 18 19  2  0  0  0
 18106  1  0  0  0
 19 20  1  0  0  0
 19 24  1  0  0  0
 20 21  2  0  0  0
 20107  1  0  0  0
 21 23  1  0  0  0
 22 28  1  0  0  0
 22 32  2  0  0  0
 26 27  1  0  0  0
 28108  1  0  0  0
 28109  1  0  0  0
 29110  1  0  0  0
 29111  1  0  0  0
 33 34  1  0  0  0
 33 66  1  0  0  0
 33 70  2  0  0  0
 34 36  1  0  0  0
 34 59  1  0  0  0
 34112  1  0  0  0
 35 44  2  0  0  0
 35 45  1  0  0  0
 35 68  1  0  0  0
 36 56  1  0  0  0
 36113  1  0  0  0
 37 39  1  0  0  0
 37 47  1  0  0  0
 37 66  1  0  0  0
 37114  1  0  0  0
 38 43  2  0  0  0
 38 46  1  0  0  0
 38 47  1  0  0  0
 39 64  1  0  0  0
 39 67  2  0  0  0
 40 52  1  0  0  0
 40 53  2  0  0  0
 40 58  1  0  0  0
 41115  1  0  0  0
 41116  1  0  0  0
 41117  1  0  0  0
 41 48  1  0  0  0
 42 43  1  0  0  0
 42 66  1  0  0  0
 42118  1  0  0  0
 42119  1  0  0  0
 43 44  1  0  0  0
 44120  1  0  0  0
 45 46  2  0  0  0
 45121  1  0  0  0
 46122  1  0  0  0
 47123  1  0  0  0
 47124  1  0  0  0
 48 56  1  0  0  0
 48 65  1  0  0  0
 48125  1  0  0  0
 49 50  1  0  0  0
 49 53  1  0  0  0
 49 64  1  0  0  0
 49126  1  0  0  0
 50 51  1  0  0  0
 50127  1  0  0  0
 50128  1  0  0  0
 51 52  1  0  0  0
 51129  1  0  0  0
 51130  1  0  0  0
 52131  1  0  0  0
 52132  1  0  0  0
 53 54  1  0  0  0
 54 55  2  0  0  0
 54133  1  0  0  0
 55 57  1  0  0  0
 55134  1  0  0  0
 56 69  2  0  0  0
 57 58  2  0  0  0
 57135  1  0  0  0
 58136  1  0  0  0
 59 60  1  0  0  0
 59 61  1  0  0  0
 59 62  1  0  0  0
 60137  1  0  0  0
 60138  1  0  0  0
 60139  1  0  0  0
 61140  1  0  0  0
 61141  1  0  0  0
 61142  1  0  0  0
 62143  1  0  0  0
 62144  1  0  0  0
 62145  1  0  0  0
 63 65  1  0  0  0
 63146  1  0  0  0
 63147  1  0  0  0
 63148  1  0  0  0
 64149  1  0  0  0
 65150  1  0  0  0
 68 84  1  0  0  0
 71 72  2  0  0  0
 71 85  1  0  0  0
 71 78  1  0  0  0
 72 86  1  0  0  0
 72 91  1  0  0  0
 73 85  2  0  0  0
 73 87  1  0  0  0
 73 91  1  0  0  0
 74 84  1  0  0  0
 74 86  1  0  0  0
 74 88  2  0  0  0
 75 76  1  0  0  0
 75 78  1  0  0  0
 75151  1  0  0  0
 75152  1  0  0  0
 76 80  1  0  0  0
 76153  1  0  0  0
 76154  1  0  0  0
 77 79  1  0  0  0
 77 80  1  0  0  0
 77155  1  0  0  0
 77156  1  0  0  0
 78 79  1  0  0  0
 78157  1  0  0  0
 79 81  1  0  0  0
 79 82  1  0  0  0
 80 89  1  0  0  0
 80 90  1  0  0  0
 81158  1  0  0  0
 81159  1  0  0  0
 81160  1  0  0  0
 82161  1  0  0  0
 82162  1  0  0  0
 82163  1  0  0  0
 83164  1  0  0  0
 83165  1  0  0  0
 83166  1  0  0  0
 83 84  1  0  0  0
 84167  1  0  0  0
 86168  1  0  0  0
 87169  1  0  0  0
M  ISO  4   1 100  68 101  84 101  87 100
M  END
> <chiral flag>
0

> <version>
0

> <s_m_source_file>
/data/baiqing/PycharmProjects/Reinvent-master-3.2/result/LINK_invent/BTK/process_docking_weight1_custom_product_contain_oxygen_bond_distance_aromatic_linkinvent_7_9_3/rearranged_h_0185.sdf

> <i_m_source_file_index>
66

> <r_mmod_Potential_Energy-OPLS-2005>
684.378540039062

> <r_mmod_Stretch_Energy-OPLS-2005>
308.545471191406

> <r_mmod_Bend_Energy-OPLS-2005>
357.747344970703

> <r_mmod_Torsional_Energy-OPLS-2005>
281.345886230469

> <r_mmod_Improper_Torsional_Energy-OPLS-2005>
4.3085241317749

> <r_mmod_Van_der_Waal_Energy-OPLS-2005>
115.035934448242

> <r_mmod_Electrostatic_Energy-OPLS-2005>
-394.847106933594

> <r_mmod_Solvation_Energy-OPLS-2005>
-243.58642578125

> <b_mmod_Minimization_Converged-OPLS-2005>
0

> <r_mmod_RMS_Derivative-OPLS-2005>
2.63310527801514

$$$$
66
                    3D
 Structure written by MMmdl.
150158  0  0  1  0            999 V2000
  -30.6168  -14.7412   20.4339 C   0  0  0  0  0  0
  -30.4286  -12.4445   19.4853 C   0  0  0  0  0  0
  -29.5130  -12.5074   18.2427 C   0  0  0  0  0  0
  -28.0385  -12.3341   18.6526 C   0  0  0  0  0  0
  -27.6434  -13.2345   19.8536 C   0  0  2  0  0  0
  -28.6856  -13.1713   20.9929 C   0  0  0  0  0  0
  -25.2508  -13.8203   20.5705 C   0  0  0  0  0  0
  -24.1799  -13.0442   20.9202 C   0  0  0  0  0  0
  -24.6398  -11.6920   20.8744 C   0  0  0  0  0  0
  -23.9078  -10.4296   21.0407 C   0  0  0  0  0  0
  -24.3625   -9.4209   21.9183 C   0  0  0  0  0  0
  -23.6301   -8.2245   22.0751 C   0  0  0  0  0  0
  -22.4280   -8.0286   21.3544 C   0  0  0  0  0  0
  -21.9916   -9.0260   20.4649 C   0  0  0  0  0  0
  -22.7246  -10.2137   20.3061 C   0  0  0  0  0  0
  -21.6850   -6.0741   22.5279 C   0  0  0  0  0  0
  -21.4019   -6.5643   23.8214 C   0  0  0  0  0  0
  -21.3661   -5.6796   24.9175 C   0  0  0  0  0  0
  -21.6042   -4.3057   24.7225 C   0  0  0  0  0  0
  -21.8816   -3.8149   23.4344 C   0  0  0  0  0  0
  -21.9191   -4.6968   22.3401 C   0  0  0  0  0  0
  -22.7824  -13.5229   21.1858 C   0  0  0  0  0  0
  -22.1660   -4.2156   21.0979 F   0  0  0  0  0  0
  -21.5626   -3.4541   25.7735 F   0  0  0  0  0  0
  -29.9926  -13.5117   20.4173 N   0  0  0  0  0  0
  -26.2944  -12.9418   20.3294 N   0  0  0  0  0  0
  -25.9333  -11.6554   20.5753 N   0  0  0  0  0  0
  -22.0471  -12.8227   22.0417 N   0  0  0  0  0  0
  -25.4189  -15.1927   20.4124 N   0  0  0  0  0  0
  -31.8034  -14.8174   20.0984 O   0  0  0  0  0  0
  -21.6639   -6.8884   21.4241 O   0  0  0  0  0  0
  -22.3510  -14.5537   20.6708 O   0  0  0  0  0  0
  -24.6327  -31.8549   23.1986 C   0  0  0  0  0  0
  -25.9154  -32.4749   23.8337 C   0  0  1  0  0  0
  -27.2157  -27.2525   20.1235 C   0  0  0  0  0  0
  -25.5945  -33.8551   24.2264 N   0  0  0  0  0  0
  -23.4297  -30.4793   21.5406 C   0  0  2  0  0  0
  -24.8766  -28.9288   20.1062 C   0  0  0  0  0  0
  -22.7513  -29.4608   22.4886 C   0  0  0  0  0  0
  -18.0300  -28.1389   22.8478 C   0  0  0  0  0  0
  -24.1494  -36.7287   23.2640 C   0  0  0  0  0  0
  -25.9772  -30.7628   21.3832 C   0  0  0  0  0  0
  -26.0477  -29.3857   20.7231 C   0  0  0  0  0  0
  -27.2182  -28.5585   20.7260 C   0  0  0  0  0  0
  -26.0251  -26.8781   19.4582 C   0  0  0  0  0  0
  -24.8718  -27.6840   19.4617 C   0  0  0  0  0  0
  -23.6493  -29.8185   20.1546 C   0  0  0  0  0  0
  -25.4117  -36.3069   24.0330 C   0  0  1  0  0  0
  -20.5906  -28.3711   23.1256 C   0  0  2  0  0  0
  -20.6787  -26.9425   22.5401 C   0  0  0  0  0  0
  -19.5759  -26.6383   21.5206 C   0  0  0  0  0  0
  -18.1942  -26.7929   22.1619 C   0  0  0  0  0  0
  -19.1555  -28.8864   23.2864 C   0  0  0  0  0  0
  -18.9471  -30.1459   23.8890 C   0  0  0  0  0  0
  -17.6470  -30.6585   24.0563 C   0  0  0  0  0  0
  -25.9057  -34.9436   23.5097 C   0  0  0  0  0  0
  -16.5363  -29.9086   23.6322 C   0  0  0  0  0  0
  -16.7286  -28.6503   23.0346 C   0  0  0  0  0  0
  -26.4514  -31.6572   25.0728 C   0  0  0  0  0  0
  -25.3736  -31.3722   26.1450 C   0  0  0  0  0  0
  -27.0364  -30.2987   24.6222 C   0  0  0  0  0  0
  -27.6065  -32.4317   25.7502 C   0  0  0  0  0  0
  -27.5583  -37.1800   24.8467 C   0  0  0  0  0  0
  -21.4219  -29.3059   22.3644 N   0  0  0  0  0  0
  -26.4289  -37.3767   23.9412 N   0  0  0  0  0  0
  -24.6988  -31.0509   22.0968 N   0  0  0  0  0  0
  -23.4213  -28.8146   23.2987 O   0  0  0  0  0  0
  -28.2990  -26.3400   20.2064 O   0  0  0  0  0  0
  -26.5622  -34.8915   22.4663 O   0  0  0  0  0  0
  -23.5476  -32.1380   23.7271 O   0  0  0  0  0  0
  -29.9911  -19.6339   18.5391 C   0  0  0  0  0  0
  -30.3412  -17.2348   18.6696 C   0  0  0  0  0  0
  -30.3651  -18.4273   17.9357 C   0  0  0  0  0  0
  -29.5820  -19.6716   19.8863 C   0  0  0  0  0  0
  -29.9453  -17.2274   20.0210 C   0  0  0  0  0  0
  -28.8114  -22.1782   19.8430 C   0  0  0  0  0  0
  -28.0797  -24.8765   19.8895 C   0  0  0  0  0  0
  -28.9958  -23.6565   20.4578 C   0  0  2  0  0  0
  -29.5719  -18.4560   20.5896 N   0  0  0  0  0  0
  -29.3164  -21.0256   20.4466 N   0  0  0  0  0  0
  -29.8642  -15.8888   20.6661 N   0  0  0  0  0  0
  -28.1680  -22.0918   18.7922 O   0  0  0  0  0  0
  -30.7533  -18.4137   16.6381 F   0  0  0  0  0  0
  -30.2756  -23.9964   20.2794 F   0  0  0  0  0  0
  -31.4728  -12.5513   19.1877 H   0  0  0  0  0  0
  -30.3578  -11.4682   19.9670 H   0  0  0  0  0  0
  -29.7967  -11.7351   17.5264 H   0  0  0  0  0  0
  -29.6452  -13.4631   17.7322 H   0  0  0  0  0  0
  -27.8941  -11.2852   18.9152 H   0  0  0  0  0  0
  -27.3828  -12.5272   17.8028 H   0  0  0  0  0  0
  -27.6385  -14.2566   19.4730 H   0  0  0  0  0  0
  -28.7124  -12.1770   21.4416 H   0  0  0  0  0  0
  -28.4200  -13.8612   21.7948 H   0  0  0  0  0  0
  -25.2770   -9.5692   22.4758 H   0  0  0  0  0  0
  -24.0007   -7.4639   22.7472 H   0  0  0  0  0  0
  -21.0844   -8.8785   19.8962 H   0  0  0  0  0  0
  -22.3698  -10.9679   19.6175 H   0  0  0  0  0  0
  -21.2016   -7.6151   23.9723 H   0  0  0  0  0  0
  -21.1483   -6.0522   25.9079 H   0  0  0  0  0  0
  -22.0593   -2.7613   23.2841 H   0  0  0  0  0  0
  -22.4085  -11.9905   22.4836 H   0  0  0  0  0  0
  -21.1090  -13.1260   22.2615 H   0  0  0  0  0  0
  -24.6499  -15.8447   20.5227 H   0  0  0  0  0  0
  -26.2629  -15.6334   20.0696 H   0  0  0  0  0  0
  -26.7220  -32.5398   23.1074 H   0  0  0  0  0  0
  -25.0108  -33.9679   25.0425 H   0  0  0  0  0  0
  -22.7272  -31.3027   21.3959 H   0  0  0  0  0  0
  -23.3748  -35.9626   23.3297 H   0  0  0  0  0  0
  -24.3585  -36.8912   22.2054 H   0  0  0  0  0  0
  -23.7255  -37.6492   23.6662 H   0  0  0  0  0  0
  -26.1212  -31.5220   20.6141 H   0  0  0  0  0  0
  -26.8533  -30.8095   22.0178 H   0  0  0  0  0  0
  -28.1101  -28.8982   21.2339 H   0  0  0  0  0  0
  -25.9496  -25.9374   18.9343 H   0  0  0  0  0  0
  -23.9802  -27.3337   18.9601 H   0  0  0  0  0  0
  -23.7808  -30.5989   19.4037 H   0  0  0  0  0  0
  -22.7659  -29.2584   19.8422 H   0  0  0  0  0  0
  -25.1296  -36.1911   25.0818 H   0  0  0  0  0  0
  -21.0002  -28.3294   24.1374 H   0  0  0  0  0  0
  -20.5682  -26.2326   23.3613 H   0  0  0  0  0  0
  -21.6657  -26.7440   22.1201 H   0  0  0  0  0  0
  -19.6925  -25.6289   21.1250 H   0  0  0  0  0  0
  -19.6694  -27.3183   20.6727 H   0  0  0  0  0  0
  -17.4211  -26.6673   21.4023 H   0  0  0  0  0  0
  -18.0348  -26.0072   22.9017 H   0  0  0  0  0  0
  -19.7949  -30.7275   24.2263 H   0  0  0  0  0  0
  -17.5025  -31.6261   24.5175 H   0  0  0  0  0  0
  -15.5365  -30.2987   23.7639 H   0  0  0  0  0  0
  -15.8687  -28.0817   22.7061 H   0  0  0  0  0  0
  -24.5915  -30.7060   25.7793 H   0  0  0  0  0  0
  -24.8916  -32.2883   26.4867 H   0  0  0  0  0  0
  -25.8057  -30.8913   27.0234 H   0  0  0  0  0  0
  -26.2945  -29.6724   24.1248 H   0  0  0  0  0  0
  -27.4050  -29.7260   25.4743 H   0  0  0  0  0  0
  -27.8830  -30.4264   23.9472 H   0  0  0  0  0  0
  -27.2671  -33.3624   26.2062 H   0  0  0  0  0  0
  -28.3881  -32.6862   25.0332 H   0  0  0  0  0  0
  -28.0727  -31.8450   26.5428 H   0  0  0  0  0  0
  -28.2596  -38.0102   24.7501 H   0  0  0  0  0  0
  -28.1078  -36.2624   24.6296 H   0  0  0  0  0  0
  -27.2298  -37.1466   25.8871 H   0  0  0  0  0  0
  -20.9405  -29.8803   21.6867 H   0  0  0  0  0  0
  -26.0167  -38.2844   24.1392 H   0  0  0  0  0  0
  -30.0472  -20.5340   17.9440 H   0  0  0  0  0  0
  -30.6201  -16.3241   18.1598 H   0  0  0  0  0  0
  -27.0744  -24.6131   20.2184 H   0  0  0  0  0  0
  -28.0650  -24.8035   18.8014 H   0  0  0  0  0  0
  -28.8568  -23.5890   21.5367 H   0  0  0  0  0  0
  -29.6432  -21.1549   21.3923 H   0  0  0  0  0  0
  -29.0133  -15.7306   21.1823 H   0  0  0  0  0  0
  1 25  1  0  0  0
  1 30  2  0  0  0
  1 81  1  0  0  0
  2  3  1  0  0  0
  2 25  1  0  0  0
  2 85  1  0  0  0
  2 86  1  0  0  0
  3  4  1  0  0  0
  3 87  1  0  0  0
  3 88  1  0  0  0
  4  5  1  0  0  0
  4 89  1  0  0  0
  4 90  1  0  0  0
  5  6  1  0  0  0
  5 26  1  0  0  0
  5 91  1  0  0  0
  6 25  1  0  0  0
  6 92  1  0  0  0
  6 93  1  0  0  0
  7  8  2  0  0  0
  7 26  1  0  0  0
  7 29  1  0  0  0
  8  9  1  0  0  0
  8 22  1  0  0  0
  9 10  1  0  0  0
  9 27  2  0  0  0
 10 11  2  0  0  0
 10 15  1  0  0  0
 11 12  1  0  0  0
 11 94  1  0  0  0
 12 13  2  0  0  0
 12 95  1  0  0  0
 13 14  1  0  0  0
 13 31  1  0  0  0
 14 15  2  0  0  0
 14 96  1  0  0  0
 15 97  1  0  0  0
 16 17  2  0  0  0
 16 21  1  0  0  0
 16 31  1  0  0  0
 17 18  1  0  0  0
 17 98  1  0  0  0
 18 19  2  0  0  0
 18 99  1  0  0  0
 19 20  1  0  0  0
 19 24  1  0  0  0
 20 21  2  0  0  0
 20100  1  0  0  0
 21 23  1  0  0  0
 22 28  1  0  0  0
 22 32  2  0  0  0
 26 27  1  0  0  0
 28101  1  0  0  0
 28102  1  0  0  0
 29103  1  0  0  0
 29104  1  0  0  0
 33 34  1  0  0  0
 33 66  1  0  0  0
 33 70  2  0  0  0
 34 36  1  0  0  0
 34 59  1  0  0  0
 34105  1  0  0  0
 35 44  2  0  0  0
 35 45  1  0  0  0
 35 68  1  0  0  0
 36 56  1  0  0  0
 36106  1  0  0  0
 37 39  1  0  0  0
 37 47  1  0  0  0
 37 66  1  0  0  0
 37107  1  0  0  0
 38 43  2  0  0  0
 38 46  1  0  0  0
 38 47  1  0  0  0
 39 64  1  0  0  0
 39 67  2  0  0  0
 40 52  1  0  0  0
 40 53  2  0  0  0
 40 58  1  0  0  0
 41108  1  0  0  0
 41109  1  0  0  0
 41110  1  0  0  0
 41 48  1  0  0  0
 42 43  1  0  0  0
 42 66  1  0  0  0
 42111  1  0  0  0
 42112  1  0  0  0
 43 44  1  0  0  0
 44113  1  0  0  0
 45 46  2  0  0  0
 45114  1  0  0  0
 46115  1  0  0  0
 47116  1  0  0  0
 47117  1  0  0  0
 48 56  1  0  0  0
 48 65  1  0  0  0
 48118  1  0  0  0
 49 50  1  0  0  0
 49 53  1  0  0  0
 49 64  1  0  0  0
 49119  1  0  0  0
 50 51  1  0  0  0
 50120  1  0  0  0
 50121  1  0  0  0
 51 52  1  0  0  0
 51122  1  0  0  0
 51123  1  0  0  0
 52124  1  0  0  0
 52125  1  0  0  0
 53 54  1  0  0  0
 54 55  2  0  0  0
 54126  1  0  0  0
 55 57  1  0  0  0
 55127  1  0  0  0
 56 69  2  0  0  0
 57 58  2  0  0  0
 57128  1  0  0  0
 58129  1  0  0  0
 59 60  1  0  0  0
 59 61  1  0  0  0
 59 62  1  0  0  0
 60130  1  0  0  0
 60131  1  0  0  0
 60132  1  0  0  0
 61133  1  0  0  0
 61134  1  0  0  0
 61135  1  0  0  0
 62136  1  0  0  0
 62137  1  0  0  0
 62138  1  0  0  0
 63 65  1  0  0  0
 63139  1  0  0  0
 63140  1  0  0  0
 63141  1  0  0  0
 64142  1  0  0  0
 65143  1  0  0  0
 68 77  1  0  0  0
 71 73  2  0  0  0
 71 74  1  0  0  0
 71144  1  0  0  0
 72 73  1  0  0  0
 72 75  2  0  0  0
 72145  1  0  0  0
 73 83  1  0  0  0
 74 79  2  0  0  0
 74 80  1  0  0  0
 75 79  1  0  0  0
 75 81  1  0  0  0
 76 78  1  0  0  0
 76 80  1  0  0  0
 76 82  2  0  0  0
 77 78  1  0  0  0
 77146  1  0  0  0
 77147  1  0  0  0
 78 84  1  0  0  0
 78148  1  0  0  0
 80149  1  0  0  0
 81150  1  0  0  0
M  ISO  4   1 100  68 101  77 101  81 100
M  END
> <chiral flag>
0

> <version>
0

> <s_m_source_file>
/data/baiqing/PycharmProjects/Reinvent-master-3.2/result/LINK_invent/BTK/process_docking_weight1_custom_product_contain_oxygen_bond_distance_aromatic_linkinvent_7_9_3/rearranged_h_0185.sdf

> <i_m_source_file_index>
67

> <r_mmod_Potential_Energy-OPLS-2005>
-4.21587181091309

> <r_mmod_Stretch_Energy-OPLS-2005>
133.940643310547

> <r_mmod_Bend_Energy-OPLS-2005>
161.286972045898

> <r_mmod_Torsional_Energy-OPLS-2005>
255.238967895508

> <r_mmod_Improper_Torsional_Energy-OPLS-2005>
5.08880281448364

> <r_mmod_Van_der_Waal_Energy-OPLS-2005>
147.95182800293

> <r_mmod_Electrostatic_Energy-OPLS-2005>
-559.595703125

> <r_mmod_Solvation_Energy-OPLS-2005>
-237.103469848633

> <b_mmod_Minimization_Converged-OPLS-2005>
0

> <r_mmod_RMS_Derivative-OPLS-2005>
1.22407639026642

$$$$
67
                    3D
 Structure written by MMmdl.
155163  0  0  1  0            999 V2000
  -30.6095  -14.7226   20.4738 C   0  0  0  0  0  0
  -30.4404  -12.4390   19.4749 C   0  0  0  0  0  0
  -29.5164  -12.5165   18.2386 C   0  0  0  0  0  0
  -28.0406  -12.3442   18.6476 C   0  0  0  0  0  0
  -27.6528  -13.2281   19.8629 C   0  0  2  0  0  0
  -28.6964  -13.1268   20.9984 C   0  0  0  0  0  0
  -25.2555  -13.8192   20.5681 C   0  0  0  0  0  0
  -24.1836  -13.0442   20.9190 C   0  0  0  0  0  0
  -24.6427  -11.6915   20.8744 C   0  0  0  0  0  0
  -23.9093  -10.4290   21.0400 C   0  0  0  0  0  0
  -24.3630   -9.4201   21.9184 C   0  0  0  0  0  0
  -23.6295   -8.2243   22.0764 C   0  0  0  0  0  0
  -22.4278   -8.0283   21.3550 C   0  0  0  0  0  0
  -21.9913   -9.0263   20.4653 C   0  0  0  0  0  0
  -22.7257  -10.2139   20.3054 C   0  0  0  0  0  0
  -21.6855   -6.0733   22.5277 C   0  0  0  0  0  0
  -21.4019   -6.5638   23.8208 C   0  0  0  0  0  0
  -21.3658   -5.6793   24.9174 C   0  0  0  0  0  0
  -21.6042   -4.3056   24.7225 C   0  0  0  0  0  0
  -21.8822   -3.8146   23.4345 C   0  0  0  0  0  0
  -21.9196   -4.6961   22.3403 C   0  0  0  0  0  0
  -22.7850  -13.5223   21.1847 C   0  0  0  0  0  0
  -22.1660   -4.2140   21.0981 F   0  0  0  0  0  0
  -21.5628   -3.4540   25.7740 F   0  0  0  0  0  0
  -30.0055  -13.4839   20.4313 N   0  0  0  0  0  0
  -26.3004  -12.9394   20.3329 N   0  0  0  0  0  0
  -25.9363  -11.6540   20.5762 N   0  0  0  0  0  0
  -22.0498  -12.8212   22.0398 N   0  0  0  0  0  0
  -25.4246  -15.1916   20.4081 N   0  0  0  0  0  0
  -31.7688  -14.8549   20.0695 O   0  0  0  0  0  0
  -21.6645   -6.8874   21.4237 O   0  0  0  0  0  0
  -22.3529  -14.5530   20.6698 O   0  0  0  0  0  0
  -24.6311  -31.8543   23.1997 C   0  0  0  0  0  0
  -25.9129  -32.4748   23.8332 C   0  0  1  0  0  0
  -27.2211  -27.2659   20.1283 C   0  0  0  0  0  0
  -25.5932  -33.8554   24.2247 N   0  0  0  0  0  0
  -23.4284  -30.4773   21.5424 C   0  0  2  0  0  0
  -24.8783  -28.9311   20.1027 C   0  0  0  0  0  0
  -22.7500  -29.4578   22.4906 C   0  0  0  0  0  0
  -18.0281  -28.1399   22.8473 C   0  0  0  0  0  0
  -24.1495  -36.7285   23.2642 C   0  0  0  0  0  0
  -25.9740  -30.7684   21.3815 C   0  0  0  0  0  0
  -26.0478  -29.3937   20.7190 C   0  0  0  0  0  0
  -27.2205  -28.5739   20.7215 C   0  0  0  0  0  0
  -26.0363  -26.8851   19.4560 C   0  0  0  0  0  0
  -24.8774  -27.6844   19.4605 C   0  0  0  0  0  0
  -23.6462  -29.8130   20.1573 C   0  0  0  0  0  0
  -25.4123  -36.3062   24.0322 C   0  0  1  0  0  0
  -20.5886  -28.3690   23.1267 C   0  0  2  0  0  0
  -20.6774  -26.9402   22.5414 C   0  0  0  0  0  0
  -19.5756  -26.6381   21.5217 C   0  0  0  0  0  0
  -18.1925  -26.7940   22.1616 C   0  0  0  0  0  0
  -19.1538  -28.8865   23.2860 C   0  0  0  0  0  0
  -18.9465  -30.1467   23.8872 C   0  0  0  0  0  0
  -17.6462  -30.6585   24.0564 C   0  0  0  0  0  0
  -25.9058  -34.9433   23.5084 C   0  0  0  0  0  0
  -16.5350  -29.9081   23.6342 C   0  0  0  0  0  0
  -16.7270  -28.6512   23.0341 C   0  0  0  0  0  0
  -26.4497  -31.6583   25.0728 C   0  0  0  0  0  0
  -25.3715  -31.3747   26.1442 C   0  0  0  0  0  0
  -27.0356  -30.3000   24.6238 C   0  0  0  0  0  0
  -27.6047  -32.4334   25.7496 C   0  0  0  0  0  0
  -27.5576  -37.1796   24.8459 C   0  0  0  0  0  0
  -21.4208  -29.3031   22.3651 N   0  0  0  0  0  0
  -26.4289  -37.3762   23.9401 N   0  0  0  0  0  0
  -24.6964  -31.0499   22.0980 N   0  0  0  0  0  0
  -23.4192  -28.8095   23.2992 O   0  0  0  0  0  0
  -28.3119  -26.3661   20.2255 O   0  0  0  0  0  0
  -26.5630  -34.8907   22.4657 O   0  0  0  0  0  0
  -23.5463  -32.1361   23.7294 O   0  0  0  0  0  0
  -29.6603  -19.8535   20.4815 C   0  0  0  0  0  0
  -30.2609  -19.2252   19.3943 C   0  0  0  0  0  0
  -29.9205  -17.2550   20.6105 C   0  0  0  0  0  0
  -29.4283  -21.3271   20.9282 C   0  0  0  0  0  0
  -27.0758  -24.4107   21.1826 C   0  0  0  0  0  0
  -29.3878  -23.8762   20.2891 C   0  0  2  0  0  0
  -28.1148  -24.8675   20.1336 C   0  0  2  0  0  0
  -30.5543  -24.3275   19.3815 C   0  0  0  0  0  0
  -30.3816  -17.8083   19.4737 N   0  0  0  0  0  0
  -30.7682  -19.8465   18.2495 N   0  0  0  0  0  0
  -29.8455  -15.7999   20.8836 N   0  0  0  0  0  0
  -29.1930  -22.3702   20.0580 N   0  0  0  0  0  0
  -29.4778  -21.5724   22.1360 O   0  0  0  0  0  0
  -31.5994  -23.5094   19.5306 F   0  0  0  0  0  0
  -30.1803  -24.2996   18.1016 F   0  0  0  0  0  0
  -30.9545  -25.5610   19.6892 F   0  0  0  0  0  0
  -29.2574  -18.5593   21.6565 S   0  0  0  0  0  0
  -31.4823  -12.5625   19.1744 H   0  0  0  0  0  0
  -30.3827  -11.4529   19.9381 H   0  0  0  0  0  0
  -29.7943  -11.7518   17.5123 H   0  0  0  0  0  0
  -29.6507  -13.4765   17.7375 H   0  0  0  0  0  0
  -27.8886  -11.2924   18.8932 H   0  0  0  0  0  0
  -27.3864  -12.5586   17.8016 H   0  0  0  0  0  0
  -27.6586  -14.2571   19.5050 H   0  0  0  0  0  0
  -28.7251  -12.1157   21.4087 H   0  0  0  0  0  0
  -28.4313  -13.7796   21.8321 H   0  0  0  0  0  0
  -25.2776   -9.5676   22.4752 H   0  0  0  0  0  0
  -24.0002   -7.4635   22.7493 H   0  0  0  0  0  0
  -21.0835   -8.8790   19.8952 H   0  0  0  0  0  0
  -22.3721  -10.9679   19.6158 H   0  0  0  0  0  0
  -21.2012   -7.6145   23.9709 H   0  0  0  0  0  0
  -21.1474   -6.0525   25.9077 H   0  0  0  0  0  0
  -22.0602   -2.7601   23.2858 H   0  0  0  0  0  0
  -22.4121  -11.9872   22.4770 H   0  0  0  0  0  0
  -21.1123  -13.1245   22.2621 H   0  0  0  0  0  0
  -24.6532  -15.8426   20.5084 H   0  0  0  0  0  0
  -26.2649  -15.6274   20.0501 H   0  0  0  0  0  0
  -26.7183  -32.5380   23.1063 H   0  0  0  0  0  0
  -25.0068  -33.9705   25.0380 H   0  0  0  0  0  0
  -22.7250  -31.3002   21.3986 H   0  0  0  0  0  0
  -23.3750  -35.9620   23.3306 H   0  0  0  0  0  0
  -24.3587  -36.8921   22.2056 H   0  0  0  0  0  0
  -23.7252  -37.6491   23.6672 H   0  0  0  0  0  0
  -26.1171  -31.5314   20.6152 H   0  0  0  0  0  0
  -26.8506  -30.8123   22.0170 H   0  0  0  0  0  0
  -28.1099  -28.9211   21.2281 H   0  0  0  0  0  0
  -25.9694  -25.9359   18.9480 H   0  0  0  0  0  0
  -23.9831  -27.3306   18.9655 H   0  0  0  0  0  0
  -23.7646  -30.5908   19.4010 H   0  0  0  0  0  0
  -22.7677  -29.2415   19.8522 H   0  0  0  0  0  0
  -25.1304  -36.1913   25.0813 H   0  0  0  0  0  0
  -20.9972  -28.3278   24.1395 H   0  0  0  0  0  0
  -20.5714  -26.2280   23.3619 H   0  0  0  0  0  0
  -21.6632  -26.7445   22.1187 H   0  0  0  0  0  0
  -19.6923  -25.6293   21.1250 H   0  0  0  0  0  0
  -19.6717  -27.3198   20.6760 H   0  0  0  0  0  0
  -17.4204  -26.6685   21.4010 H   0  0  0  0  0  0
  -18.0305  -26.0095   22.9032 H   0  0  0  0  0  0
  -19.7946  -30.7288   24.2224 H   0  0  0  0  0  0
  -17.5021  -31.6275   24.5163 H   0  0  0  0  0  0
  -15.5348  -30.2976   23.7704 H   0  0  0  0  0  0
  -15.8669  -28.0848   22.7042 H   0  0  0  0  0  0
  -24.5888  -30.7106   25.7760 H   0  0  0  0  0  0
  -24.8909  -32.2929   26.4829 H   0  0  0  0  0  0
  -25.8020  -30.8940   27.0233 H   0  0  0  0  0  0
  -26.2956  -29.6731   24.1254 H   0  0  0  0  0  0
  -27.4024  -29.7277   25.4766 H   0  0  0  0  0  0
  -27.8829  -30.4274   23.9497 H   0  0  0  0  0  0
  -27.2653  -33.3651   26.2026 H   0  0  0  0  0  0
  -28.3867  -32.6873   25.0329 H   0  0  0  0  0  0
  -28.0689  -31.8491   26.5451 H   0  0  0  0  0  0
  -28.2581  -38.0105   24.7502 H   0  0  0  0  0  0
  -28.1085  -36.2633   24.6282 H   0  0  0  0  0  0
  -27.2290  -37.1428   25.8862 H   0  0  0  0  0  0
  -20.9394  -29.8773   21.6872 H   0  0  0  0  0  0
  -26.0172  -38.2834   24.1421 H   0  0  0  0  0  0
  -26.0968  -24.8621   21.0497 H   0  0  0  0  0  0
  -27.4106  -24.6456   22.1924 H   0  0  0  0  0  0
  -26.9166  -23.3342   21.1353 H   0  0  0  0  0  0
  -29.7485  -23.9979   21.3101 H   0  0  0  0  0  0
  -27.7160  -24.6667   19.1404 H   0  0  0  0  0  0
  -30.9686  -20.8395   18.2454 H   0  0  0  0  0  0
  -31.3363  -19.3086   17.6038 H   0  0  0  0  0  0
  -29.0220  -15.5269   21.3946 H   0  0  0  0  0  0
  -29.0967  -22.1146   19.0853 H   0  0  0  0  0  0
  1 25  1  0  0  0
  1 30  2  0  0  0
  1 81  1  0  0  0
  2  3  1  0  0  0
  2 25  1  0  0  0
  2 88  1  0  0  0
  2 89  1  0  0  0
  3  4  1  0  0  0
  3 90  1  0  0  0
  3 91  1  0  0  0
  4  5  1  0  0  0
  4 92  1  0  0  0
  4 93  1  0  0  0
  5  6  1  0  0  0
  5 26  1  0  0  0
  5 94  1  0  0  0
  6 25  1  0  0  0
  6 95  1  0  0  0
  6 96  1  0  0  0
  7  8  2  0  0  0
  7 26  1  0  0  0
  7 29  1  0  0  0
  8  9  1  0  0  0
  8 22  1  0  0  0
  9 10  1  0  0  0
  9 27  2  0  0  0
 10 11  2  0  0  0
 10 15  1  0  0  0
 11 12  1  0  0  0
 11 97  1  0  0  0
 12 13  2  0  0  0
 12 98  1  0  0  0
 13 14  1  0  0  0
 13 31  1  0  0  0
 14 15  2  0  0  0
 14 99  1  0  0  0
 15100  1  0  0  0
 16 17  2  0  0  0
 16 21  1  0  0  0
 16 31  1  0  0  0
 17 18  1  0  0  0
 17101  1  0  0  0
 18 19  2  0  0  0
 18102  1  0  0  0
 19 20  1  0  0  0
 19 24  1  0  0  0
 20 21  2  0  0  0
 20103  1  0  0  0
 21 23  1  0  0  0
 22 28  1  0  0  0
 22 32  2  0  0  0
 26 27  1  0  0  0
 28104  1  0  0  0
 28105  1  0  0  0
 29106  1  0  0  0
 29107  1  0  0  0
 33 34  1  0  0  0
 33 66  1  0  0  0
 33 70  2  0  0  0
 34 36  1  0  0  0
 34 59  1  0  0  0
 34108  1  0  0  0
 35 44  2  0  0  0
 35 45  1  0  0  0
 35 68  1  0  0  0
 36 56  1  0  0  0
 36109  1  0  0  0
 37 39  1  0  0  0
 37 47  1  0  0  0
 37 66  1  0  0  0
 37110  1  0  0  0
 38 43  2  0  0  0
 38 46  1  0  0  0
 38 47  1  0  0  0
 39 64  1  0  0  0
 39 67  2  0  0  0
 40 52  1  0  0  0
 40 53  2  0  0  0
 40 58  1  0  0  0
 41111  1  0  0  0
 41112  1  0  0  0
 41113  1  0  0  0
 41 48  1  0  0  0
 42 43  1  0  0  0
 42 66  1  0  0  0
 42114  1  0  0  0
 42115  1  0  0  0
 43 44  1  0  0  0
 44116  1  0  0  0
 45 46  2  0  0  0
 45117  1  0  0  0
 46118  1  0  0  0
 47119  1  0  0  0
 47120  1  0  0  0
 48 56  1  0  0  0
 48 65  1  0  0  0
 48121  1  0  0  0
 49 50  1  0  0  0
 49 53  1  0  0  0
 49 64  1  0  0  0
 49122  1  0  0  0
 50 51  1  0  0  0
 50123  1  0  0  0
 50124  1  0  0  0
 51 52  1  0  0  0
 51125  1  0  0  0
 51126  1  0  0  0
 52127  1  0  0  0
 52128  1  0  0  0
 53 54  1  0  0  0
 54 55  2  0  0  0
 54129  1  0  0  0
 55 57  1  0  0  0
 55130  1  0  0  0
 56 69  2  0  0  0
 57 58  2  0  0  0
 57131  1  0  0  0
 58132  1  0  0  0
 59 60  1  0  0  0
 59 61  1  0  0  0
 59 62  1  0  0  0
 60133  1  0  0  0
 60134  1  0  0  0
 60135  1  0  0  0
 61136  1  0  0  0
 61137  1  0  0  0
 61138  1  0  0  0
 62139  1  0  0  0
 62140  1  0  0  0
 62141  1  0  0  0
 63 65  1  0  0  0
 63142  1  0  0  0
 63143  1  0  0  0
 63144  1  0  0  0
 64145  1  0  0  0
 65146  1  0  0  0
 68 77  1  0  0  0
 71 72  2  0  0  0
 71 74  1  0  0  0
 71 87  1  0  0  0
 72 79  1  0  0  0
 72 80  1  0  0  0
 73 79  2  0  0  0
 73 81  1  0  0  0
 73 87  1  0  0  0
 74 82  1  0  0  0
 74 83  2  0  0  0
 75147  1  0  0  0
 75148  1  0  0  0
 75149  1  0  0  0
 75 77  1  0  0  0
 76 77  1  0  0  0
 76 78  1  0  0  0
 76 82  1  0  0  0
 76150  1  0  0  0
 77151  1  0  0  0
 78 84  1  0  0  0
 78 85  1  0  0  0
 78 86  1  0  0  0
 80152  1  0  0  0
 80153  1  0  0  0
 81154  1  0  0  0
 82155  1  0  0  0
M  ISO  4   1 100  68 101  77 101  81 100
M  END
> <chiral flag>
0

> <version>
0

> <s_m_source_file>
/data/baiqing/PycharmProjects/Reinvent-master-3.2/result/LINK_invent/BTK/process_docking_weight1_custom_product_contain_oxygen_bond_distance_aromatic_linkinvent_7_9_3/rearranged_h_0185.sdf

> <i_m_source_file_index>
68

> <r_mmod_Potential_Energy-OPLS-2005>
-8.49856281280518

> <r_mmod_Stretch_Energy-OPLS-2005>
114.864532470703

> <r_mmod_Bend_Energy-OPLS-2005>
171.874450683594

> <r_mmod_Torsional_Energy-OPLS-2005>
247.142303466797

> <r_mmod_Improper_Torsional_Energy-OPLS-2005>
6.31030035018921

> <r_mmod_Van_der_Waal_Energy-OPLS-2005>
120.250534057617

> <r_mmod_Electrostatic_Energy-OPLS-2005>
-503.057159423828

> <r_mmod_Solvation_Energy-OPLS-2005>
-245.318389892578

> <b_mmod_Minimization_Converged-OPLS-2005>
0

> <r_mmod_RMS_Derivative-OPLS-2005>
2.16789269447327

$$$$
68
                    3D
 Structure written by MMmdl.
144152  0  0  1  0            999 V2000
  -30.4267  -15.3267   20.3608 C   0  0  0  0  0  0
  -30.4345  -12.8516   19.5330 C   0  0  0  0  0  0
  -29.5374  -12.5906   18.2958 C   0  0  0  0  0  0
  -28.0902  -12.2998   18.7256 C   0  0  0  0  0  0
  -27.6085  -13.2816   19.8218 C   0  0  2  0  0  0
  -28.6387  -13.4882   20.9543 C   0  0  0  0  0  0
  -25.2374  -13.8255   20.5760 C   0  0  0  0  0  0
  -24.1732  -13.0435   20.9259 C   0  0  0  0  0  0
  -24.6396  -11.6935   20.8758 C   0  0  0  0  0  0
  -23.9094  -10.4291   21.0402 C   0  0  0  0  0  0
  -24.3638   -9.4206   21.9181 C   0  0  0  0  0  0
  -23.6304   -8.2245   22.0755 C   0  0  0  0  0  0
  -22.4286   -8.0283   21.3544 C   0  0  0  0  0  0
  -21.9926   -9.0257   20.4645 C   0  0  0  0  0  0
  -22.7262  -10.2132   20.3052 C   0  0  0  0  0  0
  -21.6857   -6.0736   22.5276 C   0  0  0  0  0  0
  -21.4018   -6.5640   23.8210 C   0  0  0  0  0  0
  -21.3662   -5.6793   24.9172 C   0  0  0  0  0  0
  -21.6045   -4.3056   24.7223 C   0  0  0  0  0  0
  -21.8819   -3.8147   23.4345 C   0  0  0  0  0  0
  -21.9194   -4.6964   22.3401 C   0  0  0  0  0  0
  -22.7749  -13.5183   21.1906 C   0  0  0  0  0  0
  -22.1662   -4.2147   21.0979 F   0  0  0  0  0  0
  -21.5629   -3.4541   25.7737 F   0  0  0  0  0  0
  -29.8641  -14.0105   20.3242 N   0  0  0  0  0  0
  -26.2804  -12.9540   20.3225 N   0  0  0  0  0  0
  -25.9335  -11.6638   20.5717 N   0  0  0  0  0  0
  -22.0415  -12.8160   22.0461 N   0  0  0  0  0  0
  -25.4004  -15.1992   20.4207 N   0  0  0  0  0  0
  -31.6472  -15.3066   20.1408 O   0  0  0  0  0  0
  -21.6648   -6.8881   21.4240 O   0  0  0  0  0  0
  -22.3425  -14.5483   20.6746 O   0  0  0  0  0  0
  -24.6678  -31.8196   23.1693 C   0  0  0  0  0  0
  -25.9341  -32.4567   23.8165 C   0  0  1  0  0  0
  -27.2151  -26.8762   20.1828 C   0  0  0  0  0  0
  -25.5990  -33.8385   24.2059 N   0  0  0  0  0  0
  -23.4849  -30.4323   21.5191 C   0  0  2  0  0  0
  -24.9402  -28.8181   20.1105 C   0  0  0  0  0  0
  -22.7692  -29.4424   22.4759 C   0  0  0  0  0  0
  -18.0327  -28.1415   22.8463 C   0  0  0  0  0  0
  -24.1496  -36.7198   23.2647 C   0  0  0  0  0  0
  -26.0587  -30.6074   21.4120 C   0  0  0  0  0  0
  -26.1249  -29.1935   20.7555 C   0  0  0  0  0  0
  -27.2525  -28.2436   20.7732 C   0  0  0  0  0  0
  -26.0053  -26.6860   19.4692 C   0  0  0  0  0  0
  -24.9093  -27.5848   19.4465 C   0  0  0  0  0  0
  -23.7288  -29.7510   20.1452 C   0  0  0  0  0  0
  -25.4138  -36.2956   24.0295 C   0  0  1  0  0  0
  -20.5955  -28.3766   23.1169 C   0  0  2  0  0  0
  -20.6800  -26.9441   22.5397 C   0  0  0  0  0  0
  -19.5772  -26.6378   21.5211 C   0  0  0  0  0  0
  -18.1957  -26.7945   22.1624 C   0  0  0  0  0  0
  -19.1590  -28.8912   23.2802 C   0  0  0  0  0  0
  -18.9498  -30.1498   23.8844 C   0  0  0  0  0  0
  -17.6490  -30.6600   24.0556 C   0  0  0  0  0  0
  -25.9107  -34.9339   23.5001 C   0  0  0  0  0  0
  -16.5381  -29.9086   23.6345 C   0  0  0  0  0  0
  -16.7308  -28.6508   23.0362 C   0  0  0  0  0  0
  -26.4571  -31.6531   25.0714 C   0  0  0  0  0  0
  -25.3678  -31.3800   26.1356 C   0  0  0  0  0  0
  -27.0478  -30.2886   24.6500 C   0  0  0  0  0  0
  -27.6050  -32.4354   25.7520 C   0  0  0  0  0  0
  -27.5569  -37.1759   24.8467 C   0  0  0  0  0  0
  -21.4356  -29.3048   22.3510 N   0  0  0  0  0  0
  -26.4280  -37.3695   23.9405 N   0  0  0  0  0  0
  -24.7588  -30.9811   22.0862 N   0  0  0  0  0  0
  -23.4218  -28.7987   23.3014 O   0  0  0  0  0  0
  -28.1739  -25.7100   20.2814 O   0  0  0  0  0  0
  -26.5721  -34.8881   22.4599 O   0  0  0  0  0  0
  -23.5736  -32.1194   23.6749 O   0  0  0  0  0  0
  -28.4950  -21.9025   21.5122 C   0  0  0  0  0  0
  -28.6205  -22.6947   20.3894 C   0  0  0  0  0  0
  -28.8983  -20.4193   21.6023 C   0  0  0  0  0  0
  -30.0105  -18.2694   20.2131 C   0  0  0  0  0  0
  -27.8294  -24.2422   20.0325 C   0  0  0  0  0  0
  -29.2255  -19.7651   20.4328 N   0  0  0  0  0  0
  -29.6809  -16.6254   20.4405 N   0  0  0  0  0  0
  -28.9499  -19.8170   22.6753 O   0  0  0  0  0  0
  -27.5793  -24.1548   18.7035 F   0  0  0  0  0  0
  -26.6317  -24.0719   20.6454 F   0  0  0  0  0  0
  -29.1758  -21.2434   19.2684 S   0  0  0  0  0  0
  -31.4518  -13.0576   19.1978 H   0  0  0  0  0  0
  -30.5102  -11.9563   20.1524 H   0  0  0  0  0  0
  -29.9296  -11.7606   17.7066 H   0  0  0  0  0  0
  -29.5554  -13.4658   17.6446 H   0  0  0  0  0  0
  -28.0591  -11.2796   19.1099 H   0  0  0  0  0  0
  -27.4213  -12.3243   17.8644 H   0  0  0  0  0  0
  -27.5137  -14.2401   19.3097 H   0  0  0  0  0  0
  -28.8201  -12.5655   21.5073 H   0  0  0  0  0  0
  -28.2647  -14.2152   21.6769 H   0  0  0  0  0  0
  -25.2781   -9.5683   22.4759 H   0  0  0  0  0  0
  -24.0008   -7.4640   22.7480 H   0  0  0  0  0  0
  -21.0855   -8.8778   19.8953 H   0  0  0  0  0  0
  -22.3717  -10.9671   19.6163 H   0  0  0  0  0  0
  -21.2013   -7.6149   23.9711 H   0  0  0  0  0  0
  -21.1484   -6.0526   25.9075 H   0  0  0  0  0  0
  -22.0595   -2.7607   23.2846 H   0  0  0  0  0  0
  -22.4056  -11.9830   22.4846 H   0  0  0  0  0  0
  -21.1026  -13.1159   22.2672 H   0  0  0  0  0  0
  -24.6294  -15.8482   20.5365 H   0  0  0  0  0  0
  -26.2402  -15.6420   20.0719 H   0  0  0  0  0  0
  -26.7412  -32.5088   23.0877 H   0  0  0  0  0  0
  -25.0079  -33.9460   25.0171 H   0  0  0  0  0  0
  -22.8010  -31.2661   21.3475 H   0  0  0  0  0  0
  -23.3769  -35.9518   23.3280 H   0  0  0  0  0  0
  -24.3570  -36.8877   22.2067 H   0  0  0  0  0  0
  -23.7246  -37.6374   23.6726 H   0  0  0  0  0  0
  -26.2478  -31.3456   20.6314 H   0  0  0  0  0  0
  -26.9155  -30.6639   22.0711 H   0  0  0  0  0  0
  -28.1405  -28.5260   21.3204 H   0  0  0  0  0  0
  -25.8467  -25.7552   18.9478 H   0  0  0  0  0  0
  -24.0149  -27.2919   18.9142 H   0  0  0  0  0  0
  -23.8901  -30.5215   19.3902 H   0  0  0  0  0  0
  -22.8371  -29.2106   19.8225 H   0  0  0  0  0  0
  -25.1339  -36.1746   25.0786 H   0  0  0  0  0  0
  -21.0044  -28.3381   24.1291 H   0  0  0  0  0  0
  -20.5676  -26.2389   23.3647 H   0  0  0  0  0  0
  -21.6662  -26.7408   22.1207 H   0  0  0  0  0  0
  -19.6930  -25.6275   21.1278 H   0  0  0  0  0  0
  -19.6706  -27.3157   20.6715 H   0  0  0  0  0  0
  -17.4222  -26.6680   21.4035 H   0  0  0  0  0  0
  -18.0358  -26.0102   22.9038 H   0  0  0  0  0  0
  -19.7973  -30.7328   24.2191 H   0  0  0  0  0  0
  -17.5041  -31.6274   24.5171 H   0  0  0  0  0  0
  -15.5378  -30.2971   23.7699 H   0  0  0  0  0  0
  -15.8710  -28.0810   22.7106 H   0  0  0  0  0  0
  -24.5884  -30.7125   25.7663 H   0  0  0  0  0  0
  -24.8842  -32.3006   26.4630 H   0  0  0  0  0  0
  -25.7893  -30.9068   27.0233 H   0  0  0  0  0  0
  -26.3164  -29.6542   24.1483 H   0  0  0  0  0  0
  -27.3952  -29.7277   25.5187 H   0  0  0  0  0  0
  -27.9131  -30.4045   23.9971 H   0  0  0  0  0  0
  -27.2609  -33.3704   26.1952 H   0  0  0  0  0  0
  -28.3936  -32.6835   25.0405 H   0  0  0  0  0  0
  -28.0634  -31.8579   26.5558 H   0  0  0  0  0  0
  -28.2567  -38.0071   24.7508 H   0  0  0  0  0  0
  -28.1084  -36.2597   24.6303 H   0  0  0  0  0  0
  -27.2283  -37.1410   25.8868 H   0  0  0  0  0  0
  -20.9619  -29.8740   21.6633 H   0  0  0  0  0  0
  -26.0124  -38.2753   24.1406 H   0  0  0  0  0  0
  -28.0106  -22.3367   22.3737 H   0  0  0  0  0  0
  -30.9462  -18.4043   20.7565 H   0  0  0  0  0  0
  -30.3188  -18.3094   19.1681 H   0  0  0  0  0  0
  -28.6993  -16.4635   20.6087 H   0  0  0  0  0  0
  1 25  1  0  0  0
  1 30  2  0  0  0
  1 77  1  0  0  0
  2  3  1  0  0  0
  2 25  1  0  0  0
  2 82  1  0  0  0
  2 83  1  0  0  0
  3  4  1  0  0  0
  3 84  1  0  0  0
  3 85  1  0  0  0
  4  5  1  0  0  0
  4 86  1  0  0  0
  4 87  1  0  0  0
  5  6  1  0  0  0
  5 26  1  0  0  0
  5 88  1  0  0  0
  6 25  1  0  0  0
  6 89  1  0  0  0
  6 90  1  0  0  0
  7  8  2  0  0  0
  7 26  1  0  0  0
  7 29  1  0  0  0
  8  9  1  0  0  0
  8 22  1  0  0  0
  9 10  1  0  0  0
  9 27  2  0  0  0
 10 11  2  0  0  0
 10 15  1  0  0  0
 11 12  1  0  0  0
 11 91  1  0  0  0
 12 13  2  0  0  0
 12 92  1  0  0  0
 13 14  1  0  0  0
 13 31  1  0  0  0
 14 15  2  0  0  0
 14 93  1  0  0  0
 15 94  1  0  0  0
 16 17  2  0  0  0
 16 21  1  0  0  0
 16 31  1  0  0  0
 17 18  1  0  0  0
 17 95  1  0  0  0
 18 19  2  0  0  0
 18 96  1  0  0  0
 19 20  1  0  0  0
 19 24  1  0  0  0
 20 21  2  0  0  0
 20 97  1  0  0  0
 21 23  1  0  0  0
 22 28  1  0  0  0
 22 32  2  0  0  0
 26 27  1  0  0  0
 28 98  1  0  0  0
 28 99  1  0  0  0
 29100  1  0  0  0
 29101  1  0  0  0
 33 34  1  0  0  0
 33 66  1  0  0  0
 33 70  2  0  0  0
 34 36  1  0  0  0
 34 59  1  0  0  0
 34102  1  0  0  0
 35 44  2  0  0  0
 35 45  1  0  0  0
 35 68  1  0  0  0
 36 56  1  0  0  0
 36103  1  0  0  0
 37 39  1  0  0  0
 37 47  1  0  0  0
 37 66  1  0  0  0
 37104  1  0  0  0
 38 43  2  0  0  0
 38 46  1  0  0  0
 38 47  1  0  0  0
 39 64  1  0  0  0
 39 67  2  0  0  0
 40 52  1  0  0  0
 40 53  2  0  0  0
 40 58  1  0  0  0
 41105  1  0  0  0
 41106  1  0  0  0
 41107  1  0  0  0
 41 48  1  0  0  0
 42 43  1  0  0  0
 42 66  1  0  0  0
 42108  1  0  0  0
 42109  1  0  0  0
 43 44  1  0  0  0
 44110  1  0  0  0
 45 46  2  0  0  0
 45111  1  0  0  0
 46112  1  0  0  0
 47113  1  0  0  0
 47114  1  0  0  0
 48 56  1  0  0  0
 48 65  1  0  0  0
 48115  1  0  0  0
 49 50  1  0  0  0
 49 53  1  0  0  0
 49 64  1  0  0  0
 49116  1  0  0  0
 50 51  1  0  0  0
 50117  1  0  0  0
 50118  1  0  0  0
 51 52  1  0  0  0
 51119  1  0  0  0
 51120  1  0  0  0
 52121  1  0  0  0
 52122  1  0  0  0
 53 54  1  0  0  0
 54 55  2  0  0  0
 54123  1  0  0  0
 55 57  1  0  0  0
 55124  1  0  0  0
 56 69  2  0  0  0
 57 58  2  0  0  0
 57125  1  0  0  0
 58126  1  0  0  0
 59 60  1  0  0  0
 59 61  1  0  0  0
 59 62  1  0  0  0
 60127  1  0  0  0
 60128  1  0  0  0
 60129  1  0  0  0
 61130  1  0  0  0
 61131  1  0  0  0
 61132  1  0  0  0
 62133  1  0  0  0
 62134  1  0  0  0
 62135  1  0  0  0
 63 65  1  0  0  0
 63136  1  0  0  0
 63137  1  0  0  0
 63138  1  0  0  0
 64139  1  0  0  0
 65140  1  0  0  0
 68 75  1  0  0  0
 71 72  2  0  0  0
 71 73  1  0  0  0
 71141  1  0  0  0
 72 75  1  0  0  0
 72 81  1  0  0  0
 73 76  1  0  0  0
 73 78  2  0  0  0
 74 76  1  0  0  0
 74 77  1  0  0  0
 74142  1  0  0  0
 74143  1  0  0  0
 75 79  1  0  0  0
 75 80  1  0  0  0
 76 81  1  0  0  0
 77144  1  0  0  0
M  ISO  4   1 100  68 101  75 101  77 100
M  END
> <chiral flag>
0

> <version>
0

> <s_m_source_file>
/data/baiqing/PycharmProjects/Reinvent-master-3.2/result/LINK_invent/BTK/process_docking_weight1_custom_product_contain_oxygen_bond_distance_aromatic_linkinvent_7_9_3/rearranged_h_0185.sdf

> <i_m_source_file_index>
69

> <r_mmod_Potential_Energy-OPLS-2005>
1328.56225585938

> <r_mmod_Stretch_Energy-OPLS-2005>
590.287292480469

> <r_mmod_Bend_Energy-OPLS-2005>
537.5458984375

> <r_mmod_Torsional_Energy-OPLS-2005>
195.702133178711

> <r_mmod_Improper_Torsional_Energy-OPLS-2005>
6.86398601531982

> <r_mmod_Van_der_Waal_Energy-OPLS-2005>
112.072113037109

> <r_mmod_Electrostatic_Energy-OPLS-2005>
-427.873992919922

> <r_mmod_Solvation_Energy-OPLS-2005>
-222.283676147461

> <b_mmod_Minimization_Converged-OPLS-2005>
0

> <r_mmod_RMS_Derivative-OPLS-2005>
0.307211756706238

$$$$
69
                    3D
 Structure written by MMmdl.
157165  0  0  1  0            999 V2000
  -30.6393  -14.7323   20.4532 C   0  0  0  0  0  0
  -30.4214  -12.4437   19.4790 C   0  0  0  0  0  0
  -29.5064  -12.5035   18.2371 C   0  0  0  0  0  0
  -28.0310  -12.3378   18.6475 C   0  0  0  0  0  0
  -27.6392  -13.2371   19.8513 C   0  0  2  0  0  0
  -28.6844  -13.1795   20.9875 C   0  0  0  0  0  0
  -25.2496  -13.8208   20.5707 C   0  0  0  0  0  0
  -24.1790  -13.0447   20.9215 C   0  0  0  0  0  0
  -24.6392  -11.6925   20.8760 C   0  0  0  0  0  0
  -23.9074  -10.4296   21.0408 C   0  0  0  0  0  0
  -24.3625   -9.4215   21.9188 C   0  0  0  0  0  0
  -23.6296   -8.2255   22.0759 C   0  0  0  0  0  0
  -22.4279   -8.0290   21.3547 C   0  0  0  0  0  0
  -21.9918   -9.0258   20.4646 C   0  0  0  0  0  0
  -22.7247  -10.2135   20.3056 C   0  0  0  0  0  0
  -21.6856   -6.0743   22.5282 C   0  0  0  0  0  0
  -21.4016   -6.5646   23.8216 C   0  0  0  0  0  0
  -21.3653   -5.6796   24.9176 C   0  0  0  0  0  0
  -21.6046   -4.3059   24.7225 C   0  0  0  0  0  0
  -21.8815   -3.8152   23.4345 C   0  0  0  0  0  0
  -21.9192   -4.6970   22.3402 C   0  0  0  0  0  0
  -22.7806  -13.5222   21.1864 C   0  0  0  0  0  0
  -22.1658   -4.2162   21.0977 F   0  0  0  0  0  0
  -21.5632   -3.4541   25.7734 F   0  0  0  0  0  0
  -29.9862  -13.5200   20.4017 N   0  0  0  0  0  0
  -26.2925  -12.9423   20.3294 N   0  0  0  0  0  0
  -25.9327  -11.6558   20.5773 N   0  0  0  0  0  0
  -22.0449  -12.8207   22.0413 N   0  0  0  0  0  0
  -25.4178  -15.1935   20.4118 N   0  0  0  0  0  0
  -31.8353  -14.7643   20.1490 O   0  0  0  0  0  0
  -21.6644   -6.8887   21.4243 O   0  0  0  0  0  0
  -22.3491  -14.5524   20.6708 O   0  0  0  0  0  0
  -24.6333  -31.8560   23.2005 C   0  0  0  0  0  0
  -25.9153  -32.4758   23.8349 C   0  0  1  0  0  0
  -27.2072  -27.2540   20.1266 C   0  0  0  0  0  0
  -25.5952  -33.8562   24.2270 N   0  0  0  0  0  0
  -23.4274  -30.4817   21.5460 C   0  0  2  0  0  0
  -24.8703  -28.9334   20.1108 C   0  0  0  0  0  0
  -22.7501  -29.4615   22.4932 C   0  0  0  0  0  0
  -18.0287  -28.1381   22.8487 C   0  0  0  0  0  0
  -24.1484  -36.7278   23.2641 C   0  0  0  0  0  0
  -25.9752  -30.7683   21.3797 C   0  0  0  0  0  0
  -26.0458  -29.3914   20.7198 C   0  0  0  0  0  0
  -27.2180  -28.5659   20.7147 C   0  0  0  0  0  0
  -26.0049  -26.8720   19.4853 C   0  0  0  0  0  0
  -24.8568  -27.6824   19.4821 C   0  0  0  0  0  0
  -23.6425  -29.8201   20.1610 C   0  0  0  0  0  0
  -25.4114  -36.3071   24.0329 C   0  0  1  0  0  0
  -20.5892  -28.3699   23.1267 C   0  0  2  0  0  0
  -20.6776  -26.9416   22.5404 C   0  0  0  0  0  0
  -19.5748  -26.6377   21.5210 C   0  0  0  0  0  0
  -18.1926  -26.7928   22.1619 C   0  0  0  0  0  0
  -19.1543  -28.8860   23.2867 C   0  0  0  0  0  0
  -18.9463  -30.1461   23.8886 C   0  0  0  0  0  0
  -17.6460  -30.6588   24.0556 C   0  0  0  0  0  0
  -25.9055  -34.9441   23.5097 C   0  0  0  0  0  0
  -16.5349  -29.9080   23.6338 C   0  0  0  0  0  0
  -16.7273  -28.6494   23.0363 C   0  0  0  0  0  0
  -26.4512  -31.6587   25.0743 C   0  0  0  0  0  0
  -25.3728  -31.3740   26.1458 C   0  0  0  0  0  0
  -27.0372  -30.3007   24.6239 C   0  0  0  0  0  0
  -27.6056  -32.4338   25.7524 C   0  0  0  0  0  0
  -27.5578  -37.1795   24.8466 C   0  0  0  0  0  0
  -21.4210  -29.3050   22.3671 N   0  0  0  0  0  0
  -26.4287  -37.3770   23.9410 N   0  0  0  0  0  0
  -24.6984  -31.0528   22.0985 N   0  0  0  0  0  0
  -23.4201  -28.8141   23.3019 O   0  0  0  0  0  0
  -28.2899  -26.3401   20.1883 O   0  0  0  0  0  0
  -26.5622  -34.8919   22.4661 O   0  0  0  0  0  0
  -23.5484  -32.1385   23.7300 O   0  0  0  0  0  0
  -31.5619  -17.6995   20.0823 C   0  0  0  0  0  0
  -30.2853  -17.3346   20.4464 C   0  0  0  0  0  0
  -30.0897  -19.7133   20.2917 C   0  0  0  0  0  0
  -27.3374  -21.7838   19.7423 C   0  0  0  0  0  0
  -24.8177  -22.2866   19.6811 C   0  0  0  0  0  0
  -26.0195  -21.8225   20.5218 C   0  0  0  0  0  0
  -27.9869  -24.8647   20.0852 C   0  0  0  0  0  0
  -28.6142  -22.1236   20.5310 C   0  0  2  0  0  0
  -29.0791  -23.6769   20.2950 C   0  0  1  0  0  0
  -29.4509  -18.5244   20.5759 N   0  0  0  0  0  0
  -29.9061  -15.9046   20.6446 N   0  0  0  0  0  0
  -29.6961  -21.1036   20.2745 N   0  0  0  0  0  0
  -27.3498  -21.4901   18.5431 O   0  0  0  0  0  0
  -29.9133  -23.6534   19.1405 O   0  0  0  0  0  0
  -31.7707  -19.4201   19.8664 S   0  0  0  0  0  0
  -31.4655  -12.5431   19.1780 H   0  0  0  0  0  0
  -30.3464  -11.4709   19.9674 H   0  0  0  0  0  0
  -29.7839  -11.7280   17.5221 H   0  0  0  0  0  0
  -29.6420  -13.4566   17.7230 H   0  0  0  0  0  0
  -27.8779  -11.2889   18.9033 H   0  0  0  0  0  0
  -27.3776  -12.5399   17.7987 H   0  0  0  0  0  0
  -27.6307  -14.2589   19.4703 H   0  0  0  0  0  0
  -28.7154  -12.1858   21.4380 H   0  0  0  0  0  0
  -28.4241  -13.8723   21.7897 H   0  0  0  0  0  0
  -25.2767   -9.5699   22.4768 H   0  0  0  0  0  0
  -24.0004   -7.4646   22.7480 H   0  0  0  0  0  0
  -21.0857   -8.8773   19.8948 H   0  0  0  0  0  0
  -22.3704  -10.9675   19.6169 H   0  0  0  0  0  0
  -21.2008   -7.6158   23.9724 H   0  0  0  0  0  0
  -21.1478   -6.0531   25.9081 H   0  0  0  0  0  0
  -22.0600   -2.7617   23.2845 H   0  0  0  0  0  0
  -22.4056  -11.9857   22.4788 H   0  0  0  0  0  0
  -21.1078  -13.1259   22.2619 H   0  0  0  0  0  0
  -24.6501  -15.8473   20.5214 H   0  0  0  0  0  0
  -26.2597  -15.6322   20.0625 H   0  0  0  0  0  0
  -26.7220  -32.5403   23.1090 H   0  0  0  0  0  0
  -25.0117  -33.9701   25.0432 H   0  0  0  0  0  0
  -22.7243  -31.3055   21.4034 H   0  0  0  0  0  0
  -23.3756  -35.9600   23.3295 H   0  0  0  0  0  0
  -24.3571  -36.8909   22.2054 H   0  0  0  0  0  0
  -23.7228  -37.6473   23.6670 H   0  0  0  0  0  0
  -26.1152  -31.5289   20.6101 H   0  0  0  0  0  0
  -26.8532  -30.8157   22.0129 H   0  0  0  0  0  0
  -28.1172  -28.9123   21.2053 H   0  0  0  0  0  0
  -25.9018  -25.9234   18.9838 H   0  0  0  0  0  0
  -23.9573  -27.3280   18.9963 H   0  0  0  0  0  0
  -23.7644  -30.5974   19.4062 H   0  0  0  0  0  0
  -22.7596  -29.2547   19.8575 H   0  0  0  0  0  0
  -25.1294  -36.1917   25.0822 H   0  0  0  0  0  0
  -20.9978  -28.3269   24.1388 H   0  0  0  0  0  0
  -20.5669  -26.2311   23.3609 H   0  0  0  0  0  0
  -21.6643  -26.7431   22.1198 H   0  0  0  0  0  0
  -19.6903  -25.6281   21.1252 H   0  0  0  0  0  0
  -19.6684  -27.3178   20.6729 H   0  0  0  0  0  0
  -17.4198  -26.6690   21.4015 H   0  0  0  0  0  0
  -18.0310  -26.0066   22.9008 H   0  0  0  0  0  0
  -19.7937  -30.7282   24.2245 H   0  0  0  0  0  0
  -17.5013  -31.6272   24.5148 H   0  0  0  0  0  0
  -15.5350  -30.2974   23.7671 H   0  0  0  0  0  0
  -15.8672  -28.0803   22.7096 H   0  0  0  0  0  0
  -24.5910  -30.7078   25.7790 H   0  0  0  0  0  0
  -24.8913  -32.2911   26.4863 H   0  0  0  0  0  0
  -25.8040  -30.8936   27.0251 H   0  0  0  0  0  0
  -26.2970  -29.6749   24.1238 H   0  0  0  0  0  0
  -27.4029  -29.7273   25.4768 H   0  0  0  0  0  0
  -27.8856  -30.4291   23.9512 H   0  0  0  0  0  0
  -27.2650  -33.3644   26.2081 H   0  0  0  0  0  0
  -28.3880  -32.6890   25.0364 H   0  0  0  0  0  0
  -28.0712  -31.8482   26.5464 H   0  0  0  0  0  0
  -28.2587  -38.0097   24.7518 H   0  0  0  0  0  0
  -28.1078  -36.2630   24.6279 H   0  0  0  0  0  0
  -27.2296  -37.1428   25.8867 H   0  0  0  0  0  0
  -20.9396  -29.8804   21.6905 H   0  0  0  0  0  0
  -26.0166  -38.2843   24.1414 H   0  0  0  0  0  0
  -32.4221  -17.0686   19.9089 H   0  0  0  0  0  0
  -23.9126  -22.3137   20.2887 H   0  0  0  0  0  0
  -24.6299  -21.6142   18.8429 H   0  0  0  0  0  0
  -24.9774  -23.2894   19.2830 H   0  0  0  0  0  0
  -26.1399  -22.4804   21.3831 H   0  0  0  0  0  0
  -25.8312  -20.8251   20.9194 H   0  0  0  0  0  0
  -27.1954  -24.6804   20.8134 H   0  0  0  0  0  0
  -27.5454  -24.6774   19.1077 H   0  0  0  0  0  0
  -28.3634  -22.0293   21.5882 H   0  0  0  0  0  0
  -29.7011  -23.9562   21.1469 H   0  0  0  0  0  0
  -28.9390  -15.7493   20.8809 H   0  0  0  0  0  0
  -30.4601  -21.6430   19.8755 H   0  0  0  0  0  0
  -29.3669  -23.4421   18.3890 H   0  0  0  0  0  0
  1 25  1  0  0  0
  1 30  2  0  0  0
  1 81  1  0  0  0
  2  3  1  0  0  0
  2 25  1  0  0  0
  2 86  1  0  0  0
  2 87  1  0  0  0
  3  4  1  0  0  0
  3 88  1  0  0  0
  3 89  1  0  0  0
  4  5  1  0  0  0
  4 90  1  0  0  0
  4 91  1  0  0  0
  5  6  1  0  0  0
  5 26  1  0  0  0
  5 92  1  0  0  0
  6 25  1  0  0  0
  6 93  1  0  0  0
  6 94  1  0  0  0
  7  8  2  0  0  0
  7 26  1  0  0  0
  7 29  1  0  0  0
  8  9  1  0  0  0
  8 22  1  0  0  0
  9 10  1  0  0  0
  9 27  2  0  0  0
 10 11  2  0  0  0
 10 15  1  0  0  0
 11 12  1  0  0  0
 11 95  1  0  0  0
 12 13  2  0  0  0
 12 96  1  0  0  0
 13 14  1  0  0  0
 13 31  1  0  0  0
 14 15  2  0  0  0
 14 97  1  0  0  0
 15 98  1  0  0  0
 16 17  2  0  0  0
 16 21  1  0  0  0
 16 31  1  0  0  0
 17 18  1  0  0  0
 17 99  1  0  0  0
 18 19  2  0  0  0
 18100  1  0  0  0
 19 20  1  0  0  0
 19 24  1  0  0  0
 20 21  2  0  0  0
 20101  1  0  0  0
 21 23  1  0  0  0
 22 28  1  0  0  0
 22 32  2  0  0  0
 26 27  1  0  0  0
 28102  1  0  0  0
 28103  1  0  0  0
 29104  1  0  0  0
 29105  1  0  0  0
 33 34  1  0  0  0
 33 66  1  0  0  0
 33 70  2  0  0  0
 34 36  1  0  0  0
 34 59  1  0  0  0
 34106  1  0  0  0
 35 44  2  0  0  0
 35 45  1  0  0  0
 35 68  1  0  0  0
 36 56  1  0  0  0
 36107  1  0  0  0
 37 39  1  0  0  0
 37 47  1  0  0  0
 37 66  1  0  0  0
 37108  1  0  0  0
 38 43  2  0  0  0
 38 46  1  0  0  0
 38 47  1  0  0  0
 39 64  1  0  0  0
 39 67  2  0  0  0
 40 52  1  0  0  0
 40 53  2  0  0  0
 40 58  1  0  0  0
 41109  1  0  0  0
 41110  1  0  0  0
 41111  1  0  0  0
 41 48  1  0  0  0
 42 43  1  0  0  0
 42 66  1  0  0  0
 42112  1  0  0  0
 42113  1  0  0  0
 43 44  1  0  0  0
 44114  1  0  0  0
 45 46  2  0  0  0
 45115  1  0  0  0
 46116  1  0  0  0
 47117  1  0  0  0
 47118  1  0  0  0
 48 56  1  0  0  0
 48 65  1  0  0  0
 48119  1  0  0  0
 49 50  1  0  0  0
 49 53  1  0  0  0
 49 64  1  0  0  0
 49120  1  0  0  0
 50 51  1  0  0  0
 50121  1  0  0  0
 50122  1  0  0  0
 51 52  1  0  0  0
 51123  1  0  0  0
 51124  1  0  0  0
 52125  1  0  0  0
 52126  1  0  0  0
 53 54  1  0  0  0
 54 55  2  0  0  0
 54127  1  0  0  0
 55 57  1  0  0  0
 55128  1  0  0  0
 56 69  2  0  0  0
 57 58  2  0  0  0
 57129  1  0  0  0
 58130  1  0  0  0
 59 60  1  0  0  0
 59 61  1  0  0  0
 59 62  1  0  0  0
 60131  1  0  0  0
 60132  1  0  0  0
 60133  1  0  0  0
 61134  1  0  0  0
 61135  1  0  0  0
 61136  1  0  0  0
 62137  1  0  0  0
 62138  1  0  0  0
 62139  1  0  0  0
 63 65  1  0  0  0
 63140  1  0  0  0
 63141  1  0  0  0
 63142  1  0  0  0
 64143  1  0  0  0
 65144  1  0  0  0
 68 77  1  0  0  0
 71 72  2  0  0  0
 71 85  1  0  0  0
 71145  1  0  0  0
 72 80  1  0  0  0
 72 81  1  0  0  0
 73 80  2  0  0  0
 73 82  1  0  0  0
 73 85  1  0  0  0
 74 76  1  0  0  0
 74 78  1  0  0  0
 74 83  2  0  0  0
 75 76  1  0  0  0
 75146  1  0  0  0
 75147  1  0  0  0
 75148  1  0  0  0
 76149  1  0  0  0
 76150  1  0  0  0
 77 79  1  0  0  0
 77151  1  0  0  0
 77152  1  0  0  0
 78 79  1  0  0  0
 78 82  1  0  0  0
 78153  1  0  0  0
 79 84  1  0  0  0
 79154  1  0  0  0
 81155  1  0  0  0
 82156  1  0  0  0
 84157  1  0  0  0
M  ISO  4   1 100  68 101  77 101  81 100
M  END
> <chiral flag>
0

> <version>
0

> <s_m_source_file>
/data/baiqing/PycharmProjects/Reinvent-master-3.2/result/LINK_invent/BTK/process_docking_weight1_custom_product_contain_oxygen_bond_distance_aromatic_linkinvent_7_9_3/rearranged_h_0185.sdf

> <i_m_source_file_index>
70

> <r_mmod_Potential_Energy-OPLS-2005>
51.3721046447754

> <r_mmod_Stretch_Energy-OPLS-2005>
125.683166503906

> <r_mmod_Bend_Energy-OPLS-2005>
187.573623657227

> <r_mmod_Torsional_Energy-OPLS-2005>
217.678863525391

> <r_mmod_Improper_Torsional_Energy-OPLS-2005>
4.49754619598389

> <r_mmod_Van_der_Waal_Energy-OPLS-2005>
125.086479187012

> <r_mmod_Electrostatic_Energy-OPLS-2005>
-455.881713867188

> <r_mmod_Solvation_Energy-OPLS-2005>
-239.332290649414

> <b_mmod_Minimization_Converged-OPLS-2005>
0

> <r_mmod_RMS_Derivative-OPLS-2005>
1.26414000988007

$$$$
70
                    3D
 Structure written by MMmdl.
152160  0  0  1  0            999 V2000
  -30.6150  -14.8102   20.4599 C   0  0  0  0  0  0
  -30.4341  -12.5115   19.4565 C   0  0  0  0  0  0
  -29.5070  -12.5104   18.2230 C   0  0  0  0  0  0
  -28.0362  -12.3229   18.6464 C   0  0  0  0  0  0
  -27.6310  -13.2387   19.8325 C   0  0  2  0  0  0
  -28.6832  -13.2237   20.9593 C   0  0  0  0  0  0
  -25.2479  -13.8203   20.5695 C   0  0  0  0  0  0
  -24.1789  -13.0437   20.9221 C   0  0  0  0  0  0
  -24.6391  -11.6919   20.8748 C   0  0  0  0  0  0
  -23.9070  -10.4291   21.0402 C   0  0  0  0  0  0
  -24.3623   -9.4206   21.9177 C   0  0  0  0  0  0
  -23.6295   -8.2242   22.0748 C   0  0  0  0  0  0
  -22.4274   -8.0281   21.3541 C   0  0  0  0  0  0
  -21.9912   -9.0254   20.4641 C   0  0  0  0  0  0
  -22.7243  -10.2131   20.3050 C   0  0  0  0  0  0
  -21.6857   -6.0731   22.5275 C   0  0  0  0  0  0
  -21.4018   -6.5634   23.8209 C   0  0  0  0  0  0
  -21.3664   -5.6787   24.9171 C   0  0  0  0  0  0
  -21.6049   -4.3049   24.7222 C   0  0  0  0  0  0
  -21.8821   -3.8140   23.4342 C   0  0  0  0  0  0
  -21.9197   -4.6958   22.3398 C   0  0  0  0  0  0
  -22.7809  -13.5211   21.1876 C   0  0  0  0  0  0
  -22.1663   -4.2145   21.0975 F   0  0  0  0  0  0
  -21.5633   -3.4532   25.7733 F   0  0  0  0  0  0
  -29.9639  -13.5966   20.3487 N   0  0  0  0  0  0
  -26.2894  -12.9419   20.3228 N   0  0  0  0  0  0
  -25.9320  -11.6557   20.5724 N   0  0  0  0  0  0
  -22.0462  -12.8203   22.0441 N   0  0  0  0  0  0
  -25.4147  -15.1931   20.4100 N   0  0  0  0  0  0
  -31.8351  -14.8326   20.2764 O   0  0  0  0  0  0
  -21.6644   -6.8874   21.4235 O   0  0  0  0  0  0
  -22.3492  -14.5516   20.6718 O   0  0  0  0  0  0
  -24.6385  -31.8513   23.1978 C   0  0  0  0  0  0
  -25.9193  -32.4733   23.8325 C   0  0  1  0  0  0
  -27.2103  -27.2055   20.1157 C   0  0  0  0  0  0
  -25.5970  -33.8541   24.2240 N   0  0  0  0  0  0
  -23.4360  -30.4775   21.5445 C   0  0  2  0  0  0
  -24.8791  -28.9244   20.1139 C   0  0  0  0  0  0
  -22.7536  -29.4590   22.4911 C   0  0  0  0  0  0
  -18.0299  -28.1389   22.8487 C   0  0  0  0  0  0
  -24.1492  -36.7261   23.2639 C   0  0  0  0  0  0
  -25.9909  -30.7456   21.3882 C   0  0  0  0  0  0
  -26.0599  -29.3665   20.7235 C   0  0  0  0  0  0
  -27.2269  -28.5222   20.7119 C   0  0  0  0  0  0
  -25.9873  -26.8491   19.4955 C   0  0  0  0  0  0
  -24.8513  -27.6741   19.4901 C   0  0  0  0  0  0
  -23.6556  -29.8191   20.1604 C   0  0  0  0  0  0
  -25.4124  -36.3051   24.0318 C   0  0  1  0  0  0
  -20.5908  -28.3705   23.1264 C   0  0  2  0  0  0
  -20.6792  -26.9420   22.5408 C   0  0  0  0  0  0
  -19.5764  -26.6382   21.5221 C   0  0  0  0  0  0
  -18.1942  -26.7931   22.1630 C   0  0  0  0  0  0
  -19.1553  -28.8870   23.2864 C   0  0  0  0  0  0
  -18.9470  -30.1472   23.8880 C   0  0  0  0  0  0
  -17.6466  -30.6592   24.0561 C   0  0  0  0  0  0
  -25.9071  -34.9427   23.5075 C   0  0  0  0  0  0
  -16.5358  -29.9082   23.6340 C   0  0  0  0  0  0
  -16.7283  -28.6500   23.0362 C   0  0  0  0  0  0
  -26.4535  -31.6579   25.0738 C   0  0  0  0  0  0
  -25.3734  -31.3746   26.1438 C   0  0  0  0  0  0
  -27.0396  -30.2984   24.6284 C   0  0  0  0  0  0
  -27.6073  -32.4335   25.7520 C   0  0  0  0  0  0
  -27.5577  -37.1789   24.8466 C   0  0  0  0  0  0
  -21.4237  -29.3043   22.3648 N   0  0  0  0  0  0
  -26.4291  -37.3758   23.9405 N   0  0  0  0  0  0
  -24.7084  -31.0431   22.0989 N   0  0  0  0  0  0
  -23.4213  -28.8126   23.3026 O   0  0  0  0  0  0
  -28.2853  -26.2575   20.1582 O   0  0  0  0  0  0
  -26.5632  -34.8908   22.4639 O   0  0  0  0  0  0
  -23.5520  -32.1369   23.7234 O   0  0  0  0  0  0
  -29.6638  -18.6108   20.1666 C   0  0  0  0  0  0
  -29.4996  -18.7789   18.8014 C   0  0  0  0  0  0
  -29.1213  -20.9756   20.0120 C   0  0  0  0  0  0
  -30.2844  -17.2896   20.8039 C   0  0  0  0  0  0
  -29.0594  -23.6050   20.1124 C   0  0  0  0  0  0
  -29.6948  -17.7591   17.7209 C   0  0  0  0  0  0
  -28.1363  -24.8533   18.1481 C   0  0  0  0  0  0
  -28.0582  -24.8158   19.6932 C   0  0  2  0  0  0
  -29.4081  -19.8946   20.8254 N   0  0  0  0  0  0
  -28.5925  -22.3188   20.3893 N   0  0  0  0  0  0
  -29.8725  -15.9973   20.4655 N   0  0  0  0  0  0
  -31.1823  -17.4439   21.6404 O   0  0  0  0  0  0
  -30.2694  -23.8448   20.1565 O   0  0  0  0  0  0
  -29.1032  -20.4409   18.3368 S   0  0  0  0  0  0
  -31.4696  -12.6543   19.1433 H   0  0  0  0  0  0
  -30.4039  -11.5486   19.9688 H   0  0  0  0  0  0
  -29.7998  -11.7216   17.5286 H   0  0  0  0  0  0
  -29.6170  -13.4522   17.6821 H   0  0  0  0  0  0
  -27.9083  -11.2771   18.9288 H   0  0  0  0  0  0
  -27.3747  -12.4905   17.7958 H   0  0  0  0  0  0
  -27.6041  -14.2491   19.4254 H   0  0  0  0  0  0
  -28.7464  -12.2386   21.4242 H   0  0  0  0  0  0
  -28.4128  -13.9259   21.7498 H   0  0  0  0  0  0
  -25.2766   -9.5690   22.4751 H   0  0  0  0  0  0
  -24.0011   -7.4633   22.7465 H   0  0  0  0  0  0
  -21.0844   -8.8767   19.8943 H   0  0  0  0  0  0
  -22.3694  -10.9669   19.6161 H   0  0  0  0  0  0
  -21.2007   -7.6142   23.9711 H   0  0  0  0  0  0
  -21.1489   -6.0514   25.9076 H   0  0  0  0  0  0
  -22.0597   -2.7602   23.2841 H   0  0  0  0  0  0
  -22.4077  -11.9870   22.4843 H   0  0  0  0  0  0
  -21.1073  -13.1219   22.2625 H   0  0  0  0  0  0
  -24.6438  -15.8437   20.5179 H   0  0  0  0  0  0
  -26.2552  -15.6349   20.0634 H   0  0  0  0  0  0
  -26.7252  -32.5358   23.1049 H   0  0  0  0  0  0
  -25.0134  -33.9676   25.0399 H   0  0  0  0  0  0
  -22.7350  -31.3027   21.4004 H   0  0  0  0  0  0
  -23.3761  -35.9586   23.3299 H   0  0  0  0  0  0
  -24.3576  -36.8893   22.2053 H   0  0  0  0  0  0
  -23.7243  -37.6457   23.6673 H   0  0  0  0  0  0
  -26.1424  -31.5076   20.6225 H   0  0  0  0  0  0
  -26.8632  -30.7874   22.0288 H   0  0  0  0  0  0
  -28.1289  -28.8581   21.2042 H   0  0  0  0  0  0
  -25.8432  -25.8956   19.0161 H   0  0  0  0  0  0
  -23.9460  -27.3247   19.0125 H   0  0  0  0  0  0
  -23.7894  -30.5986   19.4094 H   0  0  0  0  0  0
  -22.7712  -29.2604   19.8488 H   0  0  0  0  0  0
  -25.1312  -36.1883   25.0810 H   0  0  0  0  0  0
  -20.9993  -28.3280   24.1389 H   0  0  0  0  0  0
  -20.5719  -26.2307   23.3610 H   0  0  0  0  0  0
  -21.6654  -26.7458   22.1184 H   0  0  0  0  0  0
  -19.6923  -25.6291   21.1260 H   0  0  0  0  0  0
  -19.6700  -27.3188   20.6747 H   0  0  0  0  0  0
  -17.4212  -26.6684   21.4030 H   0  0  0  0  0  0
  -18.0336  -26.0078   22.9029 H   0  0  0  0  0  0
  -19.7943  -30.7302   24.2231 H   0  0  0  0  0  0
  -17.5015  -31.6273   24.5159 H   0  0  0  0  0  0
  -15.5356  -30.2972   23.7684 H   0  0  0  0  0  0
  -15.8683  -28.0815   22.7083 H   0  0  0  0  0  0
  -24.5923  -30.7084   25.7757 H   0  0  0  0  0  0
  -24.8912  -32.2921   26.4820 H   0  0  0  0  0  0
  -25.8033  -30.8950   27.0241 H   0  0  0  0  0  0
  -26.3005  -29.6712   24.1283 H   0  0  0  0  0  0
  -27.4019  -29.7273   25.4843 H   0  0  0  0  0  0
  -27.8912  -30.4232   23.9592 H   0  0  0  0  0  0
  -27.2672  -33.3651   26.2056 H   0  0  0  0  0  0
  -28.3910  -32.6871   25.0370 H   0  0  0  0  0  0
  -28.0710  -31.8487   26.5473 H   0  0  0  0  0  0
  -28.2591  -38.0089   24.7513 H   0  0  0  0  0  0
  -28.1078  -36.2618   24.6298 H   0  0  0  0  0  0
  -27.2291  -37.1441   25.8869 H   0  0  0  0  0  0
  -20.9431  -29.8748   21.6834 H   0  0  0  0  0  0
  -26.0159  -38.2827   24.1414 H   0  0  0  0  0  0
  -28.9458  -16.9692   17.7853 H   0  0  0  0  0  0
  -30.6814  -17.2978   17.7873 H   0  0  0  0  0  0
  -29.6117  -18.2088   16.7310 H   0  0  0  0  0  0
  -27.8359  -23.8991   17.7136 H   0  0  0  0  0  0
  -29.1575  -25.0517   17.8201 H   0  0  0  0  0  0
  -27.5165  -25.6209   17.6910 H   0  0  0  0  0  0
  -27.0720  -24.4886   20.0224 H   0  0  0  0  0  0
  -27.5927  -22.3053   20.5311 H   0  0  0  0  0  0
  -28.9321  -15.9312   20.1174 H   0  0  0  0  0  0
  1 25  1  0  0  0
  1 30  2  0  0  0
  1 81  1  0  0  0
  2  3  1  0  0  0
  2 25  1  0  0  0
  2 85  1  0  0  0
  2 86  1  0  0  0
  3  4  1  0  0  0
  3 87  1  0  0  0
  3 88  1  0  0  0
  4  5  1  0  0  0
  4 89  1  0  0  0
  4 90  1  0  0  0
  5  6  1  0  0  0
  5 26  1  0  0  0
  5 91  1  0  0  0
  6 25  1  0  0  0
  6 92  1  0  0  0
  6 93  1  0  0  0
  7  8  2  0  0  0
  7 26  1  0  0  0
  7 29  1  0  0  0
  8  9  1  0  0  0
  8 22  1  0  0  0
  9 10  1  0  0  0
  9 27  2  0  0  0
 10 11  2  0  0  0
 10 15  1  0  0  0
 11 12  1  0  0  0
 11 94  1  0  0  0
 12 13  2  0  0  0
 12 95  1  0  0  0
 13 14  1  0  0  0
 13 31  1  0  0  0
 14 15  2  0  0  0
 14 96  1  0  0  0
 15 97  1  0  0  0
 16 17  2  0  0  0
 16 21  1  0  0  0
 16 31  1  0  0  0
 17 18  1  0  0  0
 17 98  1  0  0  0
 18 19  2  0  0  0
 18 99  1  0  0  0
 19 20  1  0  0  0
 19 24  1  0  0  0
 20 21  2  0  0  0
 20100  1  0  0  0
 21 23  1  0  0  0
 22 28  1  0  0  0
 22 32  2  0  0  0
 26 27  1  0  0  0
 28101  1  0  0  0
 28102  1  0  0  0
 29103  1  0  0  0
 29104  1  0  0  0
 33 34  1  0  0  0
 33 66  1  0  0  0
 33 70  2  0  0  0
 34 36  1  0  0  0
 34 59  1  0  0  0
 34105  1  0  0  0
 35 44  2  0  0  0
 35 45  1  0  0  0
 35 68  1  0  0  0
 36 56  1  0  0  0
 36106  1  0  0  0
 37 39  1  0  0  0
 37 47  1  0  0  0
 37 66  1  0  0  0
 37107  1  0  0  0
 38 43  2  0  0  0
 38 46  1  0  0  0
 38 47  1  0  0  0
 39 64  1  0  0  0
 39 67  2  0  0  0
 40 52  1  0  0  0
 40 53  2  0  0  0
 40 58  1  0  0  0
 41108  1  0  0  0
 41109  1  0  0  0
 41110  1  0  0  0
 41 48  1  0  0  0
 42 43  1  0  0  0
 42 66  1  0  0  0
 42111  1  0  0  0
 42112  1  0  0  0
 43 44  1  0  0  0
 44113  1  0  0  0
 45 46  2  0  0  0
 45114  1  0  0  0
 46115  1  0  0  0
 47116  1  0  0  0
 47117  1  0  0  0
 48 56  1  0  0  0
 48 65  1  0  0  0
 48118  1  0  0  0
 49 50  1  0  0  0
 49 53  1  0  0  0
 49 64  1  0  0  0
 49119  1  0  0  0
 50 51  1  0  0  0
 50120  1  0  0  0
 50121  1  0  0  0
 51 52  1  0  0  0
 51122  1  0  0  0
 51123  1  0  0  0
 52124  1  0  0  0
 52125  1  0  0  0
 53 54  1  0  0  0
 54 55  2  0  0  0
 54126  1  0  0  0
 55 57  1  0  0  0
 55127  1  0  0  0
 56 69  2  0  0  0
 57 58  2  0  0  0
 57128  1  0  0  0
 58129  1  0  0  0
 59 60  1  0  0  0
 59 61  1  0  0  0
 59 62  1  0  0  0
 60130  1  0  0  0
 60131  1  0  0  0
 60132  1  0  0  0
 61133  1  0  0  0
 61134  1  0  0  0
 61135  1  0  0  0
 62136  1  0  0  0
 62137  1  0  0  0
 62138  1  0  0  0
 63 65  1  0  0  0
 63139  1  0  0  0
 63140  1  0  0  0
 63141  1  0  0  0
 64142  1  0  0  0
 65143  1  0  0  0
 68 78  1  0  0  0
 71 72  2  0  0  0
 71 74  1  0  0  0
 71 79  1  0  0  0
 72 76  1  0  0  0
 72 84  1  0  0  0
 73 79  2  0  0  0
 73 80  1  0  0  0
 73 84  1  0  0  0
 74 81  1  0  0  0
 74 82  2  0  0  0
 75 78  1  0  0  0
 75 80  1  0  0  0
 75 83  2  0  0  0
 76144  1  0  0  0
 76145  1  0  0  0
 76146  1  0  0  0
 77147  1  0  0  0
 77148  1  0  0  0
 77149  1  0  0  0
 77 78  1  0  0  0
 78150  1  0  0  0
 80151  1  0  0  0
 81152  1  0  0  0
M  ISO  4   1 100  68 101  78 101  81 100
M  END
> <chiral flag>
0

> <version>
0

> <s_m_source_file>
/data/baiqing/PycharmProjects/Reinvent-master-3.2/result/LINK_invent/BTK/process_docking_weight1_custom_product_contain_oxygen_bond_distance_aromatic_linkinvent_7_9_3/rearranged_h_0185.sdf

> <i_m_source_file_index>
71

> <r_mmod_Potential_Energy-OPLS-2005>
168.667678833008

> <r_mmod_Stretch_Energy-OPLS-2005>
154.408096313477

> <r_mmod_Bend_Energy-OPLS-2005>
192.10466003418

> <r_mmod_Torsional_Energy-OPLS-2005>
297.755157470703

> <r_mmod_Improper_Torsional_Energy-OPLS-2005>
12.0322895050049

> <r_mmod_Van_der_Waal_Energy-OPLS-2005>
120.809120178223

> <r_mmod_Electrostatic_Energy-OPLS-2005>
-461.032196044922

> <r_mmod_Solvation_Energy-OPLS-2005>
-272.365997314453

> <b_mmod_Minimization_Converged-OPLS-2005>
0

> <r_mmod_RMS_Derivative-OPLS-2005>
0.986381649971008

$$$$
71
                    3D
 Structure written by MMmdl.
153161  0  0  1  0            999 V2000
  -30.5068  -14.9379   20.4434 C   0  0  0  0  0  0
  -30.4549  -12.5820   19.4966 C   0  0  0  0  0  0
  -29.5272  -12.5416   18.2573 C   0  0  0  0  0  0
  -28.0574  -12.3280   18.6705 C   0  0  0  0  0  0
  -27.6387  -13.2427   19.8506 C   0  0  2  0  0  0
  -28.6829  -13.2271   20.9887 C   0  0  0  0  0  0
  -25.2498  -13.8207   20.5722 C   0  0  0  0  0  0
  -24.1800  -13.0439   20.9233 C   0  0  0  0  0  0
  -24.6406  -11.6923   20.8754 C   0  0  0  0  0  0
  -23.9085  -10.4295   21.0410 C   0  0  0  0  0  0
  -24.3631   -9.4206   21.9187 C   0  0  0  0  0  0
  -23.6301   -8.2243   22.0751 C   0  0  0  0  0  0
  -22.4282   -8.0283   21.3544 C   0  0  0  0  0  0
  -21.9926   -9.0259   20.4647 C   0  0  0  0  0  0
  -22.7258  -10.2138   20.3056 C   0  0  0  0  0  0
  -21.6854   -6.0740   22.5278 C   0  0  0  0  0  0
  -21.4018   -6.5643   23.8213 C   0  0  0  0  0  0
  -21.3660   -5.6795   24.9176 C   0  0  0  0  0  0
  -21.6044   -4.3056   24.7229 C   0  0  0  0  0  0
  -21.8815   -3.8148   23.4348 C   0  0  0  0  0  0
  -21.9193   -4.6967   22.3405 C   0  0  0  0  0  0
  -22.7820  -13.5214   21.1887 C   0  0  0  0  0  0
  -22.1661   -4.2150   21.0984 F   0  0  0  0  0  0
  -21.5626   -3.4541   25.7743 F   0  0  0  0  0  0
  -29.9654  -13.6541   20.4086 N   0  0  0  0  0  0
  -26.2929  -12.9429   20.3284 N   0  0  0  0  0  0
  -25.9341  -11.6564   20.5751 N   0  0  0  0  0  0
  -22.0468  -12.8196   22.0439 N   0  0  0  0  0  0
  -25.4174  -15.1939   20.4142 N   0  0  0  0  0  0
  -31.6831  -15.0846   20.0944 O   0  0  0  0  0  0
  -21.6636   -6.8885   21.4242 O   0  0  0  0  0  0
  -22.3508  -14.5520   20.6734 O   0  0  0  0  0  0
  -24.6448  -31.8422   23.1911 C   0  0  0  0  0  0
  -25.9216  -32.4689   23.8289 C   0  0  1  0  0  0
  -27.2141  -27.1213   20.1640 C   0  0  0  0  0  0
  -25.5961  -33.8498   24.2197 N   0  0  0  0  0  0
  -23.4505  -30.4620   21.5359 C   0  0  2  0  0  0
  -24.9035  -28.8914   20.1111 C   0  0  0  0  0  0
  -22.7579  -29.4529   22.4858 C   0  0  0  0  0  0
  -18.0300  -28.1392   22.8463 C   0  0  0  0  0  0
  -24.1501  -36.7259   23.2643 C   0  0  0  0  0  0
  -26.0084  -30.7077   21.4001 C   0  0  0  0  0  0
  -26.0783  -29.3176   20.7459 C   0  0  0  0  0  0
  -27.2350  -28.4468   20.7618 C   0  0  0  0  0  0
  -26.0345  -26.8278   19.4479 C   0  0  0  0  0  0
  -24.8954  -27.6590   19.4446 C   0  0  0  0  0  0
  -23.6798  -29.7935   20.1547 C   0  0  0  0  0  0
  -25.4131  -36.3030   24.0315 C   0  0  1  0  0  0
  -20.5913  -28.3723   23.1223 C   0  0  2  0  0  0
  -20.6791  -26.9424   22.5401 C   0  0  0  0  0  0
  -19.5771  -26.6376   21.5208 C   0  0  0  0  0  0
  -18.1948  -26.7924   22.1616 C   0  0  0  0  0  0
  -19.1554  -28.8876   23.2830 C   0  0  0  0  0  0
  -18.9469  -30.1467   23.8864 C   0  0  0  0  0  0
  -17.6466  -30.6585   24.0553 C   0  0  0  0  0  0
  -25.9077  -34.9402   23.5060 C   0  0  0  0  0  0
  -16.5358  -29.9077   23.6335 C   0  0  0  0  0  0
  -16.7282  -28.6495   23.0353 C   0  0  0  0  0  0
  -26.4540  -31.6561   25.0734 C   0  0  0  0  0  0
  -25.3726  -31.3745   26.1428 C   0  0  0  0  0  0
  -27.0425  -30.2956   24.6342 C   0  0  0  0  0  0
  -27.6063  -32.4342   25.7514 C   0  0  0  0  0  0
  -27.5574  -37.1795   24.8460 C   0  0  0  0  0  0
  -21.4268  -29.3041   22.3598 N   0  0  0  0  0  0
  -26.4296  -37.3736   23.9391 N   0  0  0  0  0  0
  -24.7208  -31.0256   22.0969 N   0  0  0  0  0  0
  -23.4211  -28.8078   23.3019 O   0  0  0  0  0  0
  -28.2496  -26.1087   20.1698 O   0  0  0  0  0  0
  -26.5657  -34.8899   22.4636 O   0  0  0  0  0  0
  -23.5560  -32.1303   23.7114 O   0  0  0  0  0  0
  -28.6547  -18.2482   21.5448 C   0  0  0  0  0  0
  -30.2354  -18.5324   19.8497 C   0  0  0  0  0  0
  -29.5856  -17.5632   20.7020 C   0  0  0  0  0  0
  -28.4179  -19.6713   21.5256 C   0  0  0  0  0  0
  -29.0852  -20.5682   20.6363 C   0  0  0  0  0  0
  -28.8637  -23.3259   20.2085 C   0  0  0  0  0  0
  -28.6719  -24.9230   22.2104 C   0  0  0  0  0  0
  -26.6007  -24.2754   20.9782 C   0  0  0  0  0  0
  -28.0845  -24.6797   20.8091 C   0  0  0  0  0  0
  -30.0014  -19.9248   19.8137 N   0  0  0  0  0  0
  -29.6478  -16.0224   20.7505 N   0  0  0  0  0  0
  -28.6649  -22.0382   20.7755 N   0  0  0  0  0  0
  -29.6278  -23.4796   19.2523 O   0  0  0  0  0  0
  -27.5072  -20.1878   22.3884 F   0  0  0  0  0  0
  -31.4849  -12.7597   19.1842 H   0  0  0  0  0  0
  -30.4604  -11.6191   20.0091 H   0  0  0  0  0  0
  -29.8425  -11.7518   17.5745 H   0  0  0  0  0  0
  -29.6168  -13.4779   17.7047 H   0  0  0  0  0  0
  -27.9442  -11.2824   18.9588 H   0  0  0  0  0  0
  -27.3968  -12.4823   17.8165 H   0  0  0  0  0  0
  -27.6130  -14.2545   19.4448 H   0  0  0  0  0  0
  -28.7670  -12.2321   21.4285 H   0  0  0  0  0  0
  -28.3804  -13.8908   21.8001 H   0  0  0  0  0  0
  -25.2772   -9.5679   22.4770 H   0  0  0  0  0  0
  -24.0006   -7.4634   22.7468 H   0  0  0  0  0  0
  -21.0855   -8.8785   19.8955 H   0  0  0  0  0  0
  -22.3715  -10.9682   19.6169 H   0  0  0  0  0  0
  -21.2009   -7.6150   23.9721 H   0  0  0  0  0  0
  -21.1487   -6.0524   25.9081 H   0  0  0  0  0  0
  -22.0594   -2.7611   23.2847 H   0  0  0  0  0  0
  -22.4089  -11.9856   22.4825 H   0  0  0  0  0  0
  -21.1084  -13.1214   22.2645 H   0  0  0  0  0  0
  -24.6429  -15.8410   20.5147 H   0  0  0  0  0  0
  -26.2472  -15.6300   20.0350 H   0  0  0  0  0  0
  -26.7282  -32.5290   23.1019 H   0  0  0  0  0  0
  -25.0106  -33.9616   25.0341 H   0  0  0  0  0  0
  -22.7533  -31.2886   21.3830 H   0  0  0  0  0  0
  -23.3762  -35.9591   23.3294 H   0  0  0  0  0  0
  -24.3588  -36.8897   22.2059 H   0  0  0  0  0  0
  -23.7263  -37.6457   23.6684 H   0  0  0  0  0  0
  -26.1685  -31.4601   20.6271 H   0  0  0  0  0  0
  -26.8772  -30.7571   22.0444 H   0  0  0  0  0  0
  -28.1266  -28.7657   21.2820 H   0  0  0  0  0  0
  -25.9749  -25.9047   18.8918 H   0  0  0  0  0  0
  -24.0118  -27.3389   18.9099 H   0  0  0  0  0  0
  -23.8153  -30.5688   19.3995 H   0  0  0  0  0  0
  -22.7958  -29.2335   19.8441 H   0  0  0  0  0  0
  -25.1325  -36.1863   25.0808 H   0  0  0  0  0  0
  -20.9985  -28.3320   24.1352 H   0  0  0  0  0  0
  -20.5685  -26.2338   23.3620 H   0  0  0  0  0  0
  -21.6660  -26.7435   22.1200 H   0  0  0  0  0  0
  -19.6944  -25.6280   21.1256 H   0  0  0  0  0  0
  -19.6713  -27.3172   20.6726 H   0  0  0  0  0  0
  -17.4216  -26.6643   21.4021 H   0  0  0  0  0  0
  -18.0355  -26.0075   22.9022 H   0  0  0  0  0  0
  -19.7944  -30.7286   24.2227 H   0  0  0  0  0  0
  -17.5020  -31.6265   24.5159 H   0  0  0  0  0  0
  -15.5356  -30.2972   23.7678 H   0  0  0  0  0  0
  -15.8679  -28.0810   22.7091 H   0  0  0  0  0  0
  -24.5911  -30.7093   25.7738 H   0  0  0  0  0  0
  -24.8923  -32.2931   26.4808 H   0  0  0  0  0  0
  -25.8011  -30.8941   27.0236 H   0  0  0  0  0  0
  -26.3067  -29.6668   24.1322 H   0  0  0  0  0  0
  -27.3997  -29.7261   25.4932 H   0  0  0  0  0  0
  -27.8990  -30.4191   23.9710 H   0  0  0  0  0  0
  -27.2641  -33.3654   26.2043 H   0  0  0  0  0  0
  -28.3893  -32.6882   25.0356 H   0  0  0  0  0  0
  -28.0722  -31.8514   26.5469 H   0  0  0  0  0  0
  -28.2588  -38.0091   24.7480 H   0  0  0  0  0  0
  -28.1073  -36.2615   24.6328 H   0  0  0  0  0  0
  -27.2281  -37.1487   25.8860 H   0  0  0  0  0  0
  -20.9492  -29.8755   21.6768 H   0  0  0  0  0  0
  -26.0164  -38.2808   24.1371 H   0  0  0  0  0  0
  -28.0744  -17.6626   22.2422 H   0  0  0  0  0  0
  -30.9530  -18.1793   19.1238 H   0  0  0  0  0  0
  -28.6202  -24.0331   22.8386 H   0  0  0  0  0  0
  -28.1386  -25.7187   22.7310 H   0  0  0  0  0  0
  -29.7199  -25.2171   22.1467 H   0  0  0  0  0  0
  -26.1310  -24.0531   20.0208 H   0  0  0  0  0  0
  -26.4911  -23.3786   21.5881 H   0  0  0  0  0  0
  -26.0199  -25.0475   21.4818 H   0  0  0  0  0  0
  -28.7923  -15.6321   21.1175 H   0  0  0  0  0  0
  -28.0009  -22.1067   21.5338 H   0  0  0  0  0  0
  1 25  1  0  0  0
  1 30  2  0  0  0
  1 81  1  0  0  0
  2  3  1  0  0  0
  2 25  1  0  0  0
  2 85  1  0  0  0
  2 86  1  0  0  0
  3  4  1  0  0  0
  3 87  1  0  0  0
  3 88  1  0  0  0
  4  5  1  0  0  0
  4 89  1  0  0  0
  4 90  1  0  0  0
  5  6  1  0  0  0
  5 26  1  0  0  0
  5 91  1  0  0  0
  6 25  1  0  0  0
  6 92  1  0  0  0
  6 93  1  0  0  0
  7  8  2  0  0  0
  7 26  1  0  0  0
  7 29  1  0  0  0
  8  9  1  0  0  0
  8 22  1  0  0  0
  9 10  1  0  0  0
  9 27  2  0  0  0
 10 11  2  0  0  0
 10 15  1  0  0  0
 11 12  1  0  0  0
 11 94  1  0  0  0
 12 13  2  0  0  0
 12 95  1  0  0  0
 13 14  1  0  0  0
 13 31  1  0  0  0
 14 15  2  0  0  0
 14 96  1  0  0  0
 15 97  1  0  0  0
 16 17  2  0  0  0
 16 21  1  0  0  0
 16 31  1  0  0  0
 17 18  1  0  0  0
 17 98  1  0  0  0
 18 19  2  0  0  0
 18 99  1  0  0  0
 19 20  1  0  0  0
 19 24  1  0  0  0
 20 21  2  0  0  0
 20100  1  0  0  0
 21 23  1  0  0  0
 22 28  1  0  0  0
 22 32  2  0  0  0
 26 27  1  0  0  0
 28101  1  0  0  0
 28102  1  0  0  0
 29103  1  0  0  0
 29104  1  0  0  0
 33 34  1  0  0  0
 33 66  1  0  0  0
 33 70  2  0  0  0
 34 36  1  0  0  0
 34 59  1  0  0  0
 34105  1  0  0  0
 35 44  2  0  0  0
 35 45  1  0  0  0
 35 68  1  0  0  0
 36 56  1  0  0  0
 36106  1  0  0  0
 37 39  1  0  0  0
 37 47  1  0  0  0
 37 66  1  0  0  0
 37107  1  0  0  0
 38 43  2  0  0  0
 38 46  1  0  0  0
 38 47  1  0  0  0
 39 64  1  0  0  0
 39 67  2  0  0  0
 40 52  1  0  0  0
 40 53  2  0  0  0
 40 58  1  0  0  0
 41108  1  0  0  0
 41109  1  0  0  0
 41110  1  0  0  0
 41 48  1  0  0  0
 42 43  1  0  0  0
 42 66  1  0  0  0
 42111  1  0  0  0
 42112  1  0  0  0
 43 44  1  0  0  0
 44113  1  0  0  0
 45 46  2  0  0  0
 45114  1  0  0  0
 46115  1  0  0  0
 47116  1  0  0  0
 47117  1  0  0  0
 48 56  1  0  0  0
 48 65  1  0  0  0
 48118  1  0  0  0
 49 50  1  0  0  0
 49 53  1  0  0  0
 49 64  1  0  0  0
 49119  1  0  0  0
 50 51  1  0  0  0
 50120  1  0  0  0
 50121  1  0  0  0
 51 52  1  0  0  0
 51122  1  0  0  0
 51123  1  0  0  0
 52124  1  0  0  0
 52125  1  0  0  0
 53 54  1  0  0  0
 54 55  2  0  0  0
 54126  1  0  0  0
 55 57  1  0  0  0
 55127  1  0  0  0
 56 69  2  0  0  0
 57 58  2  0  0  0
 57128  1  0  0  0
 58129  1  0  0  0
 59 60  1  0  0  0
 59 61  1  0  0  0
 59 62  1  0  0  0
 60130  1  0  0  0
 60131  1  0  0  0
 60132  1  0  0  0
 61133  1  0  0  0
 61134  1  0  0  0
 61135  1  0  0  0
 62136  1  0  0  0
 62137  1  0  0  0
 62138  1  0  0  0
 63 65  1  0  0  0
 63139  1  0  0  0
 63140  1  0  0  0
 63141  1  0  0  0
 64142  1  0  0  0
 65143  1  0  0  0
 68 79  1  0  0  0
 71 73  2  0  0  0
 71 74  1  0  0  0
 71144  1  0  0  0
 72 73  1  0  0  0
 72 80  2  0  0  0
 72145  1  0  0  0
 73 81  1  0  0  0
 74 75  2  0  0  0
 74 84  1  0  0  0
 75 80  1  0  0  0
 75 82  1  0  0  0
 76 79  1  0  0  0
 76 82  1  0  0  0
 76 83  2  0  0  0
 77146  1  0  0  0
 77147  1  0  0  0
 77148  1  0  0  0
 77 79  1  0  0  0
 78 79  1  0  0  0
 78149  1  0  0  0
 78150  1  0  0  0
 78151  1  0  0  0
 81152  1  0  0  0
 82153  1  0  0  0
M  ISO  4   1 100  68 101  79 101  81 100
M  END
> <chiral flag>
0

> <version>
0

> <s_m_source_file>
/data/baiqing/PycharmProjects/Reinvent-master-3.2/result/LINK_invent/BTK/process_docking_weight1_custom_product_contain_oxygen_bond_distance_aromatic_linkinvent_7_9_3/rearranged_h_0185.sdf

> <i_m_source_file_index>
72

> <r_mmod_Potential_Energy-OPLS-2005>
316.140960693359

> <r_mmod_Stretch_Energy-OPLS-2005>
241.469299316406

> <r_mmod_Bend_Energy-OPLS-2005>
296.657287597656

> <r_mmod_Torsional_Energy-OPLS-2005>
252.454254150391

> <r_mmod_Improper_Torsional_Energy-OPLS-2005>
3.58131122589111

> <r_mmod_Van_der_Waal_Energy-OPLS-2005>
134.289123535156

> <r_mmod_Electrostatic_Energy-OPLS-2005>
-553.170288085938

> <r_mmod_Solvation_Energy-OPLS-2005>
-256.207183837891

> <b_mmod_Minimization_Converged-OPLS-2005>
0

> <r_mmod_RMS_Derivative-OPLS-2005>
1.05396950244904

$$$$
72
                    3D
 Structure written by MMmdl.
167175  0  0  1  0            999 V2000
  -30.7931  -14.4958   20.6853 C   0  0  0  0  0  0
  -30.4216  -12.3540   19.4694 C   0  0  0  0  0  0
  -29.5121  -12.5283   18.2372 C   0  0  0  0  0  0
  -28.0356  -12.3606   18.6246 C   0  0  0  0  0  0
  -27.6574  -13.2224   19.8531 C   0  0  2  0  0  0
  -28.6815  -13.0578   20.9923 C   0  0  0  0  0  0
  -25.2587  -13.8242   20.5678 C   0  0  0  0  0  0
  -24.1869  -13.0437   20.9198 C   0  0  0  0  0  0
  -24.6448  -11.6931   20.8697 C   0  0  0  0  0  0
  -23.9091  -10.4313   21.0383 C   0  0  0  0  0  0
  -24.3653   -9.4233   21.9162 C   0  0  0  0  0  0
  -23.6333   -8.2260   22.0732 C   0  0  0  0  0  0
  -22.4300   -8.0298   21.3567 C   0  0  0  0  0  0
  -21.9937   -9.0243   20.4650 C   0  0  0  0  0  0
  -22.7253  -10.2136   20.3025 C   0  0  0  0  0  0
  -21.6863   -6.0762   22.5279 C   0  0  0  0  0  0
  -21.4024   -6.5639   23.8216 C   0  0  0  0  0  0
  -21.3664   -5.6783   24.9174 C   0  0  0  0  0  0
  -21.6045   -4.3037   24.7197 C   0  0  0  0  0  0
  -21.8803   -3.8140   23.4322 C   0  0  0  0  0  0
  -21.9196   -4.6986   22.3399 C   0  0  0  0  0  0
  -22.7867  -13.5191   21.1843 C   0  0  0  0  0  0
  -22.1665   -4.2188   21.0976 F   0  0  0  0  0  0
  -21.5636   -3.4509   25.7713 F   0  0  0  0  0  0
  -30.0403  -13.3569   20.4932 N   0  0  0  0  0  0
  -26.2990  -12.9413   20.3170 N   0  0  0  0  0  0
  -25.9367  -11.6554   20.5659 N   0  0  0  0  0  0
  -22.0523  -12.8187   22.0422 N   0  0  0  0  0  0
  -25.4254  -15.1993   20.4297 N   0  0  0  0  0  0
  -31.7653  -14.6977   19.9567 O   0  0  0  0  0  0
  -21.6646   -6.8904   21.4246 O   0  0  0  0  0  0
  -22.3476  -14.5397   20.6597 O   0  0  0  0  0  0
  -24.6216  -31.8643   23.2079 C   0  0  0  0  0  0
  -25.9085  -32.4804   23.8400 C   0  0  1  0  0  0
  -27.2208  -27.3690   20.0900 C   0  0  0  0  0  0
  -25.5936  -33.8610   24.2303 N   0  0  0  0  0  0
  -23.4090  -30.4967   21.5478 C   0  0  2  0  0  0
  -24.8497  -28.9608   20.1082 C   0  0  0  0  0  0
  -22.7436  -29.4696   22.4910 C   0  0  0  0  0  0
  -18.0298  -28.1378   22.8501 C   0  0  0  0  0  0
  -24.1469  -36.7266   23.2625 C   0  0  0  0  0  0
  -25.9478  -30.8125   21.3697 C   0  0  0  0  0  0
  -26.0191  -29.4458   20.7065 C   0  0  0  0  0  0
  -27.2041  -28.6579   20.6949 C   0  0  0  0  0  0
  -26.0285  -26.9376   19.4547 C   0  0  0  0  0  0
  -24.8508  -27.7062   19.4836 C   0  0  0  0  0  0
  -23.6182  -29.8381   20.1594 C   0  0  0  0  0  0
  -25.4093  -36.3064   24.0318 C   0  0  1  0  0  0
  -20.5904  -28.3692   23.1265 C   0  0  2  0  0  0
  -20.6782  -26.9412   22.5391 C   0  0  0  0  0  0
  -19.5745  -26.6375   21.5210 C   0  0  0  0  0  0
  -18.1937  -26.7944   22.1640 C   0  0  0  0  0  0
  -19.1554  -28.8846   23.2899 C   0  0  0  0  0  0
  -18.9484  -30.1457   23.8896 C   0  0  0  0  0  0
  -17.6477  -30.6578   24.0579 C   0  0  0  0  0  0
  -25.9032  -34.9450   23.5085 C   0  0  0  0  0  0
  -16.5365  -29.9077   23.6326 C   0  0  0  0  0  0
  -16.7299  -28.6504   23.0343 C   0  0  0  0  0  0
  -26.4509  -31.6617   25.0743 C   0  0  0  0  0  0
  -25.3776  -31.3762   26.1479 C   0  0  0  0  0  0
  -27.0363  -30.3052   24.6162 C   0  0  0  0  0  0
  -27.6036  -32.4381   25.7538 C   0  0  0  0  0  0
  -27.5546  -37.1770   24.8469 C   0  0  0  0  0  0
  -21.4156  -29.3063   22.3654 N   0  0  0  0  0  0
  -26.4270  -37.3760   23.9405 N   0  0  0  0  0  0
  -24.6793  -31.0747   22.0986 N   0  0  0  0  0  0
  -23.4206  -28.8217   23.2938 O   0  0  0  0  0  0
  -28.3598  -26.5559   20.1499 O   0  0  0  0  0  0
  -26.5579  -34.8921   22.4625 O   0  0  0  0  0  0
  -23.5414  -32.1403   23.7460 O   0  0  0  0  0  0
  -30.1363  -17.9294   20.8385 C   0  0  0  0  0  0
  -29.3819  -17.7968   19.6806 C   0  0  0  0  0  0
  -29.5176  -20.1637   20.4688 C   0  0  0  0  0  0
  -28.9273  -22.5964   20.0545 C   0  0  0  0  0  0
  -30.7113  -24.4305   20.1087 C   0  0  0  0  0  0
  -33.0152  -18.4682   21.7448 C   0  0  0  0  0  0
  -33.2340  -16.1134   22.6071 C   0  0  0  0  0  0
  -30.0860  -14.9554   22.9974 C   0  0  0  0  0  0
  -28.2319  -25.1350   19.8021 C   0  0  0  0  0  0
  -30.9164  -16.8715   21.6732 C   0  0  1  0  0  0
  -29.2404  -24.0909   20.4355 C   0  0  1  0  0  0
  -32.4910  -17.0221   21.5983 C   0  0  0  0  0  0
  -30.1397  -19.2855   21.2777 N   0  0  0  0  0  0
  -29.0762  -16.6737   18.9180 N   0  0  0  0  0  0
  -29.5606  -21.5864   20.7169 N   0  0  0  0  0  0
  -30.4412  -15.4250   21.6411 N   0  0  0  0  0  0
  -28.0803  -22.3737   19.1862 O   0  0  0  0  0  0
  -28.7441  -19.3366   19.1165 S   0  0  0  0  0  0
  -31.4710  -12.4304   19.1729 H   0  0  0  0  0  0
  -30.3170  -11.3496   19.8850 H   0  0  0  0  0  0
  -29.7828  -11.8056   17.4677 H   0  0  0  0  0  0
  -29.6684  -13.5164   17.7956 H   0  0  0  0  0  0
  -27.8574  -11.3060   18.8355 H   0  0  0  0  0  0
  -27.4013  -12.6168   17.7745 H   0  0  0  0  0  0
  -27.6862  -14.2614   19.5288 H   0  0  0  0  0  0
  -28.6597  -12.0446   21.3944 H   0  0  0  0  0  0
  -28.3513  -13.7038   21.7958 H   0  0  0  0  0  0
  -25.2839   -9.5687   22.4664 H   0  0  0  0  0  0
  -24.0064   -7.4644   22.7425 H   0  0  0  0  0  0
  -21.0858   -8.8728   19.8982 H   0  0  0  0  0  0
  -22.3718  -10.9625   19.6057 H   0  0  0  0  0  0
  -21.1996   -7.6148   23.9717 H   0  0  0  0  0  0
  -21.1514   -6.0531   25.9098 H   0  0  0  0  0  0
  -22.0580   -2.7600   23.2797 H   0  0  0  0  0  0
  -22.4319  -12.0079   22.5075 H   0  0  0  0  0  0
  -21.0987  -13.0975   22.2317 H   0  0  0  0  0  0
  -24.6653  -15.8446   20.6119 H   0  0  0  0  0  0
  -26.2744  -15.6654   20.1286 H   0  0  0  0  0  0
  -26.7147  -32.5464   23.1162 H   0  0  0  0  0  0
  -25.0196  -33.9832   25.0529 H   0  0  0  0  0  0
  -22.7025  -31.3170   21.4122 H   0  0  0  0  0  0
  -23.3727  -35.9602   23.3342 H   0  0  0  0  0  0
  -24.3543  -36.8831   22.2020 H   0  0  0  0  0  0
  -23.7239  -37.6490   23.6651 H   0  0  0  0  0  0
  -26.0764  -31.5823   20.6089 H   0  0  0  0  0  0
  -26.8324  -30.8533   21.9940 H   0  0  0  0  0  0
  -28.1060  -29.0290   21.1649 H   0  0  0  0  0  0
  -25.9647  -25.9992   18.9256 H   0  0  0  0  0  0
  -23.9541  -27.3285   19.0116 H   0  0  0  0  0  0
  -23.7338  -30.6163   19.4046 H   0  0  0  0  0  0
  -22.7377  -29.2693   19.8564 H   0  0  0  0  0  0
  -25.1287  -36.1886   25.0816 H   0  0  0  0  0  0
  -21.0088  -28.3258   24.1350 H   0  0  0  0  0  0
  -20.5658  -26.2322   23.3594 H   0  0  0  0  0  0
  -21.6658  -26.7391   22.1204 H   0  0  0  0  0  0
  -19.6902  -25.6278   21.1238 H   0  0  0  0  0  0
  -19.6678  -27.3189   20.6738 H   0  0  0  0  0  0
  -17.4210  -26.6701   21.4035 H   0  0  0  0  0  0
  -18.0337  -26.0066   22.9014 H   0  0  0  0  0  0
  -19.7955  -30.7291   24.2261 H   0  0  0  0  0  0
  -17.5022  -31.6275   24.5153 H   0  0  0  0  0  0
  -15.5371  -30.2981   23.7625 H   0  0  0  0  0  0
  -15.8719  -28.0824   22.7032 H   0  0  0  0  0  0
  -24.5940  -30.7118   25.7836 H   0  0  0  0  0  0
  -24.9025  -32.2963   26.4884 H   0  0  0  0  0  0
  -25.8108  -30.8963   27.0254 H   0  0  0  0  0  0
  -26.2936  -29.6805   24.1196 H   0  0  0  0  0  0
  -27.4083  -29.7281   25.4640 H   0  0  0  0  0  0
  -27.8795  -30.4365   23.9376 H   0  0  0  0  0  0
  -27.2602  -33.3664   26.2119 H   0  0  0  0  0  0
  -28.3861  -32.6963   25.0379 H   0  0  0  0  0  0
  -28.0722  -31.8531   26.5466 H   0  0  0  0  0  0
  -28.2568  -38.0050   24.7478 H   0  0  0  0  0  0
  -28.1026  -36.2583   24.6355 H   0  0  0  0  0  0
  -27.2291  -37.1485   25.8877 H   0  0  0  0  0  0
  -20.9282  -29.8778   21.6883 H   0  0  0  0  0  0
  -26.0130  -38.2816   24.1417 H   0  0  0  0  0  0
  -30.9906  -25.4018   20.5231 H   0  0  0  0  0  0
  -30.8807  -24.4631   19.0330 H   0  0  0  0  0  0
  -31.4075  -23.6959   20.5202 H   0  0  0  0  0  0
  -34.0885  -18.5068   21.9425 H   0  0  0  0  0  0
  -32.5266  -18.9891   22.5684 H   0  0  0  0  0  0
  -32.8448  -19.0557   20.8405 H   0  0  0  0  0  0
  -34.3157  -16.1702   22.4738 H   0  0  0  0  0  0
  -32.9796  -15.0626   22.4804 H   0  0  0  0  0  0
  -33.0231  -16.3927   23.6432 H   0  0  0  0  0  0
  -29.0866  -15.3026   23.2612 H   0  0  0  0  0  0
  -30.1189  -13.8709   23.1178 H   0  0  0  0  0  0
  -30.7762  -15.3274   23.7545 H   0  0  0  0  0  0
  -27.2417  -24.7816   20.0892 H   0  0  0  0  0  0
  -28.2650  -25.0605   18.7152 H   0  0  0  0  0  0
  -30.7182  -17.1995   22.6929 H   0  0  0  0  0  0
  -29.1221  -24.1511   21.5155 H   0  0  0  0  0  0
  -32.8117  -16.7434   20.5967 H   0  0  0  0  0  0
  -29.2632  -15.7092   19.1552 H   0  0  0  0  0  0
  -28.5043  -16.7509   18.0813 H   0  0  0  0  0  0
  -30.1843  -21.8669   21.4607 H   0  0  0  0  0  0
  1 25  1  0  0  0
  1 30  2  0  0  0
  1 86  1  0  0  0
  2  3  1  0  0  0
  2 25  1  0  0  0
  2 89  1  0  0  0
  2 90  1  0  0  0
  3  4  1  0  0  0
  3 91  1  0  0  0
  3 92  1  0  0  0
  4  5  1  0  0  0
  4 93  1  0  0  0
  4 94  1  0  0  0
  5  6  1  0  0  0
  5 26  1  0  0  0
  5 95  1  0  0  0
  6 25  1  0  0  0
  6 96  1  0  0  0
  6 97  1  0  0  0
  7  8  2  0  0  0
  7 26  1  0  0  0
  7 29  1  0  0  0
  8  9  1  0  0  0
  8 22  1  0  0  0
  9 10  1  0  0  0
  9 27  2  0  0  0
 10 11  2  0  0  0
 10 15  1  0  0  0
 11 12  1  0  0  0
 11 98  1  0  0  0
 12 13  2  0  0  0
 12 99  1  0  0  0
 13 14  1  0  0  0
 13 31  1  0  0  0
 14 15  2  0  0  0
 14100  1  0  0  0
 15101  1  0  0  0
 16 17  2  0  0  0
 16 21  1  0  0  0
 16 31  1  0  0  0
 17 18  1  0  0  0
 17102  1  0  0  0
 18 19  2  0  0  0
 18103  1  0  0  0
 19 20  1  0  0  0
 19 24  1  0  0  0
 20 21  2  0  0  0
 20104  1  0  0  0
 21 23  1  0  0  0
 22 28  1  0  0  0
 22 32  2  0  0  0
 26 27  1  0  0  0
 28105  1  0  0  0
 28106  1  0  0  0
 29107  1  0  0  0
 29108  1  0  0  0
 33 34  1  0  0  0
 33 66  1  0  0  0
 33 70  2  0  0  0
 34 36  1  0  0  0
 34 59  1  0  0  0
 34109  1  0  0  0
 35 44  2  0  0  0
 35 45  1  0  0  0
 35 68  1  0  0  0
 36 56  1  0  0  0
 36110  1  0  0  0
 37 39  1  0  0  0
 37 47  1  0  0  0
 37 66  1  0  0  0
 37111  1  0  0  0
 38 43  2  0  0  0
 38 46  1  0  0  0
 38 47  1  0  0  0
 39 64  1  0  0  0
 39 67  2  0  0  0
 40 52  1  0  0  0
 40 53  2  0  0  0
 40 58  1  0  0  0
 41112  1  0  0  0
 41113  1  0  0  0
 41114  1  0  0  0
 41 48  1  0  0  0
 42 43  1  0  0  0
 42 66  1  0  0  0
 42115  1  0  0  0
 42116  1  0  0  0
 43 44  1  0  0  0
 44117  1  0  0  0
 45 46  2  0  0  0
 45118  1  0  0  0
 46119  1  0  0  0
 47120  1  0  0  0
 47121  1  0  0  0
 48 56  1  0  0  0
 48 65  1  0  0  0
 48122  1  0  0  0
 49 50  1  0  0  0
 49 53  1  0  0  0
 49 64  1  0  0  0
 49123  1  0  0  0
 50 51  1  0  0  0
 50124  1  0  0  0
 50125  1  0  0  0
 51 52  1  0  0  0
 51126  1  0  0  0
 51127  1  0  0  0
 52128  1  0  0  0
 52129  1  0  0  0
 53 54  1  0  0  0
 54 55  2  0  0  0
 54130  1  0  0  0
 55 57  1  0  0  0
 55131  1  0  0  0
 56 69  2  0  0  0
 57 58  2  0  0  0
 57132  1  0  0  0
 58133  1  0  0  0
 59 60  1  0  0  0
 59 61  1  0  0  0
 59 62  1  0  0  0
 60134  1  0  0  0
 60135  1  0  0  0
 60136  1  0  0  0
 61137  1  0  0  0
 61138  1  0  0  0
 61139  1  0  0  0
 62140  1  0  0  0
 62141  1  0  0  0
 62142  1  0  0  0
 63 65  1  0  0  0
 63143  1  0  0  0
 63144  1  0  0  0
 63145  1  0  0  0
 64146  1  0  0  0
 65147  1  0  0  0
 68 79  1  0  0  0
 71 72  2  0  0  0
 71 80  1  0  0  0
 71 83  1  0  0  0
 72 84  1  0  0  0
 72 88  1  0  0  0
 73 83  2  0  0  0
 73 85  1  0  0  0
 73 88  1  0  0  0
 74 81  1  0  0  0
 74 85  1  0  0  0
 74 87  2  0  0  0
 75148  1  0  0  0
 75149  1  0  0  0
 75150  1  0  0  0
 75 81  1  0  0  0
 76151  1  0  0  0
 76152  1  0  0  0
 76153  1  0  0  0
 76 82  1  0  0  0
 77 82  1  0  0  0
 77154  1  0  0  0
 77155  1  0  0  0
 77156  1  0  0  0
 78 86  1  0  0  0
 78157  1  0  0  0
 78158  1  0  0  0
 78159  1  0  0  0
 79 81  1  0  0  0
 79160  1  0  0  0
 79161  1  0  0  0
 80 82  1  0  0  0
 80 86  1  0  0  0
 80162  1  0  0  0
 81163  1  0  0  0
 82164  1  0  0  0
 84165  1  0  0  0
 84166  1  0  0  0
 85167  1  0  0  0
M  ISO  4   1 100  68 101  79 101  86 100
M  END
> <chiral flag>
0

> <version>
0

> <s_m_source_file>
/data/baiqing/PycharmProjects/Reinvent-master-3.2/result/LINK_invent/BTK/process_docking_weight1_custom_product_contain_oxygen_bond_distance_aromatic_linkinvent_7_9_3/rearranged_h_0185.sdf

> <i_m_source_file_index>
73

> <r_mmod_Potential_Energy-OPLS-2005>
122.021255493164

> <r_mmod_Stretch_Energy-OPLS-2005>
78.2875366210938

> <r_mmod_Bend_Energy-OPLS-2005>
159.040176391602

> <r_mmod_Torsional_Energy-OPLS-2005>
254.038848876953

> <r_mmod_Improper_Torsional_Energy-OPLS-2005>
3.88451743125916

> <r_mmod_Van_der_Waal_Energy-OPLS-2005>
149.042770385742

> <r_mmod_Electrostatic_Energy-OPLS-2005>
-339.348937988281

> <r_mmod_Solvation_Energy-OPLS-2005>
-208.903823852539

> <b_mmod_Minimization_Converged-OPLS-2005>
0

> <r_mmod_RMS_Derivative-OPLS-2005>
6.14789724349976

$$$$
73
                    3D
 Structure written by MMmdl.
156164  0  0  1  0            999 V2000
  -30.6892  -14.6750   20.4621 C   0  0  0  0  0  0
  -30.4168  -12.4191   19.4509 C   0  0  0  0  0  0
  -29.4939  -12.4934   18.2172 C   0  0  0  0  0  0
  -28.0219  -12.3335   18.6400 C   0  0  0  0  0  0
  -27.6405  -13.2356   19.8442 C   0  0  2  0  0  0
  -28.6944  -13.1768   20.9727 C   0  0  0  0  0  0
  -25.2519  -13.8215   20.5716 C   0  0  0  0  0  0
  -24.1812  -13.0449   20.9217 C   0  0  0  0  0  0
  -24.6412  -11.6929   20.8758 C   0  0  0  0  0  0
  -23.9093  -10.4300   21.0417 C   0  0  0  0  0  0
  -24.3640   -9.4214   21.9197 C   0  0  0  0  0  0
  -23.6307   -8.2250   22.0764 C   0  0  0  0  0  0
  -22.4288   -8.0290   21.3544 C   0  0  0  0  0  0
  -21.9932   -9.0271   20.4655 C   0  0  0  0  0  0
  -22.7267  -10.2146   20.3068 C   0  0  0  0  0  0
  -21.6858   -6.0745   22.5280 C   0  0  0  0  0  0
  -21.4013   -6.5648   23.8219 C   0  0  0  0  0  0
  -21.3657   -5.6801   24.9179 C   0  0  0  0  0  0
  -21.6042   -4.3066   24.7227 C   0  0  0  0  0  0
  -21.8818   -3.8155   23.4353 C   0  0  0  0  0  0
  -21.9189   -4.6972   22.3403 C   0  0  0  0  0  0
  -22.7830  -13.5225   21.1871 C   0  0  0  0  0  0
  -22.1661   -4.2161   21.0985 F   0  0  0  0  0  0
  -21.5626   -3.4544   25.7742 F   0  0  0  0  0  0
  -29.9965  -13.4929   20.3754 N   0  0  0  0  0  0
  -26.2952  -12.9433   20.3298 N   0  0  0  0  0  0
  -25.9348  -11.6574   20.5780 N   0  0  0  0  0  0
  -22.0478  -12.8208   22.0413 N   0  0  0  0  0  0
  -25.4188  -15.1947   20.4138 N   0  0  0  0  0  0
  -31.8840  -14.7084   20.1667 O   0  0  0  0  0  0
  -21.6642   -6.8891   21.4246 O   0  0  0  0  0  0
  -22.3505  -14.5526   20.6720 O   0  0  0  0  0  0
  -24.6277  -31.8606   23.2056 C   0  0  0  0  0  0
  -25.9117  -32.4770   23.8367 C   0  0  1  0  0  0
  -27.2177  -27.3055   20.0936 C   0  0  0  0  0  0
  -25.5911  -33.8569   24.2275 N   0  0  0  0  0  0
  -23.4215  -30.4878   21.5506 C   0  0  2  0  0  0
  -24.8658  -28.9537   20.1075 C   0  0  0  0  0  0
  -22.7482  -29.4625   22.4948 C   0  0  0  0  0  0
  -18.0281  -28.1390   22.8501 C   0  0  0  0  0  0
  -24.1498  -36.7310   23.2645 C   0  0  0  0  0  0
  -25.9661  -30.7818   21.3842 C   0  0  0  0  0  0
  -26.0368  -29.4099   20.7254 C   0  0  0  0  0  0
  -27.2112  -28.5933   20.7215 C   0  0  0  0  0  0
  -26.0208  -26.9266   19.4357 C   0  0  0  0  0  0
  -24.8624  -27.7175   19.4536 C   0  0  0  0  0  0
  -23.6359  -29.8344   20.1633 C   0  0  0  0  0  0
  -25.4109  -36.3074   24.0348 C   0  0  1  0  0  0
  -20.5876  -28.3703   23.1286 C   0  0  2  0  0  0
  -20.6762  -26.9426   22.5411 C   0  0  0  0  0  0
  -19.5737  -26.6398   21.5214 C   0  0  0  0  0  0
  -18.1916  -26.7935   22.1632 C   0  0  0  0  0  0
  -19.1534  -28.8867   23.2889 C   0  0  0  0  0  0
  -18.9453  -30.1461   23.8918 C   0  0  0  0  0  0
  -17.6454  -30.6591   24.0577 C   0  0  0  0  0  0
  -25.9048  -34.9445   23.5120 C   0  0  0  0  0  0
  -16.5347  -29.9093   23.6330 C   0  0  0  0  0  0
  -16.7268  -28.6508   23.0359 C   0  0  0  0  0  0
  -26.4489  -31.6576   25.0737 C   0  0  0  0  0  0
  -25.3714  -31.3688   26.1449 C   0  0  0  0  0  0
  -27.0339  -30.2997   24.6216 C   0  0  0  0  0  0
  -27.6063  -32.4311   25.7481 C   0  0  0  0  0  0
  -27.5583  -37.1789   24.8460 C   0  0  0  0  0  0
  -21.4190  -29.3050   22.3690 N   0  0  0  0  0  0
  -26.4286  -37.3764   23.9420 N   0  0  0  0  0  0
  -24.6905  -31.0603   22.1026 N   0  0  0  0  0  0
  -23.4193  -28.8150   23.3025 O   0  0  0  0  0  0
  -28.3289  -26.4323   20.1499 O   0  0  0  0  0  0
  -26.5636  -34.8925   22.4692 O   0  0  0  0  0  0
  -23.5451  -32.1439   23.7363 O   0  0  0  0  0  0
  -28.4113  -20.1715   20.4744 C   0  0  0  0  0  0
  -29.2436  -21.2854   20.1652 C   0  0  0  0  0  0
  -30.6117  -20.9527   20.0002 C   0  0  0  0  0  0
  -31.0619  -19.6144   20.1915 C   0  0  0  0  0  0
  -30.1484  -18.5757   20.5360 C   0  0  0  0  0  0
  -29.1245  -23.9021   20.0903 C   0  0  0  0  0  0
  -28.5940  -25.3172   18.0243 C   0  0  0  0  0  0
  -30.7029  -17.1667   21.0071 C   0  0  1  0  0  0
  -28.2416  -25.0904   19.5068 C   0  0  2  0  0  0
  -30.9615  -17.2059   22.5288 C   0  0  0  0  0  0
  -28.8260  -18.8765   20.6598 N   0  0  0  0  0  0
  -28.6587  -22.6167   19.9232 N   0  0  0  0  0  0
  -30.0205  -15.8515   20.7005 N   0  0  0  0  0  0
  -30.1821  -24.1490   20.6728 O   0  0  0  0  0  0
  -31.5052  -21.9003   19.6228 F   0  0  0  0  0  0
  -32.3879  -19.3449   20.0777 F   0  0  0  0  0  0
  -29.8139  -17.2605   23.2049 F   0  0  0  0  0  0
  -31.7221  -18.2465   22.8699 F   0  0  0  0  0  0
  -31.4596  -12.5123   19.1424 H   0  0  0  0  0  0
  -30.3354  -11.4458   19.9375 H   0  0  0  0  0  0
  -29.7630  -11.7210   17.4953 H   0  0  0  0  0  0
  -29.6298  -13.4478   17.7061 H   0  0  0  0  0  0
  -27.8704  -11.2853   18.8979 H   0  0  0  0  0  0
  -27.3633  -12.5346   17.7948 H   0  0  0  0  0  0
  -27.6333  -14.2563   19.4620 H   0  0  0  0  0  0
  -28.7204  -12.1897   21.4379 H   0  0  0  0  0  0
  -28.4486  -13.8850   21.7669 H   0  0  0  0  0  0
  -25.2784   -9.5683   22.4773 H   0  0  0  0  0  0
  -24.0014   -7.4643   22.7489 H   0  0  0  0  0  0
  -21.0863   -8.8797   19.8964 H   0  0  0  0  0  0
  -22.3731  -10.9691   19.6174 H   0  0  0  0  0  0
  -21.2008   -7.6158   23.9723 H   0  0  0  0  0  0
  -21.1476   -6.0532   25.9082 H   0  0  0  0  0  0
  -22.0595   -2.7615   23.2849 H   0  0  0  0  0  0
  -22.4102  -11.9866   22.4793 H   0  0  0  0  0  0
  -21.1090  -13.1224   22.2633 H   0  0  0  0  0  0
  -24.6529  -15.8472   20.5409 H   0  0  0  0  0  0
  -26.2691  -15.6418   20.0955 H   0  0  0  0  0  0
  -26.7169  -32.5460   23.1100 H   0  0  0  0  0  0
  -24.9989  -33.9711   25.0373 H   0  0  0  0  0  0
  -22.7172  -31.3113   21.4124 H   0  0  0  0  0  0
  -23.3755  -35.9639   23.3272 H   0  0  0  0  0  0
  -24.3594  -36.8984   22.2065 H   0  0  0  0  0  0
  -23.7279  -37.6518   23.6694 H   0  0  0  0  0  0
  -26.1001  -31.5409   20.6125 H   0  0  0  0  0  0
  -26.8454  -30.8286   22.0141 H   0  0  0  0  0  0
  -28.1029  -28.9341   21.2290 H   0  0  0  0  0  0
  -25.9196  -26.0074   18.8830 H   0  0  0  0  0  0
  -23.9738  -27.3712   18.9429 H   0  0  0  0  0  0
  -23.7501  -30.6158   19.4106 H   0  0  0  0  0  0
  -22.7558  -29.2638   19.8635 H   0  0  0  0  0  0
  -25.1270  -36.1905   25.0837 H   0  0  0  0  0  0
  -20.9965  -28.3274   24.1411 H   0  0  0  0  0  0
  -20.5663  -26.2316   23.3609 H   0  0  0  0  0  0
  -21.6629  -26.7455   22.1208 H   0  0  0  0  0  0
  -19.6903  -25.6307   21.1251 H   0  0  0  0  0  0
  -19.6658  -27.3206   20.6741 H   0  0  0  0  0  0
  -17.4174  -26.6690   21.4039 H   0  0  0  0  0  0
  -18.0325  -26.0062   22.9019 H   0  0  0  0  0  0
  -19.7923  -30.7279   24.2303 H   0  0  0  0  0  0
  -17.5000  -31.6269   24.5172 H   0  0  0  0  0  0
  -15.5348  -30.3006   23.7644 H   0  0  0  0  0  0
  -15.8662  -28.0839   22.7076 H   0  0  0  0  0  0
  -24.5948  -30.6969   25.7763 H   0  0  0  0  0  0
  -24.8816  -32.2825   26.4827 H   0  0  0  0  0  0
  -25.8030  -30.8914   27.0254 H   0  0  0  0  0  0
  -26.2925  -29.6707   24.1281 H   0  0  0  0  0  0
  -27.4075  -29.7274   25.4714 H   0  0  0  0  0  0
  -27.8758  -30.4266   23.9415 H   0  0  0  0  0  0
  -27.2724  -33.3672   26.1962 H   0  0  0  0  0  0
  -28.3883  -32.6773   25.0283 H   0  0  0  0  0  0
  -28.0692  -31.8484   26.5457 H   0  0  0  0  0  0
  -28.2550  -38.0127   24.7539 H   0  0  0  0  0  0
  -28.1132  -36.2668   24.6216 H   0  0  0  0  0  0
  -27.2322  -37.1365   25.8866 H   0  0  0  0  0  0
  -20.9379  -29.8796   21.6907 H   0  0  0  0  0  0
  -26.0171  -38.2841   24.1409 H   0  0  0  0  0  0
  -27.3491  -20.3290   20.5878 H   0  0  0  0  0  0
  -29.5332  -25.8633   17.9314 H   0  0  0  0  0  0
  -27.8289  -25.9030   17.5162 H   0  0  0  0  0  0
  -28.6996  -24.3808   17.4767 H   0  0  0  0  0  0
  -31.6833  -17.1120   20.5321 H   0  0  0  0  0  0
  -27.2394  -24.6810   19.6067 H   0  0  0  0  0  0
  -31.4909  -16.3145   22.8672 H   0  0  0  0  0  0
  -27.7173  -22.5906   19.5552 H   0  0  0  0  0  0
  -29.0193  -15.8354   20.8047 H   0  0  0  0  0  0
  1 25  1  0  0  0
  1 30  2  0  0  0
  1 83  1  0  0  0
  2  3  1  0  0  0
  2 25  1  0  0  0
  2 89  1  0  0  0
  2 90  1  0  0  0
  3  4  1  0  0  0
  3 91  1  0  0  0
  3 92  1  0  0  0
  4  5  1  0  0  0
  4 93  1  0  0  0
  4 94  1  0  0  0
  5  6  1  0  0  0
  5 26  1  0  0  0
  5 95  1  0  0  0
  6 25  1  0  0  0
  6 96  1  0  0  0
  6 97  1  0  0  0
  7  8  2  0  0  0
  7 26  1  0  0  0
  7 29  1  0  0  0
  8  9  1  0  0  0
  8 22  1  0  0  0
  9 10  1  0  0  0
  9 27  2  0  0  0
 10 11  2  0  0  0
 10 15  1  0  0  0
 11 12  1  0  0  0
 11 98  1  0  0  0
 12 13  2  0  0  0
 12 99  1  0  0  0
 13 14  1  0  0  0
 13 31  1  0  0  0
 14 15  2  0  0  0
 14100  1  0  0  0
 15101  1  0  0  0
 16 17  2  0  0  0
 16 21  1  0  0  0
 16 31  1  0  0  0
 17 18  1  0  0  0
 17102  1  0  0  0
 18 19  2  0  0  0
 18103  1  0  0  0
 19 20  1  0  0  0
 19 24  1  0  0  0
 20 21  2  0  0  0
 20104  1  0  0  0
 21 23  1  0  0  0
 22 28  1  0  0  0
 22 32  2  0  0  0
 26 27  1  0  0  0
 28105  1  0  0  0
 28106  1  0  0  0
 29107  1  0  0  0
 29108  1  0  0  0
 33 34  1  0  0  0
 33 66  1  0  0  0
 33 70  2  0  0  0
 34 36  1  0  0  0
 34 59  1  0  0  0
 34109  1  0  0  0
 35 44  2  0  0  0
 35 45  1  0  0  0
 35 68  1  0  0  0
 36 56  1  0  0  0
 36110  1  0  0  0
 37 39  1  0  0  0
 37 47  1  0  0  0
 37 66  1  0  0  0
 37111  1  0  0  0
 38 43  2  0  0  0
 38 46  1  0  0  0
 38 47  1  0  0  0
 39 64  1  0  0  0
 39 67  2  0  0  0
 40 52  1  0  0  0
 40 53  2  0  0  0
 40 58  1  0  0  0
 41112  1  0  0  0
 41113  1  0  0  0
 41114  1  0  0  0
 41 48  1  0  0  0
 42 43  1  0  0  0
 42 66  1  0  0  0
 42115  1  0  0  0
 42116  1  0  0  0
 43 44  1  0  0  0
 44117  1  0  0  0
 45 46  2  0  0  0
 45118  1  0  0  0
 46119  1  0  0  0
 47120  1  0  0  0
 47121  1  0  0  0
 48 56  1  0  0  0
 48 65  1  0  0  0
 48122  1  0  0  0
 49 50  1  0  0  0
 49 53  1  0  0  0
 49 64  1  0  0  0
 49123  1  0  0  0
 50 51  1  0  0  0
 50124  1  0  0  0
 50125  1  0  0  0
 51 52  1  0  0  0
 51126  1  0  0  0
 51127  1  0  0  0
 52128  1  0  0  0
 52129  1  0  0  0
 53 54  1  0  0  0
 54 55  2  0  0  0
 54130  1  0  0  0
 55 57  1  0  0  0
 55131  1  0  0  0
 56 69  2  0  0  0
 57 58  2  0  0  0
 57132  1  0  0  0
 58133  1  0  0  0
 59 60  1  0  0  0
 59 61  1  0  0  0
 59 62  1  0  0  0
 60134  1  0  0  0
 60135  1  0  0  0
 60136  1  0  0  0
 61137  1  0  0  0
 61138  1  0  0  0
 61139  1  0  0  0
 62140  1  0  0  0
 62141  1  0  0  0
 62142  1  0  0  0
 63 65  1  0  0  0
 63143  1  0  0  0
 63144  1  0  0  0
 63145  1  0  0  0
 64146  1  0  0  0
 65147  1  0  0  0
 68 79  1  0  0  0
 71 72  2  0  0  0
 71 81  1  0  0  0
 71148  1  0  0  0
 72 73  1  0  0  0
 72 82  1  0  0  0
 73 74  2  0  0  0
 73 85  1  0  0  0
 74 75  1  0  0  0
 74 86  1  0  0  0
 75 78  1  0  0  0
 75 81  2  0  0  0
 76 79  1  0  0  0
 76 82  1  0  0  0
 76 84  2  0  0  0
 77149  1  0  0  0
 77150  1  0  0  0
 77151  1  0  0  0
 77 79  1  0  0  0
 78 80  1  0  0  0
 78 83  1  0  0  0
 78152  1  0  0  0
 79153  1  0  0  0
 80 87  1  0  0  0
 80 88  1  0  0  0
 80154  1  0  0  0
 82155  1  0  0  0
 83156  1  0  0  0
M  ISO  4   1 100  68 101  79 101  83 100
M  END
> <chiral flag>
0

> <version>
0

> <s_m_source_file>
/data/baiqing/PycharmProjects/Reinvent-master-3.2/result/LINK_invent/BTK/process_docking_weight1_custom_product_contain_oxygen_bond_distance_aromatic_linkinvent_7_9_3/rearranged_h_0185.sdf

> <i_m_source_file_index>
74

> <r_mmod_Potential_Energy-OPLS-2005>
-147.83772277832

> <r_mmod_Stretch_Energy-OPLS-2005>
90.3192825317383

> <r_mmod_Bend_Energy-OPLS-2005>
161.099563598633

> <r_mmod_Torsional_Energy-OPLS-2005>
223.071075439453

> <r_mmod_Improper_Torsional_Energy-OPLS-2005>
5.24141550064087

> <r_mmod_Van_der_Waal_Energy-OPLS-2005>
154.919036865234

> <r_mmod_Electrostatic_Energy-OPLS-2005>
-601.432006835938

> <r_mmod_Solvation_Energy-OPLS-2005>
-246.008605957031

> <b_mmod_Minimization_Converged-OPLS-2005>
0

> <r_mmod_RMS_Derivative-OPLS-2005>
2.35551953315735

$$$$
74
                    3D
 Structure written by MMmdl.
153161  0  0  1  0            999 V2000
  -30.5028  -14.9755   20.4103 C   0  0  0  0  0  0
  -30.4477  -12.6041   19.4938 C   0  0  0  0  0  0
  -29.5258  -12.5427   18.2523 C   0  0  0  0  0  0
  -28.0563  -12.3264   18.6658 C   0  0  0  0  0  0
  -27.6308  -13.2480   19.8381 C   0  0  2  0  0  0
  -28.6753  -13.2651   20.9746 C   0  0  0  0  0  0
  -25.2474  -13.8210   20.5713 C   0  0  0  0  0  0
  -24.1794  -13.0431   20.9227 C   0  0  0  0  0  0
  -24.6404  -11.6917   20.8743 C   0  0  0  0  0  0
  -23.9084  -10.4291   21.0389 C   0  0  0  0  0  0
  -24.3624   -9.4209   21.9174 C   0  0  0  0  0  0
  -23.6297   -8.2242   22.0744 C   0  0  0  0  0  0
  -22.4277   -8.0280   21.3544 C   0  0  0  0  0  0
  -21.9914   -9.0255   20.4645 C   0  0  0  0  0  0
  -22.7245  -10.2131   20.3048 C   0  0  0  0  0  0
  -21.6855   -6.0731   22.5279 C   0  0  0  0  0  0
  -21.4020   -6.5629   23.8216 C   0  0  0  0  0  0
  -21.3662   -5.6781   24.9180 C   0  0  0  0  0  0
  -21.6039   -4.3046   24.7226 C   0  0  0  0  0  0
  -21.8819   -3.8141   23.4346 C   0  0  0  0  0  0
  -21.9199   -4.6960   22.3409 C   0  0  0  0  0  0
  -22.7815  -13.5212   21.1884 C   0  0  0  0  0  0
  -22.1664   -4.2149   21.0987 F   0  0  0  0  0  0
  -21.5627   -3.4526   25.7737 F   0  0  0  0  0  0
  -29.9478  -13.6951   20.3788 N   0  0  0  0  0  0
  -26.2890  -12.9446   20.3222 N   0  0  0  0  0  0
  -25.9335  -11.6572   20.5697 N   0  0  0  0  0  0
  -22.0460  -12.8197   22.0435 N   0  0  0  0  0  0
  -25.4108  -15.1946   20.4133 N   0  0  0  0  0  0
  -31.7048  -15.0776   20.1389 O   0  0  0  0  0  0
  -21.6640   -6.8873   21.4243 O   0  0  0  0  0  0
  -22.3497  -14.5519   20.6734 O   0  0  0  0  0  0
  -24.6473  -31.8414   23.1857 C   0  0  0  0  0  0
  -25.9237  -32.4675   23.8258 C   0  0  1  0  0  0
  -27.2157  -27.1040   20.1551 C   0  0  0  0  0  0
  -25.5987  -33.8483   24.2194 N   0  0  0  0  0  0
  -23.4525  -30.4601   21.5309 C   0  0  2  0  0  0
  -24.9039  -28.8841   20.1071 C   0  0  0  0  0  0
  -22.7601  -29.4527   22.4835 C   0  0  0  0  0  0
  -18.0313  -28.1392   22.8470 C   0  0  0  0  0  0
  -24.1494  -36.7243   23.2635 C   0  0  0  0  0  0
  -26.0102  -30.7053   21.3902 C   0  0  0  0  0  0
  -26.0811  -29.3129   20.7332 C   0  0  0  0  0  0
  -27.2368  -28.4376   20.7437 C   0  0  0  0  0  0
  -26.0145  -26.7924   19.4784 C   0  0  0  0  0  0
  -24.8855  -27.6392   19.4636 C   0  0  0  0  0  0
  -23.6826  -29.7901   20.1495 C   0  0  0  0  0  0
  -25.4118  -36.3016   24.0316 C   0  0  1  0  0  0
  -20.5933  -28.3721   23.1225 C   0  0  2  0  0  0
  -20.6789  -26.9420   22.5400 C   0  0  0  0  0  0
  -19.5765  -26.6379   21.5206 C   0  0  0  0  0  0
  -18.1948  -26.7925   22.1622 C   0  0  0  0  0  0
  -19.1574  -28.8878   23.2838 C   0  0  0  0  0  0
  -18.9484  -30.1470   23.8866 C   0  0  0  0  0  0
  -17.6479  -30.6585   24.0552 C   0  0  0  0  0  0
  -25.9073  -34.9392   23.5056 C   0  0  0  0  0  0
  -16.5371  -29.9073   23.6331 C   0  0  0  0  0  0
  -16.7297  -28.6494   23.0346 C   0  0  0  0  0  0
  -26.4548  -31.6535   25.0702 C   0  0  0  0  0  0
  -25.3733  -31.3742   26.1401 C   0  0  0  0  0  0
  -27.0404  -30.2919   24.6297 C   0  0  0  0  0  0
  -27.6088  -32.4289   25.7493 C   0  0  0  0  0  0
  -27.5582  -37.1770   24.8457 C   0  0  0  0  0  0
  -21.4290  -29.3043   22.3602 N   0  0  0  0  0  0
  -26.4275  -37.3739   23.9425 N   0  0  0  0  0  0
  -24.7230  -31.0238   22.0911 N   0  0  0  0  0  0
  -23.4227  -28.8074   23.2998 O   0  0  0  0  0  0
  -28.2417  -26.0817   20.2424 O   0  0  0  0  0  0
  -26.5653  -34.8899   22.4631 O   0  0  0  0  0  0
  -23.5588  -32.1321   23.7060 O   0  0  0  0  0  0
  -30.7879  -18.4418   20.3535 C   0  0  0  0  0  0
  -29.7217  -17.5494   20.4396 C   0  0  0  0  0  0
  -29.2041  -20.2630   20.2322 C   0  0  0  0  0  0
  -28.8282  -23.2420   20.3670 C   0  0  0  0  0  0
  -27.9078  -24.5765   19.9401 C   0  0  0  0  0  0
  -28.7352  -21.8050   18.2016 C   0  0  0  0  0  0
  -28.5609  -21.7147   19.7387 C   0  0  1  0  0  0
  -28.0314  -20.7058   17.3851 C   0  0  2  0  0  0
  -30.5029  -19.8561   20.2317 N   0  0  0  0  0  0
  -32.1143  -18.0282   20.3600 N   0  0  0  0  0  0
  -29.6436  -16.1061   20.5431 N   0  0  0  0  0  0
  -29.7302  -23.3935   21.1979 O   0  0  0  0  0  0
  -28.3362  -20.8461   16.0953 F   0  0  0  0  0  0
  -28.2803  -18.6742   20.4130 S   0  0  0  0  0  0
  -26.2607  -20.8134   17.5611 Cl  0  0  0  0  0  0
  -31.4792  -12.7761   19.1822 H   0  0  0  0  0  0
  -30.4481  -11.6491   20.0213 H   0  0  0  0  0  0
  -29.8463  -11.7488   17.5760 H   0  0  0  0  0  0
  -29.6140  -13.4747   17.6908 H   0  0  0  0  0  0
  -27.9427  -11.2819   18.9579 H   0  0  0  0  0  0
  -27.3996  -12.4766   17.8079 H   0  0  0  0  0  0
  -27.5939  -14.2524   19.4155 H   0  0  0  0  0  0
  -28.7687  -12.2808   21.4356 H   0  0  0  0  0  0
  -28.3704  -13.9496   21.7683 H   0  0  0  0  0  0
  -25.2757   -9.5682   22.4761 H   0  0  0  0  0  0
  -24.0003   -7.4624   22.7449 H   0  0  0  0  0  0
  -21.0845   -8.8771   19.8946 H   0  0  0  0  0  0
  -22.3693  -10.9670   19.6159 H   0  0  0  0  0  0
  -21.2011   -7.6137   23.9716 H   0  0  0  0  0  0
  -21.1482   -6.0514   25.9081 H   0  0  0  0  0  0
  -22.0598   -2.7602   23.2851 H   0  0  0  0  0  0
  -22.4067  -11.9859   22.4835 H   0  0  0  0  0  0
  -21.1069  -13.1219   22.2626 H   0  0  0  0  0  0
  -24.6312  -15.8340   20.5223 H   0  0  0  0  0  0
  -26.2323  -15.6391   20.0267 H   0  0  0  0  0  0
  -26.7306  -32.5287   23.0988 H   0  0  0  0  0  0
  -25.0131  -33.9588   25.0345 H   0  0  0  0  0  0
  -22.7553  -31.2861   21.3741 H   0  0  0  0  0  0
  -23.3765  -35.9564   23.3253 H   0  0  0  0  0  0
  -24.3595  -36.8920   22.2061 H   0  0  0  0  0  0
  -23.7240  -37.6423   23.6695 H   0  0  0  0  0  0
  -26.1672  -31.4586   20.6165 H   0  0  0  0  0  0
  -26.8800  -30.7603   22.0331 H   0  0  0  0  0  0
  -28.1270  -28.7537   21.2693 H   0  0  0  0  0  0
  -25.9043  -25.8450   18.9713 H   0  0  0  0  0  0
  -23.9891  -27.3094   18.9566 H   0  0  0  0  0  0
  -23.8254  -30.5650   19.3955 H   0  0  0  0  0  0
  -22.7974  -29.2353   19.8341 H   0  0  0  0  0  0
  -25.1302  -36.1822   25.0805 H   0  0  0  0  0  0
  -21.0018  -28.3301   24.1350 H   0  0  0  0  0  0
  -20.5662  -26.2338   23.3621 H   0  0  0  0  0  0
  -21.6653  -26.7402   22.1216 H   0  0  0  0  0  0
  -19.6913  -25.6284   21.1252 H   0  0  0  0  0  0
  -19.6689  -27.3173   20.6723 H   0  0  0  0  0  0
  -17.4212  -26.6675   21.4027 H   0  0  0  0  0  0
  -18.0340  -26.0079   22.9032 H   0  0  0  0  0  0
  -19.7959  -30.7297   24.2221 H   0  0  0  0  0  0
  -17.5026  -31.6256   24.5166 H   0  0  0  0  0  0
  -15.5366  -30.2954   23.7664 H   0  0  0  0  0  0
  -15.8704  -28.0795   22.7066 H   0  0  0  0  0  0
  -24.5926  -30.7066   25.7738 H   0  0  0  0  0  0
  -24.8907  -32.2929   26.4744 H   0  0  0  0  0  0
  -25.8023  -30.8985   27.0230 H   0  0  0  0  0  0
  -26.3017  -29.6642   24.1298 H   0  0  0  0  0  0
  -27.3998  -29.7218   25.4876 H   0  0  0  0  0  0
  -27.8940  -30.4138   23.9628 H   0  0  0  0  0  0
  -27.2694  -33.3620   26.2007 H   0  0  0  0  0  0
  -28.3938  -32.6795   25.0344 H   0  0  0  0  0  0
  -28.0705  -31.8446   26.5467 H   0  0  0  0  0  0
  -28.2544  -38.0119   24.7550 H   0  0  0  0  0  0
  -28.1136  -36.2652   24.6205 H   0  0  0  0  0  0
  -27.2320  -37.1318   25.8863 H   0  0  0  0  0  0
  -20.9505  -29.8782   21.6805 H   0  0  0  0  0  0
  -26.0131  -38.2801   24.1447 H   0  0  0  0  0  0
  -26.9314  -24.3852   20.3864 H   0  0  0  0  0  0
  -27.7473  -24.5176   18.8652 H   0  0  0  0  0  0
  -29.8030  -21.7611   17.9841 H   0  0  0  0  0  0
  -28.4005  -22.7662   17.8154 H   0  0  0  0  0  0
  -27.4922  -21.5997   19.9175 H   0  0  0  0  0  0
  -28.3438  -19.7001   17.6689 H   0  0  0  0  0  0
  -32.2786  -17.0320   20.2157 H   0  0  0  0  0  0
  -32.8114  -18.6355   19.9464 H   0  0  0  0  0  0
  -28.6991  -15.7955   20.6999 H   0  0  0  0  0  0
  1 25  1  0  0  0
  1 30  2  0  0  0
  1 81  1  0  0  0
  2  3  1  0  0  0
  2 25  1  0  0  0
  2 86  1  0  0  0
  2 87  1  0  0  0
  3  4  1  0  0  0
  3 88  1  0  0  0
  3 89  1  0  0  0
  4  5  1  0  0  0
  4 90  1  0  0  0
  4 91  1  0  0  0
  5  6  1  0  0  0
  5 26  1  0  0  0
  5 92  1  0  0  0
  6 25  1  0  0  0
  6 93  1  0  0  0
  6 94  1  0  0  0
  7  8  2  0  0  0
  7 26  1  0  0  0
  7 29  1  0  0  0
  8  9  1  0  0  0
  8 22  1  0  0  0
  9 10  1  0  0  0
  9 27  2  0  0  0
 10 11  2  0  0  0
 10 15  1  0  0  0
 11 12  1  0  0  0
 11 95  1  0  0  0
 12 13  2  0  0  0
 12 96  1  0  0  0
 13 14  1  0  0  0
 13 31  1  0  0  0
 14 15  2  0  0  0
 14 97  1  0  0  0
 15 98  1  0  0  0
 16 17  2  0  0  0
 16 21  1  0  0  0
 16 31  1  0  0  0
 17 18  1  0  0  0
 17 99  1  0  0  0
 18 19  2  0  0  0
 18100  1  0  0  0
 19 20  1  0  0  0
 19 24  1  0  0  0
 20 21  2  0  0  0
 20101  1  0  0  0
 21 23  1  0  0  0
 22 28  1  0  0  0
 22 32  2  0  0  0
 26 27  1  0  0  0
 28102  1  0  0  0
 28103  1  0  0  0
 29104  1  0  0  0
 29105  1  0  0  0
 33 34  1  0  0  0
 33 66  1  0  0  0
 33 70  2  0  0  0
 34 36  1  0  0  0
 34 59  1  0  0  0
 34106  1  0  0  0
 35 44  2  0  0  0
 35 45  1  0  0  0
 35 68  1  0  0  0
 36 56  1  0  0  0
 36107  1  0  0  0
 37 39  1  0  0  0
 37 47  1  0  0  0
 37 66  1  0  0  0
 37108  1  0  0  0
 38 43  2  0  0  0
 38 46  1  0  0  0
 38 47  1  0  0  0
 39 64  1  0  0  0
 39 67  2  0  0  0
 40 52  1  0  0  0
 40 53  2  0  0  0
 40 58  1  0  0  0
 41109  1  0  0  0
 41110  1  0  0  0
 41111  1  0  0  0
 41 48  1  0  0  0
 42 43  1  0  0  0
 42 66  1  0  0  0
 42112  1  0  0  0
 42113  1  0  0  0
 43 44  1  0  0  0
 44114  1  0  0  0
 45 46  2  0  0  0
 45115  1  0  0  0
 46116  1  0  0  0
 47117  1  0  0  0
 47118  1  0  0  0
 48 56  1  0  0  0
 48 65  1  0  0  0
 48119  1  0  0  0
 49 50  1  0  0  0
 49 53  1  0  0  0
 49 64  1  0  0  0
 49120  1  0  0  0
 50 51  1  0  0  0
 50121  1  0  0  0
 50122  1  0  0  0
 51 52  1  0  0  0
 51123  1  0  0  0
 51124  1  0  0  0
 52125  1  0  0  0
 52126  1  0  0  0
 53 54  1  0  0  0
 54 55  2  0  0  0
 54127  1  0  0  0
 55 57  1  0  0  0
 55128  1  0  0  0
 56 69  2  0  0  0
 57 58  2  0  0  0
 57129  1  0  0  0
 58130  1  0  0  0
 59 60  1  0  0  0
 59 61  1  0  0  0
 59 62  1  0  0  0
 60131  1  0  0  0
 60132  1  0  0  0
 60133  1  0  0  0
 61134  1  0  0  0
 61135  1  0  0  0
 61136  1  0  0  0
 62137  1  0  0  0
 62138  1  0  0  0
 62139  1  0  0  0
 63 65  1  0  0  0
 63140  1  0  0  0
 63141  1  0  0  0
 63142  1  0  0  0
 64143  1  0  0  0
 65144  1  0  0  0
 68 75  1  0  0  0
 71 72  2  0  0  0
 71 79  1  0  0  0
 71 80  1  0  0  0
 72 81  1  0  0  0
 72 84  1  0  0  0
 73 77  1  0  0  0
 73 79  2  0  0  0
 73 84  1  0  0  0
 74 75  1  0  0  0
 74 77  1  0  0  0
 74 82  2  0  0  0
 75145  1  0  0  0
 75146  1  0  0  0
 76 78  1  0  0  0
 76147  1  0  0  0
 76148  1  0  0  0
 76 77  1  0  0  0
 77149  1  0  0  0
 78 83  1  0  0  0
 78 85  1  0  0  0
 78150  1  0  0  0
 80151  1  0  0  0
 80152  1  0  0  0
 81153  1  0  0  0
M  ISO  4   1 100  68 101  75 101  81 100
M  END
> <chiral flag>
0

> <version>
0

> <s_m_source_file>
/data/baiqing/PycharmProjects/Reinvent-master-3.2/result/LINK_invent/BTK/process_docking_weight1_custom_product_contain_oxygen_bond_distance_aromatic_linkinvent_7_9_3/rearranged_h_0185.sdf

> <i_m_source_file_index>
75

> <r_mmod_Potential_Energy-OPLS-2005>
319.703399658203

> <r_mmod_Stretch_Energy-OPLS-2005>
263.564025878906

> <r_mmod_Bend_Energy-OPLS-2005>
300.807922363281

> <r_mmod_Torsional_Energy-OPLS-2005>
210.870071411133

> <r_mmod_Improper_Torsional_Energy-OPLS-2005>
10.4076452255249

> <r_mmod_Van_der_Waal_Energy-OPLS-2005>
106.768592834473

> <r_mmod_Electrostatic_Energy-OPLS-2005>
-543.053588867188

> <r_mmod_Solvation_Energy-OPLS-2005>
-251.232955932617

> <b_mmod_Minimization_Converged-OPLS-2005>
0

> <r_mmod_RMS_Derivative-OPLS-2005>
1.86131846904755

$$$$
75
                    3D
 Structure written by MMmdl.
157165  0  0  1  0            999 V2000
  -30.6661  -14.5331   20.5216 C   0  0  0  0  0  0
  -30.4159  -12.3216   19.4514 C   0  0  0  0  0  0
  -29.5031  -12.4995   18.2196 C   0  0  0  0  0  0
  -28.0226  -12.3499   18.6268 C   0  0  0  0  0  0
  -27.6558  -13.2107   19.8668 C   0  0  2  0  0  0
  -28.6924  -13.0402   20.9985 C   0  0  0  0  0  0
  -25.2619  -13.8152   20.5729 C   0  0  0  0  0  0
  -24.1863  -13.0429   20.9200 C   0  0  0  0  0  0
  -24.6402  -11.6906   20.8721 C   0  0  0  0  0  0
  -23.9059  -10.4295   21.0374 C   0  0  0  0  0  0
  -24.3614   -9.4212   21.9156 C   0  0  0  0  0  0
  -23.6294   -8.2250   22.0737 C   0  0  0  0  0  0
  -22.4269   -8.0282   21.3538 C   0  0  0  0  0  0
  -21.9897   -9.0253   20.4633 C   0  0  0  0  0  0
  -22.7229  -10.2134   20.3031 C   0  0  0  0  0  0
  -21.6848   -6.0746   22.5293 C   0  0  0  0  0  0
  -21.4008   -6.5647   23.8226 C   0  0  0  0  0  0
  -21.3659   -5.6800   24.9196 C   0  0  0  0  0  0
  -21.6058   -4.3063   24.7241 C   0  0  0  0  0  0
  -21.8813   -3.8148   23.4359 C   0  0  0  0  0  0
  -21.9191   -4.6972   22.3418 C   0  0  0  0  0  0
  -22.7900  -13.5227   21.1904 C   0  0  0  0  0  0
  -22.1655   -4.2148   21.0994 F   0  0  0  0  0  0
  -21.5646   -3.4551   25.7757 F   0  0  0  0  0  0
  -30.0157  -13.3401   20.4379 N   0  0  0  0  0  0
  -26.3007  -12.9320   20.3332 N   0  0  0  0  0  0
  -25.9325  -11.6469   20.5735 N   0  0  0  0  0  0
  -22.0555  -12.8177   22.0429 N   0  0  0  0  0  0
  -25.4422  -15.1881   20.4251 N   0  0  0  0  0  0
  -31.8191  -14.6819   20.1060 O   0  0  0  0  0  0
  -21.6634   -6.8882   21.4248 O   0  0  0  0  0  0
  -22.3604  -14.5570   20.6817 O   0  0  0  0  0  0
  -24.6182  -31.8672   23.2080 C   0  0  0  0  0  0
  -25.9049  -32.4811   23.8401 C   0  0  1  0  0  0
  -27.2287  -27.4049   20.1122 C   0  0  0  0  0  0
  -25.5887  -33.8608   24.2321 N   0  0  0  0  0  0
  -23.4078  -30.4904   21.5477 C   0  0  2  0  0  0
  -24.8561  -28.9542   20.1123 C   0  0  0  0  0  0
  -22.7432  -29.4685   22.4987 C   0  0  0  0  0  0
  -18.0276  -28.1387   22.8524 C   0  0  0  0  0  0
  -24.1486  -36.7312   23.2642 C   0  0  0  0  0  0
  -25.9404  -30.8292   21.3629 C   0  0  0  0  0  0
  -26.0194  -29.4618   20.7072 C   0  0  0  0  0  0
  -27.2146  -28.6975   20.6964 C   0  0  0  0  0  0
  -26.0523  -26.9241   19.5004 C   0  0  0  0  0  0
  -24.8696  -27.6882   19.5009 C   0  0  0  0  0  0
  -23.6172  -29.8205   20.1637 C   0  0  0  0  0  0
  -25.4104  -36.3105   24.0340 C   0  0  1  0  0  0
  -20.5877  -28.3699   23.1309 C   0  0  2  0  0  0
  -20.6774  -26.9464   22.5351 C   0  0  0  0  0  0
  -19.5722  -26.6454   21.5203 C   0  0  0  0  0  0
  -18.1926  -26.7923   22.1678 C   0  0  0  0  0  0
  -19.1532  -28.8862   23.2921 C   0  0  0  0  0  0
  -18.9460  -30.1465   23.8916 C   0  0  0  0  0  0
  -17.6466  -30.6598   24.0590 C   0  0  0  0  0  0
  -25.9029  -34.9466   23.5131 C   0  0  0  0  0  0
  -16.5351  -29.9086   23.6364 C   0  0  0  0  0  0
  -16.7269  -28.6504   23.0378 C   0  0  0  0  0  0
  -26.4465  -31.6597   25.0736 C   0  0  0  0  0  0
  -25.3732  -31.3692   26.1483 C   0  0  0  0  0  0
  -27.0310  -30.3047   24.6118 C   0  0  0  0  0  0
  -27.6047  -32.4317   25.7493 C   0  0  0  0  0  0
  -27.5578  -37.1820   24.8465 C   0  0  0  0  0  0
  -21.4152  -29.3100   22.3756 N   0  0  0  0  0  0
  -26.4300  -37.3781   23.9394 N   0  0  0  0  0  0
  -24.6727  -31.0778   22.0970 N   0  0  0  0  0  0
  -23.4193  -28.8220   23.3019 O   0  0  0  0  0  0
  -28.3476  -26.5933   20.1481 O   0  0  0  0  0  0
  -26.5597  -34.8923   22.4696 O   0  0  0  0  0  0
  -23.5380  -32.1417   23.7478 O   0  0  0  0  0  0
  -27.3130  -18.6468   21.7970 C   0  0  0  0  0  0
  -29.2617  -18.0769   20.9185 C   0  0  0  0  0  0
  -28.5724  -20.2115   20.8661 C   0  0  0  0  0  0
  -28.6739  -24.0817   20.3679 C   0  0  0  0  0  0
  -26.4770  -22.4374   18.6972 C   0  0  0  0  0  0
  -30.3408  -17.0087   20.6525 C   0  0  0  0  0  0
  -28.1776  -25.4218   20.9947 C   0  0  0  0  0  0
  -26.5413  -22.6890   20.2138 C   0  0  0  0  0  0
  -27.9765  -22.7453   20.8047 C   0  0  1  0  0  0
  -28.1599  -17.6557   21.5309 N   0  0  0  0  0  0
  -27.4565  -19.9393   21.5163 N   0  0  0  0  0  0
  -29.5224  -19.3375   20.5412 N   0  0  0  0  0  0
  -28.7806  -21.5357   20.4801 N   0  0  0  0  0  0
  -29.9300  -15.6056   20.8775 N   0  0  0  0  0  0
  -29.6120  -24.0815   19.5630 O   0  0  0  0  0  0
  -31.4692  -12.3987   19.1728 H   0  0  0  0  0  0
  -30.2933  -11.3245   19.8773 H   0  0  0  0  0  0
  -29.7556  -11.7715   17.4483 H   0  0  0  0  0  0
  -29.6660  -13.4853   17.7782 H   0  0  0  0  0  0
  -27.8488  -11.2949   18.8436 H   0  0  0  0  0  0
  -27.3700  -12.5998   17.7882 H   0  0  0  0  0  0
  -27.6834  -14.2511   19.5416 H   0  0  0  0  0  0
  -28.6746  -12.0202   21.3858 H   0  0  0  0  0  0
  -28.4574  -13.6850   21.8475 H   0  0  0  0  0  0
  -25.2765   -9.5711   22.4714 H   0  0  0  0  0  0
  -24.0022   -7.4644   22.7445 H   0  0  0  0  0  0
  -21.0835   -8.8761   19.8929 H   0  0  0  0  0  0
  -22.3680  -10.9663   19.6126 H   0  0  0  0  0  0
  -21.1979   -7.6150   23.9729 H   0  0  0  0  0  0
  -21.1489   -6.0537   25.9103 H   0  0  0  0  0  0
  -22.0582   -2.7608   23.2869 H   0  0  0  0  0  0
  -22.4147  -11.9761   22.4686 H   0  0  0  0  0  0
  -21.1201  -13.1217   22.2711 H   0  0  0  0  0  0
  -24.6879  -15.8501   20.5671 H   0  0  0  0  0  0
  -26.3230  -15.6236   20.1801 H   0  0  0  0  0  0
  -26.7118  -32.5507   23.1183 H   0  0  0  0  0  0
  -24.9993  -33.9740   25.0435 H   0  0  0  0  0  0
  -22.6951  -31.3048   21.4055 H   0  0  0  0  0  0
  -23.3739  -35.9664   23.3338 H   0  0  0  0  0  0
  -24.3568  -36.8902   22.2051 H   0  0  0  0  0  0
  -23.7262  -37.6534   23.6637 H   0  0  0  0  0  0
  -26.0577  -31.5985   20.5974 H   0  0  0  0  0  0
  -26.8262  -30.8797   21.9862 H   0  0  0  0  0  0
  -28.1143  -29.0851   21.1540 H   0  0  0  0  0  0
  -26.0452  -25.9480   19.0354 H   0  0  0  0  0  0
  -23.9741  -27.2940   19.0413 H   0  0  0  0  0  0
  -23.7237  -30.5922   19.4009 H   0  0  0  0  0  0
  -22.7425  -29.2368   19.8711 H   0  0  0  0  0  0
  -25.1300  -36.1980   25.0842 H   0  0  0  0  0  0
  -20.9993  -28.3211   24.1415 H   0  0  0  0  0  0
  -21.6635  -26.7605   22.1053 H   0  0  0  0  0  0
  -20.5786  -26.2280   23.3511 H   0  0  0  0  0  0
  -19.6888  -25.6412   21.1138 H   0  0  0  0  0  0
  -19.6627  -27.3335   20.6784 H   0  0  0  0  0  0
  -18.0398  -26.0071   22.9077 H   0  0  0  0  0  0
  -17.4154  -26.6578   21.4155 H   0  0  0  0  0  0
  -19.7944  -30.7285   24.2257 H   0  0  0  0  0  0
  -17.5039  -31.6280   24.5186 H   0  0  0  0  0  0
  -15.5367  -30.3005   23.7653 H   0  0  0  0  0  0
  -15.8653  -28.0822   22.7097 H   0  0  0  0  0  0
  -24.5893  -30.7056   25.7803 H   0  0  0  0  0  0
  -24.8948  -32.2853   26.4968 H   0  0  0  0  0  0
  -25.8096  -30.8820   27.0216 H   0  0  0  0  0  0
  -26.2862  -29.6803   24.1176 H   0  0  0  0  0  0
  -27.4072  -29.7279   25.4576 H   0  0  0  0  0  0
  -27.8693  -30.4363   23.9272 H   0  0  0  0  0  0
  -27.2656  -33.3596   26.2113 H   0  0  0  0  0  0
  -28.3834  -32.6924   25.0306 H   0  0  0  0  0  0
  -28.0744  -31.8420   26.5384 H   0  0  0  0  0  0
  -28.2637  -38.0079   24.7480 H   0  0  0  0  0  0
  -28.1039  -36.2617   24.6350 H   0  0  0  0  0  0
  -27.2278  -37.1536   25.8863 H   0  0  0  0  0  0
  -20.9307  -29.8791   21.6965 H   0  0  0  0  0  0
  -26.0201  -38.2875   24.1364 H   0  0  0  0  0  0
  -26.4008  -18.3717   22.3082 H   0  0  0  0  0  0
  -27.0814  -23.1498   18.1338 H   0  0  0  0  0  0
  -25.4509  -22.5199   18.3367 H   0  0  0  0  0  0
  -26.8216  -21.4334   18.4483 H   0  0  0  0  0  0
  -31.2077  -17.2360   21.2756 H   0  0  0  0  0  0
  -30.6752  -17.1117   19.6176 H   0  0  0  0  0  0
  -28.7503  -25.5951   21.9062 H   0  0  0  0  0  0
  -27.1441  -25.3135   21.3179 H   0  0  0  0  0  0
  -25.9491  -21.9336   20.7296 H   0  0  0  0  0  0
  -26.0202  -23.6224   20.4293 H   0  0  0  0  0  0
  -27.8788  -22.7768   21.8909 H   0  0  0  0  0  0
  -29.6531  -21.7192   19.9962 H   0  0  0  0  0  0
  -28.9802  -15.4926   21.2014 H   0  0  0  0  0  0
  1 25  1  0  0  0
  1 30  2  0  0  0
  1 84  1  0  0  0
  2  3  1  0  0  0
  2 25  1  0  0  0
  2 86  1  0  0  0
  2 87  1  0  0  0
  3  4  1  0  0  0
  3 88  1  0  0  0
  3 89  1  0  0  0
  4  5  1  0  0  0
  4 90  1  0  0  0
  4 91  1  0  0  0
  5  6  1  0  0  0
  5 26  1  0  0  0
  5 92  1  0  0  0
  6 25  1  0  0  0
  6 93  1  0  0  0
  6 94  1  0  0  0
  7  8  2  0  0  0
  7 26  1  0  0  0
  7 29  1  0  0  0
  8  9  1  0  0  0
  8 22  1  0  0  0
  9 10  1  0  0  0
  9 27  2  0  0  0
 10 11  2  0  0  0
 10 15  1  0  0  0
 11 12  1  0  0  0
 11 95  1  0  0  0
 12 13  2  0  0  0
 12 96  1  0  0  0
 13 14  1  0  0  0
 13 31  1  0  0  0
 14 15  2  0  0  0
 14 97  1  0  0  0
 15 98  1  0  0  0
 16 17  2  0  0  0
 16 21  1  0  0  0
 16 31  1  0  0  0
 17 18  1  0  0  0
 17 99  1  0  0  0
 18 19  2  0  0  0
 18100  1  0  0  0
 19 20  1  0  0  0
 19 24  1  0  0  0
 20 21  2  0  0  0
 20101  1  0  0  0
 21 23  1  0  0  0
 22 28  1  0  0  0
 22 32  2  0  0  0
 26 27  1  0  0  0
 28102  1  0  0  0
 28103  1  0  0  0
 29104  1  0  0  0
 29105  1  0  0  0
 33 34  1  0  0  0
 33 66  1  0  0  0
 33 70  2  0  0  0
 34 36  1  0  0  0
 34 59  1  0  0  0
 34106  1  0  0  0
 35 44  2  0  0  0
 35 45  1  0  0  0
 35 68  1  0  0  0
 36 56  1  0  0  0
 36107  1  0  0  0
 37 39  1  0  0  0
 37 47  1  0  0  0
 37 66  1  0  0  0
 37108  1  0  0  0
 38 43  2  0  0  0
 38 46  1  0  0  0
 38 47  1  0  0  0
 39 64  1  0  0  0
 39 67  2  0  0  0
 40 52  1  0  0  0
 40 53  2  0  0  0
 40 58  1  0  0  0
 41109  1  0  0  0
 41110  1  0  0  0
 41111  1  0  0  0
 41 48  1  0  0  0
 42 43  1  0  0  0
 42 66  1  0  0  0
 42112  1  0  0  0
 42113  1  0  0  0
 43 44  1  0  0  0
 44114  1  0  0  0
 45 46  2  0  0  0
 45115  1  0  0  0
 46116  1  0  0  0
 47117  1  0  0  0
 47118  1  0  0  0
 48 56  1  0  0  0
 48 65  1  0  0  0
 48119  1  0  0  0
 49 50  1  0  0  0
 49 53  1  0  0  0
 49 64  1  0  0  0
 49120  1  0  0  0
 50 51  1  0  0  0
 50121  1  0  0  0
 50122  1  0  0  0
 51 52  1  0  0  0
 51123  1  0  0  0
 51124  1  0  0  0
 52125  1  0  0  0
 52126  1  0  0  0
 53 54  1  0  0  0
 54 55  2  0  0  0
 54127  1  0  0  0
 55 57  1  0  0  0
 55128  1  0  0  0
 56 69  2  0  0  0
 57 58  2  0  0  0
 57129  1  0  0  0
 58130  1  0  0  0
 59 60  1  0  0  0
 59 61  1  0  0  0
 59 62  1  0  0  0
 60131  1  0  0  0
 60132  1  0  0  0
 60133  1  0  0  0
 61134  1  0  0  0
 61135  1  0  0  0
 61136  1  0  0  0
 62137  1  0  0  0
 62138  1  0  0  0
 62139  1  0  0  0
 63 65  1  0  0  0
 63140  1  0  0  0
 63141  1  0  0  0
 63142  1  0  0  0
 64143  1  0  0  0
 65144  1  0  0  0
 68 77  1  0  0  0
 71 80  2  0  0  0
 71 81  1  0  0  0
 71145  1  0  0  0
 72 76  1  0  0  0
 72 80  1  0  0  0
 72 82  2  0  0  0
 73 81  2  0  0  0
 73 82  1  0  0  0
 73 83  1  0  0  0
 74 77  1  0  0  0
 74 79  1  0  0  0
 74 85  2  0  0  0
 75 78  1  0  0  0
 75146  1  0  0  0
 75147  1  0  0  0
 75148  1  0  0  0
 76 84  1  0  0  0
 76149  1  0  0  0
 76150  1  0  0  0
 77151  1  0  0  0
 77152  1  0  0  0
 78153  1  0  0  0
 78154  1  0  0  0
 78 79  1  0  0  0
 79 83  1  0  0  0
 79155  1  0  0  0
 83156  1  0  0  0
 84157  1  0  0  0
M  ISO  4   1 100  68 101  77 101  84 100
M  END
> <chiral flag>
0

> <version>
0

> <s_m_source_file>
/data/baiqing/PycharmProjects/Reinvent-master-3.2/result/LINK_invent/BTK/process_docking_weight1_custom_product_contain_oxygen_bond_distance_aromatic_linkinvent_7_9_3/rearranged_h_0185.sdf

> <i_m_source_file_index>
76

> <r_mmod_Potential_Energy-OPLS-2005>
-1036.50402832031

> <r_mmod_Stretch_Energy-OPLS-2005>
45.8831481933594

> <r_mmod_Bend_Energy-OPLS-2005>
107.054946899414

> <r_mmod_Torsional_Energy-OPLS-2005>
218.985626220703

> <r_mmod_Improper_Torsional_Energy-OPLS-2005>
5.03599834442139

> <r_mmod_Van_der_Waal_Energy-OPLS-2005>
167.678070068359

> <r_mmod_Electrostatic_Energy-OPLS-2005>
-1366.98156738281

> <r_mmod_Solvation_Energy-OPLS-2005>
-237.040130615234

> <b_mmod_Minimization_Converged-OPLS-2005>
0

> <r_mmod_RMS_Derivative-OPLS-2005>
3.61669135093689

$$$$
76
                    3D
 Structure written by MMmdl.
152160  0  0  1  0            999 V2000
  -30.5866  -14.7560   20.4457 C   0  0  0  0  0  0
  -30.4476  -12.4613   19.4439 C   0  0  0  0  0  0
  -29.5081  -12.4843   18.2195 C   0  0  0  0  0  0
  -28.0347  -12.3153   18.6485 C   0  0  0  0  0  0
  -27.6418  -13.2269   19.8413 C   0  0  2  0  0  0
  -28.6963  -13.1624   20.9660 C   0  0  0  0  0  0
  -25.2537  -13.8186   20.5718 C   0  0  0  0  0  0
  -24.1838  -13.0443   20.9233 C   0  0  0  0  0  0
  -24.6427  -11.6912   20.8791 C   0  0  0  0  0  0
  -23.9105  -10.4301   21.0444 C   0  0  0  0  0  0
  -24.3646   -9.4199   21.9210 C   0  0  0  0  0  0
  -23.6297   -8.2246   22.0767 C   0  0  0  0  0  0
  -22.4273   -8.0313   21.3562 C   0  0  0  0  0  0
  -21.9928   -9.0300   20.4673 C   0  0  0  0  0  0
  -22.7280  -10.2161   20.3086 C   0  0  0  0  0  0
  -21.6841   -6.0758   22.5293 C   0  0  0  0  0  0
  -21.4014   -6.5654   23.8234 C   0  0  0  0  0  0
  -21.3647   -5.6800   24.9194 C   0  0  0  0  0  0
  -21.6044   -4.3066   24.7228 C   0  0  0  0  0  0
  -21.8806   -3.8168   23.4343 C   0  0  0  0  0  0
  -21.9188   -4.6991   22.3412 C   0  0  0  0  0  0
  -22.7852  -13.5224   21.1887 C   0  0  0  0  0  0
  -22.1653   -4.2178   21.0978 F   0  0  0  0  0  0
  -21.5627   -3.4540   25.7734 F   0  0  0  0  0  0
  -29.9864  -13.5211   20.3650 N   0  0  0  0  0  0
  -26.2972  -12.9395   20.3309 N   0  0  0  0  0  0
  -25.9362  -11.6546   20.5804 N   0  0  0  0  0  0
  -22.0471  -12.8268   22.0446 N   0  0  0  0  0  0
  -25.4181  -15.1934   20.4133 N   0  0  0  0  0  0
  -31.7971  -14.8725   20.2303 O   0  0  0  0  0  0
  -21.6626   -6.8917   21.4254 O   0  0  0  0  0  0
  -22.3560  -14.5535   20.6718 O   0  0  0  0  0  0
  -24.6324  -31.8554   23.1966 C   0  0  0  0  0  0
  -25.9138  -32.4773   23.8335 C   0  0  1  0  0  0
  -27.2230  -27.2623   20.1228 C   0  0  0  0  0  0
  -25.5911  -33.8555   24.2225 N   0  0  0  0  0  0
  -23.4275  -30.4753   21.5419 C   0  0  2  0  0  0
  -24.8752  -28.9169   20.1102 C   0  0  0  0  0  0
  -22.7495  -29.4574   22.4904 C   0  0  0  0  0  0
  -18.0276  -28.1381   22.8448 C   0  0  0  0  0  0
  -24.1469  -36.7326   23.2635 C   0  0  0  0  0  0
  -25.9701  -30.7745   21.3633 C   0  0  0  0  0  0
  -26.0485  -29.3907   20.7121 C   0  0  0  0  0  0
  -27.2284  -28.5788   20.6999 C   0  0  0  0  0  0
  -26.0230  -26.8458   19.5081 C   0  0  0  0  0  0
  -24.8666  -27.6512   19.5008 C   0  0  0  0  0  0
  -23.6475  -29.8085   20.1571 C   0  0  0  0  0  0
  -25.4099  -36.3063   24.0304 C   0  0  1  0  0  0
  -20.5879  -28.3695   23.1220 C   0  0  2  0  0  0
  -20.6753  -26.9415   22.5388 C   0  0  0  0  0  0
  -19.5748  -26.6372   21.5175 C   0  0  0  0  0  0
  -18.1919  -26.7917   22.1587 C   0  0  0  0  0  0
  -19.1533  -28.8846   23.2820 C   0  0  0  0  0  0
  -18.9479  -30.1431   23.8870 C   0  0  0  0  0  0
  -17.6490  -30.6584   24.0542 C   0  0  0  0  0  0
  -25.9036  -34.9438   23.5071 C   0  0  0  0  0  0
  -16.5367  -29.9110   23.6305 C   0  0  0  0  0  0
  -16.7260  -28.6518   23.0325 C   0  0  0  0  0  0
  -26.4510  -31.6598   25.0726 C   0  0  0  0  0  0
  -25.3708  -31.3780   26.1440 C   0  0  0  0  0  0
  -27.0358  -30.3012   24.6188 C   0  0  0  0  0  0
  -27.6045  -32.4379   25.7492 C   0  0  0  0  0  0
  -27.5557  -37.1798   24.8454 C   0  0  0  0  0  0
  -21.4206  -29.3072   22.3654 N   0  0  0  0  0  0
  -26.4268  -37.3779   23.9412 N   0  0  0  0  0  0
  -24.6978  -31.0514   22.0930 N   0  0  0  0  0  0
  -23.4195  -28.8091   23.2970 O   0  0  0  0  0  0
  -28.3330  -26.3873   20.1427 O   0  0  0  0  0  0
  -26.5644  -34.8928   22.4667 O   0  0  0  0  0  0
  -23.5469  -32.1347   23.7250 O   0  0  0  0  0  0
  -30.0646  -17.6725   22.1596 C   0  0  0  0  0  0
  -29.8783  -17.2745   20.8392 C   0  0  0  0  0  0
  -29.5327  -19.6358   20.6547 C   0  0  0  0  0  0
  -30.2279  -16.8915   23.3989 C   0  0  0  0  0  0
  -28.9673  -22.1887   20.5780 C   0  0  0  0  0  0
  -30.3757  -17.5975   24.7494 C   0  0  0  0  0  0
  -28.1182  -24.8940   20.1580 C   0  0  0  0  0  0
  -28.8417  -23.5005   19.6615 C   0  0  2  0  0  0
  -29.5466  -18.4183   20.0141 N   0  0  0  0  0  0
  -29.7377  -15.8564   20.4258 N   0  0  0  0  0  0
  -29.2054  -20.9368   20.0240 N   0  0  0  0  0  0
  -30.2187  -15.6583   23.3975 O   0  0  0  0  0  0
  -28.8431  -22.3249   21.7984 O   0  0  0  0  0  0
  -28.2806  -23.1071   18.5095 F   0  0  0  0  0  0
  -29.9813  -19.4311   22.3459 S   0  0  0  0  0  0
  -31.4812  -12.6117   19.1261 H   0  0  0  0  0  0
  -30.4245  -11.4891   19.9364 H   0  0  0  0  0  0
  -29.7829  -11.6922   17.5208 H   0  0  0  0  0  0
  -29.6314  -13.4229   17.6804 H   0  0  0  0  0  0
  -27.8967  -11.2719   18.9335 H   0  0  0  0  0  0
  -27.3685  -12.4880   17.8017 H   0  0  0  0  0  0
  -27.6274  -14.2435   19.4471 H   0  0  0  0  0  0
  -28.7435  -12.1659   21.4064 H   0  0  0  0  0  0
  -28.4429  -13.8470   21.7784 H   0  0  0  0  0  0
  -25.2780   -9.5660   22.4815 H   0  0  0  0  0  0
  -23.9995   -7.4629   22.7492 H   0  0  0  0  0  0
  -21.0855   -8.8865   19.8985 H   0  0  0  0  0  0
  -22.3766  -10.9731   19.6230 H   0  0  0  0  0  0
  -21.2002   -7.6159   23.9757 H   0  0  0  0  0  0
  -21.1477   -6.0520   25.9103 H   0  0  0  0  0  0
  -22.0590   -2.7627   23.2836 H   0  0  0  0  0  0
  -22.3990  -11.9881   22.4827 H   0  0  0  0  0  0
  -21.1150  -13.1433   22.2716 H   0  0  0  0  0  0
  -24.6308  -15.8299   20.4896 H   0  0  0  0  0  0
  -26.2614  -15.6512   20.0922 H   0  0  0  0  0  0
  -26.7218  -32.5447   23.1096 H   0  0  0  0  0  0
  -24.9977  -33.9712   25.0299 H   0  0  0  0  0  0
  -22.7185  -31.2921   21.3899 H   0  0  0  0  0  0
  -23.3700  -35.9679   23.3305 H   0  0  0  0  0  0
  -24.3571  -36.9010   22.2057 H   0  0  0  0  0  0
  -23.7291  -37.6533   23.6708 H   0  0  0  0  0  0
  -26.0793  -31.5287   20.5830 H   0  0  0  0  0  0
  -26.8579  -30.8516   21.9791 H   0  0  0  0  0  0
  -28.1353  -28.9440   21.1646 H   0  0  0  0  0  0
  -25.9617  -25.8790   19.0299 H   0  0  0  0  0  0
  -23.9661  -27.2817   19.0312 H   0  0  0  0  0  0
  -23.7838  -30.5860   19.4054 H   0  0  0  0  0  0
  -22.7630  -29.2506   19.8396 H   0  0  0  0  0  0
  -25.1275  -36.1893   25.0795 H   0  0  0  0  0  0
  -20.9909  -28.3320   24.1358 H   0  0  0  0  0  0
  -20.5593  -26.2357   23.3619 H   0  0  0  0  0  0
  -21.6631  -26.7427   22.1222 H   0  0  0  0  0  0
  -19.6922  -25.6265   21.1272 H   0  0  0  0  0  0
  -19.6689  -27.3103   20.6633 H   0  0  0  0  0  0
  -17.4168  -26.6594   21.4010 H   0  0  0  0  0  0
  -18.0355  -26.0047   22.8981 H   0  0  0  0  0  0
  -19.7965  -30.7180   24.2293 H   0  0  0  0  0  0
  -17.5081  -31.6269   24.5149 H   0  0  0  0  0  0
  -15.5376  -30.3016   23.7657 H   0  0  0  0  0  0
  -15.8642  -28.0849   22.7048 H   0  0  0  0  0  0
  -24.5868  -30.7148   25.7802 H   0  0  0  0  0  0
  -24.8903  -32.2945   26.4827 H   0  0  0  0  0  0
  -25.7997  -30.8995   27.0255 H   0  0  0  0  0  0
  -26.2918  -29.6754   24.1235 H   0  0  0  0  0  0
  -27.4083  -29.7302   25.4721 H   0  0  0  0  0  0
  -27.8774  -30.4331   23.9389 H   0  0  0  0  0  0
  -27.2640  -33.3729   26.1969 H   0  0  0  0  0  0
  -28.3876  -32.6905   25.0330 H   0  0  0  0  0  0
  -28.0663  -31.8585   26.5505 H   0  0  0  0  0  0
  -28.2531  -38.0109   24.7497 H   0  0  0  0  0  0
  -28.1088  -36.2661   24.6257 H   0  0  0  0  0  0
  -27.2304  -37.1430   25.8855 H   0  0  0  0  0  0
  -20.9398  -29.8907   21.6956 H   0  0  0  0  0  0
  -26.0120  -38.2835   24.1459 H   0  0  0  0  0  0
  -31.3646  -18.0413   24.8552 H   0  0  0  0  0  0
  -30.2363  -16.8820   25.5602 H   0  0  0  0  0  0
  -29.6253  -18.3768   24.8772 H   0  0  0  0  0  0
  -28.5356  -25.2107   19.2006 H   0  0  0  0  0  0
  -28.6642  -24.9018   21.1011 H   0  0  0  0  0  0
  -29.8806  -23.7260   19.4039 H   0  0  0  0  0  0
  -28.7954  -15.6081   20.1711 H   0  0  0  0  0  0
  -29.1562  -20.9206   19.0150 H   0  0  0  0  0  0
  1 25  1  0  0  0
  1 30  2  0  0  0
  1 80  1  0  0  0
  2  3  1  0  0  0
  2 25  1  0  0  0
  2 86  1  0  0  0
  2 87  1  0  0  0
  3  4  1  0  0  0
  3 88  1  0  0  0
  3 89  1  0  0  0
  4  5  1  0  0  0
  4 90  1  0  0  0
  4 91  1  0  0  0
  5  6  1  0  0  0
  5 26  1  0  0  0
  5 92  1  0  0  0
  6 25  1  0  0  0
  6 93  1  0  0  0
  6 94  1  0  0  0
  7  8  2  0  0  0
  7 26  1  0  0  0
  7 29  1  0  0  0
  8  9  1  0  0  0
  8 22  1  0  0  0
  9 10  1  0  0  0
  9 27  2  0  0  0
 10 11  2  0  0  0
 10 15  1  0  0  0
 11 12  1  0  0  0
 11 95  1  0  0  0
 12 13  2  0  0  0
 12 96  1  0  0  0
 13 14  1  0  0  0
 13 31  1  0  0  0
 14 15  2  0  0  0
 14 97  1  0  0  0
 15 98  1  0  0  0
 16 17  2  0  0  0
 16 21  1  0  0  0
 16 31  1  0  0  0
 17 18  1  0  0  0
 17 99  1  0  0  0
 18 19  2  0  0  0
 18100  1  0  0  0
 19 20  1  0  0  0
 19 24  1  0  0  0
 20 21  2  0  0  0
 20101  1  0  0  0
 21 23  1  0  0  0
 22 28  1  0  0  0
 22 32  2  0  0  0
 26 27  1  0  0  0
 28102  1  0  0  0
 28103  1  0  0  0
 29104  1  0  0  0
 29105  1  0  0  0
 33 34  1  0  0  0
 33 66  1  0  0  0
 33 70  2  0  0  0
 34 36  1  0  0  0
 34 59  1  0  0  0
 34106  1  0  0  0
 35 44  2  0  0  0
 35 45  1  0  0  0
 35 68  1  0  0  0
 36 56  1  0  0  0
 36107  1  0  0  0
 37 39  1  0  0  0
 37 47  1  0  0  0
 37 66  1  0  0  0
 37108  1  0  0  0
 38 43  2  0  0  0
 38 46  1  0  0  0
 38 47  1  0  0  0
 39 64  1  0  0  0
 39 67  2  0  0  0
 40 52  1  0  0  0
 40 53  2  0  0  0
 40 58  1  0  0  0
 41109  1  0  0  0
 41110  1  0  0  0
 41111  1  0  0  0
 41 48  1  0  0  0
 42 43  1  0  0  0
 42 66  1  0  0  0
 42112  1  0  0  0
 42113  1  0  0  0
 43 44  1  0  0  0
 44114  1  0  0  0
 45 46  2  0  0  0
 45115  1  0  0  0
 46116  1  0  0  0
 47117  1  0  0  0
 47118  1  0  0  0
 48 56  1  0  0  0
 48 65  1  0  0  0
 48119  1  0  0  0
 49 50  1  0  0  0
 49 53  1  0  0  0
 49 64  1  0  0  0
 49120  1  0  0  0
 50 51  1  0  0  0
 50121  1  0  0  0
 50122  1  0  0  0
 51 52  1  0  0  0
 51123  1  0  0  0
 51124  1  0  0  0
 52125  1  0  0  0
 52126  1  0  0  0
 53 54  1  0  0  0
 54 55  2  0  0  0
 54127  1  0  0  0
 55 57  1  0  0  0
 55128  1  0  0  0
 56 69  2  0  0  0
 57 58  2  0  0  0
 57129  1  0  0  0
 58130  1  0  0  0
 59 60  1  0  0  0
 59 61  1  0  0  0
 59 62  1  0  0  0
 60131  1  0  0  0
 60132  1  0  0  0
 60133  1  0  0  0
 61134  1  0  0  0
 61135  1  0  0  0
 61136  1  0  0  0
 62137  1  0  0  0
 62138  1  0  0  0
 62139  1  0  0  0
 63 65  1  0  0  0
 63140  1  0  0  0
 63141  1  0  0  0
 63142  1  0  0  0
 64143  1  0  0  0
 65144  1  0  0  0
 68 77  1  0  0  0
 71 72  2  0  0  0
 71 74  1  0  0  0
 71 85  1  0  0  0
 72 79  1  0  0  0
 72 80  1  0  0  0
 73 79  2  0  0  0
 73 81  1  0  0  0
 73 85  1  0  0  0
 74 76  1  0  0  0
 74 82  2  0  0  0
 75 78  1  0  0  0
 75 81  1  0  0  0
 75 83  2  0  0  0
 76145  1  0  0  0
 76146  1  0  0  0
 76147  1  0  0  0
 77 78  1  0  0  0
 77148  1  0  0  0
 77149  1  0  0  0
 78 84  1  0  0  0
 78150  1  0  0  0
 80151  1  0  0  0
 81152  1  0  0  0
M  ISO  4   1 100  68 101  77 101  80 100
M  END
> <chiral flag>
0

> <version>
0

> <s_m_source_file>
/data/baiqing/PycharmProjects/Reinvent-master-3.2/result/LINK_invent/BTK/process_docking_weight1_custom_product_contain_oxygen_bond_distance_aromatic_linkinvent_7_9_3/rearranged_h_0185.sdf

> <i_m_source_file_index>
77

> <r_mmod_Potential_Energy-OPLS-2005>
300.00146484375

> <r_mmod_Stretch_Energy-OPLS-2005>
122.918701171875

> <r_mmod_Bend_Energy-OPLS-2005>
382.441162109375

> <r_mmod_Torsional_Energy-OPLS-2005>
246.987731933594

> <r_mmod_Improper_Torsional_Energy-OPLS-2005>
11.3099746704102

> <r_mmod_Van_der_Waal_Energy-OPLS-2005>
122.906280517578

> <r_mmod_Electrostatic_Energy-OPLS-2005>
-440.931671142578

> <r_mmod_Solvation_Energy-OPLS-2005>
-234.862152099609

> <b_mmod_Minimization_Converged-OPLS-2005>
0

> <r_mmod_RMS_Derivative-OPLS-2005>
4.51895189285278

$$$$
77
                    3D
 Structure written by MMmdl.
153161  0  0  1  0            999 V2000
  -30.6706  -14.5788   20.4625 C   0  0  0  0  0  0
  -30.4127  -12.3431   19.4574 C   0  0  0  0  0  0
  -29.5007  -12.4915   18.2218 C   0  0  0  0  0  0
  -28.0211  -12.3508   18.6277 C   0  0  0  0  0  0
  -27.6480  -13.2227   19.8572 C   0  0  2  0  0  0
  -28.6901  -13.0920   20.9915 C   0  0  0  0  0  0
  -25.2532  -13.8190   20.5678 C   0  0  0  0  0  0
  -24.1818  -13.0441   20.9191 C   0  0  0  0  0  0
  -24.6394  -11.6913   20.8735 C   0  0  0  0  0  0
  -23.9065  -10.4293   21.0393 C   0  0  0  0  0  0
  -24.3621   -9.4214   21.9172 C   0  0  0  0  0  0
  -23.6297   -8.2251   22.0752 C   0  0  0  0  0  0
  -22.4274   -8.0286   21.3543 C   0  0  0  0  0  0
  -21.9905   -9.0257   20.4644 C   0  0  0  0  0  0
  -22.7236  -10.2133   20.3046 C   0  0  0  0  0  0
  -21.6858   -6.0733   22.5277 C   0  0  0  0  0  0
  -21.4021   -6.5635   23.8211 C   0  0  0  0  0  0
  -21.3665   -5.6788   24.9175 C   0  0  0  0  0  0
  -21.6046   -4.3050   24.7225 C   0  0  0  0  0  0
  -21.8821   -3.8142   23.4344 C   0  0  0  0  0  0
  -21.9197   -4.6958   22.3401 C   0  0  0  0  0  0
  -22.7838  -13.5219   21.1851 C   0  0  0  0  0  0
  -22.1660   -4.2145   21.0978 F   0  0  0  0  0  0
  -21.5634   -3.4534   25.7736 F   0  0  0  0  0  0
  -30.0105  -13.3844   20.4218 N   0  0  0  0  0  0
  -26.2960  -12.9384   20.3294 N   0  0  0  0  0  0
  -25.9320  -11.6529   20.5744 N   0  0  0  0  0  0
  -22.0484  -12.8221   22.0415 N   0  0  0  0  0  0
  -25.4221  -15.1919   20.4098 N   0  0  0  0  0  0
  -31.8658  -14.6473   20.1614 O   0  0  0  0  0  0
  -21.6648   -6.8874   21.4234 O   0  0  0  0  0  0
  -22.3516  -14.5523   20.6700 O   0  0  0  0  0  0
  -24.6185  -31.8636   23.2051 C   0  0  0  0  0  0
  -25.9058  -32.4792   23.8366 C   0  0  1  0  0  0
  -27.2247  -27.3796   20.1216 C   0  0  0  0  0  0
  -25.5883  -33.8594   24.2298 N   0  0  0  0  0  0
  -23.4098  -30.4851   21.5464 C   0  0  2  0  0  0
  -24.8558  -28.9402   20.1162 C   0  0  0  0  0  0
  -22.7436  -29.4636   22.4967 C   0  0  0  0  0  0
  -18.0273  -28.1386   22.8488 C   0  0  0  0  0  0
  -24.1487  -36.7316   23.2645 C   0  0  0  0  0  0
  -25.9421  -30.8144   21.3649 C   0  0  0  0  0  0
  -26.0185  -29.4435   20.7142 C   0  0  0  0  0  0
  -27.2096  -28.6736   20.7063 C   0  0  0  0  0  0
  -26.0485  -26.9025   19.5119 C   0  0  0  0  0  0
  -24.8678  -27.6714   19.5089 C   0  0  0  0  0  0
  -23.6207  -29.8133   20.1631 C   0  0  0  0  0  0
  -25.4110  -36.3098   24.0337 C   0  0  1  0  0  0
  -20.5867  -28.3672   23.1314 C   0  0  2  0  0  0
  -20.6767  -26.9403   22.5422 C   0  0  0  0  0  0
  -19.5748  -26.6383   21.5218 C   0  0  0  0  0  0
  -18.1924  -26.7931   22.1626 C   0  0  0  0  0  0
  -19.1522  -28.8845   23.2898 C   0  0  0  0  0  0
  -18.9449  -30.1450   23.8902 C   0  0  0  0  0  0
  -17.6452  -30.6582   24.0563 C   0  0  0  0  0  0
  -25.9039  -34.9457   23.5124 C   0  0  0  0  0  0
  -16.5343  -29.9087   23.6322 C   0  0  0  0  0  0
  -16.7260  -28.6508   23.0336 C   0  0  0  0  0  0
  -26.4458  -31.6574   25.0710 C   0  0  0  0  0  0
  -25.3701  -31.3684   26.1439 C   0  0  0  0  0  0
  -27.0306  -30.3021   24.6103 C   0  0  0  0  0  0
  -27.6016  -32.4290   25.7508 C   0  0  0  0  0  0
  -27.5582  -37.1810   24.8456 C   0  0  0  0  0  0
  -21.4157  -29.3033   22.3714 N   0  0  0  0  0  0
  -26.4294  -37.3783   23.9406 N   0  0  0  0  0  0
  -24.6752  -31.0702   22.0968 N   0  0  0  0  0  0
  -23.4187  -28.8178   23.3026 O   0  0  0  0  0  0
  -28.3667  -26.5924   20.1051 O   0  0  0  0  0  0
  -26.5614  -34.8909   22.4695 O   0  0  0  0  0  0
  -23.5364  -32.1400   23.7420 O   0  0  0  0  0  0
  -31.1122  -17.2737   19.1303 C   0  0  0  0  0  0
  -30.1614  -17.0354   20.0988 C   0  0  0  0  0  0
  -29.8275  -19.2984   19.6971 C   0  0  0  0  0  0
  -28.9908  -21.5407   20.5941 C   0  0  0  0  0  0
  -28.0084  -25.9608   22.4733 C   0  0  0  0  0  0
  -27.9879  -24.0638   20.7153 C   0  0  0  0  0  0
  -29.0386  -23.0430   20.1347 C   0  0  2  0  0  0
  -28.5048  -25.5134   21.0818 C   0  0  1  0  0  0
  -29.4171  -18.2162   20.4144 N   0  0  0  0  0  0
  -29.9163  -15.7069   20.6409 N   0  0  0  0  0  0
  -29.2684  -20.6230   19.6408 N   0  0  0  0  0  0
  -28.7199  -21.2432   21.7607 O   0  0  0  0  0  0
  -29.0138  -23.1007   18.7988 F   0  0  0  0  0  0
  -31.1302  -18.9223   18.5823 S   0  0  0  0  0  0
  -31.4617  -12.4201   19.1654 H   0  0  0  0  0  0
  -30.2992  -11.3521   19.9008 H   0  0  0  0  0  0
  -29.7556  -11.7416   17.4713 H   0  0  0  0  0  0
  -29.6661  -13.4627   17.7525 H   0  0  0  0  0  0
  -27.8422  -11.2986   18.8528 H   0  0  0  0  0  0
  -27.3740  -12.5952   17.7843 H   0  0  0  0  0  0
  -27.6616  -14.2571   19.5132 H   0  0  0  0  0  0
  -28.6808  -12.0848   21.4103 H   0  0  0  0  0  0
  -28.4543  -13.7655   21.8171 H   0  0  0  0  0  0
  -25.2761   -9.5705   22.4748 H   0  0  0  0  0  0
  -24.0015   -7.4644   22.7472 H   0  0  0  0  0  0
  -21.0835   -8.8767   19.8947 H   0  0  0  0  0  0
  -22.3681  -10.9675   19.6164 H   0  0  0  0  0  0
  -21.2009   -7.6143   23.9711 H   0  0  0  0  0  0
  -21.1486   -6.0519   25.9078 H   0  0  0  0  0  0
  -22.0594   -2.7603   23.2844 H   0  0  0  0  0  0
  -22.4091  -11.9891   22.4830 H   0  0  0  0  0  0
  -21.1097  -13.1252   22.2593 H   0  0  0  0  0  0
  -24.6525  -15.8430   20.5220 H   0  0  0  0  0  0
  -26.2692  -15.6371   20.0802 H   0  0  0  0  0  0
  -26.7132  -32.5485   23.1126 H   0  0  0  0  0  0
  -24.9974  -33.9734   25.0404 H   0  0  0  0  0  0
  -22.7009  -31.3028   21.4037 H   0  0  0  0  0  0
  -23.3738  -35.9665   23.3308 H   0  0  0  0  0  0
  -24.3583  -36.8936   22.2058 H   0  0  0  0  0  0
  -23.7252  -37.6528   23.6657 H   0  0  0  0  0  0
  -26.0629  -31.5782   20.5957 H   0  0  0  0  0  0
  -26.8274  -30.8662   21.9874 H   0  0  0  0  0  0
  -28.1090  -29.0562   21.1680 H   0  0  0  0  0  0
  -26.0436  -25.9291   19.0429 H   0  0  0  0  0  0
  -23.9744  -27.2795   19.0416 H   0  0  0  0  0  0
  -23.7343  -30.5866   19.4021 H   0  0  0  0  0  0
  -22.7433  -29.2360   19.8658 H   0  0  0  0  0  0
  -25.1287  -36.1961   25.0831 H   0  0  0  0  0  0
  -20.9954  -28.3237   24.1437 H   0  0  0  0  0  0
  -20.5673  -26.2271   23.3610 H   0  0  0  0  0  0
  -21.6639  -26.7445   22.1211 H   0  0  0  0  0  0
  -19.6907  -25.6294   21.1245 H   0  0  0  0  0  0
  -19.6699  -27.3194   20.6749 H   0  0  0  0  0  0
  -17.4200  -26.6672   21.4023 H   0  0  0  0  0  0
  -18.0322  -26.0076   22.9024 H   0  0  0  0  0  0
  -19.7924  -30.7263   24.2278 H   0  0  0  0  0  0
  -17.5005  -31.6264   24.5164 H   0  0  0  0  0  0
  -15.5347  -30.2990   23.7642 H   0  0  0  0  0  0
  -15.8665  -28.0835   22.7038 H   0  0  0  0  0  0
  -24.5812  -30.7130   25.7733 H   0  0  0  0  0  0
  -24.8968  -32.2847   26.4975 H   0  0  0  0  0  0
  -25.8023  -30.8733   27.0140 H   0  0  0  0  0  0
  -26.2867  -29.6760   24.1166 H   0  0  0  0  0  0
  -27.4100  -29.7273   25.4568 H   0  0  0  0  0  0
  -27.8686  -30.4340   23.9250 H   0  0  0  0  0  0
  -27.2629  -33.3605   26.2056 H   0  0  0  0  0  0
  -28.3854  -32.6824   25.0356 H   0  0  0  0  0  0
  -28.0634  -31.8419   26.5457 H   0  0  0  0  0  0
  -28.2596  -38.0108   24.7499 H   0  0  0  0  0  0
  -28.1082  -36.2638   24.6285 H   0  0  0  0  0  0
  -27.2297  -37.1464   25.8858 H   0  0  0  0  0  0
  -20.9315  -29.8752   21.6937 H   0  0  0  0  0  0
  -26.0188  -38.2868   24.1400 H   0  0  0  0  0  0
  -31.8045  -16.5810   18.6711 H   0  0  0  0  0  0
  -28.4507  -26.9146   22.7632 H   0  0  0  0  0  0
  -28.2828  -25.2388   23.2424 H   0  0  0  0  0  0
  -26.9232  -26.0681   22.5001 H   0  0  0  0  0  0
  -27.5870  -23.6203   21.6266 H   0  0  0  0  0  0
  -27.1258  -24.1282   20.0532 H   0  0  0  0  0  0
  -30.0383  -23.3799   20.4091 H   0  0  0  0  0  0
  -29.5843  -25.4248   21.2032 H   0  0  0  0  0  0
  -29.0002  -15.5582   21.0335 H   0  0  0  0  0  0
  -29.4085  -21.0840   18.7514 H   0  0  0  0  0  0
  1 25  1  0  0  0
  1 30  2  0  0  0
  1 80  1  0  0  0
  2  3  1  0  0  0
  2 25  1  0  0  0
  2 85  1  0  0  0
  2 86  1  0  0  0
  3  4  1  0  0  0
  3 87  1  0  0  0
  3 88  1  0  0  0
  4  5  1  0  0  0
  4 89  1  0  0  0
  4 90  1  0  0  0
  5  6  1  0  0  0
  5 26  1  0  0  0
  5 91  1  0  0  0
  6 25  1  0  0  0
  6 92  1  0  0  0
  6 93  1  0  0  0
  7  8  2  0  0  0
  7 26  1  0  0  0
  7 29  1  0  0  0
  8  9  1  0  0  0
  8 22  1  0  0  0
  9 10  1  0  0  0
  9 27  2  0  0  0
 10 11  2  0  0  0
 10 15  1  0  0  0
 11 12  1  0  0  0
 11 94  1  0  0  0
 12 13  2  0  0  0
 12 95  1  0  0  0
 13 14  1  0  0  0
 13 31  1  0  0  0
 14 15  2  0  0  0
 14 96  1  0  0  0
 15 97  1  0  0  0
 16 17  2  0  0  0
 16 21  1  0  0  0
 16 31  1  0  0  0
 17 18  1  0  0  0
 17 98  1  0  0  0
 18 19  2  0  0  0
 18 99  1  0  0  0
 19 20  1  0  0  0
 19 24  1  0  0  0
 20 21  2  0  0  0
 20100  1  0  0  0
 21 23  1  0  0  0
 22 28  1  0  0  0
 22 32  2  0  0  0
 26 27  1  0  0  0
 28101  1  0  0  0
 28102  1  0  0  0
 29103  1  0  0  0
 29104  1  0  0  0
 33 34  1  0  0  0
 33 66  1  0  0  0
 33 70  2  0  0  0
 34 36  1  0  0  0
 34 59  1  0  0  0
 34105  1  0  0  0
 35 44  2  0  0  0
 35 45  1  0  0  0
 35 68  1  0  0  0
 36 56  1  0  0  0
 36106  1  0  0  0
 37 39  1  0  0  0
 37 47  1  0  0  0
 37 66  1  0  0  0
 37107  1  0  0  0
 38 43  2  0  0  0
 38 46  1  0  0  0
 38 47  1  0  0  0
 39 64  1  0  0  0
 39 67  2  0  0  0
 40 52  1  0  0  0
 40 53  2  0  0  0
 40 58  1  0  0  0
 41108  1  0  0  0
 41109  1  0  0  0
 41110  1  0  0  0
 41 48  1  0  0  0
 42 43  1  0  0  0
 42 66  1  0  0  0
 42111  1  0  0  0
 42112  1  0  0  0
 43 44  1  0  0  0
 44113  1  0  0  0
 45 46  2  0  0  0
 45114  1  0  0  0
 46115  1  0  0  0
 47116  1  0  0  0
 47117  1  0  0  0
 48 56  1  0  0  0
 48 65  1  0  0  0
 48118  1  0  0  0
 49 50  1  0  0  0
 49 53  1  0  0  0
 49 64  1  0  0  0
 49119  1  0  0  0
 50 51  1  0  0  0
 50120  1  0  0  0
 50121  1  0  0  0
 51 52  1  0  0  0
 51122  1  0  0  0
 51123  1  0  0  0
 52124  1  0  0  0
 52125  1  0  0  0
 53 54  1  0  0  0
 54 55  2  0  0  0
 54126  1  0  0  0
 55 57  1  0  0  0
 55127  1  0  0  0
 56 69  2  0  0  0
 57 58  2  0  0  0
 57128  1  0  0  0
 58129  1  0  0  0
 59 60  1  0  0  0
 59 61  1  0  0  0
 59 62  1  0  0  0
 60130  1  0  0  0
 60131  1  0  0  0
 60132  1  0  0  0
 61133  1  0  0  0
 61134  1  0  0  0
 61135  1  0  0  0
 62136  1  0  0  0
 62137  1  0  0  0
 62138  1  0  0  0
 63 65  1  0  0  0
 63139  1  0  0  0
 63140  1  0  0  0
 63141  1  0  0  0
 64142  1  0  0  0
 65143  1  0  0  0
 68 78  1  0  0  0
 71 72  2  0  0  0
 71 84  1  0  0  0
 71144  1  0  0  0
 72 79  1  0  0  0
 72 80  1  0  0  0
 73 79  2  0  0  0
 73 81  1  0  0  0
 73 84  1  0  0  0
 74 77  1  0  0  0
 74 81  1  0  0  0
 74 82  2  0  0  0
 75145  1  0  0  0
 75146  1  0  0  0
 75147  1  0  0  0
 75 78  1  0  0  0
 76 77  1  0  0  0
 76 78  1  0  0  0
 76148  1  0  0  0
 76149  1  0  0  0
 77 83  1  0  0  0
 77150  1  0  0  0
 78151  1  0  0  0
 80152  1  0  0  0
 81153  1  0  0  0
M  ISO  4   1 100  68 101  78 101  80 100
M  END
> <chiral flag>
0

> <version>
0

> <s_m_source_file>
/data/baiqing/PycharmProjects/Reinvent-master-3.2/result/LINK_invent/BTK/process_docking_weight1_custom_product_contain_oxygen_bond_distance_aromatic_linkinvent_7_9_3/rearranged_h_0185.sdf

> <i_m_source_file_index>
78

> <r_mmod_Potential_Energy-OPLS-2005>
-54.534481048584

> <r_mmod_Stretch_Energy-OPLS-2005>
57.4800453186035

> <r_mmod_Bend_Energy-OPLS-2005>
144.990737915039

> <r_mmod_Torsional_Energy-OPLS-2005>
276.573211669922

> <r_mmod_Improper_Torsional_Energy-OPLS-2005>
7.13309288024902

> <r_mmod_Van_der_Waal_Energy-OPLS-2005>
127.88126373291

> <r_mmod_Electrostatic_Energy-OPLS-2005>
-470.293029785156

> <r_mmod_Solvation_Energy-OPLS-2005>
-230.153091430664

> <b_mmod_Minimization_Converged-OPLS-2005>
0

> <r_mmod_RMS_Derivative-OPLS-2005>
1.25956380367279

$$$$
78
                    3D
 Structure written by MMmdl.
150158  0  0  1  0            999 V2000
  -30.7567  -14.5199   20.6050 C   0  0  0  0  0  0
  -30.4107  -12.3642   19.4281 C   0  0  0  0  0  0
  -29.4855  -12.5294   18.2074 C   0  0  0  0  0  0
  -28.0145  -12.3605   18.6308 C   0  0  0  0  0  0
  -27.6501  -13.2241   19.8694 C   0  0  2  0  0  0
  -28.6998  -13.0728   20.9986 C   0  0  0  0  0  0
  -25.2416  -13.8143   20.5510 C   0  0  0  0  0  0
  -24.1769  -13.0428   20.9214 C   0  0  0  0  0  0
  -24.6387  -11.6909   20.8811 C   0  0  0  0  0  0
  -23.9060  -10.4298   21.0450 C   0  0  0  0  0  0
  -24.3608   -9.4216   21.9212 C   0  0  0  0  0  0
  -23.6291   -8.2238   22.0759 C   0  0  0  0  0  0
  -22.4281   -8.0275   21.3533 C   0  0  0  0  0  0
  -21.9920   -9.0267   20.4655 C   0  0  0  0  0  0
  -22.7242  -10.2153   20.3094 C   0  0  0  0  0  0
  -21.6860   -6.0728   22.5281 C   0  0  0  0  0  0
  -21.4016   -6.5632   23.8208 C   0  0  0  0  0  0
  -21.3668   -5.6787   24.9170 C   0  0  0  0  0  0
  -21.6052   -4.3048   24.7222 C   0  0  0  0  0  0
  -21.8826   -3.8145   23.4343 C   0  0  0  0  0  0
  -21.9201   -4.6950   22.3398 C   0  0  0  0  0  0
  -22.7796  -13.5226   21.1874 C   0  0  0  0  0  0
  -22.1668   -4.2143   21.0970 F   0  0  0  0  0  0
  -21.5628   -3.4535   25.7732 F   0  0  0  0  0  0
  -30.0239  -13.3754   20.4359 N   0  0  0  0  0  0
  -26.2952  -12.9399   20.3344 N   0  0  0  0  0  0
  -25.9332  -11.6547   20.5857 N   0  0  0  0  0  0
  -22.0447  -12.8221   22.0437 N   0  0  0  0  0  0
  -25.3828  -15.1814   20.3451 N   0  0  0  0  0  0
  -31.8489  -14.6699   20.0555 O   0  0  0  0  0  0
  -21.6652   -6.8870   21.4240 O   0  0  0  0  0  0
  -22.3488  -14.5536   20.6717 O   0  0  0  0  0  0
  -24.6214  -31.8645   23.2023 C   0  0  0  0  0  0
  -25.9075  -32.4797   23.8348 C   0  0  1  0  0  0
  -27.2361  -27.3813   20.1149 C   0  0  0  0  0  0
  -25.5922  -33.8593   24.2284 N   0  0  0  0  0  0
  -23.4110  -30.4831   21.5453 C   0  0  2  0  0  0
  -24.8611  -28.9365   20.1179 C   0  0  0  0  0  0
  -22.7449  -29.4650   22.4993 C   0  0  0  0  0  0
  -18.0310  -28.1365   22.8473 C   0  0  0  0  0  0
  -24.1498  -36.7298   23.2640 C   0  0  0  0  0  0
  -25.9460  -30.8150   21.3607 C   0  0  0  0  0  0
  -26.0243  -29.4430   20.7119 C   0  0  0  0  0  0
  -27.2176  -28.6750   20.7008 C   0  0  0  0  0  0
  -26.0567  -26.9007   19.5130 C   0  0  0  0  0  0
  -24.8752  -27.6691   19.5105 C   0  0  0  0  0  0
  -23.6222  -29.8088   20.1631 C   0  0  0  0  0  0
  -25.4106  -36.3084   24.0338 C   0  0  1  0  0  0
  -20.5891  -28.3697   23.1346 C   0  0  2  0  0  0
  -20.6839  -26.9430   22.5421 C   0  0  0  0  0  0
  -19.5849  -26.6475   21.5179 C   0  0  0  0  0  0
  -18.1996  -26.7940   22.1561 C   0  0  0  0  0  0
  -19.1539  -28.8846   23.2905 C   0  0  0  0  0  0
  -18.9442  -30.1433   23.8941 C   0  0  0  0  0  0
  -17.6440  -30.6566   24.0558 C   0  0  0  0  0  0
  -25.9048  -34.9456   23.5098 C   0  0  0  0  0  0
  -16.5341  -29.9044   23.6316 C   0  0  0  0  0  0
  -16.7284  -28.6461   23.0337 C   0  0  0  0  0  0
  -26.4487  -31.6585   25.0700 C   0  0  0  0  0  0
  -25.3738  -31.3719   26.1442 C   0  0  0  0  0  0
  -27.0310  -30.3014   24.6109 C   0  0  0  0  0  0
  -27.6071  -32.4292   25.7451 C   0  0  0  0  0  0
  -27.5577  -37.1795   24.8466 C   0  0  0  0  0  0
  -21.4167  -29.3083   22.3751 N   0  0  0  0  0  0
  -26.4287  -37.3760   23.9422 N   0  0  0  0  0  0
  -24.6775  -31.0700   22.0940 N   0  0  0  0  0  0
  -23.4211  -28.8172   23.3021 O   0  0  0  0  0  0
  -28.3866  -26.6057   20.0859 O   0  0  0  0  0  0
  -26.5590  -34.8909   22.4667 O   0  0  0  0  0  0
  -23.5390  -32.1430   23.7384 O   0  0  0  0  0  0
  -28.1837  -16.6418   21.1647 C   0  0  0  0  0  0
  -29.5513  -16.6451   21.1032 C   0  0  0  0  0  0
  -29.1247  -18.8972   20.7599 C   0  0  0  0  0  0
  -28.6237  -21.3599   20.4389 C   0  0  0  0  0  0
  -28.6805  -24.0337   19.9499 C   0  0  0  0  0  0
  -28.3541  -25.3269   20.7815 C   0  0  0  0  0  0
  -29.1584  -22.7863   20.7955 C   0  0  2  0  0  0
  -30.0820  -17.9499   20.9193 N   0  0  0  0  0  0
  -30.3206  -15.4851   21.4501 N   0  0  0  0  0  0
  -29.4441  -20.2987   20.6694 N   0  0  0  0  0  0
  -27.4887  -21.2404   19.9653 O   0  0  0  0  0  0
  -30.4955  -22.7561   20.8173 F   0  0  0  0  0  0
  -27.4964  -18.2175   20.8450 S   0  0  0  0  0  0
  -31.4534  -12.4448   19.1182 H   0  0  0  0  0  0
  -30.3095  -11.3619   19.8472 H   0  0  0  0  0  0
  -29.7401  -11.8010   17.4361 H   0  0  0  0  0  0
  -29.6321  -13.5153   17.7610 H   0  0  0  0  0  0
  -27.8516  -11.3062   18.8615 H   0  0  0  0  0  0
  -27.3562  -12.5944   17.7914 H   0  0  0  0  0  0
  -27.6727  -14.2623   19.5391 H   0  0  0  0  0  0
  -28.6933  -12.0610   21.4058 H   0  0  0  0  0  0
  -28.4532  -13.7236   21.8374 H   0  0  0  0  0  0
  -25.2760   -9.5689   22.4776 H   0  0  0  0  0  0
  -24.0021   -7.4632   22.7467 H   0  0  0  0  0  0
  -21.0863   -8.8799   19.8943 H   0  0  0  0  0  0
  -22.3711  -10.9694   19.6196 H   0  0  0  0  0  0
  -21.1986   -7.6140   23.9708 H   0  0  0  0  0  0
  -21.1487   -6.0503   25.9066 H   0  0  0  0  0  0
  -22.0590   -2.7610   23.2836 H   0  0  0  0  0  0
  -22.4069  -11.9892   22.4846 H   0  0  0  0  0  0
  -21.1062  -13.1255   22.2638 H   0  0  0  0  0  0
  -24.5788  -15.7984   20.3914 H   0  0  0  0  0  0
  -26.1610  -15.5986   19.8492 H   0  0  0  0  0  0
  -26.7139  -32.5487   23.1101 H   0  0  0  0  0  0
  -25.0117  -33.9741   25.0449 H   0  0  0  0  0  0
  -22.7051  -31.3036   21.3994 H   0  0  0  0  0  0
  -23.3749  -35.9645   23.3307 H   0  0  0  0  0  0
  -24.3607  -36.8904   22.2060 H   0  0  0  0  0  0
  -23.7264  -37.6510   23.6634 H   0  0  0  0  0  0
  -26.0644  -31.5792   20.5914 H   0  0  0  0  0  0
  -26.8320  -30.8700   21.9814 H   0  0  0  0  0  0
  -28.1167  -29.0606   21.1600 H   0  0  0  0  0  0
  -26.0542  -25.9269   19.0441 H   0  0  0  0  0  0
  -23.9815  -27.2800   19.0398 H   0  0  0  0  0  0
  -23.7270  -30.5807   19.3999 H   0  0  0  0  0  0
  -22.7469  -29.2266   19.8692 H   0  0  0  0  0  0
  -25.1279  -36.1940   25.0826 H   0  0  0  0  0  0
  -20.9944  -28.3277   24.1489 H   0  0  0  0  0  0
  -20.5743  -26.2250   23.3554 H   0  0  0  0  0  0
  -21.6721  -26.7522   22.1207 H   0  0  0  0  0  0
  -19.7090  -25.6430   21.1111 H   0  0  0  0  0  0
  -19.6776  -27.3372   20.6786 H   0  0  0  0  0  0
  -17.4289  -26.6714   21.3956 H   0  0  0  0  0  0
  -18.0402  -26.0047   22.8911 H   0  0  0  0  0  0
  -19.7892  -30.7277   24.2314 H   0  0  0  0  0  0
  -17.4984  -31.6257   24.5136 H   0  0  0  0  0  0
  -15.5332  -30.2941   23.7623 H   0  0  0  0  0  0
  -15.8702  -28.0765   22.6978 H   0  0  0  0  0  0
  -24.5923  -30.7053   25.7772 H   0  0  0  0  0  0
  -24.8930  -32.2895   26.4849 H   0  0  0  0  0  0
  -25.8106  -30.8917   27.0213 H   0  0  0  0  0  0
  -26.2864  -29.6780   24.1158 H   0  0  0  0  0  0
  -27.4053  -29.7261   25.4584 H   0  0  0  0  0  0
  -27.8709  -30.4325   23.9284 H   0  0  0  0  0  0
  -27.2708  -33.3581   26.2067 H   0  0  0  0  0  0
  -28.3858  -32.6871   25.0255 H   0  0  0  0  0  0
  -28.0760  -31.8386   26.5332 H   0  0  0  0  0  0
  -28.2576  -38.0094   24.7472 H   0  0  0  0  0  0
  -28.1069  -36.2626   24.6306 H   0  0  0  0  0  0
  -27.2303  -37.1469   25.8863 H   0  0  0  0  0  0
  -20.9323  -29.8831   21.6994 H   0  0  0  0  0  0
  -26.0182  -38.2846   24.1380 H   0  0  0  0  0  0
  -27.5339  -15.8222   21.4209 H   0  0  0  0  0  0
  -29.4655  -24.2692   19.2320 H   0  0  0  0  0  0
  -27.8032  -23.7817   19.3531 H   0  0  0  0  0  0
  -29.0906  -25.4118   21.5821 H   0  0  0  0  0  0
  -27.4002  -25.1848   21.2917 H   0  0  0  0  0  0
  -28.8641  -22.9476   21.8325 H   0  0  0  0  0  0
  -31.1484  -15.8009   21.9329 H   0  0  0  0  0  0
  -30.3952  -20.5458   20.9026 H   0  0  0  0  0  0
  1 25  1  0  0  0
  1 30  2  0  0  0
  1 79  1  0  0  0
  2  3  1  0  0  0
  2 25  1  0  0  0
  2 84  1  0  0  0
  2 85  1  0  0  0
  3  4  1  0  0  0
  3 86  1  0  0  0
  3 87  1  0  0  0
  4  5  1  0  0  0
  4 88  1  0  0  0
  4 89  1  0  0  0
  5  6  1  0  0  0
  5 26  1  0  0  0
  5 90  1  0  0  0
  6 25  1  0  0  0
  6 91  1  0  0  0
  6 92  1  0  0  0
  7  8  2  0  0  0
  7 26  1  0  0  0
  7 29  1  0  0  0
  8  9  1  0  0  0
  8 22  1  0  0  0
  9 10  1  0  0  0
  9 27  2  0  0  0
 10 11  2  0  0  0
 10 15  1  0  0  0
 11 12  1  0  0  0
 11 93  1  0  0  0
 12 13  2  0  0  0
 12 94  1  0  0  0
 13 14  1  0  0  0
 13 31  1  0  0  0
 14 15  2  0  0  0
 14 95  1  0  0  0
 15 96  1  0  0  0
 16 17  2  0  0  0
 16 21  1  0  0  0
 16 31  1  0  0  0
 17 18  1  0  0  0
 17 97  1  0  0  0
 18 19  2  0  0  0
 18 98  1  0  0  0
 19 20  1  0  0  0
 19 24  1  0  0  0
 20 21  2  0  0  0
 20 99  1  0  0  0
 21 23  1  0  0  0
 22 28  1  0  0  0
 22 32  2  0  0  0
 26 27  1  0  0  0
 28100  1  0  0  0
 28101  1  0  0  0
 29102  1  0  0  0
 29103  1  0  0  0
 33 34  1  0  0  0
 33 66  1  0  0  0
 33 70  2  0  0  0
 34 36  1  0  0  0
 34 59  1  0  0  0
 34104  1  0  0  0
 35 44  2  0  0  0
 35 45  1  0  0  0
 35 68  1  0  0  0
 36 56  1  0  0  0
 36105  1  0  0  0
 37 39  1  0  0  0
 37 47  1  0  0  0
 37 66  1  0  0  0
 37106  1  0  0  0
 38 43  2  0  0  0
 38 46  1  0  0  0
 38 47  1  0  0  0
 39 64  1  0  0  0
 39 67  2  0  0  0
 40 52  1  0  0  0
 40 53  2  0  0  0
 40 58  1  0  0  0
 41107  1  0  0  0
 41108  1  0  0  0
 41109  1  0  0  0
 41 48  1  0  0  0
 42 43  1  0  0  0
 42 66  1  0  0  0
 42110  1  0  0  0
 42111  1  0  0  0
 43 44  1  0  0  0
 44112  1  0  0  0
 45 46  2  0  0  0
 45113  1  0  0  0
 46114  1  0  0  0
 47115  1  0  0  0
 47116  1  0  0  0
 48 56  1  0  0  0
 48 65  1  0  0  0
 48117  1  0  0  0
 49 50  1  0  0  0
 49 53  1  0  0  0
 49 64  1  0  0  0
 49118  1  0  0  0
 50 51  1  0  0  0
 50119  1  0  0  0
 50120  1  0  0  0
 51 52  1  0  0  0
 51121  1  0  0  0
 51122  1  0  0  0
 52123  1  0  0  0
 52124  1  0  0  0
 53 54  1  0  0  0
 54 55  2  0  0  0
 54125  1  0  0  0
 55 57  1  0  0  0
 55126  1  0  0  0
 56 69  2  0  0  0
 57 58  2  0  0  0
 57127  1  0  0  0
 58128  1  0  0  0
 59 60  1  0  0  0
 59 61  1  0  0  0
 59 62  1  0  0  0
 60129  1  0  0  0
 60130  1  0  0  0
 60131  1  0  0  0
 61132  1  0  0  0
 61133  1  0  0  0
 61134  1  0  0  0
 62135  1  0  0  0
 62136  1  0  0  0
 62137  1  0  0  0
 63 65  1  0  0  0
 63138  1  0  0  0
 63139  1  0  0  0
 63140  1  0  0  0
 64141  1  0  0  0
 65142  1  0  0  0
 68 76  1  0  0  0
 71 72  2  0  0  0
 71 83  1  0  0  0
 71143  1  0  0  0
 72 78  1  0  0  0
 72 79  1  0  0  0
 73 78  2  0  0  0
 73 80  1  0  0  0
 73 83  1  0  0  0
 74 77  1  0  0  0
 74 80  1  0  0  0
 74 81  2  0  0  0
 75 76  1  0  0  0
 75 77  1  0  0  0
 75144  1  0  0  0
 75145  1  0  0  0
 76146  1  0  0  0
 76147  1  0  0  0
 77 82  1  0  0  0
 77148  1  0  0  0
 79149  1  0  0  0
 80150  1  0  0  0
M  ISO  4   1 100  68 101  76 101  79 100
M  END
> <chiral flag>
0

> <version>
0

> <s_m_source_file>
/data/baiqing/PycharmProjects/Reinvent-master-3.2/result/LINK_invent/BTK/process_docking_weight1_custom_product_contain_oxygen_bond_distance_aromatic_linkinvent_7_9_3/rearranged_h_0185.sdf

> <i_m_source_file_index>
79

> <r_mmod_Potential_Energy-OPLS-2005>
-77.7316284179688

> <r_mmod_Stretch_Energy-OPLS-2005>
51.4615440368652

> <r_mmod_Bend_Energy-OPLS-2005>
133.994552612305

> <r_mmod_Torsional_Energy-OPLS-2005>
287.918304443359

> <r_mmod_Improper_Torsional_Energy-OPLS-2005>
10.672269821167

> <r_mmod_Van_der_Waal_Energy-OPLS-2005>
119.203681945801

> <r_mmod_Electrostatic_Energy-OPLS-2005>
-485.467254638672

> <r_mmod_Solvation_Energy-OPLS-2005>
-217.891616821289

> <b_mmod_Minimization_Converged-OPLS-2005>
0

> <r_mmod_RMS_Derivative-OPLS-2005>
3.48938751220703

$$$$
79
                    3D
 Structure written by MMmdl.
154162  0  0  1  0            999 V2000
  -30.6077  -14.7403   20.4552 C   0  0  0  0  0  0
  -30.4321  -12.4438   19.4850 C   0  0  0  0  0  0
  -29.5129  -12.4954   18.2417 C   0  0  0  0  0  0
  -28.0349  -12.3317   18.6479 C   0  0  0  0  0  0
  -27.6419  -13.2268   19.8529 C   0  0  2  0  0  0
  -28.6836  -13.1457   20.9923 C   0  0  0  0  0  0
  -25.2505  -13.8172   20.5696 C   0  0  0  0  0  0
  -24.1793  -13.0428   20.9212 C   0  0  0  0  0  0
  -24.6374  -11.6902   20.8738 C   0  0  0  0  0  0
  -23.9046  -10.4289   21.0402 C   0  0  0  0  0  0
  -24.3609   -9.4208   21.9178 C   0  0  0  0  0  0
  -23.6303   -8.2232   22.0742 C   0  0  0  0  0  0
  -22.4291   -8.0272   21.3529 C   0  0  0  0  0  0
  -21.9907   -9.0240   20.4633 C   0  0  0  0  0  0
  -22.7218  -10.2130   20.3050 C   0  0  0  0  0  0
  -21.6852   -6.0734   22.5277 C   0  0  0  0  0  0
  -21.4007   -6.5637   23.8208 C   0  0  0  0  0  0
  -21.3659   -5.6789   24.9170 C   0  0  0  0  0  0
  -21.6054   -4.3057   24.7214 C   0  0  0  0  0  0
  -21.8815   -3.8147   23.4332 C   0  0  0  0  0  0
  -21.9186   -4.6966   22.3394 C   0  0  0  0  0  0
  -22.7814  -13.5220   21.1870 C   0  0  0  0  0  0
  -22.1661   -4.2151   21.0969 F   0  0  0  0  0  0
  -21.5639   -3.4543   25.7726 F   0  0  0  0  0  0
  -29.9921  -13.5041   20.4256 N   0  0  0  0  0  0
  -26.2919  -12.9374   20.3269 N   0  0  0  0  0  0
  -25.9306  -11.6527   20.5735 N   0  0  0  0  0  0
  -22.0448  -12.8215   22.0421 N   0  0  0  0  0  0
  -25.4208  -15.1890   20.4124 N   0  0  0  0  0  0
  -31.7889  -14.8303   20.0878 O   0  0  0  0  0  0
  -21.6642   -6.8880   21.4240 O   0  0  0  0  0  0
  -22.3517  -14.5534   20.6724 O   0  0  0  0  0  0
  -24.6337  -31.8562   23.1989 C   0  0  0  0  0  0
  -25.9160  -32.4756   23.8336 C   0  0  1  0  0  0
  -27.2108  -27.2519   20.1274 C   0  0  0  0  0  0
  -25.5954  -33.8556   24.2260 N   0  0  0  0  0  0
  -23.4310  -30.4814   21.5416 C   0  0  2  0  0  0
  -24.8758  -28.9322   20.1072 C   0  0  0  0  0  0
  -22.7523  -29.4619   22.4893 C   0  0  0  0  0  0
  -18.0302  -28.1390   22.8483 C   0  0  0  0  0  0
  -24.1494  -36.7286   23.2634 C   0  0  0  0  0  0
  -25.9784  -30.7657   21.3816 C   0  0  0  0  0  0
  -26.0490  -29.3890   20.7208 C   0  0  0  0  0  0
  -27.2200  -28.5615   20.7212 C   0  0  0  0  0  0
  -26.0170  -26.8789   19.4669 C   0  0  0  0  0  0
  -24.8662  -27.6859   19.4681 C   0  0  0  0  0  0
  -23.6490  -29.8206   20.1564 C   0  0  0  0  0  0
  -25.4117  -36.3067   24.0321 C   0  0  1  0  0  0
  -20.5909  -28.3715   23.1257 C   0  0  2  0  0  0
  -20.6789  -26.9427   22.5402 C   0  0  0  0  0  0
  -19.5761  -26.6384   21.5211 C   0  0  0  0  0  0
  -18.1944  -26.7932   22.1622 C   0  0  0  0  0  0
  -19.1554  -28.8868   23.2865 C   0  0  0  0  0  0
  -18.9471  -30.1468   23.8884 C   0  0  0  0  0  0
  -17.6466  -30.6588   24.0566 C   0  0  0  0  0  0
  -25.9061  -34.9439   23.5089 C   0  0  0  0  0  0
  -16.5362  -29.9082   23.6327 C   0  0  0  0  0  0
  -16.7290  -28.6503   23.0347 C   0  0  0  0  0  0
  -26.4509  -31.6583   25.0734 C   0  0  0  0  0  0
  -25.3718  -31.3749   26.1448 C   0  0  0  0  0  0
  -27.0361  -30.2993   24.6242 C   0  0  0  0  0  0
  -27.6061  -32.4324   25.7513 C   0  0  0  0  0  0
  -27.5581  -37.1798   24.8458 C   0  0  0  0  0  0
  -21.4226  -29.3065   22.3638 N   0  0  0  0  0  0
  -26.4290  -37.3770   23.9407 N   0  0  0  0  0  0
  -24.7000  -31.0523   22.0967 N   0  0  0  0  0  0
  -23.4213  -28.8148   23.2991 O   0  0  0  0  0  0
  -28.2811  -26.3243   20.2116 O   0  0  0  0  0  0
  -26.5628  -34.8917   22.4655 O   0  0  0  0  0  0
  -23.5483  -32.1379   23.7280 O   0  0  0  0  0  0
  -29.5116  -19.5077   18.4277 C   0  0  0  0  0  0
  -29.7347  -18.2619   17.8138 C   0  0  0  0  0  0
  -29.8737  -17.0992   18.5976 C   0  0  0  0  0  0
  -29.3977  -19.6406   19.8344 C   0  0  0  0  0  0
  -29.7910  -17.1630   20.0125 C   0  0  0  0  0  0
  -28.7539  -22.1849   19.8352 C   0  0  0  0  0  0
  -27.9821  -24.8560   20.0071 C   0  0  0  0  0  0
  -28.9161  -23.6281   20.5313 C   0  0  1  0  0  0
  -29.5408  -18.4439   20.5571 N   0  3  0  0  0  0
  -29.8032  -18.1614   16.4179 N   0  0  0  0  0  0
  -29.2024  -21.0004   20.4226 N   0  0  0  0  0  0
  -29.8559  -15.8731   20.7545 N   0  0  0  0  0  0
  -28.1688  -22.1586   18.7493 O   0  0  0  0  0  0
  -28.7011  -23.4772   21.9273 O   0  0  0  0  0  0
  -30.0308  -15.9116   17.9618 F   0  0  0  0  0  0
  -31.4746  -12.5587   19.1823 H   0  0  0  0  0  0
  -30.3738  -11.4653   19.9645 H   0  0  0  0  0  0
  -29.7942  -11.7136   17.5346 H   0  0  0  0  0  0
  -29.6481  -13.4384   17.7136 H   0  0  0  0  0  0
  -27.8800  -11.2839   18.9058 H   0  0  0  0  0  0
  -27.3823  -12.5321   17.7970 H   0  0  0  0  0  0
  -27.6378  -14.2492   19.4767 H   0  0  0  0  0  0
  -28.7142  -12.1385   21.4117 H   0  0  0  0  0  0
  -28.4084  -13.8033   21.8179 H   0  0  0  0  0  0
  -25.2754   -9.5709   22.4751 H   0  0  0  0  0  0
  -24.0022   -7.4628   22.7465 H   0  0  0  0  0  0
  -21.0835   -8.8753   19.8941 H   0  0  0  0  0  0
  -22.3666  -10.9668   19.6172 H   0  0  0  0  0  0
  -21.1998   -7.6148   23.9719 H   0  0  0  0  0  0
  -21.1493   -6.0511   25.9072 H   0  0  0  0  0  0
  -22.0598   -2.7610   23.2821 H   0  0  0  0  0  0
  -22.4070  -11.9887   22.4816 H   0  0  0  0  0  0
  -21.1062  -13.1243   22.2613 H   0  0  0  0  0  0
  -24.6456  -15.8350   20.5206 H   0  0  0  0  0  0
  -26.2457  -15.6271   20.0256 H   0  0  0  0  0  0
  -26.7235  -32.5407   23.1084 H   0  0  0  0  0  0
  -25.0104  -33.9690   25.0408 H   0  0  0  0  0  0
  -22.7281  -31.3042   21.3966 H   0  0  0  0  0  0
  -23.3758  -35.9617   23.3281 H   0  0  0  0  0  0
  -24.3587  -36.8925   22.2052 H   0  0  0  0  0  0
  -23.7245  -37.6480   23.6670 H   0  0  0  0  0  0
  -26.1210  -31.5275   20.6139 H   0  0  0  0  0  0
  -26.8551  -30.8125   22.0161 H   0  0  0  0  0  0
  -28.1139  -28.9031   21.2241 H   0  0  0  0  0  0
  -25.9327  -25.9331   18.9539 H   0  0  0  0  0  0
  -23.9711  -27.3333   18.9742 H   0  0  0  0  0  0
  -23.7784  -30.5985   19.4030 H   0  0  0  0  0  0
  -22.7672  -29.2563   19.8481 H   0  0  0  0  0  0
  -25.1299  -36.1911   25.0814 H   0  0  0  0  0  0
  -21.0006  -28.3294   24.1376 H   0  0  0  0  0  0
  -20.5696  -26.2325   23.3612 H   0  0  0  0  0  0
  -21.6655  -26.7451   22.1193 H   0  0  0  0  0  0
  -19.6921  -25.6288   21.1253 H   0  0  0  0  0  0
  -19.6692  -27.3187   20.6734 H   0  0  0  0  0  0
  -17.4213  -26.6686   21.4024 H   0  0  0  0  0  0
  -18.0341  -26.0078   22.9023 H   0  0  0  0  0  0
  -19.7946  -30.7293   24.2241 H   0  0  0  0  0  0
  -17.5020  -31.6265   24.5177 H   0  0  0  0  0  0
  -15.5360  -30.2980   23.7656 H   0  0  0  0  0  0
  -15.8692  -28.0824   22.7050 H   0  0  0  0  0  0
  -24.5896  -30.7094   25.7772 H   0  0  0  0  0  0
  -24.8905  -32.2928   26.4837 H   0  0  0  0  0  0
  -25.8024  -30.8946   27.0245 H   0  0  0  0  0  0
  -26.2954  -29.6733   24.1251 H   0  0  0  0  0  0
  -27.4008  -29.7268   25.4781 H   0  0  0  0  0  0
  -27.8849  -30.4250   23.9517 H   0  0  0  0  0  0
  -27.2669  -33.3634   26.2068 H   0  0  0  0  0  0
  -28.3890  -32.6867   25.0354 H   0  0  0  0  0  0
  -28.0711  -31.8461   26.5449 H   0  0  0  0  0  0
  -28.2585  -38.0109   24.7527 H   0  0  0  0  0  0
  -28.1093  -36.2642   24.6260 H   0  0  0  0  0  0
  -27.2304  -37.1419   25.8862 H   0  0  0  0  0  0
  -20.9404  -29.8795   21.6851 H   0  0  0  0  0  0
  -26.0166  -38.2844   24.1410 H   0  0  0  0  0  0
  -29.4363  -20.3708   17.7864 H   0  0  0  0  0  0
  -26.9889  -24.6496   20.4084 H   0  0  0  0  0  0
  -27.8880  -24.7401   18.9266 H   0  0  0  0  0  0
  -29.9563  -23.9137   20.3740 H   0  0  0  0  0  0
  -29.4546  -18.5019   21.5762 H   0  0  0  0  0  0
  -29.1717  -18.7645   15.9050 H   0  0  0  0  0  0
  -29.7536  -17.2056   16.0831 H   0  0  0  0  0  0
  -29.4909  -21.1241   21.3832 H   0  0  0  0  0  0
  -29.0495  -15.6839   21.3218 H   0  0  0  0  0  0
  -28.7996  -24.3418   22.3141 H   0  0  0  0  0  0
  1 25  1  0  0  0
  1 30  2  0  0  0
  1 82  1  0  0  0
  2  3  1  0  0  0
  2 25  1  0  0  0
  2 86  1  0  0  0
  2 87  1  0  0  0
  3  4  1  0  0  0
  3 88  1  0  0  0
  3 89  1  0  0  0
  4  5  1  0  0  0
  4 90  1  0  0  0
  4 91  1  0  0  0
  5  6  1  0  0  0
  5 26  1  0  0  0
  5 92  1  0  0  0
  6 25  1  0  0  0
  6 93  1  0  0  0
  6 94  1  0  0  0
  7  8  2  0  0  0
  7 26  1  0  0  0
  7 29  1  0  0  0
  8  9  1  0  0  0
  8 22  1  0  0  0
  9 10  1  0  0  0
  9 27  2  0  0  0
 10 11  2  0  0  0
 10 15  1  0  0  0
 11 12  1  0  0  0
 11 95  1  0  0  0
 12 13  2  0  0  0
 12 96  1  0  0  0
 13 14  1  0  0  0
 13 31  1  0  0  0
 14 15  2  0  0  0
 14 97  1  0  0  0
 15 98  1  0  0  0
 16 17  2  0  0  0
 16 21  1  0  0  0
 16 31  1  0  0  0
 17 18  1  0  0  0
 17 99  1  0  0  0
 18 19  2  0  0  0
 18100  1  0  0  0
 19 20  1  0  0  0
 19 24  1  0  0  0
 20 21  2  0  0  0
 20101  1  0  0  0
 21 23  1  0  0  0
 22 28  1  0  0  0
 22 32  2  0  0  0
 26 27  1  0  0  0
 28102  1  0  0  0
 28103  1  0  0  0
 29104  1  0  0  0
 29105  1  0  0  0
 33 34  1  0  0  0
 33 66  1  0  0  0
 33 70  2  0  0  0
 34 36  1  0  0  0
 34 59  1  0  0  0
 34106  1  0  0  0
 35 44  2  0  0  0
 35 45  1  0  0  0
 35 68  1  0  0  0
 36 56  1  0  0  0
 36107  1  0  0  0
 37 39  1  0  0  0
 37 47  1  0  0  0
 37 66  1  0  0  0
 37108  1  0  0  0
 38 43  2  0  0  0
 38 46  1  0  0  0
 38 47  1  0  0  0
 39 64  1  0  0  0
 39 67  2  0  0  0
 40 52  1  0  0  0
 40 53  2  0  0  0
 40 58  1  0  0  0
 41109  1  0  0  0
 41110  1  0  0  0
 41111  1  0  0  0
 41 48  1  0  0  0
 42 43  1  0  0  0
 42 66  1  0  0  0
 42112  1  0  0  0
 42113  1  0  0  0
 43 44  1  0  0  0
 44114  1  0  0  0
 45 46  2  0  0  0
 45115  1  0  0  0
 46116  1  0  0  0
 47117  1  0  0  0
 47118  1  0  0  0
 48 56  1  0  0  0
 48 65  1  0  0  0
 48119  1  0  0  0
 49 50  1  0  0  0
 49 53  1  0  0  0
 49 64  1  0  0  0
 49120  1  0  0  0
 50 51  1  0  0  0
 50121  1  0  0  0
 50122  1  0  0  0
 51 52  1  0  0  0
 51123  1  0  0  0
 51124  1  0  0  0
 52125  1  0  0  0
 52126  1  0  0  0
 53 54  1  0  0  0
 54 55  2  0  0  0
 54127  1  0  0  0
 55 57  1  0  0  0
 55128  1  0  0  0
 56 69  2  0  0  0
 57 58  2  0  0  0
 57129  1  0  0  0
 58130  1  0  0  0
 59 60  1  0  0  0
 59 61  1  0  0  0
 59 62  1  0  0  0
 60131  1  0  0  0
 60132  1  0  0  0
 60133  1  0  0  0
 61134  1  0  0  0
 61135  1  0  0  0
 61136  1  0  0  0
 62137  1  0  0  0
 62138  1  0  0  0
 62139  1  0  0  0
 63 65  1  0  0  0
 63140  1  0  0  0
 63141  1  0  0  0
 63142  1  0  0  0
 64143  1  0  0  0
 65144  1  0  0  0
 68 77  1  0  0  0
 71 72  2  0  0  0
 71 74  1  0  0  0
 71145  1  0  0  0
 72 73  1  0  0  0
 72 80  1  0  0  0
 73 75  2  0  0  0
 73 85  1  0  0  0
 74 79  2  0  0  0
 74 81  1  0  0  0
 75 79  1  0  0  0
 75 82  1  0  0  0
 76 78  1  0  0  0
 76 81  1  0  0  0
 76 83  2  0  0  0
 77 78  1  0  0  0
 77146  1  0  0  0
 77147  1  0  0  0
 78 84  1  0  0  0
 78148  1  0  0  0
 79149  1  0  0  0
 80150  1  0  0  0
 80151  1  0  0  0
 81152  1  0  0  0
 82153  1  0  0  0
 84154  1  0  0  0
M  CHG  1  79   1
M  ISO  4   1 100  68 101  77 101  82 100
M  END
> <chiral flag>
0

> <version>
0

> <s_m_source_file>
/data/baiqing/PycharmProjects/Reinvent-master-3.2/result/LINK_invent/BTK/process_docking_weight1_custom_product_contain_oxygen_bond_distance_aromatic_linkinvent_7_9_3/rearranged_h_0185.sdf

> <i_m_source_file_index>
80

> <r_mmod_Potential_Energy-OPLS-2005>
117.254272460938

> <r_mmod_Stretch_Energy-OPLS-2005>
139.579055786133

> <r_mmod_Bend_Energy-OPLS-2005>
159.690567016602

> <r_mmod_Torsional_Energy-OPLS-2005>
265.557556152344

> <r_mmod_Improper_Torsional_Energy-OPLS-2005>
10.4587059020996

> <r_mmod_Van_der_Waal_Energy-OPLS-2005>
153.766189575195

> <r_mmod_Electrostatic_Energy-OPLS-2005>
-229.626556396484

> <r_mmod_Solvation_Energy-OPLS-2005>
-470.846923828125

> <b_mmod_Minimization_Converged-OPLS-2005>
0

> <r_mmod_RMS_Derivative-OPLS-2005>
1.86540806293488

$$$$
80
                    3D
 Structure written by MMmdl.
155163  0  0  1  0            999 V2000
  -30.5400  -14.8928   20.4157 C   0  0  0  0  0  0
  -30.4372  -12.5517   19.4731 C   0  0  0  0  0  0
  -29.5070  -12.5812   18.2366 C   0  0  0  0  0  0
  -28.0438  -12.3583   18.6625 C   0  0  0  0  0  0
  -27.6381  -13.2531   19.8632 C   0  0  2  0  0  0
  -28.6935  -13.2131   20.9925 C   0  0  0  0  0  0
  -25.2519  -13.8210   20.5895 C   0  0  0  0  0  0
  -24.1788  -13.0428   20.9260 C   0  0  0  0  0  0
  -24.6405  -11.6899   20.8764 C   0  0  0  0  0  0
  -23.9086  -10.4282   21.0426 C   0  0  0  0  0  0
  -24.3605   -9.4177   21.9185 C   0  0  0  0  0  0
  -23.6266   -8.2215   22.0740 C   0  0  0  0  0  0
  -22.4241   -8.0296   21.3548 C   0  0  0  0  0  0
  -21.9904   -9.0282   20.4669 C   0  0  0  0  0  0
  -22.7252  -10.2156   20.3092 C   0  0  0  0  0  0
  -21.6844   -6.0739   22.5294 C   0  0  0  0  0  0
  -21.4035   -6.5628   23.8238 C   0  0  0  0  0  0
  -21.3683   -5.6775   24.9185 C   0  0  0  0  0  0
  -21.6043   -4.3036   24.7224 C   0  0  0  0  0  0
  -21.8782   -3.8122   23.4338 C   0  0  0  0  0  0
  -21.9188   -4.6967   22.3414 C   0  0  0  0  0  0
  -22.7808  -13.5219   21.1910 C   0  0  0  0  0  0
  -22.1623   -4.2150   21.0991 F   0  0  0  0  0  0
  -21.5646   -3.4522   25.7739 F   0  0  0  0  0  0
  -29.9785  -13.6207   20.4033 N   0  0  0  0  0  0
  -26.2954  -12.9459   20.3373 N   0  0  0  0  0  0
  -25.9343  -11.6565   20.5715 N   0  0  0  0  0  0
  -22.0432  -12.8247   22.0477 N   0  0  0  0  0  0
  -25.4120  -15.1957   20.4567 N   0  0  0  0  0  0
  -31.7282  -14.9979   20.0845 O   0  0  0  0  0  0
  -21.6601   -6.8904   21.4256 O   0  0  0  0  0  0
  -22.3499  -14.5519   20.6750 O   0  0  0  0  0  0
  -24.6370  -31.8458   23.1857 C   0  0  0  0  0  0
  -25.9173  -32.4701   23.8218 C   0  0  1  0  0  0
  -27.1959  -27.1569   20.1301 C   0  0  0  0  0  0
  -25.5930  -33.8496   24.2119 N   0  0  0  0  0  0
  -23.4340  -30.4647   21.5366 C   0  0  2  0  0  0
  -24.8793  -28.9004   20.0935 C   0  0  0  0  0  0
  -22.7510  -29.4537   22.4878 C   0  0  0  0  0  0
  -18.0295  -28.1359   22.8508 C   0  0  0  0  0  0
  -24.1502  -36.7259   23.2616 C   0  0  0  0  0  0
  -25.9866  -30.7236   21.3839 C   0  0  0  0  0  0
  -26.0521  -29.3416   20.7150 C   0  0  0  0  0  0
  -27.2109  -28.4808   20.7213 C   0  0  0  0  0  0
  -26.0042  -26.8118   19.4634 C   0  0  0  0  0  0
  -24.8691  -27.6505   19.4477 C   0  0  0  0  0  0
  -23.6520  -29.7975   20.1511 C   0  0  0  0  0  0
  -25.4124  -36.3024   24.0298 C   0  0  1  0  0  0
  -20.5914  -28.3671   23.1277 C   0  0  2  0  0  0
  -20.6790  -26.9389   22.5413 C   0  0  0  0  0  0
  -19.5743  -26.6353   21.5223 C   0  0  0  0  0  0
  -18.1930  -26.7909   22.1645 C   0  0  0  0  0  0
  -19.1551  -28.8827   23.2899 C   0  0  0  0  0  0
  -18.9466  -30.1431   23.8910 C   0  0  0  0  0  0
  -17.6453  -30.6569   24.0560 C   0  0  0  0  0  0
  -25.9091  -34.9420   23.5025 C   0  0  0  0  0  0
  -16.5354  -29.9063   23.6329 C   0  0  0  0  0  0
  -16.7273  -28.6477   23.0376 C   0  0  0  0  0  0
  -26.4474  -31.6588   25.0677 C   0  0  0  0  0  0
  -25.3633  -31.3861   26.1358 C   0  0  0  0  0  0
  -27.0312  -30.2965   24.6308 C   0  0  0  0  0  0
  -27.5991  -32.4376   25.7460 C   0  0  0  0  0  0
  -27.5627  -37.1720   24.8409 C   0  0  0  0  0  0
  -21.4213  -29.2990   22.3647 N   0  0  0  0  0  0
  -26.4272  -37.3764   23.9460 N   0  0  0  0  0  0
  -24.7054  -31.0350   22.0900 N   0  0  0  0  0  0
  -23.4198  -28.8107   23.3022 O   0  0  0  0  0  0
  -28.2594  -26.2016   20.2491 O   0  0  0  0  0  0
  -26.5695  -34.8928   22.4621 O   0  0  0  0  0  0
  -23.5513  -32.1313   23.7125 O   0  0  0  0  0  0
  -28.8037  -18.3755   21.0993 C   0  0  0  0  0  0
  -29.3168  -20.4400   19.9436 C   0  0  0  0  0  0
  -29.7414  -17.5224   20.4149 C   0  0  0  0  0  0
  -30.3198  -19.5934   19.2976 C   0  0  0  0  0  0
  -29.0478  -22.0093   19.5472 C   0  0  0  0  0  0
  -25.9464  -21.7750   20.8868 C   0  0  0  0  0  0
  -26.5873  -22.9208   20.0698 C   0  0  0  0  0  0
  -28.3578  -24.7853   19.6186 C   0  0  0  0  0  0
  -28.1224  -23.2132   20.2199 C   0  0  2  0  0  0
  -28.5952  -19.7410   20.8870 N   0  0  0  0  0  0
  -30.5059  -18.2269   19.5127 N   0  0  0  0  0  0
  -31.2563  -20.0925   18.3890 N   0  0  0  0  0  0
  -29.7303  -16.0175   20.6840 N   0  0  0  0  0  0
  -29.6132  -22.4120   18.5196 O   0  0  0  0  0  0
  -28.3982  -23.2722   21.5233 F   0  0  0  0  0  0
  -31.4750  -12.7013   19.1643 H   0  0  0  0  0  0
  -30.4003  -11.5716   19.9470 H   0  0  0  0  0  0
  -29.8019  -11.8383   17.4963 H   0  0  0  0  0  0
  -29.5996  -13.5461   17.7358 H   0  0  0  0  0  0
  -27.9326  -11.3088   18.9288 H   0  0  0  0  0  0
  -27.3739  -12.5444   17.8212 H   0  0  0  0  0  0
  -27.6135  -14.2701   19.4780 H   0  0  0  0  0  0
  -28.7650  -12.2127   21.4176 H   0  0  0  0  0  0
  -28.4168  -13.8757   21.8161 H   0  0  0  0  0  0
  -25.2749   -9.5582   22.4738 H   0  0  0  0  0  0
  -23.9983   -7.4557   22.7396 H   0  0  0  0  0  0
  -21.0832   -8.8821   19.8949 H   0  0  0  0  0  0
  -22.3722  -10.9699   19.6202 H   0  0  0  0  0  0
  -21.2012   -7.6130   23.9751 H   0  0  0  0  0  0
  -21.1571   -6.0498   25.9111 H   0  0  0  0  0  0
  -22.0541   -2.7580   23.2841 H   0  0  0  0  0  0
  -22.4065  -11.9965   22.4942 H   0  0  0  0  0  0
  -21.1084  -13.1340   22.2709 H   0  0  0  0  0  0
  -24.6351  -15.8287   20.6278 H   0  0  0  0  0  0
  -26.2601  -15.6737   20.1844 H   0  0  0  0  0  0
  -26.7219  -32.5298   23.0919 H   0  0  0  0  0  0
  -25.0042  -33.9593   25.0243 H   0  0  0  0  0  0
  -22.7337  -31.2901   21.3921 H   0  0  0  0  0  0
  -23.3821  -35.9526   23.3121 H   0  0  0  0  0  0
  -24.3618  -36.9057   22.2063 H   0  0  0  0  0  0
  -23.7159  -37.6366   23.6759 H   0  0  0  0  0  0
  -26.1571  -31.4940   20.6288 H   0  0  0  0  0  0
  -26.8478  -30.7517   22.0398 H   0  0  0  0  0  0
  -28.1026  -28.8165   21.2323 H   0  0  0  0  0  0
  -25.9183  -25.8528   18.9766 H   0  0  0  0  0  0
  -23.9741  -27.3225   18.9372 H   0  0  0  0  0  0
  -23.7567  -30.5730   19.3891 H   0  0  0  0  0  0
  -22.7654  -29.2298   19.8619 H   0  0  0  0  0  0
  -25.1290  -36.1819   25.0779 H   0  0  0  0  0  0
  -20.9986  -28.3223   24.1402 H   0  0  0  0  0  0
  -20.5681  -26.2244   23.3594 H   0  0  0  0  0  0
  -21.6658  -26.7392   22.1203 H   0  0  0  0  0  0
  -19.6906  -25.6251   21.1260 H   0  0  0  0  0  0
  -19.6698  -27.3149   20.6741 H   0  0  0  0  0  0
  -17.4197  -26.6630   21.4067 H   0  0  0  0  0  0
  -18.0363  -26.0039   22.9023 H   0  0  0  0  0  0
  -19.7931  -30.7262   24.2286 H   0  0  0  0  0  0
  -17.5001  -31.6255   24.5134 H   0  0  0  0  0  0
  -15.5356  -30.2967   23.7628 H   0  0  0  0  0  0
  -15.8681  -28.0775   22.7112 H   0  0  0  0  0  0
  -24.5713  -30.7338   25.7646 H   0  0  0  0  0  0
  -24.8950  -32.3112   26.4748 H   0  0  0  0  0  0
  -25.7834  -30.8979   27.0155 H   0  0  0  0  0  0
  -26.2905  -29.6705   24.1309 H   0  0  0  0  0  0
  -27.3857  -29.7269   25.4904 H   0  0  0  0  0  0
  -27.8857  -30.4145   23.9641 H   0  0  0  0  0  0
  -27.2521  -33.3637   26.2057 H   0  0  0  0  0  0
  -28.3778  -32.7021   25.0294 H   0  0  0  0  0  0
  -28.0689  -31.8524   26.5369 H   0  0  0  0  0  0
  -28.2464  -38.0201   24.7764 H   0  0  0  0  0  0
  -28.1322  -36.2768   24.5847 H   0  0  0  0  0  0
  -27.2414  -37.0877   25.8810 H   0  0  0  0  0  0
  -20.9361  -29.8699   21.6872 H   0  0  0  0  0  0
  -26.0139  -38.2801   24.1629 H   0  0  0  0  0  0
  -28.1740  -17.9335   21.8565 H   0  0  0  0  0  0
  -24.8562  -21.8236   20.8198 H   0  0  0  0  0  0
  -26.1966  -21.8389   21.9446 H   0  0  0  0  0  0
  -26.2233  -20.7896   20.5186 H   0  0  0  0  0  0
  -26.0288  -23.8261   20.3136 H   0  0  0  0  0  0
  -26.3666  -22.7366   19.0167 H   0  0  0  0  0  0
  -27.8725  -24.8335   18.6426 H   0  0  0  0  0  0
  -29.4154  -24.7953   19.3583 H   0  0  0  0  0  0
  -31.2845  -21.0818   18.1683 H   0  0  0  0  0  0
  -31.9911  -19.5263   17.9854 H   0  0  0  0  0  0
  -28.8693  -15.7282   21.1247 H   0  0  0  0  0  0
  1 25  1  0  0  0
  1 30  2  0  0  0
  1 83  1  0  0  0
  2  3  1  0  0  0
  2 25  1  0  0  0
  2 86  1  0  0  0
  2 87  1  0  0  0
  3  4  1  0  0  0
  3 88  1  0  0  0
  3 89  1  0  0  0
  4  5  1  0  0  0
  4 90  1  0  0  0
  4 91  1  0  0  0
  5  6  1  0  0  0
  5 26  1  0  0  0
  5 92  1  0  0  0
  6 25  1  0  0  0
  6 93  1  0  0  0
  6 94  1  0  0  0
  7  8  2  0  0  0
  7 26  1  0  0  0
  7 29  1  0  0  0
  8  9  1  0  0  0
  8 22  1  0  0  0
  9 10  1  0  0  0
  9 27  2  0  0  0
 10 11  2  0  0  0
 10 15  1  0  0  0
 11 12  1  0  0  0
 11 95  1  0  0  0
 12 13  2  0  0  0
 12 96  1  0  0  0
 13 14  1  0  0  0
 13 31  1  0  0  0
 14 15  2  0  0  0
 14 97  1  0  0  0
 15 98  1  0  0  0
 16 17  2  0  0  0
 16 21  1  0  0  0
 16 31  1  0  0  0
 17 18  1  0  0  0
 17 99  1  0  0  0
 18 19  2  0  0  0
 18100  1  0  0  0
 19 20  1  0  0  0
 19 24  1  0  0  0
 20 21  2  0  0  0
 20101  1  0  0  0
 21 23  1  0  0  0
 22 28  1  0  0  0
 22 32  2  0  0  0
 26 27  1  0  0  0
 28102  1  0  0  0
 28103  1  0  0  0
 29104  1  0  0  0
 29105  1  0  0  0
 33 34  1  0  0  0
 33 66  1  0  0  0
 33 70  2  0  0  0
 34 36  1  0  0  0
 34 59  1  0  0  0
 34106  1  0  0  0
 35 44  2  0  0  0
 35 45  1  0  0  0
 35 68  1  0  0  0
 36 56  1  0  0  0
 36107  1  0  0  0
 37 39  1  0  0  0
 37 47  1  0  0  0
 37 66  1  0  0  0
 37108  1  0  0  0
 38 43  2  0  0  0
 38 46  1  0  0  0
 38 47  1  0  0  0
 39 64  1  0  0  0
 39 67  2  0  0  0
 40 52  1  0  0  0
 40 53  2  0  0  0
 40 58  1  0  0  0
 41109  1  0  0  0
 41110  1  0  0  0
 41111  1  0  0  0
 41 48  1  0  0  0
 42 43  1  0  0  0
 42 66  1  0  0  0
 42112  1  0  0  0
 42113  1  0  0  0
 43 44  1  0  0  0
 44114  1  0  0  0
 45 46  2  0  0  0
 45115  1  0  0  0
 46116  1  0  0  0
 47117  1  0  0  0
 47118  1  0  0  0
 48 56  1  0  0  0
 48 65  1  0  0  0
 48119  1  0  0  0
 49 50  1  0  0  0
 49 53  1  0  0  0
 49 64  1  0  0  0
 49120  1  0  0  0
 50 51  1  0  0  0
 50121  1  0  0  0
 50122  1  0  0  0
 51 52  1  0  0  0
 51123  1  0  0  0
 51124  1  0  0  0
 52125  1  0  0  0
 52126  1  0  0  0
 53 54  1  0  0  0
 54 55  2  0  0  0
 54127  1  0  0  0
 55 57  1  0  0  0
 55128  1  0  0  0
 56 69  2  0  0  0
 57 58  2  0  0  0
 57129  1  0  0  0
 58130  1  0  0  0
 59 60  1  0  0  0
 59 61  1  0  0  0
 59 62  1  0  0  0
 60131  1  0  0  0
 60132  1  0  0  0
 60133  1  0  0  0
 61134  1  0  0  0
 61135  1  0  0  0
 61136  1  0  0  0
 62137  1  0  0  0
 62138  1  0  0  0
 62139  1  0  0  0
 63 65  1  0  0  0
 63140  1  0  0  0
 63141  1  0  0  0
 63142  1  0  0  0
 64143  1  0  0  0
 65144  1  0  0  0
 68 78  1  0  0  0
 71 73  2  0  0  0
 71 80  1  0  0  0
 71145  1  0  0  0
 72 74  1  0  0  0
 72 75  1  0  0  0
 72 80  2  0  0  0
 73 81  1  0  0  0
 73 83  1  0  0  0
 74 81  2  0  0  0
 74 82  1  0  0  0
 75 79  1  0  0  0
 75 84  2  0  0  0
 76 77  1  0  0  0
 76146  1  0  0  0
 76147  1  0  0  0
 76148  1  0  0  0
 77 79  1  0  0  0
 77149  1  0  0  0
 77150  1  0  0  0
 78 79  1  0  0  0
 78151  1  0  0  0
 78152  1  0  0  0
 79 85  1  0  0  0
 82153  1  0  0  0
 82154  1  0  0  0
 83155  1  0  0  0
M  ISO  4   1 100  68 101  78 101  83 100
M  END
> <chiral flag>
0

> <version>
0

> <s_m_source_file>
/data/baiqing/PycharmProjects/Reinvent-master-3.2/result/LINK_invent/BTK/process_docking_weight1_custom_product_contain_oxygen_bond_distance_aromatic_linkinvent_7_9_3/rearranged_h_0185.sdf

> <i_m_source_file_index>
81

> <r_mmod_Potential_Energy-OPLS-2005>
641.253967285156

> <r_mmod_Stretch_Energy-OPLS-2005>
248.275314331055

> <r_mmod_Bend_Energy-OPLS-2005>
310.736602783203

> <r_mmod_Torsional_Energy-OPLS-2005>
215.167724609375

> <r_mmod_Improper_Torsional_Energy-OPLS-2005>
3.28749489784241

> <r_mmod_Van_der_Waal_Energy-OPLS-2005>
135.44482421875

> <r_mmod_Electrostatic_Energy-OPLS-2005>
-194.502166748047

> <r_mmod_Solvation_Energy-OPLS-2005>
-240.121337890625

> <b_mmod_Minimization_Converged-OPLS-2005>
0

> <r_mmod_RMS_Derivative-OPLS-2005>
7.41121196746826

$$$$
81
                    3D
 Structure written by MMmdl.
161169  0  0  1  0            999 V2000
  -30.5939  -14.7500   20.4414 C   0  0  0  0  0  0
  -30.4454  -12.4590   19.4562 C   0  0  0  0  0  0
  -29.5144  -12.5381   18.2273 C   0  0  0  0  0  0
  -28.0408  -12.3571   18.6371 C   0  0  0  0  0  0
  -27.6491  -13.2326   19.8556 C   0  0  2  0  0  0
  -28.6992  -13.1382   20.9863 C   0  0  0  0  0  0
  -25.2528  -13.8201   20.5699 C   0  0  0  0  0  0
  -24.1816  -13.0452   20.9235 C   0  0  0  0  0  0
  -24.6405  -11.6928   20.8721 C   0  0  0  0  0  0
  -23.9067  -10.4301   21.0393 C   0  0  0  0  0  0
  -24.3603   -9.4220   21.9174 C   0  0  0  0  0  0
  -23.6285   -8.2236   22.0732 C   0  0  0  0  0  0
  -22.4259   -8.0261   21.3553 C   0  0  0  0  0  0
  -21.9906   -9.0230   20.4650 C   0  0  0  0  0  0
  -22.7219  -10.2125   20.3051 C   0  0  0  0  0  0
  -21.6846   -6.0722   22.5277 C   0  0  0  0  0  0
  -21.4015   -6.5619   23.8204 C   0  0  0  0  0  0
  -21.3676   -5.6765   24.9164 C   0  0  0  0  0  0
  -21.6036   -4.3028   24.7224 C   0  0  0  0  0  0
  -21.8819   -3.8136   23.4331 C   0  0  0  0  0  0
  -21.9198   -4.6953   22.3400 C   0  0  0  0  0  0
  -22.7832  -13.5237   21.1873 C   0  0  0  0  0  0
  -22.1644   -4.2152   21.0979 F   0  0  0  0  0  0
  -21.5644   -3.4511   25.7728 F   0  0  0  0  0  0
  -30.0043  -13.5009   20.4127 N   0  0  0  0  0  0
  -26.2965  -12.9399   20.3262 N   0  0  0  0  0  0
  -25.9326  -11.6547   20.5681 N   0  0  0  0  0  0
  -22.0443  -12.8224   22.0405 N   0  0  0  0  0  0
  -25.4205  -15.1937   20.4084 N   0  0  0  0  0  0
  -31.7744  -14.8806   20.1025 O   0  0  0  0  0  0
  -21.6627   -6.8853   21.4233 O   0  0  0  0  0  0
  -22.3509  -14.5538   20.6715 O   0  0  0  0  0  0
  -24.6349  -31.8528   23.1969 C   0  0  0  0  0  0
  -25.9187  -32.4725   23.8314 C   0  0  1  0  0  0
  -27.2216  -27.2562   20.1038 C   0  0  0  0  0  0
  -25.5993  -33.8521   24.2264 N   0  0  0  0  0  0
  -23.4290  -30.4749   21.5407 C   0  0  2  0  0  0
  -24.8731  -28.9171   20.1041 C   0  0  0  0  0  0
  -22.7528  -29.4578   22.4899 C   0  0  0  0  0  0
  -18.0320  -28.1378   22.8469 C   0  0  0  0  0  0
  -24.1475  -36.7245   23.2626 C   0  0  0  0  0  0
  -25.9744  -30.7622   21.3737 C   0  0  0  0  0  0
  -26.0443  -29.3835   20.7132 C   0  0  0  0  0  0
  -27.2157  -28.5620   20.7062 C   0  0  0  0  0  0
  -26.0172  -26.8428   19.4945 C   0  0  0  0  0  0
  -24.8619  -27.6539   19.4909 C   0  0  0  0  0  0
  -23.6456  -29.8064   20.1551 C   0  0  0  0  0  0
  -25.4087  -36.3025   24.0329 C   0  0  1  0  0  0
  -20.5916  -28.3668   23.1277 C   0  0  2  0  0  0
  -20.6786  -26.9378   22.5414 C   0  0  0  0  0  0
  -19.5775  -26.6371   21.5208 C   0  0  0  0  0  0
  -18.1956  -26.7931   22.1607 C   0  0  0  0  0  0
  -19.1570  -28.8854   23.2864 C   0  0  0  0  0  0
  -18.9468  -30.1461   23.8867 C   0  0  0  0  0  0
  -17.6452  -30.6571   24.0557 C   0  0  0  0  0  0
  -25.9043  -34.9405   23.5080 C   0  0  0  0  0  0
  -16.5352  -29.9050   23.6316 C   0  0  0  0  0  0
  -16.7305  -28.6488   23.0301 C   0  0  0  0  0  0
  -26.4532  -31.6563   25.0724 C   0  0  0  0  0  0
  -25.3763  -31.3719   26.1458 C   0  0  0  0  0  0
  -27.0357  -30.2975   24.6205 C   0  0  0  0  0  0
  -27.6083  -32.4281   25.7510 C   0  0  0  0  0  0
  -27.5573  -37.1748   24.8435 C   0  0  0  0  0  0
  -21.4231  -29.3016   22.3675 N   0  0  0  0  0  0
  -26.4242  -37.3741   23.9438 N   0  0  0  0  0  0
  -24.6990  -31.0488   22.0931 N   0  0  0  0  0  0
  -23.4248  -28.8081   23.2958 O   0  0  0  0  0  0
  -28.3383  -26.3939   20.1717 O   0  0  0  0  0  0
  -26.5565  -34.8900   22.4614 O   0  0  0  0  0  0
  -23.5514  -32.1343   23.7288 O   0  0  0  0  0  0
  -29.2158  -19.8007   19.9750 C   0  0  0  0  0  0
  -30.5086  -19.3869   19.6573 C   0  0  0  0  0  0
  -29.8012  -17.2854   20.4326 C   0  0  0  0  0  0
  -28.2421  -23.6942   20.1208 C   0  0  0  0  0  0
  -26.1727  -21.5361   18.2980 C   0  0  0  0  0  0
  -27.3664  -19.4309   17.8334 C   0  0  0  0  0  0
  -28.3590  -21.5707   17.0675 C   0  0  0  0  0  0
  -28.4751  -25.1115   19.3976 C   0  0  0  0  0  0
  -28.3511  -21.0977   19.6169 C   0  0  2  0  0  0
  -27.5844  -20.9114   18.2347 C   0  0  0  0  0  0
  -30.8056  -18.0070   19.8933 N   0  0  0  0  0  0
  -31.4967  -20.1843   19.0785 N   0  0  0  0  0  0
  -29.7605  -15.8257   20.6981 N   0  0  0  0  0  0
  -28.8797  -22.5395   19.6773 N   0  0  0  0  0  0
  -27.4051  -23.6329   21.0240 O   0  0  0  0  0  0
  -28.4238  -18.3897   20.7474 S   0  0  0  0  0  0
  -31.4830  -12.5921   19.1497 H   0  0  0  0  0  0
  -30.3909  -11.4713   19.9162 H   0  0  0  0  0  0
  -29.7907  -11.7930   17.4803 H   0  0  0  0  0  0
  -29.6340  -13.5085   17.7411 H   0  0  0  0  0  0
  -27.8823  -11.3022   18.8661 H   0  0  0  0  0  0
  -27.3941  -12.5841   17.7905 H   0  0  0  0  0  0
  -27.6526  -14.2614   19.4934 H   0  0  0  0  0  0
  -28.7319  -12.1261   21.3941 H   0  0  0  0  0  0
  -28.4369  -13.7865   21.8221 H   0  0  0  0  0  0
  -25.2728   -9.5708   22.4764 H   0  0  0  0  0  0
  -24.0009   -7.4629   22.7429 H   0  0  0  0  0  0
  -21.0837   -8.8741   19.8959 H   0  0  0  0  0  0
  -22.3653  -10.9647   19.6161 H   0  0  0  0  0  0
  -21.1985   -7.6113   23.9722 H   0  0  0  0  0  0
  -21.1503   -6.0482   25.9076 H   0  0  0  0  0  0
  -22.0602   -2.7601   23.2833 H   0  0  0  0  0  0
  -22.3990  -11.9875   22.4845 H   0  0  0  0  0  0
  -21.1079  -13.1300   22.2582 H   0  0  0  0  0  0
  -24.6471  -15.8389   20.5163 H   0  0  0  0  0  0
  -26.2286  -15.6248   19.9819 H   0  0  0  0  0  0
  -26.7248  -32.5369   23.1055 H   0  0  0  0  0  0
  -25.0226  -33.9621   25.0473 H   0  0  0  0  0  0
  -22.7281  -31.2990   21.3955 H   0  0  0  0  0  0
  -23.3768  -35.9544   23.3203 H   0  0  0  0  0  0
  -24.3603  -36.8953   22.2063 H   0  0  0  0  0  0
  -23.7200  -37.6413   23.6699 H   0  0  0  0  0  0
  -26.1109  -31.5255   20.6067 H   0  0  0  0  0  0
  -26.8547  -30.8132   22.0027 H   0  0  0  0  0  0
  -28.1132  -28.9094   21.1981 H   0  0  0  0  0  0
  -25.9267  -25.8601   19.0557 H   0  0  0  0  0  0
  -23.9559  -27.2821   19.0316 H   0  0  0  0  0  0
  -23.7704  -30.5812   19.3979 H   0  0  0  0  0  0
  -22.7624  -29.2428   19.8486 H   0  0  0  0  0  0
  -25.1252  -36.1832   25.0820 H   0  0  0  0  0  0
  -21.0003  -28.3242   24.1401 H   0  0  0  0  0  0
  -20.5675  -26.2250   23.3599 H   0  0  0  0  0  0
  -21.6645  -26.7387   22.1206 H   0  0  0  0  0  0
  -19.6882  -25.6280   21.1242 H   0  0  0  0  0  0
  -19.6719  -27.3165   20.6728 H   0  0  0  0  0  0
  -17.4199  -26.6691   21.4036 H   0  0  0  0  0  0
  -18.0339  -26.0130   22.9048 H   0  0  0  0  0  0
  -19.7929  -30.7327   24.2216 H   0  0  0  0  0  0
  -17.4971  -31.6240   24.5172 H   0  0  0  0  0  0
  -15.5328  -30.2881   23.7707 H   0  0  0  0  0  0
  -15.8721  -28.0815   22.6948 H   0  0  0  0  0  0
  -24.5913  -30.7090   25.7808 H   0  0  0  0  0  0
  -24.8985  -32.2887   26.4916 H   0  0  0  0  0  0
  -25.8107  -30.8879   27.0214 H   0  0  0  0  0  0
  -26.2914  -29.6742   24.1236 H   0  0  0  0  0  0
  -27.4038  -29.7239   25.4724 H   0  0  0  0  0  0
  -27.8803  -30.4256   23.9430 H   0  0  0  0  0  0
  -27.2716  -33.3590   26.2077 H   0  0  0  0  0  0
  -28.3924  -32.6818   25.0369 H   0  0  0  0  0  0
  -28.0708  -31.8407   26.5455 H   0  0  0  0  0  0
  -28.2473  -38.0150   24.7580 H   0  0  0  0  0  0
  -28.1178  -36.2678   24.6089 H   0  0  0  0  0  0
  -27.2317  -37.1188   25.8839 H   0  0  0  0  0  0
  -20.9418  -29.8788   21.6920 H   0  0  0  0  0  0
  -26.0108  -38.2795   24.1529 H   0  0  0  0  0  0
  -25.6202  -21.3625   17.3731 H   0  0  0  0  0  0
  -26.2031  -22.6133   18.4460 H   0  0  0  0  0  0
  -25.5839  -21.1115   19.1126 H   0  0  0  0  0  0
  -26.8496  -19.3408   16.8771 H   0  0  0  0  0  0
  -26.7512  -18.9035   18.5635 H   0  0  0  0  0  0
  -28.3043  -18.8883   17.7124 H   0  0  0  0  0  0
  -27.9667  -21.2595   16.0985 H   0  0  0  0  0  0
  -29.4157  -21.3020   17.0841 H   0  0  0  0  0  0
  -28.2863  -22.6581   17.0873 H   0  0  0  0  0  0
  -27.8707  -25.1362   18.4910 H   0  0  0  0  0  0
  -29.5019  -25.1027   19.0327 H   0  0  0  0  0  0
  -27.5763  -21.0845   20.3828 H   0  0  0  0  0  0
  -31.4574  -21.1881   19.2206 H   0  0  0  0  0  0
  -32.4446  -19.8267   19.0535 H   0  0  0  0  0  0
  -28.8643  -15.5205   21.0419 H   0  0  0  0  0  0
  -29.6121  -22.7209   19.0050 H   0  0  0  0  0  0
  1 25  1  0  0  0
  1 30  2  0  0  0
  1 83  1  0  0  0
  2  3  1  0  0  0
  2 25  1  0  0  0
  2 87  1  0  0  0
  2 88  1  0  0  0
  3  4  1  0  0  0
  3 89  1  0  0  0
  3 90  1  0  0  0
  4  5  1  0  0  0
  4 91  1  0  0  0
  4 92  1  0  0  0
  5  6  1  0  0  0
  5 26  1  0  0  0
  5 93  1  0  0  0
  6 25  1  0  0  0
  6 94  1  0  0  0
  6 95  1  0  0  0
  7  8  2  0  0  0
  7 26  1  0  0  0
  7 29  1  0  0  0
  8  9  1  0  0  0
  8 22  1  0  0  0
  9 10  1  0  0  0
  9 27  2  0  0  0
 10 11  2  0  0  0
 10 15  1  0  0  0
 11 12  1  0  0  0
 11 96  1  0  0  0
 12 13  2  0  0  0
 12 97  1  0  0  0
 13 14  1  0  0  0
 13 31  1  0  0  0
 14 15  2  0  0  0
 14 98  1  0  0  0
 15 99  1  0  0  0
 16 17  2  0  0  0
 16 21  1  0  0  0
 16 31  1  0  0  0
 17 18  1  0  0  0
 17100  1  0  0  0
 18 19  2  0  0  0
 18101  1  0  0  0
 19 20  1  0  0  0
 19 24  1  0  0  0
 20 21  2  0  0  0
 20102  1  0  0  0
 21 23  1  0  0  0
 22 28  1  0  0  0
 22 32  2  0  0  0
 26 27  1  0  0  0
 28103  1  0  0  0
 28104  1  0  0  0
 29105  1  0  0  0
 29106  1  0  0  0
 33 34  1  0  0  0
 33 66  1  0  0  0
 33 70  2  0  0  0
 34 36  1  0  0  0
 34 59  1  0  0  0
 34107  1  0  0  0
 35 44  2  0  0  0
 35 45  1  0  0  0
 35 68  1  0  0  0
 36 56  1  0  0  0
 36108  1  0  0  0
 37 39  1  0  0  0
 37 47  1  0  0  0
 37 66  1  0  0  0
 37109  1  0  0  0
 38 43  2  0  0  0
 38 46  1  0  0  0
 38 47  1  0  0  0
 39 64  1  0  0  0
 39 67  2  0  0  0
 40 52  1  0  0  0
 40 53  2  0  0  0
 40 58  1  0  0  0
 41110  1  0  0  0
 41111  1  0  0  0
 41112  1  0  0  0
 41 48  1  0  0  0
 42 43  1  0  0  0
 42 66  1  0  0  0
 42113  1  0  0  0
 42114  1  0  0  0
 43 44  1  0  0  0
 44115  1  0  0  0
 45 46  2  0  0  0
 45116  1  0  0  0
 46117  1  0  0  0
 47118  1  0  0  0
 47119  1  0  0  0
 48 56  1  0  0  0
 48 65  1  0  0  0
 48120  1  0  0  0
 49 50  1  0  0  0
 49 53  1  0  0  0
 49 64  1  0  0  0
 49121  1  0  0  0
 50 51  1  0  0  0
 50122  1  0  0  0
 50123  1  0  0  0
 51 52  1  0  0  0
 51124  1  0  0  0
 51125  1  0  0  0
 52126  1  0  0  0
 52127  1  0  0  0
 53 54  1  0  0  0
 54 55  2  0  0  0
 54128  1  0  0  0
 55 57  1  0  0  0
 55129  1  0  0  0
 56 69  2  0  0  0
 57 58  2  0  0  0
 57130  1  0  0  0
 58131  1  0  0  0
 59 60  1  0  0  0
 59 61  1  0  0  0
 59 62  1  0  0  0
 60132  1  0  0  0
 60133  1  0  0  0
 60134  1  0  0  0
 61135  1  0  0  0
 61136  1  0  0  0
 61137  1  0  0  0
 62138  1  0  0  0
 62139  1  0  0  0
 62140  1  0  0  0
 63 65  1  0  0  0
 63141  1  0  0  0
 63142  1  0  0  0
 63143  1  0  0  0
 64144  1  0  0  0
 65145  1  0  0  0
 68 78  1  0  0  0
 71 72  2  0  0  0
 71 79  1  0  0  0
 71 86  1  0  0  0
 72 81  1  0  0  0
 72 82  1  0  0  0
 73 81  2  0  0  0
 73 83  1  0  0  0
 73 86  1  0  0  0
 74 78  1  0  0  0
 74 84  1  0  0  0
 74 85  2  0  0  0
 75146  1  0  0  0
 75147  1  0  0  0
 75148  1  0  0  0
 75 80  1  0  0  0
 76 80  1  0  0  0
 76149  1  0  0  0
 76150  1  0  0  0
 76151  1  0  0  0
 77 80  1  0  0  0
 77152  1  0  0  0
 77153  1  0  0  0
 77154  1  0  0  0
 78155  1  0  0  0
 78156  1  0  0  0
 79 80  1  0  0  0
 79 84  1  0  0  0
 79157  1  0  0  0
 82158  1  0  0  0
 82159  1  0  0  0
 83160  1  0  0  0
 84161  1  0  0  0
M  ISO  4   1 100  68 101  78 101  83 100
M  END
> <chiral flag>
0

> <version>
0

> <s_m_source_file>
/data/baiqing/PycharmProjects/Reinvent-master-3.2/result/LINK_invent/BTK/process_docking_weight1_custom_product_contain_oxygen_bond_distance_aromatic_linkinvent_7_9_3/rearranged_h_0185.sdf

> <i_m_source_file_index>
82

> <r_mmod_Potential_Energy-OPLS-2005>
16.1321678161621

> <r_mmod_Stretch_Energy-OPLS-2005>
126.044631958008

> <r_mmod_Bend_Energy-OPLS-2005>
211.54963684082

> <r_mmod_Torsional_Energy-OPLS-2005>
220.039672851562

> <r_mmod_Improper_Torsional_Energy-OPLS-2005>
10.7859296798706

> <r_mmod_Van_der_Waal_Energy-OPLS-2005>
117.110427856445

> <r_mmod_Electrostatic_Energy-OPLS-2005>
-491.191009521484

> <r_mmod_Solvation_Energy-OPLS-2005>
-262.850128173828

> <b_mmod_Minimization_Converged-OPLS-2005>
0

> <r_mmod_RMS_Derivative-OPLS-2005>
4.86349534988403

$$$$
82
                    3D
 Structure written by MMmdl.
147155  0  0  1  0            999 V2000
  -30.5996  -14.7629   20.5112 C   0  0  0  0  0  0
  -30.4428  -12.4900   19.4564 C   0  0  0  0  0  0
  -29.5040  -12.5120   18.2278 C   0  0  0  0  0  0
  -28.0314  -12.3316   18.6484 C   0  0  0  0  0  0
  -27.6380  -13.2283   19.8538 C   0  0  2  0  0  0
  -28.6886  -13.1532   20.9830 C   0  0  0  0  0  0
  -25.2487  -13.8185   20.5726 C   0  0  0  0  0  0
  -24.1790  -13.0454   20.9235 C   0  0  0  0  0  0
  -24.6371  -11.6915   20.8756 C   0  0  0  0  0  0
  -23.9043  -10.4299   21.0408 C   0  0  0  0  0  0
  -24.3596   -9.4206   21.9179 C   0  0  0  0  0  0
  -23.6273   -8.2232   22.0748 C   0  0  0  0  0  0
  -22.4254   -8.0275   21.3533 C   0  0  0  0  0  0
  -21.9891   -9.0266   20.4638 C   0  0  0  0  0  0
  -22.7220  -10.2148   20.3058 C   0  0  0  0  0  0
  -21.6864   -6.0726   22.5284 C   0  0  0  0  0  0
  -21.4010   -6.5632   23.8203 C   0  0  0  0  0  0
  -21.3648   -5.6796   24.9160 C   0  0  0  0  0  0
  -21.6055   -4.3054   24.7222 C   0  0  0  0  0  0
  -21.8818   -3.8142   23.4338 C   0  0  0  0  0  0
  -21.9189   -4.6955   22.3400 C   0  0  0  0  0  0
  -22.7809  -13.5215   21.1891 C   0  0  0  0  0  0
  -22.1663   -4.2143   21.0986 F   0  0  0  0  0  0
  -21.5626   -3.4536   25.7745 F   0  0  0  0  0  0
  -29.9798  -13.5351   20.3967 N   0  0  0  0  0  0
  -26.2916  -12.9388   20.3321 N   0  0  0  0  0  0
  -25.9295  -11.6540   20.5777 N   0  0  0  0  0  0
  -22.0457  -12.8228   22.0443 N   0  0  0  0  0  0
  -25.4187  -15.1925   20.4128 N   0  0  0  0  0  0
  -31.7993  -14.8645   20.2327 O   0  0  0  0  0  0
  -21.6652   -6.8869   21.4243 O   0  0  0  0  0  0
  -22.3503  -14.5530   20.6734 O   0  0  0  0  0  0
  -24.6346  -31.8468   23.1997 C   0  0  0  0  0  0
  -25.9181  -32.4689   23.8328 C   0  0  1  0  0  0
  -27.2311  -27.2255   20.1795 C   0  0  0  0  0  0
  -25.5993  -33.8497   24.2235 N   0  0  0  0  0  0
  -23.4334  -30.4758   21.5342 C   0  0  2  0  0  0
  -24.8862  -28.9044   20.1198 C   0  0  0  0  0  0
  -22.7505  -29.4603   22.4825 C   0  0  0  0  0  0
  -18.0276  -28.1406   22.8428 C   0  0  0  0  0  0
  -24.1482  -36.7233   23.2643 C   0  0  0  0  0  0
  -25.9838  -30.7439   21.3945 C   0  0  0  0  0  0
  -26.0550  -29.3641   20.7416 C   0  0  0  0  0  0
  -27.2291  -28.5414   20.7596 C   0  0  0  0  0  0
  -26.0481  -26.8362   19.5133 C   0  0  0  0  0  0
  -24.8909  -27.6479   19.4908 C   0  0  0  0  0  0
  -23.6600  -29.8032   20.1555 C   0  0  0  0  0  0
  -25.4111  -36.2993   24.0305 C   0  0  1  0  0  0
  -20.5900  -28.3750   23.1204 C   0  0  2  0  0  0
  -20.6800  -26.9453   22.5396 C   0  0  0  0  0  0
  -19.5783  -26.6396   21.5193 C   0  0  0  0  0  0
  -18.1952  -26.7944   22.1584 C   0  0  0  0  0  0
  -19.1541  -28.8880   23.2807 C   0  0  0  0  0  0
  -18.9496  -30.1483   23.8827 C   0  0  0  0  0  0
  -17.6496  -30.6604   24.0569 C   0  0  0  0  0  0
  -25.9053  -34.9385   23.5040 C   0  0  0  0  0  0
  -16.5368  -29.9118   23.6356 C   0  0  0  0  0  0
  -16.7284  -28.6546   23.0343 C   0  0  0  0  0  0
  -26.4574  -31.6562   25.0742 C   0  0  0  0  0  0
  -25.3813  -31.3760   26.1490 C   0  0  0  0  0  0
  -27.0484  -30.2957   24.6364 C   0  0  0  0  0  0
  -27.6054  -32.4394   25.7547 C   0  0  0  0  0  0
  -27.5543  -37.1778   24.8466 C   0  0  0  0  0  0
  -21.4221  -29.3071   22.3563 N   0  0  0  0  0  0
  -26.4259  -37.3722   23.9397 N   0  0  0  0  0  0
  -24.7011  -31.0447   22.0957 N   0  0  0  0  0  0
  -23.4154  -28.8090   23.2908 O   0  0  0  0  0  0
  -28.3295  -26.3255   20.2210 O   0  0  0  0  0  0
  -26.5635  -34.8883   22.4621 O   0  0  0  0  0  0
  -23.5486  -32.1330   23.7274 O   0  0  0  0  0  0
  -31.0841  -17.7316   21.7838 C   0  0  0  0  0  0
  -30.0838  -17.3157   20.9306 C   0  0  0  0  0  0
  -29.7426  -19.6934   20.9087 C   0  0  0  0  0  0
  -29.2364  -22.2621   21.0603 C   0  0  0  0  0  0
  -28.1190  -24.8850   20.6655 C   0  0  0  0  0  0
  -29.1106  -23.6518   20.2340 C   0  0  2  0  0  0
  -29.3386  -18.4614   20.4394 N   0  0  0  0  0  0
  -29.7922  -15.8846   20.6662 N   0  0  0  0  0  0
  -29.2414  -21.0135   20.4403 N   0  0  0  0  0  0
  -29.3659  -22.3338   22.2878 O   0  0  0  0  0  0
  -28.9248  -23.3558   18.9415 F   0  0  0  0  0  0
  -31.0915  -19.4829   22.0378 S   0  0  0  0  0  0
  -31.4737  -12.6564   19.1347 H   0  0  0  0  0  0
  -30.4341  -11.5118   19.9401 H   0  0  0  0  0  0
  -29.7875  -11.7284   17.5241 H   0  0  0  0  0  0
  -29.6174  -13.4577   17.6950 H   0  0  0  0  0  0
  -27.8877  -11.2842   18.9103 H   0  0  0  0  0  0
  -27.3699  -12.5268   17.8038 H   0  0  0  0  0  0
  -27.6309  -14.2502   19.4754 H   0  0  0  0  0  0
  -28.7435  -12.1447   21.3968 H   0  0  0  0  0  0
  -28.4196  -13.8108   21.8112 H   0  0  0  0  0  0
  -25.2733   -9.5722   22.4768 H   0  0  0  0  0  0
  -24.0013   -7.4638   22.7451 H   0  0  0  0  0  0
  -21.0832   -8.8748   19.8953 H   0  0  0  0  0  0
  -22.3633  -10.9675   19.6192 H   0  0  0  0  0  0
  -21.2001   -7.6143   23.9710 H   0  0  0  0  0  0
  -21.1473   -6.0524   25.9084 H   0  0  0  0  0  0
  -22.0605   -2.7612   23.2854 H   0  0  0  0  0  0
  -22.4062  -11.9895   22.4850 H   0  0  0  0  0  0
  -21.1075  -13.1241   22.2647 H   0  0  0  0  0  0
  -24.6442  -15.8398   20.5078 H   0  0  0  0  0  0
  -26.2552  -15.6325   20.0554 H   0  0  0  0  0  0
  -26.7212  -32.5307   23.1011 H   0  0  0  0  0  0
  -25.0187  -33.9647   25.0417 H   0  0  0  0  0  0
  -22.7271  -31.2955   21.3845 H   0  0  0  0  0  0
  -23.3723  -35.9590   23.3331 H   0  0  0  0  0  0
  -24.3539  -36.8860   22.2055 H   0  0  0  0  0  0
  -23.7310  -37.6452   23.6681 H   0  0  0  0  0  0
  -26.1539  -31.4917   20.6214 H   0  0  0  0  0  0
  -26.8486  -30.7777   22.0457 H   0  0  0  0  0  0
  -28.1191  -28.8836   21.2733 H   0  0  0  0  0  0
  -26.0075  -25.8785   19.0127 H   0  0  0  0  0  0
  -24.0044  -27.2884   18.9883 H   0  0  0  0  0  0
  -23.8060  -30.5834   19.4076 H   0  0  0  0  0  0
  -22.7714  -29.2558   19.8333 H   0  0  0  0  0  0
  -25.1316  -36.1781   25.0807 H   0  0  0  0  0  0
  -20.9994  -28.3390   24.1326 H   0  0  0  0  0  0
  -20.5737  -26.2347   23.3619 H   0  0  0  0  0  0
  -21.6666  -26.7509   22.1161 H   0  0  0  0  0  0
  -19.6985  -25.6310   21.1251 H   0  0  0  0  0  0
  -19.6758  -27.3176   20.6700 H   0  0  0  0  0  0
  -17.4231  -26.6656   21.4006 H   0  0  0  0  0  0
  -18.0375  -26.0130   22.9012 H   0  0  0  0  0  0
  -19.7989  -30.7318   24.2147 H   0  0  0  0  0  0
  -17.5086  -31.6287   24.5193 H   0  0  0  0  0  0
  -15.5386  -30.3010   23.7790 H   0  0  0  0  0  0
  -15.8670  -28.0913   22.7054 H   0  0  0  0  0  0
  -24.5902  -30.7186   25.7875 H   0  0  0  0  0  0
  -24.9113  -32.2949   26.4981 H   0  0  0  0  0  0
  -25.8150  -30.8894   27.0232 H   0  0  0  0  0  0
  -26.3127  -29.6624   24.1375 H   0  0  0  0  0  0
  -27.4096  -29.7315   25.4974 H   0  0  0  0  0  0
  -27.9026  -30.4192   23.9701 H   0  0  0  0  0  0
  -27.2549  -33.3665   26.2108 H   0  0  0  0  0  0
  -28.3880  -32.7051   25.0427 H   0  0  0  0  0  0
  -28.0710  -31.8576   26.5512 H   0  0  0  0  0  0
  -28.2562  -38.0065   24.7446 H   0  0  0  0  0  0
  -28.1032  -36.2581   24.6350 H   0  0  0  0  0  0
  -27.2231  -37.1492   25.8867 H   0  0  0  0  0  0
  -20.9380  -29.8702   21.6716 H   0  0  0  0  0  0
  -26.0084  -38.2764   24.1458 H   0  0  0  0  0  0
  -31.8076  -17.1257   22.3222 H   0  0  0  0  0  0
  -27.1089  -24.5696   20.4059 H   0  0  0  0  0  0
  -28.1115  -24.9167   21.7565 H   0  0  0  0  0  0
  -30.1248  -24.0545   20.2984 H   0  0  0  0  0  0
  -28.8104  -15.6740   20.5780 H   0  0  0  0  0  0
  -28.9486  -21.0328   19.4739 H   0  0  0  0  0  0
  1 25  1  0  0  0
  1 30  2  0  0  0
  1 78  1  0  0  0
  2  3  1  0  0  0
  2 25  1  0  0  0
  2 83  1  0  0  0
  2 84  1  0  0  0
  3  4  1  0  0  0
  3 85  1  0  0  0
  3 86  1  0  0  0
  4  5  1  0  0  0
  4 87  1  0  0  0
  4 88  1  0  0  0
  5  6  1  0  0  0
  5 26  1  0  0  0
  5 89  1  0  0  0
  6 25  1  0  0  0
  6 90  1  0  0  0
  6 91  1  0  0  0
  7  8  2  0  0  0
  7 26  1  0  0  0
  7 29  1  0  0  0
  8  9  1  0  0  0
  8 22  1  0  0  0
  9 10  1  0  0  0
  9 27  2  0  0  0
 10 11  2  0  0  0
 10 15  1  0  0  0
 11 12  1  0  0  0
 11 92  1  0  0  0
 12 13  2  0  0  0
 12 93  1  0  0  0
 13 14  1  0  0  0
 13 31  1  0  0  0
 14 15  2  0  0  0
 14 94  1  0  0  0
 15 95  1  0  0  0
 16 17  2  0  0  0
 16 21  1  0  0  0
 16 31  1  0  0  0
 17 18  1  0  0  0
 17 96  1  0  0  0
 18 19  2  0  0  0
 18 97  1  0  0  0
 19 20  1  0  0  0
 19 24  1  0  0  0
 20 21  2  0  0  0
 20 98  1  0  0  0
 21 23  1  0  0  0
 22 28  1  0  0  0
 22 32  2  0  0  0
 26 27  1  0  0  0
 28 99  1  0  0  0
 28100  1  0  0  0
 29101  1  0  0  0
 29102  1  0  0  0
 33 34  1  0  0  0
 33 66  1  0  0  0
 33 70  2  0  0  0
 34 36  1  0  0  0
 34 59  1  0  0  0
 34103  1  0  0  0
 35 44  2  0  0  0
 35 45  1  0  0  0
 35 68  1  0  0  0
 36 56  1  0  0  0
 36104  1  0  0  0
 37 39  1  0  0  0
 37 47  1  0  0  0
 37 66  1  0  0  0
 37105  1  0  0  0
 38 43  2  0  0  0
 38 46  1  0  0  0
 38 47  1  0  0  0
 39 64  1  0  0  0
 39 67  2  0  0  0
 40 52  1  0  0  0
 40 53  2  0  0  0
 40 58  1  0  0  0
 41106  1  0  0  0
 41107  1  0  0  0
 41108  1  0  0  0
 41 48  1  0  0  0
 42 43  1  0  0  0
 42 66  1  0  0  0
 42109  1  0  0  0
 42110  1  0  0  0
 43 44  1  0  0  0
 44111  1  0  0  0
 45 46  2  0  0  0
 45112  1  0  0  0
 46113  1  0  0  0
 47114  1  0  0  0
 47115  1  0  0  0
 48 56  1  0  0  0
 48 65  1  0  0  0
 48116  1  0  0  0
 49 50  1  0  0  0
 49 53  1  0  0  0
 49 64  1  0  0  0
 49117  1  0  0  0
 50 51  1  0  0  0
 50118  1  0  0  0
 50119  1  0  0  0
 51 52  1  0  0  0
 51120  1  0  0  0
 51121  1  0  0  0
 52122  1  0  0  0
 52123  1  0  0  0
 53 54  1  0  0  0
 54 55  2  0  0  0
 54124  1  0  0  0
 55 57  1  0  0  0
 55125  1  0  0  0
 56 69  2  0  0  0
 57 58  2  0  0  0
 57126  1  0  0  0
 58127  1  0  0  0
 59 60  1  0  0  0
 59 61  1  0  0  0
 59 62  1  0  0  0
 60128  1  0  0  0
 60129  1  0  0  0
 60130  1  0  0  0
 61131  1  0  0  0
 61132  1  0  0  0
 61133  1  0  0  0
 62134  1  0  0  0
 62135  1  0  0  0
 62136  1  0  0  0
 63 65  1  0  0  0
 63137  1  0  0  0
 63138  1  0  0  0
 63139  1  0  0  0
 64140  1  0  0  0
 65141  1  0  0  0
 68 75  1  0  0  0
 71 72  2  0  0  0
 71 82  1  0  0  0
 71142  1  0  0  0
 72 77  1  0  0  0
 72 78  1  0  0  0
 73 77  2  0  0  0
 73 79  1  0  0  0
 73 82  1  0  0  0
 74 76  1  0  0  0
 74 79  1  0  0  0
 74 80  2  0  0  0
 75 76  1  0  0  0
 75143  1  0  0  0
 75144  1  0  0  0
 76 81  1  0  0  0
 76145  1  0  0  0
 78146  1  0  0  0
 79147  1  0  0  0
M  ISO  4   1 100  68 101  75 101  78 100
M  END
> <chiral flag>
0

> <version>
0

> <s_m_source_file>
/data/baiqing/PycharmProjects/Reinvent-master-3.2/result/LINK_invent/BTK/process_docking_weight1_custom_product_contain_oxygen_bond_distance_aromatic_linkinvent_7_9_3/rearranged_h_0185.sdf

> <i_m_source_file_index>
83

> <r_mmod_Potential_Energy-OPLS-2005>
114.510467529297

> <r_mmod_Stretch_Energy-OPLS-2005>
134.039443969727

> <r_mmod_Bend_Energy-OPLS-2005>
170.383651733398

> <r_mmod_Torsional_Energy-OPLS-2005>
249.070159912109

> <r_mmod_Improper_Torsional_Energy-OPLS-2005>
7.37705230712891

> <r_mmod_Van_der_Waal_Energy-OPLS-2005>
114.231834411621

> <r_mmod_Electrostatic_Energy-OPLS-2005>
-432.038726806641

> <r_mmod_Solvation_Energy-OPLS-2005>
-230.132354736328

> <b_mmod_Minimization_Converged-OPLS-2005>
0

> <r_mmod_RMS_Derivative-OPLS-2005>
6.52184104919434

$$$$
83
                    3D
 Structure written by MMmdl.
153161  0  0  1  0            999 V2000
  -30.6718  -14.5445   20.5394 C   0  0  0  0  0  0
  -30.4302  -12.3247   19.4664 C   0  0  0  0  0  0
  -29.5151  -12.4628   18.2297 C   0  0  0  0  0  0
  -28.0263  -12.3639   18.6221 C   0  0  0  0  0  0
  -27.6595  -13.2127   19.8704 C   0  0  2  0  0  0
  -28.6991  -13.0353   21.0026 C   0  0  0  0  0  0
  -25.2589  -13.8165   20.5693 C   0  0  0  0  0  0
  -24.1842  -13.0435   20.9180 C   0  0  0  0  0  0
  -24.6400  -11.6903   20.8724 C   0  0  0  0  0  0
  -23.9038  -10.4285   21.0383 C   0  0  0  0  0  0
  -24.3579   -9.4177   21.9140 C   0  0  0  0  0  0
  -23.6249   -8.2221   22.0716 C   0  0  0  0  0  0
  -22.4230   -8.0270   21.3505 C   0  0  0  0  0  0
  -21.9868   -9.0243   20.4607 C   0  0  0  0  0  0
  -22.7221  -10.2118   20.3015 C   0  0  0  0  0  0
  -21.6824   -6.0723   22.5269 C   0  0  0  0  0  0
  -21.4008   -6.5627   23.8205 C   0  0  0  0  0  0
  -21.3673   -5.6764   24.9157 C   0  0  0  0  0  0
  -21.6053   -4.3024   24.7200 C   0  0  0  0  0  0
  -21.8810   -3.8119   23.4312 C   0  0  0  0  0  0
  -21.9166   -4.6948   22.3381 C   0  0  0  0  0  0
  -22.7855  -13.5209   21.1819 C   0  0  0  0  0  0
  -22.1648   -4.2141   21.0963 F   0  0  0  0  0  0
  -21.5635   -3.4513   25.7724 F   0  0  0  0  0  0
  -30.0275  -13.3438   20.4542 N   0  0  0  0  0  0
  -26.3006  -12.9328   20.3314 N   0  0  0  0  0  0
  -25.9318  -11.6480   20.5732 N   0  0  0  0  0  0
  -22.0485  -12.8222   22.0390 N   0  0  0  0  0  0
  -25.4391  -15.1874   20.4164 N   0  0  0  0  0  0
  -31.8178  -14.7046   20.1045 O   0  0  0  0  0  0
  -21.6591   -6.8870   21.4234 O   0  0  0  0  0  0
  -22.3530  -14.5483   20.6619 O   0  0  0  0  0  0
  -24.6214  -31.8615   23.2034 C   0  0  0  0  0  0
  -25.9075  -32.4783   23.8370 C   0  0  1  0  0  0
  -27.2508  -27.3698   20.1190 C   0  0  0  0  0  0
  -25.5921  -33.8592   24.2293 N   0  0  0  0  0  0
  -23.4145  -30.4822   21.5440 C   0  0  2  0  0  0
  -24.8634  -28.9318   20.1154 C   0  0  0  0  0  0
  -22.7450  -29.4630   22.4953 C   0  0  0  0  0  0
  -18.0281  -28.1376   22.8486 C   0  0  0  0  0  0
  -24.1485  -36.7301   23.2643 C   0  0  0  0  0  0
  -25.9483  -30.8054   21.3672 C   0  0  0  0  0  0
  -26.0242  -29.4353   20.7129 C   0  0  0  0  0  0
  -27.2158  -28.6665   20.6997 C   0  0  0  0  0  0
  -26.0655  -26.8894   19.5161 C   0  0  0  0  0  0
  -24.8837  -27.6627   19.5084 C   0  0  0  0  0  0
  -23.6285  -29.8092   20.1599 C   0  0  0  0  0  0
  -25.4106  -36.3095   24.0338 C   0  0  1  0  0  0
  -20.5874  -28.3681   23.1291 C   0  0  2  0  0  0
  -20.6765  -26.9413   22.5412 C   0  0  0  0  0  0
  -19.5746  -26.6374   21.5210 C   0  0  0  0  0  0
  -18.1920  -26.7921   22.1616 C   0  0  0  0  0  0
  -19.1532  -28.8848   23.2884 C   0  0  0  0  0  0
  -18.9455  -30.1442   23.8905 C   0  0  0  0  0  0
  -17.6457  -30.6581   24.0561 C   0  0  0  0  0  0
  -25.9056  -34.9455   23.5114 C   0  0  0  0  0  0
  -16.5347  -29.9087   23.6320 C   0  0  0  0  0  0
  -16.7265  -28.6503   23.0342 C   0  0  0  0  0  0
  -26.4467  -31.6589   25.0738 C   0  0  0  0  0  0
  -25.3723  -31.3715   26.1495 C   0  0  0  0  0  0
  -27.0276  -30.3011   24.6160 C   0  0  0  0  0  0
  -27.6035  -32.4313   25.7509 C   0  0  0  0  0  0
  -27.5578  -37.1812   24.8458 C   0  0  0  0  0  0
  -21.4173  -29.3031   22.3688 N   0  0  0  0  0  0
  -26.4281  -37.3794   23.9420 N   0  0  0  0  0  0
  -24.6790  -31.0674   22.0946 N   0  0  0  0  0  0
  -23.4188  -28.8184   23.3026 O   0  0  0  0  0  0
  -28.4468  -26.6563   20.1502 O   0  0  0  0  0  0
  -26.5619  -34.8920   22.4679 O   0  0  0  0  0  0
  -23.5387  -32.1390   23.7386 O   0  0  0  0  0  0
  -29.2256  -18.0091   18.2729 C   0  0  0  0  0  0
  -29.2698  -19.2264   18.9627 C   0  0  0  0  0  0
  -29.4554  -16.8184   18.9706 C   0  0  0  0  0  0
  -29.5345  -19.2514   20.3452 C   0  0  0  0  0  0
  -29.7697  -16.8590   20.3514 C   0  0  0  0  0  0
  -28.9563  -21.7035   20.6861 C   0  0  0  0  0  0
  -28.6080  -24.3553   21.2186 C   0  0  0  0  0  0
  -28.5607  -25.2184   19.9095 C   0  0  0  0  0  0
  -29.4875  -23.0396   21.2896 C   0  0  2  0  0  0
  -29.7926  -18.0717   21.0097 N   0  0  0  0  0  0
  -29.6276  -20.5463   20.9764 N   0  0  0  0  0  0
  -29.9470  -15.5904   21.0179 N   0  0  0  0  0  0
  -27.9269  -21.7274   20.0069 O   0  0  0  0  0  0
  -29.3528  -15.6512   18.2962 F   0  0  0  0  0  0
  -30.7108  -23.2771   20.8081 F   0  0  0  0  0  0
  -31.4796  -12.4127   19.1796 H   0  0  0  0  0  0
  -30.3297  -11.3295   19.9023 H   0  0  0  0  0  0
  -29.7490  -11.6815   17.5046 H   0  0  0  0  0  0
  -29.7153  -13.4038   17.7201 H   0  0  0  0  0  0
  -27.8088  -11.3121   18.8104 H   0  0  0  0  0  0
  -27.3973  -12.6513   17.7779 H   0  0  0  0  0  0
  -27.6849  -14.2545   19.5522 H   0  0  0  0  0  0
  -28.6853  -12.0110   21.3763 H   0  0  0  0  0  0
  -28.4565  -13.6643   21.8607 H   0  0  0  0  0  0
  -25.2755   -9.5624   22.4672 H   0  0  0  0  0  0
  -23.9955   -7.4582   22.7413 H   0  0  0  0  0  0
  -21.0807   -8.8755   19.8905 H   0  0  0  0  0  0
  -22.3702  -10.9612   19.6085 H   0  0  0  0  0  0
  -21.2027   -7.6136   23.9720 H   0  0  0  0  0  0
  -21.1513   -6.0487   25.9071 H   0  0  0  0  0  0
  -22.0578   -2.7576   23.2790 H   0  0  0  0  0  0
  -22.4087  -11.9923   22.4864 H   0  0  0  0  0  0
  -21.1081  -13.1207   22.2531 H   0  0  0  0  0  0
  -24.6891  -15.8558   20.5553 H   0  0  0  0  0  0
  -26.2918  -15.6113   20.0752 H   0  0  0  0  0  0
  -26.7160  -32.5456   23.1144 H   0  0  0  0  0  0
  -25.0061  -33.9741   25.0431 H   0  0  0  0  0  0
  -22.7080  -31.3017   21.3977 H   0  0  0  0  0  0
  -23.3756  -35.9625   23.3282 H   0  0  0  0  0  0
  -24.3576  -36.8945   22.2062 H   0  0  0  0  0  0
  -23.7211  -37.6492   23.6665 H   0  0  0  0  0  0
  -26.0788  -31.5695   20.5999 H   0  0  0  0  0  0
  -26.8291  -30.8497   21.9959 H   0  0  0  0  0  0
  -28.1148  -29.0616   21.1524 H   0  0  0  0  0  0
  -26.0333  -25.9210   19.0431 H   0  0  0  0  0  0
  -23.9941  -27.2695   19.0348 H   0  0  0  0  0  0
  -23.7496  -30.5832   19.4005 H   0  0  0  0  0  0
  -22.7497  -29.2382   19.8568 H   0  0  0  0  0  0
  -25.1273  -36.1955   25.0830 H   0  0  0  0  0  0
  -20.9965  -28.3241   24.1414 H   0  0  0  0  0  0
  -20.5633  -26.2301   23.3612 H   0  0  0  0  0  0
  -21.6628  -26.7418   22.1223 H   0  0  0  0  0  0
  -19.6902  -25.6275   21.1253 H   0  0  0  0  0  0
  -19.6686  -27.3177   20.6734 H   0  0  0  0  0  0
  -17.4194  -26.6668   21.4015 H   0  0  0  0  0  0
  -18.0321  -26.0056   22.9006 H   0  0  0  0  0  0
  -19.7933  -30.7242   24.2282 H   0  0  0  0  0  0
  -17.5018  -31.6259   24.5164 H   0  0  0  0  0  0
  -15.5348  -30.2993   23.7636 H   0  0  0  0  0  0
  -15.8662  -28.0827   22.7045 H   0  0  0  0  0  0
  -24.5873  -30.7088   25.7834 H   0  0  0  0  0  0
  -24.8957  -32.2885   26.4989 H   0  0  0  0  0  0
  -25.8084  -30.8845   27.0235 H   0  0  0  0  0  0
  -26.2823  -29.6814   24.1170 H   0  0  0  0  0  0
  -27.3957  -29.7219   25.4637 H   0  0  0  0  0  0
  -27.8709  -30.4294   23.9373 H   0  0  0  0  0  0
  -27.2654  -33.3623   26.2074 H   0  0  0  0  0  0
  -28.3865  -32.6856   25.0351 H   0  0  0  0  0  0
  -28.0682  -31.8450   26.5450 H   0  0  0  0  0  0
  -28.2581  -38.0127   24.7529 H   0  0  0  0  0  0
  -28.1091  -36.2663   24.6231 H   0  0  0  0  0  0
  -27.2315  -37.1398   25.8867 H   0  0  0  0  0  0
  -20.9349  -29.8784   21.6928 H   0  0  0  0  0  0
  -26.0165  -38.2871   24.1425 H   0  0  0  0  0  0
  -29.0145  -17.9853   17.2144 H   0  0  0  0  0  0
  -29.1034  -20.1349   18.4016 H   0  0  0  0  0  0
  -27.5889  -24.1295   21.5321 H   0  0  0  0  0  0
  -29.0012  -25.0112   21.9966 H   0  0  0  0  0  0
  -27.8389  -24.8250   19.1973 H   0  0  0  0  0  0
  -29.5245  -25.1064   19.4106 H   0  0  0  0  0  0
  -29.6461  -22.8349   22.3492 H   0  0  0  0  0  0
  -30.3524  -20.6283   21.6751 H   0  0  0  0  0  0
  -29.1630  -15.3152   21.5844 H   0  0  0  0  0  0
  1 25  1  0  0  0
  1 30  2  0  0  0
  1 82  1  0  0  0
  2  3  1  0  0  0
  2 25  1  0  0  0
  2 86  1  0  0  0
  2 87  1  0  0  0
  3  4  1  0  0  0
  3 88  1  0  0  0
  3 89  1  0  0  0
  4  5  1  0  0  0
  4 90  1  0  0  0
  4 91  1  0  0  0
  5  6  1  0  0  0
  5 26  1  0  0  0
  5 92  1  0  0  0
  6 25  1  0  0  0
  6 93  1  0  0  0
  6 94  1  0  0  0
  7  8  2  0  0  0
  7 26  1  0  0  0
  7 29  1  0  0  0
  8  9  1  0  0  0
  8 22  1  0  0  0
  9 10  1  0  0  0
  9 27  2  0  0  0
 10 11  2  0  0  0
 10 15  1  0  0  0
 11 12  1  0  0  0
 11 95  1  0  0  0
 12 13  2  0  0  0
 12 96  1  0  0  0
 13 14  1  0  0  0
 13 31  1  0  0  0
 14 15  2  0  0  0
 14 97  1  0  0  0
 15 98  1  0  0  0
 16 17  2  0  0  0
 16 21  1  0  0  0
 16 31  1  0  0  0
 17 18  1  0  0  0
 17 99  1  0  0  0
 18 19  2  0  0  0
 18100  1  0  0  0
 19 20  1  0  0  0
 19 24  1  0  0  0
 20 21  2  0  0  0
 20101  1  0  0  0
 21 23  1  0  0  0
 22 28  1  0  0  0
 22 32  2  0  0  0
 26 27  1  0  0  0
 28102  1  0  0  0
 28103  1  0  0  0
 29104  1  0  0  0
 29105  1  0  0  0
 33 34  1  0  0  0
 33 66  1  0  0  0
 33 70  2  0  0  0
 34 36  1  0  0  0
 34 59  1  0  0  0
 34106  1  0  0  0
 35 44  2  0  0  0
 35 45  1  0  0  0
 35 68  1  0  0  0
 36 56  1  0  0  0
 36107  1  0  0  0
 37 39  1  0  0  0
 37 47  1  0  0  0
 37 66  1  0  0  0
 37108  1  0  0  0
 38 43  2  0  0  0
 38 46  1  0  0  0
 38 47  1  0  0  0
 39 64  1  0  0  0
 39 67  2  0  0  0
 40 52  1  0  0  0
 40 53  2  0  0  0
 40 58  1  0  0  0
 41109  1  0  0  0
 41110  1  0  0  0
 41111  1  0  0  0
 41 48  1  0  0  0
 42 43  1  0  0  0
 42 66  1  0  0  0
 42112  1  0  0  0
 42113  1  0  0  0
 43 44  1  0  0  0
 44114  1  0  0  0
 45 46  2  0  0  0
 45115  1  0  0  0
 46116  1  0  0  0
 47117  1  0  0  0
 47118  1  0  0  0
 48 56  1  0  0  0
 48 65  1  0  0  0
 48119  1  0  0  0
 49 50  1  0  0  0
 49 53  1  0  0  0
 49 64  1  0  0  0
 49120  1  0  0  0
 50 51  1  0  0  0
 50121  1  0  0  0
 50122  1  0  0  0
 51 52  1  0  0  0
 51123  1  0  0  0
 51124  1  0  0  0
 52125  1  0  0  0
 52126  1  0  0  0
 53 54  1  0  0  0
 54 55  2  0  0  0
 54127  1  0  0  0
 55 57  1  0  0  0
 55128  1  0  0  0
 56 69  2  0  0  0
 57 58  2  0  0  0
 57129  1  0  0  0
 58130  1  0  0  0
 59 60  1  0  0  0
 59 61  1  0  0  0
 59 62  1  0  0  0
 60131  1  0  0  0
 60132  1  0  0  0
 60133  1  0  0  0
 61134  1  0  0  0
 61135  1  0  0  0
 61136  1  0  0  0
 62137  1  0  0  0
 62138  1  0  0  0
 62139  1  0  0  0
 63 65  1  0  0  0
 63140  1  0  0  0
 63141  1  0  0  0
 63142  1  0  0  0
 64143  1  0  0  0
 65144  1  0  0  0
 68 78  1  0  0  0
 71 72  2  0  0  0
 71 73  1  0  0  0
 71145  1  0  0  0
 72 74  1  0  0  0
 72146  1  0  0  0
 73 75  2  0  0  0
 73 84  1  0  0  0
 74 80  2  0  0  0
 74 81  1  0  0  0
 75 80  1  0  0  0
 75 82  1  0  0  0
 76 79  1  0  0  0
 76 81  1  0  0  0
 76 83  2  0  0  0
 77 78  1  0  0  0
 77 79  1  0  0  0
 77147  1  0  0  0
 77148  1  0  0  0
 78149  1  0  0  0
 78150  1  0  0  0
 79 85  1  0  0  0
 79151  1  0  0  0
 81152  1  0  0  0
 82153  1  0  0  0
M  ISO  4   1 100  68 101  78 101  82 100
M  END
> <chiral flag>
0

> <version>
0

> <s_m_source_file>
/data/baiqing/PycharmProjects/Reinvent-master-3.2/result/LINK_invent/BTK/process_docking_weight1_custom_product_contain_oxygen_bond_distance_aromatic_linkinvent_7_9_3/rearranged_h_0185.sdf

> <i_m_source_file_index>
84

> <r_mmod_Potential_Energy-OPLS-2005>
-171.411041259766

> <r_mmod_Stretch_Energy-OPLS-2005>
60.1404724121094

> <r_mmod_Bend_Energy-OPLS-2005>
135.961791992188

> <r_mmod_Torsional_Energy-OPLS-2005>
260.737670898438

> <r_mmod_Improper_Torsional_Energy-OPLS-2005>
5.87393140792847

> <r_mmod_Van_der_Waal_Energy-OPLS-2005>
151.532516479492

> <r_mmod_Electrostatic_Energy-OPLS-2005>
-575.5439453125

> <r_mmod_Solvation_Energy-OPLS-2005>
-234.946472167969

> <b_mmod_Minimization_Converged-OPLS-2005>
0

> <r_mmod_RMS_Derivative-OPLS-2005>
3.51627373695374

$$$$
84
                    3D
 Structure written by MMmdl.
151159  0  0  1  0            999 V2000
  -30.5550  -14.7478   20.4272 C   0  0  0  0  0  0
  -30.4529  -12.4439   19.4727 C   0  0  0  0  0  0
  -29.5217  -12.5060   18.2374 C   0  0  0  0  0  0
  -28.0440  -12.3245   18.6441 C   0  0  0  0  0  0
  -27.6469  -13.2162   19.8488 C   0  0  2  0  0  0
  -28.6932  -13.1212   20.9810 C   0  0  0  0  0  0
  -25.2555  -13.8153   20.5676 C   0  0  0  0  0  0
  -24.1825  -13.0423   20.9192 C   0  0  0  0  0  0
  -24.6393  -11.6895   20.8732 C   0  0  0  0  0  0
  -23.9060  -10.4283   21.0403 C   0  0  0  0  0  0
  -24.3612   -9.4204   21.9184 C   0  0  0  0  0  0
  -23.6289   -8.2239   22.0756 C   0  0  0  0  0  0
  -22.4272   -8.0276   21.3545 C   0  0  0  0  0  0
  -21.9904   -9.0248   20.4648 C   0  0  0  0  0  0
  -22.7231  -10.2128   20.3055 C   0  0  0  0  0  0
  -21.6853   -6.0732   22.5279 C   0  0  0  0  0  0
  -21.4012   -6.5637   23.8212 C   0  0  0  0  0  0
  -21.3659   -5.6791   24.9174 C   0  0  0  0  0  0
  -21.6046   -4.3053   24.7226 C   0  0  0  0  0  0
  -21.8820   -3.8144   23.4346 C   0  0  0  0  0  0
  -21.9192   -4.6960   22.3403 C   0  0  0  0  0  0
  -22.7850  -13.5223   21.1862 C   0  0  0  0  0  0
  -22.1663   -4.2146   21.0981 F   0  0  0  0  0  0
  -21.5629   -3.4538   25.7738 F   0  0  0  0  0  0
  -30.0038  -13.4840   20.4237 N   0  0  0  0  0  0
  -26.2965  -12.9326   20.3253 N   0  0  0  0  0  0
  -25.9317  -11.6487   20.5724 N   0  0  0  0  0  0
  -22.0490  -12.8218   22.0419 N   0  0  0  0  0  0
  -25.4262  -15.1877   20.4108 N   0  0  0  0  0  0
  -31.7600  -14.8813   20.1840 O   0  0  0  0  0  0
  -21.6638   -6.8873   21.4241 O   0  0  0  0  0  0
  -22.3540  -14.5533   20.6715 O   0  0  0  0  0  0
  -24.6321  -31.8562   23.1990 C   0  0  0  0  0  0
  -25.9149  -32.4761   23.8332 C   0  0  1  0  0  0
  -27.2240  -27.2670   20.1158 C   0  0  0  0  0  0
  -25.5945  -33.8561   24.2259 N   0  0  0  0  0  0
  -23.4271  -30.4813   21.5435 C   0  0  2  0  0  0
  -24.8720  -28.9303   20.1141 C   0  0  0  0  0  0
  -22.7501  -29.4619   22.4918 C   0  0  0  0  0  0
  -18.0295  -28.1391   22.8488 C   0  0  0  0  0  0
  -24.1487  -36.7280   23.2639 C   0  0  0  0  0  0
  -25.9748  -30.7724   21.3760 C   0  0  0  0  0  0
  -26.0478  -29.3967   20.7144 C   0  0  0  0  0  0
  -27.2258  -28.5808   20.6985 C   0  0  0  0  0  0
  -26.0065  -26.8597   19.5194 C   0  0  0  0  0  0
  -24.8560  -27.6682   19.5078 C   0  0  0  0  0  0
  -23.6440  -29.8177   20.1597 C   0  0  0  0  0  0
  -25.4115  -36.3072   24.0326 C   0  0  1  0  0  0
  -20.5899  -28.3702   23.1270 C   0  0  2  0  0  0
  -20.6783  -26.9419   22.5408 C   0  0  0  0  0  0
  -19.5755  -26.6387   21.5214 C   0  0  0  0  0  0
  -18.1937  -26.7933   22.1628 C   0  0  0  0  0  0
  -19.1549  -28.8863   23.2874 C   0  0  0  0  0  0
  -18.9468  -30.1464   23.8891 C   0  0  0  0  0  0
  -17.6467  -30.6591   24.0564 C   0  0  0  0  0  0
  -25.9058  -34.9443   23.5093 C   0  0  0  0  0  0
  -16.5358  -29.9087   23.6334 C   0  0  0  0  0  0
  -16.7281  -28.6507   23.0353 C   0  0  0  0  0  0
  -26.4509  -31.6582   25.0722 C   0  0  0  0  0  0
  -25.3726  -31.3733   26.1438 C   0  0  0  0  0  0
  -27.0358  -30.2999   24.6210 C   0  0  0  0  0  0
  -27.6057  -32.4324   25.7501 C   0  0  0  0  0  0
  -27.5576  -37.1798   24.8467 C   0  0  0  0  0  0
  -21.4210  -29.3051   22.3658 N   0  0  0  0  0  0
  -26.4289  -37.3772   23.9410 N   0  0  0  0  0  0
  -24.6974  -31.0537   22.0960 N   0  0  0  0  0  0
  -23.4207  -28.8154   23.3009 O   0  0  0  0  0  0
  -28.3428  -26.3930   20.1539 O   0  0  0  0  0  0
  -26.5628  -34.8920   22.4661 O   0  0  0  0  0  0
  -23.5472  -32.1379   23.7293 O   0  0  0  0  0  0
  -30.3168  -17.8607   22.1201 C   0  0  0  0  0  0
  -29.9390  -17.5041   20.8451 C   0  0  0  0  0  0
  -29.7112  -19.8912   20.7790 C   0  0  0  0  0  0
  -28.9146  -22.3456   20.7843 C   0  0  0  0  0  0
  -28.2042  -24.7573   18.3145 C   0  0  0  0  0  0
  -29.5894  -16.0394   20.3618 C   0  0  0  0  0  0
  -29.2865  -23.8651   20.4251 C   0  0  0  0  0  0
  -28.2022  -24.9209   19.8504 C   0  0  1  0  0  0
  -29.6348  -18.7051   20.0902 N   0  0  0  0  0  0
  -29.5452  -21.2487   20.2233 N   0  0  0  0  0  0
  -28.0286  -22.1742   21.6251 O   0  0  0  0  0  0
  -30.2357  -19.5937   22.4342 S   0  0  0  0  0  0
  -31.4914  -12.5880   19.1702 H   0  0  0  0  0  0
  -30.4105  -11.4585   19.9398 H   0  0  0  0  0  0
  -29.8059  -11.7405   17.5143 H   0  0  0  0  0  0
  -29.6467  -13.4644   17.7310 H   0  0  0  0  0  0
  -27.9000  -11.2744   18.9016 H   0  0  0  0  0  0
  -27.3894  -12.5209   17.7941 H   0  0  0  0  0  0
  -27.6412  -14.2368   19.4707 H   0  0  0  0  0  0
  -28.7246  -12.1095   21.3883 H   0  0  0  0  0  0
  -28.4283  -13.7675   21.8187 H   0  0  0  0  0  0
  -25.2758   -9.5683   22.4757 H   0  0  0  0  0  0
  -24.0000   -7.4632   22.7476 H   0  0  0  0  0  0
  -21.0835   -8.8762   19.8956 H   0  0  0  0  0  0
  -22.3685  -10.9664   19.6164 H   0  0  0  0  0  0
  -21.2004   -7.6145   23.9714 H   0  0  0  0  0  0
  -21.1482   -6.0521   25.9078 H   0  0  0  0  0  0
  -22.0600   -2.7606   23.2847 H   0  0  0  0  0  0
  -22.4098  -11.9875   22.4803 H   0  0  0  0  0  0
  -21.1112  -13.1253   22.2631 H   0  0  0  0  0  0
  -24.6592  -15.8411   20.5269 H   0  0  0  0  0  0
  -26.2750  -15.6313   20.0844 H   0  0  0  0  0  0
  -26.7214  -32.5410   23.1070 H   0  0  0  0  0  0
  -25.0094  -33.9692   25.0407 H   0  0  0  0  0  0
  -22.7234  -31.3039   21.3987 H   0  0  0  0  0  0
  -23.3756  -35.9608   23.3304 H   0  0  0  0  0  0
  -24.3573  -36.8900   22.2052 H   0  0  0  0  0  0
  -23.7237  -37.6479   23.6662 H   0  0  0  0  0  0
  -26.1140  -31.5355   20.6090 H   0  0  0  0  0  0
  -26.8518  -30.8182   22.0101 H   0  0  0  0  0  0
  -28.1285  -28.9399   21.1723 H   0  0  0  0  0  0
  -25.8913  -25.8867   19.0716 H   0  0  0  0  0  0
  -23.9508  -27.2971   19.0472 H   0  0  0  0  0  0
  -23.7708  -30.5949   19.4050 H   0  0  0  0  0  0
  -22.7613  -29.2538   19.8529 H   0  0  0  0  0  0
  -25.1297  -36.1916   25.0819 H   0  0  0  0  0  0
  -20.9992  -28.3280   24.1390 H   0  0  0  0  0  0
  -20.5687  -26.2310   23.3611 H   0  0  0  0  0  0
  -21.6649  -26.7446   22.1196 H   0  0  0  0  0  0
  -19.6917  -25.6297   21.1246 H   0  0  0  0  0  0
  -19.6692  -27.3196   20.6743 H   0  0  0  0  0  0
  -17.4204  -26.6680   21.4032 H   0  0  0  0  0  0
  -18.0338  -26.0075   22.9026 H   0  0  0  0  0  0
  -19.7944  -30.7283   24.2254 H   0  0  0  0  0  0
  -17.5022  -31.6270   24.5168 H   0  0  0  0  0  0
  -15.5360  -30.2988   23.7663 H   0  0  0  0  0  0
  -15.8680  -28.0826   22.7068 H   0  0  0  0  0  0
  -24.5908  -30.7074   25.7769 H   0  0  0  0  0  0
  -24.8908  -32.2903   26.4844 H   0  0  0  0  0  0
  -25.8039  -30.8927   27.0229 H   0  0  0  0  0  0
  -26.2946  -29.6744   24.1221 H   0  0  0  0  0  0
  -27.4027  -29.7264   25.4733 H   0  0  0  0  0  0
  -27.8829  -30.4272   23.9464 H   0  0  0  0  0  0
  -27.2661  -33.3628   26.2064 H   0  0  0  0  0  0
  -28.3880  -32.6876   25.0341 H   0  0  0  0  0  0
  -28.0712  -31.8458   26.5432 H   0  0  0  0  0  0
  -28.2599  -38.0091   24.7510 H   0  0  0  0  0  0
  -28.1067  -36.2623   24.6300 H   0  0  0  0  0  0
  -27.2291  -37.1454   25.8869 H   0  0  0  0  0  0
  -20.9392  -29.8776   21.6866 H   0  0  0  0  0  0
  -26.0168  -38.2845   24.1413 H   0  0  0  0  0  0
  -30.5689  -17.1960   22.9366 H   0  0  0  0  0  0
  -27.9628  -23.7325   18.0308 H   0  0  0  0  0  0
  -29.1885  -24.9863   17.9053 H   0  0  0  0  0  0
  -27.5033  -25.4082   17.7976 H   0  0  0  0  0  0
  -29.2887  -16.0992   19.3161 H   0  0  0  0  0  0
  -28.6736  -15.7740   20.8838 H   0  0  0  0  0  0
  -30.1708  -23.8612   19.7875 H   0  0  0  0  0  0
  -29.6417  -24.2800   21.3682 H   0  0  0  0  0  0
  -27.2396  -24.5975   20.2474 H   0  0  0  0  0  0
  -30.0961  -21.4345   19.3980 H   0  0  0  0  0  0
  1 25  1  0  0  0
  1 30  2  0  0  0
  1 76  1  0  0  0
  2  3  1  0  0  0
  2 25  1  0  0  0
  2 83  1  0  0  0
  2 84  1  0  0  0
  3  4  1  0  0  0
  3 85  1  0  0  0
  3 86  1  0  0  0
  4  5  1  0  0  0
  4 87  1  0  0  0
  4 88  1  0  0  0
  5  6  1  0  0  0
  5 26  1  0  0  0
  5 89  1  0  0  0
  6 25  1  0  0  0
  6 90  1  0  0  0
  6 91  1  0  0  0
  7  8  2  0  0  0
  7 26  1  0  0  0
  7 29  1  0  0  0
  8  9  1  0  0  0
  8 22  1  0  0  0
  9 10  1  0  0  0
  9 27  2  0  0  0
 10 11  2  0  0  0
 10 15  1  0  0  0
 11 12  1  0  0  0
 11 92  1  0  0  0
 12 13  2  0  0  0
 12 93  1  0  0  0
 13 14  1  0  0  0
 13 31  1  0  0  0
 14 15  2  0  0  0
 14 94  1  0  0  0
 15 95  1  0  0  0
 16 17  2  0  0  0
 16 21  1  0  0  0
 16 31  1  0  0  0
 17 18  1  0  0  0
 17 96  1  0  0  0
 18 19  2  0  0  0
 18 97  1  0  0  0
 19 20  1  0  0  0
 19 24  1  0  0  0
 20 21  2  0  0  0
 20 98  1  0  0  0
 21 23  1  0  0  0
 22 28  1  0  0  0
 22 32  2  0  0  0
 26 27  1  0  0  0
 28 99  1  0  0  0
 28100  1  0  0  0
 29101  1  0  0  0
 29102  1  0  0  0
 33 34  1  0  0  0
 33 66  1  0  0  0
 33 70  2  0  0  0
 34 36  1  0  0  0
 34 59  1  0  0  0
 34103  1  0  0  0
 35 44  2  0  0  0
 35 45  1  0  0  0
 35 68  1  0  0  0
 36 56  1  0  0  0
 36104  1  0  0  0
 37 39  1  0  0  0
 37 47  1  0  0  0
 37 66  1  0  0  0
 37105  1  0  0  0
 38 43  2  0  0  0
 38 46  1  0  0  0
 38 47  1  0  0  0
 39 64  1  0  0  0
 39 67  2  0  0  0
 40 52  1  0  0  0
 40 53  2  0  0  0
 40 58  1  0  0  0
 41106  1  0  0  0
 41107  1  0  0  0
 41108  1  0  0  0
 41 48  1  0  0  0
 42 43  1  0  0  0
 42 66  1  0  0  0
 42109  1  0  0  0
 42110  1  0  0  0
 43 44  1  0  0  0
 44111  1  0  0  0
 45 46  2  0  0  0
 45112  1  0  0  0
 46113  1  0  0  0
 47114  1  0  0  0
 47115  1  0  0  0
 48 56  1  0  0  0
 48 65  1  0  0  0
 48116  1  0  0  0
 49 50  1  0  0  0
 49 53  1  0  0  0
 49 64  1  0  0  0
 49117  1  0  0  0
 50 51  1  0  0  0
 50118  1  0  0  0
 50119  1  0  0  0
 51 52  1  0  0  0
 51120  1  0  0  0
 51121  1  0  0  0
 52122  1  0  0  0
 52123  1  0  0  0
 53 54  1  0  0  0
 54 55  2  0  0  0
 54124  1  0  0  0
 55 57  1  0  0  0
 55125  1  0  0  0
 56 69  2  0  0  0
 57 58  2  0  0  0
 57126  1  0  0  0
 58127  1  0  0  0
 59 60  1  0  0  0
 59 61  1  0  0  0
 59 62  1  0  0  0
 60128  1  0  0  0
 60129  1  0  0  0
 60130  1  0  0  0
 61131  1  0  0  0
 61132  1  0  0  0
 61133  1  0  0  0
 62134  1  0  0  0
 62135  1  0  0  0
 62136  1  0  0  0
 63 65  1  0  0  0
 63137  1  0  0  0
 63138  1  0  0  0
 63139  1  0  0  0
 64140  1  0  0  0
 65141  1  0  0  0
 68 78  1  0  0  0
 71 72  2  0  0  0
 71 82  1  0  0  0
 71142  1  0  0  0
 72 76  1  0  0  0
 72 79  1  0  0  0
 73 79  2  0  0  0
 73 80  1  0  0  0
 73 82  1  0  0  0
 74 77  1  0  0  0
 74 80  1  0  0  0
 74 81  2  0  0  0
 75143  1  0  0  0
 75144  1  0  0  0
 75145  1  0  0  0
 75 78  1  0  0  0
 76146  1  0  0  0
 76147  1  0  0  0
 77 78  1  0  0  0
 77148  1  0  0  0
 77149  1  0  0  0
 78150  1  0  0  0
 80151  1  0  0  0
M  ISO  4   1 100  68 101  76 100  78 101
M  END
> <chiral flag>
0

> <version>
0

> <s_m_source_file>
/data/baiqing/PycharmProjects/Reinvent-master-3.2/result/LINK_invent/BTK/process_docking_weight1_custom_product_contain_oxygen_bond_distance_aromatic_linkinvent_7_9_3/rearranged_h_0185.sdf

> <i_m_source_file_index>
85

> <r_mmod_Potential_Energy-OPLS-2005>
144.381805419922

> <r_mmod_Stretch_Energy-OPLS-2005>
118.836776733398

> <r_mmod_Bend_Energy-OPLS-2005>
176.565887451172

> <r_mmod_Torsional_Energy-OPLS-2005>
211.748550415039

> <r_mmod_Improper_Torsional_Energy-OPLS-2005>
11.1843576431274

> <r_mmod_Van_der_Waal_Energy-OPLS-2005>
118.998023986816

> <r_mmod_Electrostatic_Energy-OPLS-2005>
-339.103149414062

> <r_mmod_Solvation_Energy-OPLS-2005>
-237.475891113281

> <b_mmod_Minimization_Converged-OPLS-2005>
0

> <r_mmod_RMS_Derivative-OPLS-2005>
0.359781861305237

$$$$
85
                    3D
 Structure written by MMmdl.
147155  0  0  1  0            999 V2000
  -30.3944  -15.4044   20.3484 C   0  0  0  0  0  0
  -30.4327  -12.9059   19.5425 C   0  0  0  0  0  0
  -29.5426  -12.6068   18.3070 C   0  0  0  0  0  0
  -28.0989  -12.3016   18.7369 C   0  0  0  0  0  0
  -27.6058  -13.2893   19.8218 C   0  0  2  0  0  0
  -28.6314  -13.5259   20.9536 C   0  0  0  0  0  0
  -25.2359  -13.8266   20.5767 C   0  0  0  0  0  0
  -24.1727  -13.0437   20.9269 C   0  0  0  0  0  0
  -24.6403  -11.6940   20.8763 C   0  0  0  0  0  0
  -23.9102  -10.4293   21.0401 C   0  0  0  0  0  0
  -24.3643   -9.4206   21.9181 C   0  0  0  0  0  0
  -23.6308   -8.2245   22.0753 C   0  0  0  0  0  0
  -22.4289   -8.0285   21.3544 C   0  0  0  0  0  0
  -21.9933   -9.0259   20.4644 C   0  0  0  0  0  0
  -22.7271  -10.2134   20.3051 C   0  0  0  0  0  0
  -21.6858   -6.0739   22.5279 C   0  0  0  0  0  0
  -21.4017   -6.5642   23.8212 C   0  0  0  0  0  0
  -21.3661   -5.6794   24.9174 C   0  0  0  0  0  0
  -21.6044   -4.3056   24.7224 C   0  0  0  0  0  0
  -21.8819   -3.8149   23.4345 C   0  0  0  0  0  0
  -21.9194   -4.6966   22.3402 C   0  0  0  0  0  0
  -22.7742  -13.5178   21.1911 C   0  0  0  0  0  0
  -22.1662   -4.2151   21.0979 F   0  0  0  0  0  0
  -21.5628   -3.4539   25.7737 F   0  0  0  0  0  0
  -29.8467  -14.0727   20.3211 N   0  0  0  0  0  0
  -26.2796  -12.9565   20.3231 N   0  0  0  0  0  0
  -25.9344  -11.6655   20.5717 N   0  0  0  0  0  0
  -22.0406  -12.8155   22.0464 N   0  0  0  0  0  0
  -25.3974  -15.2004   20.4207 N   0  0  0  0  0  0
  -31.6144  -15.3762   20.1184 O   0  0  0  0  0  0
  -21.6647   -6.8885   21.4242 O   0  0  0  0  0  0
  -22.3418  -14.5478   20.6750 O   0  0  0  0  0  0
  -24.6718  -31.8138   23.1634 C   0  0  0  0  0  0
  -25.9359  -32.4537   23.8130 C   0  0  1  0  0  0
  -27.2204  -26.8322   20.1890 C   0  0  0  0  0  0
  -25.5989  -33.8356   24.2024 N   0  0  0  0  0  0
  -23.4914  -30.4225   21.5143 C   0  0  2  0  0  0
  -24.9473  -28.7951   20.1100 C   0  0  0  0  0  0
  -22.7712  -29.4387   22.4747 C   0  0  0  0  0  0
  -18.0330  -28.1414   22.8462 C   0  0  0  0  0  0
  -24.1495  -36.7184   23.2648 C   0  0  0  0  0  0
  -26.0663  -30.5875   21.4108 C   0  0  0  0  0  0
  -26.1323  -29.1683   20.7550 C   0  0  0  0  0  0
  -27.2563  -28.2087   20.7725 C   0  0  0  0  0  0
  -26.0062  -26.6437   19.4836 C   0  0  0  0  0  0
  -24.9158  -27.5554   19.4530 C   0  0  0  0  0  0
  -23.7372  -29.7334   20.1429 C   0  0  0  0  0  0
  -25.4140  -36.2937   24.0291 C   0  0  1  0  0  0
  -20.5960  -28.3766   23.1166 C   0  0  2  0  0  0
  -20.6801  -26.9437   22.5401 C   0  0  0  0  0  0
  -19.5775  -26.6374   21.5214 C   0  0  0  0  0  0
  -18.1958  -26.7944   22.1621 C   0  0  0  0  0  0
  -19.1593  -28.8913   23.2798 C   0  0  0  0  0  0
  -18.9501  -30.1499   23.8839 C   0  0  0  0  0  0
  -17.6493  -30.6600   24.0552 C   0  0  0  0  0  0
  -25.9112  -34.9322   23.4985 C   0  0  0  0  0  0
  -16.5383  -29.9084   23.6346 C   0  0  0  0  0  0
  -16.7311  -28.6505   23.0365 C   0  0  0  0  0  0
  -26.4577  -31.6521   25.0700 C   0  0  0  0  0  0
  -25.3676  -31.3803   26.1337 C   0  0  0  0  0  0
  -27.0492  -30.2874   24.6515 C   0  0  0  0  0  0
  -27.6047  -32.4357   25.7512 C   0  0  0  0  0  0
  -27.5568  -37.1750   24.8466 C   0  0  0  0  0  0
  -21.4371  -29.3038   22.3501 N   0  0  0  0  0  0
  -26.4277  -37.3683   23.9407 N   0  0  0  0  0  0
  -24.7652  -30.9708   22.0823 N   0  0  0  0  0  0
  -23.4215  -28.7967   23.3031 O   0  0  0  0  0  0
  -28.1872  -25.6623   20.3120 O   0  0  0  0  0  0
  -26.5735  -34.8875   22.4590 O   0  0  0  0  0  0
  -23.5766  -32.1157   23.6665 O   0  0  0  0  0  0
  -28.9296  -21.2565   19.6004 C   0  0  0  0  0  0
  -28.6880  -21.9813   21.5283 C   0  0  0  0  0  0
  -29.2204  -20.0161   20.3732 C   0  0  0  0  0  0
  -28.2095  -24.1789   18.2780 C   0  0  0  0  0  0
  -29.9212  -18.3713   20.0898 C   0  0  0  0  0  0
  -27.9508  -24.1083   19.7899 C   0  0  1  0  0  0
  -29.0425  -20.6422   21.6368 N   0  0  0  0  0  0
  -28.5642  -22.5688   20.3012 N   0  0  0  0  0  0
  -29.6474  -16.7189   20.4320 N   0  0  0  0  0  0
  -31.4463  -13.1219   19.2028 H   0  0  0  0  0  0
  -30.5259  -12.0216   20.1751 H   0  0  0  0  0  0
  -29.9500  -11.7725   17.7345 H   0  0  0  0  0  0
  -29.5494  -13.4703   17.6401 H   0  0  0  0  0  0
  -28.0799  -11.2856   19.1331 H   0  0  0  0  0  0
  -27.4309  -12.3082   17.8748 H   0  0  0  0  0  0
  -27.5014  -14.2398   19.2971 H   0  0  0  0  0  0
  -28.8306  -12.6119   21.5150 H   0  0  0  0  0  0
  -28.2424  -14.2511   21.6698 H   0  0  0  0  0  0
  -25.2783   -9.5682   22.4764 H   0  0  0  0  0  0
  -24.0012   -7.4637   22.7476 H   0  0  0  0  0  0
  -21.0864   -8.8784   19.8949 H   0  0  0  0  0  0
  -22.3729  -10.9675   19.6163 H   0  0  0  0  0  0
  -21.2011   -7.6150   23.9716 H   0  0  0  0  0  0
  -21.1483   -6.0523   25.9077 H   0  0  0  0  0  0
  -22.0596   -2.7611   23.2845 H   0  0  0  0  0  0
  -22.4048  -11.9829   22.4857 H   0  0  0  0  0  0
  -21.1013  -13.1150   22.2665 H   0  0  0  0  0  0
  -24.6253  -15.8485   20.5333 H   0  0  0  0  0  0
  -26.2359  -15.6425   20.0679 H   0  0  0  0  0  0
  -26.7432  -32.5043   23.0842 H   0  0  0  0  0  0
  -25.0068  -33.9419   25.0131 H   0  0  0  0  0  0
  -22.8096  -31.2569   21.3371 H   0  0  0  0  0  0
  -23.3772  -35.9498   23.3271 H   0  0  0  0  0  0
  -24.3566  -36.8877   22.2071 H   0  0  0  0  0  0
  -23.7237  -37.6350   23.6740 H   0  0  0  0  0  0
  -26.2590  -31.3227   20.6284 H   0  0  0  0  0  0
  -26.9215  -30.6467   22.0718 H   0  0  0  0  0  0
  -28.1446  -28.4909   21.3198 H   0  0  0  0  0  0
  -25.8428  -25.7038   18.9796 H   0  0  0  0  0  0
  -24.0186  -27.2627   18.9251 H   0  0  0  0  0  0
  -23.8999  -30.5003   19.3847 H   0  0  0  0  0  0
  -22.8450  -29.1930   19.8220 H   0  0  0  0  0  0
  -25.1343  -36.1719   25.0781 H   0  0  0  0  0  0
  -21.0046  -28.3382   24.1290 H   0  0  0  0  0  0
  -20.5672  -26.2388   23.3652 H   0  0  0  0  0  0
  -21.6663  -26.7396   22.1214 H   0  0  0  0  0  0
  -19.6932  -25.6269   21.1282 H   0  0  0  0  0  0
  -19.6714  -27.3151   20.6718 H   0  0  0  0  0  0
  -17.4226  -26.6686   21.4027 H   0  0  0  0  0  0
  -18.0353  -26.0101   22.9032 H   0  0  0  0  0  0
  -19.7976  -30.7331   24.2182 H   0  0  0  0  0  0
  -17.5043  -31.6274   24.5166 H   0  0  0  0  0  0
  -15.5380  -30.2966   23.7704 H   0  0  0  0  0  0
  -15.8712  -28.0802   22.7116 H   0  0  0  0  0  0
  -24.5881  -30.7128   25.7644 H   0  0  0  0  0  0
  -24.8840  -32.3013   26.4601 H   0  0  0  0  0  0
  -25.7882  -30.9076   27.0221 H   0  0  0  0  0  0
  -26.3186  -29.6520   24.1498 H   0  0  0  0  0  0
  -27.3956  -29.7277   25.5214 H   0  0  0  0  0  0
  -27.9154  -30.4027   23.9996 H   0  0  0  0  0  0
  -27.2600  -33.3714   26.1926 H   0  0  0  0  0  0
  -28.3943  -32.6828   25.0404 H   0  0  0  0  0  0
  -28.0621  -31.8595   26.5565 H   0  0  0  0  0  0
  -28.2561  -38.0068   24.7513 H   0  0  0  0  0  0
  -28.1088  -36.2592   24.6296 H   0  0  0  0  0  0
  -27.2282  -37.1390   25.8868 H   0  0  0  0  0  0
  -20.9646  -29.8716   21.6605 H   0  0  0  0  0  0
  -26.0116  -38.2737   24.1416 H   0  0  0  0  0  0
  -28.9610  -21.3098   18.5212 H   0  0  0  0  0  0
  -28.4709  -22.5591   22.4154 H   0  0  0  0  0  0
  -27.8151  -23.2894   17.7863 H   0  0  0  0  0  0
  -29.2818  -24.2419   18.0910 H   0  0  0  0  0  0
  -27.7287  -25.0528   17.8407 H   0  0  0  0  0  0
  -30.9536  -18.4698   20.4259 H   0  0  0  0  0  0
  -30.0357  -18.3252   19.0066 H   0  0  0  0  0  0
  -26.8802  -23.9762   19.9496 H   0  0  0  0  0  0
  -28.6748  -16.5580   20.6481 H   0  0  0  0  0  0
  1 25  1  0  0  0
  1 30  2  0  0  0
  1 79  1  0  0  0
  2  3  1  0  0  0
  2 25  1  0  0  0
  2 80  1  0  0  0
  2 81  1  0  0  0
  3  4  1  0  0  0
  3 82  1  0  0  0
  3 83  1  0  0  0
  4  5  1  0  0  0
  4 84  1  0  0  0
  4 85  1  0  0  0
  5  6  1  0  0  0
  5 26  1  0  0  0
  5 86  1  0  0  0
  6 25  1  0  0  0
  6 87  1  0  0  0
  6 88  1  0  0  0
  7  8  2  0  0  0
  7 26  1  0  0  0
  7 29  1  0  0  0
  8  9  1  0  0  0
  8 22  1  0  0  0
  9 10  1  0  0  0
  9 27  2  0  0  0
 10 11  2  0  0  0
 10 15  1  0  0  0
 11 12  1  0  0  0
 11 89  1  0  0  0
 12 13  2  0  0  0
 12 90  1  0  0  0
 13 14  1  0  0  0
 13 31  1  0  0  0
 14 15  2  0  0  0
 14 91  1  0  0  0
 15 92  1  0  0  0
 16 17  2  0  0  0
 16 21  1  0  0  0
 16 31  1  0  0  0
 17 18  1  0  0  0
 17 93  1  0  0  0
 18 19  2  0  0  0
 18 94  1  0  0  0
 19 20  1  0  0  0
 19 24  1  0  0  0
 20 21  2  0  0  0
 20 95  1  0  0  0
 21 23  1  0  0  0
 22 28  1  0  0  0
 22 32  2  0  0  0
 26 27  1  0  0  0
 28 96  1  0  0  0
 28 97  1  0  0  0
 29 98  1  0  0  0
 29 99  1  0  0  0
 33 34  1  0  0  0
 33 66  1  0  0  0
 33 70  2  0  0  0
 34 36  1  0  0  0
 34 59  1  0  0  0
 34100  1  0  0  0
 35 44  2  0  0  0
 35 45  1  0  0  0
 35 68  1  0  0  0
 36 56  1  0  0  0
 36101  1  0  0  0
 37 39  1  0  0  0
 37 47  1  0  0  0
 37 66  1  0  0  0
 37102  1  0  0  0
 38 43  2  0  0  0
 38 46  1  0  0  0
 38 47  1  0  0  0
 39 64  1  0  0  0
 39 67  2  0  0  0
 40 52  1  0  0  0
 40 53  2  0  0  0
 40 58  1  0  0  0
 41103  1  0  0  0
 41104  1  0  0  0
 41105  1  0  0  0
 41 48  1  0  0  0
 42 43  1  0  0  0
 42 66  1  0  0  0
 42106  1  0  0  0
 42107  1  0  0  0
 43 44  1  0  0  0
 44108  1  0  0  0
 45 46  2  0  0  0
 45109  1  0  0  0
 46110  1  0  0  0
 47111  1  0  0  0
 47112  1  0  0  0
 48 56  1  0  0  0
 48 65  1  0  0  0
 48113  1  0  0  0
 49 50  1  0  0  0
 49 53  1  0  0  0
 49 64  1  0  0  0
 49114  1  0  0  0
 50 51  1  0  0  0
 50115  1  0  0  0
 50116  1  0  0  0
 51 52  1  0  0  0
 51117  1  0  0  0
 51118  1  0  0  0
 52119  1  0  0  0
 52120  1  0  0  0
 53 54  1  0  0  0
 54 55  2  0  0  0
 54121  1  0  0  0
 55 57  1  0  0  0
 55122  1  0  0  0
 56 69  2  0  0  0
 57 58  2  0  0  0
 57123  1  0  0  0
 58124  1  0  0  0
 59 60  1  0  0  0
 59 61  1  0  0  0
 59 62  1  0  0  0
 60125  1  0  0  0
 60126  1  0  0  0
 60127  1  0  0  0
 61128  1  0  0  0
 61129  1  0  0  0
 61130  1  0  0  0
 62131  1  0  0  0
 62132  1  0  0  0
 62133  1  0  0  0
 63 65  1  0  0  0
 63134  1  0  0  0
 63135  1  0  0  0
 63136  1  0  0  0
 64137  1  0  0  0
 65138  1  0  0  0
 68 76  1  0  0  0
 71 73  2  0  0  0
 71 78  1  0  0  0
 71139  1  0  0  0
 72 77  2  0  0  0
 72 78  1  0  0  0
 72140  1  0  0  0
 73 75  1  0  0  0
 73 77  1  0  0  0
 74141  1  0  0  0
 74142  1  0  0  0
 74143  1  0  0  0
 74 76  1  0  0  0
 75 79  1  0  0  0
 75144  1  0  0  0
 75145  1  0  0  0
 76 78  1  0  0  0
 76146  1  0  0  0
 79147  1  0  0  0
M  ISO  4   1 100  68 101  76 101  79 100
M  END
> <chiral flag>
0

> <version>
0

> <s_m_source_file>
/data/baiqing/PycharmProjects/Reinvent-master-3.2/result/LINK_invent/BTK/process_docking_weight1_custom_product_contain_oxygen_bond_distance_aromatic_linkinvent_7_9_3/rearranged_h_0185.sdf

> <i_m_source_file_index>
86

> <r_mmod_Potential_Energy-OPLS-2005>
1540.56884765625

> <r_mmod_Stretch_Energy-OPLS-2005>
728.20556640625

> <r_mmod_Bend_Energy-OPLS-2005>
525.559387207031

> <r_mmod_Torsional_Energy-OPLS-2005>
219.411590576172

> <r_mmod_Improper_Torsional_Energy-OPLS-2005>
7.38884449005127

> <r_mmod_Van_der_Waal_Energy-OPLS-2005>
109.078971862793

> <r_mmod_Electrostatic_Energy-OPLS-2005>
-425.901123046875

> <r_mmod_Solvation_Energy-OPLS-2005>
-241.422973632812

> <b_mmod_Minimization_Converged-OPLS-2005>
0

> <r_mmod_RMS_Derivative-OPLS-2005>
0.123478166759014

$$$$
86
                    3D
 Structure written by MMmdl.
153161  0  0  1  0            999 V2000
  -30.6396  -14.5280   20.5764 C   0  0  0  0  0  0
  -30.4404  -12.3431   19.4240 C   0  0  0  0  0  0
  -29.5035  -12.5270   18.2096 C   0  0  0  0  0  0
  -28.0230  -12.3757   18.6170 C   0  0  0  0  0  0
  -27.6646  -13.2043   19.8794 C   0  0  2  0  0  0
  -28.7053  -12.9629   20.9958 C   0  0  0  0  0  0
  -25.2610  -13.8152   20.5687 C   0  0  0  0  0  0
  -24.1855  -13.0431   20.9183 C   0  0  0  0  0  0
  -24.6402  -11.6893   20.8727 C   0  0  0  0  0  0
  -23.9065  -10.4283   21.0395 C   0  0  0  0  0  0
  -24.3615   -9.4201   21.9178 C   0  0  0  0  0  0
  -23.6288   -8.2239   22.0751 C   0  0  0  0  0  0
  -22.4273   -8.0277   21.3539 C   0  0  0  0  0  0
  -21.9905   -9.0252   20.4647 C   0  0  0  0  0  0
  -22.7233  -10.2129   20.3050 C   0  0  0  0  0  0
  -21.6855   -6.0736   22.5279 C   0  0  0  0  0  0
  -21.4016   -6.5639   23.8215 C   0  0  0  0  0  0
  -21.3661   -5.6790   24.9179 C   0  0  0  0  0  0
  -21.6045   -4.3053   24.7227 C   0  0  0  0  0  0
  -21.8820   -3.8148   23.4347 C   0  0  0  0  0  0
  -21.9194   -4.6965   22.3404 C   0  0  0  0  0  0
  -22.7877  -13.5233   21.1848 C   0  0  0  0  0  0
  -22.1659   -4.2152   21.0981 F   0  0  0  0  0  0
  -21.5632   -3.4536   25.7740 F   0  0  0  0  0  0
  -30.0346  -13.3103   20.4577 N   0  0  0  0  0  0
  -26.3043  -12.9310   20.3371 N   0  0  0  0  0  0
  -25.9325  -11.6472   20.5754 N   0  0  0  0  0  0
  -22.0512  -12.8225   22.0402 N   0  0  0  0  0  0
  -25.4345  -15.1871   20.4104 N   0  0  0  0  0  0
  -31.7465  -14.7734   20.0841 O   0  0  0  0  0  0
  -21.6635   -6.8875   21.4240 O   0  0  0  0  0  0
  -22.3559  -14.5540   20.6706 O   0  0  0  0  0  0
  -24.6186  -31.8655   23.2057 C   0  0  0  0  0  0
  -25.9067  -32.4804   23.8367 C   0  0  1  0  0  0
  -27.2359  -27.3951   20.0988 C   0  0  0  0  0  0
  -25.5913  -33.8603   24.2309 N   0  0  0  0  0  0
  -23.4075  -30.4889   21.5471 C   0  0  2  0  0  0
  -24.8537  -28.9495   20.1126 C   0  0  0  0  0  0
  -22.7424  -29.4660   22.4965 C   0  0  0  0  0  0
  -18.0279  -28.1372   22.8491 C   0  0  0  0  0  0
  -24.1492  -36.7307   23.2638 C   0  0  0  0  0  0
  -25.9398  -30.8203   21.3627 C   0  0  0  0  0  0
  -26.0162  -29.4513   20.7095 C   0  0  0  0  0  0
  -27.2079  -28.6833   20.6959 C   0  0  0  0  0  0
  -26.0496  -26.9202   19.4912 C   0  0  0  0  0  0
  -24.8677  -27.6857   19.4996 C   0  0  0  0  0  0
  -23.6168  -29.8198   20.1625 C   0  0  0  0  0  0
  -25.4112  -36.3100   24.0338 C   0  0  1  0  0  0
  -20.5873  -28.3675   23.1301 C   0  0  2  0  0  0
  -20.6768  -26.9407   22.5411 C   0  0  0  0  0  0
  -19.5747  -26.6382   21.5209 C   0  0  0  0  0  0
  -18.1927  -26.7916   22.1624 C   0  0  0  0  0  0
  -19.1529  -28.8837   23.2894 C   0  0  0  0  0  0
  -18.9455  -30.1440   23.8909 C   0  0  0  0  0  0
  -17.6458  -30.6578   24.0561 C   0  0  0  0  0  0
  -25.9041  -34.9469   23.5121 C   0  0  0  0  0  0
  -16.5350  -29.9084   23.6318 C   0  0  0  0  0  0
  -16.7267  -28.6497   23.0345 C   0  0  0  0  0  0
  -26.4482  -31.6585   25.0702 C   0  0  0  0  0  0
  -25.3734  -31.3700   26.1441 C   0  0  0  0  0  0
  -27.0306  -30.3020   24.6085 C   0  0  0  0  0  0
  -27.6056  -32.4301   25.7472 C   0  0  0  0  0  0
  -27.5584  -37.1807   24.8464 C   0  0  0  0  0  0
  -21.4148  -29.3042   22.3702 N   0  0  0  0  0  0
  -26.4293  -37.3788   23.9412 N   0  0  0  0  0  0
  -24.6738  -31.0730   22.0969 N   0  0  0  0  0  0
  -23.4177  -28.8205   23.3023 O   0  0  0  0  0  0
  -28.4046  -26.6427   20.1315 O   0  0  0  0  0  0
  -26.5603  -34.8929   22.4682 O   0  0  0  0  0  0
  -23.5371  -32.1429   23.7432 O   0  0  0  0  0  0
  -28.8952  -17.5949   21.8094 C   0  0  0  0  0  0
  -29.8013  -16.8192   21.1079 C   0  0  0  0  0  0
  -29.8249  -19.2895   20.5840 C   0  0  0  0  0  0
  -29.4560  -21.8096   20.4289 C   0  0  0  0  0  0
  -27.8967  -17.1200   22.8226 C   0  0  0  0  0  0
  -29.6703  -24.4981   20.2062 C   0  0  0  0  0  0
  -28.3465  -25.2248   19.8248 C   0  0  0  0  0  0
  -29.9409  -23.0579   19.6375 C   0  0  2  0  0  0
  -28.9231  -18.9676   21.5145 N   0  0  0  0  0  0
  -29.8943  -15.4528   21.2259 N   0  0  0  0  0  0
  -30.0225  -20.6221   20.0823 N   0  0  0  0  0  0
  -28.6116  -21.9405   21.3206 O   0  0  0  0  0  0
  -29.5285  -22.9680   18.3701 F   0  0  0  0  0  0
  -30.7298  -17.8636   20.0240 S   0  0  0  0  0  0
  -31.4814  -12.4750   19.1237 H   0  0  0  0  0  0
  -30.3688  -11.3263   19.8128 H   0  0  0  0  0  0
  -29.7514  -11.8074   17.4285 H   0  0  0  0  0  0
  -29.6623  -13.5153   17.7748 H   0  0  0  0  0  0
  -27.8350  -11.3177   18.8038 H   0  0  0  0  0  0
  -27.3741  -12.6569   17.7866 H   0  0  0  0  0  0
  -27.7109  -14.2560   19.5945 H   0  0  0  0  0  0
  -28.6957  -11.9139   21.2964 H   0  0  0  0  0  0
  -28.4495  -13.5172   21.8988 H   0  0  0  0  0  0
  -25.2762   -9.5683   22.4748 H   0  0  0  0  0  0
  -24.0007   -7.4632   22.7464 H   0  0  0  0  0  0
  -21.0838   -8.8768   19.8947 H   0  0  0  0  0  0
  -22.3692  -10.9669   19.6158 H   0  0  0  0  0  0
  -21.2000   -7.6146   23.9720 H   0  0  0  0  0  0
  -21.1485   -6.0520   25.9082 H   0  0  0  0  0  0
  -22.0598   -2.7608   23.2850 H   0  0  0  0  0  0
  -22.4123  -11.9883   22.4789 H   0  0  0  0  0  0
  -21.1132  -13.1260   22.2603 H   0  0  0  0  0  0
  -24.6649  -15.8405   20.5084 H   0  0  0  0  0  0
  -26.2819  -15.6230   20.0696 H   0  0  0  0  0  0
  -26.7135  -32.5508   23.1124 H   0  0  0  0  0  0
  -25.0068  -33.9757   25.0458 H   0  0  0  0  0  0
  -22.6987  -31.3072   21.4055 H   0  0  0  0  0  0
  -23.3751  -35.9639   23.3298 H   0  0  0  0  0  0
  -24.3589  -36.8921   22.2052 H   0  0  0  0  0  0
  -23.7245  -37.6513   23.6650 H   0  0  0  0  0  0
  -26.0549  -31.5855   20.5937 H   0  0  0  0  0  0
  -26.8267  -30.8749   21.9818 H   0  0  0  0  0  0
  -28.1045  -29.0684   21.1618 H   0  0  0  0  0  0
  -26.0139  -25.9556   19.0065 H   0  0  0  0  0  0
  -23.9746  -27.2945   19.0323 H   0  0  0  0  0  0
  -23.7252  -30.5939   19.4020 H   0  0  0  0  0  0
  -22.7395  -29.2410   19.8670 H   0  0  0  0  0  0
  -25.1288  -36.1961   25.0830 H   0  0  0  0  0  0
  -20.9971  -28.3248   24.1419 H   0  0  0  0  0  0
  -20.5671  -26.2289   23.3606 H   0  0  0  0  0  0
  -21.6641  -26.7442   22.1207 H   0  0  0  0  0  0
  -19.6913  -25.6294   21.1238 H   0  0  0  0  0  0
  -19.6679  -27.3194   20.6741 H   0  0  0  0  0  0
  -17.4195  -26.6666   21.4025 H   0  0  0  0  0  0
  -18.0327  -26.0049   22.9014 H   0  0  0  0  0  0
  -19.7933  -30.7249   24.2288 H   0  0  0  0  0  0
  -17.5015  -31.6260   24.5160 H   0  0  0  0  0  0
  -15.5353  -30.2994   23.7622 H   0  0  0  0  0  0
  -15.8670  -28.0819   22.7055 H   0  0  0  0  0  0
  -24.5895  -30.7067   25.7766 H   0  0  0  0  0  0
  -24.8937  -32.2857   26.4901 H   0  0  0  0  0  0
  -25.8068  -30.8845   27.0191 H   0  0  0  0  0  0
  -26.2845  -29.6786   24.1134 H   0  0  0  0  0  0
  -27.4070  -29.7255   25.4547 H   0  0  0  0  0  0
  -27.8690  -30.4335   23.9237 H   0  0  0  0  0  0
  -27.2674  -33.3591   26.2075 H   0  0  0  0  0  0
  -28.3854  -32.6872   25.0289 H   0  0  0  0  0  0
  -28.0733  -31.8401   26.5364 H   0  0  0  0  0  0
  -28.2598  -38.0109   24.7515 H   0  0  0  0  0  0
  -28.1083  -36.2638   24.6279 H   0  0  0  0  0  0
  -27.2302  -37.1447   25.8869 H   0  0  0  0  0  0
  -20.9311  -29.8755   21.6916 H   0  0  0  0  0  0
  -26.0182  -38.2867   24.1400 H   0  0  0  0  0  0
  -27.7001  -16.0516   22.7401 H   0  0  0  0  0  0
  -26.9402  -17.6294   22.7024 H   0  0  0  0  0  0
  -28.2459  -17.3131   23.8367 H   0  0  0  0  0  0
  -29.7708  -24.4855   21.2919 H   0  0  0  0  0  0
  -30.4885  -25.1273   19.8549 H   0  0  0  0  0  0
  -27.5171  -24.7485   20.3498 H   0  0  0  0  0  0
  -28.1654  -25.1133   18.7551 H   0  0  0  0  0  0
  -31.0256  -22.9547   19.5836 H   0  0  0  0  0  0
  -29.1255  -15.0306   21.7240 H   0  0  0  0  0  0
  -30.7006  -20.6884   19.3372 H   0  0  0  0  0  0
  1 25  1  0  0  0
  1 30  2  0  0  0
  1 80  1  0  0  0
  2  3  1  0  0  0
  2 25  1  0  0  0
  2 85  1  0  0  0
  2 86  1  0  0  0
  3  4  1  0  0  0
  3 87  1  0  0  0
  3 88  1  0  0  0
  4  5  1  0  0  0
  4 89  1  0  0  0
  4 90  1  0  0  0
  5  6  1  0  0  0
  5 26  1  0  0  0
  5 91  1  0  0  0
  6 25  1  0  0  0
  6 92  1  0  0  0
  6 93  1  0  0  0
  7  8  2  0  0  0
  7 26  1  0  0  0
  7 29  1  0  0  0
  8  9  1  0  0  0
  8 22  1  0  0  0
  9 10  1  0  0  0
  9 27  2  0  0  0
 10 11  2  0  0  0
 10 15  1  0  0  0
 11 12  1  0  0  0
 11 94  1  0  0  0
 12 13  2  0  0  0
 12 95  1  0  0  0
 13 14  1  0  0  0
 13 31  1  0  0  0
 14 15  2  0  0  0
 14 96  1  0  0  0
 15 97  1  0  0  0
 16 17  2  0  0  0
 16 21  1  0  0  0
 16 31  1  0  0  0
 17 18  1  0  0  0
 17 98  1  0  0  0
 18 19  2  0  0  0
 18 99  1  0  0  0
 19 20  1  0  0  0
 19 24  1  0  0  0
 20 21  2  0  0  0
 20100  1  0  0  0
 21 23  1  0  0  0
 22 28  1  0  0  0
 22 32  2  0  0  0
 26 27  1  0  0  0
 28101  1  0  0  0
 28102  1  0  0  0
 29103  1  0  0  0
 29104  1  0  0  0
 33 34  1  0  0  0
 33 66  1  0  0  0
 33 70  2  0  0  0
 34 36  1  0  0  0
 34 59  1  0  0  0
 34105  1  0  0  0
 35 44  2  0  0  0
 35 45  1  0  0  0
 35 68  1  0  0  0
 36 56  1  0  0  0
 36106  1  0  0  0
 37 39  1  0  0  0
 37 47  1  0  0  0
 37 66  1  0  0  0
 37107  1  0  0  0
 38 43  2  0  0  0
 38 46  1  0  0  0
 38 47  1  0  0  0
 39 64  1  0  0  0
 39 67  2  0  0  0
 40 52  1  0  0  0
 40 53  2  0  0  0
 40 58  1  0  0  0
 41108  1  0  0  0
 41109  1  0  0  0
 41110  1  0  0  0
 41 48  1  0  0  0
 42 43  1  0  0  0
 42 66  1  0  0  0
 42111  1  0  0  0
 42112  1  0  0  0
 43 44  1  0  0  0
 44113  1  0  0  0
 45 46  2  0  0  0
 45114  1  0  0  0
 46115  1  0  0  0
 47116  1  0  0  0
 47117  1  0  0  0
 48 56  1  0  0  0
 48 65  1  0  0  0
 48118  1  0  0  0
 49 50  1  0  0  0
 49 53  1  0  0  0
 49 64  1  0  0  0
 49119  1  0  0  0
 50 51  1  0  0  0
 50120  1  0  0  0
 50121  1  0  0  0
 51 52  1  0  0  0
 51122  1  0  0  0
 51123  1  0  0  0
 52124  1  0  0  0
 52125  1  0  0  0
 53 54  1  0  0  0
 54 55  2  0  0  0
 54126  1  0  0  0
 55 57  1  0  0  0
 55127  1  0  0  0
 56 69  2  0  0  0
 57 58  2  0  0  0
 57128  1  0  0  0
 58129  1  0  0  0
 59 60  1  0  0  0
 59 61  1  0  0  0
 59 62  1  0  0  0
 60130  1  0  0  0
 60131  1  0  0  0
 60132  1  0  0  0
 61133  1  0  0  0
 61134  1  0  0  0
 61135  1  0  0  0
 62136  1  0  0  0
 62137  1  0  0  0
 62138  1  0  0  0
 63 65  1  0  0  0
 63139  1  0  0  0
 63140  1  0  0  0
 63141  1  0  0  0
 64142  1  0  0  0
 65143  1  0  0  0
 68 77  1  0  0  0
 71 72  2  0  0  0
 71 75  1  0  0  0
 71 79  1  0  0  0
 72 80  1  0  0  0
 72 84  1  0  0  0
 73 79  2  0  0  0
 73 81  1  0  0  0
 73 84  1  0  0  0
 74 78  1  0  0  0
 74 81  1  0  0  0
 74 82  2  0  0  0
 75144  1  0  0  0
 75145  1  0  0  0
 75146  1  0  0  0
 76 77  1  0  0  0
 76 78  1  0  0  0
 76147  1  0  0  0
 76148  1  0  0  0
 77149  1  0  0  0
 77150  1  0  0  0
 78 83  1  0  0  0
 78151  1  0  0  0
 80152  1  0  0  0
 81153  1  0  0  0
M  ISO  4   1 100  68 101  77 101  80 100
M  END
> <chiral flag>
0

> <version>
0

> <s_m_source_file>
/data/baiqing/PycharmProjects/Reinvent-master-3.2/result/LINK_invent/BTK/process_docking_weight1_custom_product_contain_oxygen_bond_distance_aromatic_linkinvent_7_9_3/rearranged_h_0185.sdf

> <i_m_source_file_index>
87

> <r_mmod_Potential_Energy-OPLS-2005>
-168.034652709961

> <r_mmod_Stretch_Energy-OPLS-2005>
46.3622169494629

> <r_mmod_Bend_Energy-OPLS-2005>
131.046234130859

> <r_mmod_Torsional_Energy-OPLS-2005>
198.434829711914

> <r_mmod_Improper_Torsional_Energy-OPLS-2005>
3.22078204154968

> <r_mmod_Van_der_Waal_Energy-OPLS-2005>
126.541046142578

> <r_mmod_Electrostatic_Energy-OPLS-2005>
-443.876892089844

> <r_mmod_Solvation_Energy-OPLS-2005>
-249.762496948242

> <b_mmod_Minimization_Converged-OPLS-2005>
0

> <r_mmod_RMS_Derivative-OPLS-2005>
0.897552371025085

$$$$
87
                    3D
 Structure written by MMmdl.
144152  0  0  1  0            999 V2000
  -30.4877  -15.0878   20.3945 C   0  0  0  0  0  0
  -30.4445  -12.6817   19.5090 C   0  0  0  0  0  0
  -29.5287  -12.5478   18.2681 C   0  0  0  0  0  0
  -28.0674  -12.3072   18.6903 C   0  0  0  0  0  0
  -27.6226  -13.2578   19.8311 C   0  0  2  0  0  0
  -28.6634  -13.3450   20.9674 C   0  0  0  0  0  0
  -25.2432  -13.8223   20.5721 C   0  0  0  0  0  0
  -24.1765  -13.0434   20.9244 C   0  0  0  0  0  0
  -24.6397  -11.6924   20.8759 C   0  0  0  0  0  0
  -23.9085  -10.4291   21.0408 C   0  0  0  0  0  0
  -24.3631   -9.4204   21.9186 C   0  0  0  0  0  0
  -23.6300   -8.2242   22.0755 C   0  0  0  0  0  0
  -22.4282   -8.0282   21.3545 C   0  0  0  0  0  0
  -21.9922   -9.0257   20.4646 C   0  0  0  0  0  0
  -22.7256  -10.2133   20.3056 C   0  0  0  0  0  0
  -21.6855   -6.0737   22.5279 C   0  0  0  0  0  0
  -21.4016   -6.5640   23.8212 C   0  0  0  0  0  0
  -21.3660   -5.6793   24.9174 C   0  0  0  0  0  0
  -21.6044   -4.3055   24.7225 C   0  0  0  0  0  0
  -21.8819   -3.8147   23.4346 C   0  0  0  0  0  0
  -21.9193   -4.6964   22.3402 C   0  0  0  0  0  0
  -22.7784  -13.5198   21.1894 C   0  0  0  0  0  0
  -22.1662   -4.2150   21.0980 F   0  0  0  0  0  0
  -21.5628   -3.4539   25.7737 F   0  0  0  0  0  0
  -29.9205  -13.8003   20.3568 N   0  0  0  0  0  0
  -26.2858  -12.9471   20.3225 N   0  0  0  0  0  0
  -25.9331  -11.6592   20.5730 N   0  0  0  0  0  0
  -22.0437  -12.8183   22.0448 N   0  0  0  0  0  0
  -25.4065  -15.1957   20.4137 N   0  0  0  0  0  0
  -31.7028  -15.1308   20.1595 O   0  0  0  0  0  0
  -21.6643   -6.8881   21.4241 O   0  0  0  0  0  0
  -22.3466  -14.5501   20.6735 O   0  0  0  0  0  0
  -24.6529  -31.8349   23.1803 C   0  0  0  0  0  0
  -25.9258  -32.4647   23.8228 C   0  0  1  0  0  0
  -27.2171  -27.0393   20.1655 C   0  0  0  0  0  0
  -25.5967  -33.8457   24.2138 N   0  0  0  0  0  0
  -23.4617  -30.4514   21.5278 C   0  0  2  0  0  0
  -24.9133  -28.8613   20.1116 C   0  0  0  0  0  0
  -22.7617  -29.4501   22.4822 C   0  0  0  0  0  0
  -18.0314  -28.1402   22.8472 C   0  0  0  0  0  0
  -24.1493  -36.7234   23.2645 C   0  0  0  0  0  0
  -26.0250  -30.6778   21.3941 C   0  0  0  0  0  0
  -26.0951  -29.2795   20.7363 C   0  0  0  0  0  0
  -27.2462  -28.3876   20.7416 C   0  0  0  0  0  0
  -26.0063  -26.7484   19.4976 C   0  0  0  0  0  0
  -24.8877  -27.6126   19.4741 C   0  0  0  0  0  0
  -23.6947  -29.7756   20.1502 C   0  0  0  0  0  0
  -25.4129  -36.3003   24.0308 C   0  0  1  0  0  0
  -20.5933  -28.3739   23.1211 C   0  0  2  0  0  0
  -20.6795  -26.9431   22.5401 C   0  0  0  0  0  0
  -19.5768  -26.6380   21.5212 C   0  0  0  0  0  0
  -18.1950  -26.7938   22.1623 C   0  0  0  0  0  0
  -19.1573  -28.8890   23.2831 C   0  0  0  0  0  0
  -18.9486  -30.1482   23.8862 C   0  0  0  0  0  0
  -17.6481  -30.6595   24.0557 C   0  0  0  0  0  0
  -25.9087  -34.9382   23.5037 C   0  0  0  0  0  0
  -16.5371  -29.9084   23.6340 C   0  0  0  0  0  0
  -16.7297  -28.6504   23.0359 C   0  0  0  0  0  0
  -26.4544  -31.6551   25.0711 C   0  0  0  0  0  0
  -25.3699  -31.3768   26.1385 C   0  0  0  0  0  0
  -27.0428  -30.2933   24.6367 C   0  0  0  0  0  0
  -27.6052  -32.4341   25.7508 C   0  0  0  0  0  0
  -27.5573  -37.1775   24.8466 C   0  0  0  0  0  0
  -21.4298  -29.3048   22.3572 N   0  0  0  0  0  0
  -26.4284  -37.3726   23.9407 N   0  0  0  0  0  0
  -24.7337  -31.0117   22.0885 N   0  0  0  0  0  0
  -23.4214  -28.8057   23.3015 O   0  0  0  0  0  0
  -28.2369  -25.9873   20.2357 O   0  0  0  0  0  0
  -26.5684  -34.8896   22.4624 O   0  0  0  0  0  0
  -23.5624  -32.1268   23.6963 O   0  0  0  0  0  0
  -30.7960  -20.2702   20.3424 C   0  0  0  0  0  0
  -29.4182  -20.3382   20.3428 C   0  0  0  0  0  0
  -29.8963  -17.8354   20.4150 C   0  0  0  0  0  0
  -28.9673  -23.1212   20.3012 C   0  0  0  0  0  0
  -27.8918  -24.4273   20.1153 C   0  0  0  0  0  0
  -28.9544  -18.9060   20.3889 N   0  0  0  0  0  0
  -28.6399  -21.7041   20.2745 N   0  0  0  0  0  0
  -29.6751  -16.2852   20.4819 N   0  0  0  0  0  0
  -30.1482  -23.4373   20.4722 O   0  0  0  0  0  0
  -31.4861  -18.6147   20.3782 S   0  0  0  0  0  0
  -31.4712  -12.8643   19.1883 H   0  0  0  0  0  0
  -30.4728  -11.7484   20.0738 H   0  0  0  0  0  0
  -29.8732  -11.7353   17.6269 H   0  0  0  0  0  0
  -29.5908  -13.4581   17.6697 H   0  0  0  0  0  0
  -27.9892  -11.2723   19.0253 H   0  0  0  0  0  0
  -27.4013  -12.4011   17.8318 H   0  0  0  0  0  0
  -27.5652  -14.2458   19.3732 H   0  0  0  0  0  0
  -28.7860  -12.3834   21.4681 H   0  0  0  0  0  0
  -28.3378  -14.0530   21.7312 H   0  0  0  0  0  0
  -25.2773   -9.5680   22.4765 H   0  0  0  0  0  0
  -24.0006   -7.4633   22.7476 H   0  0  0  0  0  0
  -21.0853   -8.8779   19.8952 H   0  0  0  0  0  0
  -22.3715  -10.9674   19.6168 H   0  0  0  0  0  0
  -21.2009   -7.6149   23.9716 H   0  0  0  0  0  0
  -21.1482   -6.0523   25.9077 H   0  0  0  0  0  0
  -22.0597   -2.7609   23.2846 H   0  0  0  0  0  0
  -22.4065  -11.9851   22.4839 H   0  0  0  0  0  0
  -21.1050  -13.1196   22.2651 H   0  0  0  0  0  0
  -24.6308  -15.8403   20.5220 H   0  0  0  0  0  0
  -26.2360  -15.6392   20.0424 H   0  0  0  0  0  0
  -26.7325  -32.5222   23.0949 H   0  0  0  0  0  0
  -25.0077  -33.9555   25.0262 H   0  0  0  0  0  0
  -22.7693  -31.2802   21.3661 H   0  0  0  0  0  0
  -23.3763  -35.9557   23.3286 H   0  0  0  0  0  0
  -24.3573  -36.8894   22.2063 H   0  0  0  0  0  0
  -23.7242  -37.6417   23.6705 H   0  0  0  0  0  0
  -26.1927  -31.4267   20.6189 H   0  0  0  0  0  0
  -26.8901  -30.7303   22.0433 H   0  0  0  0  0  0
  -28.1432  -28.7041   21.2551 H   0  0  0  0  0  0
  -25.8847  -25.7967   19.0039 H   0  0  0  0  0  0
  -23.9879  -27.2872   18.9702 H   0  0  0  0  0  0
  -23.8408  -30.5478   19.3940 H   0  0  0  0  0  0
  -22.8069  -29.2241   19.8355 H   0  0  0  0  0  0
  -25.1323  -36.1815   25.0799 H   0  0  0  0  0  0
  -21.0023  -28.3337   24.1333 H   0  0  0  0  0  0
  -20.5684  -26.2355   23.3631 H   0  0  0  0  0  0
  -21.6660  -26.7423   22.1203 H   0  0  0  0  0  0
  -19.6929  -25.6281   21.1266 H   0  0  0  0  0  0
  -19.6705  -27.3170   20.6726 H   0  0  0  0  0  0
  -17.4218  -26.6679   21.4028 H   0  0  0  0  0  0
  -18.0350  -26.0089   22.9029 H   0  0  0  0  0  0
  -19.7961  -30.7308   24.2216 H   0  0  0  0  0  0
  -17.5032  -31.6271   24.5166 H   0  0  0  0  0  0
  -15.5370  -30.2974   23.7684 H   0  0  0  0  0  0
  -15.8698  -28.0810   22.7095 H   0  0  0  0  0  0
  -24.5892  -30.7104   25.7699 H   0  0  0  0  0  0
  -24.8873  -32.2959   26.4720 H   0  0  0  0  0  0
  -25.7956  -30.8999   27.0222 H   0  0  0  0  0  0
  -26.3073  -29.6631   24.1356 H   0  0  0  0  0  0
  -27.3983  -29.7267   25.4984 H   0  0  0  0  0  0
  -27.9004  -30.4143   23.9746 H   0  0  0  0  0  0
  -27.2630  -33.3671   26.1995 H   0  0  0  0  0  0
  -28.3912  -32.6853   25.0373 H   0  0  0  0  0  0
  -28.0667  -31.8527   26.5500 H   0  0  0  0  0  0
  -28.2578  -38.0082   24.7511 H   0  0  0  0  0  0
  -28.1081  -36.2609   24.6297 H   0  0  0  0  0  0
  -27.2288  -37.1423   25.8868 H   0  0  0  0  0  0
  -20.9530  -29.8750   21.6726 H   0  0  0  0  0  0
  -26.0142  -38.2790   24.1410 H   0  0  0  0  0  0
  -31.4778  -21.1095   20.3122 H   0  0  0  0  0  0
  -27.0721  -24.2384   20.8088 H   0  0  0  0  0  0
  -27.4701  -24.2813   19.1215 H   0  0  0  0  0  0
  -27.6431  -21.5714   20.1738 H   0  0  0  0  0  0
  -28.7037  -16.0478   20.5966 H   0  0  0  0  0  0
  1 25  1  0  0  0
  1 30  2  0  0  0
  1 78  1  0  0  0
  2  3  1  0  0  0
  2 25  1  0  0  0
  2 81  1  0  0  0
  2 82  1  0  0  0
  3  4  1  0  0  0
  3 83  1  0  0  0
  3 84  1  0  0  0
  4  5  1  0  0  0
  4 85  1  0  0  0
  4 86  1  0  0  0
  5  6  1  0  0  0
  5 26  1  0  0  0
  5 87  1  0  0  0
  6 25  1  0  0  0
  6 88  1  0  0  0
  6 89  1  0  0  0
  7  8  2  0  0  0
  7 26  1  0  0  0
  7 29  1  0  0  0
  8  9  1  0  0  0
  8 22  1  0  0  0
  9 10  1  0  0  0
  9 27  2  0  0  0
 10 11  2  0  0  0
 10 15  1  0  0  0
 11 12  1  0  0  0
 11 90  1  0  0  0
 12 13  2  0  0  0
 12 91  1  0  0  0
 13 14  1  0  0  0
 13 31  1  0  0  0
 14 15  2  0  0  0
 14 92  1  0  0  0
 15 93  1  0  0  0
 16 17  2  0  0  0
 16 21  1  0  0  0
 16 31  1  0  0  0
 17 18  1  0  0  0
 17 94  1  0  0  0
 18 19  2  0  0  0
 18 95  1  0  0  0
 19 20  1  0  0  0
 19 24  1  0  0  0
 20 21  2  0  0  0
 20 96  1  0  0  0
 21 23  1  0  0  0
 22 28  1  0  0  0
 22 32  2  0  0  0
 26 27  1  0  0  0
 28 97  1  0  0  0
 28 98  1  0  0  0
 29 99  1  0  0  0
 29100  1  0  0  0
 33 34  1  0  0  0
 33 66  1  0  0  0
 33 70  2  0  0  0
 34 36  1  0  0  0
 34 59  1  0  0  0
 34101  1  0  0  0
 35 44  2  0  0  0
 35 45  1  0  0  0
 35 68  1  0  0  0
 36 56  1  0  0  0
 36102  1  0  0  0
 37 39  1  0  0  0
 37 47  1  0  0  0
 37 66  1  0  0  0
 37103  1  0  0  0
 38 43  2  0  0  0
 38 46  1  0  0  0
 38 47  1  0  0  0
 39 64  1  0  0  0
 39 67  2  0  0  0
 40 52  1  0  0  0
 40 53  2  0  0  0
 40 58  1  0  0  0
 41104  1  0  0  0
 41105  1  0  0  0
 41106  1  0  0  0
 41 48  1  0  0  0
 42 43  1  0  0  0
 42 66  1  0  0  0
 42107  1  0  0  0
 42108  1  0  0  0
 43 44  1  0  0  0
 44109  1  0  0  0
 45 46  2  0  0  0
 45110  1  0  0  0
 46111  1  0  0  0
 47112  1  0  0  0
 47113  1  0  0  0
 48 56  1  0  0  0
 48 65  1  0  0  0
 48114  1  0  0  0
 49 50  1  0  0  0
 49 53  1  0  0  0
 49 64  1  0  0  0
 49115  1  0  0  0
 50 51  1  0  0  0
 50116  1  0  0  0
 50117  1  0  0  0
 51 52  1  0  0  0
 51118  1  0  0  0
 51119  1  0  0  0
 52120  1  0  0  0
 52121  1  0  0  0
 53 54  1  0  0  0
 54 55  2  0  0  0
 54122  1  0  0  0
 55 57  1  0  0  0
 55123  1  0  0  0
 56 69  2  0  0  0
 57 58  2  0  0  0
 57124  1  0  0  0
 58125  1  0  0  0
 59 60  1  0  0  0
 59 61  1  0  0  0
 59 62  1  0  0  0
 60126  1  0  0  0
 60127  1  0  0  0
 60128  1  0  0  0
 61129  1  0  0  0
 61130  1  0  0  0
 61131  1  0  0  0
 62132  1  0  0  0
 62133  1  0  0  0
 62134  1  0  0  0
 63 65  1  0  0  0
 63135  1  0  0  0
 63136  1  0  0  0
 63137  1  0  0  0
 64138  1  0  0  0
 65139  1  0  0  0
 68 75  1  0  0  0
 71 72  2  0  0  0
 71 80  1  0  0  0
 71140  1  0  0  0
 72 76  1  0  0  0
 72 77  1  0  0  0
 73 76  2  0  0  0
 73 78  1  0  0  0
 73 80  1  0  0  0
 74 75  1  0  0  0
 74 77  1  0  0  0
 74 79  2  0  0  0
 75141  1  0  0  0
 75142  1  0  0  0
 77143  1  0  0  0
 78144  1  0  0  0
M  ISO  4   1 100  68 101  75 101  78 100
M  END
> <chiral flag>
0

> <version>
0

> <s_m_source_file>
/data/baiqing/PycharmProjects/Reinvent-master-3.2/result/LINK_invent/BTK/process_docking_weight1_custom_product_contain_oxygen_bond_distance_aromatic_linkinvent_7_9_3/rearranged_h_0185.sdf

> <i_m_source_file_index>
88

> <r_mmod_Potential_Energy-OPLS-2005>
582.984313964844

> <r_mmod_Stretch_Energy-OPLS-2005>
355.641326904297

> <r_mmod_Bend_Energy-OPLS-2005>
293.091461181641

> <r_mmod_Torsional_Energy-OPLS-2005>
210.662689208984

> <r_mmod_Improper_Torsional_Energy-OPLS-2005>
4.58383131027222

> <r_mmod_Van_der_Waal_Energy-OPLS-2005>
109.290901184082

> <r_mmod_Electrostatic_Energy-OPLS-2005>
-438.686920166016

> <r_mmod_Solvation_Energy-OPLS-2005>
-250.125961303711

> <b_mmod_Minimization_Converged-OPLS-2005>
1

> <r_mmod_RMS_Derivative-OPLS-2005>
0.0457828231155872

$$$$
88
                    3D
 Structure written by MMmdl.
147155  0  0  1  0            999 V2000
  -30.4817  -15.0949   20.3953 C   0  0  0  0  0  0
  -30.4436  -12.6877   19.5076 C   0  0  0  0  0  0
  -29.5275  -12.5488   18.2682 C   0  0  0  0  0  0
  -28.0684  -12.3009   18.6933 C   0  0  0  0  0  0
  -27.6210  -13.2555   19.8291 C   0  0  2  0  0  0
  -28.6604  -13.3483   20.9653 C   0  0  0  0  0  0
  -25.2429  -13.8217   20.5706 C   0  0  0  0  0  0
  -24.1761  -13.0436   20.9241 C   0  0  0  0  0  0
  -24.6385  -11.6924   20.8757 C   0  0  0  0  0  0
  -23.9072  -10.4289   21.0410 C   0  0  0  0  0  0
  -24.3627   -9.4205   21.9188 C   0  0  0  0  0  0
  -23.6298   -8.2240   22.0756 C   0  0  0  0  0  0
  -22.4280   -8.0277   21.3542 C   0  0  0  0  0  0
  -21.9917   -9.0250   20.4644 C   0  0  0  0  0  0
  -22.7246  -10.2127   20.3055 C   0  0  0  0  0  0
  -21.6856   -6.0734   22.5278 C   0  0  0  0  0  0
  -21.4015   -6.5636   23.8211 C   0  0  0  0  0  0
  -21.3662   -5.6789   24.9175 C   0  0  0  0  0  0
  -21.6048   -4.3052   24.7225 C   0  0  0  0  0  0
  -21.8820   -3.8143   23.4343 C   0  0  0  0  0  0
  -21.9191   -4.6960   22.3401 C   0  0  0  0  0  0
  -22.7781  -13.5204   21.1887 C   0  0  0  0  0  0
  -22.1662   -4.2144   21.0981 F   0  0  0  0  0  0
  -21.5627   -3.4540   25.7740 F   0  0  0  0  0  0
  -29.9155  -13.8064   20.3524 N   0  0  0  0  0  0
  -26.2848  -12.9455   20.3212 N   0  0  0  0  0  0
  -25.9319  -11.6584   20.5730 N   0  0  0  0  0  0
  -22.0429  -12.8194   22.0441 N   0  0  0  0  0  0
  -25.4071  -15.1946   20.4101 N   0  0  0  0  0  0
  -31.6993  -15.1377   20.1713 O   0  0  0  0  0  0
  -21.6644   -6.8875   21.4237 O   0  0  0  0  0  0
  -22.3463  -14.5504   20.6721 O   0  0  0  0  0  0
  -24.6543  -31.8350   23.1818 C   0  0  0  0  0  0
  -25.9271  -32.4650   23.8238 C   0  0  1  0  0  0
  -27.2186  -27.0398   20.1525 C   0  0  0  0  0  0
  -25.5976  -33.8459   24.2150 N   0  0  0  0  0  0
  -23.4625  -30.4544   21.5290 C   0  0  2  0  0  0
  -24.9120  -28.8665   20.1109 C   0  0  0  0  0  0
  -22.7618  -29.4513   22.4816 C   0  0  0  0  0  0
  -18.0314  -28.1418   22.8475 C   0  0  0  0  0  0
  -24.1490  -36.7240   23.2644 C   0  0  0  0  0  0
  -26.0272  -30.6787   21.3940 C   0  0  0  0  0  0
  -26.0961  -29.2820   20.7320 C   0  0  0  0  0  0
  -27.2473  -28.3889   20.7306 C   0  0  0  0  0  0
  -25.9951  -26.7485   19.5060 C   0  0  0  0  0  0
  -24.8797  -27.6148   19.4816 C   0  0  0  0  0  0
  -23.6951  -29.7831   20.1500 C   0  0  0  0  0  0
  -25.4124  -36.3004   24.0310 C   0  0  1  0  0  0
  -20.5934  -28.3754   23.1205 C   0  0  2  0  0  0
  -20.6791  -26.9444   22.5400 C   0  0  0  0  0  0
  -19.5759  -26.6396   21.5212 C   0  0  0  0  0  0
  -18.1944  -26.7955   22.1625 C   0  0  0  0  0  0
  -19.1574  -28.8903   23.2834 C   0  0  0  0  0  0
  -18.9486  -30.1494   23.8869 C   0  0  0  0  0  0
  -17.6479  -30.6606   24.0568 C   0  0  0  0  0  0
  -25.9087  -34.9383   23.5042 C   0  0  0  0  0  0
  -16.5370  -29.9102   23.6341 C   0  0  0  0  0  0
  -16.7294  -28.6523   23.0359 C   0  0  0  0  0  0
  -26.4556  -31.6553   25.0722 C   0  0  0  0  0  0
  -25.3723  -31.3772   26.1408 C   0  0  0  0  0  0
  -27.0428  -30.2927   24.6382 C   0  0  0  0  0  0
  -27.6071  -32.4338   25.7511 C   0  0  0  0  0  0
  -27.5568  -37.1777   24.8469 C   0  0  0  0  0  0
  -21.4298  -29.3063   22.3566 N   0  0  0  0  0  0
  -26.4279  -37.3724   23.9407 N   0  0  0  0  0  0
  -24.7357  -31.0122   22.0895 N   0  0  0  0  0  0
  -23.4218  -28.8054   23.2999 O   0  0  0  0  0  0
  -28.2447  -25.9892   20.2293 O   0  0  0  0  0  0
  -26.5669  -34.8891   22.4621 O   0  0  0  0  0  0
  -23.5635  -32.1266   23.6977 O   0  0  0  0  0  0
  -30.7803  -20.2823   20.5397 C   0  0  0  0  0  0
  -29.4160  -20.3499   20.3508 C   0  0  0  0  0  0
  -29.8880  -17.8450   20.4345 C   0  0  0  0  0  0
  -28.9567  -23.1294   20.3564 C   0  0  0  0  0  0
  -28.1125  -24.4218   18.2974 C   0  0  0  0  0  0
  -28.0145  -24.4510   19.8360 C   0  0  2  0  0  0
  -28.9545  -18.9160   20.3031 N   0  0  0  0  0  0
  -28.6625  -21.7183   20.1654 N   0  0  0  0  0  0
  -29.6655  -16.2924   20.4589 N   0  0  0  0  0  0
  -29.9985  -23.4285   20.9462 O   0  0  0  0  0  0
  -31.4647  -18.6265   20.6283 S   0  0  0  0  0  0
  -31.4690  -12.8756   19.1863 H   0  0  0  0  0  0
  -30.4764  -11.7565   20.0754 H   0  0  0  0  0  0
  -29.8755  -11.7382   17.6274 H   0  0  0  0  0  0
  -29.5841  -13.4593   17.6696 H   0  0  0  0  0  0
  -27.9971  -11.2673   19.0353 H   0  0  0  0  0  0
  -27.4008  -12.3857   17.8351 H   0  0  0  0  0  0
  -27.5619  -14.2409   19.3660 H   0  0  0  0  0  0
  -28.7864  -12.3889   21.4696 H   0  0  0  0  0  0
  -28.3324  -14.0590   21.7258 H   0  0  0  0  0  0
  -25.2767   -9.5686   22.4765 H   0  0  0  0  0  0
  -24.0005   -7.4636   22.7478 H   0  0  0  0  0  0
  -21.0850   -8.8769   19.8952 H   0  0  0  0  0  0
  -22.3703  -10.9668   19.6167 H   0  0  0  0  0  0
  -21.2010   -7.6146   23.9711 H   0  0  0  0  0  0
  -21.1485   -6.0523   25.9077 H   0  0  0  0  0  0
  -22.0595   -2.7604   23.2850 H   0  0  0  0  0  0
  -22.4058  -11.9874   22.4854 H   0  0  0  0  0  0
  -21.1041  -13.1204   22.2628 H   0  0  0  0  0  0
  -24.6299  -15.8393   20.5063 H   0  0  0  0  0  0
  -26.2336  -15.6330   20.0264 H   0  0  0  0  0  0
  -26.7341  -32.5221   23.0959 H   0  0  0  0  0  0
  -25.0106  -33.9556   25.0286 H   0  0  0  0  0  0
  -22.7708  -31.2844   21.3701 H   0  0  0  0  0  0
  -23.3752  -35.9574   23.3295 H   0  0  0  0  0  0
  -24.3567  -36.8886   22.2062 H   0  0  0  0  0  0
  -23.7250  -37.6432   23.6694 H   0  0  0  0  0  0
  -26.1967  -31.4303   20.6220 H   0  0  0  0  0  0
  -26.8917  -30.7281   22.0447 H   0  0  0  0  0  0
  -28.1469  -28.7070   21.2383 H   0  0  0  0  0  0
  -25.8449  -25.7881   19.0412 H   0  0  0  0  0  0
  -23.9745  -27.2839   18.9911 H   0  0  0  0  0  0
  -23.8483  -30.5599   19.4001 H   0  0  0  0  0  0
  -22.8059  -29.2384   19.8276 H   0  0  0  0  0  0
  -25.1316  -36.1822   25.0802 H   0  0  0  0  0  0
  -21.0026  -28.3357   24.1325 H   0  0  0  0  0  0
  -20.5680  -26.2371   23.3632 H   0  0  0  0  0  0
  -21.6655  -26.7438   22.1197 H   0  0  0  0  0  0
  -19.6918  -25.6299   21.1260 H   0  0  0  0  0  0
  -19.6694  -27.3192   20.6729 H   0  0  0  0  0  0
  -17.4210  -26.6699   21.4033 H   0  0  0  0  0  0
  -18.0342  -26.0110   22.9033 H   0  0  0  0  0  0
  -19.7961  -30.7320   24.2224 H   0  0  0  0  0  0
  -17.5033  -31.6278   24.5186 H   0  0  0  0  0  0
  -15.5370  -30.2994   23.7689 H   0  0  0  0  0  0
  -15.8692  -28.0835   22.7085 H   0  0  0  0  0  0
  -24.5925  -30.7084   25.7747 H   0  0  0  0  0  0
  -24.8889  -32.2960   26.4741 H   0  0  0  0  0  0
  -25.8005  -30.9028   27.0248 H   0  0  0  0  0  0
  -26.3068  -29.6629   24.1372 H   0  0  0  0  0  0
  -27.3970  -29.7258   25.5005 H   0  0  0  0  0  0
  -27.9008  -30.4120   23.9762 H   0  0  0  0  0  0
  -27.2657  -33.3673   26.1992 H   0  0  0  0  0  0
  -28.3931  -32.6839   25.0377 H   0  0  0  0  0  0
  -28.0681  -31.8529   26.5507 H   0  0  0  0  0  0
  -28.2590  -38.0070   24.7490 H   0  0  0  0  0  0
  -28.1058  -36.2595   24.6326 H   0  0  0  0  0  0
  -27.2279  -37.1460   25.8871 H   0  0  0  0  0  0
  -20.9527  -29.8786   21.6740 H   0  0  0  0  0  0
  -26.0141  -38.2790   24.1408 H   0  0  0  0  0  0
  -31.4575  -21.1224   20.6127 H   0  0  0  0  0  0
  -27.7677  -23.4677   17.8979 H   0  0  0  0  0  0
  -29.1453  -24.5578   17.9752 H   0  0  0  0  0  0
  -27.5300  -25.2029   17.8139 H   0  0  0  0  0  0
  -26.9963  -24.2006   20.1331 H   0  0  0  0  0  0
  -27.7384  -21.5970   19.7748 H   0  0  0  0  0  0
  -28.6900  -16.0532   20.5275 H   0  0  0  0  0  0
  1 25  1  0  0  0
  1 30  2  0  0  0
  1 79  1  0  0  0
  2  3  1  0  0  0
  2 25  1  0  0  0
  2 82  1  0  0  0
  2 83  1  0  0  0
  3  4  1  0  0  0
  3 84  1  0  0  0
  3 85  1  0  0  0
  4  5  1  0  0  0
  4 86  1  0  0  0
  4 87  1  0  0  0
  5  6  1  0  0  0
  5 26  1  0  0  0
  5 88  1  0  0  0
  6 25  1  0  0  0
  6 89  1  0  0  0
  6 90  1  0  0  0
  7  8  2  0  0  0
  7 26  1  0  0  0
  7 29  1  0  0  0
  8  9  1  0  0  0
  8 22  1  0  0  0
  9 10  1  0  0  0
  9 27  2  0  0  0
 10 11  2  0  0  0
 10 15  1  0  0  0
 11 12  1  0  0  0
 11 91  1  0  0  0
 12 13  2  0  0  0
 12 92  1  0  0  0
 13 14  1  0  0  0
 13 31  1  0  0  0
 14 15  2  0  0  0
 14 93  1  0  0  0
 15 94  1  0  0  0
 16 17  2  0  0  0
 16 21  1  0  0  0
 16 31  1  0  0  0
 17 18  1  0  0  0
 17 95  1  0  0  0
 18 19  2  0  0  0
 18 96  1  0  0  0
 19 20  1  0  0  0
 19 24  1  0  0  0
 20 21  2  0  0  0
 20 97  1  0  0  0
 21 23  1  0  0  0
 22 28  1  0  0  0
 22 32  2  0  0  0
 26 27  1  0  0  0
 28 98  1  0  0  0
 28 99  1  0  0  0
 29100  1  0  0  0
 29101  1  0  0  0
 33 34  1  0  0  0
 33 66  1  0  0  0
 33 70  2  0  0  0
 34 36  1  0  0  0
 34 59  1  0  0  0
 34102  1  0  0  0
 35 44  2  0  0  0
 35 45  1  0  0  0
 35 68  1  0  0  0
 36 56  1  0  0  0
 36103  1  0  0  0
 37 39  1  0  0  0
 37 47  1  0  0  0
 37 66  1  0  0  0
 37104  1  0  0  0
 38 43  2  0  0  0
 38 46  1  0  0  0
 38 47  1  0  0  0
 39 64  1  0  0  0
 39 67  2  0  0  0
 40 52  1  0  0  0
 40 53  2  0  0  0
 40 58  1  0  0  0
 41105  1  0  0  0
 41106  1  0  0  0
 41107  1  0  0  0
 41 48  1  0  0  0
 42 43  1  0  0  0
 42 66  1  0  0  0
 42108  1  0  0  0
 42109  1  0  0  0
 43 44  1  0  0  0
 44110  1  0  0  0
 45 46  2  0  0  0
 45111  1  0  0  0
 46112  1  0  0  0
 47113  1  0  0  0
 47114  1  0  0  0
 48 56  1  0  0  0
 48 65  1  0  0  0
 48115  1  0  0  0
 49 50  1  0  0  0
 49 53  1  0  0  0
 49 64  1  0  0  0
 49116  1  0  0  0
 50 51  1  0  0  0
 50117  1  0  0  0
 50118  1  0  0  0
 51 52  1  0  0  0
 51119  1  0  0  0
 51120  1  0  0  0
 52121  1  0  0  0
 52122  1  0  0  0
 53 54  1  0  0  0
 54 55  2  0  0  0
 54123  1  0  0  0
 55 57  1  0  0  0
 55124  1  0  0  0
 56 69  2  0  0  0
 57 58  2  0  0  0
 57125  1  0  0  0
 58126  1  0  0  0
 59 60  1  0  0  0
 59 61  1  0  0  0
 59 62  1  0  0  0
 60127  1  0  0  0
 60128  1  0  0  0
 60129  1  0  0  0
 61130  1  0  0  0
 61131  1  0  0  0
 61132  1  0  0  0
 62133  1  0  0  0
 62134  1  0  0  0
 62135  1  0  0  0
 63 65  1  0  0  0
 63136  1  0  0  0
 63137  1  0  0  0
 63138  1  0  0  0
 64139  1  0  0  0
 65140  1  0  0  0
 68 76  1  0  0  0
 71 72  2  0  0  0
 71 81  1  0  0  0
 71141  1  0  0  0
 72 77  1  0  0  0
 72 78  1  0  0  0
 73 77  2  0  0  0
 73 79  1  0  0  0
 73 81  1  0  0  0
 74 76  1  0  0  0
 74 78  1  0  0  0
 74 80  2  0  0  0
 75142  1  0  0  0
 75143  1  0  0  0
 75144  1  0  0  0
 75 76  1  0  0  0
 76145  1  0  0  0
 78146  1  0  0  0
 79147  1  0  0  0
M  ISO  4   1 100  68 101  76 101  79 100
M  END
> <chiral flag>
0

> <version>
0

> <s_m_source_file>
/data/baiqing/PycharmProjects/Reinvent-master-3.2/result/LINK_invent/BTK/process_docking_weight1_custom_product_contain_oxygen_bond_distance_aromatic_linkinvent_7_9_3/rearranged_h_0185.sdf

> <i_m_source_file_index>
89

> <r_mmod_Potential_Energy-OPLS-2005>
597.150207519531

> <r_mmod_Stretch_Energy-OPLS-2005>
361.460205078125

> <r_mmod_Bend_Energy-OPLS-2005>
297.603973388672

> <r_mmod_Torsional_Energy-OPLS-2005>
217.302307128906

> <r_mmod_Improper_Torsional_Energy-OPLS-2005>
5.37553215026855

> <r_mmod_Van_der_Waal_Energy-OPLS-2005>
110.40843963623

> <r_mmod_Electrostatic_Energy-OPLS-2005>
-450.121948242188

> <r_mmod_Solvation_Energy-OPLS-2005>
-246.461959838867

> <b_mmod_Minimization_Converged-OPLS-2005>
0

> <r_mmod_RMS_Derivative-OPLS-2005>
1.30408906936646

$$$$
89
                    3D
 Structure written by MMmdl.
160168  0  0  1  0            999 V2000
  -30.6517  -14.5058   20.6217 C   0  0  0  0  0  0
  -30.4462  -12.3460   19.4070 C   0  0  0  0  0  0
  -29.4992  -12.5276   18.1997 C   0  0  0  0  0  0
  -28.0203  -12.3771   18.6137 C   0  0  0  0  0  0
  -27.6687  -13.1998   19.8816 C   0  0  2  0  0  0
  -28.7100  -12.9350   20.9904 C   0  0  0  0  0  0
  -25.2631  -13.8141   20.5686 C   0  0  0  0  0  0
  -24.1861  -13.0432   20.9165 C   0  0  0  0  0  0
  -24.6398  -11.6892   20.8733 C   0  0  0  0  0  0
  -23.9057  -10.4285   21.0401 C   0  0  0  0  0  0
  -24.3611   -9.4203   21.9184 C   0  0  0  0  0  0
  -23.6286   -8.2239   22.0758 C   0  0  0  0  0  0
  -22.4271   -8.0279   21.3545 C   0  0  0  0  0  0
  -21.9900   -9.0251   20.4649 C   0  0  0  0  0  0
  -22.7231  -10.2129   20.3048 C   0  0  0  0  0  0
  -21.6851   -6.0736   22.5277 C   0  0  0  0  0  0
  -21.4004   -6.5636   23.8212 C   0  0  0  0  0  0
  -21.3653   -5.6790   24.9177 C   0  0  0  0  0  0
  -21.6044   -4.3055   24.7229 C   0  0  0  0  0  0
  -21.8823   -3.8144   23.4353 C   0  0  0  0  0  0
  -21.9191   -4.6959   22.3406 C   0  0  0  0  0  0
  -22.7887  -13.5240   21.1844 C   0  0  0  0  0  0
  -22.1665   -4.2141   21.0985 F   0  0  0  0  0  0
  -21.5632   -3.4540   25.7743 F   0  0  0  0  0  0
  -30.0421  -13.2944   20.4590 N   0  0  0  0  0  0
  -26.3063  -12.9294   20.3388 N   0  0  0  0  0  0
  -25.9322  -11.6461   20.5746 N   0  0  0  0  0  0
  -22.0522  -12.8228   22.0393 N   0  0  0  0  0  0
  -25.4387  -15.1864   20.4134 N   0  0  0  0  0  0
  -31.7215  -14.7993   20.0740 O   0  0  0  0  0  0
  -21.6637   -6.8880   21.4241 O   0  0  0  0  0  0
  -22.3567  -14.5554   20.6713 O   0  0  0  0  0  0
  -24.6154  -31.8630   23.2051 C   0  0  0  0  0  0
  -25.9025  -32.4801   23.8355 C   0  0  1  0  0  0
  -27.2400  -27.4026   20.1106 C   0  0  0  0  0  0
  -25.5862  -33.8594   24.2296 N   0  0  0  0  0  0
  -23.4060  -30.4828   21.5459 C   0  0  2  0  0  0
  -24.8578  -28.9375   20.1204 C   0  0  0  0  0  0
  -22.7416  -29.4615   22.4963 C   0  0  0  0  0  0
  -18.0269  -28.1371   22.8505 C   0  0  0  0  0  0
  -24.1479  -36.7299   23.2655 C   0  0  0  0  0  0
  -25.9367  -30.8189   21.3623 C   0  0  0  0  0  0
  -26.0175  -29.4483   20.7156 C   0  0  0  0  0  0
  -27.2153  -28.6896   20.7023 C   0  0  0  0  0  0
  -26.0626  -26.9050   19.5187 C   0  0  0  0  0  0
  -24.8749  -27.6651   19.5208 C   0  0  0  0  0  0
  -23.6203  -29.8088   20.1650 C   0  0  0  0  0  0
  -25.4095  -36.3086   24.0348 C   0  0  1  0  0  0
  -20.5865  -28.3640   23.1324 C   0  0  2  0  0  0
  -20.6754  -26.9371   22.5427 C   0  0  0  0  0  0
  -19.5734  -26.6371   21.5224 C   0  0  0  0  0  0
  -18.1910  -26.7923   22.1636 C   0  0  0  0  0  0
  -19.1522  -28.8827   23.2912 C   0  0  0  0  0  0
  -18.9464  -30.1448   23.8900 C   0  0  0  0  0  0
  -17.6468  -30.6584   24.0579 C   0  0  0  0  0  0
  -25.9022  -34.9461   23.5123 C   0  0  0  0  0  0
  -16.5352  -29.9087   23.6353 C   0  0  0  0  0  0
  -16.7268  -28.6512   23.0353 C   0  0  0  0  0  0
  -26.4440  -31.6603   25.0703 C   0  0  0  0  0  0
  -25.3699  -31.3747   26.1467 C   0  0  0  0  0  0
  -27.0284  -30.3039   24.6092 C   0  0  0  0  0  0
  -27.5998  -32.4346   25.7465 C   0  0  0  0  0  0
  -27.5571  -37.1786   24.8471 C   0  0  0  0  0  0
  -21.4144  -29.3005   22.3729 N   0  0  0  0  0  0
  -26.4279  -37.3775   23.9430 N   0  0  0  0  0  0
  -24.6713  -31.0692   22.0971 N   0  0  0  0  0  0
  -23.4199  -28.8175   23.3016 O   0  0  0  0  0  0
  -28.4028  -26.6565   20.0485 O   0  0  0  0  0  0
  -26.5599  -34.8929   22.4690 O   0  0  0  0  0  0
  -23.5337  -32.1382   23.7428 O   0  0  0  0  0  0
  -29.0223  -18.7514   22.3858 C   0  0  0  0  0  0
  -29.0362  -17.3143   22.4635 C   0  0  0  0  0  0
  -29.7682  -19.2616   21.3399 C   0  0  0  0  0  0
  -29.8506  -16.7004   21.5360 C   0  0  0  0  0  0
  -29.0607  -21.5865   20.9105 C   0  0  0  0  0  0
  -28.2717  -19.6021   23.3782 C   0  0  0  0  0  0
  -28.2178  -16.5545   23.4766 C   0  0  0  0  0  0
  -31.0366  -23.1915   20.4635 C   0  0  0  0  0  0
  -28.6637  -24.1225   20.1568 C   0  0  0  0  0  0
  -28.4932  -25.4907   20.8982 C   0  0  0  0  0  0
  -29.5633  -23.0674   20.9093 C   0  0  1  0  0  0
  -29.9719  -20.5792   20.9994 N   0  0  0  0  0  0
  -29.9747  -15.3374   21.4433 N   0  0  0  0  0  0
  -27.8496  -21.3650   20.8482 O   0  0  0  0  0  0
  -30.6001  -17.9322   20.5240 S   0  0  0  0  0  0
  -31.4824  -12.4963   19.0983 H   0  0  0  0  0  0
  -30.3944  -11.3241   19.7852 H   0  0  0  0  0  0
  -29.7427  -11.8046   17.4205 H   0  0  0  0  0  0
  -29.6538  -13.5133   17.7569 H   0  0  0  0  0  0
  -27.8327  -11.3181   18.7993 H   0  0  0  0  0  0
  -27.3671  -12.6612   17.7875 H   0  0  0  0  0  0
  -27.7238  -14.2547   19.6107 H   0  0  0  0  0  0
  -28.7006  -11.8785   21.2625 H   0  0  0  0  0  0
  -28.4422  -13.4577   21.9080 H   0  0  0  0  0  0
  -25.2759   -9.5678   22.4756 H   0  0  0  0  0  0
  -23.9995   -7.4626   22.7470 H   0  0  0  0  0  0
  -21.0836   -8.8773   19.8952 H   0  0  0  0  0  0
  -22.3699  -10.9670   19.6154 H   0  0  0  0  0  0
  -21.1986   -7.6141   23.9712 H   0  0  0  0  0  0
  -21.1473   -6.0524   25.9080 H   0  0  0  0  0  0
  -22.0607   -2.7602   23.2858 H   0  0  0  0  0  0
  -22.4124  -11.9878   22.4770 H   0  0  0  0  0  0
  -21.1140  -13.1260   22.2597 H   0  0  0  0  0  0
  -24.6820  -15.8504   20.5359 H   0  0  0  0  0  0
  -26.3022  -15.6230   20.1154 H   0  0  0  0  0  0
  -26.7089  -32.5508   23.1112 H   0  0  0  0  0  0
  -24.9974  -33.9745   25.0412 H   0  0  0  0  0  0
  -22.6952  -31.2982   21.3993 H   0  0  0  0  0  0
  -23.3747  -35.9631   23.3320 H   0  0  0  0  0  0
  -24.3563  -36.8894   22.2067 H   0  0  0  0  0  0
  -23.7226  -37.6505   23.6658 H   0  0  0  0  0  0
  -26.0436  -31.5800   20.5891 H   0  0  0  0  0  0
  -26.8259  -30.8771   21.9785 H   0  0  0  0  0  0
  -28.1157  -29.0838   21.1520 H   0  0  0  0  0  0
  -26.0674  -25.9304   19.0494 H   0  0  0  0  0  0
  -23.9807  -27.2646   19.0652 H   0  0  0  0  0  0
  -23.7302  -30.5819   19.4040 H   0  0  0  0  0  0
  -22.7446  -29.2272   19.8714 H   0  0  0  0  0  0
  -25.1256  -36.1942   25.0836 H   0  0  0  0  0  0
  -20.9948  -28.3193   24.1442 H   0  0  0  0  0  0
  -20.5641  -26.2231   23.3590 H   0  0  0  0  0  0
  -21.6621  -26.7384   22.1206 H   0  0  0  0  0  0
  -19.6897  -25.6285   21.1221 H   0  0  0  0  0  0
  -19.6715  -27.3212   20.6774 H   0  0  0  0  0  0
  -17.4178  -26.6698   21.4032 H   0  0  0  0  0  0
  -18.0305  -26.0049   22.9011 H   0  0  0  0  0  0
  -19.7949  -30.7267   24.2239 H   0  0  0  0  0  0
  -17.5040  -31.6267   24.5171 H   0  0  0  0  0  0
  -15.5365  -30.3001   23.7684 H   0  0  0  0  0  0
  -15.8661  -28.0856   22.7044 H   0  0  0  0  0  0
  -24.5874  -30.7073   25.7838 H   0  0  0  0  0  0
  -24.8903  -32.2933   26.4868 H   0  0  0  0  0  0
  -25.8052  -30.8975   27.0258 H   0  0  0  0  0  0
  -26.2838  -29.6802   24.1139 H   0  0  0  0  0  0
  -27.4048  -29.7260   25.4540 H   0  0  0  0  0  0
  -27.8659  -30.4349   23.9238 H   0  0  0  0  0  0
  -27.2585  -33.3653   26.2015 H   0  0  0  0  0  0
  -28.3823  -32.6902   25.0308 H   0  0  0  0  0  0
  -28.0649  -31.8499   26.5415 H   0  0  0  0  0  0
  -28.2571  -38.0098   24.7494 H   0  0  0  0  0  0
  -28.1066  -36.2611   24.6292 H   0  0  0  0  0  0
  -27.2285  -37.1424   25.8875 H   0  0  0  0  0  0
  -20.9287  -29.8723   21.6953 H   0  0  0  0  0  0
  -26.0170  -38.2847   24.1466 H   0  0  0  0  0  0
  -27.2618  -19.8210   23.0308 H   0  0  0  0  0  0
  -28.7765  -20.5511   23.5556 H   0  0  0  0  0  0
  -28.1844  -19.1277   24.3547 H   0  0  0  0  0  0
  -28.4033  -16.9055   24.4912 H   0  0  0  0  0  0
  -28.4270  -15.4858   23.4860 H   0  0  0  0  0  0
  -27.1517  -16.6690   23.2766 H   0  0  0  0  0  0
  -31.7140  -22.6618   21.1352 H   0  0  0  0  0  0
  -31.3561  -24.2340   20.4590 H   0  0  0  0  0  0
  -31.1823  -22.8006   19.4549 H   0  0  0  0  0  0
  -29.0981  -24.3087   19.1731 H   0  0  0  0  0  0
  -27.6691  -23.7242   19.9519 H   0  0  0  0  0  0
  -29.3702  -25.6592   21.5231 H   0  0  0  0  0  0
  -27.6539  -25.4339   21.5932 H   0  0  0  0  0  0
  -29.5357  -23.3343   21.9676 H   0  0  0  0  0  0
  -30.9302  -20.8512   20.8252 H   0  0  0  0  0  0
  -29.2672  -14.8369   21.9587 H   0  0  0  0  0  0
  1 25  1  0  0  0
  1 30  2  0  0  0
  1 83  1  0  0  0
  2  3  1  0  0  0
  2 25  1  0  0  0
  2 86  1  0  0  0
  2 87  1  0  0  0
  3  4  1  0  0  0
  3 88  1  0  0  0
  3 89  1  0  0  0
  4  5  1  0  0  0
  4 90  1  0  0  0
  4 91  1  0  0  0
  5  6  1  0  0  0
  5 26  1  0  0  0
  5 92  1  0  0  0
  6 25  1  0  0  0
  6 93  1  0  0  0
  6 94  1  0  0  0
  7  8  2  0  0  0
  7 26  1  0  0  0
  7 29  1  0  0  0
  8  9  1  0  0  0
  8 22  1  0  0  0
  9 10  1  0  0  0
  9 27  2  0  0  0
 10 11  2  0  0  0
 10 15  1  0  0  0
 11 12  1  0  0  0
 11 95  1  0  0  0
 12 13  2  0  0  0
 12 96  1  0  0  0
 13 14  1  0  0  0
 13 31  1  0  0  0
 14 15  2  0  0  0
 14 97  1  0  0  0
 15 98  1  0  0  0
 16 17  2  0  0  0
 16 21  1  0  0  0
 16 31  1  0  0  0
 17 18  1  0  0  0
 17 99  1  0  0  0
 18 19  2  0  0  0
 18100  1  0  0  0
 19 20  1  0  0  0
 19 24  1  0  0  0
 20 21  2  0  0  0
 20101  1  0  0  0
 21 23  1  0  0  0
 22 28  1  0  0  0
 22 32  2  0  0  0
 26 27  1  0  0  0
 28102  1  0  0  0
 28103  1  0  0  0
 29104  1  0  0  0
 29105  1  0  0  0
 33 34  1  0  0  0
 33 66  1  0  0  0
 33 70  2  0  0  0
 34 36  1  0  0  0
 34 59  1  0  0  0
 34106  1  0  0  0
 35 44  2  0  0  0
 35 45  1  0  0  0
 35 68  1  0  0  0
 36 56  1  0  0  0
 36107  1  0  0  0
 37 39  1  0  0  0
 37 47  1  0  0  0
 37 66  1  0  0  0
 37108  1  0  0  0
 38 43  2  0  0  0
 38 46  1  0  0  0
 38 47  1  0  0  0
 39 64  1  0  0  0
 39 67  2  0  0  0
 40 52  1  0  0  0
 40 53  2  0  0  0
 40 58  1  0  0  0
 41109  1  0  0  0
 41110  1  0  0  0
 41111  1  0  0  0
 41 48  1  0  0  0
 42 43  1  0  0  0
 42 66  1  0  0  0
 42112  1  0  0  0
 42113  1  0  0  0
 43 44  1  0  0  0
 44114  1  0  0  0
 45 46  2  0  0  0
 45115  1  0  0  0
 46116  1  0  0  0
 47117  1  0  0  0
 47118  1  0  0  0
 48 56  1  0  0  0
 48 65  1  0  0  0
 48119  1  0  0  0
 49 50  1  0  0  0
 49 53  1  0  0  0
 49 64  1  0  0  0
 49120  1  0  0  0
 50 51  1  0  0  0
 50121  1  0  0  0
 50122  1  0  0  0
 51 52  1  0  0  0
 51123  1  0  0  0
 51124  1  0  0  0
 52125  1  0  0  0
 52126  1  0  0  0
 53 54  1  0  0  0
 54 55  2  0  0  0
 54127  1  0  0  0
 55 57  1  0  0  0
 55128  1  0  0  0
 56 69  2  0  0  0
 57 58  2  0  0  0
 57129  1  0  0  0
 58130  1  0  0  0
 59 60  1  0  0  0
 59 61  1  0  0  0
 59 62  1  0  0  0
 60131  1  0  0  0
 60132  1  0  0  0
 60133  1  0  0  0
 61134  1  0  0  0
 61135  1  0  0  0
 61136  1  0  0  0
 62137  1  0  0  0
 62138  1  0  0  0
 62139  1  0  0  0
 63 65  1  0  0  0
 63140  1  0  0  0
 63141  1  0  0  0
 63142  1  0  0  0
 64143  1  0  0  0
 65144  1  0  0  0
 68 80  1  0  0  0
 71 72  1  0  0  0
 71 73  2  0  0  0
 71 76  1  0  0  0
 72 74  2  0  0  0
 72 77  1  0  0  0
 73 82  1  0  0  0
 73 85  1  0  0  0
 74 83  1  0  0  0
 74 85  1  0  0  0
 75 81  1  0  0  0
 75 82  1  0  0  0
 75 84  2  0  0  0
 76145  1  0  0  0
 76146  1  0  0  0
 76147  1  0  0  0
 77148  1  0  0  0
 77149  1  0  0  0
 77150  1  0  0  0
 78151  1  0  0  0
 78152  1  0  0  0
 78153  1  0  0  0
 78 81  1  0  0  0
 79 80  1  0  0  0
 79 81  1  0  0  0
 79154  1  0  0  0
 79155  1  0  0  0
 80156  1  0  0  0
 80157  1  0  0  0
 81158  1  0  0  0
 82159  1  0  0  0
 83160  1  0  0  0
M  ISO  4   1 100  68 101  80 101  83 100
M  END
> <chiral flag>
0

> <version>
0

> <s_m_source_file>
/data/baiqing/PycharmProjects/Reinvent-master-3.2/result/LINK_invent/BTK/process_docking_weight1_custom_product_contain_oxygen_bond_distance_aromatic_linkinvent_7_9_3/rearranged_h_0185.sdf

> <i_m_source_file_index>
90

> <r_mmod_Potential_Energy-OPLS-2005>
-69.696174621582

> <r_mmod_Stretch_Energy-OPLS-2005>
47.6344947814941

> <r_mmod_Bend_Energy-OPLS-2005>
132.992172241211

> <r_mmod_Torsional_Energy-OPLS-2005>
273.247863769531

> <r_mmod_Improper_Torsional_Energy-OPLS-2005>
3.00736236572266

> <r_mmod_Van_der_Waal_Energy-OPLS-2005>
130.461807250977

> <r_mmod_Electrostatic_Energy-OPLS-2005>
-451.324157714844

> <r_mmod_Solvation_Energy-OPLS-2005>
-222.899765014648

> <b_mmod_Minimization_Converged-OPLS-2005>
0

> <r_mmod_RMS_Derivative-OPLS-2005>
2.60958862304688

$$$$
90
                    3D
 Structure written by MMmdl.
149157  0  0  1  0            999 V2000
  -30.5700  -14.8123   20.4383 C   0  0  0  0  0  0
  -30.4406  -12.4965   19.4738 C   0  0  0  0  0  0
  -29.5123  -12.5082   18.2380 C   0  0  0  0  0  0
  -28.0416  -12.3155   18.6571 C   0  0  0  0  0  0
  -27.6375  -13.2303   19.8438 C   0  0  2  0  0  0
  -28.6834  -13.1885   20.9787 C   0  0  0  0  0  0
  -25.2500  -13.8183   20.5701 C   0  0  0  0  0  0
  -24.1795  -13.0429   20.9217 C   0  0  0  0  0  0
  -24.6383  -11.6905   20.8755 C   0  0  0  0  0  0
  -23.9061  -10.4285   21.0408 C   0  0  0  0  0  0
  -24.3613   -9.4204   21.9184 C   0  0  0  0  0  0
  -23.6290   -8.2240   22.0753 C   0  0  0  0  0  0
  -22.4272   -8.0277   21.3545 C   0  0  0  0  0  0
  -21.9907   -9.0249   20.4647 C   0  0  0  0  0  0
  -22.7234  -10.2127   20.3057 C   0  0  0  0  0  0
  -21.6851   -6.0733   22.5278 C   0  0  0  0  0  0
  -21.4012   -6.5637   23.8209 C   0  0  0  0  0  0
  -21.3660   -5.6791   24.9175 C   0  0  0  0  0  0
  -21.6046   -4.3056   24.7227 C   0  0  0  0  0  0
  -21.8820   -3.8144   23.4347 C   0  0  0  0  0  0
  -21.9191   -4.6959   22.3404 C   0  0  0  0  0  0
  -22.7818  -13.5217   21.1873 C   0  0  0  0  0  0
  -22.1660   -4.2146   21.0982 F   0  0  0  0  0  0
  -21.5629   -3.4539   25.7739 F   0  0  0  0  0  0
  -29.9750  -13.5651   20.3906 N   0  0  0  0  0  0
  -26.2918  -12.9382   20.3261 N   0  0  0  0  0  0
  -25.9310  -11.6527   20.5745 N   0  0  0  0  0  0
  -22.0468  -12.8207   22.0431 N   0  0  0  0  0  0
  -25.4175  -15.1908   20.4117 N   0  0  0  0  0  0
  -31.7717  -14.9099   20.1669 O   0  0  0  0  0  0
  -21.6638   -6.8873   21.4237 O   0  0  0  0  0  0
  -22.3506  -14.5526   20.6716 O   0  0  0  0  0  0
  -24.6349  -31.8509   23.1915 C   0  0  0  0  0  0
  -25.9154  -32.4730   23.8285 C   0  0  1  0  0  0
  -27.2266  -27.2209   20.1500 C   0  0  0  0  0  0
  -25.5934  -33.8530   24.2220 N   0  0  0  0  0  0
  -23.4340  -30.4680   21.5357 C   0  0  2  0  0  0
  -24.8838  -28.8984   20.1159 C   0  0  0  0  0  0
  -22.7521  -29.4570   22.4891 C   0  0  0  0  0  0
  -18.0299  -28.1389   22.8471 C   0  0  0  0  0  0
  -24.1492  -36.7262   23.2642 C   0  0  0  0  0  0
  -25.9810  -30.7519   21.3742 C   0  0  0  0  0  0
  -26.0557  -29.3666   20.7248 C   0  0  0  0  0  0
  -27.2316  -28.5428   20.7222 C   0  0  0  0  0  0
  -26.0328  -26.8220   19.5157 C   0  0  0  0  0  0
  -24.8785  -27.6358   19.4991 C   0  0  0  0  0  0
  -23.6562  -29.7916   20.1555 C   0  0  0  0  0  0
  -25.4122  -36.3050   24.0328 C   0  0  1  0  0  0
  -20.5904  -28.3696   23.1254 C   0  0  2  0  0  0
  -20.6788  -26.9408   22.5404 C   0  0  0  0  0  0
  -19.5770  -26.6381   21.5206 C   0  0  0  0  0  0
  -18.1947  -26.7927   22.1614 C   0  0  0  0  0  0
  -19.1556  -28.8859   23.2856 C   0  0  0  0  0  0
  -18.9483  -30.1453   23.8877 C   0  0  0  0  0  0
  -17.6484  -30.6585   24.0556 C   0  0  0  0  0  0
  -25.9067  -34.9424   23.5082 C   0  0  0  0  0  0
  -16.5373  -29.9087   23.6330 C   0  0  0  0  0  0
  -16.7287  -28.6507   23.0342 C   0  0  0  0  0  0
  -26.4507  -31.6568   25.0687 C   0  0  0  0  0  0
  -25.3717  -31.3734   26.1401 C   0  0  0  0  0  0
  -27.0356  -30.2985   24.6182 C   0  0  0  0  0  0
  -27.6055  -32.4317   25.7467 C   0  0  0  0  0  0
  -27.5577  -37.1778   24.8468 C   0  0  0  0  0  0
  -21.4225  -29.3033   22.3639 N   0  0  0  0  0  0
  -26.4287  -37.3756   23.9421 N   0  0  0  0  0  0
  -24.7027  -31.0436   22.0905 N   0  0  0  0  0  0
  -23.4197  -28.8127   23.3019 O   0  0  0  0  0  0
  -28.3389  -26.3364   20.1382 O   0  0  0  0  0  0
  -26.5646  -34.8913   22.4653 O   0  0  0  0  0  0
  -23.5490  -32.1342   23.7193 O   0  0  0  0  0  0
  -31.1634  -18.0384   20.7329 C   0  0  0  0  0  0
  -29.9584  -17.4153   20.5004 C   0  0  0  0  0  0
  -29.3468  -19.7639   20.2328 C   0  0  0  0  0  0
  -28.5992  -21.0534   19.7048 C   0  0  0  0  0  0
  -28.3839  -23.6279   19.7996 C   0  0  0  0  0  0
  -27.2431  -24.7811   21.8258 C   0  0  0  0  0  0
  -28.3371  -24.9351   20.7536 C   0  0  2  0  0  0
  -28.9544  -18.4287   20.2423 N   0  0  0  0  0  0
  -29.7384  -15.9335   20.5588 N   0  0  0  0  0  0
  -28.7870  -22.3455   20.2497 N   0  0  0  0  0  0
  -28.0462  -23.8421   18.6296 O   0  0  0  0  0  0
  -27.5040  -20.7101   18.4695 S   0  0  0  0  0  0
  -31.0728  -19.8124   20.6221 S   0  0  0  0  0  0
  -31.4763  -12.6446   19.1639 H   0  0  0  0  0  0
  -30.4124  -11.5263   19.9717 H   0  0  0  0  0  0
  -29.8067  -11.7248   17.5379 H   0  0  0  0  0  0
  -29.6208  -13.4531   17.7034 H   0  0  0  0  0  0
  -27.9173  -11.2699   18.9415 H   0  0  0  0  0  0
  -27.3784  -12.4790   17.8070 H   0  0  0  0  0  0
  -27.6212  -14.2442   19.4441 H   0  0  0  0  0  0
  -28.7381  -12.1936   21.4235 H   0  0  0  0  0  0
  -28.4077  -13.8692   21.7856 H   0  0  0  0  0  0
  -25.2754   -9.5682   22.4763 H   0  0  0  0  0  0
  -23.9998   -7.4632   22.7471 H   0  0  0  0  0  0
  -21.0842   -8.8766   19.8953 H   0  0  0  0  0  0
  -22.3689  -10.9667   19.6173 H   0  0  0  0  0  0
  -21.2002   -7.6144   23.9712 H   0  0  0  0  0  0
  -21.1483   -6.0524   25.9078 H   0  0  0  0  0  0
  -22.0598   -2.7605   23.2849 H   0  0  0  0  0  0
  -22.4079  -11.9865   22.4813 H   0  0  0  0  0  0
  -21.1088  -13.1227   22.2639 H   0  0  0  0  0  0
  -24.6441  -15.8383   20.5201 H   0  0  0  0  0  0
  -26.2539  -15.6374   20.0582 H   0  0  0  0  0  0
  -26.7210  -32.5366   23.1016 H   0  0  0  0  0  0
  -25.0060  -33.9657   25.0351 H   0  0  0  0  0  0
  -22.7323  -31.2908   21.3827 H   0  0  0  0  0  0
  -23.3760  -35.9584   23.3301 H   0  0  0  0  0  0
  -24.3581  -36.8894   22.2055 H   0  0  0  0  0  0
  -23.7242  -37.6456   23.6678 H   0  0  0  0  0  0
  -26.1204  -31.5058   20.5975 H   0  0  0  0  0  0
  -26.8582  -30.8081   22.0066 H   0  0  0  0  0  0
  -28.1356  -28.9027   21.1935 H   0  0  0  0  0  0
  -25.9887  -25.8514   19.0406 H   0  0  0  0  0  0
  -23.9819  -27.2722   19.0170 H   0  0  0  0  0  0
  -23.7874  -30.5643   19.3970 H   0  0  0  0  0  0
  -22.7738  -29.2261   19.8499 H   0  0  0  0  0  0
  -25.1302  -36.1883   25.0820 H   0  0  0  0  0  0
  -20.9998  -28.3291   24.1376 H   0  0  0  0  0  0
  -20.5703  -26.2305   23.3611 H   0  0  0  0  0  0
  -21.6653  -26.7432   22.1194 H   0  0  0  0  0  0
  -19.6943  -25.6297   21.1228 H   0  0  0  0  0  0
  -19.6719  -27.3193   20.6734 H   0  0  0  0  0  0
  -17.4217  -26.6664   21.4015 H   0  0  0  0  0  0
  -18.0352  -26.0068   22.9007 H   0  0  0  0  0  0
  -19.7965  -30.7265   24.2237 H   0  0  0  0  0  0
  -17.5050  -31.6268   24.5165 H   0  0  0  0  0  0
  -15.5378  -30.2993   23.7668 H   0  0  0  0  0  0
  -15.8680  -28.0838   22.7052 H   0  0  0  0  0  0
  -24.5911  -30.7067   25.7725 H   0  0  0  0  0  0
  -24.8883  -32.2909   26.4765 H   0  0  0  0  0  0
  -25.8016  -30.8952   27.0212 H   0  0  0  0  0  0
  -26.2934  -29.6719   24.1226 H   0  0  0  0  0  0
  -27.4067  -29.7266   25.4693 H   0  0  0  0  0  0
  -27.8801  -30.4257   23.9403 H   0  0  0  0  0  0
  -27.2669  -33.3653   26.1973 H   0  0  0  0  0  0
  -28.3897  -32.6821   25.0309 H   0  0  0  0  0  0
  -28.0683  -31.8485   26.5435 H   0  0  0  0  0  0
  -28.2571  -38.0092   24.7527 H   0  0  0  0  0  0
  -28.1097  -36.2622   24.6284 H   0  0  0  0  0  0
  -27.2299  -37.1406   25.8871 H   0  0  0  0  0  0
  -20.9429  -29.8740   21.6820 H   0  0  0  0  0  0
  -26.0161  -38.2821   24.1451 H   0  0  0  0  0  0
  -32.1121  -17.5714   20.9650 H   0  0  0  0  0  0
  -27.3468  -23.8373   22.3632 H   0  0  0  0  0  0
  -26.2456  -24.7961   21.3881 H   0  0  0  0  0  0
  -27.3027  -25.5804   22.5640 H   0  0  0  0  0  0
  -29.2866  -24.8963   21.2887 H   0  0  0  0  0  0
  -28.7698  -15.6759   20.6502 H   0  0  0  0  0  0
  -29.2669  -22.3499   21.1351 H   0  0  0  0  0  0
  1 25  1  0  0  0
  1 30  2  0  0  0
  1 79  1  0  0  0
  2  3  1  0  0  0
  2 25  1  0  0  0
  2 84  1  0  0  0
  2 85  1  0  0  0
  3  4  1  0  0  0
  3 86  1  0  0  0
  3 87  1  0  0  0
  4  5  1  0  0  0
  4 88  1  0  0  0
  4 89  1  0  0  0
  5  6  1  0  0  0
  5 26  1  0  0  0
  5 90  1  0  0  0
  6 25  1  0  0  0
  6 91  1  0  0  0
  6 92  1  0  0  0
  7  8  2  0  0  0
  7 26  1  0  0  0
  7 29  1  0  0  0
  8  9  1  0  0  0
  8 22  1  0  0  0
  9 10  1  0  0  0
  9 27  2  0  0  0
 10 11  2  0  0  0
 10 15  1  0  0  0
 11 12  1  0  0  0
 11 93  1  0  0  0
 12 13  2  0  0  0
 12 94  1  0  0  0
 13 14  1  0  0  0
 13 31  1  0  0  0
 14 15  2  0  0  0
 14 95  1  0  0  0
 15 96  1  0  0  0
 16 17  2  0  0  0
 16 21  1  0  0  0
 16 31  1  0  0  0
 17 18  1  0  0  0
 17 97  1  0  0  0
 18 19  2  0  0  0
 18 98  1  0  0  0
 19 20  1  0  0  0
 19 24  1  0  0  0
 20 21  2  0  0  0
 20 99  1  0  0  0
 21 23  1  0  0  0
 22 28  1  0  0  0
 22 32  2  0  0  0
 26 27  1  0  0  0
 28100  1  0  0  0
 28101  1  0  0  0
 29102  1  0  0  0
 29103  1  0  0  0
 33 34  1  0  0  0
 33 66  1  0  0  0
 33 70  2  0  0  0
 34 36  1  0  0  0
 34 59  1  0  0  0
 34104  1  0  0  0
 35 44  2  0  0  0
 35 45  1  0  0  0
 35 68  1  0  0  0
 36 56  1  0  0  0
 36105  1  0  0  0
 37 39  1  0  0  0
 37 47  1  0  0  0
 37 66  1  0  0  0
 37106  1  0  0  0
 38 43  2  0  0  0
 38 46  1  0  0  0
 38 47  1  0  0  0
 39 64  1  0  0  0
 39 67  2  0  0  0
 40 52  1  0  0  0
 40 53  2  0  0  0
 40 58  1  0  0  0
 41107  1  0  0  0
 41108  1  0  0  0
 41109  1  0  0  0
 41 48  1  0  0  0
 42 43  1  0  0  0
 42 66  1  0  0  0
 42110  1  0  0  0
 42111  1  0  0  0
 43 44  1  0  0  0
 44112  1  0  0  0
 45 46  2  0  0  0
 45113  1  0  0  0
 46114  1  0  0  0
 47115  1  0  0  0
 47116  1  0  0  0
 48 56  1  0  0  0
 48 65  1  0  0  0
 48117  1  0  0  0
 49 50  1  0  0  0
 49 53  1  0  0  0
 49 64  1  0  0  0
 49118  1  0  0  0
 50 51  1  0  0  0
 50119  1  0  0  0
 50120  1  0  0  0
 51 52  1  0  0  0
 51121  1  0  0  0
 51122  1  0  0  0
 52123  1  0  0  0
 52124  1  0  0  0
 53 54  1  0  0  0
 54 55  2  0  0  0
 54125  1  0  0  0
 55 57  1  0  0  0
 55126  1  0  0  0
 56 69  2  0  0  0
 57 58  2  0  0  0
 57127  1  0  0  0
 58128  1  0  0  0
 59 60  1  0  0  0
 59 61  1  0  0  0
 59 62  1  0  0  0
 60129  1  0  0  0
 60130  1  0  0  0
 60131  1  0  0  0
 61132  1  0  0  0
 61133  1  0  0  0
 61134  1  0  0  0
 62135  1  0  0  0
 62136  1  0  0  0
 62137  1  0  0  0
 63 65  1  0  0  0
 63138  1  0  0  0
 63139  1  0  0  0
 63140  1  0  0  0
 64141  1  0  0  0
 65142  1  0  0  0
 68 77  1  0  0  0
 71 72  2  0  0  0
 71 83  1  0  0  0
 71143  1  0  0  0
 72 78  1  0  0  0
 72 79  1  0  0  0
 73 74  1  0  0  0
 73 78  2  0  0  0
 73 83  1  0  0  0
 74 80  1  0  0  0
 74 82  2  0  0  0
 75 77  1  0  0  0
 75 80  1  0  0  0
 75 81  2  0  0  0
 76144  1  0  0  0
 76145  1  0  0  0
 76146  1  0  0  0
 76 77  1  0  0  0
 77147  1  0  0  0
 79148  1  0  0  0
 80149  1  0  0  0
M  ISO  4   1 100  68 101  77 101  79 100
M  END
> <chiral flag>
0

> <version>
0

> <s_m_source_file>
/data/baiqing/PycharmProjects/Reinvent-master-3.2/result/LINK_invent/BTK/process_docking_weight1_custom_product_contain_oxygen_bond_distance_aromatic_linkinvent_7_9_3/rearranged_h_0185.sdf

> <i_m_source_file_index>
91

> <r_mmod_Potential_Energy-OPLS-2005>
164.318054199219

> <r_mmod_Stretch_Energy-OPLS-2005>
160.111251831055

> <r_mmod_Bend_Energy-OPLS-2005>
202.059158325195

> <r_mmod_Torsional_Energy-OPLS-2005>
274.392059326172

> <r_mmod_Improper_Torsional_Energy-OPLS-2005>
6.88565969467163

> <r_mmod_Van_der_Waal_Energy-OPLS-2005>
123.397125244141

> <r_mmod_Electrostatic_Energy-OPLS-2005>
-432.318725585938

> <r_mmod_Solvation_Energy-OPLS-2005>
-281.007873535156

> <b_mmod_Minimization_Converged-OPLS-2005>
0

> <r_mmod_RMS_Derivative-OPLS-2005>
1.28030896186829

$$$$
91
                    3D
 Structure written by MMmdl.
156164  0  0  1  0            999 V2000
  -30.5605  -14.7643   20.4520 C   0  0  0  0  0  0
  -30.4346  -12.4646   19.4883 C   0  0  0  0  0  0
  -29.5229  -12.5337   18.2433 C   0  0  0  0  0  0
  -28.0425  -12.3583   18.6366 C   0  0  0  0  0  0
  -27.6455  -13.2314   19.8586 C   0  0  2  0  0  0
  -28.6815  -13.1421   20.9995 C   0  0  0  0  0  0
  -25.2523  -13.8211   20.5659 C   0  0  0  0  0  0
  -24.1820  -13.0447   20.9175 C   0  0  0  0  0  0
  -24.6409  -11.6922   20.8725 C   0  0  0  0  0  0
  -23.9081  -10.4310   21.0398 C   0  0  0  0  0  0
  -24.3650   -9.4223   21.9168 C   0  0  0  0  0  0
  -23.6314   -8.2267   22.0755 C   0  0  0  0  0  0
  -22.4293   -8.0304   21.3555 C   0  0  0  0  0  0
  -21.9926   -9.0273   20.4643 C   0  0  0  0  0  0
  -22.7262  -10.2143   20.3044 C   0  0  0  0  0  0
  -21.6871   -6.0749   22.5285 C   0  0  0  0  0  0
  -21.4017   -6.5647   23.8217 C   0  0  0  0  0  0
  -21.3668   -5.6795   24.9173 C   0  0  0  0  0  0
  -21.6041   -4.3054   24.7230 C   0  0  0  0  0  0
  -21.8823   -3.8154   23.4345 C   0  0  0  0  0  0
  -21.9198   -4.6975   22.3401 C   0  0  0  0  0  0
  -22.7837  -13.5238   21.1838 C   0  0  0  0  0  0
  -22.1654   -4.2160   21.0972 F   0  0  0  0  0  0
  -21.5643   -3.4532   25.7740 F   0  0  0  0  0  0
  -29.9843  -13.5116   20.4345 N   0  0  0  0  0  0
  -26.2942  -12.9402   20.3262 N   0  0  0  0  0  0
  -25.9335  -11.6546   20.5729 N   0  0  0  0  0  0
  -22.0477  -12.8232   22.0388 N   0  0  0  0  0  0
  -25.4236  -15.1940   20.4106 N   0  0  0  0  0  0
  -31.7267  -14.8948   20.0641 O   0  0  0  0  0  0
  -21.6665   -6.8889   21.4241 O   0  0  0  0  0  0
  -22.3534  -14.5554   20.6697 O   0  0  0  0  0  0
  -24.6359  -31.8497   23.1928 C   0  0  0  0  0  0
  -25.9167  -32.4723   23.8293 C   0  0  1  0  0  0
  -27.2283  -27.2357   20.1309 C   0  0  0  0  0  0
  -25.5945  -33.8523   24.2204 N   0  0  0  0  0  0
  -23.4336  -30.4707   21.5373 C   0  0  2  0  0  0
  -24.8790  -28.9090   20.1079 C   0  0  0  0  0  0
  -22.7521  -29.4578   22.4882 C   0  0  0  0  0  0
  -18.0285  -28.1412   22.8463 C   0  0  0  0  0  0
  -24.1487  -36.7268   23.2635 C   0  0  0  0  0  0
  -25.9801  -30.7588   21.3741 C   0  0  0  0  0  0
  -26.0510  -29.3804   20.7107 C   0  0  0  0  0  0
  -27.2235  -28.5593   20.7013 C   0  0  0  0  0  0
  -26.0212  -26.8222   19.5287 C   0  0  0  0  0  0
  -24.8710  -27.6397   19.5041 C   0  0  0  0  0  0
  -23.6532  -29.7999   20.1544 C   0  0  0  0  0  0
  -25.4121  -36.3050   24.0306 C   0  0  1  0  0  0
  -20.5899  -28.3730   23.1246 C   0  0  2  0  0  0
  -20.6799  -26.9441   22.5423 C   0  0  0  0  0  0
  -19.5781  -26.6390   21.5220 C   0  0  0  0  0  0
  -18.1943  -26.7959   22.1609 C   0  0  0  0  0  0
  -19.1543  -28.8881   23.2857 C   0  0  0  0  0  0
  -18.9472  -30.1473   23.8884 C   0  0  0  0  0  0
  -17.6474  -30.6609   24.0559 C   0  0  0  0  0  0
  -25.9072  -34.9421   23.5063 C   0  0  0  0  0  0
  -16.5361  -29.9109   23.6336 C   0  0  0  0  0  0
  -16.7268  -28.6534   23.0344 C   0  0  0  0  0  0
  -26.4521  -31.6573   25.0713 C   0  0  0  0  0  0
  -25.3700  -31.3764   26.1400 C   0  0  0  0  0  0
  -27.0368  -30.2967   24.6254 C   0  0  0  0  0  0
  -27.6052  -32.4327   25.7509 C   0  0  0  0  0  0
  -27.5586  -37.1801   24.8460 C   0  0  0  0  0  0
  -21.4230  -29.3049   22.3616 N   0  0  0  0  0  0
  -26.4292  -37.3768   23.9410 N   0  0  0  0  0  0
  -24.7019  -31.0460   22.0903 N   0  0  0  0  0  0
  -23.4198  -28.8115   23.2998 O   0  0  0  0  0  0
  -28.3618  -26.3871   20.2150 O   0  0  0  0  0  0
  -26.5658  -34.8916   22.4651 O   0  0  0  0  0  0
  -23.5503  -32.1312   23.7225 O   0  0  0  0  0  0
  -29.5352  -19.2210   18.6887 C   0  0  0  0  0  0
  -29.2012  -19.5694   19.9932 C   0  0  0  0  0  0
  -29.7558  -17.2367   20.2449 C   0  0  0  0  0  0
  -29.0923  -22.2125   20.0314 C   0  0  0  0  0  0
  -28.2538  -24.8730   18.1725 C   0  0  0  0  0  0
  -28.8489  -19.1055   16.2431 C   0  0  0  0  0  0
  -28.3000  -23.5631   20.4575 C   0  0  0  0  0  0
  -28.5733  -24.9792   19.6752 C   0  0  2  0  0  0
  -29.3780  -19.9822   17.3941 C   0  0  0  0  0  0
  -29.2376  -18.3770   20.8291 N   0  0  0  0  0  0
  -28.6966  -20.9224   20.4004 N   0  0  0  0  0  0
  -29.7772  -15.8608   20.8030 N   0  0  0  0  0  0
  -30.1340  -22.3657   19.3899 O   0  0  0  0  0  0
  -30.5336  -20.5058   16.9907 F   0  0  0  0  0  0
  -28.4795  -20.9622   17.4777 F   0  0  0  0  0  0
  -30.2297  -17.5908   18.5946 S   0  0  0  0  0  0
  -31.4776  -12.5915   19.1976 H   0  0  0  0  0  0
  -30.3757  -11.4797   19.9525 H   0  0  0  0  0  0
  -29.8141  -11.7730   17.5178 H   0  0  0  0  0  0
  -29.6607  -13.4960   17.7473 H   0  0  0  0  0  0
  -27.8816  -11.3029   18.8599 H   0  0  0  0  0  0
  -27.4014  -12.5908   17.7863 H   0  0  0  0  0  0
  -27.6479  -14.2624   19.5053 H   0  0  0  0  0  0
  -28.7200  -12.1355   21.4184 H   0  0  0  0  0  0
  -28.4049  -13.8005   21.8238 H   0  0  0  0  0  0
  -25.2792   -9.5716   22.4736 H   0  0  0  0  0  0
  -24.0032   -7.4674   22.7493 H   0  0  0  0  0  0
  -21.0862   -8.8801   19.8963 H   0  0  0  0  0  0
  -22.3720  -10.9691   19.6173 H   0  0  0  0  0  0
  -21.1992   -7.6152   23.9717 H   0  0  0  0  0  0
  -21.1487   -6.0524   25.9078 H   0  0  0  0  0  0
  -22.0589   -2.7620   23.2849 H   0  0  0  0  0  0
  -22.4071  -11.9895   22.4815 H   0  0  0  0  0  0
  -21.1102  -13.1288   22.2571 H   0  0  0  0  0  0
  -24.6576  -15.8490   20.5217 H   0  0  0  0  0  0
  -26.2740  -15.6374   20.0879 H   0  0  0  0  0  0
  -26.7231  -32.5348   23.1033 H   0  0  0  0  0  0
  -25.0106  -33.9645   25.0354 H   0  0  0  0  0  0
  -22.7328  -31.2951   21.3885 H   0  0  0  0  0  0
  -23.3769  -35.9589   23.3285 H   0  0  0  0  0  0
  -24.3580  -36.8915   22.2060 H   0  0  0  0  0  0
  -23.7226  -37.6453   23.6676 H   0  0  0  0  0  0
  -26.1295  -31.5223   20.6098 H   0  0  0  0  0  0
  -26.8538  -30.7988   22.0143 H   0  0  0  0  0  0
  -28.1252  -28.9264   21.1749 H   0  0  0  0  0  0
  -25.9331  -25.8344   19.1136 H   0  0  0  0  0  0
  -23.9670  -27.2665   19.0440 H   0  0  0  0  0  0
  -23.7879  -30.5765   19.4009 H   0  0  0  0  0  0
  -22.7705  -29.2396   19.8418 H   0  0  0  0  0  0
  -25.1321  -36.1898   25.0804 H   0  0  0  0  0  0
  -20.9972  -28.3335   24.1372 H   0  0  0  0  0  0
  -20.5712  -26.2342   23.3643 H   0  0  0  0  0  0
  -21.6667  -26.7488   22.1202 H   0  0  0  0  0  0
  -19.6966  -25.6283   21.1284 H   0  0  0  0  0  0
  -19.6745  -27.3171   20.6722 H   0  0  0  0  0  0
  -17.4239  -26.6677   21.3991 H   0  0  0  0  0  0
  -18.0343  -26.0100   22.9001 H   0  0  0  0  0  0
  -19.7944  -30.7282   24.2266 H   0  0  0  0  0  0
  -17.5033  -31.6289   24.5166 H   0  0  0  0  0  0
  -15.5365  -30.3028   23.7664 H   0  0  0  0  0  0
  -15.8664  -28.0855   22.7079 H   0  0  0  0  0  0
  -24.5892  -30.7104   25.7718 H   0  0  0  0  0  0
  -24.8887  -32.2953   26.4751 H   0  0  0  0  0  0
  -25.7971  -30.8988   27.0223 H   0  0  0  0  0  0
  -26.2966  -29.6717   24.1242 H   0  0  0  0  0  0
  -27.3967  -29.7250   25.4824 H   0  0  0  0  0  0
  -27.8885  -30.4217   23.9558 H   0  0  0  0  0  0
  -27.2633  -33.3630   26.2064 H   0  0  0  0  0  0
  -28.3890  -32.6883   25.0360 H   0  0  0  0  0  0
  -28.0690  -31.8469   26.5460 H   0  0  0  0  0  0
  -28.2593  -38.0111   24.7533 H   0  0  0  0  0  0
  -28.1087  -36.2646   24.6248 H   0  0  0  0  0  0
  -27.2301  -37.1403   25.8859 H   0  0  0  0  0  0
  -20.9430  -29.8739   21.6782 H   0  0  0  0  0  0
  -26.0157  -38.2837   24.1437 H   0  0  0  0  0  0
  -28.8421  -24.0745   17.7179 H   0  0  0  0  0  0
  -28.4978  -25.7951   17.6452 H   0  0  0  0  0  0
  -27.2136  -24.6210   17.9748 H   0  0  0  0  0  0
  -29.5613  -18.3323   15.9546 H   0  0  0  0  0  0
  -28.6553  -19.7013   15.3517 H   0  0  0  0  0  0
  -27.9138  -18.6145   16.5185 H   0  0  0  0  0  0
  -28.5304  -23.7206   21.5110 H   0  0  0  0  0  0
  -27.2335  -23.3424   20.4247 H   0  0  0  0  0  0
  -29.6630  -25.0092   19.6828 H   0  0  0  0  0  0
  -27.9477  -20.9015   21.0788 H   0  0  0  0  0  0
  -28.9545  -15.6209   21.3349 H   0  0  0  0  0  0
  1 25  1  0  0  0
  1 30  2  0  0  0
  1 82  1  0  0  0
  2  3  1  0  0  0
  2 25  1  0  0  0
  2 87  1  0  0  0
  2 88  1  0  0  0
  3  4  1  0  0  0
  3 89  1  0  0  0
  3 90  1  0  0  0
  4  5  1  0  0  0
  4 91  1  0  0  0
  4 92  1  0  0  0
  5  6  1  0  0  0
  5 26  1  0  0  0
  5 93  1  0  0  0
  6 25  1  0  0  0
  6 94  1  0  0  0
  6 95  1  0  0  0
  7  8  2  0  0  0
  7 26  1  0  0  0
  7 29  1  0  0  0
  8  9  1  0  0  0
  8 22  1  0  0  0
  9 10  1  0  0  0
  9 27  2  0  0  0
 10 11  2  0  0  0
 10 15  1  0  0  0
 11 12  1  0  0  0
 11 96  1  0  0  0
 12 13  2  0  0  0
 12 97  1  0  0  0
 13 14  1  0  0  0
 13 31  1  0  0  0
 14 15  2  0  0  0
 14 98  1  0  0  0
 15 99  1  0  0  0
 16 17  2  0  0  0
 16 21  1  0  0  0
 16 31  1  0  0  0
 17 18  1  0  0  0
 17100  1  0  0  0
 18 19  2  0  0  0
 18101  1  0  0  0
 19 20  1  0  0  0
 19 24  1  0  0  0
 20 21  2  0  0  0
 20102  1  0  0  0
 21 23  1  0  0  0
 22 28  1  0  0  0
 22 32  2  0  0  0
 26 27  1  0  0  0
 28103  1  0  0  0
 28104  1  0  0  0
 29105  1  0  0  0
 29106  1  0  0  0
 33 34  1  0  0  0
 33 66  1  0  0  0
 33 70  2  0  0  0
 34 36  1  0  0  0
 34 59  1  0  0  0
 34107  1  0  0  0
 35 44  2  0  0  0
 35 45  1  0  0  0
 35 68  1  0  0  0
 36 56  1  0  0  0
 36108  1  0  0  0
 37 39  1  0  0  0
 37 47  1  0  0  0
 37 66  1  0  0  0
 37109  1  0  0  0
 38 43  2  0  0  0
 38 46  1  0  0  0
 38 47  1  0  0  0
 39 64  1  0  0  0
 39 67  2  0  0  0
 40 52  1  0  0  0
 40 53  2  0  0  0
 40 58  1  0  0  0
 41110  1  0  0  0
 41111  1  0  0  0
 41112  1  0  0  0
 41 48  1  0  0  0
 42 43  1  0  0  0
 42 66  1  0  0  0
 42113  1  0  0  0
 42114  1  0  0  0
 43 44  1  0  0  0
 44115  1  0  0  0
 45 46  2  0  0  0
 45116  1  0  0  0
 46117  1  0  0  0
 47118  1  0  0  0
 47119  1  0  0  0
 48 56  1  0  0  0
 48 65  1  0  0  0
 48120  1  0  0  0
 49 50  1  0  0  0
 49 53  1  0  0  0
 49 64  1  0  0  0
 49121  1  0  0  0
 50 51  1  0  0  0
 50122  1  0  0  0
 50123  1  0  0  0
 51 52  1  0  0  0
 51124  1  0  0  0
 51125  1  0  0  0
 52126  1  0  0  0
 52127  1  0  0  0
 53 54  1  0  0  0
 54 55  2  0  0  0
 54128  1  0  0  0
 55 57  1  0  0  0
 55129  1  0  0  0
 56 69  2  0  0  0
 57 58  2  0  0  0
 57130  1  0  0  0
 58131  1  0  0  0
 59 60  1  0  0  0
 59 61  1  0  0  0
 59 62  1  0  0  0
 60132  1  0  0  0
 60133  1  0  0  0
 60134  1  0  0  0
 61135  1  0  0  0
 61136  1  0  0  0
 61137  1  0  0  0
 62138  1  0  0  0
 62139  1  0  0  0
 62140  1  0  0  0
 63 65  1  0  0  0
 63141  1  0  0  0
 63142  1  0  0  0
 63143  1  0  0  0
 64144  1  0  0  0
 65145  1  0  0  0
 68 78  1  0  0  0
 71 72  2  0  0  0
 71 79  1  0  0  0
 71 86  1  0  0  0
 72 80  1  0  0  0
 72 81  1  0  0  0
 73 80  2  0  0  0
 73 82  1  0  0  0
 73 86  1  0  0  0
 74 77  1  0  0  0
 74 81  1  0  0  0
 74 83  2  0  0  0
 75146  1  0  0  0
 75147  1  0  0  0
 75148  1  0  0  0
 75 78  1  0  0  0
 76149  1  0  0  0
 76150  1  0  0  0
 76151  1  0  0  0
 76 79  1  0  0  0
 77 78  1  0  0  0
 77152  1  0  0  0
 77153  1  0  0  0
 78154  1  0  0  0
 79 84  1  0  0  0
 79 85  1  0  0  0
 81155  1  0  0  0
 82156  1  0  0  0
M  ISO  4   1 100  68 101  78 101  82 100
M  END
> <chiral flag>
0

> <version>
0

> <s_m_source_file>
/data/baiqing/PycharmProjects/Reinvent-master-3.2/result/LINK_invent/BTK/process_docking_weight1_custom_product_contain_oxygen_bond_distance_aromatic_linkinvent_7_9_3/rearranged_h_0185.sdf

> <i_m_source_file_index>
92

> <r_mmod_Potential_Energy-OPLS-2005>
118.039840698242

> <r_mmod_Stretch_Energy-OPLS-2005>
142.682113647461

> <r_mmod_Bend_Energy-OPLS-2005>
219.395767211914

> <r_mmod_Torsional_Energy-OPLS-2005>
220.910858154297

> <r_mmod_Improper_Torsional_Energy-OPLS-2005>
5.39563226699829

> <r_mmod_Van_der_Waal_Energy-OPLS-2005>
115.018127441406

> <r_mmod_Electrostatic_Energy-OPLS-2005>
-441.982147216797

> <r_mmod_Solvation_Energy-OPLS-2005>
-236.488174438477

> <b_mmod_Minimization_Converged-OPLS-2005>
0

> <r_mmod_RMS_Derivative-OPLS-2005>
3.20423078536987

$$$$
92
                    3D
 Structure written by MMmdl.
154162  0  0  1  0            999 V2000
  -30.6251  -14.7291   20.4352 C   0  0  0  0  0  0
  -30.4328  -12.4384   19.4769 C   0  0  0  0  0  0
  -29.5137  -12.4992   18.2364 C   0  0  0  0  0  0
  -28.0385  -12.3327   18.6463 C   0  0  0  0  0  0
  -27.6441  -13.2314   19.8493 C   0  0  2  0  0  0
  -28.6888  -13.1695   20.9870 C   0  0  0  0  0  0
  -25.2523  -13.8196   20.5681 C   0  0  0  0  0  0
  -24.1803  -13.0446   20.9196 C   0  0  0  0  0  0
  -24.6391  -11.6925   20.8720 C   0  0  0  0  0  0
  -23.9067  -10.4297   21.0390 C   0  0  0  0  0  0
  -24.3622   -9.4212   21.9164 C   0  0  0  0  0  0
  -23.6296   -8.2250   22.0745 C   0  0  0  0  0  0
  -22.4274   -8.0281   21.3539 C   0  0  0  0  0  0
  -21.9909   -9.0253   20.4650 C   0  0  0  0  0  0
  -22.7240  -10.2135   20.3049 C   0  0  0  0  0  0
  -21.6858   -6.0728   22.5259 C   0  0  0  0  0  0
  -21.4034   -6.5632   23.8191 C   0  0  0  0  0  0
  -21.3661   -5.6788   24.9155 C   0  0  0  0  0  0
  -21.6044   -4.3051   24.7217 C   0  0  0  0  0  0
  -21.8822   -3.8131   23.4332 C   0  0  0  0  0  0
  -21.9197   -4.6948   22.3385 C   0  0  0  0  0  0
  -22.7824  -13.5234   21.1839 C   0  0  0  0  0  0
  -22.1663   -4.2138   21.0961 F   0  0  0  0  0  0
  -21.5625   -3.4523   25.7724 F   0  0  0  0  0  0
  -29.9964  -13.5047   20.4084 N   0  0  0  0  0  0
  -26.2949  -12.9405   20.3260 N   0  0  0  0  0  0
  -25.9318  -11.6548   20.5717 N   0  0  0  0  0  0
  -22.0466  -12.8240   22.0420 N   0  0  0  0  0  0
  -25.4185  -15.1920   20.4091 N   0  0  0  0  0  0
  -31.8083  -14.8181   20.0992 O   0  0  0  0  0  0
  -21.6646   -6.8872   21.4226 O   0  0  0  0  0  0
  -22.3495  -14.5516   20.6662 O   0  0  0  0  0  0
  -24.6307  -31.8566   23.2010 C   0  0  0  0  0  0
  -25.9144  -32.4769   23.8340 C   0  0  1  0  0  0
  -27.2079  -27.2546   20.1235 C   0  0  0  0  0  0
  -25.5951  -33.8566   24.2275 N   0  0  0  0  0  0
  -23.4264  -30.4812   21.5443 C   0  0  2  0  0  0
  -24.8712  -28.9342   20.1109 C   0  0  0  0  0  0
  -22.7499  -29.4603   22.4905 C   0  0  0  0  0  0
  -18.0286  -28.1384   22.8488 C   0  0  0  0  0  0
  -24.1489  -36.7278   23.2641 C   0  0  0  0  0  0
  -25.9747  -30.7667   21.3830 C   0  0  0  0  0  0
  -26.0441  -29.3886   20.7257 C   0  0  0  0  0  0
  -27.2119  -28.5591   20.7278 C   0  0  0  0  0  0
  -26.0093  -26.8794   19.4703 C   0  0  0  0  0  0
  -24.8603  -27.6883   19.4735 C   0  0  0  0  0  0
  -23.6451  -29.8226   20.1580 C   0  0  0  0  0  0
  -25.4114  -36.3068   24.0328 C   0  0  1  0  0  0
  -20.5893  -28.3684   23.1272 C   0  0  2  0  0  0
  -20.6774  -26.9402   22.5410 C   0  0  0  0  0  0
  -19.5748  -26.6380   21.5213 C   0  0  0  0  0  0
  -18.1924  -26.7923   22.1629 C   0  0  0  0  0  0
  -19.1543  -28.8851   23.2878 C   0  0  0  0  0  0
  -18.9466  -30.1450   23.8898 C   0  0  0  0  0  0
  -17.6471  -30.6586   24.0554 C   0  0  0  0  0  0
  -25.9054  -34.9443   23.5097 C   0  0  0  0  0  0
  -16.5359  -29.9088   23.6331 C   0  0  0  0  0  0
  -16.7277  -28.6504   23.0355 C   0  0  0  0  0  0
  -26.4514  -31.6584   25.0721 C   0  0  0  0  0  0
  -25.3740  -31.3741   26.1450 C   0  0  0  0  0  0
  -27.0352  -30.2998   24.6202 C   0  0  0  0  0  0
  -27.6057  -32.4324   25.7501 C   0  0  0  0  0  0
  -27.5577  -37.1799   24.8470 C   0  0  0  0  0  0
  -21.4204  -29.3041   22.3664 N   0  0  0  0  0  0
  -26.4289  -37.3767   23.9402 N   0  0  0  0  0  0
  -24.6966  -31.0524   22.0995 N   0  0  0  0  0  0
  -23.4216  -28.8127   23.2974 O   0  0  0  0  0  0
  -28.3053  -26.3583   20.2055 O   0  0  0  0  0  0
  -26.5614  -34.8919   22.4661 O   0  0  0  0  0  0
  -23.5465  -32.1393   23.7308 O   0  0  0  0  0  0
  -29.7915  -18.8824   21.9509 C   0  0  0  0  0  0
  -29.7383  -18.6058   20.6077 C   0  0  0  0  0  0
  -29.2436  -20.9583   20.6288 C   0  0  0  0  0  0
  -28.4938  -23.8678   22.0708 C   0  0  0  0  0  0
  -30.1062  -17.2298   19.9254 C   0  0  0  0  0  0
  -28.9710  -23.7497   20.6141 C   0  0  2  0  0  0
  -28.2121  -24.9167   19.7506 C   0  0  2  0  0  0
  -28.6413  -24.9271   18.2574 C   0  0  0  0  0  0
  -29.4029  -19.8161   19.8860 N   0  0  0  0  0  0
  -28.9125  -22.2886   20.1522 N   0  0  0  0  0  0
  -29.8545  -15.8701   20.5746 N   0  0  0  0  0  0
  -28.0087  -25.8724   17.5603 F   0  0  0  0  0  0
  -29.9542  -25.1372   18.1540 F   0  0  0  0  0  0
  -28.3490  -23.7559   17.6892 F   0  0  0  0  0  0
  -29.4897  -20.5763   22.3352 S   0  0  0  0  0  0
  -31.4747  -12.5561   19.1728 H   0  0  0  0  0  0
  -30.3727  -11.4610   19.9578 H   0  0  0  0  0  0
  -29.7921  -11.7261   17.5184 H   0  0  0  0  0  0
  -29.6488  -13.4512   17.7201 H   0  0  0  0  0  0
  -27.8895  -11.2840   18.9063 H   0  0  0  0  0  0
  -27.3859  -12.5312   17.7944 H   0  0  0  0  0  0
  -27.6373  -14.2525   19.4679 H   0  0  0  0  0  0
  -28.7115  -12.1762   21.4387 H   0  0  0  0  0  0
  -28.4252  -13.8639   21.7868 H   0  0  0  0  0  0
  -25.2772   -9.5688   22.4730 H   0  0  0  0  0  0
  -23.9996   -7.4642   22.7476 H   0  0  0  0  0  0
  -21.0829   -8.8781   19.8965 H   0  0  0  0  0  0
  -22.3685  -10.9670   19.6151 H   0  0  0  0  0  0
  -21.2049   -7.6143   23.9696 H   0  0  0  0  0  0
  -21.1478   -6.0514   25.9064 H   0  0  0  0  0  0
  -22.0605   -2.7595   23.2817 H   0  0  0  0  0  0
  -22.4105  -11.9939   22.4857 H   0  0  0  0  0  0
  -21.1071  -13.1239   22.2591 H   0  0  0  0  0  0
  -24.6489  -15.8429   20.5305 H   0  0  0  0  0  0
  -26.2570  -15.6365   20.0569 H   0  0  0  0  0  0
  -26.7203  -32.5408   23.1068 H   0  0  0  0  0  0
  -25.0102  -33.9707   25.0432 H   0  0  0  0  0  0
  -22.7242  -31.3042   21.4002 H   0  0  0  0  0  0
  -23.3753  -35.9610   23.3306 H   0  0  0  0  0  0
  -24.3578  -36.8903   22.2056 H   0  0  0  0  0  0
  -23.7249  -37.6486   23.6658 H   0  0  0  0  0  0
  -26.1141  -31.5263   20.6117 H   0  0  0  0  0  0
  -26.8548  -30.8142   22.0138 H   0  0  0  0  0  0
  -28.1051  -28.8966   21.2361 H   0  0  0  0  0  0
  -25.9058  -25.9415   18.9494 H   0  0  0  0  0  0
  -23.9644  -27.3374   18.9798 H   0  0  0  0  0  0
  -23.7787  -30.6020   19.4076 H   0  0  0  0  0  0
  -22.7627  -29.2624   19.8424 H   0  0  0  0  0  0
  -25.1298  -36.1909   25.0821 H   0  0  0  0  0  0
  -20.9987  -28.3249   24.1392 H   0  0  0  0  0  0
  -20.5654  -26.2290   23.3607 H   0  0  0  0  0  0
  -21.6637  -26.7412   22.1207 H   0  0  0  0  0  0
  -19.6898  -25.6289   21.1237 H   0  0  0  0  0  0
  -19.6683  -27.3191   20.6738 H   0  0  0  0  0  0
  -17.4190  -26.6667   21.4034 H   0  0  0  0  0  0
  -18.0331  -26.0066   22.9030 H   0  0  0  0  0  0
  -19.7939  -30.7253   24.2283 H   0  0  0  0  0  0
  -17.5025  -31.6266   24.5146 H   0  0  0  0  0  0
  -15.5357  -30.2995   23.7647 H   0  0  0  0  0  0
  -15.8673  -28.0817   22.7089 H   0  0  0  0  0  0
  -24.5924  -30.7070   25.7797 H   0  0  0  0  0  0
  -24.8923  -32.2913   26.4840 H   0  0  0  0  0  0
  -25.8076  -30.8961   27.0242 H   0  0  0  0  0  0
  -26.2931  -29.6750   24.1219 H   0  0  0  0  0  0
  -27.4029  -29.7252   25.4710 H   0  0  0  0  0  0
  -27.8810  -30.4274   23.9444 H   0  0  0  0  0  0
  -27.2661  -33.3636   26.2049 H   0  0  0  0  0  0
  -28.3893  -32.6870   25.0350 H   0  0  0  0  0  0
  -28.0691  -31.8464   26.5455 H   0  0  0  0  0  0
  -28.2598  -38.0095   24.7503 H   0  0  0  0  0  0
  -28.1070  -36.2620   24.6304 H   0  0  0  0  0  0
  -27.2289  -37.1469   25.8877 H   0  0  0  0  0  0
  -20.9382  -29.8802   21.6908 H   0  0  0  0  0  0
  -26.0165  -38.2836   24.1415 H   0  0  0  0  0  0
  -30.0380  -18.1915   22.7458 H   0  0  0  0  0  0
  -28.5531  -24.9006   22.4115 H   0  0  0  0  0  0
  -29.1087  -23.2893   22.7555 H   0  0  0  0  0  0
  -27.4571  -23.5462   22.1832 H   0  0  0  0  0  0
  -31.1662  -17.2704   19.6669 H   0  0  0  0  0  0
  -29.6039  -17.1851   18.9597 H   0  0  0  0  0  0
  -30.0286  -24.0153   20.6009 H   0  0  0  0  0  0
  -27.1732  -24.6009   19.8042 H   0  0  0  0  0  0
  -28.6997  -22.2423   19.1598 H   0  0  0  0  0  0
  -28.9048  -15.7107   20.8732 H   0  0  0  0  0  0
  1 25  1  0  0  0
  1 30  2  0  0  0
  1 81  1  0  0  0
  2  3  1  0  0  0
  2 25  1  0  0  0
  2 86  1  0  0  0
  2 87  1  0  0  0
  3  4  1  0  0  0
  3 88  1  0  0  0
  3 89  1  0  0  0
  4  5  1  0  0  0
  4 90  1  0  0  0
  4 91  1  0  0  0
  5  6  1  0  0  0
  5 26  1  0  0  0
  5 92  1  0  0  0
  6 25  1  0  0  0
  6 93  1  0  0  0
  6 94  1  0  0  0
  7  8  2  0  0  0
  7 26  1  0  0  0
  7 29  1  0  0  0
  8  9  1  0  0  0
  8 22  1  0  0  0
  9 10  1  0  0  0
  9 27  2  0  0  0
 10 11  2  0  0  0
 10 15  1  0  0  0
 11 12  1  0  0  0
 11 95  1  0  0  0
 12 13  2  0  0  0
 12 96  1  0  0  0
 13 14  1  0  0  0
 13 31  1  0  0  0
 14 15  2  0  0  0
 14 97  1  0  0  0
 15 98  1  0  0  0
 16 17  2  0  0  0
 16 21  1  0  0  0
 16 31  1  0  0  0
 17 18  1  0  0  0
 17 99  1  0  0  0
 18 19  2  0  0  0
 18100  1  0  0  0
 19 20  1  0  0  0
 19 24  1  0  0  0
 20 21  2  0  0  0
 20101  1  0  0  0
 21 23  1  0  0  0
 22 28  1  0  0  0
 22 32  2  0  0  0
 26 27  1  0  0  0
 28102  1  0  0  0
 28103  1  0  0  0
 29104  1  0  0  0
 29105  1  0  0  0
 33 34  1  0  0  0
 33 66  1  0  0  0
 33 70  2  0  0  0
 34 36  1  0  0  0
 34 59  1  0  0  0
 34106  1  0  0  0
 35 44  2  0  0  0
 35 45  1  0  0  0
 35 68  1  0  0  0
 36 56  1  0  0  0
 36107  1  0  0  0
 37 39  1  0  0  0
 37 47  1  0  0  0
 37 66  1  0  0  0
 37108  1  0  0  0
 38 43  2  0  0  0
 38 46  1  0  0  0
 38 47  1  0  0  0
 39 64  1  0  0  0
 39 67  2  0  0  0
 40 52  1  0  0  0
 40 53  2  0  0  0
 40 58  1  0  0  0
 41109  1  0  0  0
 41110  1  0  0  0
 41111  1  0  0  0
 41 48  1  0  0  0
 42 43  1  0  0  0
 42 66  1  0  0  0
 42112  1  0  0  0
 42113  1  0  0  0
 43 44  1  0  0  0
 44114  1  0  0  0
 45 46  2  0  0  0
 45115  1  0  0  0
 46116  1  0  0  0
 47117  1  0  0  0
 47118  1  0  0  0
 48 56  1  0  0  0
 48 65  1  0  0  0
 48119  1  0  0  0
 49 50  1  0  0  0
 49 53  1  0  0  0
 49 64  1  0  0  0
 49120  1  0  0  0
 50 51  1  0  0  0
 50121  1  0  0  0
 50122  1  0  0  0
 51 52  1  0  0  0
 51123  1  0  0  0
 51124  1  0  0  0
 52125  1  0  0  0
 52126  1  0  0  0
 53 54  1  0  0  0
 54 55  2  0  0  0
 54127  1  0  0  0
 55 57  1  0  0  0
 55128  1  0  0  0
 56 69  2  0  0  0
 57 58  2  0  0  0
 57129  1  0  0  0
 58130  1  0  0  0
 59 60  1  0  0  0
 59 61  1  0  0  0
 59 62  1  0  0  0
 60131  1  0  0  0
 60132  1  0  0  0
 60133  1  0  0  0
 61134  1  0  0  0
 61135  1  0  0  0
 61136  1  0  0  0
 62137  1  0  0  0
 62138  1  0  0  0
 62139  1  0  0  0
 63 65  1  0  0  0
 63140  1  0  0  0
 63141  1  0  0  0
 63142  1  0  0  0
 64143  1  0  0  0
 65144  1  0  0  0
 68 77  1  0  0  0
 71 72  2  0  0  0
 71 85  1  0  0  0
 71145  1  0  0  0
 72 75  1  0  0  0
 72 79  1  0  0  0
 73 79  2  0  0  0
 73 80  1  0  0  0
 73 85  1  0  0  0
 74146  1  0  0  0
 74147  1  0  0  0
 74148  1  0  0  0
 74 76  1  0  0  0
 75 81  1  0  0  0
 75149  1  0  0  0
 75150  1  0  0  0
 76 77  1  0  0  0
 76 80  1  0  0  0
 76151  1  0  0  0
 77 78  1  0  0  0
 77152  1  0  0  0
 78 82  1  0  0  0
 78 83  1  0  0  0
 78 84  1  0  0  0
 80153  1  0  0  0
 81154  1  0  0  0
M  ISO  4   1 100  68 101  77 101  81 100
M  END
> <chiral flag>
0

> <version>
0

> <s_m_source_file>
/data/baiqing/PycharmProjects/Reinvent-master-3.2/result/LINK_invent/BTK/process_docking_weight1_custom_product_contain_oxygen_bond_distance_aromatic_linkinvent_7_9_3/rearranged_h_0185.sdf

> <i_m_source_file_index>
93

> <r_mmod_Potential_Energy-OPLS-2005>
82.1912078857422

> <r_mmod_Stretch_Energy-OPLS-2005>
122.994277954102

> <r_mmod_Bend_Energy-OPLS-2005>
163.803665161133

> <r_mmod_Torsional_Energy-OPLS-2005>
204.794494628906

> <r_mmod_Improper_Torsional_Energy-OPLS-2005>
8.13785648345947

> <r_mmod_Van_der_Waal_Energy-OPLS-2005>
122.544906616211

> <r_mmod_Electrostatic_Energy-OPLS-2005>
-411.371643066406

> <r_mmod_Solvation_Energy-OPLS-2005>
-213.577590942383

> <b_mmod_Minimization_Converged-OPLS-2005>
0

> <r_mmod_RMS_Derivative-OPLS-2005>
2.4342474937439

$$$$
93
                    3D
 Structure written by MMmdl.
150158  0  0  1  0            999 V2000
  -30.7081  -14.4976   20.5483 C   0  0  0  0  0  0
  -30.4149  -12.3165   19.4357 C   0  0  0  0  0  0
  -29.4932  -12.4974   18.2126 C   0  0  0  0  0  0
  -28.0157  -12.3560   18.6257 C   0  0  0  0  0  0
  -27.6565  -13.2129   19.8698 C   0  0  2  0  0  0
  -28.6980  -13.0343   20.9974 C   0  0  0  0  0  0
  -25.2574  -13.8181   20.5692 C   0  0  0  0  0  0
  -24.1833  -13.0446   20.9190 C   0  0  0  0  0  0
  -24.6392  -11.6916   20.8742 C   0  0  0  0  0  0
  -23.9063  -10.4300   21.0413 C   0  0  0  0  0  0
  -24.3618   -9.4213   21.9187 C   0  0  0  0  0  0
  -23.6295   -8.2247   22.0757 C   0  0  0  0  0  0
  -22.4276   -8.0285   21.3548 C   0  0  0  0  0  0
  -21.9910   -9.0259   20.4650 C   0  0  0  0  0  0
  -22.7237  -10.2139   20.3060 C   0  0  0  0  0  0
  -21.6854   -6.0740   22.5282 C   0  0  0  0  0  0
  -21.4016   -6.5644   23.8215 C   0  0  0  0  0  0
  -21.3657   -5.6797   24.9178 C   0  0  0  0  0  0
  -21.6042   -4.3060   24.7228 C   0  0  0  0  0  0
  -21.8819   -3.8151   23.4349 C   0  0  0  0  0  0
  -21.9194   -4.6968   22.3406 C   0  0  0  0  0  0
  -22.7858  -13.5241   21.1853 C   0  0  0  0  0  0
  -22.1663   -4.2153   21.0984 F   0  0  0  0  0  0
  -21.5625   -3.4542   25.7740 F   0  0  0  0  0  0
  -30.0250  -13.3254   20.4356 N   0  0  0  0  0  0
  -26.3002  -12.9356   20.3358 N   0  0  0  0  0  0
  -25.9318  -11.6510   20.5773 N   0  0  0  0  0  0
  -22.0504  -12.8226   22.0409 N   0  0  0  0  0  0
  -25.4299  -15.1898   20.4096 N   0  0  0  0  0  0
  -31.8543  -14.6351   20.1131 O   0  0  0  0  0  0
  -21.6640   -6.8882   21.4243 O   0  0  0  0  0  0
  -22.3546  -14.5553   20.6714 O   0  0  0  0  0  0
  -24.6170  -31.8665   23.2088 C   0  0  0  0  0  0
  -25.9054  -32.4817   23.8390 C   0  0  1  0  0  0
  -27.2284  -27.4128   20.1101 C   0  0  0  0  0  0
  -25.5903  -33.8615   24.2320 N   0  0  0  0  0  0
  -23.4068  -30.4896   21.5491 C   0  0  2  0  0  0
  -24.8549  -28.9557   20.1110 C   0  0  0  0  0  0
  -22.7426  -29.4651   22.4980 C   0  0  0  0  0  0
  -18.0274  -28.1382   22.8491 C   0  0  0  0  0  0
  -24.1490  -36.7315   23.2636 C   0  0  0  0  0  0
  -25.9377  -30.8274   21.3644 C   0  0  0  0  0  0
  -26.0167  -29.4613   20.7094 C   0  0  0  0  0  0
  -27.2106  -28.6991   20.7016 C   0  0  0  0  0  0
  -26.0548  -26.9326   19.4913 C   0  0  0  0  0  0
  -24.8702  -27.6923   19.4947 C   0  0  0  0  0  0
  -23.6166  -29.8230   20.1632 C   0  0  0  0  0  0
  -25.4110  -36.3109   24.0334 C   0  0  1  0  0  0
  -20.5866  -28.3675   23.1317 C   0  0  2  0  0  0
  -20.6768  -26.9409   22.5423 C   0  0  0  0  0  0
  -19.5753  -26.6394   21.5215 C   0  0  0  0  0  0
  -18.1933  -26.7925   22.1630 C   0  0  0  0  0  0
  -19.1521  -28.8843   23.2898 C   0  0  0  0  0  0
  -18.9447  -30.1445   23.8914 C   0  0  0  0  0  0
  -17.6450  -30.6586   24.0564 C   0  0  0  0  0  0
  -25.9035  -34.9473   23.5124 C   0  0  0  0  0  0
  -16.5342  -29.9088   23.6326 C   0  0  0  0  0  0
  -16.7260  -28.6506   23.0348 C   0  0  0  0  0  0
  -26.4474  -31.6600   25.0725 C   0  0  0  0  0  0
  -25.3735  -31.3710   26.1471 C   0  0  0  0  0  0
  -27.0306  -30.3042   24.6107 C   0  0  0  0  0  0
  -27.6049  -32.4320   25.7488 C   0  0  0  0  0  0
  -27.5581  -37.1813   24.8464 C   0  0  0  0  0  0
  -21.4149  -29.3041   22.3724 N   0  0  0  0  0  0
  -26.4297  -37.3792   23.9403 N   0  0  0  0  0  0
  -24.6721  -31.0753   22.0993 N   0  0  0  0  0  0
  -23.4186  -28.8187   23.3026 O   0  0  0  0  0  0
  -28.3565  -26.6152   20.1417 O   0  0  0  0  0  0
  -26.5600  -34.8925   22.4688 O   0  0  0  0  0  0
  -23.5358  -32.1426   23.7471 O   0  0  0  0  0  0
  -28.3305  -18.0430   21.7043 C   0  0  0  0  0  0
  -29.5708  -18.0765   21.1143 C   0  0  0  0  0  0
  -28.9642  -20.2947   20.9024 C   0  0  0  0  0  0
  -28.4283  -22.7476   20.8256 C   0  0  0  0  0  0
  -30.5663  -16.9401   20.9640 C   0  0  0  0  0  0
  -28.8058  -24.1076   20.1716 C   0  0  0  0  0  0
  -28.1833  -25.3644   20.8573 C   0  0  0  0  0  0
  -29.9037  -19.3671   20.6492 N   0  0  0  0  0  0
  -29.1573  -21.6549   20.4963 N   0  0  0  0  0  0
  -30.0215  -15.5679   20.9999 N   0  0  0  0  0  0
  -27.4890  -22.7036   21.6244 O   0  0  0  0  0  0
  -27.5548  -19.6128   21.7190 S   0  0  0  0  0  0
  -31.4611  -12.3998   19.1356 H   0  0  0  0  0  0
  -30.3065  -11.3146   19.8541 H   0  0  0  0  0  0
  -29.7368  -11.7629   17.4437 H   0  0  0  0  0  0
  -29.6597  -13.4779   17.7635 H   0  0  0  0  0  0
  -27.8333  -11.3019   18.8381 H   0  0  0  0  0  0
  -27.3639  -12.6134   17.7902 H   0  0  0  0  0  0
  -27.6899  -14.2545   19.5499 H   0  0  0  0  0  0
  -28.6765  -12.0135   21.3821 H   0  0  0  0  0  0
  -28.4619  -13.6764   21.8476 H   0  0  0  0  0  0
  -25.2766   -9.5689   22.4756 H   0  0  0  0  0  0
  -24.0006   -7.4641   22.7475 H   0  0  0  0  0  0
  -21.0841   -8.8781   19.8957 H   0  0  0  0  0  0
  -22.3700  -10.9679   19.6169 H   0  0  0  0  0  0
  -21.2010   -7.6152   23.9718 H   0  0  0  0  0  0
  -21.1477   -6.0530   25.9080 H   0  0  0  0  0  0
  -22.0598   -2.7612   23.2851 H   0  0  0  0  0  0
  -22.4122  -11.9872   22.4766 H   0  0  0  0  0  0
  -21.1132  -13.1263   22.2640 H   0  0  0  0  0  0
  -24.6604  -15.8433   20.5074 H   0  0  0  0  0  0
  -26.2749  -15.6246   20.0614 H   0  0  0  0  0  0
  -26.7128  -32.5525   23.1155 H   0  0  0  0  0  0
  -25.0058  -33.9774   25.0470 H   0  0  0  0  0  0
  -22.6964  -31.3066   21.4089 H   0  0  0  0  0  0
  -23.3746  -35.9654   23.3313 H   0  0  0  0  0  0
  -24.3581  -36.8915   22.2047 H   0  0  0  0  0  0
  -23.7252  -37.6527   23.6647 H   0  0  0  0  0  0
  -26.0526  -31.5936   20.5964 H   0  0  0  0  0  0
  -26.8247  -30.8804   21.9840 H   0  0  0  0  0  0
  -28.1059  -29.0800   21.1733 H   0  0  0  0  0  0
  -26.0526  -25.9599   19.0193 H   0  0  0  0  0  0
  -23.9790  -27.2980   19.0257 H   0  0  0  0  0  0
  -23.7244  -30.5985   19.4041 H   0  0  0  0  0  0
  -22.7404  -29.2430   19.8681 H   0  0  0  0  0  0
  -25.1289  -36.1971   25.0827 H   0  0  0  0  0  0
  -20.9957  -28.3245   24.1441 H   0  0  0  0  0  0
  -21.6641  -26.7452   22.1220 H   0  0  0  0  0  0
  -20.5677  -26.2280   23.3610 H   0  0  0  0  0  0
  -19.6925  -25.6308   21.1241 H   0  0  0  0  0  0
  -19.6689  -27.3207   20.6749 H   0  0  0  0  0  0
  -17.4201  -26.6661   21.4038 H   0  0  0  0  0  0
  -18.0351  -26.0069   22.9028 H   0  0  0  0  0  0
  -19.7924  -30.7247   24.2300 H   0  0  0  0  0  0
  -17.5004  -31.6268   24.5162 H   0  0  0  0  0  0
  -15.5343  -30.2994   23.7652 H   0  0  0  0  0  0
  -15.8653  -28.0837   22.7066 H   0  0  0  0  0  0
  -24.5901  -30.7067   25.7809 H   0  0  0  0  0  0
  -24.8934  -32.2867   26.4934 H   0  0  0  0  0  0
  -25.8078  -30.8867   27.0225 H   0  0  0  0  0  0
  -26.2855  -29.6809   24.1148 H   0  0  0  0  0  0
  -27.4064  -29.7272   25.4566 H   0  0  0  0  0  0
  -27.8696  -30.4364   23.9269 H   0  0  0  0  0  0
  -27.2668  -33.3604   26.2103 H   0  0  0  0  0  0
  -28.3840  -32.6904   25.0305 H   0  0  0  0  0  0
  -28.0744  -31.8424   26.5374 H   0  0  0  0  0  0
  -28.2610  -38.0100   24.7499 H   0  0  0  0  0  0
  -28.1066  -36.2630   24.6307 H   0  0  0  0  0  0
  -27.2295  -37.1481   25.8867 H   0  0  0  0  0  0
  -20.9324  -29.8763   21.6940 H   0  0  0  0  0  0
  -26.0187  -38.2874   24.1393 H   0  0  0  0  0  0
  -27.8286  -17.1977   22.1553 H   0  0  0  0  0  0
  -31.1072  -17.0778   20.0260 H   0  0  0  0  0  0
  -31.3214  -17.0179   21.7475 H   0  0  0  0  0  0
  -28.4779  -24.0713   19.1331 H   0  0  0  0  0  0
  -29.8910  -24.2081   20.1534 H   0  0  0  0  0  0
  -27.1304  -25.1714   21.0688 H   0  0  0  0  0  0
  -28.6473  -25.4915   21.8360 H   0  0  0  0  0  0
  -29.9418  -21.8138   19.8818 H   0  0  0  0  0  0
  -29.0722  -15.4383   21.3104 H   0  0  0  0  0  0
  1 25  1  0  0  0
  1 30  2  0  0  0
  1 80  1  0  0  0
  2  3  1  0  0  0
  2 25  1  0  0  0
  2 83  1  0  0  0
  2 84  1  0  0  0
  3  4  1  0  0  0
  3 85  1  0  0  0
  3 86  1  0  0  0
  4  5  1  0  0  0
  4 87  1  0  0  0
  4 88  1  0  0  0
  5  6  1  0  0  0
  5 26  1  0  0  0
  5 89  1  0  0  0
  6 25  1  0  0  0
  6 90  1  0  0  0
  6 91  1  0  0  0
  7  8  2  0  0  0
  7 26  1  0  0  0
  7 29  1  0  0  0
  8  9  1  0  0  0
  8 22  1  0  0  0
  9 10  1  0  0  0
  9 27  2  0  0  0
 10 11  2  0  0  0
 10 15  1  0  0  0
 11 12  1  0  0  0
 11 92  1  0  0  0
 12 13  2  0  0  0
 12 93  1  0  0  0
 13 14  1  0  0  0
 13 31  1  0  0  0
 14 15  2  0  0  0
 14 94  1  0  0  0
 15 95  1  0  0  0
 16 17  2  0  0  0
 16 21  1  0  0  0
 16 31  1  0  0  0
 17 18  1  0  0  0
 17 96  1  0  0  0
 18 19  2  0  0  0
 18 97  1  0  0  0
 19 20  1  0  0  0
 19 24  1  0  0  0
 20 21  2  0  0  0
 20 98  1  0  0  0
 21 23  1  0  0  0
 22 28  1  0  0  0
 22 32  2  0  0  0
 26 27  1  0  0  0
 28 99  1  0  0  0
 28100  1  0  0  0
 29101  1  0  0  0
 29102  1  0  0  0
 33 34  1  0  0  0
 33 66  1  0  0  0
 33 70  2  0  0  0
 34 36  1  0  0  0
 34 59  1  0  0  0
 34103  1  0  0  0
 35 44  2  0  0  0
 35 45  1  0  0  0
 35 68  1  0  0  0
 36 56  1  0  0  0
 36104  1  0  0  0
 37 39  1  0  0  0
 37 47  1  0  0  0
 37 66  1  0  0  0
 37105  1  0  0  0
 38 43  2  0  0  0
 38 46  1  0  0  0
 38 47  1  0  0  0
 39 64  1  0  0  0
 39 67  2  0  0  0
 40 52  1  0  0  0
 40 53  2  0  0  0
 40 58  1  0  0  0
 41106  1  0  0  0
 41107  1  0  0  0
 41108  1  0  0  0
 41 48  1  0  0  0
 42 43  1  0  0  0
 42 66  1  0  0  0
 42109  1  0  0  0
 42110  1  0  0  0
 43 44  1  0  0  0
 44111  1  0  0  0
 45 46  2  0  0  0
 45112  1  0  0  0
 46113  1  0  0  0
 47114  1  0  0  0
 47115  1  0  0  0
 48 56  1  0  0  0
 48 65  1  0  0  0
 48116  1  0  0  0
 49 50  1  0  0  0
 49 53  1  0  0  0
 49 64  1  0  0  0
 49117  1  0  0  0
 50 51  1  0  0  0
 50118  1  0  0  0
 50119  1  0  0  0
 51 52  1  0  0  0
 51120  1  0  0  0
 51121  1  0  0  0
 52122  1  0  0  0
 52123  1  0  0  0
 53 54  1  0  0  0
 54 55  2  0  0  0
 54124  1  0  0  0
 55 57  1  0  0  0
 55125  1  0  0  0
 56 69  2  0  0  0
 57 58  2  0  0  0
 57126  1  0  0  0
 58127  1  0  0  0
 59 60  1  0  0  0
 59 61  1  0  0  0
 59 62  1  0  0  0
 60128  1  0  0  0
 60129  1  0  0  0
 60130  1  0  0  0
 61131  1  0  0  0
 61132  1  0  0  0
 61133  1  0  0  0
 62134  1  0  0  0
 62135  1  0  0  0
 62136  1  0  0  0
 63 65  1  0  0  0
 63137  1  0  0  0
 63138  1  0  0  0
 63139  1  0  0  0
 64140  1  0  0  0
 65141  1  0  0  0
 68 77  1  0  0  0
 71 72  2  0  0  0
 71 82  1  0  0  0
 71142  1  0  0  0
 72 75  1  0  0  0
 72 78  1  0  0  0
 73 78  2  0  0  0
 73 79  1  0  0  0
 73 82  1  0  0  0
 74 76  1  0  0  0
 74 79  1  0  0  0
 74 81  2  0  0  0
 75 80  1  0  0  0
 75143  1  0  0  0
 75144  1  0  0  0
 76 77  1  0  0  0
 76145  1  0  0  0
 76146  1  0  0  0
 77147  1  0  0  0
 77148  1  0  0  0
 79149  1  0  0  0
 80150  1  0  0  0
M  ISO  4   1 100  68 101  77 101  80 100
M  END
> <chiral flag>
0

> <version>
0

> <s_m_source_file>
/data/baiqing/PycharmProjects/Reinvent-master-3.2/result/LINK_invent/BTK/process_docking_weight1_custom_product_contain_oxygen_bond_distance_aromatic_linkinvent_7_9_3/rearranged_h_0185.sdf

> <i_m_source_file_index>
94

> <r_mmod_Potential_Energy-OPLS-2005>
-277.918731689453

> <r_mmod_Stretch_Energy-OPLS-2005>
40.1817321777344

> <r_mmod_Bend_Energy-OPLS-2005>
97.6372833251953

> <r_mmod_Torsional_Energy-OPLS-2005>
214.990447998047

> <r_mmod_Improper_Torsional_Energy-OPLS-2005>
3.88719487190247

> <r_mmod_Van_der_Waal_Energy-OPLS-2005>
132.219757080078

> <r_mmod_Electrostatic_Energy-OPLS-2005>
-547.136169433594

> <r_mmod_Solvation_Energy-OPLS-2005>
-238.609222412109

> <b_mmod_Minimization_Converged-OPLS-2005>
0

> <r_mmod_RMS_Derivative-OPLS-2005>
0.722574055194855

$$$$
94
                    3D
 Structure written by MMmdl.
147155  0  0  1  0            999 V2000
  -30.5229  -15.1051   20.3885 C   0  0  0  0  0  0
  -30.4570  -12.7163   19.4678 C   0  0  0  0  0  0
  -29.5164  -12.4543   18.2686 C   0  0  0  0  0  0
  -28.0863  -12.1839   18.7641 C   0  0  0  0  0  0
  -27.6117  -13.2293   19.8013 C   0  0  2  0  0  0
  -28.6579  -13.4184   20.9172 C   0  0  0  0  0  0
  -25.2453  -13.8115   20.5873 C   0  0  0  0  0  0
  -24.1792  -13.0454   20.9222 C   0  0  0  0  0  0
  -24.6336  -11.6859   20.8746 C   0  0  0  0  0  0
  -23.9025  -10.4265   21.0403 C   0  0  0  0  0  0
  -24.3572   -9.4200   21.9196 C   0  0  0  0  0  0
  -23.6276   -8.2247   22.0760 C   0  0  0  0  0  0
  -22.4253   -8.0256   21.3538 C   0  0  0  0  0  0
  -21.9871   -9.0230   20.4643 C   0  0  0  0  0  0
  -22.7170  -10.2105   20.3060 C   0  0  0  0  0  0
  -21.6823   -6.0714   22.5278 C   0  0  0  0  0  0
  -21.4003   -6.5638   23.8206 C   0  0  0  0  0  0
  -21.3663   -5.6779   24.9188 C   0  0  0  0  0  0
  -21.6036   -4.3046   24.7218 C   0  0  0  0  0  0
  -21.8820   -3.8140   23.4343 C   0  0  0  0  0  0
  -21.9191   -4.6971   22.3397 C   0  0  0  0  0  0
  -22.7757  -13.5224   21.1952 C   0  0  0  0  0  0
  -22.1642   -4.2152   21.0985 F   0  0  0  0  0  0
  -21.5649   -3.4525   25.7733 F   0  0  0  0  0  0
  -29.9037  -13.8531   20.2672 N   0  0  0  0  0  0
  -26.2836  -12.9327   20.3236 N   0  0  0  0  0  0
  -25.9253  -11.6481   20.5710 N   0  0  0  0  0  0
  -22.0413  -12.8237   22.0447 N   0  0  0  0  0  0
  -25.4471  -15.1893   20.4688 N   0  0  0  0  0  0
  -31.7585  -15.0909   20.3038 O   0  0  0  0  0  0
  -21.6626   -6.8850   21.4216 O   0  0  0  0  0  0
  -22.3515  -14.5552   20.6773 O   0  0  0  0  0  0
  -24.6493  -31.8380   23.1795 C   0  0  0  0  0  0
  -25.9223  -32.4653   23.8190 C   0  0  1  0  0  0
  -27.1777  -27.0299   20.1874 C   0  0  0  0  0  0
  -25.5953  -33.8450   24.2144 N   0  0  0  0  0  0
  -23.4491  -30.4551   21.5351 C   0  0  2  0  0  0
  -24.8987  -28.8650   20.1167 C   0  0  0  0  0  0
  -22.7598  -29.4530   22.4918 C   0  0  0  0  0  0
  -18.0268  -28.1406   22.8471 C   0  0  0  0  0  0
  -24.1493  -36.7195   23.2656 C   0  0  0  0  0  0
  -26.0104  -30.6893   21.3780 C   0  0  0  0  0  0
  -26.0809  -29.2777   20.7454 C   0  0  0  0  0  0
  -27.2181  -28.3731   20.7698 C   0  0  0  0  0  0
  -26.0078  -26.7917   19.4307 C   0  0  0  0  0  0
  -24.8805  -27.6388   19.4450 C   0  0  0  0  0  0
  -23.6805  -29.7777   20.1590 C   0  0  0  0  0  0
  -25.4109  -36.2942   24.0332 C   0  0  1  0  0  0
  -20.5895  -28.3716   23.1239 C   0  0  2  0  0  0
  -20.6808  -26.9439   22.5370 C   0  0  0  0  0  0
  -19.5799  -26.6429   21.5184 C   0  0  0  0  0  0
  -18.1951  -26.7927   22.1573 C   0  0  0  0  0  0
  -19.1557  -28.8876   23.2848 C   0  0  0  0  0  0
  -18.9521  -30.1481   23.8848 C   0  0  0  0  0  0
  -17.6562  -30.6628   24.0598 C   0  0  0  0  0  0
  -25.9093  -34.9359   23.5047 C   0  0  0  0  0  0
  -16.5423  -29.9172   23.6362 C   0  0  0  0  0  0
  -16.7257  -28.6569   23.0367 C   0  0  0  0  0  0
  -26.4543  -31.6507   25.0592 C   0  0  0  0  0  0
  -25.3732  -31.3785   26.1301 C   0  0  0  0  0  0
  -27.0287  -30.2880   24.6081 C   0  0  0  0  0  0
  -27.6178  -32.4196   25.7267 C   0  0  0  0  0  0
  -27.5567  -37.1702   24.8496 C   0  0  0  0  0  0
  -21.4291  -29.3064   22.3652 N   0  0  0  0  0  0
  -26.4237  -37.3701   23.9487 N   0  0  0  0  0  0
  -24.7289  -31.0153   22.0889 N   0  0  0  0  0  0
  -23.4208  -28.8103   23.3073 O   0  0  0  0  0  0
  -28.1657  -25.9520   20.2511 O   0  0  0  0  0  0
  -26.5701  -34.8859   22.4652 O   0  0  0  0  0  0
  -23.5598  -32.1264   23.6995 O   0  0  0  0  0  0
  -30.7496  -18.1856   21.7365 C   0  0  0  0  0  0
  -29.9068  -17.8405   20.6979 C   0  0  0  0  0  0
  -29.4636  -20.3523   20.9081 C   0  0  0  0  0  0
  -28.7320  -23.0230   20.2664 C   0  0  0  0  0  0
  -26.3730  -24.0879   21.0283 C   0  0  0  0  0  0
  -27.8819  -24.4354   20.7511 C   0  0  2  0  0  0
  -29.1480  -19.0971   20.3023 N   0  0  0  0  0  0
  -29.7785  -16.3458   20.2385 N   0  0  0  0  0  0
  -28.6993  -21.7396   20.9664 N   0  0  0  0  0  0
  -29.3872  -23.1104   19.2117 O   0  0  0  0  0  0
  -30.7180  -19.9366   22.1431 S   0  0  0  0  0  0
  -31.4560  -12.9395   19.0917 H   0  0  0  0  0  0
  -30.5606  -11.8294   20.0921 H   0  0  0  0  0  0
  -29.8783  -11.5901   17.7064 H   0  0  0  0  0  0
  -29.5227  -13.3001   17.5814 H   0  0  0  0  0  0
  -28.1112  -11.2116   19.2611 H   0  0  0  0  0  0
  -27.3847  -12.0804   17.9385 H   0  0  0  0  0  0
  -27.5239  -14.1675   19.2529 H   0  0  0  0  0  0
  -28.8042  -12.5109   21.5028 H   0  0  0  0  0  0
  -28.3127  -14.1832   21.6158 H   0  0  0  0  0  0
  -25.2737   -9.5693   22.4777 H   0  0  0  0  0  0
  -23.9980   -7.4617   22.7451 H   0  0  0  0  0  0
  -21.0806   -8.8710   19.8929 H   0  0  0  0  0  0
  -22.3621  -10.9657   19.6166 H   0  0  0  0  0  0
  -21.1982   -7.6143   23.9702 H   0  0  0  0  0  0
  -21.1482   -6.0539   25.9089 H   0  0  0  0  0  0
  -22.0608   -2.7611   23.2843 H   0  0  0  0  0  0
  -22.3976  -11.9843   22.4840 H   0  0  0  0  0  0
  -21.1032  -13.1267   22.2634 H   0  0  0  0  0  0
  -24.7322  -15.8573   20.7251 H   0  0  0  0  0  0
  -26.3719  -15.5923   20.4362 H   0  0  0  0  0  0
  -26.7240  -32.5212   23.0874 H   0  0  0  0  0  0
  -25.0035  -33.9587   25.0239 H   0  0  0  0  0  0
  -22.7610  -31.2863   21.3702 H   0  0  0  0  0  0
  -23.3751  -35.9537   23.3225 H   0  0  0  0  0  0
  -24.3612  -36.8883   22.2078 H   0  0  0  0  0  0
  -23.7229  -37.6369   23.6717 H   0  0  0  0  0  0
  -26.1384  -31.4306   20.5874 H   0  0  0  0  0  0
  -26.8965  -30.7722   21.9960 H   0  0  0  0  0  0
  -28.1144  -28.6842   21.2886 H   0  0  0  0  0  0
  -25.9356  -25.9066   18.8134 H   0  0  0  0  0  0
  -23.9768  -27.3291   18.9338 H   0  0  0  0  0  0
  -23.8178  -30.5425   19.3944 H   0  0  0  0  0  0
  -22.7934  -29.2163   19.8539 H   0  0  0  0  0  0
  -25.1290  -36.1731   25.0802 H   0  0  0  0  0  0
  -20.9922  -28.3236   24.1359 H   0  0  0  0  0  0
  -20.5743  -26.2325   23.3571 H   0  0  0  0  0  0
  -21.6672  -26.7512   22.1152 H   0  0  0  0  0  0
  -19.7036  -25.6394   21.1108 H   0  0  0  0  0  0
  -19.6690  -27.3344   20.6822 H   0  0  0  0  0  0
  -17.4231  -26.6689   21.3935 H   0  0  0  0  0  0
  -18.0314  -26.0083   22.8977 H   0  0  0  0  0  0
  -19.8058  -30.7276   24.2127 H   0  0  0  0  0  0
  -17.5173  -31.6210   24.5299 H   0  0  0  0  0  0
  -15.5457  -30.3128   23.7697 H   0  0  0  0  0  0
  -15.8619  -28.0910   22.7131 H   0  0  0  0  0  0
  -24.5962  -30.7089   25.7613 H   0  0  0  0  0  0
  -24.8891  -32.3030   26.4507 H   0  0  0  0  0  0
  -25.7999  -30.9093   27.0215 H   0  0  0  0  0  0
  -26.2798  -29.6651   24.1181 H   0  0  0  0  0  0
  -27.4071  -29.7097   25.4545 H   0  0  0  0  0  0
  -27.8645  -30.4051   23.9166 H   0  0  0  0  0  0
  -27.2998  -33.3739   26.1492 H   0  0  0  0  0  0
  -28.4117  -32.6356   25.0079 H   0  0  0  0  0  0
  -28.0668  -31.8481   26.5449 H   0  0  0  0  0  0
  -28.2550  -38.0019   24.7560 H   0  0  0  0  0  0
  -28.1060  -36.2586   24.6237 H   0  0  0  0  0  0
  -27.2314  -37.1185   25.8890 H   0  0  0  0  0  0
  -20.9547  -29.8696   21.6732 H   0  0  0  0  0  0
  -26.0071  -38.2729   24.1628 H   0  0  0  0  0  0
  -31.3773  -17.5184   22.3441 H   0  0  0  0  0  0
  -26.2154  -23.0131   21.1074 H   0  0  0  0  0  0
  -25.6360  -24.3884   20.2878 H   0  0  0  0  0  0
  -26.0220  -24.4956   21.9805 H   0  0  0  0  0  0
  -28.2751  -24.5125   21.7650 H   0  0  0  0  0  0
  -28.9875  -16.2061   19.6295 H   0  0  0  0  0  0
  -28.1856  -21.8458   21.8583 H   0  0  0  0  0  0
  1 25  1  0  0  0
  1 30  2  0  0  0
  1 78  1  0  0  0
  2  3  1  0  0  0
  2 25  1  0  0  0
  2 82  1  0  0  0
  2 83  1  0  0  0
  3  4  1  0  0  0
  3 84  1  0  0  0
  3 85  1  0  0  0
  4  5  1  0  0  0
  4 86  1  0  0  0
  4 87  1  0  0  0
  5  6  1  0  0  0
  5 26  1  0  0  0
  5 88  1  0  0  0
  6 25  1  0  0  0
  6 89  1  0  0  0
  6 90  1  0  0  0
  7  8  2  0  0  0
  7 26  1  0  0  0
  7 29  1  0  0  0
  8  9  1  0  0  0
  8 22  1  0  0  0
  9 10  1  0  0  0
  9 27  2  0  0  0
 10 11  2  0  0  0
 10 15  1  0  0  0
 11 12  1  0  0  0
 11 91  1  0  0  0
 12 13  2  0  0  0
 12 92  1  0  0  0
 13 14  1  0  0  0
 13 31  1  0  0  0
 14 15  2  0  0  0
 14 93  1  0  0  0
 15 94  1  0  0  0
 16 17  2  0  0  0
 16 21  1  0  0  0
 16 31  1  0  0  0
 17 18  1  0  0  0
 17 95  1  0  0  0
 18 19  2  0  0  0
 18 96  1  0  0  0
 19 20  1  0  0  0
 19 24  1  0  0  0
 20 21  2  0  0  0
 20 97  1  0  0  0
 21 23  1  0  0  0
 22 28  1  0  0  0
 22 32  2  0  0  0
 26 27  1  0  0  0
 28 98  1  0  0  0
 28 99  1  0  0  0
 29100  1  0  0  0
 29101  1  0  0  0
 33 34  1  0  0  0
 33 66  1  0  0  0
 33 70  2  0  0  0
 34 36  1  0  0  0
 34 59  1  0  0  0
 34102  1  0  0  0
 35 44  2  0  0  0
 35 45  1  0  0  0
 35 68  1  0  0  0
 36 56  1  0  0  0
 36103  1  0  0  0
 37 39  1  0  0  0
 37 47  1  0  0  0
 37 66  1  0  0  0
 37104  1  0  0  0
 38 43  2  0  0  0
 38 46  1  0  0  0
 38 47  1  0  0  0
 39 64  1  0  0  0
 39 67  2  0  0  0
 40 52  1  0  0  0
 40 53  2  0  0  0
 40 58  1  0  0  0
 41105  1  0  0  0
 41106  1  0  0  0
 41107  1  0  0  0
 41 48  1  0  0  0
 42 43  1  0  0  0
 42 66  1  0  0  0
 42108  1  0  0  0
 42109  1  0  0  0
 43 44  1  0  0  0
 44110  1  0  0  0
 45 46  2  0  0  0
 45111  1  0  0  0
 46112  1  0  0  0
 47113  1  0  0  0
 47114  1  0  0  0
 48 56  1  0  0  0
 48 65  1  0  0  0
 48115  1  0  0  0
 49 50  1  0  0  0
 49 53  1  0  0  0
 49 64  1  0  0  0
 49116  1  0  0  0
 50 51  1  0  0  0
 50117  1  0  0  0
 50118  1  0  0  0
 51 52  1  0  0  0
 51119  1  0  0  0
 51120  1  0  0  0
 52121  1  0  0  0
 52122  1  0  0  0
 53 54  1  0  0  0
 54 55  2  0  0  0
 54123  1  0  0  0
 55 57  1  0  0  0
 55124  1  0  0  0
 56 69  2  0  0  0
 57 58  2  0  0  0
 57125  1  0  0  0
 58126  1  0  0  0
 59 60  1  0  0  0
 59 61  1  0  0  0
 59 62  1  0  0  0
 60127  1  0  0  0
 60128  1  0  0  0
 60129  1  0  0  0
 61130  1  0  0  0
 61131  1  0  0  0
 61132  1  0  0  0
 62133  1  0  0  0
 62134  1  0  0  0
 62135  1  0  0  0
 63 65  1  0  0  0
 63136  1  0  0  0
 63137  1  0  0  0
 63138  1  0  0  0
 64139  1  0  0  0
 65140  1  0  0  0
 68 76  1  0  0  0
 71 72  2  0  0  0
 71 81  1  0  0  0
 71141  1  0  0  0
 72 77  1  0  0  0
 72 78  1  0  0  0
 73 77  2  0  0  0
 73 79  1  0  0  0
 73 81  1  0  0  0
 74 76  1  0  0  0
 74 79  1  0  0  0
 74 80  2  0  0  0
 75142  1  0  0  0
 75143  1  0  0  0
 75144  1  0  0  0
 75 76  1  0  0  0
 76145  1  0  0  0
 78146  1  0  0  0
 79147  1  0  0  0
M  ISO  4   1 100  68 101  76 101  78 100
M  END
> <chiral flag>
0

> <version>
0

> <s_m_source_file>
/data/baiqing/PycharmProjects/Reinvent-master-3.2/result/LINK_invent/BTK/process_docking_weight1_custom_product_contain_oxygen_bond_distance_aromatic_linkinvent_7_9_3/rearranged_h_0185.sdf

> <i_m_source_file_index>
95

> <r_mmod_Potential_Energy-OPLS-2005>
798.002258300781

> <r_mmod_Stretch_Energy-OPLS-2005>
397.286987304688

> <r_mmod_Bend_Energy-OPLS-2005>
317.484619140625

> <r_mmod_Torsional_Energy-OPLS-2005>
304.396209716797

> <r_mmod_Improper_Torsional_Energy-OPLS-2005>
14.4118642807007

> <r_mmod_Van_der_Waal_Energy-OPLS-2005>
110.834014892578

> <r_mmod_Electrostatic_Energy-OPLS-2005>
-425.489410400391

> <r_mmod_Solvation_Energy-OPLS-2005>
-256.088531494141

> <b_mmod_Minimization_Converged-OPLS-2005>
0

> <r_mmod_RMS_Derivative-OPLS-2005>
19.4947566986084

$$$$
95
                    3D
 Structure written by MMmdl.
152160  0  0  1  0            999 V2000
  -30.6129  -14.7430   20.4412 C   0  0  0  0  0  0
  -30.4293  -12.4475   19.4845 C   0  0  0  0  0  0
  -29.5147  -12.5134   18.2411 C   0  0  0  0  0  0
  -28.0391  -12.3403   18.6497 C   0  0  0  0  0  0
  -27.6433  -13.2361   19.8538 C   0  0  2  0  0  0
  -28.6849  -13.1700   20.9934 C   0  0  0  0  0  0
  -25.2504  -13.8212   20.5693 C   0  0  0  0  0  0
  -24.1799  -13.0450   20.9202 C   0  0  0  0  0  0
  -24.6393  -11.6928   20.8753 C   0  0  0  0  0  0
  -23.9076  -10.4297   21.0412 C   0  0  0  0  0  0
  -24.3630   -9.4207   21.9183 C   0  0  0  0  0  0
  -23.6296   -8.2248   22.0758 C   0  0  0  0  0  0
  -22.4272   -8.0287   21.3555 C   0  0  0  0  0  0
  -21.9916   -9.0262   20.4660 C   0  0  0  0  0  0
  -22.7252  -10.2134   20.3059 C   0  0  0  0  0  0
  -21.6849   -6.0743   22.5275 C   0  0  0  0  0  0
  -21.4020   -6.5645   23.8208 C   0  0  0  0  0  0
  -21.3660   -5.6794   24.9170 C   0  0  0  0  0  0
  -21.6040   -4.3057   24.7214 C   0  0  0  0  0  0
  -21.8818   -3.8155   23.4338 C   0  0  0  0  0  0
  -21.9190   -4.6977   22.3397 C   0  0  0  0  0  0
  -22.7815  -13.5229   21.1853 C   0  0  0  0  0  0
  -22.1657   -4.2165   21.0976 F   0  0  0  0  0  0
  -21.5628   -3.4537   25.7730 F   0  0  0  0  0  0
  -29.9915  -13.5134   20.4186 N   0  0  0  0  0  0
  -26.2939  -12.9427   20.3289 N   0  0  0  0  0  0
  -25.9325  -11.6563   20.5754 N   0  0  0  0  0  0
  -22.0461  -12.8229   22.0415 N   0  0  0  0  0  0
  -25.4198  -15.1935   20.4107 N   0  0  0  0  0  0
  -31.7988  -14.8259   20.1052 O   0  0  0  0  0  0
  -21.6638   -6.8886   21.4235 O   0  0  0  0  0  0
  -22.3498  -14.5527   20.6690 O   0  0  0  0  0  0
  -24.6326  -31.8553   23.1983 C   0  0  0  0  0  0
  -25.9150  -32.4758   23.8325 C   0  0  1  0  0  0
  -27.2094  -27.2498   20.1288 C   0  0  0  0  0  0
  -25.5947  -33.8561   24.2248 N   0  0  0  0  0  0
  -23.4284  -30.4798   21.5422 C   0  0  2  0  0  0
  -24.8739  -28.9303   20.1069 C   0  0  0  0  0  0
  -22.7495  -29.4609   22.4896 C   0  0  0  0  0  0
  -18.0293  -28.1385   22.8472 C   0  0  0  0  0  0
  -24.1494  -36.7285   23.2635 C   0  0  0  0  0  0
  -25.9760  -30.7658   21.3789 C   0  0  0  0  0  0
  -26.0475  -29.3884   20.7195 C   0  0  0  0  0  0
  -27.2185  -28.5606   20.7206 C   0  0  0  0  0  0
  -26.0166  -26.8757   19.4676 C   0  0  0  0  0  0
  -24.8650  -27.6831   19.4690 C   0  0  0  0  0  0
  -23.6457  -29.8182   20.1568 C   0  0  0  0  0  0
  -25.4122  -36.3071   24.0316 C   0  0  1  0  0  0
  -20.5894  -28.3700   23.1255 C   0  0  2  0  0  0
  -20.6783  -26.9415   22.5399 C   0  0  0  0  0  0
  -19.5765  -26.6378   21.5197 C   0  0  0  0  0  0
  -18.1943  -26.7925   22.1610 C   0  0  0  0  0  0
  -19.1547  -28.8857   23.2860 C   0  0  0  0  0  0
  -18.9469  -30.1455   23.8885 C   0  0  0  0  0  0
  -17.6470  -30.6586   24.0558 C   0  0  0  0  0  0
  -25.9063  -34.9442   23.5082 C   0  0  0  0  0  0
  -16.5362  -29.9081   23.6332 C   0  0  0  0  0  0
  -16.7280  -28.6501   23.0351 C   0  0  0  0  0  0
  -26.4510  -31.6585   25.0716 C   0  0  0  0  0  0
  -25.3726  -31.3745   26.1431 C   0  0  0  0  0  0
  -27.0352  -30.2999   24.6208 C   0  0  0  0  0  0
  -27.6057  -32.4319   25.7506 C   0  0  0  0  0  0
  -27.5580  -37.1800   24.8460 C   0  0  0  0  0  0
  -21.4200  -29.3053   22.3643 N   0  0  0  0  0  0
  -26.4293  -37.3771   23.9403 N   0  0  0  0  0  0
  -24.6984  -31.0511   22.0964 N   0  0  0  0  0  0
  -23.4190  -28.8146   23.2995 O   0  0  0  0  0  0
  -28.2820  -26.3251   20.2122 O   0  0  0  0  0  0
  -26.5626  -34.8920   22.4648 O   0  0  0  0  0  0
  -23.5474  -32.1379   23.7276 O   0  0  0  0  0  0
  -30.5779  -17.3006   18.7950 C   0  0  0  0  0  0
  -29.9932  -17.2432   20.0832 C   0  0  0  0  0  0
  -30.2495  -19.5866   18.6210 C   0  0  0  0  0  0
  -29.6312  -19.6728   19.9107 C   0  0  0  0  0  0
  -28.8319  -22.1915   19.8421 C   0  0  0  0  0  0
  -27.9879  -24.8534   20.0202 C   0  0  0  0  0  0
  -28.9422  -23.6398   20.5421 C   0  0  1  0  0  0
  -30.7019  -18.4389   18.0824 N   0  0  0  0  0  0
  -29.5233  -18.4592   20.6139 N   0  0  0  0  0  0
  -30.5010  -20.6748   17.7989 N   0  0  0  0  0  0
  -29.2838  -21.0240   20.4528 N   0  0  0  0  0  0
  -29.8577  -15.8874   20.6791 N   0  0  0  0  0  0
  -28.3013  -22.1413   18.7297 O   0  0  0  0  0  0
  -28.7324  -23.4802   21.9393 O   0  0  0  0  0  0
  -31.4749  -12.5558   19.1908 H   0  0  0  0  0  0
  -30.3570  -11.4700   19.9637 H   0  0  0  0  0  0
  -29.7976  -11.7448   17.5209 H   0  0  0  0  0  0
  -29.6490  -13.4702   17.7336 H   0  0  0  0  0  0
  -27.8899  -11.2903   18.9048 H   0  0  0  0  0  0
  -27.3878  -12.5413   17.7991 H   0  0  0  0  0  0
  -27.6383  -14.2590   19.4753 H   0  0  0  0  0  0
  -28.7132  -12.1745   21.4380 H   0  0  0  0  0  0
  -28.4194  -13.8547   21.7998 H   0  0  0  0  0  0
  -25.2780   -9.5681   22.4752 H   0  0  0  0  0  0
  -24.0012   -7.4632   22.7466 H   0  0  0  0  0  0
  -21.0850   -8.8778   19.8956 H   0  0  0  0  0  0
  -22.3716  -10.9670   19.6163 H   0  0  0  0  0  0
  -21.2018   -7.6151   23.9719 H   0  0  0  0  0  0
  -21.1482   -6.0523   25.9072 H   0  0  0  0  0  0
  -22.0600   -2.7617   23.2827 H   0  0  0  0  0  0
  -22.4082  -11.9904   22.4827 H   0  0  0  0  0  0
  -21.1076  -13.1250   22.2610 H   0  0  0  0  0  0
  -24.6516  -15.8478   20.5142 H   0  0  0  0  0  0
  -26.2657  -15.6315   20.0692 H   0  0  0  0  0  0
  -26.7215  -32.5401   23.1062 H   0  0  0  0  0  0
  -25.0102  -33.9700   25.0400 H   0  0  0  0  0  0
  -22.7262  -31.3031   21.3980 H   0  0  0  0  0  0
  -23.3759  -35.9614   23.3290 H   0  0  0  0  0  0
  -24.3585  -36.8918   22.2050 H   0  0  0  0  0  0
  -23.7246  -37.6483   23.6669 H   0  0  0  0  0  0
  -26.1146  -31.5265   20.6092 H   0  0  0  0  0  0
  -26.8538  -30.8154   22.0113 H   0  0  0  0  0  0
  -28.1140  -28.9025   21.2207 H   0  0  0  0  0  0
  -25.9364  -25.9294   18.9545 H   0  0  0  0  0  0
  -23.9692  -27.3298   18.9768 H   0  0  0  0  0  0
  -23.7696  -30.5964   19.4026 H   0  0  0  0  0  0
  -22.7633  -29.2526   19.8514 H   0  0  0  0  0  0
  -25.1306  -36.1913   25.0807 H   0  0  0  0  0  0
  -20.9990  -28.3286   24.1374 H   0  0  0  0  0  0
  -20.5675  -26.2308   23.3603 H   0  0  0  0  0  0
  -21.6656  -26.7436   22.1206 H   0  0  0  0  0  0
  -19.6933  -25.6283   21.1244 H   0  0  0  0  0  0
  -19.6713  -27.3171   20.6714 H   0  0  0  0  0  0
  -17.4209  -26.6650   21.4018 H   0  0  0  0  0  0
  -18.0363  -26.0072   22.9015 H   0  0  0  0  0  0
  -19.7946  -30.7267   24.2251 H   0  0  0  0  0  0
  -17.5032  -31.6270   24.5152 H   0  0  0  0  0  0
  -15.5365  -30.2987   23.7668 H   0  0  0  0  0  0
  -15.8673  -28.0822   22.7076 H   0  0  0  0  0  0
  -24.5911  -30.7081   25.7767 H   0  0  0  0  0  0
  -24.8908  -32.2916   26.4828 H   0  0  0  0  0  0
  -25.8038  -30.8949   27.0226 H   0  0  0  0  0  0
  -26.2932  -29.6750   24.1222 H   0  0  0  0  0  0
  -27.4017  -29.7265   25.4733 H   0  0  0  0  0  0
  -27.8822  -30.4270   23.9461 H   0  0  0  0  0  0
  -27.2665  -33.3627   26.2065 H   0  0  0  0  0  0
  -28.3893  -32.6859   25.0356 H   0  0  0  0  0  0
  -28.0695  -31.8449   26.5444 H   0  0  0  0  0  0
  -28.2590  -38.0105   24.7516 H   0  0  0  0  0  0
  -28.1083  -36.2635   24.6277 H   0  0  0  0  0  0
  -27.2295  -37.1437   25.8862 H   0  0  0  0  0  0
  -20.9370  -29.8786   21.6865 H   0  0  0  0  0  0
  -26.0167  -38.2842   24.1414 H   0  0  0  0  0  0
  -30.9297  -16.4150   18.2872 H   0  0  0  0  0  0
  -27.0016  -24.6440   20.4380 H   0  0  0  0  0  0
  -27.8785  -24.7265   18.9429 H   0  0  0  0  0  0
  -29.9755  -23.9548   20.3893 H   0  0  0  0  0  0
  -29.8165  -21.4193   17.9271 H   0  0  0  0  0  0
  -30.6338  -20.4479   16.8215 H   0  0  0  0  0  0
  -29.4737  -21.1517   21.4364 H   0  0  0  0  0  0
  -28.9893  -15.7264   21.1643 H   0  0  0  0  0  0
  -28.8336  -24.3401   22.3345 H   0  0  0  0  0  0
  1 25  1  0  0  0
  1 30  2  0  0  0
  1 82  1  0  0  0
  2  3  1  0  0  0
  2 25  1  0  0  0
  2 85  1  0  0  0
  2 86  1  0  0  0
  3  4  1  0  0  0
  3 87  1  0  0  0
  3 88  1  0  0  0
  4  5  1  0  0  0
  4 89  1  0  0  0
  4 90  1  0  0  0
  5  6  1  0  0  0
  5 26  1  0  0  0
  5 91  1  0  0  0
  6 25  1  0  0  0
  6 92  1  0  0  0
  6 93  1  0  0  0
  7  8  2  0  0  0
  7 26  1  0  0  0
  7 29  1  0  0  0
  8  9  1  0  0  0
  8 22  1  0  0  0
  9 10  1  0  0  0
  9 27  2  0  0  0
 10 11  2  0  0  0
 10 15  1  0  0  0
 11 12  1  0  0  0
 11 94  1  0  0  0
 12 13  2  0  0  0
 12 95  1  0  0  0
 13 14  1  0  0  0
 13 31  1  0  0  0
 14 15  2  0  0  0
 14 96  1  0  0  0
 15 97  1  0  0  0
 16 17  2  0  0  0
 16 21  1  0  0  0
 16 31  1  0  0  0
 17 18  1  0  0  0
 17 98  1  0  0  0
 18 19  2  0  0  0
 18 99  1  0  0  0
 19 20  1  0  0  0
 19 24  1  0  0  0
 20 21  2  0  0  0
 20100  1  0  0  0
 21 23  1  0  0  0
 22 28  1  0  0  0
 22 32  2  0  0  0
 26 27  1  0  0  0
 28101  1  0  0  0
 28102  1  0  0  0
 29103  1  0  0  0
 29104  1  0  0  0
 33 34  1  0  0  0
 33 66  1  0  0  0
 33 70  2  0  0  0
 34 36  1  0  0  0
 34 59  1  0  0  0
 34105  1  0  0  0
 35 44  2  0  0  0
 35 45  1  0  0  0
 35 68  1  0  0  0
 36 56  1  0  0  0
 36106  1  0  0  0
 37 39  1  0  0  0
 37 47  1  0  0  0
 37 66  1  0  0  0
 37107  1  0  0  0
 38 43  2  0  0  0
 38 46  1  0  0  0
 38 47  1  0  0  0
 39 64  1  0  0  0
 39 67  2  0  0  0
 40 52  1  0  0  0
 40 53  2  0  0  0
 40 58  1  0  0  0
 41108  1  0  0  0
 41109  1  0  0  0
 41110  1  0  0  0
 41 48  1  0  0  0
 42 43  1  0  0  0
 42 66  1  0  0  0
 42111  1  0  0  0
 42112  1  0  0  0
 43 44  1  0  0  0
 44113  1  0  0  0
 45 46  2  0  0  0
 45114  1  0  0  0
 46115  1  0  0  0
 47116  1  0  0  0
 47117  1  0  0  0
 48 56  1  0  0  0
 48 65  1  0  0  0
 48118  1  0  0  0
 49 50  1  0  0  0
 49 53  1  0  0  0
 49 64  1  0  0  0
 49119  1  0  0  0
 50 51  1  0  0  0
 50120  1  0  0  0
 50121  1  0  0  0
 51 52  1  0  0  0
 51122  1  0  0  0
 51123  1  0  0  0
 52124  1  0  0  0
 52125  1  0  0  0
 53 54  1  0  0  0
 54 55  2  0  0  0
 54126  1  0  0  0
 55 57  1  0  0  0
 55127  1  0  0  0
 56 69  2  0  0  0
 57 58  2  0  0  0
 57128  1  0  0  0
 58129  1  0  0  0
 59 60  1  0  0  0
 59 61  1  0  0  0
 59 62  1  0  0  0
 60130  1  0  0  0
 60131  1  0  0  0
 60132  1  0  0  0
 61133  1  0  0  0
 61134  1  0  0  0
 61135  1  0  0  0
 62136  1  0  0  0
 62137  1  0  0  0
 62138  1  0  0  0
 63 65  1  0  0  0
 63139  1  0  0  0
 63140  1  0  0  0
 63141  1  0  0  0
 64142  1  0  0  0
 65143  1  0  0  0
 68 76  1  0  0  0
 71 72  2  0  0  0
 71 78  1  0  0  0
 71144  1  0  0  0
 72 79  1  0  0  0
 72 82  1  0  0  0
 73 74  1  0  0  0
 73 78  2  0  0  0
 73 80  1  0  0  0
 74 79  2  0  0  0
 74 81  1  0  0  0
 75 77  1  0  0  0
 75 81  1  0  0  0
 75 83  2  0  0  0
 76 77  1  0  0  0
 76145  1  0  0  0
 76146  1  0  0  0
 77 84  1  0  0  0
 77147  1  0  0  0
 80148  1  0  0  0
 80149  1  0  0  0
 81150  1  0  0  0
 82151  1  0  0  0
 84152  1  0  0  0
M  ISO  4   1 100  68 101  76 101  82 100
M  END
> <chiral flag>
0

> <version>
0

> <s_m_source_file>
/data/baiqing/PycharmProjects/Reinvent-master-3.2/result/LINK_invent/BTK/process_docking_weight1_custom_product_contain_oxygen_bond_distance_aromatic_linkinvent_7_9_3/rearranged_h_0185.sdf

> <i_m_source_file_index>
96

> <r_mmod_Potential_Energy-OPLS-2005>
21.6134185791016

> <r_mmod_Stretch_Energy-OPLS-2005>
139.860504150391

> <r_mmod_Bend_Energy-OPLS-2005>
166.557708740234

> <r_mmod_Torsional_Energy-OPLS-2005>
264.172821044922

> <r_mmod_Improper_Torsional_Energy-OPLS-2005>
10.1366930007935

> <r_mmod_Van_der_Waal_Energy-OPLS-2005>
163.643661499023

> <r_mmod_Electrostatic_Energy-OPLS-2005>
-566.87451171875

> <r_mmod_Solvation_Energy-OPLS-2005>
-246.773666381836

> <b_mmod_Minimization_Converged-OPLS-2005>
0

> <r_mmod_RMS_Derivative-OPLS-2005>
1.36587941646576

$$$$
