0
                    3D
 Structure written by MMmdl.
159167  0  0  1  0            999 V2000
  -30.7528  -14.3473   20.7218 C   0  0  0  0  0  0
  -30.4317  -12.2983   19.3792 C   0  0  0  0  0  0
  -29.4838  -12.5282   18.1873 C   0  0  0  0  0  0
  -28.0122  -12.3675   18.6125 C   0  0  0  0  0  0
  -27.6709  -13.1922   19.8792 C   0  0  2  0  0  0
  -28.7057  -12.9123   20.9897 C   0  0  0  0  0  0
  -25.2630  -13.8125   20.5623 C   0  0  0  0  0  0
  -24.1859  -13.0432   20.9124 C   0  0  0  0  0  0
  -24.6389  -11.6890   20.8697 C   0  0  0  0  0  0
  -23.9038  -10.4296   21.0386 C   0  0  0  0  0  0
  -24.3596   -9.4224   21.9164 C   0  0  0  0  0  0
  -23.6292   -8.2251   22.0739 C   0  0  0  0  0  0
  -22.4272   -8.0279   21.3530 C   0  0  0  0  0  0
  -21.9893   -9.0250   20.4632 C   0  0  0  0  0  0
  -22.7212  -10.2132   20.3044 C   0  0  0  0  0  0
  -21.6861   -6.0737   22.5272 C   0  0  0  0  0  0
  -21.4021   -6.5640   23.8208 C   0  0  0  0  0  0
  -21.3656   -5.6791   24.9166 C   0  0  0  0  0  0
  -21.6045   -4.3058   24.7222 C   0  0  0  0  0  0
  -21.8828   -3.8145   23.4346 C   0  0  0  0  0  0
  -21.9206   -4.6962   22.3403 C   0  0  0  0  0  0
  -22.7883  -13.5238   21.1812 C   0  0  0  0  0  0
  -22.1669   -4.2145   21.0981 F   0  0  0  0  0  0
  -21.5623   -3.4542   25.7736 F   0  0  0  0  0  0
  -30.0576  -13.2092   20.4699 N   0  0  0  0  0  0
  -26.3065  -12.9277   20.3343 N   0  0  0  0  0  0
  -25.9318  -11.6448   20.5724 N   0  0  0  0  0  0
  -22.0536  -12.8232   22.0376 N   0  0  0  0  0  0
  -25.4404  -15.1839   20.4050 N   0  0  0  0  0  0
  -31.7239  -14.7246   20.0567 O   0  0  0  0  0  0
  -21.6651   -6.8871   21.4227 O   0  0  0  0  0  0
  -22.3580  -14.5577   20.6710 O   0  0  0  0  0  0
  -24.6082  -31.8690   23.2115 C   0  0  0  0  0  0
  -25.8988  -32.4826   23.8404 C   0  0  1  0  0  0
  -27.2381  -27.4708   20.0856 C   0  0  0  0  0  0
  -25.5851  -33.8625   24.2330 N   0  0  0  0  0  0
  -23.3937  -30.4936   21.5516 C   0  0  2  0  0  0
  -24.8406  -28.9609   20.1189 C   0  0  0  0  0  0
  -22.7372  -29.4671   22.5011 C   0  0  0  0  0  0
  -18.0278  -28.1348   22.8494 C   0  0  0  0  0  0
  -24.1489  -36.7333   23.2642 C   0  0  0  0  0  0
  -25.9175  -30.8486   21.3550 C   0  0  0  0  0  0
  -25.9990  -29.4842   20.7047 C   0  0  0  0  0  0
  -27.2016  -28.7486   20.6804 C   0  0  0  0  0  0
  -26.0590  -26.9476   19.5062 C   0  0  0  0  0  0
  -24.8634  -27.6902   19.5190 C   0  0  0  0  0  0
  -23.6001  -29.8231   20.1675 C   0  0  0  0  0  0
  -25.4114  -36.3125   24.0339 C   0  0  1  0  0  0
  -20.5849  -28.3640   23.1336 C   0  0  2  0  0  0
  -20.6768  -26.9377   22.5418 C   0  0  0  0  0  0
  -19.5755  -26.6372   21.5208 C   0  0  0  0  0  0
  -18.1947  -26.7899   22.1613 C   0  0  0  0  0  0
  -19.1517  -28.8809   23.2915 C   0  0  0  0  0  0
  -18.9430  -30.1417   23.8918 C   0  0  0  0  0  0
  -17.6424  -30.6544   24.0564 C   0  0  0  0  0  0
  -25.9030  -34.9481   23.5138 C   0  0  0  0  0  0
  -16.5327  -29.9045   23.6301 C   0  0  0  0  0  0
  -16.7262  -28.6470   23.0317 C   0  0  0  0  0  0
  -26.4446  -31.6595   25.0707 C   0  0  0  0  0  0
  -25.3741  -31.3656   26.1468 C   0  0  0  0  0  0
  -27.0267  -30.3059   24.6019 C   0  0  0  0  0  0
  -27.6036  -32.4306   25.7455 C   0  0  0  0  0  0
  -27.5590  -37.1821   24.8467 C   0  0  0  0  0  0
  -21.4104  -29.3029   22.3751 N   0  0  0  0  0  0
  -26.4305  -37.3805   23.9401 N   0  0  0  0  0  0
  -24.6583  -31.0832   22.0991 N   0  0  0  0  0  0
  -23.4171  -28.8211   23.3031 O   0  0  0  0  0  0
  -28.4310  -26.7881   20.0652 O   0  0  0  0  0  0
  -26.5607  -34.8916   22.4712 O   0  0  0  0  0  0
  -23.5290  -32.1420   23.7548 O   0  0  0  0  0  0
  -29.5400  -17.1897   21.2638 C   0  0  0  0  0  0
  -30.0447  -19.0868   22.7083 C   0  0  0  0  0  0
  -30.9684  -16.8876   23.2212 C   0  0  0  0  0  0
  -29.3685  -18.5548   21.5835 C   0  0  0  0  0  0
  -30.3343  -16.3531   22.0818 C   0  0  0  0  0  0
  -30.8333  -18.2548   23.5244 C   0  0  0  0  0  0
  -28.4572  -24.5112   19.1552 C   0  0  0  0  0  0
  -27.7897  -20.4155   21.0585 C   0  0  0  0  0  0
  -28.4166  -23.0022   19.3833 C   0  0  0  0  0  0
  -28.3762  -25.4017   20.4017 C   0  0  0  0  0  0
  -26.9021  -20.9813   19.9451 C   0  0  0  0  0  0
  -27.0080  -22.5099   19.7784 C   0  0  0  0  0  0
  -28.5207  -19.3323   20.7434 N   0  0  0  0  0  0
  -30.3830  -14.9576   21.8545 N   0  0  0  0  0  0
  -28.5495  -24.9779   18.0163 O   0  0  0  0  0  0
  -27.7896  -20.9562   22.1668 O   0  0  0  0  0  0
  -31.4440  -18.7670   24.6192 F   0  0  0  0  0  0
  -31.4674  -12.4367   19.0623 H   0  0  0  0  0  0
  -30.3620  -11.2667   19.7271 H   0  0  0  0  0  0
  -29.7175  -11.8330   17.3793 H   0  0  0  0  0  0
  -29.6374  -13.5310   17.7860 H   0  0  0  0  0  0
  -27.8329  -11.3080   18.8028 H   0  0  0  0  0  0
  -27.3482  -12.6442   17.7928 H   0  0  0  0  0  0
  -27.7371  -14.2475   19.6107 H   0  0  0  0  0  0
  -28.6639  -11.8626   21.2870 H   0  0  0  0  0  0
  -28.4373  -13.4684   21.8885 H   0  0  0  0  0  0
  -25.2734   -9.5734   22.4734 H   0  0  0  0  0  0
  -24.0019   -7.4652   22.7461 H   0  0  0  0  0  0
  -21.0825   -8.8763   19.8943 H   0  0  0  0  0  0
  -22.3651  -10.9667   19.6166 H   0  0  0  0  0  0
  -21.2011   -7.6146   23.9715 H   0  0  0  0  0  0
  -21.1461   -6.0510   25.9068 H   0  0  0  0  0  0
  -22.0614   -2.7605   23.2849 H   0  0  0  0  0  0
  -22.4149  -11.9880   22.4748 H   0  0  0  0  0  0
  -21.1162  -13.1255   22.2604 H   0  0  0  0  0  0
  -24.6861  -15.8491   20.5344 H   0  0  0  0  0  0
  -26.3114  -15.6188   20.1280 H   0  0  0  0  0  0
  -26.7056  -32.5562   23.1177 H   0  0  0  0  0  0
  -24.9982  -33.9808   25.0457 H   0  0  0  0  0  0
  -22.6798  -31.3085   21.4145 H   0  0  0  0  0  0
  -23.3737  -35.9680   23.3326 H   0  0  0  0  0  0
  -24.3584  -36.8926   22.2049 H   0  0  0  0  0  0
  -23.7239  -37.6547   23.6646 H   0  0  0  0  0  0
  -26.0201  -31.6158   20.5861 H   0  0  0  0  0  0
  -26.8065  -30.9062   21.9694 H   0  0  0  0  0  0
  -28.1014  -29.1562   21.1209 H   0  0  0  0  0  0
  -26.0539  -25.9815   19.0233 H   0  0  0  0  0  0
  -23.9710  -27.2832   19.0636 H   0  0  0  0  0  0
  -23.7044  -30.5938   19.4033 H   0  0  0  0  0  0
  -22.7245  -29.2424   19.8730 H   0  0  0  0  0  0
  -25.1288  -36.2020   25.0831 H   0  0  0  0  0  0
  -20.9957  -28.3195   24.1447 H   0  0  0  0  0  0
  -21.6637  -26.7433   22.1197 H   0  0  0  0  0  0
  -20.5663  -26.2237   23.3598 H   0  0  0  0  0  0
  -19.6927  -25.6300   21.1231 H   0  0  0  0  0  0
  -19.6666  -27.3191   20.6742 H   0  0  0  0  0  0
  -17.4231  -26.6646   21.4000 H   0  0  0  0  0  0
  -18.0325  -26.0022   22.8974 H   0  0  0  0  0  0
  -19.7906  -30.7231   24.2281 H   0  0  0  0  0  0
  -17.4956  -31.6223   24.5144 H   0  0  0  0  0  0
  -15.5320  -30.2946   23.7569 H   0  0  0  0  0  0
  -15.8672  -28.0807   22.6984 H   0  0  0  0  0  0
  -24.5915  -30.7004   25.7798 H   0  0  0  0  0  0
  -24.8931  -32.2789   26.4980 H   0  0  0  0  0  0
  -25.8120  -30.8780   27.0187 H   0  0  0  0  0  0
  -26.2776  -29.6817   24.1132 H   0  0  0  0  0  0
  -27.4136  -29.7284   25.4424 H   0  0  0  0  0  0
  -27.8568  -30.4403   23.9079 H   0  0  0  0  0  0
  -27.2668  -33.3584   26.2091 H   0  0  0  0  0  0
  -28.3810  -32.6900   25.0255 H   0  0  0  0  0  0
  -28.0752  -31.8396   26.5316 H   0  0  0  0  0  0
  -28.2621  -38.0107   24.7508 H   0  0  0  0  0  0
  -28.1067  -36.2636   24.6309 H   0  0  0  0  0  0
  -27.2304  -37.1490   25.8869 H   0  0  0  0  0  0
  -20.9268  -29.8759   21.6983 H   0  0  0  0  0  0
  -26.0206  -38.2892   24.1392 H   0  0  0  0  0  0
  -29.0214  -16.7721   20.4129 H   0  0  0  0  0  0
  -29.9637  -20.1299   22.9732 H   0  0  0  0  0  0
  -31.5553  -16.2555   23.8726 H   0  0  0  0  0  0
  -29.1430  -22.7537   20.1573 H   0  0  0  0  0  0
  -28.7476  -22.5027   18.4725 H   0  0  0  0  0  0
  -27.4755  -25.1685   20.9702 H   0  0  0  0  0  0
  -29.2219  -25.1683   21.0491 H   0  0  0  0  0  0
  -25.8701  -20.7250   20.1877 H   0  0  0  0  0  0
  -27.1238  -20.4896   18.9970 H   0  0  0  0  0  0
  -26.2931  -22.8219   19.0142 H   0  0  0  0  0  0
  -26.6860  -22.9896   20.7043 H   0  0  0  0  0  0
  -28.3654  -18.9709   19.8124 H   0  0  0  0  0  0
  -29.7578  -14.4088   22.4255 H   0  0  0  0  0  0
  1 25  1  0  0  0
  1 30  2  0  0  0
  1 84  1  0  0  0
  2  3  1  0  0  0
  2 25  1  0  0  0
  2 88  1  0  0  0
  2 89  1  0  0  0
  3  4  1  0  0  0
  3 90  1  0  0  0
  3 91  1  0  0  0
  4  5  1  0  0  0
  4 92  1  0  0  0
  4 93  1  0  0  0
  5  6  1  0  0  0
  5 26  1  0  0  0
  5 94  1  0  0  0
  6 25  1  0  0  0
  6 95  1  0  0  0
  6 96  1  0  0  0
  7  8  2  0  0  0
  7 26  1  0  0  0
  7 29  1  0  0  0
  8  9  1  0  0  0
  8 22  1  0  0  0
  9 10  1  0  0  0
  9 27  2  0  0  0
 10 11  2  0  0  0
 10 15  1  0  0  0
 11 12  1  0  0  0
 11 97  1  0  0  0
 12 13  2  0  0  0
 12 98  1  0  0  0
 13 14  1  0  0  0
 13 31  1  0  0  0
 14 15  2  0  0  0
 14 99  1  0  0  0
 15100  1  0  0  0
 16 17  2  0  0  0
 16 21  1  0  0  0
 16 31  1  0  0  0
 17 18  1  0  0  0
 17101  1  0  0  0
 18 19  2  0  0  0
 18102  1  0  0  0
 19 20  1  0  0  0
 19 24  1  0  0  0
 20 21  2  0  0  0
 20103  1  0  0  0
 21 23  1  0  0  0
 22 28  1  0  0  0
 22 32  2  0  0  0
 26 27  1  0  0  0
 28104  1  0  0  0
 28105  1  0  0  0
 29106  1  0  0  0
 29107  1  0  0  0
 33 34  1  0  0  0
 33 66  1  0  0  0
 33 70  2  0  0  0
 34 36  1  0  0  0
 34 59  1  0  0  0
 34108  1  0  0  0
 35 44  2  0  0  0
 35 45  1  0  0  0
 35 68  1  0  0  0
 36 56  1  0  0  0
 36109  1  0  0  0
 37 39  1  0  0  0
 37 47  1  0  0  0
 37 66  1  0  0  0
 37110  1  0  0  0
 38 43  2  0  0  0
 38 46  1  0  0  0
 38 47  1  0  0  0
 39 64  1  0  0  0
 39 67  2  0  0  0
 40 52  1  0  0  0
 40 53  2  0  0  0
 40 58  1  0  0  0
 41111  1  0  0  0
 41112  1  0  0  0
 41113  1  0  0  0
 41 48  1  0  0  0
 42 43  1  0  0  0
 42 66  1  0  0  0
 42114  1  0  0  0
 42115  1  0  0  0
 43 44  1  0  0  0
 44116  1  0  0  0
 45 46  2  0  0  0
 45117  1  0  0  0
 46118  1  0  0  0
 47119  1  0  0  0
 47120  1  0  0  0
 48 56  1  0  0  0
 48 65  1  0  0  0
 48121  1  0  0  0
 49 50  1  0  0  0
 49 53  1  0  0  0
 49 64  1  0  0  0
 49122  1  0  0  0
 50 51  1  0  0  0
 50123  1  0  0  0
 50124  1  0  0  0
 51 52  1  0  0  0
 51125  1  0  0  0
 51126  1  0  0  0
 52127  1  0  0  0
 52128  1  0  0  0
 53 54  1  0  0  0
 54 55  2  0  0  0
 54129  1  0  0  0
 55 57  1  0  0  0
 55130  1  0  0  0
 56 69  2  0  0  0
 57 58  2  0  0  0
 57131  1  0  0  0
 58132  1  0  0  0
 59 60  1  0  0  0
 59 61  1  0  0  0
 59 62  1  0  0  0
 60133  1  0  0  0
 60134  1  0  0  0
 60135  1  0  0  0
 61136  1  0  0  0
 61137  1  0  0  0
 61138  1  0  0  0
 62139  1  0  0  0
 62140  1  0  0  0
 62141  1  0  0  0
 63 65  1  0  0  0
 63142  1  0  0  0
 63143  1  0  0  0
 63144  1  0  0  0
 64145  1  0  0  0
 65146  1  0  0  0
 68 80  1  0  0  0
 71 74  2  0  0  0
 71 75  1  0  0  0
 71147  1  0  0  0
 72 74  1  0  0  0
 72 76  2  0  0  0
 72148  1  0  0  0
 73 75  2  0  0  0
 73 76  1  0  0  0
 73149  1  0  0  0
 74 83  1  0  0  0
 75 84  1  0  0  0
 76 87  1  0  0  0
 77 79  1  0  0  0
 77 80  1  0  0  0
 77 85  2  0  0  0
 78 81  1  0  0  0
 78 83  1  0  0  0
 78 86  2  0  0  0
 79 82  1  0  0  0
 79150  1  0  0  0
 79151  1  0  0  0
 80152  1  0  0  0
 80153  1  0  0  0
 81 82  1  0  0  0
 81154  1  0  0  0
 81155  1  0  0  0
 82156  1  0  0  0
 82157  1  0  0  0
 83158  1  0  0  0
 84159  1  0  0  0
M  ISO  4   1 100  68 101  80 101  84 100
M  END
> <chiral flag>
0

> <version>
0

> <s_m_source_file>
/data/baiqing/PycharmProjects/Reinvent-master-3.2/result/LINK_invent/BTK/process_docking_weight1_custom_product_contain_oxygen_bond_distance_aromatic_linkinvent_7_9_3/rearranged_h_0169.sdf

> <i_m_source_file_index>
1

> <r_mmod_Potential_Energy-OPLS-2005>
-37.2622680664062

> <r_mmod_Stretch_Energy-OPLS-2005>
32.2795562744141

> <r_mmod_Bend_Energy-OPLS-2005>
92.9004592895508

> <r_mmod_Torsional_Energy-OPLS-2005>
254.906051635742

> <r_mmod_Improper_Torsional_Energy-OPLS-2005>
5.24450826644897

> <r_mmod_Van_der_Waal_Energy-OPLS-2005>
152.425415039062

> <r_mmod_Electrostatic_Energy-OPLS-2005>
-331.842956542969

> <r_mmod_Solvation_Energy-OPLS-2005>
-251.403854370117

> <b_mmod_Minimization_Converged-OPLS-2005>
0

> <r_mmod_RMS_Derivative-OPLS-2005>
2.22191166877747

$$$$
1
                    3D
 Structure written by MMmdl.
155163  0  0  1  0            999 V2000
  -30.7160  -14.4518   20.5206 C   0  0  0  0  0  0
  -30.4107  -12.2787   19.4348 C   0  0  0  0  0  0
  -29.4962  -12.4959   18.2123 C   0  0  0  0  0  0
  -28.0152  -12.3672   18.6164 C   0  0  0  0  0  0
  -27.6589  -13.2106   19.8722 C   0  0  2  0  0  0
  -28.7013  -13.0152   21.0001 C   0  0  0  0  0  0
  -25.2595  -13.8183   20.5680 C   0  0  0  0  0  0
  -24.1843  -13.0452   20.9163 C   0  0  0  0  0  0
  -24.6390  -11.6924   20.8707 C   0  0  0  0  0  0
  -23.9045  -10.4308   21.0394 C   0  0  0  0  0  0
  -24.3599   -9.4228   21.9167 C   0  0  0  0  0  0
  -23.6275   -8.2261   22.0742 C   0  0  0  0  0  0
  -22.4271   -8.0281   21.3526 C   0  0  0  0  0  0
  -21.9889   -9.0252   20.4632 C   0  0  0  0  0  0
  -22.7210  -10.2140   20.3038 C   0  0  0  0  0  0
  -21.6860   -6.0732   22.5271 C   0  0  0  0  0  0
  -21.4017   -6.5639   23.8204 C   0  0  0  0  0  0
  -21.3657   -5.6788   24.9166 C   0  0  0  0  0  0
  -21.6045   -4.3055   24.7232 C   0  0  0  0  0  0
  -21.8815   -3.8142   23.4356 C   0  0  0  0  0  0
  -21.9199   -4.6950   22.3409 C   0  0  0  0  0  0
  -22.7865  -13.5244   21.1823 C   0  0  0  0  0  0
  -22.1662   -4.2127   21.0984 F   0  0  0  0  0  0
  -21.5623   -3.4544   25.7756 F   0  0  0  0  0  0
  -30.0348  -13.2814   20.4432 N   0  0  0  0  0  0
  -26.3021  -12.9346   20.3356 N   0  0  0  0  0  0
  -25.9326  -11.6501   20.5749 N   0  0  0  0  0  0
  -22.0523  -12.8234   22.0402 N   0  0  0  0  0  0
  -25.4344  -15.1895   20.4018 N   0  0  0  0  0  0
  -31.8765  -14.5717   20.1195 O   0  0  0  0  0  0
  -21.6654   -6.8875   21.4228 O   0  0  0  0  0  0
  -22.3538  -14.5531   20.6654 O   0  0  0  0  0  0
  -24.6113  -31.8659   23.2175 C   0  0  0  0  0  0
  -25.9027  -32.4802   23.8450 C   0  0  1  0  0  0
  -27.2294  -27.4525   20.0930 C   0  0  0  0  0  0
  -25.5903  -33.8620   24.2366 N   0  0  0  0  0  0
  -23.3975  -30.4912   21.5587 C   0  0  2  0  0  0
  -24.8406  -28.9645   20.1149 C   0  0  0  0  0  0
  -22.7383  -29.4631   22.5046 C   0  0  0  0  0  0
  -18.0239  -28.1379   22.8487 C   0  0  0  0  0  0
  -24.1492  -36.7318   23.2638 C   0  0  0  0  0  0
  -25.9240  -30.8363   21.3709 C   0  0  0  0  0  0
  -25.9997  -29.4755   20.7118 C   0  0  0  0  0  0
  -27.1951  -28.7255   20.7005 C   0  0  0  0  0  0
  -26.0500  -26.9517   19.4903 C   0  0  0  0  0  0
  -24.8599  -27.7005   19.5022 C   0  0  0  0  0  0
  -23.6004  -29.8257   20.1716 C   0  0  0  0  0  0
  -25.4099  -36.3106   24.0347 C   0  0  1  0  0  0
  -20.5822  -28.3645   23.1332 C   0  0  2  0  0  0
  -20.6727  -26.9379   22.5416 C   0  0  0  0  0  0
  -19.5709  -26.6369   21.5212 C   0  0  0  0  0  0
  -18.1886  -26.7926   22.1613 C   0  0  0  0  0  0
  -19.1488  -28.8832   23.2906 C   0  0  0  0  0  0
  -18.9425  -30.1447   23.8895 C   0  0  0  0  0  0
  -17.6427  -30.6584   24.0558 C   0  0  0  0  0  0
  -25.9024  -34.9464   23.5145 C   0  0  0  0  0  0
  -16.5309  -29.9077   23.6346 C   0  0  0  0  0  0
  -16.7227  -28.6503   23.0341 C   0  0  0  0  0  0
  -26.4474  -31.6572   25.0768 C   0  0  0  0  0  0
  -25.3756  -31.3654   26.1528 C   0  0  0  0  0  0
  -27.0292  -30.2999   24.6161 C   0  0  0  0  0  0
  -27.6091  -32.4262   25.7490 C   0  0  0  0  0  0
  -27.5587  -37.1787   24.8442 C   0  0  0  0  0  0
  -21.4108  -29.3014   22.3776 N   0  0  0  0  0  0
  -26.4275  -37.3789   23.9425 N   0  0  0  0  0  0
  -24.6621  -31.0781   22.1076 N   0  0  0  0  0  0
  -23.4161  -28.8150   23.3066 O   0  0  0  0  0  0
  -28.4111  -26.7448   20.1129 O   0  0  0  0  0  0
  -26.5565  -34.8912   22.4698 O   0  0  0  0  0  0
  -23.5318  -32.1413   23.7576 O   0  0  0  0  0  0
  -28.1187  -19.9218   19.8355 C   0  0  0  0  0  0
  -29.5980  -18.0909   20.5360 C   0  0  0  0  0  0
  -28.6139  -20.7347   20.8828 C   0  0  0  0  0  0
  -30.0122  -18.8651   21.6490 C   0  0  0  0  0  0
  -28.6085  -18.6108   19.6638 C   0  0  0  0  0  0
  -29.5043  -20.1739   21.8216 C   0  0  0  0  0  0
  -28.4027  -25.4314   19.7206 C   0  0  0  0  0  0
  -28.2660  -24.3985   20.5751 C   0  0  0  0  0  0
  -28.2683  -23.0342   20.0455 C   0  0  0  0  0  0
  -30.3506  -16.8221   20.1378 C   0  0  0  0  0  0
  -30.9745  -18.3957   22.5516 N   0  0  0  0  0  0
  -28.2778  -22.1113   21.0201 N   0  0  0  0  0  0
  -29.9756  -15.5463   20.7664 N   0  0  0  0  0  0
  -28.2581  -22.7459   18.8449 O   0  0  0  0  0  0
  -28.1408  -24.6149   21.8977 O   0  0  0  0  0  0
  -28.1727  -17.8794   18.6095 F   0  0  0  0  0  0
  -29.9300  -20.9252   22.8662 F   0  0  0  0  0  0
  -31.4595  -12.3439   19.1417 H   0  0  0  0  0  0
  -30.2802  -11.2731   19.8406 H   0  0  0  0  0  0
  -29.7355  -11.7736   17.4315 H   0  0  0  0  0  0
  -29.6774  -13.4827   17.7805 H   0  0  0  0  0  0
  -27.8184  -11.3130   18.8118 H   0  0  0  0  0  0
  -27.3722  -12.6477   17.7817 H   0  0  0  0  0  0
  -27.6958  -14.2547   19.5642 H   0  0  0  0  0  0
  -28.6692  -11.9946   21.3824 H   0  0  0  0  0  0
  -28.4804  -13.6555   21.8560 H   0  0  0  0  0  0
  -25.2748   -9.5722   22.4732 H   0  0  0  0  0  0
  -23.9992   -7.4682   22.7477 H   0  0  0  0  0  0
  -21.0819   -8.8758   19.8958 H   0  0  0  0  0  0
  -22.3648  -10.9667   19.6144 H   0  0  0  0  0  0
  -21.1994   -7.6148   23.9697 H   0  0  0  0  0  0
  -21.1468   -6.0527   25.9064 H   0  0  0  0  0  0
  -22.0593   -2.7604   23.2872 H   0  0  0  0  0  0
  -22.4107  -11.9880   22.4771 H   0  0  0  0  0  0
  -21.1125  -13.1246   22.2588 H   0  0  0  0  0  0
  -24.6664  -15.8484   20.4869 H   0  0  0  0  0  0
  -26.2801  -15.6165   20.0444 H   0  0  0  0  0  0
  -26.7088  -32.5508   23.1212 H   0  0  0  0  0  0
  -25.0108  -33.9807   25.0548 H   0  0  0  0  0  0
  -22.6863  -31.3082   21.4260 H   0  0  0  0  0  0
  -23.3764  -35.9632   23.3233 H   0  0  0  0  0  0
  -24.3630  -36.8985   22.2064 H   0  0  0  0  0  0
  -23.7203  -37.6495   23.6689 H   0  0  0  0  0  0
  -26.0443  -31.6075   20.6096 H   0  0  0  0  0  0
  -26.8092  -30.8776   21.9941 H   0  0  0  0  0  0
  -28.0927  -29.1189   21.1587 H   0  0  0  0  0  0
  -26.0293  -25.9846   19.0100 H   0  0  0  0  0  0
  -23.9692  -27.2976   19.0375 H   0  0  0  0  0  0
  -23.6973  -30.6012   19.4111 H   0  0  0  0  0  0
  -22.7259  -29.2380   19.8843 H   0  0  0  0  0  0
  -25.1269  -36.1972   25.0835 H   0  0  0  0  0  0
  -20.9900  -28.3187   24.1458 H   0  0  0  0  0  0
  -20.5615  -26.2249   23.3611 H   0  0  0  0  0  0
  -21.6601  -26.7432   22.1201 H   0  0  0  0  0  0
  -19.6864  -25.6283   21.1246 H   0  0  0  0  0  0
  -19.6661  -27.3180   20.6754 H   0  0  0  0  0  0
  -17.4165  -26.6678   21.4006 H   0  0  0  0  0  0
  -18.0260  -26.0065   22.8999 H   0  0  0  0  0  0
  -19.7898  -30.7269   24.2247 H   0  0  0  0  0  0
  -17.4975  -31.6277   24.5123 H   0  0  0  0  0  0
  -15.5301  -30.2963   23.7708 H   0  0  0  0  0  0
  -15.8619  -28.0840   22.7035 H   0  0  0  0  0  0
  -24.5932  -30.7000   25.7859 H   0  0  0  0  0  0
  -24.8962  -32.2790   26.5044 H   0  0  0  0  0  0
  -25.8118  -30.8770   27.0248 H   0  0  0  0  0  0
  -26.2832  -29.6737   24.1244 H   0  0  0  0  0  0
  -27.4051  -29.7259   25.4642 H   0  0  0  0  0  0
  -27.8689  -30.4287   23.9326 H   0  0  0  0  0  0
  -27.2784  -33.3578   26.2088 H   0  0  0  0  0  0
  -28.3884  -32.6744   25.0275 H   0  0  0  0  0  0
  -28.0776  -31.8351   26.5367 H   0  0  0  0  0  0
  -28.2528  -38.0161   24.7598 H   0  0  0  0  0  0
  -28.1161  -36.2696   24.6120 H   0  0  0  0  0  0
  -27.2351  -37.1248   25.8854 H   0  0  0  0  0  0
  -20.9263  -29.8785   21.7044 H   0  0  0  0  0  0
  -26.0163  -38.2855   24.1481 H   0  0  0  0  0  0
  -27.4039  -20.3118   19.1258 H   0  0  0  0  0  0
  -28.5193  -25.3290   18.6489 H   0  0  0  0  0  0
  -31.4106  -17.0259   20.3075 H   0  0  0  0  0  0
  -30.2693  -16.6984   19.0559 H   0  0  0  0  0  0
  -31.0778  -17.3959   22.6813 H   0  0  0  0  0  0
  -31.0996  -18.9280   23.4066 H   0  0  0  0  0  0
  -28.3521  -22.5121   21.9472 H   0  0  0  0  0  0
  -29.0340  -15.4254   21.1044 H   0  0  0  0  0  0
  -28.1835  -25.5535   22.0332 H   0  0  0  0  0  0
  1 25  1  0  0  0
  1 30  2  0  0  0
  1 83  1  0  0  0
  2  3  1  0  0  0
  2 25  1  0  0  0
  2 88  1  0  0  0
  2 89  1  0  0  0
  3  4  1  0  0  0
  3 90  1  0  0  0
  3 91  1  0  0  0
  4  5  1  0  0  0
  4 92  1  0  0  0
  4 93  1  0  0  0
  5  6  1  0  0  0
  5 26  1  0  0  0
  5 94  1  0  0  0
  6 25  1  0  0  0
  6 95  1  0  0  0
  6 96  1  0  0  0
  7  8  2  0  0  0
  7 26  1  0  0  0
  7 29  1  0  0  0
  8  9  1  0  0  0
  8 22  1  0  0  0
  9 10  1  0  0  0
  9 27  2  0  0  0
 10 11  2  0  0  0
 10 15  1  0  0  0
 11 12  1  0  0  0
 11 97  1  0  0  0
 12 13  2  0  0  0
 12 98  1  0  0  0
 13 14  1  0  0  0
 13 31  1  0  0  0
 14 15  2  0  0  0
 14 99  1  0  0  0
 15100  1  0  0  0
 16 17  2  0  0  0
 16 21  1  0  0  0
 16 31  1  0  0  0
 17 18  1  0  0  0
 17101  1  0  0  0
 18 19  2  0  0  0
 18102  1  0  0  0
 19 20  1  0  0  0
 19 24  1  0  0  0
 20 21  2  0  0  0
 20103  1  0  0  0
 21 23  1  0  0  0
 22 28  1  0  0  0
 22 32  2  0  0  0
 26 27  1  0  0  0
 28104  1  0  0  0
 28105  1  0  0  0
 29106  1  0  0  0
 29107  1  0  0  0
 33 34  1  0  0  0
 33 66  1  0  0  0
 33 70  2  0  0  0
 34 36  1  0  0  0
 34 59  1  0  0  0
 34108  1  0  0  0
 35 44  2  0  0  0
 35 45  1  0  0  0
 35 68  1  0  0  0
 36 56  1  0  0  0
 36109  1  0  0  0
 37 39  1  0  0  0
 37 47  1  0  0  0
 37 66  1  0  0  0
 37110  1  0  0  0
 38 43  2  0  0  0
 38 46  1  0  0  0
 38 47  1  0  0  0
 39 64  1  0  0  0
 39 67  2  0  0  0
 40 52  1  0  0  0
 40 53  2  0  0  0
 40 58  1  0  0  0
 41111  1  0  0  0
 41112  1  0  0  0
 41113  1  0  0  0
 41 48  1  0  0  0
 42 43  1  0  0  0
 42 66  1  0  0  0
 42114  1  0  0  0
 42115  1  0  0  0
 43 44  1  0  0  0
 44116  1  0  0  0
 45 46  2  0  0  0
 45117  1  0  0  0
 46118  1  0  0  0
 47119  1  0  0  0
 47120  1  0  0  0
 48 56  1  0  0  0
 48 65  1  0  0  0
 48121  1  0  0  0
 49 50  1  0  0  0
 49 53  1  0  0  0
 49 64  1  0  0  0
 49122  1  0  0  0
 50 51  1  0  0  0
 50123  1  0  0  0
 50124  1  0  0  0
 51 52  1  0  0  0
 51125  1  0  0  0
 51126  1  0  0  0
 52127  1  0  0  0
 52128  1  0  0  0
 53 54  1  0  0  0
 54 55  2  0  0  0
 54129  1  0  0  0
 55 57  1  0  0  0
 55130  1  0  0  0
 56 69  2  0  0  0
 57 58  2  0  0  0
 57131  1  0  0  0
 58132  1  0  0  0
 59 60  1  0  0  0
 59 61  1  0  0  0
 59 62  1  0  0  0
 60133  1  0  0  0
 60134  1  0  0  0
 60135  1  0  0  0
 61136  1  0  0  0
 61137  1  0  0  0
 61138  1  0  0  0
 62139  1  0  0  0
 62140  1  0  0  0
 62141  1  0  0  0
 63 65  1  0  0  0
 63142  1  0  0  0
 63143  1  0  0  0
 63144  1  0  0  0
 64145  1  0  0  0
 65146  1  0  0  0
 68 77  1  0  0  0
 71 73  2  0  0  0
 71 75  1  0  0  0
 71147  1  0  0  0
 72 74  1  0  0  0
 72 75  2  0  0  0
 72 80  1  0  0  0
 73 76  1  0  0  0
 73 82  1  0  0  0
 74 76  2  0  0  0
 74 81  1  0  0  0
 75 86  1  0  0  0
 76 87  1  0  0  0
 77 78  2  0  0  0
 77148  1  0  0  0
 78 79  1  0  0  0
 78 85  1  0  0  0
 79 82  1  0  0  0
 79 84  2  0  0  0
 80 83  1  0  0  0
 80149  1  0  0  0
 80150  1  0  0  0
 81151  1  0  0  0
 81152  1  0  0  0
 82153  1  0  0  0
 83154  1  0  0  0
 85155  1  0  0  0
M  ISO  4   1 100  68 101  77 101  83 100
M  END
> <chiral flag>
0

> <version>
0

> <s_m_source_file>
/data/baiqing/PycharmProjects/Reinvent-master-3.2/result/LINK_invent/BTK/process_docking_weight1_custom_product_contain_oxygen_bond_distance_aromatic_linkinvent_7_9_3/rearranged_h_0169.sdf

> <i_m_source_file_index>
2

> <r_mmod_Potential_Energy-OPLS-2005>
-54.757984161377

> <r_mmod_Stretch_Energy-OPLS-2005>
34.3558311462402

> <r_mmod_Bend_Energy-OPLS-2005>
98.9065322875977

> <r_mmod_Torsional_Energy-OPLS-2005>
245.293472290039

> <r_mmod_Improper_Torsional_Energy-OPLS-2005>
14.3620109558105

> <r_mmod_Van_der_Waal_Energy-OPLS-2005>
169.95654296875

> <r_mmod_Electrostatic_Energy-OPLS-2005>
-416.810943603516

> <r_mmod_Solvation_Energy-OPLS-2005>
-215.483673095703

> <b_mmod_Minimization_Converged-OPLS-2005>
0

> <r_mmod_RMS_Derivative-OPLS-2005>
3.15808320045471

$$$$
2
                    3D
 Structure written by MMmdl.
168176  0  0  1  0            999 V2000
  -30.5943  -14.8195   20.4579 C   0  0  0  0  0  0
  -30.4326  -12.5059   19.4746 C   0  0  0  0  0  0
  -29.5096  -12.5176   18.2370 C   0  0  0  0  0  0
  -28.0382  -12.3286   18.6535 C   0  0  0  0  0  0
  -27.6363  -13.2378   19.8464 C   0  0  2  0  0  0
  -28.6837  -13.2090   20.9795 C   0  0  0  0  0  0
  -25.2481  -13.8200   20.5701 C   0  0  0  0  0  0
  -24.1789  -13.0437   20.9225 C   0  0  0  0  0  0
  -24.6396  -11.6920   20.8766 C   0  0  0  0  0  0
  -23.9080  -10.4295   21.0419 C   0  0  0  0  0  0
  -24.3631   -9.4207   21.9188 C   0  0  0  0  0  0
  -23.6304   -8.2244   22.0758 C   0  0  0  0  0  0
  -22.4284   -8.0281   21.3552 C   0  0  0  0  0  0
  -21.9924   -9.0252   20.4654 C   0  0  0  0  0  0
  -22.7253  -10.2134   20.3066 C   0  0  0  0  0  0
  -21.6858   -6.0738   22.5281 C   0  0  0  0  0  0
  -21.4011   -6.5643   23.8210 C   0  0  0  0  0  0
  -21.3662   -5.6799   24.9175 C   0  0  0  0  0  0
  -21.6047   -4.3059   24.7231 C   0  0  0  0  0  0
  -21.8813   -3.8152   23.4350 C   0  0  0  0  0  0
  -21.9195   -4.6968   22.3408 C   0  0  0  0  0  0
  -22.7808  -13.5215   21.1879 C   0  0  0  0  0  0
  -22.1656   -4.2159   21.0982 F   0  0  0  0  0  0
  -21.5642   -3.4539   25.7735 F   0  0  0  0  0  0
  -29.9712  -13.5855   20.3835 N   0  0  0  0  0  0
  -26.2914  -12.9420   20.3281 N   0  0  0  0  0  0
  -25.9326  -11.6558   20.5774 N   0  0  0  0  0  0
  -22.0465  -12.8199   22.0436 N   0  0  0  0  0  0
  -25.4120  -15.1928   20.4092 N   0  0  0  0  0  0
  -31.7871  -14.8914   20.1474 O   0  0  0  0  0  0
  -21.6649   -6.8879   21.4241 O   0  0  0  0  0  0
  -22.3490  -14.5517   20.6719 O   0  0  0  0  0  0
  -24.6364  -31.8507   23.1933 C   0  0  0  0  0  0
  -25.9170  -32.4735   23.8301 C   0  0  1  0  0  0
  -27.2232  -27.2157   20.1452 C   0  0  0  0  0  0
  -25.5944  -33.8538   24.2224 N   0  0  0  0  0  0
  -23.4362  -30.4704   21.5376 C   0  0  2  0  0  0
  -24.8850  -28.9001   20.1193 C   0  0  0  0  0  0
  -22.7522  -29.4590   22.4901 C   0  0  0  0  0  0
  -18.0291  -28.1397   22.8486 C   0  0  0  0  0  0
  -24.1486  -36.7271   23.2631 C   0  0  0  0  0  0
  -25.9855  -30.7485   21.3791 C   0  0  0  0  0  0
  -26.0585  -29.3629   20.7294 C   0  0  0  0  0  0
  -27.2329  -28.5348   20.7268 C   0  0  0  0  0  0
  -26.0256  -26.8234   19.5145 C   0  0  0  0  0  0
  -24.8745  -27.6391   19.5006 C   0  0  0  0  0  0
  -23.6590  -29.7956   20.1579 C   0  0  0  0  0  0
  -25.4111  -36.3057   24.0321 C   0  0  1  0  0  0
  -20.5902  -28.3716   23.1257 C   0  0  2  0  0  0
  -20.6783  -26.9429   22.5409 C   0  0  0  0  0  0
  -19.5757  -26.6390   21.5215 C   0  0  0  0  0  0
  -18.1937  -26.7937   22.1626 C   0  0  0  0  0  0
  -19.1548  -28.8873   23.2867 C   0  0  0  0  0  0
  -18.9466  -30.1468   23.8895 C   0  0  0  0  0  0
  -17.6466  -30.6601   24.0559 C   0  0  0  0  0  0
  -25.9070  -34.9434   23.5082 C   0  0  0  0  0  0
  -16.5357  -29.9096   23.6331 C   0  0  0  0  0  0
  -16.7276  -28.6510   23.0360 C   0  0  0  0  0  0
  -26.4508  -31.6575   25.0715 C   0  0  0  0  0  0
  -25.3711  -31.3747   26.1421 C   0  0  0  0  0  0
  -27.0352  -30.2980   24.6242 C   0  0  0  0  0  0
  -27.6059  -32.4315   25.7493 C   0  0  0  0  0  0
  -27.5593  -37.1762   24.8439 C   0  0  0  0  0  0
  -21.4225  -29.3056   22.3641 N   0  0  0  0  0  0
  -26.4263  -37.3782   23.9446 N   0  0  0  0  0  0
  -24.7055  -31.0427   22.0930 N   0  0  0  0  0  0
  -23.4196  -28.8137   23.3029 O   0  0  0  0  0  0
  -28.3138  -26.3059   20.1031 O   0  0  0  0  0  0
  -26.5657  -34.8923   22.4660 O   0  0  0  0  0  0
  -23.5501  -32.1352   23.7195 O   0  0  0  0  0  0
  -29.4480  -18.5925   20.3876 C   0  0  0  0  0  0
  -31.1837  -17.7407   21.8890 C   0  0  0  0  0  0
  -31.5656  -19.0952   22.1338 C   0  0  0  0  0  0
  -30.1634  -17.4259   20.9376 C   0  0  0  0  0  0
  -29.7534  -19.9956   20.7086 C   0  0  0  0  0  0
  -30.8681  -20.1787   21.5506 C   0  0  0  0  0  0
  -28.2131  -24.9571   20.6012 C   0  0  0  0  0  0
  -28.7606  -23.7716   20.0891 C   0  0  0  0  0  0
  -28.7317  -22.4190   20.8056 C   0  0  0  0  0  0
  -31.8608  -16.6358   22.6996 C   0  0  0  0  0  0
  -32.7374  -21.3663   24.6567 C   0  0  0  0  0  0
  -31.0937  -19.5074   24.9682 C   0  0  0  0  0  0
  -33.5339  -19.1284   25.3921 C   0  0  0  0  0  0
  -32.7865  -19.4491   22.9937 C   0  0  0  0  0  0
  -32.5195  -19.8493   24.4823 C   0  0  0  0  0  0
  -29.1562  -21.2594   20.1431 N   0  0  0  0  0  0
  -29.8207  -15.9793   20.6493 N   0  0  0  0  0  0
  -28.3186  -22.3162   21.9630 O   0  0  0  0  0  0
  -29.3930  -23.8256   18.9082 O   0  0  0  0  0  0
  -31.3178  -21.4383   21.7754 F   0  0  0  0  0  0
  -31.4703  -12.6392   19.1663 H   0  0  0  0  0  0
  -30.3929  -11.5386   19.9783 H   0  0  0  0  0  0
  -29.8061  -11.7360   17.5361 H   0  0  0  0  0  0
  -29.6203  -13.4630   17.7039 H   0  0  0  0  0  0
  -27.9058  -11.2811   18.9255 H   0  0  0  0  0  0
  -27.3768  -12.5050   17.8043 H   0  0  0  0  0  0
  -27.6163  -14.2525   19.4502 H   0  0  0  0  0  0
  -28.7425  -12.2201   21.4364 H   0  0  0  0  0  0
  -28.4083  -13.9005   21.7774 H   0  0  0  0  0  0
  -25.2776   -9.5690   22.4759 H   0  0  0  0  0  0
  -24.0027   -7.4638   22.7474 H   0  0  0  0  0  0
  -21.0868   -8.8768   19.8956 H   0  0  0  0  0  0
  -22.3712  -10.9671   19.6177 H   0  0  0  0  0  0
  -21.1992   -7.6147   23.9720 H   0  0  0  0  0  0
  -21.1491   -6.0524   25.9079 H   0  0  0  0  0  0
  -22.0594   -2.7617   23.2842 H   0  0  0  0  0  0
  -22.4092  -11.9860   22.4806 H   0  0  0  0  0  0
  -21.1079  -13.1206   22.2647 H   0  0  0  0  0  0
  -24.6376  -15.8384   20.5185 H   0  0  0  0  0  0
  -26.2483  -15.6378   20.0543 H   0  0  0  0  0  0
  -26.7241  -32.5369   23.1042 H   0  0  0  0  0  0
  -25.0056  -33.9664   25.0346 H   0  0  0  0  0  0
  -22.7362  -31.2942   21.3837 H   0  0  0  0  0  0
  -23.3783  -35.9561   23.3205 H   0  0  0  0  0  0
  -24.3598  -36.8992   22.2066 H   0  0  0  0  0  0
  -23.7183  -37.6418   23.6719 H   0  0  0  0  0  0
  -26.1265  -31.5017   20.6025 H   0  0  0  0  0  0
  -26.8624  -30.8040   22.0128 H   0  0  0  0  0  0
  -28.1383  -28.8896   21.1986 H   0  0  0  0  0  0
  -25.9783  -25.8560   19.0354 H   0  0  0  0  0  0
  -23.9767  -27.2789   19.0171 H   0  0  0  0  0  0
  -23.7925  -30.5676   19.3991 H   0  0  0  0  0  0
  -22.7758  -29.2331   19.8499 H   0  0  0  0  0  0
  -25.1281  -36.1874   25.0807 H   0  0  0  0  0  0
  -20.9992  -28.3302   24.1377 H   0  0  0  0  0  0
  -20.5678  -26.2333   23.3623 H   0  0  0  0  0  0
  -21.6648  -26.7450   22.1200 H   0  0  0  0  0  0
  -19.6919  -25.6294   21.1259 H   0  0  0  0  0  0
  -19.6693  -27.3188   20.6738 H   0  0  0  0  0  0
  -17.4205  -26.6682   21.4030 H   0  0  0  0  0  0
  -18.0336  -26.0080   22.9026 H   0  0  0  0  0  0
  -19.7943  -30.7279   24.2271 H   0  0  0  0  0  0
  -17.5021  -31.6280   24.5159 H   0  0  0  0  0  0
  -15.5356  -30.2998   23.7660 H   0  0  0  0  0  0
  -15.8675  -28.0825   22.7090 H   0  0  0  0  0  0
  -24.5880  -30.7110   25.7737 H   0  0  0  0  0  0
  -24.8911  -32.2926   26.4828 H   0  0  0  0  0  0
  -25.7999  -30.8921   27.0214 H   0  0  0  0  0  0
  -26.2948  -29.6722   24.1247 H   0  0  0  0  0  0
  -27.3983  -29.7255   25.4789 H   0  0  0  0  0  0
  -27.8848  -30.4231   23.9527 H   0  0  0  0  0  0
  -27.2676  -33.3626   26.2049 H   0  0  0  0  0  0
  -28.3884  -32.6853   25.0330 H   0  0  0  0  0  0
  -28.0710  -31.8449   26.5427 H   0  0  0  0  0  0
  -28.2503  -38.0166   24.7651 H   0  0  0  0  0  0
  -28.1198  -36.2713   24.6041 H   0  0  0  0  0  0
  -27.2348  -37.1130   25.8841 H   0  0  0  0  0  0
  -20.9428  -29.8763   21.6823 H   0  0  0  0  0  0
  -26.0127  -38.2823   24.1560 H   0  0  0  0  0  0
  -28.6414  -18.4067   19.6939 H   0  0  0  0  0  0
  -27.6622  -24.9457   21.5328 H   0  0  0  0  0  0
  -32.7316  -16.2460   22.1745 H   0  0  0  0  0  0
  -31.1783  -15.8165   22.9188 H   0  0  0  0  0  0
  -32.1911  -16.9796   23.6762 H   0  0  0  0  0  0
  -32.6025  -21.6725   25.6945 H   0  0  0  0  0  0
  -32.0340  -21.9459   24.0591 H   0  0  0  0  0  0
  -33.7440  -21.6652   24.3599 H   0  0  0  0  0  0
  -30.9626  -19.7679   26.0190 H   0  0  0  0  0  0
  -30.8737  -18.4443   24.8746 H   0  0  0  0  0  0
  -30.3322  -20.0535   24.4103 H   0  0  0  0  0  0
  -33.4083  -19.4178   26.4365 H   0  0  0  0  0  0
  -34.5600  -19.3712   25.1123 H   0  0  0  0  0  0
  -33.4304  -18.0448   25.3408 H   0  0  0  0  0  0
  -33.3277  -20.2499   22.4874 H   0  0  0  0  0  0
  -33.5017  -18.6288   22.9413 H   0  0  0  0  0  0
  -29.3059  -21.3982   19.1535 H   0  0  0  0  0  0
  -28.8309  -15.7908   20.6120 H   0  0  0  0  0  0
  -29.3460  -24.7258   18.6118 H   0  0  0  0  0  0
  1 25  1  0  0  0
  1 30  2  0  0  0
  1 87  1  0  0  0
  2  3  1  0  0  0
  2 25  1  0  0  0
  2 91  1  0  0  0
  2 92  1  0  0  0
  3  4  1  0  0  0
  3 93  1  0  0  0
  3 94  1  0  0  0
  4  5  1  0  0  0
  4 95  1  0  0  0
  4 96  1  0  0  0
  5  6  1  0  0  0
  5 26  1  0  0  0
  5 97  1  0  0  0
  6 25  1  0  0  0
  6 98  1  0  0  0
  6 99  1  0  0  0
  7  8  2  0  0  0
  7 26  1  0  0  0
  7 29  1  0  0  0
  8  9  1  0  0  0
  8 22  1  0  0  0
  9 10  1  0  0  0
  9 27  2  0  0  0
 10 11  2  0  0  0
 10 15  1  0  0  0
 11 12  1  0  0  0
 11100  1  0  0  0
 12 13  2  0  0  0
 12101  1  0  0  0
 13 14  1  0  0  0
 13 31  1  0  0  0
 14 15  2  0  0  0
 14102  1  0  0  0
 15103  1  0  0  0
 16 17  2  0  0  0
 16 21  1  0  0  0
 16 31  1  0  0  0
 17 18  1  0  0  0
 17104  1  0  0  0
 18 19  2  0  0  0
 18105  1  0  0  0
 19 20  1  0  0  0
 19 24  1  0  0  0
 20 21  2  0  0  0
 20106  1  0  0  0
 21 23  1  0  0  0
 22 28  1  0  0  0
 22 32  2  0  0  0
 26 27  1  0  0  0
 28107  1  0  0  0
 28108  1  0  0  0
 29109  1  0  0  0
 29110  1  0  0  0
 33 34  1  0  0  0
 33 66  1  0  0  0
 33 70  2  0  0  0
 34 36  1  0  0  0
 34 59  1  0  0  0
 34111  1  0  0  0
 35 44  2  0  0  0
 35 45  1  0  0  0
 35 68  1  0  0  0
 36 56  1  0  0  0
 36112  1  0  0  0
 37 39  1  0  0  0
 37 47  1  0  0  0
 37 66  1  0  0  0
 37113  1  0  0  0
 38 43  2  0  0  0
 38 46  1  0  0  0
 38 47  1  0  0  0
 39 64  1  0  0  0
 39 67  2  0  0  0
 40 52  1  0  0  0
 40 53  2  0  0  0
 40 58  1  0  0  0
 41114  1  0  0  0
 41115  1  0  0  0
 41116  1  0  0  0
 41 48  1  0  0  0
 42 43  1  0  0  0
 42 66  1  0  0  0
 42117  1  0  0  0
 42118  1  0  0  0
 43 44  1  0  0  0
 44119  1  0  0  0
 45 46  2  0  0  0
 45120  1  0  0  0
 46121  1  0  0  0
 47122  1  0  0  0
 47123  1  0  0  0
 48 56  1  0  0  0
 48 65  1  0  0  0
 48124  1  0  0  0
 49 50  1  0  0  0
 49 53  1  0  0  0
 49 64  1  0  0  0
 49125  1  0  0  0
 50 51  1  0  0  0
 50126  1  0  0  0
 50127  1  0  0  0
 51 52  1  0  0  0
 51128  1  0  0  0
 51129  1  0  0  0
 52130  1  0  0  0
 52131  1  0  0  0
 53 54  1  0  0  0
 54 55  2  0  0  0
 54132  1  0  0  0
 55 57  1  0  0  0
 55133  1  0  0  0
 56 69  2  0  0  0
 57 58  2  0  0  0
 57134  1  0  0  0
 58135  1  0  0  0
 59 60  1  0  0  0
 59 61  1  0  0  0
 59 62  1  0  0  0
 60136  1  0  0  0
 60137  1  0  0  0
 60138  1  0  0  0
 61139  1  0  0  0
 61140  1  0  0  0
 61141  1  0  0  0
 62142  1  0  0  0
 62143  1  0  0  0
 62144  1  0  0  0
 63 65  1  0  0  0
 63145  1  0  0  0
 63146  1  0  0  0
 63147  1  0  0  0
 64148  1  0  0  0
 65149  1  0  0  0
 68 77  1  0  0  0
 71 74  2  0  0  0
 71 75  1  0  0  0
 71150  1  0  0  0
 72 73  2  0  0  0
 72 74  1  0  0  0
 72 80  1  0  0  0
 73 76  1  0  0  0
 73 84  1  0  0  0
 74 87  1  0  0  0
 75 76  2  0  0  0
 75 86  1  0  0  0
 76 90  1  0  0  0
 77 78  2  0  0  0
 77151  1  0  0  0
 78 79  1  0  0  0
 78 89  1  0  0  0
 79 86  1  0  0  0
 79 88  2  0  0  0
 80152  1  0  0  0
 80153  1  0  0  0
 80154  1  0  0  0
 81155  1  0  0  0
 81156  1  0  0  0
 81157  1  0  0  0
 81 85  1  0  0  0
 82 85  1  0  0  0
 82158  1  0  0  0
 82159  1  0  0  0
 82160  1  0  0  0
 83 85  1  0  0  0
 83161  1  0  0  0
 83162  1  0  0  0
 83163  1  0  0  0
 84 85  1  0  0  0
 84164  1  0  0  0
 84165  1  0  0  0
 86166  1  0  0  0
 87167  1  0  0  0
 89168  1  0  0  0
M  ISO  4   1 100  68 101  77 101  87 100
M  END
> <chiral flag>
0

> <version>
0

> <s_m_source_file>
/data/baiqing/PycharmProjects/Reinvent-master-3.2/result/LINK_invent/BTK/process_docking_weight1_custom_product_contain_oxygen_bond_distance_aromatic_linkinvent_7_9_3/rearranged_h_0169.sdf

> <i_m_source_file_index>
3

> <r_mmod_Potential_Energy-OPLS-2005>
221.752868652344

> <r_mmod_Stretch_Energy-OPLS-2005>
164.707015991211

> <r_mmod_Bend_Energy-OPLS-2005>
184.403289794922

> <r_mmod_Torsional_Energy-OPLS-2005>
267.532775878906

> <r_mmod_Improper_Torsional_Energy-OPLS-2005>
7.55746746063232

> <r_mmod_Van_der_Waal_Energy-OPLS-2005>
150.225387573242

> <r_mmod_Electrostatic_Energy-OPLS-2005>
-451.393859863281

> <r_mmod_Solvation_Energy-OPLS-2005>
-215.837966918945

> <b_mmod_Minimization_Converged-OPLS-2005>
0

> <r_mmod_RMS_Derivative-OPLS-2005>
1.18134844303131

$$$$
3
                    3D
 Structure written by MMmdl.
160168  0  0  1  0            999 V2000
  -30.6523  -14.7625   20.6289 C   0  0  0  0  0  0
  -30.4283  -12.4959   19.5300 C   0  0  0  0  0  0
  -29.5248  -12.4936   18.2758 C   0  0  0  0  0  0
  -28.0688  -12.2229   18.6922 C   0  0  0  0  0  0
  -27.6299  -13.1788   19.8233 C   0  0  2  0  0  0
  -28.6445  -13.2207   20.9920 C   0  0  0  0  0  0
  -25.2468  -13.8057   20.5488 C   0  0  0  0  0  0
  -24.1762  -13.0369   20.9123 C   0  0  0  0  0  0
  -24.6322  -11.6845   20.8731 C   0  0  0  0  0  0
  -23.9034  -10.4249   21.0424 C   0  0  0  0  0  0
  -24.3617   -9.4177   21.9192 C   0  0  0  0  0  0
  -23.6291   -8.2213   22.0766 C   0  0  0  0  0  0
  -22.4277   -8.0260   21.3539 C   0  0  0  0  0  0
  -21.9908   -9.0228   20.4642 C   0  0  0  0  0  0
  -22.7232  -10.2103   20.3051 C   0  0  0  0  0  0
  -21.6839   -6.0739   22.5281 C   0  0  0  0  0  0
  -21.4001   -6.5638   23.8213 C   0  0  0  0  0  0
  -21.3650   -5.6796   24.9173 C   0  0  0  0  0  0
  -21.6048   -4.3061   24.7226 C   0  0  0  0  0  0
  -21.8822   -3.8153   23.4342 C   0  0  0  0  0  0
  -21.9184   -4.6972   22.3395 C   0  0  0  0  0  0
  -22.7821  -13.5195   21.1831 C   0  0  0  0  0  0
  -22.1657   -4.2158   21.0970 F   0  0  0  0  0  0
  -21.5630   -3.4538   25.7736 F   0  0  0  0  0  0
  -29.9689  -13.5671   20.4607 N   0  0  0  0  0  0
  -26.2826  -12.9165   20.3016 N   0  0  0  0  0  0
  -25.9204  -11.6384   20.5675 N   0  0  0  0  0  0
  -22.0514  -12.8174   22.0414 N   0  0  0  0  0  0
  -25.4073  -15.1771   20.3827 N   0  0  0  0  0  0
  -31.7761  -14.8687   20.1225 O   0  0  0  0  0  0
  -21.6621   -6.8878   21.4242 O   0  0  0  0  0  0
  -22.3493  -14.5500   20.6697 O   0  0  0  0  0  0
  -24.6335  -31.8568   23.2044 C   0  0  0  0  0  0
  -25.9147  -32.4768   23.8399 C   0  0  1  0  0  0
  -27.2143  -27.2612   20.1443 C   0  0  0  0  0  0
  -25.5949  -33.8576   24.2288 N   0  0  0  0  0  0
  -23.4319  -30.4779   21.5514 C   0  0  2  0  0  0
  -24.8793  -28.9341   20.1104 C   0  0  0  0  0  0
  -22.7524  -29.4592   22.4986 C   0  0  0  0  0  0
  -18.0241  -28.1388   22.8464 C   0  0  0  0  0  0
  -24.1484  -36.7268   23.2644 C   0  0  0  0  0  0
  -25.9787  -30.7700   21.3870 C   0  0  0  0  0  0
  -26.0518  -29.3955   20.7215 C   0  0  0  0  0  0
  -27.2224  -28.5731   20.7242 C   0  0  0  0  0  0
  -26.0186  -26.8720   19.4902 C   0  0  0  0  0  0
  -24.8688  -27.6810   19.4807 C   0  0  0  0  0  0
  -23.6528  -29.8238   20.1629 C   0  0  0  0  0  0
  -25.4111  -36.3070   24.0329 C   0  0  1  0  0  0
  -20.5853  -28.3702   23.1277 C   0  0  2  0  0  0
  -20.6768  -26.9422   22.5415 C   0  0  0  0  0  0
  -19.5757  -26.6391   21.5208 C   0  0  0  0  0  0
  -18.1916  -26.7932   22.1587 C   0  0  0  0  0  0
  -19.1499  -28.8858   23.2833 C   0  0  0  0  0  0
  -18.9455  -30.1443   23.8878 C   0  0  0  0  0  0
  -17.6470  -30.6604   24.0542 C   0  0  0  0  0  0
  -25.9075  -34.9450   23.5102 C   0  0  0  0  0  0
  -16.5335  -29.9120   23.6335 C   0  0  0  0  0  0
  -16.7225  -28.6511   23.0377 C   0  0  0  0  0  0
  -26.4511  -31.6601   25.0792 C   0  0  0  0  0  0
  -25.3699  -31.3738   26.1502 C   0  0  0  0  0  0
  -27.0401  -30.3050   24.6259 C   0  0  0  0  0  0
  -27.6082  -32.4386   25.7526 C   0  0  0  0  0  0
  -27.5561  -37.1786   24.8446 C   0  0  0  0  0  0
  -21.4234  -29.3036   22.3702 N   0  0  0  0  0  0
  -26.4276  -37.3778   23.9424 N   0  0  0  0  0  0
  -24.7004  -31.0518   22.1050 N   0  0  0  0  0  0
  -23.4213  -28.8115   23.3076 O   0  0  0  0  0  0
  -28.2923  -26.3519   20.2445 O   0  0  0  0  0  0
  -26.5636  -34.8874   22.4678 O   0  0  0  0  0  0
  -23.5487  -32.1428   23.7331 O   0  0  0  0  0  0
  -27.5573  -17.9282   19.5405 C   0  0  0  0  0  0
  -27.9412  -19.2637   19.7158 C   0  0  0  0  0  0
  -28.3121  -16.8823   20.0926 C   0  0  0  0  0  0
  -29.8683  -18.5031   21.0086 C   0  0  0  0  0  0
  -29.0646  -19.6207   20.4951 C   0  0  0  0  0  0
  -29.5038  -17.0849   20.8075 C   0  0  0  0  0  0
  -28.5062  -22.1864   20.5793 C   0  0  0  0  0  0
  -31.1308  -18.8640   21.7714 C   0  0  0  0  0  0
  -30.3609  -14.7726   23.7002 C   0  0  0  0  0  0
  -30.6220  -15.9655   22.7623 C   0  0  0  0  0  0
  -27.9937  -24.8772   20.1734 C   0  0  0  0  0  0
  -29.0140  -23.7081   20.6485 C   0  0  2  0  0  0
  -29.3497  -21.0780   20.6838 N   0  0  0  0  0  0
  -30.1200  -15.8344   21.3733 N   0  0  0  0  0  0
  -27.2877  -22.0311   20.4701 O   0  0  0  0  0  0
  -30.1439  -23.8090   19.9405 F   0  0  0  0  0  0
  -31.4741  -12.6122   19.2417 H   0  0  0  0  0  0
  -30.3758  -11.5293   20.0335 H   0  0  0  0  0  0
  -29.8614  -11.7305   17.5729 H   0  0  0  0  0  0
  -29.5992  -13.4507   17.7577 H   0  0  0  0  0  0
  -28.0069  -11.1913   19.0413 H   0  0  0  0  0  0
  -27.4048  -12.2962   17.8288 H   0  0  0  0  0  0
  -27.5905  -14.1235   19.3049 H   0  0  0  0  0  0
  -28.6763  -12.2600   21.5072 H   0  0  0  0  0  0
  -28.3080  -13.9506   21.7278 H   0  0  0  0  0  0
  -25.2781   -9.5640   22.4753 H   0  0  0  0  0  0
  -23.9997   -7.4594   22.7481 H   0  0  0  0  0  0
  -21.0852   -8.8748   19.8936 H   0  0  0  0  0  0
  -22.3718  -10.9643   19.6147 H   0  0  0  0  0  0
  -21.1992   -7.6144   23.9718 H   0  0  0  0  0  0
  -21.1470   -6.0521   25.9073 H   0  0  0  0  0  0
  -22.0615   -2.7618   23.2832 H   0  0  0  0  0  0
  -22.4176  -11.9827   22.4761 H   0  0  0  0  0  0
  -21.1159  -13.1198   22.2699 H   0  0  0  0  0  0
  -24.6408  -15.8289   20.5073 H   0  0  0  0  0  0
  -26.2471  -15.6316   20.0532 H   0  0  0  0  0  0
  -26.7227  -32.5393   23.1159 H   0  0  0  0  0  0
  -25.0179  -33.9764   25.0484 H   0  0  0  0  0  0
  -22.7264  -31.2986   21.4097 H   0  0  0  0  0  0
  -23.3747  -35.9596   23.3307 H   0  0  0  0  0  0
  -24.3581  -36.8918   22.2054 H   0  0  0  0  0  0
  -23.7208  -37.6451   23.6698 H   0  0  0  0  0  0
  -26.1238  -31.5353   20.6232 H   0  0  0  0  0  0
  -26.8547  -30.8136   22.0234 H   0  0  0  0  0  0
  -28.1187  -28.9149   21.2221 H   0  0  0  0  0  0
  -25.9371  -25.9166   18.9944 H   0  0  0  0  0  0
  -23.9688  -27.3276   18.9940 H   0  0  0  0  0  0
  -23.7837  -30.6112   19.4188 H   0  0  0  0  0  0
  -22.7664  -29.2708   19.8465 H   0  0  0  0  0  0
  -25.1276  -36.1969   25.0823 H   0  0  0  0  0  0
  -20.9838  -28.3257   24.1435 H   0  0  0  0  0  0
  -20.5739  -26.2265   23.3596 H   0  0  0  0  0  0
  -21.6651  -26.7543   22.1159 H   0  0  0  0  0  0
  -19.6975  -25.6316   21.1249 H   0  0  0  0  0  0
  -19.6731  -27.3193   20.6737 H   0  0  0  0  0  0
  -17.4203  -26.6634   21.3953 H   0  0  0  0  0  0
  -18.0291  -26.0087   22.8993 H   0  0  0  0  0  0
  -19.7941  -30.7218   24.2281 H   0  0  0  0  0  0
  -17.5047  -31.6303   24.5139 H   0  0  0  0  0  0
  -15.5350  -30.3027   23.7728 H   0  0  0  0  0  0
  -15.8588  -28.0840   22.7163 H   0  0  0  0  0  0
  -24.5899  -30.7065   25.7813 H   0  0  0  0  0  0
  -24.8820  -32.2861   26.4948 H   0  0  0  0  0  0
  -25.7989  -30.8918   27.0292 H   0  0  0  0  0  0
  -26.3006  -29.6755   24.1294 H   0  0  0  0  0  0
  -27.4114  -29.7345   25.4778 H   0  0  0  0  0  0
  -27.8861  -30.4354   23.9493 H   0  0  0  0  0  0
  -27.2748  -33.3749   26.2011 H   0  0  0  0  0  0
  -28.3900  -32.6885   25.0329 H   0  0  0  0  0  0
  -28.0725  -31.8569   26.5493 H   0  0  0  0  0  0
  -28.2566  -38.0096   24.7603 H   0  0  0  0  0  0
  -28.1073  -36.2655   24.6193 H   0  0  0  0  0  0
  -27.2281  -37.1331   25.8838 H   0  0  0  0  0  0
  -20.9476  -29.8744   21.6873 H   0  0  0  0  0  0
  -26.0142  -38.2846   24.1503 H   0  0  0  0  0  0
  -26.6485  -17.7053   18.9960 H   0  0  0  0  0  0
  -27.3289  -20.0132   19.2371 H   0  0  0  0  0  0
  -27.9303  -15.8967   20.0080 H   0  0  0  0  0  0
  -31.5195  -19.8294   21.4536 H   0  0  0  0  0  0
  -31.9275  -18.1428   21.5989 H   0  0  0  0  0  0
  -30.9243  -18.9258   22.8403 H   0  0  0  0  0  0
  -30.6499  -15.0458   24.7177 H   0  0  0  0  0  0
  -30.9468  -13.8954   23.4227 H   0  0  0  0  0  0
  -29.3056  -14.4943   23.7389 H   0  0  0  0  0  0
  -31.6916  -16.1789   22.7527 H   0  0  0  0  0  0
  -30.1411  -16.8193   23.2428 H   0  0  0  0  0  0
  -27.0740  -24.7192   20.7399 H   0  0  0  0  0  0
  -27.7390  -24.6527   19.1376 H   0  0  0  0  0  0
  -29.2857  -23.8975   21.6869 H   0  0  0  0  0  0
  -30.3072  -21.3059   20.9156 H   0  0  0  0  0  0
  1 25  1  0  0  0
  1 30  2  0  0  0
  1 84  1  0  0  0
  2  3  1  0  0  0
  2 25  1  0  0  0
  2 87  1  0  0  0
  2 88  1  0  0  0
  3  4  1  0  0  0
  3 89  1  0  0  0
  3 90  1  0  0  0
  4  5  1  0  0  0
  4 91  1  0  0  0
  4 92  1  0  0  0
  5  6  1  0  0  0
  5 26  1  0  0  0
  5 93  1  0  0  0
  6 25  1  0  0  0
  6 94  1  0  0  0
  6 95  1  0  0  0
  7  8  2  0  0  0
  7 26  1  0  0  0
  7 29  1  0  0  0
  8  9  1  0  0  0
  8 22  1  0  0  0
  9 10  1  0  0  0
  9 27  2  0  0  0
 10 11  2  0  0  0
 10 15  1  0  0  0
 11 12  1  0  0  0
 11 96  1  0  0  0
 12 13  2  0  0  0
 12 97  1  0  0  0
 13 14  1  0  0  0
 13 31  1  0  0  0
 14 15  2  0  0  0
 14 98  1  0  0  0
 15 99  1  0  0  0
 16 17  2  0  0  0
 16 21  1  0  0  0
 16 31  1  0  0  0
 17 18  1  0  0  0
 17100  1  0  0  0
 18 19  2  0  0  0
 18101  1  0  0  0
 19 20  1  0  0  0
 19 24  1  0  0  0
 20 21  2  0  0  0
 20102  1  0  0  0
 21 23  1  0  0  0
 22 28  1  0  0  0
 22 32  2  0  0  0
 26 27  1  0  0  0
 28103  1  0  0  0
 28104  1  0  0  0
 29105  1  0  0  0
 29106  1  0  0  0
 33 34  1  0  0  0
 33 66  1  0  0  0
 33 70  2  0  0  0
 34 36  1  0  0  0
 34 59  1  0  0  0
 34107  1  0  0  0
 35 44  2  0  0  0
 35 45  1  0  0  0
 35 68  1  0  0  0
 36 56  1  0  0  0
 36108  1  0  0  0
 37 39  1  0  0  0
 37 47  1  0  0  0
 37 66  1  0  0  0
 37109  1  0  0  0
 38 43  2  0  0  0
 38 46  1  0  0  0
 38 47  1  0  0  0
 39 64  1  0  0  0
 39 67  2  0  0  0
 40 52  1  0  0  0
 40 53  2  0  0  0
 40 58  1  0  0  0
 41110  1  0  0  0
 41111  1  0  0  0
 41112  1  0  0  0
 41 48  1  0  0  0
 42 43  1  0  0  0
 42 66  1  0  0  0
 42113  1  0  0  0
 42114  1  0  0  0
 43 44  1  0  0  0
 44115  1  0  0  0
 45 46  2  0  0  0
 45116  1  0  0  0
 46117  1  0  0  0
 47118  1  0  0  0
 47119  1  0  0  0
 48 56  1  0  0  0
 48 65  1  0  0  0
 48120  1  0  0  0
 49 50  1  0  0  0
 49 53  1  0  0  0
 49 64  1  0  0  0
 49121  1  0  0  0
 50 51  1  0  0  0
 50122  1  0  0  0
 50123  1  0  0  0
 51 52  1  0  0  0
 51124  1  0  0  0
 51125  1  0  0  0
 52126  1  0  0  0
 52127  1  0  0  0
 53 54  1  0  0  0
 54 55  2  0  0  0
 54128  1  0  0  0
 55 57  1  0  0  0
 55129  1  0  0  0
 56 69  2  0  0  0
 57 58  2  0  0  0
 57130  1  0  0  0
 58131  1  0  0  0
 59 60  1  0  0  0
 59 61  1  0  0  0
 59 62  1  0  0  0
 60132  1  0  0  0
 60133  1  0  0  0
 60134  1  0  0  0
 61135  1  0  0  0
 61136  1  0  0  0
 61137  1  0  0  0
 62138  1  0  0  0
 62139  1  0  0  0
 62140  1  0  0  0
 63 65  1  0  0  0
 63141  1  0  0  0
 63142  1  0  0  0
 63143  1  0  0  0
 64144  1  0  0  0
 65145  1  0  0  0
 68 81  1  0  0  0
 71 72  2  0  0  0
 71 73  1  0  0  0
 71146  1  0  0  0
 72 75  1  0  0  0
 72147  1  0  0  0
 73 76  2  0  0  0
 73148  1  0  0  0
 74 75  2  0  0  0
 74 76  1  0  0  0
 74 78  1  0  0  0
 75 83  1  0  0  0
 76 84  1  0  0  0
 77 82  1  0  0  0
 77 83  1  0  0  0
 77 85  2  0  0  0
 78149  1  0  0  0
 78150  1  0  0  0
 78151  1  0  0  0
 79 80  1  0  0  0
 79152  1  0  0  0
 79153  1  0  0  0
 79154  1  0  0  0
 80 84  1  0  0  0
 80155  1  0  0  0
 80156  1  0  0  0
 81 82  1  0  0  0
 81157  1  0  0  0
 81158  1  0  0  0
 82 86  1  0  0  0
 82159  1  0  0  0
 83160  1  0  0  0
M  ISO  4   1 100  68 101  81 101  84 100
M  END
> <chiral flag>
0

> <version>
0

> <s_m_source_file>
/data/baiqing/PycharmProjects/Reinvent-master-3.2/result/LINK_invent/BTK/process_docking_weight1_custom_product_contain_oxygen_bond_distance_aromatic_linkinvent_7_9_3/rearranged_h_0169.sdf

> <i_m_source_file_index>
4

> <r_mmod_Potential_Energy-OPLS-2005>
398.430969238281

> <r_mmod_Stretch_Energy-OPLS-2005>
147.77067565918

> <r_mmod_Bend_Energy-OPLS-2005>
180.458877563477

> <r_mmod_Torsional_Energy-OPLS-2005>
302.937316894531

> <r_mmod_Improper_Torsional_Energy-OPLS-2005>
3.61409139633179

> <r_mmod_Van_der_Waal_Energy-OPLS-2005>
151.487991333008

> <r_mmod_Electrostatic_Energy-OPLS-2005>
-287.573455810547

> <r_mmod_Solvation_Energy-OPLS-2005>
-201.050354003906

> <b_mmod_Minimization_Converged-OPLS-2005>
0

> <r_mmod_RMS_Derivative-OPLS-2005>
5.18388319015503

$$$$
4
                    3D
 Structure written by MMmdl.
150158  0  0  1  0            999 V2000
  -30.5512  -14.8129   20.4473 C   0  0  0  0  0  0
  -30.4428  -12.4960   19.4844 C   0  0  0  0  0  0
  -29.5205  -12.5314   18.2442 C   0  0  0  0  0  0
  -28.0480  -12.3322   18.6530 C   0  0  0  0  0  0
  -27.6421  -13.2301   19.8520 C   0  0  2  0  0  0
  -28.6839  -13.1704   20.9915 C   0  0  0  0  0  0
  -25.2522  -13.8180   20.5670 C   0  0  0  0  0  0
  -24.1810  -13.0430   20.9187 C   0  0  0  0  0  0
  -24.6394  -11.6908   20.8723 C   0  0  0  0  0  0
  -23.9064  -10.4292   21.0382 C   0  0  0  0  0  0
  -24.3623   -9.4209   21.9160 C   0  0  0  0  0  0
  -23.6297   -8.2245   22.0742 C   0  0  0  0  0  0
  -22.4281   -8.0271   21.3535 C   0  0  0  0  0  0
  -21.9908   -9.0242   20.4636 C   0  0  0  0  0  0
  -22.7234  -10.2122   20.3035 C   0  0  0  0  0  0
  -21.6857   -6.0723   22.5277 C   0  0  0  0  0  0
  -21.4020   -6.5635   23.8203 C   0  0  0  0  0  0
  -21.3660   -5.6790   24.9170 C   0  0  0  0  0  0
  -21.6047   -4.3051   24.7222 C   0  0  0  0  0  0
  -21.8819   -3.8138   23.4345 C   0  0  0  0  0  0
  -21.9196   -4.6954   22.3401 C   0  0  0  0  0  0
  -22.7834  -13.5215   21.1852 C   0  0  0  0  0  0
  -22.1662   -4.2136   21.0979 F   0  0  0  0  0  0
  -21.5629   -3.4536   25.7736 F   0  0  0  0  0  0
  -29.9820  -13.5532   20.4188 N   0  0  0  0  0  0
  -26.2937  -12.9377   20.3254 N   0  0  0  0  0  0
  -25.9325  -11.6523   20.5721 N   0  0  0  0  0  0
  -22.0485  -12.8206   22.0411 N   0  0  0  0  0  0
  -25.4228  -15.1899   20.4097 N   0  0  0  0  0  0
  -31.7280  -14.9509   20.0961 O   0  0  0  0  0  0
  -21.6649   -6.8866   21.4235 O   0  0  0  0  0  0
  -22.3513  -14.5520   20.6695 O   0  0  0  0  0  0
  -24.6358  -31.8507   23.1926 C   0  0  0  0  0  0
  -25.9166  -32.4721   23.8288 C   0  0  1  0  0  0
  -27.2204  -27.2140   20.1232 C   0  0  0  0  0  0
  -25.5935  -33.8524   24.2206 N   0  0  0  0  0  0
  -23.4338  -30.4720   21.5381 C   0  0  2  0  0  0
  -24.8784  -28.9085   20.1063 C   0  0  0  0  0  0
  -22.7526  -29.4586   22.4903 C   0  0  0  0  0  0
  -18.0292  -28.1388   22.8489 C   0  0  0  0  0  0
  -24.1486  -36.7273   23.2640 C   0  0  0  0  0  0
  -25.9829  -30.7468   21.3776 C   0  0  0  0  0  0
  -26.0516  -29.3660   20.7168 C   0  0  0  0  0  0
  -27.2203  -28.5319   20.7121 C   0  0  0  0  0  0
  -26.0170  -26.8319   19.4877 C   0  0  0  0  0  0
  -24.8691  -27.6518   19.4819 C   0  0  0  0  0  0
  -23.6516  -29.8014   20.1558 C   0  0  0  0  0  0
  -25.4114  -36.3045   24.0320 C   0  0  1  0  0  0
  -20.5904  -28.3707   23.1264 C   0  0  2  0  0  0
  -20.6782  -26.9423   22.5409 C   0  0  0  0  0  0
  -19.5752  -26.6385   21.5218 C   0  0  0  0  0  0
  -18.1936  -26.7931   22.1631 C   0  0  0  0  0  0
  -19.1550  -28.8864   23.2872 C   0  0  0  0  0  0
  -18.9465  -30.1466   23.8893 C   0  0  0  0  0  0
  -17.6465  -30.6592   24.0564 C   0  0  0  0  0  0
  -25.9066  -34.9420   23.5069 C   0  0  0  0  0  0
  -16.5356  -29.9091   23.6327 C   0  0  0  0  0  0
  -16.7281  -28.6504   23.0356 C   0  0  0  0  0  0
  -26.4507  -31.6568   25.0707 C   0  0  0  0  0  0
  -25.3711  -31.3749   26.1420 C   0  0  0  0  0  0
  -27.0363  -30.2970   24.6245 C   0  0  0  0  0  0
  -27.6041  -32.4334   25.7498 C   0  0  0  0  0  0
  -27.5578  -37.1784   24.8460 C   0  0  0  0  0  0
  -21.4228  -29.3039   22.3644 N   0  0  0  0  0  0
  -26.4278  -37.3757   23.9418 N   0  0  0  0  0  0
  -24.7038  -31.0438   22.0912 N   0  0  0  0  0  0
  -23.4210  -28.8142   23.3029 O   0  0  0  0  0  0
  -28.3259  -26.3201   20.2208 O   0  0  0  0  0  0
  -26.5662  -34.8913   22.4654 O   0  0  0  0  0  0
  -23.5503  -32.1346   23.7207 O   0  0  0  0  0  0
  -30.6777  -18.1375   19.7669 C   0  0  0  0  0  0
  -29.7971  -17.3849   20.5080 C   0  0  0  0  0  0
  -28.8938  -18.4084   21.0094 C   0  0  0  0  0  0
  -29.2396  -19.7078   20.5977 C   0  0  0  0  0  0
  -28.7015  -21.1328   21.0128 C   0  0  0  0  0  0
  -28.4296  -23.6413   20.6562 C   0  0  0  0  0  0
  -29.7103  -24.9161   18.8217 C   0  0  0  0  0  0
  -28.4119  -24.9070   19.6418 C   0  0  2  0  0  0
  -29.7217  -15.8999   20.7306 N   0  0  0  0  0  0
  -28.7951  -22.3276   20.2817 N   0  0  0  0  0  0
  -28.1211  -21.1403   22.1043 O   0  0  0  0  0  0
  -28.0866  -23.9101   21.8127 O   0  0  0  0  0  0
  -30.3573  -19.5079   19.8054 O   0  0  0  0  0  0
  -27.8477  -18.1153   21.8200 F   0  0  0  0  0  0
  -31.4818  -12.6389   19.1835 H   0  0  0  0  0  0
  -30.4029  -11.5169   19.9642 H   0  0  0  0  0  0
  -29.8213  -11.7676   17.5262 H   0  0  0  0  0  0
  -29.6319  -13.4893   17.7331 H   0  0  0  0  0  0
  -27.9209  -11.2822   18.9194 H   0  0  0  0  0  0
  -27.3889  -12.5117   17.8021 H   0  0  0  0  0  0
  -27.6330  -14.2512   19.4697 H   0  0  0  0  0  0
  -28.7331  -12.1692   21.4223 H   0  0  0  0  0  0
  -28.4016  -13.8376   21.8073 H   0  0  0  0  0  0
  -25.2759   -9.5696   22.4743 H   0  0  0  0  0  0
  -24.0008   -7.4637   22.7469 H   0  0  0  0  0  0
  -21.0834   -8.8748   19.8955 H   0  0  0  0  0  0
  -22.3668  -10.9654   19.6156 H   0  0  0  0  0  0
  -21.2014   -7.6143   23.9703 H   0  0  0  0  0  0
  -21.1485   -6.0524   25.9073 H   0  0  0  0  0  0
  -22.0600   -2.7602   23.2851 H   0  0  0  0  0  0
  -22.4118  -11.9884   22.4826 H   0  0  0  0  0  0
  -21.1091  -13.1202   22.2595 H   0  0  0  0  0  0
  -24.6583  -15.8461   20.5237 H   0  0  0  0  0  0
  -26.2707  -15.6297   20.0771 H   0  0  0  0  0  0
  -26.7238  -32.5341   23.1030 H   0  0  0  0  0  0
  -25.0031  -33.9646   25.0318 H   0  0  0  0  0  0
  -22.7313  -31.2951   21.3900 H   0  0  0  0  0  0
  -23.3745  -35.9606   23.3277 H   0  0  0  0  0  0
  -24.3575  -36.8926   22.2058 H   0  0  0  0  0  0
  -23.7241  -37.6466   23.6689 H   0  0  0  0  0  0
  -26.1303  -31.5033   20.6060 H   0  0  0  0  0  0
  -26.8584  -30.7935   22.0138 H   0  0  0  0  0  0
  -28.1184  -28.8801   21.2031 H   0  0  0  0  0  0
  -25.9085  -25.8698   19.0151 H   0  0  0  0  0  0
  -23.9677  -27.2916   19.0051 H   0  0  0  0  0  0
  -23.7775  -30.5757   19.3986 H   0  0  0  0  0  0
  -22.7664  -29.2383   19.8543 H   0  0  0  0  0  0
  -25.1297  -36.1869   25.0813 H   0  0  0  0  0  0
  -21.0000  -28.3282   24.1384 H   0  0  0  0  0  0
  -20.5677  -26.2325   23.3623 H   0  0  0  0  0  0
  -21.6650  -26.7438   22.1204 H   0  0  0  0  0  0
  -19.6916  -25.6295   21.1250 H   0  0  0  0  0  0
  -19.6681  -27.3195   20.6751 H   0  0  0  0  0  0
  -17.4210  -26.6678   21.4032 H   0  0  0  0  0  0
  -18.0329  -26.0075   22.9027 H   0  0  0  0  0  0
  -19.7944  -30.7282   24.2261 H   0  0  0  0  0  0
  -17.5018  -31.6272   24.5168 H   0  0  0  0  0  0
  -15.5359  -30.2991   23.7648 H   0  0  0  0  0  0
  -15.8681  -28.0821   22.7073 H   0  0  0  0  0  0
  -24.5885  -30.7101   25.7747 H   0  0  0  0  0  0
  -24.8909  -32.2929   26.4814 H   0  0  0  0  0  0
  -25.8004  -30.8941   27.0218 H   0  0  0  0  0  0
  -26.2959  -29.6707   24.1250 H   0  0  0  0  0  0
  -27.3989  -29.7252   25.4798 H   0  0  0  0  0  0
  -27.8862  -30.4216   23.9532 H   0  0  0  0  0  0
  -27.2622  -33.3639   26.2049 H   0  0  0  0  0  0
  -28.3871  -32.6893   25.0344 H   0  0  0  0  0  0
  -28.0695  -31.8483   26.5443 H   0  0  0  0  0  0
  -28.2569  -38.0105   24.7537 H   0  0  0  0  0  0
  -28.1098  -36.2639   24.6239 H   0  0  0  0  0  0
  -27.2309  -37.1381   25.8864 H   0  0  0  0  0  0
  -20.9428  -29.8745   21.6825 H   0  0  0  0  0  0
  -26.0141  -38.2822   24.1431 H   0  0  0  0  0  0
  -31.5446  -17.8920   19.1695 H   0  0  0  0  0  0
  -29.6936  -25.7148   18.0802 H   0  0  0  0  0  0
  -29.8628  -23.9801   18.2841 H   0  0  0  0  0  0
  -30.5750  -25.0793   19.4654 H   0  0  0  0  0  0
  -27.6043  -24.7155   18.9403 H   0  0  0  0  0  0
  -28.8357  -15.6021   21.1084 H   0  0  0  0  0  0
  -29.1601  -22.2195   19.3491 H   0  0  0  0  0  0
  1 25  1  0  0  0
  1 30  2  0  0  0
  1 79  1  0  0  0
  2  3  1  0  0  0
  2 25  1  0  0  0
  2 85  1  0  0  0
  2 86  1  0  0  0
  3  4  1  0  0  0
  3 87  1  0  0  0
  3 88  1  0  0  0
  4  5  1  0  0  0
  4 89  1  0  0  0
  4 90  1  0  0  0
  5  6  1  0  0  0
  5 26  1  0  0  0
  5 91  1  0  0  0
  6 25  1  0  0  0
  6 92  1  0  0  0
  6 93  1  0  0  0
  7  8  2  0  0  0
  7 26  1  0  0  0
  7 29  1  0  0  0
  8  9  1  0  0  0
  8 22  1  0  0  0
  9 10  1  0  0  0
  9 27  2  0  0  0
 10 11  2  0  0  0
 10 15  1  0  0  0
 11 12  1  0  0  0
 11 94  1  0  0  0
 12 13  2  0  0  0
 12 95  1  0  0  0
 13 14  1  0  0  0
 13 31  1  0  0  0
 14 15  2  0  0  0
 14 96  1  0  0  0
 15 97  1  0  0  0
 16 17  2  0  0  0
 16 21  1  0  0  0
 16 31  1  0  0  0
 17 18  1  0  0  0
 17 98  1  0  0  0
 18 19  2  0  0  0
 18 99  1  0  0  0
 19 20  1  0  0  0
 19 24  1  0  0  0
 20 21  2  0  0  0
 20100  1  0  0  0
 21 23  1  0  0  0
 22 28  1  0  0  0
 22 32  2  0  0  0
 26 27  1  0  0  0
 28101  1  0  0  0
 28102  1  0  0  0
 29103  1  0  0  0
 29104  1  0  0  0
 33 34  1  0  0  0
 33 66  1  0  0  0
 33 70  2  0  0  0
 34 36  1  0  0  0
 34 59  1  0  0  0
 34105  1  0  0  0
 35 44  2  0  0  0
 35 45  1  0  0  0
 35 68  1  0  0  0
 36 56  1  0  0  0
 36106  1  0  0  0
 37 39  1  0  0  0
 37 47  1  0  0  0
 37 66  1  0  0  0
 37107  1  0  0  0
 38 43  2  0  0  0
 38 46  1  0  0  0
 38 47  1  0  0  0
 39 64  1  0  0  0
 39 67  2  0  0  0
 40 52  1  0  0  0
 40 53  2  0  0  0
 40 58  1  0  0  0
 41108  1  0  0  0
 41109  1  0  0  0
 41110  1  0  0  0
 41 48  1  0  0  0
 42 43  1  0  0  0
 42 66  1  0  0  0
 42111  1  0  0  0
 42112  1  0  0  0
 43 44  1  0  0  0
 44113  1  0  0  0
 45 46  2  0  0  0
 45114  1  0  0  0
 46115  1  0  0  0
 47116  1  0  0  0
 47117  1  0  0  0
 48 56  1  0  0  0
 48 65  1  0  0  0
 48118  1  0  0  0
 49 50  1  0  0  0
 49 53  1  0  0  0
 49 64  1  0  0  0
 49119  1  0  0  0
 50 51  1  0  0  0
 50120  1  0  0  0
 50121  1  0  0  0
 51 52  1  0  0  0
 51122  1  0  0  0
 51123  1  0  0  0
 52124  1  0  0  0
 52125  1  0  0  0
 53 54  1  0  0  0
 54 55  2  0  0  0
 54126  1  0  0  0
 55 57  1  0  0  0
 55127  1  0  0  0
 56 69  2  0  0  0
 57 58  2  0  0  0
 57128  1  0  0  0
 58129  1  0  0  0
 59 60  1  0  0  0
 59 61  1  0  0  0
 59 62  1  0  0  0
 60130  1  0  0  0
 60131  1  0  0  0
 60132  1  0  0  0
 61133  1  0  0  0
 61134  1  0  0  0
 61135  1  0  0  0
 62136  1  0  0  0
 62137  1  0  0  0
 62138  1  0  0  0
 63 65  1  0  0  0
 63139  1  0  0  0
 63140  1  0  0  0
 63141  1  0  0  0
 64142  1  0  0  0
 65143  1  0  0  0
 68 78  1  0  0  0
 71 72  2  0  0  0
 71 83  1  0  0  0
 71144  1  0  0  0
 72 73  1  0  0  0
 72 79  1  0  0  0
 73 74  2  0  0  0
 73 84  1  0  0  0
 74 75  1  0  0  0
 74 83  1  0  0  0
 75 80  1  0  0  0
 75 81  2  0  0  0
 76 78  1  0  0  0
 76 80  1  0  0  0
 76 82  2  0  0  0
 77145  1  0  0  0
 77146  1  0  0  0
 77147  1  0  0  0
 77 78  1  0  0  0
 78148  1  0  0  0
 79149  1  0  0  0
 80150  1  0  0  0
M  ISO  4   1 100  68 101  78 101  79 100
M  END
> <chiral flag>
0

> <version>
0

> <s_m_source_file>
/data/baiqing/PycharmProjects/Reinvent-master-3.2/result/LINK_invent/BTK/process_docking_weight1_custom_product_contain_oxygen_bond_distance_aromatic_linkinvent_7_9_3/rearranged_h_0169.sdf

> <i_m_source_file_index>
5

> <r_mmod_Potential_Energy-OPLS-2005>
99.7164993286133

> <r_mmod_Stretch_Energy-OPLS-2005>
153.652679443359

> <r_mmod_Bend_Energy-OPLS-2005>
220.882537841797

> <r_mmod_Torsional_Energy-OPLS-2005>
235.666976928711

> <r_mmod_Improper_Torsional_Energy-OPLS-2005>
4.18562936782837

> <r_mmod_Van_der_Waal_Energy-OPLS-2005>
118.751815795898

> <r_mmod_Electrostatic_Energy-OPLS-2005>
-469.139404296875

> <r_mmod_Solvation_Energy-OPLS-2005>
-279.769348144531

> <b_mmod_Minimization_Converged-OPLS-2005>
0

> <r_mmod_RMS_Derivative-OPLS-2005>
1.59931945800781

$$$$
5
                    3D
 Structure written by MMmdl.
155163  0  0  1  0            999 V2000
  -30.6994  -14.4496   20.5736 C   0  0  0  0  0  0
  -30.4252  -12.2827   19.4391 C   0  0  0  0  0  0
  -29.5110  -12.5071   18.2171 C   0  0  0  0  0  0
  -28.0260  -12.3754   18.6158 C   0  0  0  0  0  0
  -27.6698  -13.2046   19.8813 C   0  0  2  0  0  0
  -28.7051  -12.9643   21.0066 C   0  0  0  0  0  0
  -25.2594  -13.8154   20.5622 C   0  0  0  0  0  0
  -24.1843  -13.0435   20.9137 C   0  0  0  0  0  0
  -24.6379  -11.6908   20.8713 C   0  0  0  0  0  0
  -23.9030  -10.4301   21.0377 C   0  0  0  0  0  0
  -24.3574   -9.4246   21.9190 C   0  0  0  0  0  0
  -23.6266   -8.2264   22.0779 C   0  0  0  0  0  0
  -22.4247   -8.0284   21.3549 C   0  0  0  0  0  0
  -21.9863   -9.0258   20.4659 C   0  0  0  0  0  0
  -22.7180  -10.2149   20.3049 C   0  0  0  0  0  0
  -21.6853   -6.0722   22.5290 C   0  0  0  0  0  0
  -21.4013   -6.5627   23.8235 C   0  0  0  0  0  0
  -21.3656   -5.6777   24.9190 C   0  0  0  0  0  0
  -21.6052   -4.3044   24.7221 C   0  0  0  0  0  0
  -21.8827   -3.8127   23.4337 C   0  0  0  0  0  0
  -21.9194   -4.6952   22.3407 C   0  0  0  0  0  0
  -22.7863  -13.5283   21.1771 C   0  0  0  0  0  0
  -22.1664   -4.2141   21.0971 F   0  0  0  0  0  0
  -21.5618   -3.4525   25.7736 F   0  0  0  0  0  0
  -30.0430  -13.2624   20.4685 N   0  0  0  0  0  0
  -26.3060  -12.9328   20.3356 N   0  0  0  0  0  0
  -25.9333  -11.6488   20.5750 N   0  0  0  0  0  0
  -22.0424  -12.8358   22.0302 N   0  0  0  0  0  0
  -25.4257  -15.1872   20.4004 N   0  0  0  0  0  0
  -31.8157  -14.6455   20.0807 O   0  0  0  0  0  0
  -21.6619   -6.8870   21.4254 O   0  0  0  0  0  0
  -22.3608  -14.5614   20.6621 O   0  0  0  0  0  0
  -24.6098  -31.8695   23.2072 C   0  0  0  0  0  0
  -25.8986  -32.4831   23.8389 C   0  0  1  0  0  0
  -27.2573  -27.4545   20.1146 C   0  0  0  0  0  0
  -25.5839  -33.8627   24.2314 N   0  0  0  0  0  0
  -23.4009  -30.4873   21.5442 C   0  0  2  0  0  0
  -24.8590  -28.9553   20.1127 C   0  0  0  0  0  0
  -22.7404  -29.4652   22.4965 C   0  0  0  0  0  0
  -18.0264  -28.1378   22.8499 C   0  0  0  0  0  0
  -24.1475  -36.7333   23.2644 C   0  0  0  0  0  0
  -25.9234  -30.8441   21.3593 C   0  0  0  0  0  0
  -26.0096  -29.4766   20.7169 C   0  0  0  0  0  0
  -27.2106  -28.7323   20.7238 C   0  0  0  0  0  0
  -26.0967  -26.9542   19.4920 C   0  0  0  0  0  0
  -24.8968  -27.6910   19.4954 C   0  0  0  0  0  0
  -23.6135  -29.8107   20.1614 C   0  0  0  0  0  0
  -25.4097  -36.3121   24.0345 C   0  0  1  0  0  0
  -20.5859  -28.3660   23.1322 C   0  0  2  0  0  0
  -20.6746  -26.9394   22.5432 C   0  0  0  0  0  0
  -19.5728  -26.6382   21.5226 C   0  0  0  0  0  0
  -18.1907  -26.7926   22.1628 C   0  0  0  0  0  0
  -19.1519  -28.8833   23.2904 C   0  0  0  0  0  0
  -18.9453  -30.1444   23.8906 C   0  0  0  0  0  0
  -17.6455  -30.6591   24.0560 C   0  0  0  0  0  0
  -25.9022  -34.9487   23.5134 C   0  0  0  0  0  0
  -16.5342  -29.9093   23.6334 C   0  0  0  0  0  0
  -16.7252  -28.6508   23.0358 C   0  0  0  0  0  0
  -26.4424  -31.6607   25.0711 C   0  0  0  0  0  0
  -25.3679  -31.3731   26.1452 C   0  0  0  0  0  0
  -27.0256  -30.3045   24.6085 C   0  0  0  0  0  0
  -27.6009  -32.4318   25.7473 C   0  0  0  0  0  0
  -27.5582  -37.1813   24.8455 C   0  0  0  0  0  0
  -21.4134  -29.3016   22.3712 N   0  0  0  0  0  0
  -26.4281  -37.3805   23.9410 N   0  0  0  0  0  0
  -24.6616  -31.0817   22.0960 N   0  0  0  0  0  0
  -23.4180  -28.8219   23.3023 O   0  0  0  0  0  0
  -28.3837  -26.6581   20.0968 O   0  0  0  0  0  0
  -26.5618  -34.8938   22.4714 O   0  0  0  0  0  0
  -23.5292  -32.1422   23.7481 O   0  0  0  0  0  0
  -29.5916  -16.9370   19.2297 C   0  0  0  0  0  0
  -29.8898  -16.7473   20.5600 C   0  0  0  0  0  0
  -29.8106  -19.0243   20.5154 C   0  0  0  0  0  0
  -30.1140  -22.7083   21.3740 C   0  0  0  0  0  0
  -29.6858  -21.5153   20.4706 C   0  0  0  0  0  0
  -30.8131  -25.5104   22.7859 C   0  0  0  0  0  0
  -29.3043  -24.0270   21.2602 C   0  0  0  0  0  0
  -29.1331  -26.6193   21.3117 C   0  0  0  0  0  0
  -30.0647  -25.3817   21.4413 C   0  0  1  0  0  0
  -29.9883  -17.9428   21.2948 N   0  0  0  0  0  0
  -30.0036  -15.4527   21.1371 N   0  0  0  0  0  0
  -29.9584  -20.3294   21.0517 N   0  0  0  0  0  0
  -31.0322  -22.5715   22.1923 O   0  0  0  0  0  0
  -29.1572  -21.6703   19.3650 O   0  0  0  0  0  0
  -30.9905  -25.4833   20.4847 F   0  0  0  0  0  0
  -29.4416  -18.6264   18.8350 S   0  0  0  0  0  0
  -31.4779  -12.3631   19.1581 H   0  0  0  0  0  0
  -30.3018  -11.2698   19.8270 H   0  0  0  0  0  0
  -29.7580  -11.7941   17.4311 H   0  0  0  0  0  0
  -29.6960  -13.4970   17.8010 H   0  0  0  0  0  0
  -27.8275  -11.3184   18.7992 H   0  0  0  0  0  0
  -27.3800  -12.6607   17.7839 H   0  0  0  0  0  0
  -27.7204  -14.2550   19.5954 H   0  0  0  0  0  0
  -28.6707  -11.9228   21.3334 H   0  0  0  0  0  0
  -28.4696  -13.5532   21.8924 H   0  0  0  0  0  0
  -25.2704   -9.5760   22.4780 H   0  0  0  0  0  0
  -23.9974   -7.4660   22.7522 H   0  0  0  0  0  0
  -21.0781   -8.8756   19.8989 H   0  0  0  0  0  0
  -22.3604  -10.9668   19.6153 H   0  0  0  0  0  0
  -21.2014   -7.6145   23.9735 H   0  0  0  0  0  0
  -21.1466   -6.0495   25.9099 H   0  0  0  0  0  0
  -22.0602   -2.7585   23.2831 H   0  0  0  0  0  0
  -22.3891  -12.0003   22.4772 H   0  0  0  0  0  0
  -21.1072  -13.1543   22.2417 H   0  0  0  0  0  0
  -24.6375  -15.8232   20.4677 H   0  0  0  0  0  0
  -26.2736  -15.6367   20.0784 H   0  0  0  0  0  0
  -26.7068  -32.5583   23.1185 H   0  0  0  0  0  0
  -24.9894  -33.9784   25.0385 H   0  0  0  0  0  0
  -22.6885  -31.3017   21.3979 H   0  0  0  0  0  0
  -23.3738  -35.9668   23.3312 H   0  0  0  0  0  0
  -24.3570  -36.8945   22.2061 H   0  0  0  0  0  0
  -23.7222  -37.6539   23.6652 H   0  0  0  0  0  0
  -26.0257  -31.6081   20.5875 H   0  0  0  0  0  0
  -26.8128  -30.9078   21.9729 H   0  0  0  0  0  0
  -28.0909  -29.1479   21.1935 H   0  0  0  0  0  0
  -26.1232  -25.9806   19.0239 H   0  0  0  0  0  0
  -24.0144  -27.2833   19.0205 H   0  0  0  0  0  0
  -23.7103  -30.5775   19.3926 H   0  0  0  0  0  0
  -22.7467  -29.2132   19.8751 H   0  0  0  0  0  0
  -25.1272  -36.1992   25.0837 H   0  0  0  0  0  0
  -20.9955  -28.3222   24.1439 H   0  0  0  0  0  0
  -20.5644  -26.2268   23.3620 H   0  0  0  0  0  0
  -21.6613  -26.7426   22.1219 H   0  0  0  0  0  0
  -19.6886  -25.6292   21.1256 H   0  0  0  0  0  0
  -19.6685  -27.3202   20.6767 H   0  0  0  0  0  0
  -17.4189  -26.6685   21.4019 H   0  0  0  0  0  0
  -18.0301  -26.0057   22.9011 H   0  0  0  0  0  0
  -19.7937  -30.7244   24.2275 H   0  0  0  0  0  0
  -17.5028  -31.6275   24.5156 H   0  0  0  0  0  0
  -15.5348  -30.3002   23.7657 H   0  0  0  0  0  0
  -15.8650  -28.0830   22.7069 H   0  0  0  0  0  0
  -24.5811  -30.7142   25.7756 H   0  0  0  0  0  0
  -24.8921  -32.2911   26.4923 H   0  0  0  0  0  0
  -25.7999  -30.8845   27.0194 H   0  0  0  0  0  0
  -26.2810  -29.6832   24.1093 H   0  0  0  0  0  0
  -27.3963  -29.7253   25.4554 H   0  0  0  0  0  0
  -27.8671  -30.4353   23.9277 H   0  0  0  0  0  0
  -27.2613  -33.3590   26.2104 H   0  0  0  0  0  0
  -28.3792  -32.6923   25.0286 H   0  0  0  0  0  0
  -28.0709  -31.8408   26.5345 H   0  0  0  0  0  0
  -28.2592  -38.0117   24.7515 H   0  0  0  0  0  0
  -28.1077  -36.2648   24.6248 H   0  0  0  0  0  0
  -27.2305  -37.1437   25.8859 H   0  0  0  0  0  0
  -20.9298  -29.8702   21.6902 H   0  0  0  0  0  0
  -26.0185  -38.2888   24.1415 H   0  0  0  0  0  0
  -29.4462  -16.1969   18.4532 H   0  0  0  0  0  0
  -30.1627  -25.2784   23.6304 H   0  0  0  0  0  0
  -31.1879  -26.5242   22.9328 H   0  0  0  0  0  0
  -31.6840  -24.8607   22.8463 H   0  0  0  0  0  0
  -28.4971  -23.9697   21.9905 H   0  0  0  0  0  0
  -28.8203  -24.0366   20.2827 H   0  0  0  0  0  0
  -29.7307  -27.5304   21.3786 H   0  0  0  0  0  0
  -28.4507  -26.6352   22.1662 H   0  0  0  0  0  0
  -29.2350  -15.1708   21.7279 H   0  0  0  0  0  0
  -30.3746  -20.4030   21.9684 H   0  0  0  0  0  0
  1 25  1  0  0  0
  1 30  2  0  0  0
  1 81  1  0  0  0
  2  3  1  0  0  0
  2 25  1  0  0  0
  2 87  1  0  0  0
  2 88  1  0  0  0
  3  4  1  0  0  0
  3 89  1  0  0  0
  3 90  1  0  0  0
  4  5  1  0  0  0
  4 91  1  0  0  0
  4 92  1  0  0  0
  5  6  1  0  0  0
  5 26  1  0  0  0
  5 93  1  0  0  0
  6 25  1  0  0  0
  6 94  1  0  0  0
  6 95  1  0  0  0
  7  8  2  0  0  0
  7 26  1  0  0  0
  7 29  1  0  0  0
  8  9  1  0  0  0
  8 22  1  0  0  0
  9 10  1  0  0  0
  9 27  2  0  0  0
 10 11  2  0  0  0
 10 15  1  0  0  0
 11 12  1  0  0  0
 11 96  1  0  0  0
 12 13  2  0  0  0
 12 97  1  0  0  0
 13 14  1  0  0  0
 13 31  1  0  0  0
 14 15  2  0  0  0
 14 98  1  0  0  0
 15 99  1  0  0  0
 16 17  2  0  0  0
 16 21  1  0  0  0
 16 31  1  0  0  0
 17 18  1  0  0  0
 17100  1  0  0  0
 18 19  2  0  0  0
 18101  1  0  0  0
 19 20  1  0  0  0
 19 24  1  0  0  0
 20 21  2  0  0  0
 20102  1  0  0  0
 21 23  1  0  0  0
 22 28  1  0  0  0
 22 32  2  0  0  0
 26 27  1  0  0  0
 28103  1  0  0  0
 28104  1  0  0  0
 29105  1  0  0  0
 29106  1  0  0  0
 33 34  1  0  0  0
 33 66  1  0  0  0
 33 70  2  0  0  0
 34 36  1  0  0  0
 34 59  1  0  0  0
 34107  1  0  0  0
 35 44  2  0  0  0
 35 45  1  0  0  0
 35 68  1  0  0  0
 36 56  1  0  0  0
 36108  1  0  0  0
 37 39  1  0  0  0
 37 47  1  0  0  0
 37 66  1  0  0  0
 37109  1  0  0  0
 38 43  2  0  0  0
 38 46  1  0  0  0
 38 47  1  0  0  0
 39 64  1  0  0  0
 39 67  2  0  0  0
 40 52  1  0  0  0
 40 53  2  0  0  0
 40 58  1  0  0  0
 41110  1  0  0  0
 41111  1  0  0  0
 41112  1  0  0  0
 41 48  1  0  0  0
 42 43  1  0  0  0
 42 66  1  0  0  0
 42113  1  0  0  0
 42114  1  0  0  0
 43 44  1  0  0  0
 44115  1  0  0  0
 45 46  2  0  0  0
 45116  1  0  0  0
 46117  1  0  0  0
 47118  1  0  0  0
 47119  1  0  0  0
 48 56  1  0  0  0
 48 65  1  0  0  0
 48120  1  0  0  0
 49 50  1  0  0  0
 49 53  1  0  0  0
 49 64  1  0  0  0
 49121  1  0  0  0
 50 51  1  0  0  0
 50122  1  0  0  0
 50123  1  0  0  0
 51 52  1  0  0  0
 51124  1  0  0  0
 51125  1  0  0  0
 52126  1  0  0  0
 52127  1  0  0  0
 53 54  1  0  0  0
 54 55  2  0  0  0
 54128  1  0  0  0
 55 57  1  0  0  0
 55129  1  0  0  0
 56 69  2  0  0  0
 57 58  2  0  0  0
 57130  1  0  0  0
 58131  1  0  0  0
 59 60  1  0  0  0
 59 61  1  0  0  0
 59 62  1  0  0  0
 60132  1  0  0  0
 60133  1  0  0  0
 60134  1  0  0  0
 61135  1  0  0  0
 61136  1  0  0  0
 61137  1  0  0  0
 62138  1  0  0  0
 62139  1  0  0  0
 62140  1  0  0  0
 63 65  1  0  0  0
 63141  1  0  0  0
 63142  1  0  0  0
 63143  1  0  0  0
 64144  1  0  0  0
 65145  1  0  0  0
 68 78  1  0  0  0
 71 72  2  0  0  0
 71 86  1  0  0  0
 71146  1  0  0  0
 72 80  1  0  0  0
 72 81  1  0  0  0
 73 80  2  0  0  0
 73 82  1  0  0  0
 73 86  1  0  0  0
 74 75  1  0  0  0
 74 77  1  0  0  0
 74 83  2  0  0  0
 75 82  1  0  0  0
 75 84  2  0  0  0
 76147  1  0  0  0
 76148  1  0  0  0
 76149  1  0  0  0
 76 79  1  0  0  0
 77 79  1  0  0  0
 77150  1  0  0  0
 77151  1  0  0  0
 78 79  1  0  0  0
 78152  1  0  0  0
 78153  1  0  0  0
 79 85  1  0  0  0
 81154  1  0  0  0
 82155  1  0  0  0
M  ISO  4   1 100  68 101  78 101  81 100
M  END
> <chiral flag>
0

> <version>
0

> <s_m_source_file>
/data/baiqing/PycharmProjects/Reinvent-master-3.2/result/LINK_invent/BTK/process_docking_weight1_custom_product_contain_oxygen_bond_distance_aromatic_linkinvent_7_9_3/rearranged_h_0169.sdf

> <i_m_source_file_index>
6

> <r_mmod_Potential_Energy-OPLS-2005>
-164.469299316406

> <r_mmod_Stretch_Energy-OPLS-2005>
37.6066284179688

> <r_mmod_Bend_Energy-OPLS-2005>
105.423736572266

> <r_mmod_Torsional_Energy-OPLS-2005>
235.984954833984

> <r_mmod_Improper_Torsional_Energy-OPLS-2005>
5.6573691368103

> <r_mmod_Van_der_Waal_Energy-OPLS-2005>
133.431213378906

> <r_mmod_Electrostatic_Energy-OPLS-2005>
-455.682769775391

> <r_mmod_Solvation_Energy-OPLS-2005>
-237.492813110352

> <b_mmod_Minimization_Converged-OPLS-2005>
0

> <r_mmod_RMS_Derivative-OPLS-2005>
3.39415431022644

$$$$
6
                    3D
 Structure written by MMmdl.
158166  0  0  1  0            999 V2000
  -30.6940  -14.5180   20.5707 C   0  0  0  0  0  0
  -30.4273  -12.3348   19.4314 C   0  0  0  0  0  0
  -29.4955  -12.4951   18.2118 C   0  0  0  0  0  0
  -28.0190  -12.3492   18.6264 C   0  0  0  0  0  0
  -27.6560  -13.2094   19.8652 C   0  0  2  0  0  0
  -28.6989  -13.0230   20.9911 C   0  0  0  0  0  0
  -25.2490  -13.8094   20.5532 C   0  0  0  0  0  0
  -24.1809  -13.0383   20.9185 C   0  0  0  0  0  0
  -24.6407  -11.6872   20.8765 C   0  0  0  0  0  0
  -23.9082  -10.4264   21.0422 C   0  0  0  0  0  0
  -24.3628   -9.4173   21.9200 C   0  0  0  0  0  0
  -23.6291   -8.2216   22.0758 C   0  0  0  0  0  0
  -22.4273   -8.0270   21.3547 C   0  0  0  0  0  0
  -21.9924   -9.0250   20.4648 C   0  0  0  0  0  0
  -22.7261  -10.2123   20.3061 C   0  0  0  0  0  0
  -21.6842   -6.0733   22.5287 C   0  0  0  0  0  0
  -21.4001   -6.5637   23.8219 C   0  0  0  0  0  0
  -21.3656   -5.6792   24.9179 C   0  0  0  0  0  0
  -21.6041   -4.3053   24.7230 C   0  0  0  0  0  0
  -21.8823   -3.8145   23.4353 C   0  0  0  0  0  0
  -21.9189   -4.6962   22.3408 C   0  0  0  0  0  0
  -22.7840  -13.5190   21.1860 C   0  0  0  0  0  0
  -22.1663   -4.2149   21.0979 F   0  0  0  0  0  0
  -21.5632   -3.4538   25.7743 F   0  0  0  0  0  0
  -30.0273  -13.3338   20.4376 N   0  0  0  0  0  0
  -26.2987  -12.9325   20.3302 N   0  0  0  0  0  0
  -25.9342  -11.6488   20.5814 N   0  0  0  0  0  0
  -22.0497  -12.8181   22.0431 N   0  0  0  0  0  0
  -25.3971  -15.1764   20.3648 N   0  0  0  0  0  0
  -31.8289  -14.6836   20.1160 O   0  0  0  0  0  0
  -21.6622   -6.8874   21.4244 O   0  0  0  0  0  0
  -22.3525  -14.5496   20.6712 O   0  0  0  0  0  0
  -24.6186  -31.8664   23.2089 C   0  0  0  0  0  0
  -25.9085  -32.4813   23.8368 C   0  0  1  0  0  0
  -27.2279  -27.3970   20.1126 C   0  0  0  0  0  0
  -25.5933  -33.8611   24.2303 N   0  0  0  0  0  0
  -23.4060  -30.4874   21.5512 C   0  0  2  0  0  0
  -24.8524  -28.9436   20.1205 C   0  0  0  0  0  0
  -22.7435  -29.4627   22.5012 C   0  0  0  0  0  0
  -18.0266  -28.1339   22.8486 C   0  0  0  0  0  0
  -24.1500  -36.7293   23.2635 C   0  0  0  0  0  0
  -25.9377  -30.8161   21.3707 C   0  0  0  0  0  0
  -26.0134  -29.4425   20.7284 C   0  0  0  0  0  0
  -27.2053  -28.6762   20.7262 C   0  0  0  0  0  0
  -26.0553  -26.9258   19.4879 C   0  0  0  0  0  0
  -24.8702  -27.6847   19.4970 C   0  0  0  0  0  0
  -23.6169  -29.8170   20.1660 C   0  0  0  0  0  0
  -25.4114  -36.3097   24.0329 C   0  0  1  0  0  0
  -20.5861  -28.3648   23.1309 C   0  0  2  0  0  0
  -20.6779  -26.9382   22.5402 C   0  0  0  0  0  0
  -19.5762  -26.6368   21.5191 C   0  0  0  0  0  0
  -18.1923  -26.7892   22.1600 C   0  0  0  0  0  0
  -19.1512  -28.8814   23.2889 C   0  0  0  0  0  0
  -18.9457  -30.1426   23.8898 C   0  0  0  0  0  0
  -17.6464  -30.6577   24.0535 C   0  0  0  0  0  0
  -25.9043  -34.9476   23.5101 C   0  0  0  0  0  0
  -16.5346  -29.9061   23.6312 C   0  0  0  0  0  0
  -16.7259  -28.6460   23.0350 C   0  0  0  0  0  0
  -26.4500  -31.6584   25.0697 C   0  0  0  0  0  0
  -25.3744  -31.3673   26.1438 C   0  0  0  0  0  0
  -27.0340  -30.3031   24.6072 C   0  0  0  0  0  0
  -27.6078  -32.4302   25.7457 C   0  0  0  0  0  0
  -27.5598  -37.1784   24.8459 C   0  0  0  0  0  0
  -21.4156  -29.3003   22.3740 N   0  0  0  0  0  0
  -26.4289  -37.3783   23.9428 N   0  0  0  0  0  0
  -24.6716  -31.0732   22.1006 N   0  0  0  0  0  0
  -23.4201  -28.8175   23.3060 O   0  0  0  0  0  0
  -28.3753  -26.6346   20.0341 O   0  0  0  0  0  0
  -26.5608  -34.8934   22.4672 O   0  0  0  0  0  0
  -23.5379  -32.1461   23.7464 O   0  0  0  0  0  0
  -31.9321  -18.7275   21.5831 C   0  0  0  0  0  0
  -31.5939  -17.3637   21.5007 C   0  0  0  0  0  0
  -30.9796  -19.7211   21.2951 C   0  0  0  0  0  0
  -29.3066  -17.9822   20.8975 C   0  0  0  0  0  0
  -30.2889  -16.9572   21.1363 C   0  0  0  0  0  0
  -29.6581  -19.3775   20.9406 C   0  0  0  0  0  0
  -27.9036  -17.5795   20.6251 C   0  0  0  0  0  0
  -29.0472  -23.0075   20.6947 C   0  0  0  0  0  0
  -28.0502  -24.2214   20.7419 C   0  0  0  0  0  0
  -27.0158  -17.4729   21.8604 C   0  0  0  0  0  0
  -28.6617  -21.6747   21.4022 C   0  0  0  0  0  0
  -28.5874  -25.6429   21.0691 C   0  0  0  0  0  0
  -29.9695  -15.5432   21.0886 N   0  0  0  0  0  0
  -28.7592  -20.4256   20.6040 N   0  0  0  0  0  0
  -27.4663  -17.2846   19.5080 O   0  0  0  0  0  0
  -30.1186  -23.0960   20.0829 O   0  0  0  0  0  0
  -26.8450  -24.0370   20.5282 O   0  0  0  0  0  0
  -31.4693  -12.4429   19.1246 H   0  0  0  0  0  0
  -30.3446  -11.3310   19.8512 H   0  0  0  0  0  0
  -29.7440  -11.7519   17.4520 H   0  0  0  0  0  0
  -29.6536  -13.4702   17.7480 H   0  0  0  0  0  0
  -27.8426  -11.2965   18.8479 H   0  0  0  0  0  0
  -27.3661  -12.5967   17.7895 H   0  0  0  0  0  0
  -27.6877  -14.2500   19.5423 H   0  0  0  0  0  0
  -28.6869  -11.9964   21.3558 H   0  0  0  0  0  0
  -28.4510  -13.6405   21.8555 H   0  0  0  0  0  0
  -25.2783   -9.5637   22.4773 H   0  0  0  0  0  0
  -23.9997   -7.4596   22.7468 H   0  0  0  0  0  0
  -21.0861   -8.8778   19.8938 H   0  0  0  0  0  0
  -22.3746  -10.9663   19.6166 H   0  0  0  0  0  0
  -21.1982   -7.6145   23.9726 H   0  0  0  0  0  0
  -21.1475   -6.0518   25.9087 H   0  0  0  0  0  0
  -22.0604   -2.7615   23.2854 H   0  0  0  0  0  0
  -22.4137  -11.9845   22.4808 H   0  0  0  0  0  0
  -21.1117  -13.1200   22.2660 H   0  0  0  0  0  0
  -24.5850  -15.7809   20.4003 H   0  0  0  0  0  0
  -26.1889  -15.6177   19.9095 H   0  0  0  0  0  0
  -26.7169  -32.5500   23.1128 H   0  0  0  0  0  0
  -25.0141  -33.9744   25.0501 H   0  0  0  0  0  0
  -22.6928  -31.3021   21.4107 H   0  0  0  0  0  0
  -23.3770  -35.9618   23.3256 H   0  0  0  0  0  0
  -24.3617  -36.8952   22.2069 H   0  0  0  0  0  0
  -23.7236  -37.6474   23.6677 H   0  0  0  0  0  0
  -26.0543  -31.5742   20.5952 H   0  0  0  0  0  0
  -26.8240  -30.8715   21.9912 H   0  0  0  0  0  0
  -28.1051  -29.0569   21.1901 H   0  0  0  0  0  0
  -26.0566  -25.9675   18.9871 H   0  0  0  0  0  0
  -23.9830  -27.2970   19.0137 H   0  0  0  0  0  0
  -23.7278  -30.5891   19.4039 H   0  0  0  0  0  0
  -22.7409  -29.2378   19.8711 H   0  0  0  0  0  0
  -25.1280  -36.1938   25.0817 H   0  0  0  0  0  0
  -20.9921  -28.3224   24.1438 H   0  0  0  0  0  0
  -20.5696  -26.2248   23.3595 H   0  0  0  0  0  0
  -21.6644  -26.7462   22.1177 H   0  0  0  0  0  0
  -19.6942  -25.6279   21.1218 H   0  0  0  0  0  0
  -19.6697  -27.3184   20.6724 H   0  0  0  0  0  0
  -17.4189  -26.6639   21.3989 H   0  0  0  0  0  0
  -18.0326  -26.0004   22.8970 H   0  0  0  0  0  0
  -19.7946  -30.7212   24.2282 H   0  0  0  0  0  0
  -17.5021  -31.6257   24.5133 H   0  0  0  0  0  0
  -15.5337  -30.2966   23.7655 H   0  0  0  0  0  0
  -15.8645  -28.0789   22.7087 H   0  0  0  0  0  0
  -24.5930  -30.7012   25.7751 H   0  0  0  0  0  0
  -24.8923  -32.2823   26.4900 H   0  0  0  0  0  0
  -25.8095  -30.8828   27.0192 H   0  0  0  0  0  0
  -26.2871  -29.6757   24.1197 H   0  0  0  0  0  0
  -27.4200  -29.7309   25.4523 H   0  0  0  0  0  0
  -27.8669  -30.4345   23.9155 H   0  0  0  0  0  0
  -27.2691  -33.3601   26.2041 H   0  0  0  0  0  0
  -28.3871  -32.6861   25.0253 H   0  0  0  0  0  0
  -28.0753  -31.8402   26.5363 H   0  0  0  0  0  0
  -28.2547  -38.0156   24.7591 H   0  0  0  0  0  0
  -28.1154  -36.2681   24.6145 H   0  0  0  0  0  0
  -27.2324  -37.1257   25.8861 H   0  0  0  0  0  0
  -20.9365  -29.8682   21.6899 H   0  0  0  0  0  0
  -26.0178  -38.2841   24.1475 H   0  0  0  0  0  0
  -32.9369  -19.0176   21.8583 H   0  0  0  0  0  0
  -32.3530  -16.6287   21.7335 H   0  0  0  0  0  0
  -31.2867  -20.7571   21.3317 H   0  0  0  0  0  0
  -27.3378  -18.1703   22.6350 H   0  0  0  0  0  0
  -27.0735  -16.4617   22.2668 H   0  0  0  0  0  0
  -25.9780  -17.6891   21.6083 H   0  0  0  0  0  0
  -27.6364  -21.7734   21.7571 H   0  0  0  0  0  0
  -29.2667  -21.5861   22.3051 H   0  0  0  0  0  0
  -29.6573  -25.5730   21.2624 H   0  0  0  0  0  0
  -28.1265  -25.9738   21.9999 H   0  0  0  0  0  0
  -29.0262  -15.2793   21.3280 H   0  0  0  0  0  0
  -27.9250  -20.1973   20.0685 H   0  0  0  0  0  0
  1 25  1  0  0  0
  1 30  2  0  0  0
  1 83  1  0  0  0
  2  3  1  0  0  0
  2 25  1  0  0  0
  2 88  1  0  0  0
  2 89  1  0  0  0
  3  4  1  0  0  0
  3 90  1  0  0  0
  3 91  1  0  0  0
  4  5  1  0  0  0
  4 92  1  0  0  0
  4 93  1  0  0  0
  5  6  1  0  0  0
  5 26  1  0  0  0
  5 94  1  0  0  0
  6 25  1  0  0  0
  6 95  1  0  0  0
  6 96  1  0  0  0
  7  8  2  0  0  0
  7 26  1  0  0  0
  7 29  1  0  0  0
  8  9  1  0  0  0
  8 22  1  0  0  0
  9 10  1  0  0  0
  9 27  2  0  0  0
 10 11  2  0  0  0
 10 15  1  0  0  0
 11 12  1  0  0  0
 11 97  1  0  0  0
 12 13  2  0  0  0
 12 98  1  0  0  0
 13 14  1  0  0  0
 13 31  1  0  0  0
 14 15  2  0  0  0
 14 99  1  0  0  0
 15100  1  0  0  0
 16 17  2  0  0  0
 16 21  1  0  0  0
 16 31  1  0  0  0
 17 18  1  0  0  0
 17101  1  0  0  0
 18 19  2  0  0  0
 18102  1  0  0  0
 19 20  1  0  0  0
 19 24  1  0  0  0
 20 21  2  0  0  0
 20103  1  0  0  0
 21 23  1  0  0  0
 22 28  1  0  0  0
 22 32  2  0  0  0
 26 27  1  0  0  0
 28104  1  0  0  0
 28105  1  0  0  0
 29106  1  0  0  0
 29107  1  0  0  0
 33 34  1  0  0  0
 33 66  1  0  0  0
 33 70  2  0  0  0
 34 36  1  0  0  0
 34 59  1  0  0  0
 34108  1  0  0  0
 35 44  2  0  0  0
 35 45  1  0  0  0
 35 68  1  0  0  0
 36 56  1  0  0  0
 36109  1  0  0  0
 37 39  1  0  0  0
 37 47  1  0  0  0
 37 66  1  0  0  0
 37110  1  0  0  0
 38 43  2  0  0  0
 38 46  1  0  0  0
 38 47  1  0  0  0
 39 64  1  0  0  0
 39 67  2  0  0  0
 40 52  1  0  0  0
 40 53  2  0  0  0
 40 58  1  0  0  0
 41111  1  0  0  0
 41112  1  0  0  0
 41113  1  0  0  0
 41 48  1  0  0  0
 42 43  1  0  0  0
 42 66  1  0  0  0
 42114  1  0  0  0
 42115  1  0  0  0
 43 44  1  0  0  0
 44116  1  0  0  0
 45 46  2  0  0  0
 45117  1  0  0  0
 46118  1  0  0  0
 47119  1  0  0  0
 47120  1  0  0  0
 48 56  1  0  0  0
 48 65  1  0  0  0
 48121  1  0  0  0
 49 50  1  0  0  0
 49 53  1  0  0  0
 49 64  1  0  0  0
 49122  1  0  0  0
 50 51  1  0  0  0
 50123  1  0  0  0
 50124  1  0  0  0
 51 52  1  0  0  0
 51125  1  0  0  0
 51126  1  0  0  0
 52127  1  0  0  0
 52128  1  0  0  0
 53 54  1  0  0  0
 54 55  2  0  0  0
 54129  1  0  0  0
 55 57  1  0  0  0
 55130  1  0  0  0
 56 69  2  0  0  0
 57 58  2  0  0  0
 57131  1  0  0  0
 58132  1  0  0  0
 59 60  1  0  0  0
 59 61  1  0  0  0
 59 62  1  0  0  0
 60133  1  0  0  0
 60134  1  0  0  0
 60135  1  0  0  0
 61136  1  0  0  0
 61137  1  0  0  0
 61138  1  0  0  0
 62139  1  0  0  0
 62140  1  0  0  0
 62141  1  0  0  0
 63 65  1  0  0  0
 63142  1  0  0  0
 63143  1  0  0  0
 63144  1  0  0  0
 64145  1  0  0  0
 65146  1  0  0  0
 68 82  1  0  0  0
 71 72  2  0  0  0
 71 73  1  0  0  0
 71147  1  0  0  0
 72 75  1  0  0  0
 72148  1  0  0  0
 73 76  2  0  0  0
 73149  1  0  0  0
 74 75  2  0  0  0
 74 76  1  0  0  0
 74 77  1  0  0  0
 75 83  1  0  0  0
 76 84  1  0  0  0
 77 80  1  0  0  0
 77 85  2  0  0  0
 78 79  1  0  0  0
 78 81  1  0  0  0
 78 86  2  0  0  0
 79 82  1  0  0  0
 79 87  2  0  0  0
 80150  1  0  0  0
 80151  1  0  0  0
 80152  1  0  0  0
 81 84  1  0  0  0
 81153  1  0  0  0
 81154  1  0  0  0
 82155  1  0  0  0
 82156  1  0  0  0
 83157  1  0  0  0
 84158  1  0  0  0
M  ISO  4   1 100  68 101  82 101  83 100
M  END
> <chiral flag>
0

> <version>
0

> <s_m_source_file>
/data/baiqing/PycharmProjects/Reinvent-master-3.2/result/LINK_invent/BTK/process_docking_weight1_custom_product_contain_oxygen_bond_distance_aromatic_linkinvent_7_9_3/rearranged_h_0169.sdf

> <i_m_source_file_index>
7

> <r_mmod_Potential_Energy-OPLS-2005>
269.054138183594

> <r_mmod_Stretch_Energy-OPLS-2005>
54.4094123840332

> <r_mmod_Bend_Energy-OPLS-2005>
112.59782409668

> <r_mmod_Torsional_Energy-OPLS-2005>
318.937347412109

> <r_mmod_Improper_Torsional_Energy-OPLS-2005>
6.80484533309937

> <r_mmod_Van_der_Waal_Energy-OPLS-2005>
138.175231933594

> <r_mmod_Electrostatic_Energy-OPLS-2005>
-136.907165527344

> <r_mmod_Solvation_Energy-OPLS-2005>
-243.232315063477

> <b_mmod_Minimization_Converged-OPLS-2005>
0

> <r_mmod_RMS_Derivative-OPLS-2005>
2.93466949462891

$$$$
7
                    3D
 Structure written by MMmdl.
154162  0  0  1  0            999 V2000
  -30.7106  -14.5147   20.5471 C   0  0  0  0  0  0
  -30.4167  -12.3268   19.4383 C   0  0  0  0  0  0
  -29.4954  -12.4996   18.2141 C   0  0  0  0  0  0
  -28.0180  -12.3559   18.6267 C   0  0  0  0  0  0
  -27.6563  -13.2149   19.8685 C   0  0  2  0  0  0
  -28.6996  -13.0437   20.9969 C   0  0  0  0  0  0
  -25.2566  -13.8176   20.5686 C   0  0  0  0  0  0
  -24.1829  -13.0443   20.9191 C   0  0  0  0  0  0
  -24.6393  -11.6912   20.8740 C   0  0  0  0  0  0
  -23.9062  -10.4294   21.0404 C   0  0  0  0  0  0
  -24.3615   -9.4210   21.9181 C   0  0  0  0  0  0
  -23.6292   -8.2245   22.0751 C   0  0  0  0  0  0
  -22.4275   -8.0281   21.3543 C   0  0  0  0  0  0
  -21.9908   -9.0254   20.4647 C   0  0  0  0  0  0
  -22.7234  -10.2135   20.3054 C   0  0  0  0  0  0
  -21.6854   -6.0734   22.5279 C   0  0  0  0  0  0
  -21.4014   -6.5637   23.8212 C   0  0  0  0  0  0
  -21.3659   -5.6790   24.9175 C   0  0  0  0  0  0
  -21.6044   -4.3053   24.7225 C   0  0  0  0  0  0
  -21.8820   -3.8145   23.4348 C   0  0  0  0  0  0
  -21.9195   -4.6962   22.3403 C   0  0  0  0  0  0
  -22.7851  -13.5235   21.1850 C   0  0  0  0  0  0
  -22.1664   -4.2147   21.0981 F   0  0  0  0  0  0
  -21.5629   -3.4538   25.7739 F   0  0  0  0  0  0
  -30.0260  -13.3405   20.4348 N   0  0  0  0  0  0
  -26.3001  -12.9358   20.3346 N   0  0  0  0  0  0
  -25.9322  -11.6513   20.5766 N   0  0  0  0  0  0
  -22.0491  -12.8227   22.0406 N   0  0  0  0  0  0
  -25.4280  -15.1894   20.4081 N   0  0  0  0  0  0
  -31.8494  -14.6387   20.0915 O   0  0  0  0  0  0
  -21.6640   -6.8876   21.4240 O   0  0  0  0  0  0
  -22.3538  -14.5542   20.6698 O   0  0  0  0  0  0
  -24.6179  -31.8664   23.2090 C   0  0  0  0  0  0
  -25.9060  -32.4816   23.8393 C   0  0  1  0  0  0
  -27.2260  -27.4078   20.1012 C   0  0  0  0  0  0
  -25.5906  -33.8614   24.2323 N   0  0  0  0  0  0
  -23.4080  -30.4912   21.5493 C   0  0  2  0  0  0
  -24.8562  -28.9611   20.1075 C   0  0  0  0  0  0
  -22.7433  -29.4651   22.4963 C   0  0  0  0  0  0
  -18.0278  -28.1380   22.8490 C   0  0  0  0  0  0
  -24.1487  -36.7309   23.2638 C   0  0  0  0  0  0
  -25.9412  -30.8247   21.3678 C   0  0  0  0  0  0
  -26.0196  -29.4597   20.7096 C   0  0  0  0  0  0
  -27.2118  -28.6906   20.7040 C   0  0  0  0  0  0
  -26.0497  -26.9419   19.4743 C   0  0  0  0  0  0
  -24.8677  -27.7031   19.4836 C   0  0  0  0  0  0
  -23.6184  -29.8290   20.1621 C   0  0  0  0  0  0
  -25.4108  -36.3108   24.0338 C   0  0  1  0  0  0
  -20.5872  -28.3672   23.1306 C   0  0  2  0  0  0
  -20.6767  -26.9403   22.5418 C   0  0  0  0  0  0
  -19.5748  -26.6387   21.5211 C   0  0  0  0  0  0
  -18.1925  -26.7926   22.1621 C   0  0  0  0  0  0
  -19.1528  -28.8841   23.2895 C   0  0  0  0  0  0
  -18.9455  -30.1446   23.8908 C   0  0  0  0  0  0
  -17.6457  -30.6585   24.0565 C   0  0  0  0  0  0
  -25.9036  -34.9473   23.5127 C   0  0  0  0  0  0
  -16.5348  -29.9088   23.6327 C   0  0  0  0  0  0
  -16.7266  -28.6504   23.0349 C   0  0  0  0  0  0
  -26.4477  -31.6598   25.0728 C   0  0  0  0  0  0
  -25.3738  -31.3713   26.1474 C   0  0  0  0  0  0
  -27.0304  -30.3033   24.6120 C   0  0  0  0  0  0
  -27.6055  -32.4315   25.7488 C   0  0  0  0  0  0
  -27.5582  -37.1808   24.8464 C   0  0  0  0  0  0
  -21.4156  -29.3036   22.3707 N   0  0  0  0  0  0
  -26.4293  -37.3793   23.9412 N   0  0  0  0  0  0
  -24.6739  -31.0747   22.1002 N   0  0  0  0  0  0
  -23.4192  -28.8185   23.3010 O   0  0  0  0  0  0
  -28.3262  -26.5688   20.1563 O   0  0  0  0  0  0
  -26.5597  -34.8924   22.4688 O   0  0  0  0  0  0
  -23.5363  -32.1424   23.7468 O   0  0  0  0  0  0
  -29.4761  -18.0167   21.1293 C   0  0  0  0  0  0
  -31.2319  -19.7037   21.3378 C   0  0  0  0  0  0
  -31.8094  -17.3332   21.2139 C   0  0  0  0  0  0
  -29.8595  -19.3893   21.2545 C   0  0  0  0  0  0
  -30.4427  -16.9669   21.1057 C   0  0  0  0  0  0
  -32.1969  -18.6827   21.3164 C   0  0  0  0  0  0
  -28.0671  -25.3264   20.7227 C   0  0  0  0  0  0
  -28.8647  -20.4816   21.4085 C   0  0  0  0  0  0
  -28.7289  -24.1641   20.4866 C   0  0  0  0  0  0
  -28.2639  -22.9323   21.1506 C   0  0  0  0  0  0
  -30.0186  -15.5831   21.0223 N   0  0  0  0  0  0
  -29.0684  -21.7434   20.9206 N   0  0  0  0  0  0
  -27.7650  -20.1818   22.1095 N   0  3  0  0  0  0
  -27.2591  -22.8692   21.8714 O   0  0  0  0  0  0
  -29.7819  -24.1209   19.6569 O   0  0  0  0  0  0
  -33.5099  -19.0013   21.4190 F   0  0  0  0  0  0
  -31.4626  -12.4095   19.1373 H   0  0  0  0  0  0
  -30.3099  -11.3263   19.8604 H   0  0  0  0  0  0
  -29.7424  -11.7625   17.4489 H   0  0  0  0  0  0
  -29.6599  -13.4786   17.7609 H   0  0  0  0  0  0
  -27.8377  -11.3020   18.8416 H   0  0  0  0  0  0
  -27.3662  -12.6101   17.7898 H   0  0  0  0  0  0
  -27.6866  -14.2553   19.5443 H   0  0  0  0  0  0
  -28.6830  -12.0227   21.3812 H   0  0  0  0  0  0
  -28.4608  -13.6831   21.8481 H   0  0  0  0  0  0
  -25.2762   -9.5689   22.4752 H   0  0  0  0  0  0
  -24.0005   -7.4637   22.7468 H   0  0  0  0  0  0
  -21.0839   -8.8772   19.8953 H   0  0  0  0  0  0
  -22.3691  -10.9672   19.6162 H   0  0  0  0  0  0
  -21.2004   -7.6144   23.9714 H   0  0  0  0  0  0
  -21.1479   -6.0521   25.9077 H   0  0  0  0  0  0
  -22.0598   -2.7607   23.2850 H   0  0  0  0  0  0
  -22.4101  -11.9885   22.4794 H   0  0  0  0  0  0
  -21.1109  -13.1254   22.2607 H   0  0  0  0  0  0
  -24.6570  -15.8415   20.5044 H   0  0  0  0  0  0
  -26.2698  -15.6236   20.0518 H   0  0  0  0  0  0
  -26.7134  -32.5522   23.1158 H   0  0  0  0  0  0
  -25.0062  -33.9776   25.0473 H   0  0  0  0  0  0
  -22.6977  -31.3091   21.4113 H   0  0  0  0  0  0
  -23.3749  -35.9643   23.3309 H   0  0  0  0  0  0
  -24.3583  -36.8915   22.2051 H   0  0  0  0  0  0
  -23.7238  -37.6517   23.6645 H   0  0  0  0  0  0
  -26.0600  -31.5929   20.6024 H   0  0  0  0  0  0
  -26.8262  -30.8747   21.9904 H   0  0  0  0  0  0
  -28.1052  -29.0606   21.1873 H   0  0  0  0  0  0
  -26.0404  -25.9711   18.9988 H   0  0  0  0  0  0
  -23.9752  -27.3151   19.0122 H   0  0  0  0  0  0
  -23.7272  -30.6070   19.4056 H   0  0  0  0  0  0
  -22.7418  -29.2511   19.8639 H   0  0  0  0  0  0
  -25.1281  -36.1974   25.0830 H   0  0  0  0  0  0
  -20.9964  -28.3242   24.1427 H   0  0  0  0  0  0
  -20.5671  -26.2277   23.3607 H   0  0  0  0  0  0
  -21.6639  -26.7447   22.1211 H   0  0  0  0  0  0
  -19.6910  -25.6301   21.1234 H   0  0  0  0  0  0
  -19.6688  -27.3203   20.6745 H   0  0  0  0  0  0
  -17.4196  -26.6677   21.4022 H   0  0  0  0  0  0
  -18.0324  -26.0065   22.9015 H   0  0  0  0  0  0
  -19.7932  -30.7257   24.2286 H   0  0  0  0  0  0
  -17.5015  -31.6266   24.5165 H   0  0  0  0  0  0
  -15.5349  -30.2994   23.7646 H   0  0  0  0  0  0
  -15.8665  -28.0827   22.7059 H   0  0  0  0  0  0
  -24.5909  -30.7060   25.7813 H   0  0  0  0  0  0
  -24.8930  -32.2873   26.4919 H   0  0  0  0  0  0
  -25.8089  -30.8886   27.0233 H   0  0  0  0  0  0
  -26.2851  -29.6801   24.1165 H   0  0  0  0  0  0
  -27.4052  -29.7266   25.4586 H   0  0  0  0  0  0
  -27.8699  -30.4340   23.9287 H   0  0  0  0  0  0
  -27.2677  -33.3607   26.2090 H   0  0  0  0  0  0
  -28.3849  -32.6889   25.0303 H   0  0  0  0  0  0
  -28.0739  -31.8424   26.5382 H   0  0  0  0  0  0
  -28.2603  -38.0103   24.7518 H   0  0  0  0  0  0
  -28.1073  -36.2636   24.6276 H   0  0  0  0  0  0
  -27.2305  -37.1448   25.8869 H   0  0  0  0  0  0
  -20.9314  -29.8762   21.6934 H   0  0  0  0  0  0
  -26.0182  -38.2872   24.1416 H   0  0  0  0  0  0
  -28.4260  -17.7654   21.0674 H   0  0  0  0  0  0
  -31.5640  -20.7247   21.4603 H   0  0  0  0  0  0
  -32.5955  -16.5962   21.2397 H   0  0  0  0  0  0
  -27.2263  -25.3677   21.4065 H   0  0  0  0  0  0
  -29.0593  -15.3899   21.2649 H   0  0  0  0  0  0
  -29.8798  -21.8183   20.3273 H   0  0  0  0  0  0
  -27.6619  -19.2841   22.5546 H   0  0  0  0  0  0
  -27.0994  -20.9204   22.3027 H   0  0  0  0  0  0
  -29.9115  -25.0042   19.3343 H   0  0  0  0  0  0
  1 25  1  0  0  0
  1 30  2  0  0  0
  1 81  1  0  0  0
  2  3  1  0  0  0
  2 25  1  0  0  0
  2 87  1  0  0  0
  2 88  1  0  0  0
  3  4  1  0  0  0
  3 89  1  0  0  0
  3 90  1  0  0  0
  4  5  1  0  0  0
  4 91  1  0  0  0
  4 92  1  0  0  0
  5  6  1  0  0  0
  5 26  1  0  0  0
  5 93  1  0  0  0
  6 25  1  0  0  0
  6 94  1  0  0  0
  6 95  1  0  0  0
  7  8  2  0  0  0
  7 26  1  0  0  0
  7 29  1  0  0  0
  8  9  1  0  0  0
  8 22  1  0  0  0
  9 10  1  0  0  0
  9 27  2  0  0  0
 10 11  2  0  0  0
 10 15  1  0  0  0
 11 12  1  0  0  0
 11 96  1  0  0  0
 12 13  2  0  0  0
 12 97  1  0  0  0
 13 14  1  0  0  0
 13 31  1  0  0  0
 14 15  2  0  0  0
 14 98  1  0  0  0
 15 99  1  0  0  0
 16 17  2  0  0  0
 16 21  1  0  0  0
 16 31  1  0  0  0
 17 18  1  0  0  0
 17100  1  0  0  0
 18 19  2  0  0  0
 18101  1  0  0  0
 19 20  1  0  0  0
 19 24  1  0  0  0
 20 21  2  0  0  0
 20102  1  0  0  0
 21 23  1  0  0  0
 22 28  1  0  0  0
 22 32  2  0  0  0
 26 27  1  0  0  0
 28103  1  0  0  0
 28104  1  0  0  0
 29105  1  0  0  0
 29106  1  0  0  0
 33 34  1  0  0  0
 33 66  1  0  0  0
 33 70  2  0  0  0
 34 36  1  0  0  0
 34 59  1  0  0  0
 34107  1  0  0  0
 35 44  2  0  0  0
 35 45  1  0  0  0
 35 68  1  0  0  0
 36 56  1  0  0  0
 36108  1  0  0  0
 37 39  1  0  0  0
 37 47  1  0  0  0
 37 66  1  0  0  0
 37109  1  0  0  0
 38 43  2  0  0  0
 38 46  1  0  0  0
 38 47  1  0  0  0
 39 64  1  0  0  0
 39 67  2  0  0  0
 40 52  1  0  0  0
 40 53  2  0  0  0
 40 58  1  0  0  0
 41110  1  0  0  0
 41111  1  0  0  0
 41112  1  0  0  0
 41 48  1  0  0  0
 42 43  1  0  0  0
 42 66  1  0  0  0
 42113  1  0  0  0
 42114  1  0  0  0
 43 44  1  0  0  0
 44115  1  0  0  0
 45 46  2  0  0  0
 45116  1  0  0  0
 46117  1  0  0  0
 47118  1  0  0  0
 47119  1  0  0  0
 48 56  1  0  0  0
 48 65  1  0  0  0
 48120  1  0  0  0
 49 50  1  0  0  0
 49 53  1  0  0  0
 49 64  1  0  0  0
 49121  1  0  0  0
 50 51  1  0  0  0
 50122  1  0  0  0
 50123  1  0  0  0
 51 52  1  0  0  0
 51124  1  0  0  0
 51125  1  0  0  0
 52126  1  0  0  0
 52127  1  0  0  0
 53 54  1  0  0  0
 54 55  2  0  0  0
 54128  1  0  0  0
 55 57  1  0  0  0
 55129  1  0  0  0
 56 69  2  0  0  0
 57 58  2  0  0  0
 57130  1  0  0  0
 58131  1  0  0  0
 59 60  1  0  0  0
 59 61  1  0  0  0
 59 62  1  0  0  0
 60132  1  0  0  0
 60133  1  0  0  0
 60134  1  0  0  0
 61135  1  0  0  0
 61136  1  0  0  0
 61137  1  0  0  0
 62138  1  0  0  0
 62139  1  0  0  0
 62140  1  0  0  0
 63 65  1  0  0  0
 63141  1  0  0  0
 63142  1  0  0  0
 63143  1  0  0  0
 64144  1  0  0  0
 65145  1  0  0  0
 68 77  1  0  0  0
 71 74  2  0  0  0
 71 75  1  0  0  0
 71146  1  0  0  0
 72 74  1  0  0  0
 72 76  2  0  0  0
 72147  1  0  0  0
 73 75  2  0  0  0
 73 76  1  0  0  0
 73148  1  0  0  0
 74 78  1  0  0  0
 75 81  1  0  0  0
 76 86  1  0  0  0
 77 79  2  0  0  0
 77149  1  0  0  0
 78 82  1  0  0  0
 78 83  2  0  0  0
 79 80  1  0  0  0
 79 85  1  0  0  0
 80 82  1  0  0  0
 80 84  2  0  0  0
 81150  1  0  0  0
 82151  1  0  0  0
 83152  1  0  0  0
 83153  1  0  0  0
 85154  1  0  0  0
M  CHG  1  83   1
M  ISO  4   1 100  68 101  77 101  81 100
M  END
> <chiral flag>
0

> <version>
0

> <s_m_source_file>
/data/baiqing/PycharmProjects/Reinvent-master-3.2/result/LINK_invent/BTK/process_docking_weight1_custom_product_contain_oxygen_bond_distance_aromatic_linkinvent_7_9_3/rearranged_h_0169.sdf

> <i_m_source_file_index>
8

> <r_mmod_Potential_Energy-OPLS-2005>
-408.953247070312

> <r_mmod_Stretch_Energy-OPLS-2005>
48.6685600280762

> <r_mmod_Bend_Energy-OPLS-2005>
108.268493652344

> <r_mmod_Torsional_Energy-OPLS-2005>
203.220993041992

> <r_mmod_Improper_Torsional_Energy-OPLS-2005>
4.78966283798218

> <r_mmod_Van_der_Waal_Energy-OPLS-2005>
176.813690185547

> <r_mmod_Electrostatic_Energy-OPLS-2005>
-533.11865234375

> <r_mmod_Solvation_Energy-OPLS-2005>
-440.193572998047

> <b_mmod_Minimization_Converged-OPLS-2005>
0

> <r_mmod_RMS_Derivative-OPLS-2005>
0.32960057258606

$$$$
8
                    3D
 Structure written by MMmdl.
157165  0  0  1  0            999 V2000
  -30.7402  -14.3539   20.7395 C   0  0  0  0  0  0
  -30.4307  -12.3040   19.3827 C   0  0  0  0  0  0
  -29.4863  -12.5370   18.1885 C   0  0  0  0  0  0
  -28.0109  -12.3769   18.6031 C   0  0  0  0  0  0
  -27.6674  -13.1947   19.8736 C   0  0  2  0  0  0
  -28.6990  -12.9149   20.9871 C   0  0  0  0  0  0
  -25.2608  -13.8132   20.5626 C   0  0  0  0  0  0
  -24.1840  -13.0444   20.9132 C   0  0  0  0  0  0
  -24.6370  -11.6890   20.8681 C   0  0  0  0  0  0
  -23.9028  -10.4288   21.0382 C   0  0  0  0  0  0
  -24.3602   -9.4209   21.9145 C   0  0  0  0  0  0
  -23.6284   -8.2238   22.0737 C   0  0  0  0  0  0
  -22.4255   -8.0273   21.3544 C   0  0  0  0  0  0
  -21.9861   -9.0247   20.4663 C   0  0  0  0  0  0
  -22.7182  -10.2129   20.3068 C   0  0  0  0  0  0
  -21.6856   -6.0719   22.5281 C   0  0  0  0  0  0
  -21.4021   -6.5614   23.8216 C   0  0  0  0  0  0
  -21.3664   -5.6768   24.9173 C   0  0  0  0  0  0
  -21.6049   -4.3035   24.7225 C   0  0  0  0  0  0
  -21.8822   -3.8126   23.4342 C   0  0  0  0  0  0
  -21.9191   -4.6946   22.3400 C   0  0  0  0  0  0
  -22.7872  -13.5253   21.1814 C   0  0  0  0  0  0
  -22.1656   -4.2135   21.0980 F   0  0  0  0  0  0
  -21.5622   -3.4521   25.7737 F   0  0  0  0  0  0
  -30.0547  -13.2120   20.4748 N   0  0  0  0  0  0
  -26.3035  -12.9279   20.3295 N   0  0  0  0  0  0
  -25.9286  -11.6445   20.5652 N   0  0  0  0  0  0
  -22.0512  -12.8238   22.0366 N   0  0  0  0  0  0
  -25.4373  -15.1852   20.4051 N   0  0  0  0  0  0
  -31.6943  -14.7567   20.0633 O   0  0  0  0  0  0
  -21.6628   -6.8868   21.4239 O   0  0  0  0  0  0
  -22.3547  -14.5578   20.6687 O   0  0  0  0  0  0
  -24.6138  -31.8689   23.2098 C   0  0  0  0  0  0
  -25.9037  -32.4832   23.8390 C   0  0  1  0  0  0
  -27.2317  -27.4384   20.0762 C   0  0  0  0  0  0
  -25.5908  -33.8636   24.2316 N   0  0  0  0  0  0
  -23.3986  -30.4959   21.5500 C   0  0  2  0  0  0
  -24.8396  -28.9571   20.1173 C   0  0  0  0  0  0
  -22.7386  -29.4681   22.4975 C   0  0  0  0  0  0
  -18.0275  -28.1383   22.8496 C   0  0  0  0  0  0
  -24.1483  -36.7315   23.2640 C   0  0  0  0  0  0
  -25.9275  -30.8323   21.3602 C   0  0  0  0  0  0
  -25.9995  -29.4648   20.7123 C   0  0  0  0  0  0
  -27.1929  -28.7099   20.6943 C   0  0  0  0  0  0
  -26.0436  -26.9362   19.4960 C   0  0  0  0  0  0
  -24.8544  -27.6897   19.5128 C   0  0  0  0  0  0
  -23.6066  -29.8316   20.1625 C   0  0  0  0  0  0
  -25.4106  -36.3124   24.0338 C   0  0  1  0  0  0
  -20.5867  -28.3663   23.1319 C   0  0  2  0  0  0
  -20.6772  -26.9400   22.5410 C   0  0  0  0  0  0
  -19.5746  -26.6385   21.5212 C   0  0  0  0  0  0
  -18.1926  -26.7934   22.1624 C   0  0  0  0  0  0
  -19.1524  -28.8840   23.2909 C   0  0  0  0  0  0
  -18.9452  -30.1452   23.8908 C   0  0  0  0  0  0
  -17.6453  -30.6583   24.0574 C   0  0  0  0  0  0
  -25.9029  -34.9494   23.5111 C   0  0  0  0  0  0
  -16.5345  -29.9080   23.6338 C   0  0  0  0  0  0
  -16.7268  -28.6508   23.0336 C   0  0  0  0  0  0
  -26.4467  -31.6605   25.0710 C   0  0  0  0  0  0
  -25.3740  -31.3705   26.1466 C   0  0  0  0  0  0
  -27.0275  -30.3060   24.6030 C   0  0  0  0  0  0
  -27.6042  -32.4314   25.7485 C   0  0  0  0  0  0
  -27.5578  -37.1821   24.8473 C   0  0  0  0  0  0
  -21.4119  -29.3040   22.3720 N   0  0  0  0  0  0
  -26.4291  -37.3813   23.9413 N   0  0  0  0  0  0
  -24.6650  -31.0798   22.0990 N   0  0  0  0  0  0
  -23.4169  -28.8207   23.3002 O   0  0  0  0  0  0
  -28.4385  -26.7663   20.0576 O   0  0  0  0  0  0
  -26.5591  -34.8957   22.4669 O   0  0  0  0  0  0
  -23.5339  -32.1444   23.7492 O   0  0  0  0  0  0
  -28.6631  -17.6927   23.6170 C   0  0  0  0  0  0
  -29.0953  -16.4079   23.2474 C   0  0  0  0  0  0
  -29.1628  -18.8236   22.9473 C   0  0  0  0  0  0
  -30.5313  -17.3785   21.5275 C   0  0  0  0  0  0
  -30.0294  -16.2348   22.2029 C   0  0  0  0  0  0
  -30.0990  -18.6752   21.9030 C   0  0  0  0  0  0
  -29.3709  -21.9461   20.8901 C   0  0  0  0  0  0
  -28.8157  -22.9550   19.8704 C   0  0  0  0  0  0
  -29.6751  -20.5178   20.3972 C   0  0  0  0  0  0
  -28.3996  -24.3355   20.4488 C   0  0  0  0  0  0
  -28.5688  -25.4823   19.4326 C   0  0  0  0  0  0
  -30.4073  -14.8940   21.9198 N   0  0  0  0  0  0
  -30.6170  -19.8165   21.2763 N   0  0  0  0  0  0
  -29.6120  -22.2620   22.0600 O   0  0  0  0  0  0
  -31.4689  -12.4418   19.0740 H   0  0  0  0  0  0
  -30.3606  -11.2705   19.7261 H   0  0  0  0  0  0
  -29.7254  -11.8397   17.3847 H   0  0  0  0  0  0
  -29.6475  -13.5377   17.7829 H   0  0  0  0  0  0
  -27.8226  -11.3162   18.7778 H   0  0  0  0  0  0
  -27.3541  -12.6663   17.7812 H   0  0  0  0  0  0
  -27.7316  -14.2509   19.6100 H   0  0  0  0  0  0
  -28.6561  -11.8674   21.2880 H   0  0  0  0  0  0
  -28.4199  -13.4795   21.8763 H   0  0  0  0  0  0
  -25.2769   -9.5677   22.4675 H   0  0  0  0  0  0
  -24.0021   -7.4628   22.7444 H   0  0  0  0  0  0
  -21.0766   -8.8761   19.8995 H   0  0  0  0  0  0
  -22.3611  -10.9659   19.6195 H   0  0  0  0  0  0
  -21.2027   -7.6129   23.9712 H   0  0  0  0  0  0
  -21.1480   -6.0496   25.9077 H   0  0  0  0  0  0
  -22.0601   -2.7585   23.2845 H   0  0  0  0  0  0
  -22.4164  -11.9918   22.4781 H   0  0  0  0  0  0
  -21.1122  -13.1230   22.2560 H   0  0  0  0  0  0
  -24.6849  -15.8524   20.5362 H   0  0  0  0  0  0
  -26.3050  -15.6184   20.1134 H   0  0  0  0  0  0
  -26.7093  -32.5549   23.1147 H   0  0  0  0  0  0
  -25.0119  -33.9813   25.0501 H   0  0  0  0  0  0
  -22.6872  -31.3139   21.4133 H   0  0  0  0  0  0
  -23.3746  -35.9654   23.3323 H   0  0  0  0  0  0
  -24.3568  -36.8896   22.2049 H   0  0  0  0  0  0
  -23.7249  -37.6526   23.6641 H   0  0  0  0  0  0
  -26.0346  -31.5923   20.5850 H   0  0  0  0  0  0
  -26.8194  -30.8892   21.9725 H   0  0  0  0  0  0
  -28.0899  -29.1046   21.1494 H   0  0  0  0  0  0
  -26.0031  -25.9677   19.0235 H   0  0  0  0  0  0
  -23.9577  -27.2888   19.0596 H   0  0  0  0  0  0
  -23.7244  -30.6117   19.4090 H   0  0  0  0  0  0
  -22.7267  -29.2622   19.8568 H   0  0  0  0  0  0
  -25.1280  -36.1966   25.0832 H   0  0  0  0  0  0
  -20.9988  -28.3238   24.1426 H   0  0  0  0  0  0
  -20.5690  -26.2269   23.3591 H   0  0  0  0  0  0
  -21.6644  -26.7439   22.1199 H   0  0  0  0  0  0
  -19.6886  -25.6296   21.1226 H   0  0  0  0  0  0
  -19.6705  -27.3224   20.6763 H   0  0  0  0  0  0
  -17.4207  -26.6719   21.4010 H   0  0  0  0  0  0
  -18.0304  -26.0068   22.9003 H   0  0  0  0  0  0
  -19.7916  -30.7281   24.2278 H   0  0  0  0  0  0
  -17.4990  -31.6267   24.5159 H   0  0  0  0  0  0
  -15.5341  -30.2966   23.7648 H   0  0  0  0  0  0
  -15.8680  -28.0826   22.7008 H   0  0  0  0  0  0
  -24.5924  -30.7023   25.7826 H   0  0  0  0  0  0
  -24.8920  -32.2855   26.4910 H   0  0  0  0  0  0
  -25.8110  -30.8897   27.0219 H   0  0  0  0  0  0
  -26.2784  -29.6863   24.1083 H   0  0  0  0  0  0
  -27.4057  -29.7263   25.4452 H   0  0  0  0  0  0
  -27.8630  -30.4397   23.9160 H   0  0  0  0  0  0
  -27.2646  -33.3601   26.2084 H   0  0  0  0  0  0
  -28.3864  -32.6864   25.0324 H   0  0  0  0  0  0
  -28.0695  -31.8409   26.5382 H   0  0  0  0  0  0
  -28.2621  -38.0096   24.7511 H   0  0  0  0  0  0
  -28.1041  -36.2628   24.6299 H   0  0  0  0  0  0
  -27.2302  -37.1486   25.8880 H   0  0  0  0  0  0
  -20.9236  -29.8782   21.6987 H   0  0  0  0  0  0
  -26.0165  -38.2885   24.1404 H   0  0  0  0  0  0
  -27.9478  -17.8100   24.4196 H   0  0  0  0  0  0
  -28.6955  -15.5534   23.7773 H   0  0  0  0  0  0
  -28.8222  -19.8037   23.2500 H   0  0  0  0  0  0
  -31.2620  -17.2709   20.7377 H   0  0  0  0  0  0
  -27.9802  -22.5046   19.3346 H   0  0  0  0  0  0
  -29.6075  -23.1018   19.1359 H   0  0  0  0  0  0
  -30.1020  -20.5806   19.3955 H   0  0  0  0  0  0
  -28.7325  -19.9736   20.3061 H   0  0  0  0  0  0
  -29.0047  -24.5860   21.3205 H   0  0  0  0  0  0
  -27.3673  -24.2908   20.7993 H   0  0  0  0  0  0
  -27.9435  -25.3507   18.5509 H   0  0  0  0  0  0
  -29.5892  -25.4410   19.0505 H   0  0  0  0  0  0
  -29.9311  -14.2202   22.5002 H   0  0  0  0  0  0
  -30.8791  -20.5131   21.9747 H   0  0  0  0  0  0
  1 25  1  0  0  0
  1 30  2  0  0  0
  1 82  1  0  0  0
  2  3  1  0  0  0
  2 25  1  0  0  0
  2 85  1  0  0  0
  2 86  1  0  0  0
  3  4  1  0  0  0
  3 87  1  0  0  0
  3 88  1  0  0  0
  4  5  1  0  0  0
  4 89  1  0  0  0
  4 90  1  0  0  0
  5  6  1  0  0  0
  5 26  1  0  0  0
  5 91  1  0  0  0
  6 25  1  0  0  0
  6 92  1  0  0  0
  6 93  1  0  0  0
  7  8  2  0  0  0
  7 26  1  0  0  0
  7 29  1  0  0  0
  8  9  1  0  0  0
  8 22  1  0  0  0
  9 10  1  0  0  0
  9 27  2  0  0  0
 10 11  2  0  0  0
 10 15  1  0  0  0
 11 12  1  0  0  0
 11 94  1  0  0  0
 12 13  2  0  0  0
 12 95  1  0  0  0
 13 14  1  0  0  0
 13 31  1  0  0  0
 14 15  2  0  0  0
 14 96  1  0  0  0
 15 97  1  0  0  0
 16 17  2  0  0  0
 16 21  1  0  0  0
 16 31  1  0  0  0
 17 18  1  0  0  0
 17 98  1  0  0  0
 18 19  2  0  0  0
 18 99  1  0  0  0
 19 20  1  0  0  0
 19 24  1  0  0  0
 20 21  2  0  0  0
 20100  1  0  0  0
 21 23  1  0  0  0
 22 28  1  0  0  0
 22 32  2  0  0  0
 26 27  1  0  0  0
 28101  1  0  0  0
 28102  1  0  0  0
 29103  1  0  0  0
 29104  1  0  0  0
 33 34  1  0  0  0
 33 66  1  0  0  0
 33 70  2  0  0  0
 34 36  1  0  0  0
 34 59  1  0  0  0
 34105  1  0  0  0
 35 44  2  0  0  0
 35 45  1  0  0  0
 35 68  1  0  0  0
 36 56  1  0  0  0
 36106  1  0  0  0
 37 39  1  0  0  0
 37 47  1  0  0  0
 37 66  1  0  0  0
 37107  1  0  0  0
 38 43  2  0  0  0
 38 46  1  0  0  0
 38 47  1  0  0  0
 39 64  1  0  0  0
 39 67  2  0  0  0
 40 52  1  0  0  0
 40 53  2  0  0  0
 40 58  1  0  0  0
 41108  1  0  0  0
 41109  1  0  0  0
 41110  1  0  0  0
 41 48  1  0  0  0
 42 43  1  0  0  0
 42 66  1  0  0  0
 42111  1  0  0  0
 42112  1  0  0  0
 43 44  1  0  0  0
 44113  1  0  0  0
 45 46  2  0  0  0
 45114  1  0  0  0
 46115  1  0  0  0
 47116  1  0  0  0
 47117  1  0  0  0
 48 56  1  0  0  0
 48 65  1  0  0  0
 48118  1  0  0  0
 49 50  1  0  0  0
 49 53  1  0  0  0
 49 64  1  0  0  0
 49119  1  0  0  0
 50 51  1  0  0  0
 50120  1  0  0  0
 50121  1  0  0  0
 51 52  1  0  0  0
 51122  1  0  0  0
 51123  1  0  0  0
 52124  1  0  0  0
 52125  1  0  0  0
 53 54  1  0  0  0
 54 55  2  0  0  0
 54126  1  0  0  0
 55 57  1  0  0  0
 55127  1  0  0  0
 56 69  2  0  0  0
 57 58  2  0  0  0
 57128  1  0  0  0
 58129  1  0  0  0
 59 60  1  0  0  0
 59 61  1  0  0  0
 59 62  1  0  0  0
 60130  1  0  0  0
 60131  1  0  0  0
 60132  1  0  0  0
 61133  1  0  0  0
 61134  1  0  0  0
 61135  1  0  0  0
 62136  1  0  0  0
 62137  1  0  0  0
 62138  1  0  0  0
 63 65  1  0  0  0
 63139  1  0  0  0
 63140  1  0  0  0
 63141  1  0  0  0
 64142  1  0  0  0
 65143  1  0  0  0
 68 81  1  0  0  0
 71 72  2  0  0  0
 71 73  1  0  0  0
 71144  1  0  0  0
 72 75  1  0  0  0
 72145  1  0  0  0
 73 76  2  0  0  0
 73146  1  0  0  0
 74 75  2  0  0  0
 74 76  1  0  0  0
 74147  1  0  0  0
 75 82  1  0  0  0
 76 83  1  0  0  0
 77 78  1  0  0  0
 77 79  1  0  0  0
 77 84  2  0  0  0
 78 80  1  0  0  0
 78148  1  0  0  0
 78149  1  0  0  0
 79 83  1  0  0  0
 79150  1  0  0  0
 79151  1  0  0  0
 80 81  1  0  0  0
 80152  1  0  0  0
 80153  1  0  0  0
 81154  1  0  0  0
 81155  1  0  0  0
 82156  1  0  0  0
 83157  1  0  0  0
M  ISO  4   1 100  68 101  81 101  82 100
M  END
> <chiral flag>
0

> <version>
0

> <s_m_source_file>
/data/baiqing/PycharmProjects/Reinvent-master-3.2/result/LINK_invent/BTK/process_docking_weight1_custom_product_contain_oxygen_bond_distance_aromatic_linkinvent_7_9_3/rearranged_h_0169.sdf

> <i_m_source_file_index>
9

> <r_mmod_Potential_Energy-OPLS-2005>
-48.1810684204102

> <r_mmod_Stretch_Energy-OPLS-2005>
35.7808036804199

> <r_mmod_Bend_Energy-OPLS-2005>
110.395446777344

> <r_mmod_Torsional_Energy-OPLS-2005>
235.087005615234

> <r_mmod_Improper_Torsional_Energy-OPLS-2005>
13.3362979888916

> <r_mmod_Van_der_Waal_Energy-OPLS-2005>
152.886016845703

> <r_mmod_Electrostatic_Energy-OPLS-2005>
-373.133056640625

> <r_mmod_Solvation_Energy-OPLS-2005>
-233.164367675781

> <b_mmod_Minimization_Converged-OPLS-2005>
0

> <r_mmod_RMS_Derivative-OPLS-2005>
2.49105930328369

$$$$
9
                    3D
 Structure written by MMmdl.
159167  0  0  1  0            999 V2000
  -30.7151  -14.5039   20.5584 C   0  0  0  0  0  0
  -30.4173  -12.3302   19.4239 C   0  0  0  0  0  0
  -29.4896  -12.5017   18.2052 C   0  0  0  0  0  0
  -28.0138  -12.3522   18.6228 C   0  0  0  0  0  0
  -27.6536  -13.2089   19.8657 C   0  0  2  0  0  0
  -28.6997  -13.0418   20.9899 C   0  0  0  0  0  0
  -25.2555  -13.8155   20.5689 C   0  0  0  0  0  0
  -24.1814  -13.0437   20.9189 C   0  0  0  0  0  0
  -24.6374  -11.6904   20.8755 C   0  0  0  0  0  0
  -23.9038  -10.4292   21.0410 C   0  0  0  0  0  0
  -24.3596   -9.4209   21.9193 C   0  0  0  0  0  0
  -23.6279   -8.2238   22.0756 C   0  0  0  0  0  0
  -22.4255   -8.0280   21.3554 C   0  0  0  0  0  0
  -21.9893   -9.0247   20.4650 C   0  0  0  0  0  0
  -22.7213  -10.2131   20.3055 C   0  0  0  0  0  0
  -21.6852   -6.0726   22.5282 C   0  0  0  0  0  0
  -21.4009   -6.5627   23.8216 C   0  0  0  0  0  0
  -21.3659   -5.6782   24.9176 C   0  0  0  0  0  0
  -21.6042   -4.3046   24.7227 C   0  0  0  0  0  0
  -21.8820   -3.8142   23.4347 C   0  0  0  0  0  0
  -21.9185   -4.6955   22.3399 C   0  0  0  0  0  0
  -22.7840  -13.5241   21.1848 C   0  0  0  0  0  0
  -22.1652   -4.2146   21.0978 F   0  0  0  0  0  0
  -21.5630   -3.4522   25.7734 F   0  0  0  0  0  0
  -30.0238  -13.3374   20.4229 N   0  0  0  0  0  0
  -26.2992  -12.9331   20.3366 N   0  0  0  0  0  0
  -25.9305  -11.6492   20.5797 N   0  0  0  0  0  0
  -22.0475  -12.8238   22.0406 N   0  0  0  0  0  0
  -25.4253  -15.1869   20.4058 N   0  0  0  0  0  0
  -31.8535  -14.6579   20.1148 O   0  0  0  0  0  0
  -21.6635   -6.8869   21.4245 O   0  0  0  0  0  0
  -22.3529  -14.5548   20.6694 O   0  0  0  0  0  0
  -24.6184  -31.8678   23.2091 C   0  0  0  0  0  0
  -25.9075  -32.4820   23.8393 C   0  0  1  0  0  0
  -27.2243  -27.4041   20.0991 C   0  0  0  0  0  0
  -25.5921  -33.8616   24.2334 N   0  0  0  0  0  0
  -23.4063  -30.4931   21.5510 C   0  0  2  0  0  0
  -24.8507  -28.9593   20.1117 C   0  0  0  0  0  0
  -22.7426  -29.4666   22.4981 C   0  0  0  0  0  0
  -18.0280  -28.1387   22.8517 C   0  0  0  0  0  0
  -24.1471  -36.7320   23.2636 C   0  0  0  0  0  0
  -25.9375  -30.8245   21.3657 C   0  0  0  0  0  0
  -26.0135  -29.4577   20.7116 C   0  0  0  0  0  0
  -27.2042  -28.6887   20.7000 C   0  0  0  0  0  0
  -26.0425  -26.9403   19.4755 C   0  0  0  0  0  0
  -24.8615  -27.7022   19.4875 C   0  0  0  0  0  0
  -23.6157  -29.8304   20.1638 C   0  0  0  0  0  0
  -25.4092  -36.3111   24.0343 C   0  0  1  0  0  0
  -20.5879  -28.3690   23.1316 C   0  0  2  0  0  0
  -20.6764  -26.9427   22.5421 C   0  0  0  0  0  0
  -19.5735  -26.6407   21.5219 C   0  0  0  0  0  0
  -18.1920  -26.7941   22.1638 C   0  0  0  0  0  0
  -19.1530  -28.8857   23.2914 C   0  0  0  0  0  0
  -18.9448  -30.1462   23.8928 C   0  0  0  0  0  0
  -17.6447  -30.6596   24.0578 C   0  0  0  0  0  0
  -25.9032  -34.9476   23.5129 C   0  0  0  0  0  0
  -16.5341  -29.9105   23.6325 C   0  0  0  0  0  0
  -16.7265  -28.6514   23.0362 C   0  0  0  0  0  0
  -26.4486  -31.6593   25.0716 C   0  0  0  0  0  0
  -25.3744  -31.3704   26.1452 C   0  0  0  0  0  0
  -27.0305  -30.3031   24.6089 C   0  0  0  0  0  0
  -27.6062  -32.4300   25.7482 C   0  0  0  0  0  0
  -27.5569  -37.1813   24.8469 C   0  0  0  0  0  0
  -21.4155  -29.3046   22.3713 N   0  0  0  0  0  0
  -26.4274  -37.3802   23.9420 N   0  0  0  0  0  0
  -24.6730  -31.0756   22.1004 N   0  0  0  0  0  0
  -23.4186  -28.8214   23.3042 O   0  0  0  0  0  0
  -28.3714  -26.6234   20.1409 O   0  0  0  0  0  0
  -26.5581  -34.8939   22.4683 O   0  0  0  0  0  0
  -23.5372  -32.1445   23.7467 O   0  0  0  0  0  0
  -29.1347  -19.9004   22.1041 C   0  0  0  0  0  0
  -29.0809  -18.4682   21.9962 C   0  0  0  0  0  0
  -29.4413  -18.0191   20.7432 C   0  0  0  0  0  0
  -29.4525  -20.5709   20.9415 C   0  0  0  0  0  0
  -28.9457  -22.8907   21.1756 C   0  0  0  0  0  0
  -27.8099  -22.6958   22.1763 C   0  0  0  0  0  0
  -29.7480  -25.0947   22.1692 C   0  0  0  0  0  0
  -29.5007  -16.6048   20.1858 C   0  0  0  0  0  0
  -28.1745  -25.1832   20.1489 C   0  0  0  0  0  0
  -29.2978  -24.3795   20.8798 C   0  0  2  0  0  0
  -28.6686  -17.5859   23.1479 C   0  0  0  0  0  0
  -29.6091  -21.9229   20.6405 N   0  0  0  0  0  0
  -30.0529  -15.5610   21.0729 N   0  0  0  0  0  0
  -28.0181  -18.2739   24.0879 F   0  0  0  0  0  0
  -27.8556  -16.6051   22.7546 F   0  0  0  0  0  0
  -29.7317  -17.0279   23.7234 F   0  0  0  0  0  0
  -29.7874  -19.3861   19.6950 S   0  0  0  0  0  0
  -31.4610  -12.4245   19.1181 H   0  0  0  0  0  0
  -30.3199  -11.3291   19.8454 H   0  0  0  0  0  0
  -29.7370  -11.7678   17.4367 H   0  0  0  0  0  0
  -29.6496  -13.4828   17.7554 H   0  0  0  0  0  0
  -27.8351  -11.2981   18.8372 H   0  0  0  0  0  0
  -27.3582  -12.6069   17.7891 H   0  0  0  0  0  0
  -27.6788  -14.2454   19.5365 H   0  0  0  0  0  0
  -28.6836  -12.0239   21.3823 H   0  0  0  0  0  0
  -28.4654  -13.6930   21.8332 H   0  0  0  0  0  0
  -25.2731   -9.5681   22.4788 H   0  0  0  0  0  0
  -23.9989   -7.4617   22.7465 H   0  0  0  0  0  0
  -21.0833   -8.8749   19.8951 H   0  0  0  0  0  0
  -22.3663  -10.9668   19.6165 H   0  0  0  0  0  0
  -21.2009   -7.6141   23.9715 H   0  0  0  0  0  0
  -21.1478   -6.0516   25.9080 H   0  0  0  0  0  0
  -22.0605   -2.7606   23.2852 H   0  0  0  0  0  0
  -22.4065  -11.9880   22.4779 H   0  0  0  0  0  0
  -21.1101  -13.1279   22.2616 H   0  0  0  0  0  0
  -24.6620  -15.8436   20.5240 H   0  0  0  0  0  0
  -26.2898  -15.6274   20.1225 H   0  0  0  0  0  0
  -26.7148  -32.5534   23.1160 H   0  0  0  0  0  0
  -25.0069  -33.9781   25.0479 H   0  0  0  0  0  0
  -22.6953  -31.3110   21.4148 H   0  0  0  0  0  0
  -23.3722  -35.9663   23.3308 H   0  0  0  0  0  0
  -24.3561  -36.8926   22.2048 H   0  0  0  0  0  0
  -23.7241  -37.6538   23.6638 H   0  0  0  0  0  0
  -26.0486  -31.5881   20.5943 H   0  0  0  0  0  0
  -26.8248  -30.8823   21.9841 H   0  0  0  0  0  0
  -28.0988  -29.0651   21.1746 H   0  0  0  0  0  0
  -26.0137  -25.9828   18.9755 H   0  0  0  0  0  0
  -23.9704  -27.3169   19.0117 H   0  0  0  0  0  0
  -23.7294  -30.6067   19.4061 H   0  0  0  0  0  0
  -22.7390  -29.2549   19.8641 H   0  0  0  0  0  0
  -25.1264  -36.1969   25.0838 H   0  0  0  0  0  0
  -20.9977  -28.3241   24.1433 H   0  0  0  0  0  0
  -20.5673  -26.2293   23.3606 H   0  0  0  0  0  0
  -21.6632  -26.7461   22.1208 H   0  0  0  0  0  0
  -19.6883  -25.6320   21.1241 H   0  0  0  0  0  0
  -19.6659  -27.3216   20.6747 H   0  0  0  0  0  0
  -17.4190  -26.6717   21.4035 H   0  0  0  0  0  0
  -18.0307  -26.0058   22.9007 H   0  0  0  0  0  0
  -19.7921  -30.7283   24.2297 H   0  0  0  0  0  0
  -17.5000  -31.6279   24.5179 H   0  0  0  0  0  0
  -15.5350  -30.3020   23.7628 H   0  0  0  0  0  0
  -15.8662  -28.0845   22.7068 H   0  0  0  0  0  0
  -24.5920  -30.7052   25.7777 H   0  0  0  0  0  0
  -24.8929  -32.2852   26.4901 H   0  0  0  0  0  0
  -25.8087  -30.8862   27.0205 H   0  0  0  0  0  0
  -26.2841  -29.6800   24.1138 H   0  0  0  0  0  0
  -27.4065  -29.7262   25.4552 H   0  0  0  0  0  0
  -27.8686  -30.4340   23.9239 H   0  0  0  0  0  0
  -27.2688  -33.3595   26.2080 H   0  0  0  0  0  0
  -28.3852  -32.6869   25.0291 H   0  0  0  0  0  0
  -28.0732  -31.8399   26.5373 H   0  0  0  0  0  0
  -28.2597  -38.0099   24.7496 H   0  0  0  0  0  0
  -28.1052  -36.2630   24.6300 H   0  0  0  0  0  0
  -27.2292  -37.1486   25.8876 H   0  0  0  0  0  0
  -20.9315  -29.8794   21.6965 H   0  0  0  0  0  0
  -26.0159  -38.2878   24.1429 H   0  0  0  0  0  0
  -28.9226  -20.3736   23.0513 H   0  0  0  0  0  0
  -27.1938  -23.5855   22.2777 H   0  0  0  0  0  0
  -28.2146  -22.4791   23.1635 H   0  0  0  0  0  0
  -27.1531  -21.8824   21.8698 H   0  0  0  0  0  0
  -30.5063  -24.5185   22.7009 H   0  0  0  0  0  0
  -28.9147  -25.2644   22.8525 H   0  0  0  0  0  0
  -30.1856  -26.0673   21.9403 H   0  0  0  0  0  0
  -30.0677  -16.6210   19.2510 H   0  0  0  0  0  0
  -28.4907  -16.3122   19.9018 H   0  0  0  0  0  0
  -27.2206  -24.9568   20.6232 H   0  0  0  0  0  0
  -28.0949  -24.8312   19.1185 H   0  0  0  0  0  0
  -30.1617  -24.3775   20.2131 H   0  0  0  0  0  0
  -30.6204  -15.9985   21.7825 H   0  0  0  0  0  0
  1 25  1  0  0  0
  1 30  2  0  0  0
  1 83  1  0  0  0
  2  3  1  0  0  0
  2 25  1  0  0  0
  2 88  1  0  0  0
  2 89  1  0  0  0
  3  4  1  0  0  0
  3 90  1  0  0  0
  3 91  1  0  0  0
  4  5  1  0  0  0
  4 92  1  0  0  0
  4 93  1  0  0  0
  5  6  1  0  0  0
  5 26  1  0  0  0
  5 94  1  0  0  0
  6 25  1  0  0  0
  6 95  1  0  0  0
  6 96  1  0  0  0
  7  8  2  0  0  0
  7 26  1  0  0  0
  7 29  1  0  0  0
  8  9  1  0  0  0
  8 22  1  0  0  0
  9 10  1  0  0  0
  9 27  2  0  0  0
 10 11  2  0  0  0
 10 15  1  0  0  0
 11 12  1  0  0  0
 11 97  1  0  0  0
 12 13  2  0  0  0
 12 98  1  0  0  0
 13 14  1  0  0  0
 13 31  1  0  0  0
 14 15  2  0  0  0
 14 99  1  0  0  0
 15100  1  0  0  0
 16 17  2  0  0  0
 16 21  1  0  0  0
 16 31  1  0  0  0
 17 18  1  0  0  0
 17101  1  0  0  0
 18 19  2  0  0  0
 18102  1  0  0  0
 19 20  1  0  0  0
 19 24  1  0  0  0
 20 21  2  0  0  0
 20103  1  0  0  0
 21 23  1  0  0  0
 22 28  1  0  0  0
 22 32  2  0  0  0
 26 27  1  0  0  0
 28104  1  0  0  0
 28105  1  0  0  0
 29106  1  0  0  0
 29107  1  0  0  0
 33 34  1  0  0  0
 33 66  1  0  0  0
 33 70  2  0  0  0
 34 36  1  0  0  0
 34 59  1  0  0  0
 34108  1  0  0  0
 35 44  2  0  0  0
 35 45  1  0  0  0
 35 68  1  0  0  0
 36 56  1  0  0  0
 36109  1  0  0  0
 37 39  1  0  0  0
 37 47  1  0  0  0
 37 66  1  0  0  0
 37110  1  0  0  0
 38 43  2  0  0  0
 38 46  1  0  0  0
 38 47  1  0  0  0
 39 64  1  0  0  0
 39 67  2  0  0  0
 40 52  1  0  0  0
 40 53  2  0  0  0
 40 58  1  0  0  0
 41111  1  0  0  0
 41112  1  0  0  0
 41113  1  0  0  0
 41 48  1  0  0  0
 42 43  1  0  0  0
 42 66  1  0  0  0
 42114  1  0  0  0
 42115  1  0  0  0
 43 44  1  0  0  0
 44116  1  0  0  0
 45 46  2  0  0  0
 45117  1  0  0  0
 46118  1  0  0  0
 47119  1  0  0  0
 47120  1  0  0  0
 48 56  1  0  0  0
 48 65  1  0  0  0
 48121  1  0  0  0
 49 50  1  0  0  0
 49 53  1  0  0  0
 49 64  1  0  0  0
 49122  1  0  0  0
 50 51  1  0  0  0
 50123  1  0  0  0
 50124  1  0  0  0
 51 52  1  0  0  0
 51125  1  0  0  0
 51126  1  0  0  0
 52127  1  0  0  0
 52128  1  0  0  0
 53 54  1  0  0  0
 54 55  2  0  0  0
 54129  1  0  0  0
 55 57  1  0  0  0
 55130  1  0  0  0
 56 69  2  0  0  0
 57 58  2  0  0  0
 57131  1  0  0  0
 58132  1  0  0  0
 59 60  1  0  0  0
 59 61  1  0  0  0
 59 62  1  0  0  0
 60133  1  0  0  0
 60134  1  0  0  0
 60135  1  0  0  0
 61136  1  0  0  0
 61137  1  0  0  0
 61138  1  0  0  0
 62139  1  0  0  0
 62140  1  0  0  0
 62141  1  0  0  0
 63 65  1  0  0  0
 63142  1  0  0  0
 63143  1  0  0  0
 63144  1  0  0  0
 64145  1  0  0  0
 65146  1  0  0  0
 68 79  1  0  0  0
 71 72  1  0  0  0
 71 74  2  0  0  0
 71147  1  0  0  0
 72 73  2  0  0  0
 72 81  1  0  0  0
 73 78  1  0  0  0
 73 87  1  0  0  0
 74 82  1  0  0  0
 74 87  1  0  0  0
 75 76  1  0  0  0
 75 80  1  0  0  0
 75 82  2  0  0  0
 76148  1  0  0  0
 76149  1  0  0  0
 76150  1  0  0  0
 77151  1  0  0  0
 77152  1  0  0  0
 77153  1  0  0  0
 77 80  1  0  0  0
 78 83  1  0  0  0
 78154  1  0  0  0
 78155  1  0  0  0
 79 80  1  0  0  0
 79156  1  0  0  0
 79157  1  0  0  0
 80158  1  0  0  0
 81 84  1  0  0  0
 81 85  1  0  0  0
 81 86  1  0  0  0
 83159  1  0  0  0
M  ISO  4   1 100  68 101  79 101  83 100
M  END
> <chiral flag>
0

> <version>
0

> <s_m_source_file>
/data/baiqing/PycharmProjects/Reinvent-master-3.2/result/LINK_invent/BTK/process_docking_weight1_custom_product_contain_oxygen_bond_distance_aromatic_linkinvent_7_9_3/rearranged_h_0169.sdf

> <i_m_source_file_index>
10

> <r_mmod_Potential_Energy-OPLS-2005>
-8.29279041290283

> <r_mmod_Stretch_Energy-OPLS-2005>
45.3989486694336

> <r_mmod_Bend_Energy-OPLS-2005>
125.105377197266

> <r_mmod_Torsional_Energy-OPLS-2005>
280.663024902344

> <r_mmod_Improper_Torsional_Energy-OPLS-2005>
8.53800201416016

> <r_mmod_Van_der_Waal_Energy-OPLS-2005>
135.140777587891

> <r_mmod_Electrostatic_Energy-OPLS-2005>
-425.921539306641

> <r_mmod_Solvation_Energy-OPLS-2005>
-197.006118774414

> <b_mmod_Minimization_Converged-OPLS-2005>
0

> <r_mmod_RMS_Derivative-OPLS-2005>
1.99524998664856

$$$$
10
                    3D
 Structure written by MMmdl.
158166  0  0  1  0            999 V2000
  -30.6434  -14.7169   20.4308 C   0  0  0  0  0  0
  -30.4275  -12.4316   19.4735 C   0  0  0  0  0  0
  -29.5109  -12.5019   18.2318 C   0  0  0  0  0  0
  -28.0361  -12.3293   18.6479 C   0  0  0  0  0  0
  -27.6429  -13.2327   19.8476 C   0  0  2  0  0  0
  -28.6872  -13.1737   20.9835 C   0  0  0  0  0  0
  -25.2515  -13.8202   20.5704 C   0  0  0  0  0  0
  -24.1797  -13.0456   20.9213 C   0  0  0  0  0  0
  -24.6377  -11.6929   20.8734 C   0  0  0  0  0  0
  -23.9043  -10.4312   21.0401 C   0  0  0  0  0  0
  -24.3598   -9.4222   21.9174 C   0  0  0  0  0  0
  -23.6279   -8.2256   22.0754 C   0  0  0  0  0  0
  -22.4257   -8.0290   21.3548 C   0  0  0  0  0  0
  -21.9883   -9.0263   20.4649 C   0  0  0  0  0  0
  -22.7215  -10.2145   20.3046 C   0  0  0  0  0  0
  -21.6859   -6.0724   22.5280 C   0  0  0  0  0  0
  -21.4027   -6.5629   23.8214 C   0  0  0  0  0  0
  -21.3658   -5.6782   24.9178 C   0  0  0  0  0  0
  -21.6044   -4.3046   24.7237 C   0  0  0  0  0  0
  -21.8812   -3.8132   23.4363 C   0  0  0  0  0  0
  -21.9205   -4.6951   22.3416 C   0  0  0  0  0  0
  -22.7816  -13.5243   21.1877 C   0  0  0  0  0  0
  -22.1666   -4.2135   21.0994 F   0  0  0  0  0  0
  -21.5629   -3.4532   25.7748 F   0  0  0  0  0  0
  -29.9931  -13.5041   20.3996 N   0  0  0  0  0  0
  -26.2938  -12.9415   20.3261 N   0  0  0  0  0  0
  -25.9301  -11.6553   20.5711 N   0  0  0  0  0  0
  -22.0438  -12.8246   22.0440 N   0  0  0  0  0  0
  -25.4211  -15.1927   20.4148 N   0  0  0  0  0  0
  -31.8411  -14.7617   20.1428 O   0  0  0  0  0  0
  -21.6640   -6.8870   21.4242 O   0  0  0  0  0  0
  -22.3512  -14.5559   20.6737 O   0  0  0  0  0  0
  -24.6304  -31.8575   23.2000 C   0  0  0  0  0  0
  -25.9145  -32.4760   23.8335 C   0  0  1  0  0  0
  -27.2110  -27.2671   20.1153 C   0  0  0  0  0  0
  -25.5940  -33.8560   24.2275 N   0  0  0  0  0  0
  -23.4272  -30.4805   21.5414 C   0  0  2  0  0  0
  -24.8754  -28.9386   20.0968 C   0  0  0  0  0  0
  -22.7497  -29.4625   22.4901 C   0  0  0  0  0  0
  -18.0290  -28.1382   22.8501 C   0  0  0  0  0  0
  -24.1483  -36.7293   23.2639 C   0  0  0  0  0  0
  -25.9735  -30.7686   21.3842 C   0  0  0  0  0  0
  -26.0428  -29.3933   20.7214 C   0  0  0  0  0  0
  -27.2119  -28.5649   20.7280 C   0  0  0  0  0  0
  -26.0383  -26.9117   19.4104 C   0  0  0  0  0  0
  -24.8778  -27.7060   19.4295 C   0  0  0  0  0  0
  -23.6453  -29.8217   20.1543 C   0  0  0  0  0  0
  -25.4105  -36.3084   24.0336 C   0  0  1  0  0  0
  -20.5892  -28.3724   23.1251 C   0  0  2  0  0  0
  -20.6772  -26.9434   22.5408 C   0  0  0  0  0  0
  -19.5755  -26.6396   21.5203 C   0  0  0  0  0  0
  -18.1933  -26.7931   22.1621 C   0  0  0  0  0  0
  -19.1542  -28.8864   23.2874 C   0  0  0  0  0  0
  -18.9471  -30.1455   23.8906 C   0  0  0  0  0  0
  -17.6470  -30.6588   24.0570 C   0  0  0  0  0  0
  -25.9048  -34.9447   23.5118 C   0  0  0  0  0  0
  -16.5360  -29.9092   23.6329 C   0  0  0  0  0  0
  -16.7281  -28.6501   23.0375 C   0  0  0  0  0  0
  -26.4510  -31.6585   25.0732 C   0  0  0  0  0  0
  -25.3737  -31.3739   26.1465 C   0  0  0  0  0  0
  -27.0351  -30.2995   24.6230 C   0  0  0  0  0  0
  -27.6070  -32.4316   25.7499 C   0  0  0  0  0  0
  -27.5578  -37.1795   24.8472 C   0  0  0  0  0  0
  -21.4213  -29.3065   22.3633 N   0  0  0  0  0  0
  -26.4295  -37.3775   23.9413 N   0  0  0  0  0  0
  -24.6952  -31.0526   22.0981 N   0  0  0  0  0  0
  -23.4197  -28.8167   23.3007 O   0  0  0  0  0  0
  -28.2762  -26.3371   20.2405 O   0  0  0  0  0  0
  -26.5610  -34.8928   22.4678 O   0  0  0  0  0  0
  -23.5455  -32.1405   23.7295 O   0  0  0  0  0  0
  -30.9223  -19.9426   19.2876 C   0  0  0  0  0  0
  -31.2576  -17.5151   19.2237 C   0  0  0  0  0  0
  -29.8689  -19.8237   20.2175 C   0  0  0  0  0  0
  -30.2329  -17.2797   20.1756 C   0  0  0  0  0  0
  -31.5999  -18.8121   18.7982 C   0  0  0  0  0  0
  -29.5326  -18.4670   20.6491 C   0  0  0  0  0  0
  -29.3048  -21.1453   20.7507 C   0  0  0  0  0  0
  -26.8305  -24.3725   20.9249 C   0  0  0  0  0  0
  -25.9692  -23.2608   20.3323 C   0  0  0  0  0  0
  -29.2317  -23.8248   20.5016 C   0  0  0  0  0  0
  -28.0453  -24.8399   20.0905 C   0  0  2  0  0  0
  -28.9156  -21.1958   22.0212 N   0  0  0  0  0  0
  -29.9089  -15.8844   20.5960 N   0  0  0  0  0  0
  -29.2447  -22.3417   20.0460 N   0  3  0  0  0  0
  -26.5659  -24.8520   22.0319 O   0  0  0  0  0  0
  -32.6073  -18.9774   17.9083 F   0  0  0  0  0  0
  -28.5397  -18.2918   21.5542 F   0  0  0  0  0  0
  -31.4730  -12.5312   19.1737 H   0  0  0  0  0  0
  -30.3502  -11.4559   19.9558 H   0  0  0  0  0  0
  -29.7867  -11.7316   17.5091 H   0  0  0  0  0  0
  -29.6425  -13.4567   17.7228 H   0  0  0  0  0  0
  -27.8908  -11.2816   18.9156 H   0  0  0  0  0  0
  -27.3772  -12.5197   17.8000 H   0  0  0  0  0  0
  -27.6362  -14.2531   19.4634 H   0  0  0  0  0  0
  -28.7085  -12.1811   21.4349 H   0  0  0  0  0  0
  -28.4277  -13.8705   21.7820 H   0  0  0  0  0  0
  -25.2742   -9.5719   22.4743 H   0  0  0  0  0  0
  -24.0008   -7.4648   22.7447 H   0  0  0  0  0  0
  -21.0825   -8.8770   19.8946 H   0  0  0  0  0  0
  -22.3661  -10.9681   19.6155 H   0  0  0  0  0  0
  -21.2007   -7.6130   23.9720 H   0  0  0  0  0  0
  -21.1482   -6.0505   25.9082 H   0  0  0  0  0  0
  -22.0586   -2.7592   23.2869 H   0  0  0  0  0  0
  -22.4043  -11.9935   22.4875 H   0  0  0  0  0  0
  -21.1044  -13.1278   22.2598 H   0  0  0  0  0  0
  -24.6500  -15.8420   20.5229 H   0  0  0  0  0  0
  -26.2652  -15.6352   20.0771 H   0  0  0  0  0  0
  -26.7199  -32.5428   23.1053 H   0  0  0  0  0  0
  -25.0090  -33.9689   25.0426 H   0  0  0  0  0  0
  -22.7231  -31.3029   21.3963 H   0  0  0  0  0  0
  -23.3745  -35.9627   23.3317 H   0  0  0  0  0  0
  -24.3584  -36.8911   22.2056 H   0  0  0  0  0  0
  -23.7238  -37.6500   23.6649 H   0  0  0  0  0  0
  -26.1136  -31.5325   20.6177 H   0  0  0  0  0  0
  -26.8468  -30.8138   22.0221 H   0  0  0  0  0  0
  -28.0964  -28.8970   21.2512 H   0  0  0  0  0  0
  -25.9830  -25.9829   18.8623 H   0  0  0  0  0  0
  -23.9932  -27.3627   18.9116 H   0  0  0  0  0  0
  -23.7668  -30.6009   19.4015 H   0  0  0  0  0  0
  -22.7657  -29.2536   19.8485 H   0  0  0  0  0  0
  -25.1271  -36.1945   25.0826 H   0  0  0  0  0  0
  -20.9982  -28.3316   24.1374 H   0  0  0  0  0  0
  -20.5636  -26.2345   23.3619 H   0  0  0  0  0  0
  -21.6640  -26.7437   22.1207 H   0  0  0  0  0  0
  -19.6915  -25.6299   21.1254 H   0  0  0  0  0  0
  -19.6672  -27.3181   20.6696 H   0  0  0  0  0  0
  -17.4189  -26.6691   21.4034 H   0  0  0  0  0  0
  -18.0339  -26.0056   22.8990 H   0  0  0  0  0  0
  -19.7956  -30.7275   24.2277 H   0  0  0  0  0  0
  -17.5035  -31.6276   24.5167 H   0  0  0  0  0  0
  -15.5363  -30.3003   23.7641 H   0  0  0  0  0  0
  -15.8685  -28.0814   22.7095 H   0  0  0  0  0  0
  -24.5916  -30.7067   25.7817 H   0  0  0  0  0  0
  -24.8908  -32.2907   26.4868 H   0  0  0  0  0  0
  -25.8083  -30.8957   27.0255 H   0  0  0  0  0  0
  -26.2932  -29.6731   24.1257 H   0  0  0  0  0  0
  -27.4021  -29.7282   25.4769 H   0  0  0  0  0  0
  -27.8829  -30.4250   23.9485 H   0  0  0  0  0  0
  -27.2673  -33.3615   26.2054 H   0  0  0  0  0  0
  -28.3884  -32.6861   25.0332 H   0  0  0  0  0  0
  -28.0711  -31.8446   26.5431 H   0  0  0  0  0  0
  -28.2590  -38.0086   24.7485 H   0  0  0  0  0  0
  -28.1068  -36.2617   24.6318 H   0  0  0  0  0  0
  -27.2302  -37.1481   25.8877 H   0  0  0  0  0  0
  -20.9394  -29.8824   21.6865 H   0  0  0  0  0  0
  -26.0196  -38.2867   24.1393 H   0  0  0  0  0  0
  -31.2533  -20.9158   18.9539 H   0  0  0  0  0  0
  -31.8172  -16.7086   18.7792 H   0  0  0  0  0  0
  -25.7851  -22.4834   21.0719 H   0  0  0  0  0  0
  -26.4618  -22.8039   19.4729 H   0  0  0  0  0  0
  -25.0112  -23.6619   20.0021 H   0  0  0  0  0  0
  -29.3503  -23.8592   21.5850 H   0  0  0  0  0  0
  -30.1565  -24.2591   20.1210 H   0  0  0  0  0  0
  -27.8176  -24.6634   19.0391 H   0  0  0  0  0  0
  -28.9243  -20.3411   22.5596 H   0  0  0  0  0  0
  -28.5279  -22.0174   22.4483 H   0  0  0  0  0  0
  -28.9815  -15.7575   20.9704 H   0  0  0  0  0  0
  -29.3852  -22.2401   19.0474 H   0  0  0  0  0  0
  1 25  1  0  0  0
  1 30  2  0  0  0
  1 83  1  0  0  0
  2  3  1  0  0  0
  2 25  1  0  0  0
  2 88  1  0  0  0
  2 89  1  0  0  0
  3  4  1  0  0  0
  3 90  1  0  0  0
  3 91  1  0  0  0
  4  5  1  0  0  0
  4 92  1  0  0  0
  4 93  1  0  0  0
  5  6  1  0  0  0
  5 26  1  0  0  0
  5 94  1  0  0  0
  6 25  1  0  0  0
  6 95  1  0  0  0
  6 96  1  0  0  0
  7  8  2  0  0  0
  7 26  1  0  0  0
  7 29  1  0  0  0
  8  9  1  0  0  0
  8 22  1  0  0  0
  9 10  1  0  0  0
  9 27  2  0  0  0
 10 11  2  0  0  0
 10 15  1  0  0  0
 11 12  1  0  0  0
 11 97  1  0  0  0
 12 13  2  0  0  0
 12 98  1  0  0  0
 13 14  1  0  0  0
 13 31  1  0  0  0
 14 15  2  0  0  0
 14 99  1  0  0  0
 15100  1  0  0  0
 16 17  2  0  0  0
 16 21  1  0  0  0
 16 31  1  0  0  0
 17 18  1  0  0  0
 17101  1  0  0  0
 18 19  2  0  0  0
 18102  1  0  0  0
 19 20  1  0  0  0
 19 24  1  0  0  0
 20 21  2  0  0  0
 20103  1  0  0  0
 21 23  1  0  0  0
 22 28  1  0  0  0
 22 32  2  0  0  0
 26 27  1  0  0  0
 28104  1  0  0  0
 28105  1  0  0  0
 29106  1  0  0  0
 29107  1  0  0  0
 33 34  1  0  0  0
 33 66  1  0  0  0
 33 70  2  0  0  0
 34 36  1  0  0  0
 34 59  1  0  0  0
 34108  1  0  0  0
 35 44  2  0  0  0
 35 45  1  0  0  0
 35 68  1  0  0  0
 36 56  1  0  0  0
 36109  1  0  0  0
 37 39  1  0  0  0
 37 47  1  0  0  0
 37 66  1  0  0  0
 37110  1  0  0  0
 38 43  2  0  0  0
 38 46  1  0  0  0
 38 47  1  0  0  0
 39 64  1  0  0  0
 39 67  2  0  0  0
 40 52  1  0  0  0
 40 53  2  0  0  0
 40 58  1  0  0  0
 41111  1  0  0  0
 41112  1  0  0  0
 41113  1  0  0  0
 41 48  1  0  0  0
 42 43  1  0  0  0
 42 66  1  0  0  0
 42114  1  0  0  0
 42115  1  0  0  0
 43 44  1  0  0  0
 44116  1  0  0  0
 45 46  2  0  0  0
 45117  1  0  0  0
 46118  1  0  0  0
 47119  1  0  0  0
 47120  1  0  0  0
 48 56  1  0  0  0
 48 65  1  0  0  0
 48121  1  0  0  0
 49 50  1  0  0  0
 49 53  1  0  0  0
 49 64  1  0  0  0
 49122  1  0  0  0
 50 51  1  0  0  0
 50123  1  0  0  0
 50124  1  0  0  0
 51 52  1  0  0  0
 51125  1  0  0  0
 51126  1  0  0  0
 52127  1  0  0  0
 52128  1  0  0  0
 53 54  1  0  0  0
 54 55  2  0  0  0
 54129  1  0  0  0
 55 57  1  0  0  0
 55130  1  0  0  0
 56 69  2  0  0  0
 57 58  2  0  0  0
 57131  1  0  0  0
 58132  1  0  0  0
 59 60  1  0  0  0
 59 61  1  0  0  0
 59 62  1  0  0  0
 60133  1  0  0  0
 60134  1  0  0  0
 60135  1  0  0  0
 61136  1  0  0  0
 61137  1  0  0  0
 61138  1  0  0  0
 62139  1  0  0  0
 62140  1  0  0  0
 62141  1  0  0  0
 63 65  1  0  0  0
 63142  1  0  0  0
 63143  1  0  0  0
 63144  1  0  0  0
 64145  1  0  0  0
 65146  1  0  0  0
 68 81  1  0  0  0
 71 73  2  0  0  0
 71 75  1  0  0  0
 71147  1  0  0  0
 72 74  1  0  0  0
 72 75  2  0  0  0
 72148  1  0  0  0
 73 76  1  0  0  0
 73 77  1  0  0  0
 74 76  2  0  0  0
 74 83  1  0  0  0
 75 86  1  0  0  0
 76 87  1  0  0  0
 77 82  1  0  0  0
 77 84  2  0  0  0
 78 79  1  0  0  0
 78 81  1  0  0  0
 78 85  2  0  0  0
 79149  1  0  0  0
 79150  1  0  0  0
 79151  1  0  0  0
 80 84  1  0  0  0
 80152  1  0  0  0
 80153  1  0  0  0
 80 81  1  0  0  0
 81154  1  0  0  0
 82155  1  0  0  0
 82156  1  0  0  0
 83157  1  0  0  0
 84158  1  0  0  0
M  CHG  1  84   1
M  ISO  4   1 100  68 101  81 101  83 100
M  END
> <chiral flag>
0

> <version>
0

> <s_m_source_file>
/data/baiqing/PycharmProjects/Reinvent-master-3.2/result/LINK_invent/BTK/process_docking_weight1_custom_product_contain_oxygen_bond_distance_aromatic_linkinvent_7_9_3/rearranged_h_0169.sdf

> <i_m_source_file_index>
11

> <r_mmod_Potential_Energy-OPLS-2005>
-108.528289794922

> <r_mmod_Stretch_Energy-OPLS-2005>
128.218948364258

> <r_mmod_Bend_Energy-OPLS-2005>
161.09912109375

> <r_mmod_Torsional_Energy-OPLS-2005>
224.662139892578

> <r_mmod_Improper_Torsional_Energy-OPLS-2005>
5.76722097396851

> <r_mmod_Van_der_Waal_Energy-OPLS-2005>
149.767440795898

> <r_mmod_Electrostatic_Energy-OPLS-2005>
-406.691131591797

> <r_mmod_Solvation_Energy-OPLS-2005>
-457.904479980469

> <b_mmod_Minimization_Converged-OPLS-2005>
0

> <r_mmod_RMS_Derivative-OPLS-2005>
3.09738540649414

$$$$
11
                    3D
 Structure written by MMmdl.
150158  0  0  1  0            999 V2000
  -30.6988  -14.4886   20.5280 C   0  0  0  0  0  0
  -30.4145  -12.3023   19.4352 C   0  0  0  0  0  0
  -29.4939  -12.5000   18.2129 C   0  0  0  0  0  0
  -28.0137  -12.3662   18.6205 C   0  0  0  0  0  0
  -27.6578  -13.2121   19.8727 C   0  0  2  0  0  0
  -28.6997  -13.0155   20.9981 C   0  0  0  0  0  0
  -25.2570  -13.8174   20.5704 C   0  0  0  0  0  0
  -24.1821  -13.0443   20.9188 C   0  0  0  0  0  0
  -24.6379  -11.6913   20.8729 C   0  0  0  0  0  0
  -23.9050  -10.4293   21.0399 C   0  0  0  0  0  0
  -24.3603   -9.4209   21.9179 C   0  0  0  0  0  0
  -23.6285   -8.2243   22.0749 C   0  0  0  0  0  0
  -22.4269   -8.0275   21.3541 C   0  0  0  0  0  0
  -21.9896   -9.0252   20.4651 C   0  0  0  0  0  0
  -22.7220  -10.2134   20.3056 C   0  0  0  0  0  0
  -21.6848   -6.0738   22.5280 C   0  0  0  0  0  0
  -21.4013   -6.5641   23.8216 C   0  0  0  0  0  0
  -21.3655   -5.6792   24.9176 C   0  0  0  0  0  0
  -21.6045   -4.3054   24.7229 C   0  0  0  0  0  0
  -21.8818   -3.8148   23.4349 C   0  0  0  0  0  0
  -21.9191   -4.6964   22.3406 C   0  0  0  0  0  0
  -22.7843  -13.5240   21.1857 C   0  0  0  0  0  0
  -22.1652   -4.2152   21.0980 F   0  0  0  0  0  0
  -21.5634   -3.4534   25.7736 F   0  0  0  0  0  0
  -30.0309  -13.3052   20.4420 N   0  0  0  0  0  0
  -26.2997  -12.9352   20.3356 N   0  0  0  0  0  0
  -25.9306  -11.6504   20.5752 N   0  0  0  0  0  0
  -22.0481  -12.8228   22.0406 N   0  0  0  0  0  0
  -25.4313  -15.1896   20.4152 N   0  0  0  0  0  0
  -31.8519  -14.6186   20.1077 O   0  0  0  0  0  0
  -21.6635   -6.8871   21.4239 O   0  0  0  0  0  0
  -22.3528  -14.5551   20.6717 O   0  0  0  0  0  0
  -24.6149  -31.8684   23.2112 C   0  0  0  0  0  0
  -25.9042  -32.4827   23.8407 C   0  0  1  0  0  0
  -27.2293  -27.4326   20.1000 C   0  0  0  0  0  0
  -25.5894  -33.8627   24.2337 N   0  0  0  0  0  0
  -23.4036  -30.4925   21.5514 C   0  0  2  0  0  0
  -24.8511  -28.9604   20.1130 C   0  0  0  0  0  0
  -22.7419  -29.4654   22.4985 C   0  0  0  0  0  0
  -18.0272  -28.1381   22.8491 C   0  0  0  0  0  0
  -24.1483  -36.7317   23.2638 C   0  0  0  0  0  0
  -25.9332  -30.8338   21.3651 C   0  0  0  0  0  0
  -26.0121  -29.4686   20.7110 C   0  0  0  0  0  0
  -27.2079  -28.7119   20.7015 C   0  0  0  0  0  0
  -26.0551  -26.9436   19.4889 C   0  0  0  0  0  0
  -24.8670  -27.6972   19.4972 C   0  0  0  0  0  0
  -23.6138  -29.8283   20.1648 C   0  0  0  0  0  0
  -25.4104  -36.3116   24.0340 C   0  0  1  0  0  0
  -20.5864  -28.3666   23.1319 C   0  0  2  0  0  0
  -20.6761  -26.9402   22.5419 C   0  0  0  0  0  0
  -19.5741  -26.6388   21.5213 C   0  0  0  0  0  0
  -18.1921  -26.7927   22.1624 C   0  0  0  0  0  0
  -19.1522  -28.8840   23.2903 C   0  0  0  0  0  0
  -18.9449  -30.1446   23.8914 C   0  0  0  0  0  0
  -17.6452  -30.6586   24.0564 C   0  0  0  0  0  0
  -25.9029  -34.9478   23.5135 C   0  0  0  0  0  0
  -16.5342  -29.9090   23.6323 C   0  0  0  0  0  0
  -16.7262  -28.6507   23.0344 C   0  0  0  0  0  0
  -26.4468  -31.6603   25.0732 C   0  0  0  0  0  0
  -25.3743  -31.3708   26.1490 C   0  0  0  0  0  0
  -27.0286  -30.3044   24.6098 C   0  0  0  0  0  0
  -27.6056  -32.4310   25.7488 C   0  0  0  0  0  0
  -27.5578  -37.1814   24.8466 C   0  0  0  0  0  0
  -21.4144  -29.3033   22.3727 N   0  0  0  0  0  0
  -26.4293  -37.3797   23.9408 N   0  0  0  0  0  0
  -24.6687  -31.0789   22.1012 N   0  0  0  0  0  0
  -23.4190  -28.8190   23.3021 O   0  0  0  0  0  0
  -28.3615  -26.6469   20.1152 O   0  0  0  0  0  0
  -26.5590  -34.8927   22.4696 O   0  0  0  0  0  0
  -23.5341  -32.1426   23.7507 O   0  0  0  0  0  0
  -29.3359  -17.9730   21.2244 C   0  0  0  0  0  0
  -31.1296  -17.4460   19.8191 C   0  0  0  0  0  0
  -30.1740  -16.9448   20.6705 C   0  0  0  0  0  0
  -29.6655  -19.2416   20.7862 C   0  0  0  0  0  0
  -28.2067  -25.3967   20.6814 C   0  0  0  0  0  0
  -28.8882  -24.2962   20.2931 C   0  0  0  0  0  0
  -28.6521  -22.9680   20.9393 C   0  0  0  0  0  0
  -29.4675  -21.7337   20.4804 C   0  0  0  0  0  0
  -29.9736  -15.5473   20.9598 N   0  0  0  0  0  0
  -29.0638  -20.4664   21.1204 N   0  0  0  0  0  0
  -27.8176  -22.8087   21.8382 O   0  0  0  0  0  0
  -29.7918  -24.3670   19.3056 O   0  0  0  0  0  0
  -31.0219  -19.1790   19.6807 S   0  0  0  0  0  0
  -31.4613  -12.3824   19.1357 H   0  0  0  0  0  0
  -30.2987  -11.2981   19.8463 H   0  0  0  0  0  0
  -29.7354  -11.7738   17.4362 H   0  0  0  0  0  0
  -29.6650  -13.4847   17.7745 H   0  0  0  0  0  0
  -27.8177  -11.3116   18.8163 H   0  0  0  0  0  0
  -27.3672  -12.6436   17.7876 H   0  0  0  0  0  0
  -27.6962  -14.2570   19.5631 H   0  0  0  0  0  0
  -28.6728  -11.9886   21.3659 H   0  0  0  0  0  0
  -28.4662  -13.6433   21.8593 H   0  0  0  0  0  0
  -25.2745   -9.5691   22.4758 H   0  0  0  0  0  0
  -24.0002   -7.4628   22.7457 H   0  0  0  0  0  0
  -21.0828   -8.8770   19.8952 H   0  0  0  0  0  0
  -22.3671  -10.9677   19.6173 H   0  0  0  0  0  0
  -21.2000   -7.6149   23.9717 H   0  0  0  0  0  0
  -21.1477   -6.0526   25.9083 H   0  0  0  0  0  0
  -22.0603   -2.7613   23.2853 H   0  0  0  0  0  0
  -22.4079  -11.9873   22.4784 H   0  0  0  0  0  0
  -21.1110  -13.1277   22.2623 H   0  0  0  0  0  0
  -24.6720  -15.8510   20.5364 H   0  0  0  0  0  0
  -26.2884  -15.6257   20.0997 H   0  0  0  0  0  0
  -26.7116  -32.5540   23.1176 H   0  0  0  0  0  0
  -25.0056  -33.9790   25.0488 H   0  0  0  0  0  0
  -22.6919  -31.3090   21.4137 H   0  0  0  0  0  0
  -23.3738  -35.9657   23.3318 H   0  0  0  0  0  0
  -24.3575  -36.8910   22.2048 H   0  0  0  0  0  0
  -23.7241  -37.6532   23.6635 H   0  0  0  0  0  0
  -26.0452  -31.6007   20.5971 H   0  0  0  0  0  0
  -26.8213  -30.8874   21.9833 H   0  0  0  0  0  0
  -28.1036  -29.0948   21.1697 H   0  0  0  0  0  0
  -26.0584  -25.9725   19.0142 H   0  0  0  0  0  0
  -23.9758  -27.3012   19.0300 H   0  0  0  0  0  0
  -23.7255  -30.6062   19.4087 H   0  0  0  0  0  0
  -22.7368  -29.2521   19.8646 H   0  0  0  0  0  0
  -25.1277  -36.1987   25.0834 H   0  0  0  0  0  0
  -20.9956  -28.3227   24.1440 H   0  0  0  0  0  0
  -20.5660  -26.2272   23.3605 H   0  0  0  0  0  0
  -21.6632  -26.7441   22.1213 H   0  0  0  0  0  0
  -19.6900  -25.6301   21.1237 H   0  0  0  0  0  0
  -19.6686  -27.3205   20.6751 H   0  0  0  0  0  0
  -17.4191  -26.6675   21.4028 H   0  0  0  0  0  0
  -18.0324  -26.0068   22.9022 H   0  0  0  0  0  0
  -19.7926  -30.7254   24.2295 H   0  0  0  0  0  0
  -17.5008  -31.6268   24.5162 H   0  0  0  0  0  0
  -15.5344  -30.2998   23.7636 H   0  0  0  0  0  0
  -15.8662  -28.0834   22.7046 H   0  0  0  0  0  0
  -24.5915  -30.7051   25.7838 H   0  0  0  0  0  0
  -24.8937  -32.2863   26.4951 H   0  0  0  0  0  0
  -25.8109  -30.8877   27.0242 H   0  0  0  0  0  0
  -26.2829  -29.6835   24.1119 H   0  0  0  0  0  0
  -27.4019  -29.7249   25.4552 H   0  0  0  0  0  0
  -27.8682  -30.4363   23.9271 H   0  0  0  0  0  0
  -27.2688  -33.3599   26.2103 H   0  0  0  0  0  0
  -28.3846  -32.6885   25.0299 H   0  0  0  0  0  0
  -28.0746  -31.8409   26.5373 H   0  0  0  0  0  0
  -28.2611  -38.0097   24.7492 H   0  0  0  0  0  0
  -28.1056  -36.2627   24.6309 H   0  0  0  0  0  0
  -27.2295  -37.1492   25.8870 H   0  0  0  0  0  0
  -20.9303  -29.8770   21.6965 H   0  0  0  0  0  0
  -26.0184  -38.2880   24.1399 H   0  0  0  0  0  0
  -28.5305  -17.7510   21.9107 H   0  0  0  0  0  0
  -31.8896  -16.9256   19.2490 H   0  0  0  0  0  0
  -27.4704  -25.3882   21.4769 H   0  0  0  0  0  0
  -30.5199  -21.9320   20.6878 H   0  0  0  0  0  0
  -29.3649  -21.6472   19.3980 H   0  0  0  0  0  0
  -29.0951  -15.3075   21.3940 H   0  0  0  0  0  0
  -28.3167  -20.5725   21.8054 H   0  0  0  0  0  0
  -29.8042  -25.2701   19.0143 H   0  0  0  0  0  0
  1 25  1  0  0  0
  1 30  2  0  0  0
  1 79  1  0  0  0
  2  3  1  0  0  0
  2 25  1  0  0  0
  2 84  1  0  0  0
  2 85  1  0  0  0
  3  4  1  0  0  0
  3 86  1  0  0  0
  3 87  1  0  0  0
  4  5  1  0  0  0
  4 88  1  0  0  0
  4 89  1  0  0  0
  5  6  1  0  0  0
  5 26  1  0  0  0
  5 90  1  0  0  0
  6 25  1  0  0  0
  6 91  1  0  0  0
  6 92  1  0  0  0
  7  8  2  0  0  0
  7 26  1  0  0  0
  7 29  1  0  0  0
  8  9  1  0  0  0
  8 22  1  0  0  0
  9 10  1  0  0  0
  9 27  2  0  0  0
 10 11  2  0  0  0
 10 15  1  0  0  0
 11 12  1  0  0  0
 11 93  1  0  0  0
 12 13  2  0  0  0
 12 94  1  0  0  0
 13 14  1  0  0  0
 13 31  1  0  0  0
 14 15  2  0  0  0
 14 95  1  0  0  0
 15 96  1  0  0  0
 16 17  2  0  0  0
 16 21  1  0  0  0
 16 31  1  0  0  0
 17 18  1  0  0  0
 17 97  1  0  0  0
 18 19  2  0  0  0
 18 98  1  0  0  0
 19 20  1  0  0  0
 19 24  1  0  0  0
 20 21  2  0  0  0
 20 99  1  0  0  0
 21 23  1  0  0  0
 22 28  1  0  0  0
 22 32  2  0  0  0
 26 27  1  0  0  0
 28100  1  0  0  0
 28101  1  0  0  0
 29102  1  0  0  0
 29103  1  0  0  0
 33 34  1  0  0  0
 33 66  1  0  0  0
 33 70  2  0  0  0
 34 36  1  0  0  0
 34 59  1  0  0  0
 34104  1  0  0  0
 35 44  2  0  0  0
 35 45  1  0  0  0
 35 68  1  0  0  0
 36 56  1  0  0  0
 36105  1  0  0  0
 37 39  1  0  0  0
 37 47  1  0  0  0
 37 66  1  0  0  0
 37106  1  0  0  0
 38 43  2  0  0  0
 38 46  1  0  0  0
 38 47  1  0  0  0
 39 64  1  0  0  0
 39 67  2  0  0  0
 40 52  1  0  0  0
 40 53  2  0  0  0
 40 58  1  0  0  0
 41107  1  0  0  0
 41108  1  0  0  0
 41109  1  0  0  0
 41 48  1  0  0  0
 42 43  1  0  0  0
 42 66  1  0  0  0
 42110  1  0  0  0
 42111  1  0  0  0
 43 44  1  0  0  0
 44112  1  0  0  0
 45 46  2  0  0  0
 45113  1  0  0  0
 46114  1  0  0  0
 47115  1  0  0  0
 47116  1  0  0  0
 48 56  1  0  0  0
 48 65  1  0  0  0
 48117  1  0  0  0
 49 50  1  0  0  0
 49 53  1  0  0  0
 49 64  1  0  0  0
 49118  1  0  0  0
 50 51  1  0  0  0
 50119  1  0  0  0
 50120  1  0  0  0
 51 52  1  0  0  0
 51121  1  0  0  0
 51122  1  0  0  0
 52123  1  0  0  0
 52124  1  0  0  0
 53 54  1  0  0  0
 54 55  2  0  0  0
 54125  1  0  0  0
 55 57  1  0  0  0
 55126  1  0  0  0
 56 69  2  0  0  0
 57 58  2  0  0  0
 57127  1  0  0  0
 58128  1  0  0  0
 59 60  1  0  0  0
 59 61  1  0  0  0
 59 62  1  0  0  0
 60129  1  0  0  0
 60130  1  0  0  0
 60131  1  0  0  0
 61132  1  0  0  0
 61133  1  0  0  0
 61134  1  0  0  0
 62135  1  0  0  0
 62136  1  0  0  0
 62137  1  0  0  0
 63 65  1  0  0  0
 63138  1  0  0  0
 63139  1  0  0  0
 63140  1  0  0  0
 64141  1  0  0  0
 65142  1  0  0  0
 68 75  1  0  0  0
 71 73  1  0  0  0
 71 74  2  0  0  0
 71143  1  0  0  0
 72 73  2  0  0  0
 72 83  1  0  0  0
 72144  1  0  0  0
 73 79  1  0  0  0
 74 80  1  0  0  0
 74 83  1  0  0  0
 75 76  2  0  0  0
 75145  1  0  0  0
 76 77  1  0  0  0
 76 82  1  0  0  0
 77 78  1  0  0  0
 77 81  2  0  0  0
 78 80  1  0  0  0
 78146  1  0  0  0
 78147  1  0  0  0
 79148  1  0  0  0
 80149  1  0  0  0
 82150  1  0  0  0
M  ISO  4   1 100  68 101  75 101  79 100
M  END
> <chiral flag>
0

> <version>
0

> <s_m_source_file>
/data/baiqing/PycharmProjects/Reinvent-master-3.2/result/LINK_invent/BTK/process_docking_weight1_custom_product_contain_oxygen_bond_distance_aromatic_linkinvent_7_9_3/rearranged_h_0169.sdf

> <i_m_source_file_index>
12

> <r_mmod_Potential_Energy-OPLS-2005>
-32.2571678161621

> <r_mmod_Stretch_Energy-OPLS-2005>
38.9563789367676

> <r_mmod_Bend_Energy-OPLS-2005>
101.315277099609

> <r_mmod_Torsional_Energy-OPLS-2005>
199.151626586914

> <r_mmod_Improper_Torsional_Energy-OPLS-2005>
3.80039358139038

> <r_mmod_Van_der_Waal_Energy-OPLS-2005>
139.142227172852

> <r_mmod_Electrostatic_Energy-OPLS-2005>
-301.525482177734

> <r_mmod_Solvation_Energy-OPLS-2005>
-229.395767211914

> <b_mmod_Minimization_Converged-OPLS-2005>
0

> <r_mmod_RMS_Derivative-OPLS-2005>
0.909169733524323

$$$$
12
                    3D
 Structure written by MMmdl.
159167  0  0  1  0            999 V2000
  -30.6923  -14.4634   20.5926 C   0  0  0  0  0  0
  -30.4288  -12.3054   19.4263 C   0  0  0  0  0  0
  -29.4997  -12.5177   18.2118 C   0  0  0  0  0  0
  -28.0202  -12.3719   18.6204 C   0  0  0  0  0  0
  -27.6660  -13.2015   19.8824 C   0  0  2  0  0  0
  -28.7054  -12.9640   21.0032 C   0  0  0  0  0  0
  -25.2594  -13.8139   20.5688 C   0  0  0  0  0  0
  -24.1836  -13.0422   20.9162 C   0  0  0  0  0  0
  -24.6387  -11.6889   20.8713 C   0  0  0  0  0  0
  -23.9052  -10.4283   21.0389 C   0  0  0  0  0  0
  -24.3602   -9.4193   21.9163 C   0  0  0  0  0  0
  -23.6275   -8.2233   22.0739 C   0  0  0  0  0  0
  -22.4253   -8.0271   21.3541 C   0  0  0  0  0  0
  -21.9889   -9.0245   20.4639 C   0  0  0  0  0  0
  -22.7225  -10.2121   20.3034 C   0  0  0  0  0  0
  -21.6849   -6.0726   22.5283 C   0  0  0  0  0  0
  -21.4021   -6.5626   23.8219 C   0  0  0  0  0  0
  -21.3660   -5.6769   24.9178 C   0  0  0  0  0  0
  -21.6044   -4.3034   24.7220 C   0  0  0  0  0  0
  -21.8817   -3.8134   23.4343 C   0  0  0  0  0  0
  -21.9195   -4.6959   22.3404 C   0  0  0  0  0  0
  -22.7859  -13.5231   21.1837 C   0  0  0  0  0  0
  -22.1658   -4.2148   21.0981 F   0  0  0  0  0  0
  -21.5630   -3.4519   25.7733 F   0  0  0  0  0  0
  -30.0432  -13.2738   20.4648 N   0  0  0  0  0  0
  -26.3032  -12.9302   20.3381 N   0  0  0  0  0  0
  -25.9312  -11.6473   20.5750 N   0  0  0  0  0  0
  -22.0502  -12.8229   22.0397 N   0  0  0  0  0  0
  -25.4311  -15.1862   20.4149 N   0  0  0  0  0  0
  -31.7751  -14.7090   20.0527 O   0  0  0  0  0  0
  -21.6617   -6.8869   21.4241 O   0  0  0  0  0  0
  -22.3551  -14.5553   20.6716 O   0  0  0  0  0  0
  -24.6139  -31.8677   23.2094 C   0  0  0  0  0  0
  -25.9030  -32.4819   23.8394 C   0  0  1  0  0  0
  -27.2336  -27.4408   20.1081 C   0  0  0  0  0  0
  -25.5873  -33.8618   24.2311 N   0  0  0  0  0  0
  -23.4018  -30.4904   21.5497 C   0  0  2  0  0  0
  -24.8504  -28.9564   20.1125 C   0  0  0  0  0  0
  -22.7407  -29.4663   22.4995 C   0  0  0  0  0  0
  -18.0268  -28.1381   22.8491 C   0  0  0  0  0  0
  -24.1481  -36.7326   23.2637 C   0  0  0  0  0  0
  -25.9293  -30.8382   21.3591 C   0  0  0  0  0  0
  -26.0090  -29.4737   20.7063 C   0  0  0  0  0  0
  -27.2075  -28.7254   20.6956 C   0  0  0  0  0  0
  -26.0643  -26.9357   19.5052 C   0  0  0  0  0  0
  -24.8726  -27.6867   19.5061 C   0  0  0  0  0  0
  -23.6095  -29.8201   20.1643 C   0  0  0  0  0  0
  -25.4103  -36.3116   24.0333 C   0  0  1  0  0  0
  -20.5857  -28.3668   23.1314 C   0  0  2  0  0  0
  -20.6760  -26.9403   22.5422 C   0  0  0  0  0  0
  -19.5744  -26.6388   21.5215 C   0  0  0  0  0  0
  -18.1919  -26.7926   22.1623 C   0  0  0  0  0  0
  -19.1516  -28.8841   23.2899 C   0  0  0  0  0  0
  -18.9449  -30.1443   23.8916 C   0  0  0  0  0  0
  -17.6455  -30.6586   24.0568 C   0  0  0  0  0  0
  -25.9030  -34.9483   23.5129 C   0  0  0  0  0  0
  -16.5345  -29.9090   23.6329 C   0  0  0  0  0  0
  -16.7261  -28.6506   23.0351 C   0  0  0  0  0  0
  -26.4459  -31.6595   25.0722 C   0  0  0  0  0  0
  -25.3732  -31.3701   26.1477 C   0  0  0  0  0  0
  -27.0286  -30.3039   24.6085 C   0  0  0  0  0  0
  -27.6039  -32.4315   25.7470 C   0  0  0  0  0  0
  -27.5579  -37.1811   24.8457 C   0  0  0  0  0  0
  -21.4138  -29.3031   22.3720 N   0  0  0  0  0  0
  -26.4287  -37.3801   23.9409 N   0  0  0  0  0  0
  -24.6669  -31.0790   22.0983 N   0  0  0  0  0  0
  -23.4176  -28.8220   23.3047 O   0  0  0  0  0  0
  -28.3747  -26.6686   20.1317 O   0  0  0  0  0  0
  -26.5614  -34.8932   22.4701 O   0  0  0  0  0  0
  -23.5330  -32.1422   23.7492 O   0  0  0  0  0  0
  -29.1194  -17.0315   19.7054 C   0  0  0  0  0  0
  -30.3117  -17.8442   21.6350 C   0  0  0  0  0  0
  -28.8308  -18.3722   19.3778 C   0  0  0  0  0  0
  -29.8608  -16.7496   20.8690 C   0  0  0  0  0  0
  -29.3098  -19.4001   20.2167 C   0  0  0  0  0  0
  -28.8622  -23.2129   20.2075 C   0  0  0  0  0  0
  -27.9919  -18.6762   18.1457 C   0  0  0  0  0  0
  -28.6180  -26.2422   22.5094 C   0  0  0  0  0  0
  -29.4060  -24.5151   20.8232 C   0  0  0  0  0  0
  -29.4479  -21.8789   20.7163 C   0  0  0  0  0  0
  -28.3549  -25.6218   21.1237 C   0  0  2  0  0  0
  -30.0479  -19.1388   21.3154 N   0  0  0  0  0  0
  -30.0413  -15.4016   21.3012 N   0  0  0  0  0  0
  -29.0003  -20.7347   19.9196 N   0  0  0  0  0  0
  -27.9957  -23.2266   19.3259 O   0  0  0  0  0  0
  -31.4745  -12.4074   19.1293 H   0  0  0  0  0  0
  -30.3280  -11.2893   19.8116 H   0  0  0  0  0  0
  -29.7401  -11.8010   17.4260 H   0  0  0  0  0  0
  -29.6674  -13.5080   17.7838 H   0  0  0  0  0  0
  -27.8290  -11.3142   18.8093 H   0  0  0  0  0  0
  -27.3717  -12.6552   17.7908 H   0  0  0  0  0  0
  -27.7128  -14.2512   19.5959 H   0  0  0  0  0  0
  -28.6803  -11.9216   21.3247 H   0  0  0  0  0  0
  -28.4565  -13.5415   21.8933 H   0  0  0  0  0  0
  -25.2757   -9.5667   22.4725 H   0  0  0  0  0  0
  -23.9998   -7.4614   22.7444 H   0  0  0  0  0  0
  -21.0825   -8.8758   19.8937 H   0  0  0  0  0  0
  -22.3692  -10.9645   19.6128 H   0  0  0  0  0  0
  -21.2011   -7.6125   23.9730 H   0  0  0  0  0  0
  -21.1482   -6.0488   25.9082 H   0  0  0  0  0  0
  -22.0602   -2.7600   23.2833 H   0  0  0  0  0  0
  -22.4124  -11.9900   22.4793 H   0  0  0  0  0  0
  -21.1132  -13.1268   22.2627 H   0  0  0  0  0  0
  -24.6654  -15.8397   20.5386 H   0  0  0  0  0  0
  -26.2898  -15.6340   20.1241 H   0  0  0  0  0  0
  -26.7110  -32.5536   23.1165 H   0  0  0  0  0  0
  -24.9996  -33.9781   25.0436 H   0  0  0  0  0  0
  -22.6902  -31.3068   21.4101 H   0  0  0  0  0  0
  -23.3740  -35.9661   23.3307 H   0  0  0  0  0  0
  -24.3578  -36.8943   22.2053 H   0  0  0  0  0  0
  -23.7239  -37.6529   23.6662 H   0  0  0  0  0  0
  -26.0368  -31.6043   20.5898 H   0  0  0  0  0  0
  -26.8184  -30.8938   21.9760 H   0  0  0  0  0  0
  -28.1022  -29.1163   21.1597 H   0  0  0  0  0  0
  -26.0752  -25.9558   19.0485 H   0  0  0  0  0  0
  -23.9817  -27.2811   19.0463 H   0  0  0  0  0  0
  -23.7117  -30.5934   19.4018 H   0  0  0  0  0  0
  -22.7348  -29.2354   19.8736 H   0  0  0  0  0  0
  -25.1279  -36.1982   25.0826 H   0  0  0  0  0  0
  -20.9947  -28.3243   24.1436 H   0  0  0  0  0  0
  -20.5672  -26.2277   23.3609 H   0  0  0  0  0  0
  -21.6633  -26.7462   22.1212 H   0  0  0  0  0  0
  -19.6910  -25.6301   21.1236 H   0  0  0  0  0  0
  -19.6681  -27.3208   20.6751 H   0  0  0  0  0  0
  -17.4190  -26.6673   21.4021 H   0  0  0  0  0  0
  -18.0322  -26.0063   22.9017 H   0  0  0  0  0  0
  -19.7929  -30.7249   24.2295 H   0  0  0  0  0  0
  -17.5018  -31.6271   24.5163 H   0  0  0  0  0  0
  -15.5348  -30.3007   23.7645 H   0  0  0  0  0  0
  -15.8654  -28.0839   22.7061 H   0  0  0  0  0  0
  -24.5861  -30.7104   25.7804 H   0  0  0  0  0  0
  -24.8976  -32.2865   26.4989 H   0  0  0  0  0  0
  -25.8079  -30.8803   27.0200 H   0  0  0  0  0  0
  -26.2828  -29.6803   24.1144 H   0  0  0  0  0  0
  -27.4066  -29.7268   25.4532 H   0  0  0  0  0  0
  -27.8656  -30.4357   23.9223 H   0  0  0  0  0  0
  -27.2657  -33.3591   26.2098 H   0  0  0  0  0  0
  -28.3810  -32.6916   25.0272 H   0  0  0  0  0  0
  -28.0757  -31.8420   26.5339 H   0  0  0  0  0  0
  -28.2593  -38.0113   24.7525 H   0  0  0  0  0  0
  -28.1076  -36.2649   24.6252 H   0  0  0  0  0  0
  -27.2307  -37.1431   25.8861 H   0  0  0  0  0  0
  -20.9299  -29.8721   21.6913 H   0  0  0  0  0  0
  -26.0178  -38.2873   24.1430 H   0  0  0  0  0  0
  -28.7442  -16.2300   19.0860 H   0  0  0  0  0  0
  -30.8740  -17.6823   22.5428 H   0  0  0  0  0  0
  -27.7222  -17.7670   17.6075 H   0  0  0  0  0  0
  -28.5443  -19.3195   17.4598 H   0  0  0  0  0  0
  -27.0677  -19.1828   18.4274 H   0  0  0  0  0  0
  -28.6403  -25.4744   23.2833 H   0  0  0  0  0  0
  -27.8412  -26.9522   22.7924 H   0  0  0  0  0  0
  -29.5735  -26.7663   22.5353 H   0  0  0  0  0  0
  -30.1951  -24.9088   20.1827 H   0  0  0  0  0  0
  -29.8962  -24.2272   21.7529 H   0  0  0  0  0  0
  -29.1509  -21.7409   21.7559 H   0  0  0  0  0  0
  -30.5363  -21.9358   20.6931 H   0  0  0  0  0  0
  -27.3640  -25.1630   21.1583 H   0  0  0  0  0  0
  -29.2858  -15.0316   21.8607 H   0  0  0  0  0  0
  -28.3981  -20.9599   19.1336 H   0  0  0  0  0  0
  1 25  1  0  0  0
  1 30  2  0  0  0
  1 83  1  0  0  0
  2  3  1  0  0  0
  2 25  1  0  0  0
  2 86  1  0  0  0
  2 87  1  0  0  0
  3  4  1  0  0  0
  3 88  1  0  0  0
  3 89  1  0  0  0
  4  5  1  0  0  0
  4 90  1  0  0  0
  4 91  1  0  0  0
  5  6  1  0  0  0
  5 26  1  0  0  0
  5 92  1  0  0  0
  6 25  1  0  0  0
  6 93  1  0  0  0
  6 94  1  0  0  0
  7  8  2  0  0  0
  7 26  1  0  0  0
  7 29  1  0  0  0
  8  9  1  0  0  0
  8 22  1  0  0  0
  9 10  1  0  0  0
  9 27  2  0  0  0
 10 11  2  0  0  0
 10 15  1  0  0  0
 11 12  1  0  0  0
 11 95  1  0  0  0
 12 13  2  0  0  0
 12 96  1  0  0  0
 13 14  1  0  0  0
 13 31  1  0  0  0
 14 15  2  0  0  0
 14 97  1  0  0  0
 15 98  1  0  0  0
 16 17  2  0  0  0
 16 21  1  0  0  0
 16 31  1  0  0  0
 17 18  1  0  0  0
 17 99  1  0  0  0
 18 19  2  0  0  0
 18100  1  0  0  0
 19 20  1  0  0  0
 19 24  1  0  0  0
 20 21  2  0  0  0
 20101  1  0  0  0
 21 23  1  0  0  0
 22 28  1  0  0  0
 22 32  2  0  0  0
 26 27  1  0  0  0
 28102  1  0  0  0
 28103  1  0  0  0
 29104  1  0  0  0
 29105  1  0  0  0
 33 34  1  0  0  0
 33 66  1  0  0  0
 33 70  2  0  0  0
 34 36  1  0  0  0
 34 59  1  0  0  0
 34106  1  0  0  0
 35 44  2  0  0  0
 35 45  1  0  0  0
 35 68  1  0  0  0
 36 56  1  0  0  0
 36107  1  0  0  0
 37 39  1  0  0  0
 37 47  1  0  0  0
 37 66  1  0  0  0
 37108  1  0  0  0
 38 43  2  0  0  0
 38 46  1  0  0  0
 38 47  1  0  0  0
 39 64  1  0  0  0
 39 67  2  0  0  0
 40 52  1  0  0  0
 40 53  2  0  0  0
 40 58  1  0  0  0
 41109  1  0  0  0
 41110  1  0  0  0
 41111  1  0  0  0
 41 48  1  0  0  0
 42 43  1  0  0  0
 42 66  1  0  0  0
 42112  1  0  0  0
 42113  1  0  0  0
 43 44  1  0  0  0
 44114  1  0  0  0
 45 46  2  0  0  0
 45115  1  0  0  0
 46116  1  0  0  0
 47117  1  0  0  0
 47118  1  0  0  0
 48 56  1  0  0  0
 48 65  1  0  0  0
 48119  1  0  0  0
 49 50  1  0  0  0
 49 53  1  0  0  0
 49 64  1  0  0  0
 49120  1  0  0  0
 50 51  1  0  0  0
 50121  1  0  0  0
 50122  1  0  0  0
 51 52  1  0  0  0
 51123  1  0  0  0
 51124  1  0  0  0
 52125  1  0  0  0
 52126  1  0  0  0
 53 54  1  0  0  0
 54 55  2  0  0  0
 54127  1  0  0  0
 55 57  1  0  0  0
 55128  1  0  0  0
 56 69  2  0  0  0
 57 58  2  0  0  0
 57129  1  0  0  0
 58130  1  0  0  0
 59 60  1  0  0  0
 59 61  1  0  0  0
 59 62  1  0  0  0
 60131  1  0  0  0
 60132  1  0  0  0
 60133  1  0  0  0
 61134  1  0  0  0
 61135  1  0  0  0
 61136  1  0  0  0
 62137  1  0  0  0
 62138  1  0  0  0
 62139  1  0  0  0
 63 65  1  0  0  0
 63140  1  0  0  0
 63141  1  0  0  0
 63142  1  0  0  0
 64143  1  0  0  0
 65144  1  0  0  0
 68 81  1  0  0  0
 71 73  2  0  0  0
 71 74  1  0  0  0
 71145  1  0  0  0
 72 74  2  0  0  0
 72 82  1  0  0  0
 72146  1  0  0  0
 73 75  1  0  0  0
 73 77  1  0  0  0
 74 83  1  0  0  0
 75 82  2  0  0  0
 75 84  1  0  0  0
 76 79  1  0  0  0
 76 80  1  0  0  0
 76 85  2  0  0  0
 77147  1  0  0  0
 77148  1  0  0  0
 77149  1  0  0  0
 78150  1  0  0  0
 78151  1  0  0  0
 78152  1  0  0  0
 78 81  1  0  0  0
 79 81  1  0  0  0
 79153  1  0  0  0
 79154  1  0  0  0
 80 84  1  0  0  0
 80155  1  0  0  0
 80156  1  0  0  0
 81157  1  0  0  0
 83158  1  0  0  0
 84159  1  0  0  0
M  ISO  4   1 100  68 101  81 101  83 100
M  END
> <chiral flag>
0

> <version>
0

> <s_m_source_file>
/data/baiqing/PycharmProjects/Reinvent-master-3.2/result/LINK_invent/BTK/process_docking_weight1_custom_product_contain_oxygen_bond_distance_aromatic_linkinvent_7_9_3/rearranged_h_0169.sdf

> <i_m_source_file_index>
13

> <r_mmod_Potential_Energy-OPLS-2005>
-374.323699951172

> <r_mmod_Stretch_Energy-OPLS-2005>
36.6187133789062

> <r_mmod_Bend_Energy-OPLS-2005>
103.302864074707

> <r_mmod_Torsional_Energy-OPLS-2005>
255.432678222656

> <r_mmod_Improper_Torsional_Energy-OPLS-2005>
5.05210828781128

> <r_mmod_Van_der_Waal_Energy-OPLS-2005>
149.859619140625

> <r_mmod_Electrostatic_Energy-OPLS-2005>
-694.921997070312

> <r_mmod_Solvation_Energy-OPLS-2005>
-241.560684204102

> <b_mmod_Minimization_Converged-OPLS-2005>
0

> <r_mmod_RMS_Derivative-OPLS-2005>
1.84120488166809

$$$$
13
                    3D
 Structure written by MMmdl.
161170  0  0  1  0            999 V2000
  -30.6749  -14.5091   20.5424 C   0  0  0  0  0  0
  -30.4220  -12.3183   19.4358 C   0  0  0  0  0  0
  -29.4946  -12.4978   18.2142 C   0  0  0  0  0  0
  -28.0160  -12.3521   18.6246 C   0  0  0  0  0  0
  -27.6561  -13.2043   19.8711 C   0  0  2  0  0  0
  -28.6961  -13.0070   20.9979 C   0  0  0  0  0  0
  -25.2569  -13.8153   20.5690 C   0  0  0  0  0  0
  -24.1826  -13.0435   20.9195 C   0  0  0  0  0  0
  -24.6374  -11.6901   20.8745 C   0  0  0  0  0  0
  -23.9046  -10.4293   21.0410 C   0  0  0  0  0  0
  -24.3605   -9.4211   21.9186 C   0  0  0  0  0  0
  -23.6287   -8.2244   22.0754 C   0  0  0  0  0  0
  -22.4267   -8.0283   21.3546 C   0  0  0  0  0  0
  -21.9905   -9.0252   20.4644 C   0  0  0  0  0  0
  -22.7222  -10.2134   20.3057 C   0  0  0  0  0  0
  -21.6850   -6.0739   22.5279 C   0  0  0  0  0  0
  -21.4011   -6.5642   23.8212 C   0  0  0  0  0  0
  -21.3661   -5.6795   24.9175 C   0  0  0  0  0  0
  -21.6046   -4.3059   24.7228 C   0  0  0  0  0  0
  -21.8813   -3.8151   23.4349 C   0  0  0  0  0  0
  -21.9194   -4.6968   22.3402 C   0  0  0  0  0  0
  -22.7853  -13.5242   21.1860 C   0  0  0  0  0  0
  -22.1658   -4.2157   21.0980 F   0  0  0  0  0  0
  -21.5638   -3.4543   25.7739 F   0  0  0  0  0  0
  -30.0260  -13.3147   20.4458 N   0  0  0  0  0  0
  -26.2987  -12.9308   20.3346 N   0  0  0  0  0  0
  -25.9293  -11.6473   20.5764 N   0  0  0  0  0  0
  -22.0495  -12.8230   22.0411 N   0  0  0  0  0  0
  -25.4308  -15.1874   20.4089 N   0  0  0  0  0  0
  -31.8256  -14.6600   20.1187 O   0  0  0  0  0  0
  -21.6632   -6.8881   21.4240 O   0  0  0  0  0  0
  -22.3550  -14.5560   20.6720 O   0  0  0  0  0  0
  -24.6163  -31.8661   23.2122 C   0  0  0  0  0  0
  -25.9057  -32.4813   23.8411 C   0  0  1  0  0  0
  -27.2253  -27.4249   20.1080 C   0  0  0  0  0  0
  -25.5914  -33.8613   24.2351 N   0  0  0  0  0  0
  -23.4044  -30.4901   21.5502 C   0  0  2  0  0  0
  -24.8517  -28.9555   20.1153 C   0  0  0  0  0  0
  -22.7416  -29.4638   22.4979 C   0  0  0  0  0  0
  -18.0269  -28.1377   22.8486 C   0  0  0  0  0  0
  -24.1483  -36.7308   23.2638 C   0  0  0  0  0  0
  -25.9328  -30.8301   21.3672 C   0  0  0  0  0  0
  -26.0105  -29.4618   20.7192 C   0  0  0  0  0  0
  -27.2034  -28.7015   20.7170 C   0  0  0  0  0  0
  -26.0585  -26.9379   19.4880 C   0  0  0  0  0  0
  -24.8707  -27.6928   19.4957 C   0  0  0  0  0  0
  -23.6155  -29.8251   20.1629 C   0  0  0  0  0  0
  -25.4107  -36.3115   24.0342 C   0  0  1  0  0  0
  -20.5860  -28.3660   23.1306 C   0  0  2  0  0  0
  -20.6756  -26.9388   22.5414 C   0  0  0  0  0  0
  -19.5734  -26.6384   21.5206 C   0  0  0  0  0  0
  -18.1915  -26.7923   22.1617 C   0  0  0  0  0  0
  -19.1520  -28.8840   23.2889 C   0  0  0  0  0  0
  -18.9454  -30.1448   23.8900 C   0  0  0  0  0  0
  -17.6456  -30.6577   24.0583 C   0  0  0  0  0  0
  -25.9032  -34.9470   23.5145 C   0  0  0  0  0  0
  -16.5346  -29.9085   23.6334 C   0  0  0  0  0  0
  -16.7261  -28.6507   23.0344 C   0  0  0  0  0  0
  -26.4496  -31.6586   25.0730 C   0  0  0  0  0  0
  -25.3787  -31.3661   26.1496 C   0  0  0  0  0  0
  -27.0325  -30.3032   24.6089 C   0  0  0  0  0  0
  -27.6075  -32.4304   25.7482 C   0  0  0  0  0  0
  -27.5588  -37.1806   24.8469 C   0  0  0  0  0  0
  -21.4140  -29.3023   22.3715 N   0  0  0  0  0  0
  -26.4290  -37.3811   23.9425 N   0  0  0  0  0  0
  -24.6691  -31.0769   22.1016 N   0  0  0  0  0  0
  -23.4182  -28.8174   23.3021 O   0  0  0  0  0  0
  -28.3598  -26.6469   20.0861 O   0  0  0  0  0  0
  -26.5592  -34.8919   22.4705 O   0  0  0  0  0  0
  -23.5362  -32.1400   23.7531 O   0  0  0  0  0  0
  -28.9884  -17.7976   21.1274 C   0  0  0  0  0  0
  -30.0304  -19.6735   20.2119 C   0  0  0  0  0  0
  -30.0617  -16.9447   20.7450 C   0  0  0  0  0  0
  -31.1286  -18.8296   19.8759 C   0  0  0  0  0  0
  -29.5551  -21.2276   18.3530 C   0  0  0  0  0  0
  -28.1756  -24.3471   21.0479 C   0  0  0  0  0  0
  -29.5233  -22.6424   17.7739 C   0  0  0  0  0  0
  -28.7104  -23.5885   18.6816 C   0  0  0  0  0  0
  -29.9679  -21.1500   19.8455 C   0  0  1  0  0  0
  -29.1076  -23.4693   20.1759 C   0  0  2  0  0  0
  -28.5462  -25.8377   21.2609 C   0  0  0  0  0  0
  -28.9645  -19.1391   20.8710 N   0  0  0  0  0  0
  -31.1385  -17.5019   20.1300 N   0  0  0  0  0  0
  -32.2781  -19.2977   19.2499 N   0  0  0  0  0  0
  -29.9244  -15.5374   21.0046 N   0  0  0  0  0  0
  -29.0361  -22.0339   20.6114 N   0  3  0  0  0  0
  -29.2385  -20.2718   17.6378 O   0  0  0  0  0  0
  -27.1477  -23.8951   21.5635 O   0  0  0  0  0  0
  -31.4665  -12.4174   19.1366 H   0  0  0  0  0  0
  -30.3274  -11.3126   19.8475 H   0  0  0  0  0  0
  -29.7398  -11.7661   17.4439 H   0  0  0  0  0  0
  -29.6554  -13.4796   17.7660 H   0  0  0  0  0  0
  -27.8351  -11.2973   18.8334 H   0  0  0  0  0  0
  -27.3636  -12.6110   17.7896 H   0  0  0  0  0  0
  -27.6918  -14.2477   19.5571 H   0  0  0  0  0  0
  -28.6767  -11.9757   21.3543 H   0  0  0  0  0  0
  -28.4538  -13.6178   21.8686 H   0  0  0  0  0  0
  -25.2752   -9.5685   22.4761 H   0  0  0  0  0  0
  -24.0000   -7.4637   22.7472 H   0  0  0  0  0  0
  -21.0843   -8.8758   19.8946 H   0  0  0  0  0  0
  -22.3682  -10.9674   19.6169 H   0  0  0  0  0  0
  -21.1991   -7.6146   23.9718 H   0  0  0  0  0  0
  -21.1493   -6.0527   25.9078 H   0  0  0  0  0  0
  -22.0594   -2.7615   23.2844 H   0  0  0  0  0  0
  -22.4107  -11.9872   22.4766 H   0  0  0  0  0  0
  -21.1119  -13.1251   22.2633 H   0  0  0  0  0  0
  -24.6577  -15.8368   20.5041 H   0  0  0  0  0  0
  -26.2640  -15.6205   20.0327 H   0  0  0  0  0  0
  -26.7125  -32.5534   23.1175 H   0  0  0  0  0  0
  -25.0122  -33.9775   25.0539 H   0  0  0  0  0  0
  -22.6945  -31.3079   21.4115 H   0  0  0  0  0  0
  -23.3761  -35.9622   23.3288 H   0  0  0  0  0  0
  -24.3587  -36.8945   22.2056 H   0  0  0  0  0  0
  -23.7191  -37.6491   23.6658 H   0  0  0  0  0  0
  -26.0462  -31.5950   20.5983 H   0  0  0  0  0  0
  -26.8207  -30.8870   21.9837 H   0  0  0  0  0  0
  -28.1009  -29.0865   21.1806 H   0  0  0  0  0  0
  -26.0681  -25.9707   19.0054 H   0  0  0  0  0  0
  -23.9811  -27.3019   19.0212 H   0  0  0  0  0  0
  -23.7307  -30.6020   19.4054 H   0  0  0  0  0  0
  -22.7390  -29.2488   19.8611 H   0  0  0  0  0  0
  -25.1279  -36.1995   25.0835 H   0  0  0  0  0  0
  -20.9946  -28.3235   24.1428 H   0  0  0  0  0  0
  -20.5650  -26.2265   23.3603 H   0  0  0  0  0  0
  -21.6630  -26.7415   22.1224 H   0  0  0  0  0  0
  -19.6894  -25.6303   21.1209 H   0  0  0  0  0  0
  -19.6679  -27.3221   20.6758 H   0  0  0  0  0  0
  -17.4181  -26.6683   21.4023 H   0  0  0  0  0  0
  -18.0310  -26.0051   22.9001 H   0  0  0  0  0  0
  -19.7926  -30.7277   24.2256 H   0  0  0  0  0  0
  -17.5001  -31.6247   24.5200 H   0  0  0  0  0  0
  -15.5351  -30.3001   23.7632 H   0  0  0  0  0  0
  -15.8658  -28.0839   22.7042 H   0  0  0  0  0  0
  -24.5970  -30.6987   25.7848 H   0  0  0  0  0  0
  -24.8969  -32.2800   26.4976 H   0  0  0  0  0  0
  -25.8181  -30.8821   27.0230 H   0  0  0  0  0  0
  -26.2853  -29.6771   24.1187 H   0  0  0  0  0  0
  -27.4159  -29.7277   25.4528 H   0  0  0  0  0  0
  -27.8667  -30.4362   23.9193 H   0  0  0  0  0  0
  -27.2706  -33.3608   26.2061 H   0  0  0  0  0  0
  -28.3879  -32.6852   25.0300 H   0  0  0  0  0  0
  -28.0741  -31.8420   26.5394 H   0  0  0  0  0  0
  -28.2590  -38.0121   24.7570 H   0  0  0  0  0  0
  -28.1102  -36.2658   24.6241 H   0  0  0  0  0  0
  -27.2312  -37.1398   25.8872 H   0  0  0  0  0  0
  -20.9307  -29.8771   21.6958 H   0  0  0  0  0  0
  -26.0182  -38.2878   24.1492 H   0  0  0  0  0  0
  -28.1194  -17.3950   21.6282 H   0  0  0  0  0  0
  -29.1007  -22.6221   16.7684 H   0  0  0  0  0  0
  -30.5503  -22.9970   17.6818 H   0  0  0  0  0  0
  -27.6462  -23.3767   18.5558 H   0  0  0  0  0  0
  -28.8487  -24.6159   18.3399 H   0  0  0  0  0  0
  -30.9661  -21.5762   19.9462 H   0  0  0  0  0  0
  -30.1313  -23.8214   20.3083 H   0  0  0  0  0  0
  -29.5920  -25.8954   21.5620 H   0  0  0  0  0  0
  -27.9634  -26.2322   22.0944 H   0  0  0  0  0  0
  -32.5215  -20.2804   19.2573 H   0  0  0  0  0  0
  -33.0774  -18.6778   19.1798 H   0  0  0  0  0  0
  -29.0418  -15.2578   21.4039 H   0  0  0  0  0  0
  -29.2623  -21.9772   21.5904 H   0  0  0  0  0  0
  -28.0931  -21.6923   20.5125 H   0  0  0  0  0  0
  1 25  1  0  0  0
  1 30  2  0  0  0
  1 85  1  0  0  0
  2  3  1  0  0  0
  2 25  1  0  0  0
  2 89  1  0  0  0
  2 90  1  0  0  0
  3  4  1  0  0  0
  3 91  1  0  0  0
  3 92  1  0  0  0
  4  5  1  0  0  0
  4 93  1  0  0  0
  4 94  1  0  0  0
  5  6  1  0  0  0
  5 26  1  0  0  0
  5 95  1  0  0  0
  6 25  1  0  0  0
  6 96  1  0  0  0
  6 97  1  0  0  0
  7  8  2  0  0  0
  7 26  1  0  0  0
  7 29  1  0  0  0
  8  9  1  0  0  0
  8 22  1  0  0  0
  9 10  1  0  0  0
  9 27  2  0  0  0
 10 11  2  0  0  0
 10 15  1  0  0  0
 11 12  1  0  0  0
 11 98  1  0  0  0
 12 13  2  0  0  0
 12 99  1  0  0  0
 13 14  1  0  0  0
 13 31  1  0  0  0
 14 15  2  0  0  0
 14100  1  0  0  0
 15101  1  0  0  0
 16 17  2  0  0  0
 16 21  1  0  0  0
 16 31  1  0  0  0
 17 18  1  0  0  0
 17102  1  0  0  0
 18 19  2  0  0  0
 18103  1  0  0  0
 19 20  1  0  0  0
 19 24  1  0  0  0
 20 21  2  0  0  0
 20104  1  0  0  0
 21 23  1  0  0  0
 22 28  1  0  0  0
 22 32  2  0  0  0
 26 27  1  0  0  0
 28105  1  0  0  0
 28106  1  0  0  0
 29107  1  0  0  0
 29108  1  0  0  0
 33 34  1  0  0  0
 33 66  1  0  0  0
 33 70  2  0  0  0
 34 36  1  0  0  0
 34 59  1  0  0  0
 34109  1  0  0  0
 35 44  2  0  0  0
 35 45  1  0  0  0
 35 68  1  0  0  0
 36 56  1  0  0  0
 36110  1  0  0  0
 37 39  1  0  0  0
 37 47  1  0  0  0
 37 66  1  0  0  0
 37111  1  0  0  0
 38 43  2  0  0  0
 38 46  1  0  0  0
 38 47  1  0  0  0
 39 64  1  0  0  0
 39 67  2  0  0  0
 40 52  1  0  0  0
 40 53  2  0  0  0
 40 58  1  0  0  0
 41112  1  0  0  0
 41113  1  0  0  0
 41114  1  0  0  0
 41 48  1  0  0  0
 42 43  1  0  0  0
 42 66  1  0  0  0
 42115  1  0  0  0
 42116  1  0  0  0
 43 44  1  0  0  0
 44117  1  0  0  0
 45 46  2  0  0  0
 45118  1  0  0  0
 46119  1  0  0  0
 47120  1  0  0  0
 47121  1  0  0  0
 48 56  1  0  0  0
 48 65  1  0  0  0
 48122  1  0  0  0
 49 50  1  0  0  0
 49 53  1  0  0  0
 49 64  1  0  0  0
 49123  1  0  0  0
 50 51  1  0  0  0
 50124  1  0  0  0
 50125  1  0  0  0
 51 52  1  0  0  0
 51126  1  0  0  0
 51127  1  0  0  0
 52128  1  0  0  0
 52129  1  0  0  0
 53 54  1  0  0  0
 54 55  2  0  0  0
 54130  1  0  0  0
 55 57  1  0  0  0
 55131  1  0  0  0
 56 69  2  0  0  0
 57 58  2  0  0  0
 57132  1  0  0  0
 58133  1  0  0  0
 59 60  1  0  0  0
 59 61  1  0  0  0
 59 62  1  0  0  0
 60134  1  0  0  0
 60135  1  0  0  0
 60136  1  0  0  0
 61137  1  0  0  0
 61138  1  0  0  0
 61139  1  0  0  0
 62140  1  0  0  0
 62141  1  0  0  0
 62142  1  0  0  0
 63 65  1  0  0  0
 63143  1  0  0  0
 63144  1  0  0  0
 63145  1  0  0  0
 64146  1  0  0  0
 65147  1  0  0  0
 68 81  1  0  0  0
 71 73  2  0  0  0
 71 82  1  0  0  0
 71148  1  0  0  0
 72 74  1  0  0  0
 72 82  2  0  0  0
 72 79  1  0  0  0
 73 83  1  0  0  0
 73 85  1  0  0  0
 74 83  2  0  0  0
 74 84  1  0  0  0
 75 77  1  0  0  0
 75 79  1  0  0  0
 75 87  2  0  0  0
 76 81  1  0  0  0
 76 88  2  0  0  0
 76 80  1  0  0  0
 77 78  1  0  0  0
 77149  1  0  0  0
 77150  1  0  0  0
 78 80  1  0  0  0
 78151  1  0  0  0
 78152  1  0  0  0
 79 86  1  0  0  0
 79153  1  0  0  0
 80 86  1  0  0  0
 80154  1  0  0  0
 81155  1  0  0  0
 81156  1  0  0  0
 84157  1  0  0  0
 84158  1  0  0  0
 85159  1  0  0  0
 86160  1  0  0  0
 86161  1  0  0  0
M  CHG  1  86   1
M  ISO  4   1 100  68 101  81 101  85 100
M  END
> <chiral flag>
0

> <version>
0

> <s_m_source_file>
/data/baiqing/PycharmProjects/Reinvent-master-3.2/result/LINK_invent/BTK/process_docking_weight1_custom_product_contain_oxygen_bond_distance_aromatic_linkinvent_7_9_3/rearranged_h_0169.sdf

> <i_m_source_file_index>
14

> <r_mmod_Potential_Energy-OPLS-2005>
-449.593719482422

> <r_mmod_Stretch_Energy-OPLS-2005>
48.3287773132324

> <r_mmod_Bend_Energy-OPLS-2005>
111.294853210449

> <r_mmod_Torsional_Energy-OPLS-2005>
259.025421142578

> <r_mmod_Improper_Torsional_Energy-OPLS-2005>
6.08442354202271

> <r_mmod_Van_der_Waal_Energy-OPLS-2005>
156.87809753418

> <r_mmod_Electrostatic_Energy-OPLS-2005>
-499.080322265625

> <r_mmod_Solvation_Energy-OPLS-2005>
-548.637451171875

> <b_mmod_Minimization_Converged-OPLS-2005>
0

> <r_mmod_RMS_Derivative-OPLS-2005>
1.44465279579163

$$$$
14
                    3D
 Structure written by MMmdl.
159167  0  0  1  0            999 V2000
  -30.5872  -14.7449   20.4598 C   0  0  0  0  0  0
  -30.4422  -12.4529   19.4724 C   0  0  0  0  0  0
  -29.5153  -12.5133   18.2368 C   0  0  0  0  0  0
  -28.0393  -12.3385   18.6472 C   0  0  0  0  0  0
  -27.6470  -13.2277   19.8567 C   0  0  2  0  0  0
  -28.6919  -13.1368   20.9909 C   0  0  0  0  0  0
  -25.2528  -13.8190   20.5687 C   0  0  0  0  0  0
  -24.1811  -13.0443   20.9205 C   0  0  0  0  0  0
  -24.6399  -11.6919   20.8750 C   0  0  0  0  0  0
  -23.9073  -10.4296   21.0408 C   0  0  0  0  0  0
  -24.3625   -9.4209   21.9185 C   0  0  0  0  0  0
  -23.6296   -8.2247   22.0752 C   0  0  0  0  0  0
  -22.4279   -8.0286   21.3546 C   0  0  0  0  0  0
  -21.9918   -9.0259   20.4649 C   0  0  0  0  0  0
  -22.7244  -10.2139   20.3057 C   0  0  0  0  0  0
  -21.6856   -6.0742   22.5278 C   0  0  0  0  0  0
  -21.4014   -6.5643   23.8212 C   0  0  0  0  0  0
  -21.3661   -5.6791   24.9173 C   0  0  0  0  0  0
  -21.6046   -4.3053   24.7221 C   0  0  0  0  0  0
  -21.8816   -3.8150   23.4342 C   0  0  0  0  0  0
  -21.9193   -4.6969   22.3402 C   0  0  0  0  0  0
  -22.7832  -13.5228   21.1868 C   0  0  0  0  0  0
  -22.1660   -4.2158   21.0975 F   0  0  0  0  0  0
  -21.5634   -3.4536   25.7733 F   0  0  0  0  0  0
  -29.9970  -13.5003   20.4201 N   0  0  0  0  0  0
  -26.2962  -12.9389   20.3300 N   0  0  0  0  0  0
  -25.9332  -11.6536   20.5763 N   0  0  0  0  0  0
  -22.0474  -12.8220   22.0423 N   0  0  0  0  0  0
  -25.4210  -15.1912   20.4080 N   0  0  0  0  0  0
  -31.7644  -14.8777   20.1132 O   0  0  0  0  0  0
  -21.6641   -6.8886   21.4242 O   0  0  0  0  0  0
  -22.3518  -14.5536   20.6716 O   0  0  0  0  0  0
  -24.6323  -31.8559   23.1987 C   0  0  0  0  0  0
  -25.9147  -32.4759   23.8342 C   0  0  1  0  0  0
  -27.2232  -27.2630   20.1165 C   0  0  0  0  0  0
  -25.5941  -33.8563   24.2263 N   0  0  0  0  0  0
  -23.4300  -30.4788   21.5418 C   0  0  2  0  0  0
  -24.8781  -28.9302   20.1071 C   0  0  0  0  0  0
  -22.7507  -29.4609   22.4903 C   0  0  0  0  0  0
  -18.0294  -28.1399   22.8496 C   0  0  0  0  0  0
  -24.1481  -36.7272   23.2641 C   0  0  0  0  0  0
  -25.9771  -30.7674   21.3808 C   0  0  0  0  0  0
  -26.0508  -29.3908   20.7196 C   0  0  0  0  0  0
  -27.2248  -28.5675   20.7198 C   0  0  0  0  0  0
  -26.0184  -26.8669   19.4899 C   0  0  0  0  0  0
  -24.8667  -27.6747   19.4829 C   0  0  0  0  0  0
  -23.6491  -29.8173   20.1564 C   0  0  0  0  0  0
  -25.4112  -36.3067   24.0325 C   0  0  1  0  0  0
  -20.5898  -28.3719   23.1264 C   0  0  2  0  0  0
  -20.6782  -26.9434   22.5413 C   0  0  0  0  0  0
  -19.5753  -26.6395   21.5222 C   0  0  0  0  0  0
  -18.1932  -26.7946   22.1628 C   0  0  0  0  0  0
  -19.1549  -28.8876   23.2877 C   0  0  0  0  0  0
  -18.9474  -30.1472   23.8908 C   0  0  0  0  0  0
  -17.6471  -30.6598   24.0574 C   0  0  0  0  0  0
  -25.9063  -34.9440   23.5099 C   0  0  0  0  0  0
  -16.5364  -29.9104   23.6329 C   0  0  0  0  0  0
  -16.7279  -28.6515   23.0363 C   0  0  0  0  0  0
  -26.4508  -31.6582   25.0733 C   0  0  0  0  0  0
  -25.3722  -31.3743   26.1446 C   0  0  0  0  0  0
  -27.0347  -30.2990   24.6230 C   0  0  0  0  0  0
  -27.6066  -32.4320   25.7505 C   0  0  0  0  0  0
  -27.5575  -37.1790   24.8465 C   0  0  0  0  0  0
  -21.4215  -29.3060   22.3645 N   0  0  0  0  0  0
  -26.4282  -37.3772   23.9418 N   0  0  0  0  0  0
  -24.6986  -31.0516   22.0966 N   0  0  0  0  0  0
  -23.4199  -28.8153   23.3011 O   0  0  0  0  0  0
  -28.2873  -26.3285   20.1978 O   0  0  0  0  0  0
  -26.5640  -34.8913   22.4672 O   0  0  0  0  0  0
  -23.5467  -32.1391   23.7269 O   0  0  0  0  0  0
  -29.4740  -19.6625   21.2380 C   0  0  0  0  0  0
  -29.6716  -18.2584   21.4731 C   0  0  0  0  0  0
  -29.5059  -19.2404   18.8712 C   0  0  0  0  0  0
  -29.6862  -17.8185   19.1096 C   0  0  0  0  0  0
  -29.3711  -20.2052   19.9282 C   0  0  0  0  0  0
  -29.7897  -17.2816   20.4368 C   0  0  0  0  0  0
  -28.4057  -25.3259   19.2079 C   0  0  0  0  0  0
  -28.6510  -23.9504   19.1395 C   0  0  0  0  0  0
  -28.9089  -22.8661   20.1670 C   0  0  0  0  0  0
  -29.3979  -19.7725   17.4384 C   0  0  0  0  0  0
  -31.0780  -16.6764   17.2885 C   0  0  0  0  0  0
  -29.6895  -16.8477   17.9247 C   0  0  0  0  0  0
  -29.1069  -21.6279   19.5703 N   0  0  0  0  0  0
  -29.7752  -15.8264   20.7713 N   0  0  0  0  0  0
  -28.9464  -23.0304   21.3877 O   0  0  0  0  0  0
  -28.6473  -23.4915   17.8724 O   0  0  0  0  0  0
  -31.4811  -12.5889   19.1687 H   0  0  0  0  0  0
  -30.3955  -11.4703   19.9444 H   0  0  0  0  0  0
  -29.7965  -11.7437   17.5172 H   0  0  0  0  0  0
  -29.6437  -13.4685   17.7256 H   0  0  0  0  0  0
  -27.8922  -11.2878   18.9000 H   0  0  0  0  0  0
  -27.3831  -12.5412   17.7999 H   0  0  0  0  0  0
  -27.6472  -14.2545   19.4904 H   0  0  0  0  0  0
  -28.7258  -12.1285   21.4053 H   0  0  0  0  0  0
  -28.4245  -13.7946   21.8188 H   0  0  0  0  0  0
  -25.2772   -9.5686   22.4760 H   0  0  0  0  0  0
  -24.0013   -7.4641   22.7463 H   0  0  0  0  0  0
  -21.0857   -8.8780   19.8952 H   0  0  0  0  0  0
  -22.3710  -10.9682   19.6166 H   0  0  0  0  0  0
  -21.2001   -7.6149   23.9725 H   0  0  0  0  0  0
  -21.1486   -6.0517   25.9078 H   0  0  0  0  0  0
  -22.0596   -2.7615   23.2841 H   0  0  0  0  0  0
  -22.4088  -11.9886   22.4818 H   0  0  0  0  0  0
  -21.1090  -13.1243   22.2628 H   0  0  0  0  0  0
  -24.6478  -15.8402   20.5074 H   0  0  0  0  0  0
  -26.2618  -15.6320   20.0575 H   0  0  0  0  0  0
  -26.7218  -32.5406   23.1085 H   0  0  0  0  0  0
  -25.0063  -33.9706   25.0388 H   0  0  0  0  0  0
  -22.7265  -31.3014   21.3962 H   0  0  0  0  0  0
  -23.3758  -35.9591   23.3295 H   0  0  0  0  0  0
  -24.3565  -36.8902   22.2055 H   0  0  0  0  0  0
  -23.7214  -37.6457   23.6680 H   0  0  0  0  0  0
  -26.1179  -31.5297   20.6134 H   0  0  0  0  0  0
  -26.8537  -30.8144   22.0153 H   0  0  0  0  0  0
  -28.1185  -28.9107   21.2220 H   0  0  0  0  0  0
  -25.9328  -25.8930   19.0306 H   0  0  0  0  0  0
  -23.9670  -27.3097   19.0071 H   0  0  0  0  0  0
  -23.7754  -30.5975   19.4041 H   0  0  0  0  0  0
  -22.7666  -29.2534   19.8496 H   0  0  0  0  0  0
  -25.1290  -36.1913   25.0817 H   0  0  0  0  0  0
  -20.9991  -28.3312   24.1384 H   0  0  0  0  0  0
  -20.5682  -26.2340   23.3629 H   0  0  0  0  0  0
  -21.6647  -26.7461   22.1204 H   0  0  0  0  0  0
  -19.6915  -25.6306   21.1259 H   0  0  0  0  0  0
  -19.6682  -27.3207   20.6754 H   0  0  0  0  0  0
  -17.4195  -26.6703   21.4030 H   0  0  0  0  0  0
  -18.0327  -26.0093   22.9028 H   0  0  0  0  0  0
  -19.7945  -30.7291   24.2283 H   0  0  0  0  0  0
  -17.5021  -31.6272   24.5185 H   0  0  0  0  0  0
  -15.5369  -30.3011   23.7643 H   0  0  0  0  0  0
  -15.8673  -28.0835   22.7084 H   0  0  0  0  0  0
  -24.5901  -30.7087   25.7773 H   0  0  0  0  0  0
  -24.8906  -32.2911   26.4858 H   0  0  0  0  0  0
  -25.8017  -30.8925   27.0237 H   0  0  0  0  0  0
  -26.2929  -29.6740   24.1239 H   0  0  0  0  0  0
  -27.3996  -29.7255   25.4763 H   0  0  0  0  0  0
  -27.8827  -30.4255   23.9496 H   0  0  0  0  0  0
  -27.2692  -33.3635   26.2070 H   0  0  0  0  0  0
  -28.3886  -32.6857   25.0333 H   0  0  0  0  0  0
  -28.0731  -31.8450   26.5429 H   0  0  0  0  0  0
  -28.2591  -38.0091   24.7518 H   0  0  0  0  0  0
  -28.1068  -36.2620   24.6279 H   0  0  0  0  0  0
  -27.2295  -37.1412   25.8868 H   0  0  0  0  0  0
  -20.9407  -29.8777   21.6844 H   0  0  0  0  0  0
  -26.0153  -38.2839   24.1446 H   0  0  0  0  0  0
  -29.3732  -20.3228   22.0881 H   0  0  0  0  0  0
  -29.7010  -17.9230   22.5003 H   0  0  0  0  0  0
  -28.2630  -25.8284   18.2596 H   0  0  0  0  0  0
  -29.8202  -19.1166   16.6823 H   0  0  0  0  0  0
  -29.9355  -20.7134   17.3215 H   0  0  0  0  0  0
  -28.3524  -19.9440   17.1824 H   0  0  0  0  0  0
  -31.0408  -15.9568   16.4708 H   0  0  0  0  0  0
  -31.8071  -16.3134   18.0099 H   0  0  0  0  0  0
  -31.4673  -17.6121   16.8886 H   0  0  0  0  0  0
  -28.9696  -17.1698   17.1728 H   0  0  0  0  0  0
  -29.3078  -15.8756   18.2293 H   0  0  0  0  0  0
  -29.0290  -21.7762   18.5709 H   0  0  0  0  0  0
  -28.9195  -15.5283   21.2145 H   0  0  0  0  0  0
  -28.4528  -24.2225   17.3003 H   0  0  0  0  0  0
  1 25  1  0  0  0
  1 30  2  0  0  0
  1 84  1  0  0  0
  2  3  1  0  0  0
  2 25  1  0  0  0
  2 87  1  0  0  0
  2 88  1  0  0  0
  3  4  1  0  0  0
  3 89  1  0  0  0
  3 90  1  0  0  0
  4  5  1  0  0  0
  4 91  1  0  0  0
  4 92  1  0  0  0
  5  6  1  0  0  0
  5 26  1  0  0  0
  5 93  1  0  0  0
  6 25  1  0  0  0
  6 94  1  0  0  0
  6 95  1  0  0  0
  7  8  2  0  0  0
  7 26  1  0  0  0
  7 29  1  0  0  0
  8  9  1  0  0  0
  8 22  1  0  0  0
  9 10  1  0  0  0
  9 27  2  0  0  0
 10 11  2  0  0  0
 10 15  1  0  0  0
 11 12  1  0  0  0
 11 96  1  0  0  0
 12 13  2  0  0  0
 12 97  1  0  0  0
 13 14  1  0  0  0
 13 31  1  0  0  0
 14 15  2  0  0  0
 14 98  1  0  0  0
 15 99  1  0  0  0
 16 17  2  0  0  0
 16 21  1  0  0  0
 16 31  1  0  0  0
 17 18  1  0  0  0
 17100  1  0  0  0
 18 19  2  0  0  0
 18101  1  0  0  0
 19 20  1  0  0  0
 19 24  1  0  0  0
 20 21  2  0  0  0
 20102  1  0  0  0
 21 23  1  0  0  0
 22 28  1  0  0  0
 22 32  2  0  0  0
 26 27  1  0  0  0
 28103  1  0  0  0
 28104  1  0  0  0
 29105  1  0  0  0
 29106  1  0  0  0
 33 34  1  0  0  0
 33 66  1  0  0  0
 33 70  2  0  0  0
 34 36  1  0  0  0
 34 59  1  0  0  0
 34107  1  0  0  0
 35 44  2  0  0  0
 35 45  1  0  0  0
 35 68  1  0  0  0
 36 56  1  0  0  0
 36108  1  0  0  0
 37 39  1  0  0  0
 37 47  1  0  0  0
 37 66  1  0  0  0
 37109  1  0  0  0
 38 43  2  0  0  0
 38 46  1  0  0  0
 38 47  1  0  0  0
 39 64  1  0  0  0
 39 67  2  0  0  0
 40 52  1  0  0  0
 40 53  2  0  0  0
 40 58  1  0  0  0
 41110  1  0  0  0
 41111  1  0  0  0
 41112  1  0  0  0
 41 48  1  0  0  0
 42 43  1  0  0  0
 42 66  1  0  0  0
 42113  1  0  0  0
 42114  1  0  0  0
 43 44  1  0  0  0
 44115  1  0  0  0
 45 46  2  0  0  0
 45116  1  0  0  0
 46117  1  0  0  0
 47118  1  0  0  0
 47119  1  0  0  0
 48 56  1  0  0  0
 48 65  1  0  0  0
 48120  1  0  0  0
 49 50  1  0  0  0
 49 53  1  0  0  0
 49 64  1  0  0  0
 49121  1  0  0  0
 50 51  1  0  0  0
 50122  1  0  0  0
 50123  1  0  0  0
 51 52  1  0  0  0
 51124  1  0  0  0
 51125  1  0  0  0
 52126  1  0  0  0
 52127  1  0  0  0
 53 54  1  0  0  0
 54 55  2  0  0  0
 54128  1  0  0  0
 55 57  1  0  0  0
 55129  1  0  0  0
 56 69  2  0  0  0
 57 58  2  0  0  0
 57130  1  0  0  0
 58131  1  0  0  0
 59 60  1  0  0  0
 59 61  1  0  0  0
 59 62  1  0  0  0
 60132  1  0  0  0
 60133  1  0  0  0
 60134  1  0  0  0
 61135  1  0  0  0
 61136  1  0  0  0
 61137  1  0  0  0
 62138  1  0  0  0
 62139  1  0  0  0
 62140  1  0  0  0
 63 65  1  0  0  0
 63141  1  0  0  0
 63142  1  0  0  0
 63143  1  0  0  0
 64144  1  0  0  0
 65145  1  0  0  0
 68 77  1  0  0  0
 71 72  2  0  0  0
 71 75  1  0  0  0
 71146  1  0  0  0
 72 76  1  0  0  0
 72147  1  0  0  0
 73 74  1  0  0  0
 73 75  2  0  0  0
 73 80  1  0  0  0
 74 76  2  0  0  0
 74 82  1  0  0  0
 75 83  1  0  0  0
 76 84  1  0  0  0
 77 78  2  0  0  0
 77148  1  0  0  0
 78 79  1  0  0  0
 78 86  1  0  0  0
 79 83  1  0  0  0
 79 85  2  0  0  0
 80149  1  0  0  0
 80150  1  0  0  0
 80151  1  0  0  0
 81 82  1  0  0  0
 81152  1  0  0  0
 81153  1  0  0  0
 81154  1  0  0  0
 82155  1  0  0  0
 82156  1  0  0  0
 83157  1  0  0  0
 84158  1  0  0  0
 86159  1  0  0  0
M  ISO  4   1 100  68 101  77 101  84 100
M  END
> <chiral flag>
0

> <version>
0

> <s_m_source_file>
/data/baiqing/PycharmProjects/Reinvent-master-3.2/result/LINK_invent/BTK/process_docking_weight1_custom_product_contain_oxygen_bond_distance_aromatic_linkinvent_7_9_3/rearranged_h_0169.sdf

> <i_m_source_file_index>
15

> <r_mmod_Potential_Energy-OPLS-2005>
168.072708129883

> <r_mmod_Stretch_Energy-OPLS-2005>
118.958694458008

> <r_mmod_Bend_Energy-OPLS-2005>
235.265502929688

> <r_mmod_Torsional_Energy-OPLS-2005>
240.337875366211

> <r_mmod_Improper_Torsional_Energy-OPLS-2005>
5.19328260421753

> <r_mmod_Van_der_Waal_Energy-OPLS-2005>
152.601348876953

> <r_mmod_Electrostatic_Energy-OPLS-2005>
-434.660583496094

> <r_mmod_Solvation_Energy-OPLS-2005>
-238.418869018555

> <b_mmod_Minimization_Converged-OPLS-2005>
0

> <r_mmod_RMS_Derivative-OPLS-2005>
1.22210240364075

$$$$
15
                    3D
 Structure written by MMmdl.
153161  0  0  1  0            999 V2000
  -30.5931  -14.8075   20.4635 C   0  0  0  0  0  0
  -30.4379  -12.4978   19.4803 C   0  0  0  0  0  0
  -29.5123  -12.5152   18.2425 C   0  0  0  0  0  0
  -28.0421  -12.3250   18.6618 C   0  0  0  0  0  0
  -27.6404  -13.2355   19.8511 C   0  0  2  0  0  0
  -28.6867  -13.1933   20.9862 C   0  0  0  0  0  0
  -25.2510  -13.8200   20.5713 C   0  0  0  0  0  0
  -24.1797  -13.0437   20.9217 C   0  0  0  0  0  0
  -24.6394  -11.6920   20.8764 C   0  0  0  0  0  0
  -23.9080  -10.4290   21.0408 C   0  0  0  0  0  0
  -24.3632   -9.4202   21.9183 C   0  0  0  0  0  0
  -23.6300   -8.2242   22.0749 C   0  0  0  0  0  0
  -22.4281   -8.0283   21.3546 C   0  0  0  0  0  0
  -21.9928   -9.0257   20.4647 C   0  0  0  0  0  0
  -22.7260  -10.2131   20.3054 C   0  0  0  0  0  0
  -21.6852   -6.0731   22.5275 C   0  0  0  0  0  0
  -21.4007   -6.5638   23.8209 C   0  0  0  0  0  0
  -21.3664   -5.6793   24.9177 C   0  0  0  0  0  0
  -21.6047   -4.3055   24.7222 C   0  0  0  0  0  0
  -21.8827   -3.8146   23.4344 C   0  0  0  0  0  0
  -21.9188   -4.6959   22.3399 C   0  0  0  0  0  0
  -22.7823  -13.5215   21.1889 C   0  0  0  0  0  0
  -22.1663   -4.2149   21.0977 F   0  0  0  0  0  0
  -21.5631   -3.4546   25.7735 F   0  0  0  0  0  0
  -29.9809  -13.5686   20.4013 N   0  0  0  0  0  0
  -26.2935  -12.9414   20.3302 N   0  0  0  0  0  0
  -25.9324  -11.6558   20.5774 N   0  0  0  0  0  0
  -22.0482  -12.8171   22.0435 N   0  0  0  0  0  0
  -25.4208  -15.1919   20.4092 N   0  0  0  0  0  0
  -31.7845  -14.8993   20.1500 O   0  0  0  0  0  0
  -21.6647   -6.8877   21.4238 O   0  0  0  0  0  0
  -22.3496  -14.5520   20.6744 O   0  0  0  0  0  0
  -24.6338  -31.8534   23.1923 C   0  0  0  0  0  0
  -25.9153  -32.4754   23.8302 C   0  0  1  0  0  0
  -27.2266  -27.2216   20.1540 C   0  0  0  0  0  0
  -25.5918  -33.8550   24.2231 N   0  0  0  0  0  0
  -23.4324  -30.4733   21.5364 C   0  0  2  0  0  0
  -24.8869  -28.9079   20.1126 C   0  0  0  0  0  0
  -22.7512  -29.4595   22.4882 C   0  0  0  0  0  0
  -18.0312  -28.1401   22.8518 C   0  0  0  0  0  0
  -24.1492  -36.7277   23.2646 C   0  0  0  0  0  0
  -25.9820  -30.7515   21.3807 C   0  0  0  0  0  0
  -26.0578  -29.3673   20.7305 C   0  0  0  0  0  0
  -27.2293  -28.5363   20.7437 C   0  0  0  0  0  0
  -26.0389  -26.8456   19.4895 C   0  0  0  0  0  0
  -24.8845  -27.6563   19.4774 C   0  0  0  0  0  0
  -23.6585  -29.7999   20.1559 C   0  0  0  0  0  0
  -25.4124  -36.3057   24.0325 C   0  0  1  0  0  0
  -20.5922  -28.3705   23.1280 C   0  0  2  0  0  0
  -20.6792  -26.9427   22.5405 C   0  0  0  0  0  0
  -19.5757  -26.6399   21.5220 C   0  0  0  0  0  0
  -18.1946  -26.7953   22.1634 C   0  0  0  0  0  0
  -19.1570  -28.8869   23.2904 C   0  0  0  0  0  0
  -18.9490  -30.1482   23.8904 C   0  0  0  0  0  0
  -17.6486  -30.6606   24.0587 C   0  0  0  0  0  0
  -25.9059  -34.9437   23.5088 C   0  0  0  0  0  0
  -16.5381  -29.9100   23.6350 C   0  0  0  0  0  0
  -16.7299  -28.6521   23.0376 C   0  0  0  0  0  0
  -26.4502  -31.6577   25.0699 C   0  0  0  0  0  0
  -25.3694  -31.3775   26.1400 C   0  0  0  0  0  0
  -27.0358  -30.2994   24.6189 C   0  0  0  0  0  0
  -27.6034  -32.4341   25.7483 C   0  0  0  0  0  0
  -27.5574  -37.1817   24.8488 C   0  0  0  0  0  0
  -21.4215  -29.3046   22.3638 N   0  0  0  0  0  0
  -26.4304  -37.3741   23.9399 N   0  0  0  0  0  0
  -24.7018  -31.0454   22.0930 N   0  0  0  0  0  0
  -23.4188  -28.8157   23.3015 O   0  0  0  0  0  0
  -28.3112  -26.2987   20.1917 O   0  0  0  0  0  0
  -26.5635  -34.8911   22.4658 O   0  0  0  0  0  0
  -23.5484  -32.1361   23.7201 O   0  0  0  0  0  0
  -31.2600  -18.0076   20.6367 C   0  0  0  0  0  0
  -31.2240  -19.4647   20.6107 C   0  0  0  0  0  0
  -30.0549  -17.3391   20.6295 C   0  0  0  0  0  0
  -29.9677  -20.0588   20.5473 C   0  0  0  0  0  0
  -28.0926  -24.8834   20.3788 C   0  0  0  0  0  0
  -29.0132  -23.8329   20.3012 C   0  0  0  0  0  0
  -28.6891  -22.3508   20.5126 C   0  0  0  0  0  0
  -33.1920  -20.3280   19.2825 C   0  0  0  0  0  0
  -32.5162  -20.2383   20.6559 C   0  0  0  0  0  0
  -29.7578  -21.4621   20.4466 N   0  0  0  0  0  0
  -29.7966  -15.9430   20.6730 N   0  0  0  0  0  0
  -27.5524  -21.9355   20.7418 O   0  0  0  0  0  0
  -30.2868  -24.1416   20.0145 O   0  0  0  0  0  0
  -28.8152  -18.6667   20.5882 S   0  0  0  0  0  0
  -31.4759  -12.6356   19.1731 H   0  0  0  0  0  0
  -30.3983  -11.5271   19.9763 H   0  0  0  0  0  0
  -29.8045  -11.7330   17.5397 H   0  0  0  0  0  0
  -29.6223  -13.4614   17.7093 H   0  0  0  0  0  0
  -27.9169  -11.2796   18.9437 H   0  0  0  0  0  0
  -27.3780  -12.4916   17.8127 H   0  0  0  0  0  0
  -27.6264  -14.2516   19.4556 H   0  0  0  0  0  0
  -28.7385  -12.2000   21.4339 H   0  0  0  0  0  0
  -28.4109  -13.8765   21.7904 H   0  0  0  0  0  0
  -25.2780   -9.5667   22.4765 H   0  0  0  0  0  0
  -24.0008   -7.4626   22.7455 H   0  0  0  0  0  0
  -21.0869   -8.8782   19.8941 H   0  0  0  0  0  0
  -22.3732  -10.9671   19.6164 H   0  0  0  0  0  0
  -21.2001   -7.6154   23.9710 H   0  0  0  0  0  0
  -21.1482   -6.0530   25.9081 H   0  0  0  0  0  0
  -22.0598   -2.7610   23.2847 H   0  0  0  0  0  0
  -22.4121  -11.9815   22.4776 H   0  0  0  0  0  0
  -21.1103  -13.1179   22.2678 H   0  0  0  0  0  0
  -24.6538  -15.8478   20.5118 H   0  0  0  0  0  0
  -26.2604  -15.6249   20.0471 H   0  0  0  0  0  0
  -26.7214  -32.5410   23.1035 H   0  0  0  0  0  0
  -25.0064  -33.9694   25.0382 H   0  0  0  0  0  0
  -22.7310  -31.2965   21.3831 H   0  0  0  0  0  0
  -23.3731  -35.9640   23.3367 H   0  0  0  0  0  0
  -24.3548  -36.8818   22.2041 H   0  0  0  0  0  0
  -23.7282  -37.6518   23.6626 H   0  0  0  0  0  0
  -26.1229  -31.5074   20.6061 H   0  0  0  0  0  0
  -26.8594  -30.8048   22.0149 H   0  0  0  0  0  0
  -28.1216  -28.8855   21.2446 H   0  0  0  0  0  0
  -25.9859  -25.8859   18.9958 H   0  0  0  0  0  0
  -23.9925  -27.3010   18.9798 H   0  0  0  0  0  0
  -23.7930  -30.5729   19.3981 H   0  0  0  0  0  0
  -22.7752  -29.2352   19.8495 H   0  0  0  0  0  0
  -25.1319  -36.1884   25.0817 H   0  0  0  0  0  0
  -21.0048  -28.3280   24.1398 H   0  0  0  0  0  0
  -20.5698  -26.2330   23.3624 H   0  0  0  0  0  0
  -21.6661  -26.7459   22.1198 H   0  0  0  0  0  0
  -19.6908  -25.6302   21.1271 H   0  0  0  0  0  0
  -19.6678  -27.3211   20.6761 H   0  0  0  0  0  0
  -17.4214  -26.6756   21.4030 H   0  0  0  0  0  0
  -18.0332  -26.0088   22.9029 H   0  0  0  0  0  0
  -19.7958  -30.7337   24.2243 H   0  0  0  0  0  0
  -17.5030  -31.6285   24.5199 H   0  0  0  0  0  0
  -15.5381  -30.3011   23.7649 H   0  0  0  0  0  0
  -15.8711  -28.0840   22.7075 H   0  0  0  0  0  0
  -24.5856  -30.7131   25.7736 H   0  0  0  0  0  0
  -24.8908  -32.2975   26.4762 H   0  0  0  0  0  0
  -25.7966  -30.8987   27.0206 H   0  0  0  0  0  0
  -26.2955  -29.6729   24.1190 H   0  0  0  0  0  0
  -27.4034  -29.7253   25.4697 H   0  0  0  0  0  0
  -27.8825  -30.4301   23.9451 H   0  0  0  0  0  0
  -27.2618  -33.3658   26.2014 H   0  0  0  0  0  0
  -28.3863  -32.6857   25.0320 H   0  0  0  0  0  0
  -28.0670  -31.8485   26.5427 H   0  0  0  0  0  0
  -28.2649  -38.0054   24.7429 H   0  0  0  0  0  0
  -28.0996  -36.2570   24.6448 H   0  0  0  0  0  0
  -27.2281  -37.1648   25.8892 H   0  0  0  0  0  0
  -20.9399  -29.8775   21.6854 H   0  0  0  0  0  0
  -26.0173  -38.2825   24.1314 H   0  0  0  0  0  0
  -32.2116  -17.4967   20.6690 H   0  0  0  0  0  0
  -27.0580  -24.6707   20.6169 H   0  0  0  0  0  0
  -34.1390  -20.8650   19.3497 H   0  0  0  0  0  0
  -32.5628  -20.8545   18.5645 H   0  0  0  0  0  0
  -33.4063  -19.3363   18.8838 H   0  0  0  0  0  0
  -33.2028  -19.7577   21.3537 H   0  0  0  0  0  0
  -32.3675  -21.2414   21.0564 H   0  0  0  0  0  0
  -30.6097  -21.9865   20.2953 H   0  0  0  0  0  0
  -28.8289  -15.7078   20.8328 H   0  0  0  0  0  0
  -30.3232  -25.0830   19.8986 H   0  0  0  0  0  0
  1 25  1  0  0  0
  1 30  2  0  0  0
  1 81  1  0  0  0
  2  3  1  0  0  0
  2 25  1  0  0  0
  2 85  1  0  0  0
  2 86  1  0  0  0
  3  4  1  0  0  0
  3 87  1  0  0  0
  3 88  1  0  0  0
  4  5  1  0  0  0
  4 89  1  0  0  0
  4 90  1  0  0  0
  5  6  1  0  0  0
  5 26  1  0  0  0
  5 91  1  0  0  0
  6 25  1  0  0  0
  6 92  1  0  0  0
  6 93  1  0  0  0
  7  8  2  0  0  0
  7 26  1  0  0  0
  7 29  1  0  0  0
  8  9  1  0  0  0
  8 22  1  0  0  0
  9 10  1  0  0  0
  9 27  2  0  0  0
 10 11  2  0  0  0
 10 15  1  0  0  0
 11 12  1  0  0  0
 11 94  1  0  0  0
 12 13  2  0  0  0
 12 95  1  0  0  0
 13 14  1  0  0  0
 13 31  1  0  0  0
 14 15  2  0  0  0
 14 96  1  0  0  0
 15 97  1  0  0  0
 16 17  2  0  0  0
 16 21  1  0  0  0
 16 31  1  0  0  0
 17 18  1  0  0  0
 17 98  1  0  0  0
 18 19  2  0  0  0
 18 99  1  0  0  0
 19 20  1  0  0  0
 19 24  1  0  0  0
 20 21  2  0  0  0
 20100  1  0  0  0
 21 23  1  0  0  0
 22 28  1  0  0  0
 22 32  2  0  0  0
 26 27  1  0  0  0
 28101  1  0  0  0
 28102  1  0  0  0
 29103  1  0  0  0
 29104  1  0  0  0
 33 34  1  0  0  0
 33 66  1  0  0  0
 33 70  2  0  0  0
 34 36  1  0  0  0
 34 59  1  0  0  0
 34105  1  0  0  0
 35 44  2  0  0  0
 35 45  1  0  0  0
 35 68  1  0  0  0
 36 56  1  0  0  0
 36106  1  0  0  0
 37 39  1  0  0  0
 37 47  1  0  0  0
 37 66  1  0  0  0
 37107  1  0  0  0
 38 43  2  0  0  0
 38 46  1  0  0  0
 38 47  1  0  0  0
 39 64  1  0  0  0
 39 67  2  0  0  0
 40 52  1  0  0  0
 40 53  2  0  0  0
 40 58  1  0  0  0
 41108  1  0  0  0
 41109  1  0  0  0
 41110  1  0  0  0
 41 48  1  0  0  0
 42 43  1  0  0  0
 42 66  1  0  0  0
 42111  1  0  0  0
 42112  1  0  0  0
 43 44  1  0  0  0
 44113  1  0  0  0
 45 46  2  0  0  0
 45114  1  0  0  0
 46115  1  0  0  0
 47116  1  0  0  0
 47117  1  0  0  0
 48 56  1  0  0  0
 48 65  1  0  0  0
 48118  1  0  0  0
 49 50  1  0  0  0
 49 53  1  0  0  0
 49 64  1  0  0  0
 49119  1  0  0  0
 50 51  1  0  0  0
 50120  1  0  0  0
 50121  1  0  0  0
 51 52  1  0  0  0
 51122  1  0  0  0
 51123  1  0  0  0
 52124  1  0  0  0
 52125  1  0  0  0
 53 54  1  0  0  0
 54 55  2  0  0  0
 54126  1  0  0  0
 55 57  1  0  0  0
 55127  1  0  0  0
 56 69  2  0  0  0
 57 58  2  0  0  0
 57128  1  0  0  0
 58129  1  0  0  0
 59 60  1  0  0  0
 59 61  1  0  0  0
 59 62  1  0  0  0
 60130  1  0  0  0
 60131  1  0  0  0
 60132  1  0  0  0
 61133  1  0  0  0
 61134  1  0  0  0
 61135  1  0  0  0
 62136  1  0  0  0
 62137  1  0  0  0
 62138  1  0  0  0
 63 65  1  0  0  0
 63139  1  0  0  0
 63140  1  0  0  0
 63141  1  0  0  0
 64142  1  0  0  0
 65143  1  0  0  0
 68 75  1  0  0  0
 71 72  1  0  0  0
 71 73  2  0  0  0
 71144  1  0  0  0
 72 74  2  0  0  0
 72 79  1  0  0  0
 73 81  1  0  0  0
 73 84  1  0  0  0
 74 80  1  0  0  0
 74 84  1  0  0  0
 75 76  2  0  0  0
 75145  1  0  0  0
 76 77  1  0  0  0
 76 83  1  0  0  0
 77 80  1  0  0  0
 77 82  2  0  0  0
 78 79  1  0  0  0
 78146  1  0  0  0
 78147  1  0  0  0
 78148  1  0  0  0
 79149  1  0  0  0
 79150  1  0  0  0
 80151  1  0  0  0
 81152  1  0  0  0
 83153  1  0  0  0
M  ISO  4   1 100  68 101  75 101  81 100
M  END
> <chiral flag>
0

> <version>
0

> <s_m_source_file>
/data/baiqing/PycharmProjects/Reinvent-master-3.2/result/LINK_invent/BTK/process_docking_weight1_custom_product_contain_oxygen_bond_distance_aromatic_linkinvent_7_9_3/rearranged_h_0169.sdf

> <i_m_source_file_index>
16

> <r_mmod_Potential_Energy-OPLS-2005>
120.001800537109

> <r_mmod_Stretch_Energy-OPLS-2005>
135.078308105469

> <r_mmod_Bend_Energy-OPLS-2005>
194.793823242188

> <r_mmod_Torsional_Energy-OPLS-2005>
199.041580200195

> <r_mmod_Improper_Torsional_Energy-OPLS-2005>
4.60583877563477

> <r_mmod_Van_der_Waal_Energy-OPLS-2005>
116.012001037598

> <r_mmod_Electrostatic_Energy-OPLS-2005>
-422.335327148438

> <r_mmod_Solvation_Energy-OPLS-2005>
-219.689300537109

> <b_mmod_Minimization_Converged-OPLS-2005>
0

> <r_mmod_RMS_Derivative-OPLS-2005>
2.7656307220459

$$$$
16
                    3D
 Structure written by MMmdl.
161169  0  0  1  0            999 V2000
  -30.6230  -14.5440   20.5476 C   0  0  0  0  0  0
  -30.4206  -12.3393   19.4609 C   0  0  0  0  0  0
  -29.5016  -12.5010   18.2314 C   0  0  0  0  0  0
  -28.0150  -12.3755   18.6234 C   0  0  0  0  0  0
  -27.6472  -13.2098   19.8810 C   0  0  2  0  0  0
  -28.6784  -13.0048   21.0095 C   0  0  0  0  0  0
  -25.2481  -13.8188   20.5714 C   0  0  0  0  0  0
  -24.1727  -13.0435   20.9171 C   0  0  0  0  0  0
  -24.6306  -11.6917   20.8723 C   0  0  0  0  0  0
  -23.9011  -10.4292   21.0394 C   0  0  0  0  0  0
  -24.3560   -9.4223   21.9186 C   0  0  0  0  0  0
  -23.6239   -8.2253   22.0751 C   0  0  0  0  0  0
  -22.4235   -8.0276   21.3536 C   0  0  0  0  0  0
  -21.9852   -9.0247   20.4649 C   0  0  0  0  0  0
  -22.7181  -10.2139   20.3065 C   0  0  0  0  0  0
  -21.6843   -6.0708   22.5255 C   0  0  0  0  0  0
  -21.4022   -6.5606   23.8205 C   0  0  0  0  0  0
  -21.3665   -5.6747   24.9145 C   0  0  0  0  0  0
  -21.6037   -4.3018   24.7188 C   0  0  0  0  0  0
  -21.8829   -3.8131   23.4298 C   0  0  0  0  0  0
  -21.9200   -4.6949   22.3361 C   0  0  0  0  0  0
  -22.7769  -13.5239   21.1823 C   0  0  0  0  0  0
  -22.1653   -4.2145   21.0942 F   0  0  0  0  0  0
  -21.5652   -3.4513   25.7687 F   0  0  0  0  0  0
  -30.0091  -13.3279   20.4716 N   0  0  0  0  0  0
  -26.2888  -12.9352   20.3369 N   0  0  0  0  0  0
  -25.9213  -11.6515   20.5755 N   0  0  0  0  0  0
  -22.0391  -12.8255   22.0396 N   0  0  0  0  0  0
  -25.4242  -15.1908   20.4271 N   0  0  0  0  0  0
  -31.7519  -14.7437   20.0896 O   0  0  0  0  0  0
  -21.6638   -6.8838   21.4213 O   0  0  0  0  0  0
  -22.3468  -14.5565   20.6710 O   0  0  0  0  0  0
  -24.6162  -31.8628   23.2091 C   0  0  0  0  0  0
  -25.9035  -32.4816   23.8409 C   0  0  1  0  0  0
  -27.2354  -27.3993   20.1355 C   0  0  0  0  0  0
  -25.5893  -33.8616   24.2344 N   0  0  0  0  0  0
  -23.4075  -30.4818   21.5481 C   0  0  2  0  0  0
  -24.8592  -28.9365   20.1224 C   0  0  0  0  0  0
  -22.7414  -29.4632   22.4995 C   0  0  0  0  0  0
  -18.0262  -28.1385   22.8493 C   0  0  0  0  0  0
  -24.1458  -36.7293   23.2635 C   0  0  0  0  0  0
  -25.9356  -30.8221   21.3640 C   0  0  0  0  0  0
  -26.0178  -29.4485   20.7231 C   0  0  0  0  0  0
  -27.2096  -28.6854   20.7283 C   0  0  0  0  0  0
  -26.0671  -26.9055   19.5237 C   0  0  0  0  0  0
  -24.8814  -27.6656   19.5166 C   0  0  0  0  0  0
  -23.6192  -29.8027   20.1672 C   0  0  0  0  0  0
  -25.4082  -36.3106   24.0341 C   0  0  1  0  0  0
  -20.5846  -28.3676   23.1314 C   0  0  2  0  0  0
  -20.6747  -26.9400   22.5416 C   0  0  0  0  0  0
  -19.5732  -26.6382   21.5203 C   0  0  0  0  0  0
  -18.1906  -26.7943   22.1598 C   0  0  0  0  0  0
  -19.1510  -28.8846   23.2904 C   0  0  0  0  0  0
  -18.9453  -30.1451   23.8911 C   0  0  0  0  0  0
  -17.6461  -30.6599   24.0555 C   0  0  0  0  0  0
  -25.9014  -34.9471   23.5139 C   0  0  0  0  0  0
  -16.5343  -29.9094   23.6343 C   0  0  0  0  0  0
  -16.7249  -28.6499   23.0377 C   0  0  0  0  0  0
  -26.4467  -31.6611   25.0751 C   0  0  0  0  0  0
  -25.3757  -31.3713   26.1528 C   0  0  0  0  0  0
  -27.0308  -30.3072   24.6101 C   0  0  0  0  0  0
  -27.6038  -32.4347   25.7498 C   0  0  0  0  0  0
  -27.5571  -37.1791   24.8460 C   0  0  0  0  0  0
  -21.4136  -29.3041   22.3727 N   0  0  0  0  0  0
  -26.4273  -37.3797   23.9422 N   0  0  0  0  0  0
  -24.6710  -31.0706   22.0991 N   0  0  0  0  0  0
  -23.4151  -28.8174   23.3063 O   0  0  0  0  0  0
  -28.3783  -26.6273   20.1361 O   0  0  0  0  0  0
  -26.5556  -34.8915   22.4689 O   0  0  0  0  0  0
  -23.5351  -32.1385   23.7473 O   0  0  0  0  0  0
  -29.0923  -16.5811   18.9065 C   0  0  0  0  0  0
  -29.4397  -18.0432   20.8142 C   0  0  0  0  0  0
  -28.6552  -18.9872   18.6774 C   0  0  0  0  0  0
  -28.6640  -17.6724   18.1272 C   0  0  0  0  0  0
  -29.4998  -16.7380   20.2444 C   0  0  0  0  0  0
  -29.0354  -19.1823   20.0472 C   0  0  0  0  0  0
  -28.2965  -20.1294   17.7787 C   0  0  0  0  0  0
  -28.6044  -22.8514   21.1918 C   0  0  0  0  0  0
  -28.1213  -21.4477   20.6879 C   0  0  0  0  0  0
  -28.2108  -17.3551   16.7041 C   0  0  0  0  0  0
  -26.8604  -20.1452   17.2746 C   0  0  0  0  0  0
  -28.2599  -24.0850   20.3112 C   0  0  0  0  0  0
  -28.3674  -25.4736   21.0146 C   0  0  0  0  0  0
  -29.0816  -20.4892   20.6735 N   0  0  0  0  0  0
  -29.8581  -15.5689   21.0096 N   0  0  0  0  0  0
  -29.0649  -21.0463   17.4783 O   0  0  0  0  0  0
  -29.2399  -22.9645   22.2471 O   0  0  0  0  0  0
  -26.9485  -21.2534   20.3533 O   0  0  0  0  0  0
  -31.4647  -12.4574   19.1682 H   0  0  0  0  0  0
  -30.3401  -11.3364   19.8792 H   0  0  0  0  0  0
  -29.7519  -11.7554   17.4763 H   0  0  0  0  0  0
  -29.6768  -13.4724   17.7692 H   0  0  0  0  0  0
  -27.7986  -11.3208   18.7983 H   0  0  0  0  0  0
  -27.3869  -12.6761   17.7831 H   0  0  0  0  0  0
  -27.6839  -14.2559   19.5887 H   0  0  0  0  0  0
  -28.6548  -11.9744   21.3605 H   0  0  0  0  0  0
  -28.4178  -13.6129   21.8770 H   0  0  0  0  0  0
  -25.2687   -9.5715   22.4771 H   0  0  0  0  0  0
  -23.9964   -7.4645   22.7458 H   0  0  0  0  0  0
  -21.0801   -8.8755   19.8933 H   0  0  0  0  0  0
  -22.3614  -10.9671   19.6186 H   0  0  0  0  0  0
  -21.2016   -7.6120   23.9690 H   0  0  0  0  0  0
  -21.1493   -6.0486   25.9047 H   0  0  0  0  0  0
  -22.0620   -2.7599   23.2827 H   0  0  0  0  0  0
  -22.3950  -11.9875   22.4748 H   0  0  0  0  0  0
  -21.1083  -13.1444   22.2718 H   0  0  0  0  0  0
  -24.6843  -15.8647   20.5889 H   0  0  0  0  0  0
  -26.2948  -15.6227   20.1479 H   0  0  0  0  0  0
  -26.7105  -32.5520   23.1174 H   0  0  0  0  0  0
  -25.0153  -33.9783   25.0565 H   0  0  0  0  0  0
  -22.6985  -31.2984   21.4016 H   0  0  0  0  0  0
  -23.3749  -35.9600   23.3297 H   0  0  0  0  0  0
  -24.3556  -36.8909   22.2051 H   0  0  0  0  0  0
  -23.7183  -37.6482   23.6650 H   0  0  0  0  0  0
  -26.0378  -31.5773   20.5843 H   0  0  0  0  0  0
  -26.8281  -30.8924   21.9749 H   0  0  0  0  0  0
  -28.0994  -29.0673   21.2087 H   0  0  0  0  0  0
  -26.0769  -25.9277   19.0611 H   0  0  0  0  0  0
  -23.9930  -27.2626   19.0507 H   0  0  0  0  0  0
  -23.7213  -30.5666   19.3949 H   0  0  0  0  0  0
  -22.7471  -29.2104   19.8831 H   0  0  0  0  0  0
  -25.1260  -36.1967   25.0841 H   0  0  0  0  0  0
  -20.9934  -28.3236   24.1436 H   0  0  0  0  0  0
  -20.5635  -26.2268   23.3604 H   0  0  0  0  0  0
  -21.6629  -26.7434   22.1228 H   0  0  0  0  0  0
  -19.6885  -25.6289   21.1251 H   0  0  0  0  0  0
  -19.6693  -27.3168   20.6714 H   0  0  0  0  0  0
  -17.4182  -26.6717   21.3985 H   0  0  0  0  0  0
  -18.0279  -26.0075   22.8974 H   0  0  0  0  0  0
  -19.7928  -30.7266   24.2280 H   0  0  0  0  0  0
  -17.5015  -31.6295   24.5131 H   0  0  0  0  0  0
  -15.5334  -30.3001   23.7683 H   0  0  0  0  0  0
  -15.8638  -28.0809   22.7135 H   0  0  0  0  0  0
  -24.5925  -30.7035   25.7920 H   0  0  0  0  0  0
  -24.8950  -32.2861   26.5000 H   0  0  0  0  0  0
  -25.8166  -30.8909   27.0271 H   0  0  0  0  0  0
  -26.2850  -29.6834   24.1162 H   0  0  0  0  0  0
  -27.4119  -29.7305   25.4537 H   0  0  0  0  0  0
  -27.8657  -30.4446   23.9229 H   0  0  0  0  0  0
  -27.2659  -33.3646   26.2081 H   0  0  0  0  0  0
  -28.3832  -32.6907   25.0313 H   0  0  0  0  0  0
  -28.0714  -31.8474   26.5409 H   0  0  0  0  0  0
  -28.2586  -38.0087   24.7545 H   0  0  0  0  0  0
  -28.1067  -36.2635   24.6238 H   0  0  0  0  0  0
  -27.2301  -37.1399   25.8862 H   0  0  0  0  0  0
  -20.9284  -29.8755   21.6956 H   0  0  0  0  0  0
  -26.0159  -38.2864   24.1476 H   0  0  0  0  0  0
  -29.0847  -15.6021   18.4501 H   0  0  0  0  0  0
  -29.7110  -18.1772   21.8522 H   0  0  0  0  0  0
  -28.6608  -16.4274   16.3473 H   0  0  0  0  0  0
  -28.4852  -18.1249   15.9825 H   0  0  0  0  0  0
  -27.1261  -17.2266   16.6839 H   0  0  0  0  0  0
  -26.3006  -19.3500   17.7667 H   0  0  0  0  0  0
  -26.8170  -19.9882   16.1966 H   0  0  0  0  0  0
  -26.3860  -21.0960   17.5180 H   0  0  0  0  0  0
  -27.2584  -23.9465   19.9080 H   0  0  0  0  0  0
  -28.9411  -24.0708   19.4635 H   0  0  0  0  0  0
  -29.3027  -25.5186   21.5746 H   0  0  0  0  0  0
  -27.5748  -25.5600   21.7608 H   0  0  0  0  0  0
  -29.9418  -20.7499   21.1389 H   0  0  0  0  0  0
  -29.1441  -15.2846   21.6640 H   0  0  0  0  0  0
  1 25  1  0  0  0
  1 30  2  0  0  0
  1 85  1  0  0  0
  2  3  1  0  0  0
  2 25  1  0  0  0
  2 89  1  0  0  0
  2 90  1  0  0  0
  3  4  1  0  0  0
  3 91  1  0  0  0
  3 92  1  0  0  0
  4  5  1  0  0  0
  4 93  1  0  0  0
  4 94  1  0  0  0
  5  6  1  0  0  0
  5 26  1  0  0  0
  5 95  1  0  0  0
  6 25  1  0  0  0
  6 96  1  0  0  0
  6 97  1  0  0  0
  7  8  2  0  0  0
  7 26  1  0  0  0
  7 29  1  0  0  0
  8  9  1  0  0  0
  8 22  1  0  0  0
  9 10  1  0  0  0
  9 27  2  0  0  0
 10 11  2  0  0  0
 10 15  1  0  0  0
 11 12  1  0  0  0
 11 98  1  0  0  0
 12 13  2  0  0  0
 12 99  1  0  0  0
 13 14  1  0  0  0
 13 31  1  0  0  0
 14 15  2  0  0  0
 14100  1  0  0  0
 15101  1  0  0  0
 16 17  2  0  0  0
 16 21  1  0  0  0
 16 31  1  0  0  0
 17 18  1  0  0  0
 17102  1  0  0  0
 18 19  2  0  0  0
 18103  1  0  0  0
 19 20  1  0  0  0
 19 24  1  0  0  0
 20 21  2  0  0  0
 20104  1  0  0  0
 21 23  1  0  0  0
 22 28  1  0  0  0
 22 32  2  0  0  0
 26 27  1  0  0  0
 28105  1  0  0  0
 28106  1  0  0  0
 29107  1  0  0  0
 29108  1  0  0  0
 33 34  1  0  0  0
 33 66  1  0  0  0
 33 70  2  0  0  0
 34 36  1  0  0  0
 34 59  1  0  0  0
 34109  1  0  0  0
 35 44  2  0  0  0
 35 45  1  0  0  0
 35 68  1  0  0  0
 36 56  1  0  0  0
 36110  1  0  0  0
 37 39  1  0  0  0
 37 47  1  0  0  0
 37 66  1  0  0  0
 37111  1  0  0  0
 38 43  2  0  0  0
 38 46  1  0  0  0
 38 47  1  0  0  0
 39 64  1  0  0  0
 39 67  2  0  0  0
 40 52  1  0  0  0
 40 53  2  0  0  0
 40 58  1  0  0  0
 41112  1  0  0  0
 41113  1  0  0  0
 41114  1  0  0  0
 41 48  1  0  0  0
 42 43  1  0  0  0
 42 66  1  0  0  0
 42115  1  0  0  0
 42116  1  0  0  0
 43 44  1  0  0  0
 44117  1  0  0  0
 45 46  2  0  0  0
 45118  1  0  0  0
 46119  1  0  0  0
 47120  1  0  0  0
 47121  1  0  0  0
 48 56  1  0  0  0
 48 65  1  0  0  0
 48122  1  0  0  0
 49 50  1  0  0  0
 49 53  1  0  0  0
 49 64  1  0  0  0
 49123  1  0  0  0
 50 51  1  0  0  0
 50124  1  0  0  0
 50125  1  0  0  0
 51 52  1  0  0  0
 51126  1  0  0  0
 51127  1  0  0  0
 52128  1  0  0  0
 52129  1  0  0  0
 53 54  1  0  0  0
 54 55  2  0  0  0
 54130  1  0  0  0
 55 57  1  0  0  0
 55131  1  0  0  0
 56 69  2  0  0  0
 57 58  2  0  0  0
 57132  1  0  0  0
 58133  1  0  0  0
 59 60  1  0  0  0
 59 61  1  0  0  0
 59 62  1  0  0  0
 60134  1  0  0  0
 60135  1  0  0  0
 60136  1  0  0  0
 61137  1  0  0  0
 61138  1  0  0  0
 61139  1  0  0  0
 62140  1  0  0  0
 62141  1  0  0  0
 62142  1  0  0  0
 63 65  1  0  0  0
 63143  1  0  0  0
 63144  1  0  0  0
 63145  1  0  0  0
 64146  1  0  0  0
 65147  1  0  0  0
 68 83  1  0  0  0
 71 74  2  0  0  0
 71 75  1  0  0  0
 71148  1  0  0  0
 72 75  2  0  0  0
 72 76  1  0  0  0
 72149  1  0  0  0
 73 74  1  0  0  0
 73 76  2  0  0  0
 73 77  1  0  0  0
 74 80  1  0  0  0
 75 85  1  0  0  0
 76 84  1  0  0  0
 77 81  1  0  0  0
 77 86  2  0  0  0
 78 79  1  0  0  0
 78 82  1  0  0  0
 78 87  2  0  0  0
 79 84  1  0  0  0
 79 88  2  0  0  0
 80150  1  0  0  0
 80151  1  0  0  0
 80152  1  0  0  0
 81153  1  0  0  0
 81154  1  0  0  0
 81155  1  0  0  0
 82 83  1  0  0  0
 82156  1  0  0  0
 82157  1  0  0  0
 83158  1  0  0  0
 83159  1  0  0  0
 84160  1  0  0  0
 85161  1  0  0  0
M  ISO  4   1 100  68 101  83 101  85 100
M  END
> <chiral flag>
0

> <version>
0

> <s_m_source_file>
/data/baiqing/PycharmProjects/Reinvent-master-3.2/result/LINK_invent/BTK/process_docking_weight1_custom_product_contain_oxygen_bond_distance_aromatic_linkinvent_7_9_3/rearranged_h_0169.sdf

> <i_m_source_file_index>
17

> <r_mmod_Potential_Energy-OPLS-2005>
120.360664367676

> <r_mmod_Stretch_Energy-OPLS-2005>
53.1896629333496

> <r_mmod_Bend_Energy-OPLS-2005>
104.595985412598

> <r_mmod_Torsional_Energy-OPLS-2005>
351.195251464844

> <r_mmod_Improper_Torsional_Energy-OPLS-2005>
6.79840803146362

> <r_mmod_Van_der_Waal_Energy-OPLS-2005>
148.334655761719

> <r_mmod_Electrostatic_Energy-OPLS-2005>
-325.880249023438

> <r_mmod_Solvation_Energy-OPLS-2005>
-240.473190307617

> <b_mmod_Minimization_Converged-OPLS-2005>
0

> <r_mmod_RMS_Derivative-OPLS-2005>
4.98022937774658

$$$$
17
                    3D
 Structure written by MMmdl.
157165  0  0  1  0            999 V2000
  -30.6432  -14.6747   20.4492 C   0  0  0  0  0  0
  -30.4196  -12.3959   19.4767 C   0  0  0  0  0  0
  -29.5130  -12.4977   18.2319 C   0  0  0  0  0  0
  -28.0332  -12.3395   18.6333 C   0  0  0  0  0  0
  -27.6428  -13.2329   19.8423 C   0  0  2  0  0  0
  -28.6815  -13.1501   20.9790 C   0  0  0  0  0  0
  -25.2531  -13.8208   20.5676 C   0  0  0  0  0  0
  -24.1808  -13.0447   20.9174 C   0  0  0  0  0  0
  -24.6395  -11.6924   20.8702 C   0  0  0  0  0  0
  -23.9067  -10.4300   21.0382 C   0  0  0  0  0  0
  -24.3625   -9.4219   21.9164 C   0  0  0  0  0  0
  -23.6304   -8.2250   22.0745 C   0  0  0  0  0  0
  -22.4284   -8.0284   21.3544 C   0  0  0  0  0  0
  -21.9916   -9.0251   20.4639 C   0  0  0  0  0  0
  -22.7235  -10.2136   20.3040 C   0  0  0  0  0  0
  -21.6861   -6.0736   22.5273 C   0  0  0  0  0  0
  -21.4016   -6.5634   23.8207 C   0  0  0  0  0  0
  -21.3661   -5.6788   24.9170 C   0  0  0  0  0  0
  -21.6057   -4.3053   24.7219 C   0  0  0  0  0  0
  -21.8820   -3.8145   23.4337 C   0  0  0  0  0  0
  -21.9191   -4.6963   22.3395 C   0  0  0  0  0  0
  -22.7829  -13.5231   21.1856 C   0  0  0  0  0  0
  -22.1663   -4.2151   21.0974 F   0  0  0  0  0  0
  -21.5630   -3.4531   25.7729 F   0  0  0  0  0  0
  -29.9997  -13.4610   20.4162 N   0  0  0  0  0  0
  -26.2945  -12.9414   20.3220 N   0  0  0  0  0  0
  -25.9322  -11.6546   20.5678 N   0  0  0  0  0  0
  -22.0474  -12.8221   22.0420 N   0  0  0  0  0  0
  -25.4265  -15.1927   20.4157 N   0  0  0  0  0  0
  -31.8374  -14.6916   20.1376 O   0  0  0  0  0  0
  -21.6654   -6.8881   21.4238 O   0  0  0  0  0  0
  -22.3497  -14.5526   20.6704 O   0  0  0  0  0  0
  -24.6285  -31.8574   23.1982 C   0  0  0  0  0  0
  -25.9128  -32.4764   23.8329 C   0  0  1  0  0  0
  -27.2240  -27.3066   20.1169 C   0  0  0  0  0  0
  -25.5950  -33.8565   24.2272 N   0  0  0  0  0  0
  -23.4211  -30.4800   21.5402 C   0  0  2  0  0  0
  -24.8613  -28.9236   20.1118 C   0  0  0  0  0  0
  -22.7483  -29.4623   22.4912 C   0  0  0  0  0  0
  -18.0300  -28.1387   22.8487 C   0  0  0  0  0  0
  -24.1495  -36.7266   23.2640 C   0  0  0  0  0  0
  -25.9606  -30.7859   21.3654 C   0  0  0  0  0  0
  -26.0296  -29.4113   20.7083 C   0  0  0  0  0  0
  -27.2085  -28.6138   20.6965 C   0  0  0  0  0  0
  -26.0220  -26.8491   19.5373 C   0  0  0  0  0  0
  -24.8586  -27.6478   19.5213 C   0  0  0  0  0  0
  -23.6345  -29.8112   20.1562 C   0  0  0  0  0  0
  -25.4126  -36.3072   24.0332 C   0  0  1  0  0  0
  -20.5901  -28.3692   23.1271 C   0  0  2  0  0  0
  -20.6789  -26.9414   22.5399 C   0  0  0  0  0  0
  -19.5766  -26.6385   21.5205 C   0  0  0  0  0  0
  -18.1945  -26.7931   22.1619 C   0  0  0  0  0  0
  -19.1552  -28.8855   23.2880 C   0  0  0  0  0  0
  -18.9481  -30.1456   23.8893 C   0  0  0  0  0  0
  -17.6483  -30.6583   24.0571 C   0  0  0  0  0  0
  -25.9067  -34.9439   23.5097 C   0  0  0  0  0  0
  -16.5373  -29.9085   23.6338 C   0  0  0  0  0  0
  -16.7290  -28.6507   23.0351 C   0  0  0  0  0  0
  -26.4521  -31.6580   25.0700 C   0  0  0  0  0  0
  -25.3762  -31.3708   26.1433 C   0  0  0  0  0  0
  -27.0381  -30.3026   24.6131 C   0  0  0  0  0  0
  -27.6093  -32.4306   25.7462 C   0  0  0  0  0  0
  -27.5585  -37.1795   24.8480 C   0  0  0  0  0  0
  -21.4199  -29.3040   22.3653 N   0  0  0  0  0  0
  -26.4300  -37.3774   23.9415 N   0  0  0  0  0  0
  -24.6894  -31.0586   22.0920 N   0  0  0  0  0  0
  -23.4200  -28.8173   23.3008 O   0  0  0  0  0  0
  -28.3869  -26.5285   20.1998 O   0  0  0  0  0  0
  -26.5621  -34.8914   22.4658 O   0  0  0  0  0  0
  -23.5442  -32.1378   23.7304 O   0  0  0  0  0  0
  -28.6104  -18.9790   20.4961 C   0  0  0  0  0  0
  -28.2845  -20.3744   20.3421 C   0  0  0  0  0  0
  -29.9532  -18.5038   20.3947 C   0  0  0  0  0  0
  -29.3067  -21.3134   20.0596 C   0  0  0  0  0  0
  -30.8900  -19.5621   20.1728 C   0  0  0  0  0  0
  -30.4240  -17.0225   20.4498 C   0  0  0  0  0  0
  -28.3213  -25.2373   18.0457 C   0  0  0  0  0  0
  -30.2482  -25.4096   19.5923 C   0  0  0  0  0  0
  -28.3643  -23.8180   20.2278 C   0  0  0  0  0  0
  -28.7147  -25.2375   19.5398 C   0  0  0  0  0  0
  -30.5792  -20.8733   19.9959 N   0  0  0  0  0  0
  -29.8466  -15.8581   20.6507 N   0  0  0  0  0  0
  -32.2645  -19.3613   20.0820 N   0  0  0  0  0  0
  -29.1600  -22.6800   19.6627 N   0  0  0  0  0  0
  -31.4691  -12.4708   19.1866 H   0  0  0  0  0  0
  -30.3161  -11.4155   19.9446 H   0  0  0  0  0  0
  -29.7854  -11.7352   17.5002 H   0  0  0  0  0  0
  -29.6640  -13.4611   17.7415 H   0  0  0  0  0  0
  -27.8744  -11.2903   18.8851 H   0  0  0  0  0  0
  -27.3866  -12.5479   17.7806 H   0  0  0  0  0  0
  -27.6458  -14.2587   19.4731 H   0  0  0  0  0  0
  -28.6882  -12.1553   21.4272 H   0  0  0  0  0  0
  -28.4290  -13.8455   21.7811 H   0  0  0  0  0  0
  -25.2770   -9.5698   22.4730 H   0  0  0  0  0  0
  -24.0014   -7.4647   22.7469 H   0  0  0  0  0  0
  -21.0846   -8.8763   19.8945 H   0  0  0  0  0  0
  -22.3689  -10.9667   19.6147 H   0  0  0  0  0  0
  -21.2008   -7.6145   23.9713 H   0  0  0  0  0  0
  -21.1488   -6.0515   25.9075 H   0  0  0  0  0  0
  -22.0601   -2.7607   23.2835 H   0  0  0  0  0  0
  -22.4107  -11.9913   22.4852 H   0  0  0  0  0  0
  -21.1080  -13.1225   22.2579 H   0  0  0  0  0  0
  -24.6751  -15.8613   20.5438 H   0  0  0  0  0  0
  -26.3040  -15.6242   20.1481 H   0  0  0  0  0  0
  -26.7187  -32.5432   23.1067 H   0  0  0  0  0  0
  -25.0195  -33.9717   25.0485 H   0  0  0  0  0  0
  -22.7172  -31.3015   21.3949 H   0  0  0  0  0  0
  -23.3770  -35.9586   23.3316 H   0  0  0  0  0  0
  -24.3603  -36.8869   22.2055 H   0  0  0  0  0  0
  -23.7223  -37.6462   23.6654 H   0  0  0  0  0  0
  -26.0932  -31.5467   20.5945 H   0  0  0  0  0  0
  -26.8419  -30.8355   21.9938 H   0  0  0  0  0  0
  -28.1106  -28.9848   21.1624 H   0  0  0  0  0  0
  -25.9418  -25.8513   19.1396 H   0  0  0  0  0  0
  -23.9515  -27.2557   19.0810 H   0  0  0  0  0  0
  -23.7653  -30.5874   19.4008 H   0  0  0  0  0  0
  -22.7525  -29.2475   19.8478 H   0  0  0  0  0  0
  -25.1302  -36.1935   25.0822 H   0  0  0  0  0  0
  -21.0018  -28.3268   24.1384 H   0  0  0  0  0  0
  -20.5701  -26.2302   23.3606 H   0  0  0  0  0  0
  -21.6658  -26.7445   22.1190 H   0  0  0  0  0  0
  -19.6935  -25.6296   21.1232 H   0  0  0  0  0  0
  -19.6703  -27.3194   20.6731 H   0  0  0  0  0  0
  -17.4221  -26.6694   21.4008 H   0  0  0  0  0  0
  -18.0341  -26.0061   22.8998 H   0  0  0  0  0  0
  -19.7959  -30.7273   24.2251 H   0  0  0  0  0  0
  -17.5043  -31.6265   24.5165 H   0  0  0  0  0  0
  -15.5377  -30.2994   23.7652 H   0  0  0  0  0  0
  -15.8696  -28.0829   22.7060 H   0  0  0  0  0  0
  -24.5943  -30.7047   25.7765 H   0  0  0  0  0  0
  -24.8937  -32.2859   26.4866 H   0  0  0  0  0  0
  -25.8087  -30.8891   27.0205 H   0  0  0  0  0  0
  -26.2945  -29.6746   24.1210 H   0  0  0  0  0  0
  -27.4191  -29.7309   25.4599 H   0  0  0  0  0  0
  -27.8752  -30.4355   23.9277 H   0  0  0  0  0  0
  -27.2745  -33.3627   26.2021 H   0  0  0  0  0  0
  -28.3908  -32.6826   25.0282 H   0  0  0  0  0  0
  -28.0758  -31.8440   26.5386 H   0  0  0  0  0  0
  -28.2609  -38.0086   24.7530 H   0  0  0  0  0  0
  -28.1074  -36.2620   24.6309 H   0  0  0  0  0  0
  -27.2311  -37.1436   25.8886 H   0  0  0  0  0  0
  -20.9380  -29.8756   21.6856 H   0  0  0  0  0  0
  -26.0183  -38.2849   24.1421 H   0  0  0  0  0  0
  -27.8153  -18.2671   20.6600 H   0  0  0  0  0  0
  -27.2504  -20.6900   20.3732 H   0  0  0  0  0  0
  -31.4999  -17.0018   20.2606 H   0  0  0  0  0  0
  -28.9356  -24.5361   17.4788 H   0  0  0  0  0  0
  -28.4558  -26.2210   17.5960 H   0  0  0  0  0  0
  -27.2946  -24.9233   17.8760 H   0  0  0  0  0  0
  -30.7844  -24.6290   19.0549 H   0  0  0  0  0  0
  -30.6088  -25.4042   20.6214 H   0  0  0  0  0  0
  -30.5541  -26.3579   19.1469 H   0  0  0  0  0  0
  -27.3005  -23.6001   20.1283 H   0  0  0  0  0  0
  -28.5698  -23.8704   21.2980 H   0  0  0  0  0  0
  -32.6654  -18.5266   20.4906 H   0  0  0  0  0  0
  -32.8460  -20.1816   20.1996 H   0  0  0  0  0  0
  -30.0185  -23.0288   19.2552 H   0  0  0  0  0  0
  1 25  1  0  0  0
  1 30  2  0  0  0
  1 82  1  0  0  0
  2  3  1  0  0  0
  2 25  1  0  0  0
  2 85  1  0  0  0
  2 86  1  0  0  0
  3  4  1  0  0  0
  3 87  1  0  0  0
  3 88  1  0  0  0
  4  5  1  0  0  0
  4 89  1  0  0  0
  4 90  1  0  0  0
  5  6  1  0  0  0
  5 26  1  0  0  0
  5 91  1  0  0  0
  6 25  1  0  0  0
  6 92  1  0  0  0
  6 93  1  0  0  0
  7  8  2  0  0  0
  7 26  1  0  0  0
  7 29  1  0  0  0
  8  9  1  0  0  0
  8 22  1  0  0  0
  9 10  1  0  0  0
  9 27  2  0  0  0
 10 11  2  0  0  0
 10 15  1  0  0  0
 11 12  1  0  0  0
 11 94  1  0  0  0
 12 13  2  0  0  0
 12 95  1  0  0  0
 13 14  1  0  0  0
 13 31  1  0  0  0
 14 15  2  0  0  0
 14 96  1  0  0  0
 15 97  1  0  0  0
 16 17  2  0  0  0
 16 21  1  0  0  0
 16 31  1  0  0  0
 17 18  1  0  0  0
 17 98  1  0  0  0
 18 19  2  0  0  0
 18 99  1  0  0  0
 19 20  1  0  0  0
 19 24  1  0  0  0
 20 21  2  0  0  0
 20100  1  0  0  0
 21 23  1  0  0  0
 22 28  1  0  0  0
 22 32  2  0  0  0
 26 27  1  0  0  0
 28101  1  0  0  0
 28102  1  0  0  0
 29103  1  0  0  0
 29104  1  0  0  0
 33 34  1  0  0  0
 33 66  1  0  0  0
 33 70  2  0  0  0
 34 36  1  0  0  0
 34 59  1  0  0  0
 34105  1  0  0  0
 35 44  2  0  0  0
 35 45  1  0  0  0
 35 68  1  0  0  0
 36 56  1  0  0  0
 36106  1  0  0  0
 37 39  1  0  0  0
 37 47  1  0  0  0
 37 66  1  0  0  0
 37107  1  0  0  0
 38 43  2  0  0  0
 38 46  1  0  0  0
 38 47  1  0  0  0
 39 64  1  0  0  0
 39 67  2  0  0  0
 40 52  1  0  0  0
 40 53  2  0  0  0
 40 58  1  0  0  0
 41108  1  0  0  0
 41109  1  0  0  0
 41110  1  0  0  0
 41 48  1  0  0  0
 42 43  1  0  0  0
 42 66  1  0  0  0
 42111  1  0  0  0
 42112  1  0  0  0
 43 44  1  0  0  0
 44113  1  0  0  0
 45 46  2  0  0  0
 45114  1  0  0  0
 46115  1  0  0  0
 47116  1  0  0  0
 47117  1  0  0  0
 48 56  1  0  0  0
 48 65  1  0  0  0
 48118  1  0  0  0
 49 50  1  0  0  0
 49 53  1  0  0  0
 49 64  1  0  0  0
 49119  1  0  0  0
 50 51  1  0  0  0
 50120  1  0  0  0
 50121  1  0  0  0
 51 52  1  0  0  0
 51122  1  0  0  0
 51123  1  0  0  0
 52124  1  0  0  0
 52125  1  0  0  0
 53 54  1  0  0  0
 54 55  2  0  0  0
 54126  1  0  0  0
 55 57  1  0  0  0
 55127  1  0  0  0
 56 69  2  0  0  0
 57 58  2  0  0  0
 57128  1  0  0  0
 58129  1  0  0  0
 59 60  1  0  0  0
 59 61  1  0  0  0
 59 62  1  0  0  0
 60130  1  0  0  0
 60131  1  0  0  0
 60132  1  0  0  0
 61133  1  0  0  0
 61134  1  0  0  0
 61135  1  0  0  0
 62136  1  0  0  0
 62137  1  0  0  0
 62138  1  0  0  0
 63 65  1  0  0  0
 63139  1  0  0  0
 63140  1  0  0  0
 63141  1  0  0  0
 64142  1  0  0  0
 65143  1  0  0  0
 68 80  1  0  0  0
 71 72  2  0  0  0
 71 73  1  0  0  0
 71144  1  0  0  0
 72 74  1  0  0  0
 72145  1  0  0  0
 73 75  2  0  0  0
 73 76  1  0  0  0
 74 81  2  0  0  0
 74 84  1  0  0  0
 75 81  1  0  0  0
 75 83  1  0  0  0
 76 82  2  0  0  0
 76146  1  0  0  0
 77147  1  0  0  0
 77148  1  0  0  0
 77149  1  0  0  0
 77 80  1  0  0  0
 78 80  1  0  0  0
 78150  1  0  0  0
 78151  1  0  0  0
 78152  1  0  0  0
 79 80  1  0  0  0
 79 84  1  0  0  0
 79153  1  0  0  0
 79154  1  0  0  0
 83155  1  0  0  0
 83156  1  0  0  0
 84157  1  0  0  0
M  ISO  4   1 100  68 101  80 101  82 100
M  END
> <chiral flag>
0

> <version>
0

> <s_m_source_file>
/data/baiqing/PycharmProjects/Reinvent-master-3.2/result/LINK_invent/BTK/process_docking_weight1_custom_product_contain_oxygen_bond_distance_aromatic_linkinvent_7_9_3/rearranged_h_0169.sdf

> <i_m_source_file_index>
18

> <r_mmod_Potential_Energy-OPLS-2005>
-85.5112609863281

> <r_mmod_Stretch_Energy-OPLS-2005>
95.3606185913086

> <r_mmod_Bend_Energy-OPLS-2005>
227.345642089844

> <r_mmod_Torsional_Energy-OPLS-2005>
188.555587768555

> <r_mmod_Improper_Torsional_Energy-OPLS-2005>
10.9408292770386

> <r_mmod_Van_der_Waal_Energy-OPLS-2005>
162.705825805664

> <r_mmod_Electrostatic_Energy-OPLS-2005>
-626.805541992188

> <r_mmod_Solvation_Energy-OPLS-2005>
-200.913284301758

> <b_mmod_Minimization_Converged-OPLS-2005>
0

> <r_mmod_RMS_Derivative-OPLS-2005>
1.88173818588257

$$$$
18
                    3D
 Structure written by MMmdl.
159167  0  0  1  0            999 V2000
  -30.6857  -14.4485   20.6333 C   0  0  0  0  0  0
  -30.4328  -12.3104   19.4151 C   0  0  0  0  0  0
  -29.5049  -12.5411   18.2049 C   0  0  0  0  0  0
  -28.0216  -12.3960   18.6044 C   0  0  0  0  0  0
  -27.6685  -13.2038   19.8801 C   0  0  2  0  0  0
  -28.7038  -12.9287   20.9932 C   0  0  0  0  0  0
  -25.2611  -13.8159   20.5653 C   0  0  0  0  0  0
  -24.1847  -13.0449   20.9137 C   0  0  0  0  0  0
  -24.6393  -11.6911   20.8695 C   0  0  0  0  0  0
  -23.9050  -10.4300   21.0390 C   0  0  0  0  0  0
  -24.3593   -9.4223   21.9179 C   0  0  0  0  0  0
  -23.6266   -8.2269   22.0758 C   0  0  0  0  0  0
  -22.4248   -8.0301   21.3556 C   0  0  0  0  0  0
  -21.9873   -9.0277   20.4658 C   0  0  0  0  0  0
  -22.7218  -10.2146   20.3050 C   0  0  0  0  0  0
  -21.6855   -6.0727   22.5276 C   0  0  0  0  0  0
  -21.4018   -6.5632   23.8213 C   0  0  0  0  0  0
  -21.3655   -5.6778   24.9169 C   0  0  0  0  0  0
  -21.6035   -4.3038   24.7231 C   0  0  0  0  0  0
  -21.8823   -3.8136   23.4347 C   0  0  0  0  0  0
  -21.9193   -4.6948   22.3389 C   0  0  0  0  0  0
  -22.7878  -13.5273   21.1813 C   0  0  0  0  0  0
  -22.1665   -4.2133   21.0968 F   0  0  0  0  0  0
  -21.5618   -3.4527   25.7748 F   0  0  0  0  0  0
  -30.0466  -13.2574   20.4702 N   0  0  0  0  0  0
  -26.3043  -12.9320   20.3331 N   0  0  0  0  0  0
  -25.9309  -11.6478   20.5685 N   0  0  0  0  0  0
  -22.0475  -12.8306   22.0364 N   0  0  0  0  0  0
  -25.4373  -15.1874   20.4099 N   0  0  0  0  0  0
  -31.7404  -14.7426   20.0616 O   0  0  0  0  0  0
  -21.6639   -6.8882   21.4244 O   0  0  0  0  0  0
  -22.3589  -14.5596   20.6664 O   0  0  0  0  0  0
  -24.6198  -31.8675   23.2096 C   0  0  0  0  0  0
  -25.9071  -32.4829   23.8402 C   0  0  1  0  0  0
  -27.2371  -27.4058   20.0756 C   0  0  0  0  0  0
  -25.5905  -33.8626   24.2337 N   0  0  0  0  0  0
  -23.4102  -30.4937   21.5491 C   0  0  2  0  0  0
  -24.8539  -28.9604   20.1126 C   0  0  0  0  0  0
  -22.7448  -29.4651   22.4936 C   0  0  0  0  0  0
  -18.0286  -28.1382   22.8474 C   0  0  0  0  0  0
  -24.1482  -36.7313   23.2642 C   0  0  0  0  0  0
  -25.9446  -30.8195   21.3716 C   0  0  0  0  0  0
  -26.0168  -29.4524   20.7158 C   0  0  0  0  0  0
  -27.2043  -28.6783   20.7043 C   0  0  0  0  0  0
  -26.0471  -26.9468   19.4584 C   0  0  0  0  0  0
  -24.8640  -27.7051   19.4882 C   0  0  0  0  0  0
  -23.6214  -29.8345   20.1611 C   0  0  0  0  0  0
  -25.4098  -36.3115   24.0345 C   0  0  1  0  0  0
  -20.5885  -28.3684   23.1278 C   0  0  2  0  0  0
  -20.6778  -26.9400   22.5422 C   0  0  0  0  0  0
  -19.5762  -26.6371   21.5207 C   0  0  0  0  0  0
  -18.1927  -26.7932   22.1584 C   0  0  0  0  0  0
  -19.1539  -28.8838   23.2880 C   0  0  0  0  0  0
  -18.9464  -30.1427   23.8921 C   0  0  0  0  0  0
  -17.6469  -30.6581   24.0553 C   0  0  0  0  0  0
  -25.9025  -34.9483   23.5134 C   0  0  0  0  0  0
  -16.5361  -29.9087   23.6316 C   0  0  0  0  0  0
  -16.7275  -28.6497   23.0354 C   0  0  0  0  0  0
  -26.4474  -31.6627   25.0757 C   0  0  0  0  0  0
  -25.3715  -31.3782   26.1499 C   0  0  0  0  0  0
  -27.0300  -30.3067   24.6165 C   0  0  0  0  0  0
  -27.6074  -32.4326   25.7492 C   0  0  0  0  0  0
  -27.5578  -37.1810   24.8448 C   0  0  0  0  0  0
  -21.4167  -29.3049   22.3679 N   0  0  0  0  0  0
  -26.4282  -37.3800   23.9403 N   0  0  0  0  0  0
  -24.6766  -31.0754   22.1003 N   0  0  0  0  0  0
  -23.4201  -28.8171   23.2980 O   0  0  0  0  0  0
  -28.4126  -26.6618   20.1068 O   0  0  0  0  0  0
  -26.5585  -34.8938   22.4696 O   0  0  0  0  0  0
  -23.5372  -32.1430   23.7454 O   0  0  0  0  0  0
  -28.6871  -17.1806   22.0283 C   0  0  0  0  0  0
  -30.5802  -17.5946   20.5980 C   0  0  0  0  0  0
  -28.3298  -18.5366   21.8865 C   0  0  0  0  0  0
  -29.8176  -16.6796   21.3604 C   0  0  0  0  0  0
  -29.1542  -19.3771   21.1068 C   0  0  0  0  0  0
  -29.0161  -23.1752   20.6904 C   0  0  0  0  0  0
  -27.2658  -19.7685   23.8633 C   0  0  0  0  0  0
  -27.0377  -19.0210   22.5417 C   0  0  0  0  0  0
  -29.5803  -24.4261   19.9798 C   0  0  0  0  0  0
  -29.6601  -21.7913   20.4342 C   0  0  0  0  0  0
  -28.4993  -25.3936   19.4090 C   0  0  0  0  0  0
  -30.2608  -18.9140   20.4836 N   0  0  0  0  0  0
  -30.0725  -15.2787   21.4928 N   0  0  0  0  0  0
  -28.7937  -20.7234   20.9424 N   0  0  0  0  0  0
  -28.0552  -23.2685   21.4624 O   0  0  0  0  0  0
  -31.4791  -12.4194   19.1260 H   0  0  0  0  0  0
  -30.3335  -11.2882   19.7826 H   0  0  0  0  0  0
  -29.7473  -11.8409   17.4037 H   0  0  0  0  0  0
  -29.6810  -13.5399   17.8007 H   0  0  0  0  0  0
  -27.8205  -11.3370   18.7678 H   0  0  0  0  0  0
  -27.3833  -12.7039   17.7757 H   0  0  0  0  0  0
  -27.7284  -14.2604   19.6179 H   0  0  0  0  0  0
  -28.6776  -11.8733   21.2674 H   0  0  0  0  0  0
  -28.4376  -13.4611   21.9066 H   0  0  0  0  0  0
  -25.2725   -9.5701   22.4768 H   0  0  0  0  0  0
  -23.9966   -7.4653   22.7484 H   0  0  0  0  0  0
  -21.0790   -8.8800   19.8972 H   0  0  0  0  0  0
  -22.3673  -10.9679   19.6159 H   0  0  0  0  0  0
  -21.2028   -7.6142   23.9717 H   0  0  0  0  0  0
  -21.1460   -6.0505   25.9068 H   0  0  0  0  0  0
  -22.0599   -2.7596   23.2868 H   0  0  0  0  0  0
  -22.3997  -11.9941   22.4765 H   0  0  0  0  0  0
  -21.1119  -13.1442   22.2552 H   0  0  0  0  0  0
  -24.6779  -15.8495   20.5174 H   0  0  0  0  0  0
  -26.2936  -15.6171   20.0811 H   0  0  0  0  0  0
  -26.7159  -32.5518   23.1177 H   0  0  0  0  0  0
  -25.0083  -33.9791   25.0499 H   0  0  0  0  0  0
  -22.7016  -31.3122   21.4105 H   0  0  0  0  0  0
  -23.3751  -35.9634   23.3291 H   0  0  0  0  0  0
  -24.3595  -36.8942   22.2060 H   0  0  0  0  0  0
  -23.7230  -37.6510   23.6670 H   0  0  0  0  0  0
  -26.0701  -31.5829   20.6021 H   0  0  0  0  0  0
  -26.8298  -30.8702   21.9938 H   0  0  0  0  0  0
  -28.0991  -29.0515   21.1825 H   0  0  0  0  0  0
  -25.9826  -26.0058   18.9379 H   0  0  0  0  0  0
  -23.9711  -27.3191   19.0153 H   0  0  0  0  0  0
  -23.7450  -30.6141   19.4080 H   0  0  0  0  0  0
  -22.7426  -29.2651   19.8530 H   0  0  0  0  0  0
  -25.1275  -36.1989   25.0840 H   0  0  0  0  0  0
  -20.9989  -28.3285   24.1390 H   0  0  0  0  0  0
  -20.5646  -26.2302   23.3635 H   0  0  0  0  0  0
  -21.6664  -26.7426   22.1247 H   0  0  0  0  0  0
  -19.6930  -25.6276   21.1250 H   0  0  0  0  0  0
  -19.6713  -27.3168   20.6726 H   0  0  0  0  0  0
  -17.4220  -26.6708   21.3957 H   0  0  0  0  0  0
  -18.0276  -26.0064   22.8956 H   0  0  0  0  0  0
  -19.7944  -30.7214   24.2336 H   0  0  0  0  0  0
  -17.5035  -31.6275   24.5130 H   0  0  0  0  0  0
  -15.5363  -30.2998   23.7628 H   0  0  0  0  0  0
  -15.8670  -28.0802   22.7096 H   0  0  0  0  0  0
  -24.5865  -30.7156   25.7847 H   0  0  0  0  0  0
  -24.8926  -32.2957   26.4927 H   0  0  0  0  0  0
  -25.8031  -30.8961   27.0279 H   0  0  0  0  0  0
  -26.2859  -29.6830   24.1202 H   0  0  0  0  0  0
  -27.4051  -29.7322   25.4647 H   0  0  0  0  0  0
  -27.8706  -30.4397   23.9349 H   0  0  0  0  0  0
  -27.2753  -33.3644   26.2079 H   0  0  0  0  0  0
  -28.3866  -32.6843   25.0286 H   0  0  0  0  0  0
  -28.0761  -31.8432   26.5386 H   0  0  0  0  0  0
  -28.2609  -38.0094   24.7499 H   0  0  0  0  0  0
  -28.1059  -36.2638   24.6250 H   0  0  0  0  0  0
  -27.2309  -37.1453   25.8854 H   0  0  0  0  0  0
  -20.9328  -29.8805   21.6927 H   0  0  0  0  0  0
  -26.0174  -38.2875   24.1408 H   0  0  0  0  0  0
  -28.0705  -16.5178   22.6183 H   0  0  0  0  0  0
  -31.4588  -17.2806   20.0555 H   0  0  0  0  0  0
  -26.3206  -20.1295   24.2709 H   0  0  0  0  0  0
  -27.9122  -20.6360   23.7313 H   0  0  0  0  0  0
  -27.7205  -19.1195   24.6123 H   0  0  0  0  0  0
  -26.3891  -18.1622   22.7290 H   0  0  0  0  0  0
  -26.4837  -19.6500   21.8436 H   0  0  0  0  0  0
  -30.2132  -24.0768   19.1648 H   0  0  0  0  0  0
  -30.2383  -24.9585   20.6661 H   0  0  0  0  0  0
  -30.6316  -21.7525   20.9274 H   0  0  0  0  0  0
  -29.8236  -21.6574   19.3643 H   0  0  0  0  0  0
  -27.5607  -24.8450   19.3931 H   0  0  0  0  0  0
  -28.7373  -25.6062   18.3647 H   0  0  0  0  0  0
  -29.3909  -14.7900   22.0536 H   0  0  0  0  0  0
  -28.0041  -21.0759   21.4762 H   0  0  0  0  0  0
  1 25  1  0  0  0
  1 30  2  0  0  0
  1 83  1  0  0  0
  2  3  1  0  0  0
  2 25  1  0  0  0
  2 86  1  0  0  0
  2 87  1  0  0  0
  3  4  1  0  0  0
  3 88  1  0  0  0
  3 89  1  0  0  0
  4  5  1  0  0  0
  4 90  1  0  0  0
  4 91  1  0  0  0
  5  6  1  0  0  0
  5 26  1  0  0  0
  5 92  1  0  0  0
  6 25  1  0  0  0
  6 93  1  0  0  0
  6 94  1  0  0  0
  7  8  2  0  0  0
  7 26  1  0  0  0
  7 29  1  0  0  0
  8  9  1  0  0  0
  8 22  1  0  0  0
  9 10  1  0  0  0
  9 27  2  0  0  0
 10 11  2  0  0  0
 10 15  1  0  0  0
 11 12  1  0  0  0
 11 95  1  0  0  0
 12 13  2  0  0  0
 12 96  1  0  0  0
 13 14  1  0  0  0
 13 31  1  0  0  0
 14 15  2  0  0  0
 14 97  1  0  0  0
 15 98  1  0  0  0
 16 17  2  0  0  0
 16 21  1  0  0  0
 16 31  1  0  0  0
 17 18  1  0  0  0
 17 99  1  0  0  0
 18 19  2  0  0  0
 18100  1  0  0  0
 19 20  1  0  0  0
 19 24  1  0  0  0
 20 21  2  0  0  0
 20101  1  0  0  0
 21 23  1  0  0  0
 22 28  1  0  0  0
 22 32  2  0  0  0
 26 27  1  0  0  0
 28102  1  0  0  0
 28103  1  0  0  0
 29104  1  0  0  0
 29105  1  0  0  0
 33 34  1  0  0  0
 33 66  1  0  0  0
 33 70  2  0  0  0
 34 36  1  0  0  0
 34 59  1  0  0  0
 34106  1  0  0  0
 35 44  2  0  0  0
 35 45  1  0  0  0
 35 68  1  0  0  0
 36 56  1  0  0  0
 36107  1  0  0  0
 37 39  1  0  0  0
 37 47  1  0  0  0
 37 66  1  0  0  0
 37108  1  0  0  0
 38 43  2  0  0  0
 38 46  1  0  0  0
 38 47  1  0  0  0
 39 64  1  0  0  0
 39 67  2  0  0  0
 40 52  1  0  0  0
 40 53  2  0  0  0
 40 58  1  0  0  0
 41109  1  0  0  0
 41110  1  0  0  0
 41111  1  0  0  0
 41 48  1  0  0  0
 42 43  1  0  0  0
 42 66  1  0  0  0
 42112  1  0  0  0
 42113  1  0  0  0
 43 44  1  0  0  0
 44114  1  0  0  0
 45 46  2  0  0  0
 45115  1  0  0  0
 46116  1  0  0  0
 47117  1  0  0  0
 47118  1  0  0  0
 48 56  1  0  0  0
 48 65  1  0  0  0
 48119  1  0  0  0
 49 50  1  0  0  0
 49 53  1  0  0  0
 49 64  1  0  0  0
 49120  1  0  0  0
 50 51  1  0  0  0
 50121  1  0  0  0
 50122  1  0  0  0
 51 52  1  0  0  0
 51123  1  0  0  0
 51124  1  0  0  0
 52125  1  0  0  0
 52126  1  0  0  0
 53 54  1  0  0  0
 54 55  2  0  0  0
 54127  1  0  0  0
 55 57  1  0  0  0
 55128  1  0  0  0
 56 69  2  0  0  0
 57 58  2  0  0  0
 57129  1  0  0  0
 58130  1  0  0  0
 59 60  1  0  0  0
 59 61  1  0  0  0
 59 62  1  0  0  0
 60131  1  0  0  0
 60132  1  0  0  0
 60133  1  0  0  0
 61134  1  0  0  0
 61135  1  0  0  0
 61136  1  0  0  0
 62137  1  0  0  0
 62138  1  0  0  0
 62139  1  0  0  0
 63 65  1  0  0  0
 63140  1  0  0  0
 63141  1  0  0  0
 63142  1  0  0  0
 64143  1  0  0  0
 65144  1  0  0  0
 68 81  1  0  0  0
 71 73  2  0  0  0
 71 74  1  0  0  0
 71145  1  0  0  0
 72 74  2  0  0  0
 72 82  1  0  0  0
 72146  1  0  0  0
 73 75  1  0  0  0
 73 78  1  0  0  0
 74 83  1  0  0  0
 75 82  2  0  0  0
 75 84  1  0  0  0
 76 79  1  0  0  0
 76 80  1  0  0  0
 76 85  2  0  0  0
 77 78  1  0  0  0
 77147  1  0  0  0
 77148  1  0  0  0
 77149  1  0  0  0
 78150  1  0  0  0
 78151  1  0  0  0
 79 81  1  0  0  0
 79152  1  0  0  0
 79153  1  0  0  0
 80 84  1  0  0  0
 80154  1  0  0  0
 80155  1  0  0  0
 81156  1  0  0  0
 81157  1  0  0  0
 83158  1  0  0  0
 84159  1  0  0  0
M  ISO  4   1 100  68 101  81 101  83 100
M  END
> <chiral flag>
0

> <version>
0

> <s_m_source_file>
/data/baiqing/PycharmProjects/Reinvent-master-3.2/result/LINK_invent/BTK/process_docking_weight1_custom_product_contain_oxygen_bond_distance_aromatic_linkinvent_7_9_3/rearranged_h_0169.sdf

> <i_m_source_file_index>
19

> <r_mmod_Potential_Energy-OPLS-2005>
-375.653594970703

> <r_mmod_Stretch_Energy-OPLS-2005>
41.7389373779297

> <r_mmod_Bend_Energy-OPLS-2005>
126.578727722168

> <r_mmod_Torsional_Energy-OPLS-2005>
206.840301513672

> <r_mmod_Improper_Torsional_Energy-OPLS-2005>
5.29917621612549

> <r_mmod_Van_der_Waal_Energy-OPLS-2005>
159.562850952148

> <r_mmod_Electrostatic_Energy-OPLS-2005>
-689.61669921875

> <r_mmod_Solvation_Energy-OPLS-2005>
-240.155075073242

> <b_mmod_Minimization_Converged-OPLS-2005>
0

> <r_mmod_RMS_Derivative-OPLS-2005>
2.50508880615234

$$$$
19
                    3D
 Structure written by MMmdl.
150158  0  0  1  0            999 V2000
  -30.5988  -14.6863   20.4960 C   0  0  0  0  0  0
  -30.4455  -12.4208   19.4588 C   0  0  0  0  0  0
  -29.5130  -12.5150   18.2294 C   0  0  0  0  0  0
  -28.0367  -12.3436   18.6405 C   0  0  0  0  0  0
  -27.6541  -13.2177   19.8644 C   0  0  2  0  0  0
  -28.6997  -13.0841   20.9952 C   0  0  0  0  0  0
  -25.2567  -13.8174   20.5682 C   0  0  0  0  0  0
  -24.1832  -13.0439   20.9184 C   0  0  0  0  0  0
  -24.6397  -11.6910   20.8732 C   0  0  0  0  0  0
  -23.9066  -10.4292   21.0395 C   0  0  0  0  0  0
  -24.3618   -9.4209   21.9174 C   0  0  0  0  0  0
  -23.6289   -8.2248   22.0753 C   0  0  0  0  0  0
  -22.4270   -8.0283   21.3546 C   0  0  0  0  0  0
  -21.9903   -9.0257   20.4650 C   0  0  0  0  0  0
  -22.7234  -10.2133   20.3052 C   0  0  0  0  0  0
  -21.6856   -6.0728   22.5274 C   0  0  0  0  0  0
  -21.4020   -6.5634   23.8207 C   0  0  0  0  0  0
  -21.3658   -5.6787   24.9170 C   0  0  0  0  0  0
  -21.6041   -4.3050   24.7219 C   0  0  0  0  0  0
  -21.8823   -3.8141   23.4341 C   0  0  0  0  0  0
  -21.9197   -4.6957   22.3397 C   0  0  0  0  0  0
  -22.7854  -13.5230   21.1847 C   0  0  0  0  0  0
  -22.1665   -4.2142   21.0973 F   0  0  0  0  0  0
  -21.5623   -3.4536   25.7733 F   0  0  0  0  0  0
  -30.0116  -13.4449   20.4330 N   0  0  0  0  0  0
  -26.2997  -12.9353   20.3321 N   0  0  0  0  0  0
  -25.9330  -11.6507   20.5755 N   0  0  0  0  0  0
  -22.0497  -12.8230   22.0405 N   0  0  0  0  0  0
  -25.4282  -15.1895   20.4092 N   0  0  0  0  0  0
  -31.7562  -14.8605   20.1017 O   0  0  0  0  0  0
  -21.6642   -6.8874   21.4237 O   0  0  0  0  0  0
  -22.3538  -14.5532   20.6688 O   0  0  0  0  0  0
  -24.6272  -31.8576   23.2014 C   0  0  0  0  0  0
  -25.9111  -32.4767   23.8347 C   0  0  1  0  0  0
  -27.2281  -27.3018   20.1252 C   0  0  0  0  0  0
  -25.5919  -33.8566   24.2278 N   0  0  0  0  0  0
  -23.4233  -30.4795   21.5438 C   0  0  2  0  0  0
  -24.8734  -28.9313   20.1118 C   0  0  0  0  0  0
  -22.7480  -29.4605   22.4927 C   0  0  0  0  0  0
  -18.0285  -28.1387   22.8482 C   0  0  0  0  0  0
  -24.1488  -36.7292   23.2637 C   0  0  0  0  0  0
  -25.9653  -30.7821   21.3769 C   0  0  0  0  0  0
  -26.0418  -29.4067   20.7221 C   0  0  0  0  0  0
  -27.2227  -28.6023   20.7223 C   0  0  0  0  0  0
  -26.0416  -26.8865   19.4824 C   0  0  0  0  0  0
  -24.8752  -27.6762   19.4830 C   0  0  0  0  0  0
  -23.6413  -29.8132   20.1596 C   0  0  0  0  0  0
  -25.4109  -36.3076   24.0332 C   0  0  1  0  0  0
  -20.5885  -28.3688   23.1282 C   0  0  2  0  0  0
  -20.6778  -26.9410   22.5414 C   0  0  0  0  0  0
  -19.5755  -26.6385   21.5214 C   0  0  0  0  0  0
  -18.1934  -26.7931   22.1625 C   0  0  0  0  0  0
  -19.1537  -28.8855   23.2876 C   0  0  0  0  0  0
  -18.9460  -30.1456   23.8897 C   0  0  0  0  0  0
  -17.6462  -30.6587   24.0566 C   0  0  0  0  0  0
  -25.9046  -34.9445   23.5108 C   0  0  0  0  0  0
  -16.5353  -29.9087   23.6330 C   0  0  0  0  0  0
  -16.7273  -28.6505   23.0348 C   0  0  0  0  0  0
  -26.4492  -31.6575   25.0718 C   0  0  0  0  0  0
  -25.3725  -31.3746   26.1454 C   0  0  0  0  0  0
  -27.0315  -30.2982   24.6187 C   0  0  0  0  0  0
  -27.6059  -32.4303   25.7479 C   0  0  0  0  0  0
  -27.5583  -37.1797   24.8460 C   0  0  0  0  0  0
  -21.4191  -29.3035   22.3669 N   0  0  0  0  0  0
  -26.4288  -37.3771   23.9411 N   0  0  0  0  0  0
  -24.6907  -31.0567   22.0976 N   0  0  0  0  0  0
  -23.4195  -28.8148   23.3018 O   0  0  0  0  0  0
  -28.3288  -26.4258   20.1455 O   0  0  0  0  0  0
  -26.5615  -34.8913   22.4677 O   0  0  0  0  0  0
  -23.5431  -32.1386   23.7328 O   0  0  0  0  0  0
  -28.6709  -17.9341   21.1969 C   0  0  0  0  0  0
  -28.5591  -19.3536   21.0654 C   0  0  0  0  0  0
  -30.8007  -17.9713   20.1003 C   0  0  0  0  0  0
  -29.7864  -17.1877   20.7197 C   0  0  0  0  0  0
  -29.5671  -20.1377   20.4397 C   0  0  0  0  0  0
  -30.6911  -19.3967   19.9671 C   0  0  0  0  0  0
  -28.1102  -25.0528   20.4337 C   0  0  0  0  0  0
  -28.9576  -23.9888   20.1966 C   0  0  0  0  0  0
  -28.5967  -22.5707   20.5572 C   0  0  0  0  0  0
  -29.5318  -21.6058   20.2583 N   0  0  0  0  0  0
  -29.7751  -15.7199   20.8843 N   0  0  0  0  0  0
  -27.5249  -22.2734   21.0891 O   0  0  0  0  0  0
  -30.1480  -24.2213   19.6239 O   0  0  0  0  0  0
  -31.6983  -20.0723   19.3622 F   0  0  0  0  0  0
  -31.4846  -12.5590   19.1540 H   0  0  0  0  0  0
  -30.3950  -11.4269   19.9060 H   0  0  0  0  0  0
  -29.7843  -11.7600   17.4901 H   0  0  0  0  0  0
  -29.6468  -13.4817   17.7410 H   0  0  0  0  0  0
  -27.8792  -11.2901   18.8756 H   0  0  0  0  0  0
  -27.3820  -12.5669   17.7973 H   0  0  0  0  0  0
  -27.6683  -14.2509   19.5181 H   0  0  0  0  0  0
  -28.7230  -12.0631   21.3786 H   0  0  0  0  0  0
  -28.4373  -13.7129   21.8473 H   0  0  0  0  0  0
  -25.2767   -9.5682   22.4743 H   0  0  0  0  0  0
  -23.9999   -7.4641   22.7473 H   0  0  0  0  0  0
  -21.0832   -8.8773   19.8958 H   0  0  0  0  0  0
  -22.3689  -10.9670   19.6160 H   0  0  0  0  0  0
  -21.2019   -7.6143   23.9706 H   0  0  0  0  0  0
  -21.1470   -6.0517   25.9069 H   0  0  0  0  0  0
  -22.0605   -2.7603   23.2846 H   0  0  0  0  0  0
  -22.4113  -11.9895   22.4802 H   0  0  0  0  0  0
  -21.1118  -13.1265   22.2611 H   0  0  0  0  0  0
  -24.6572  -15.8419   20.5066 H   0  0  0  0  0  0
  -26.2707  -15.6265   20.0579 H   0  0  0  0  0  0
  -26.7178  -32.5438   23.1094 H   0  0  0  0  0  0
  -25.0050  -33.9706   25.0412 H   0  0  0  0  0  0
  -22.7179  -31.3003   21.3993 H   0  0  0  0  0  0
  -23.3753  -35.9621   23.3282 H   0  0  0  0  0  0
  -24.3585  -36.8925   22.2055 H   0  0  0  0  0  0
  -23.7231  -37.6485   23.6670 H   0  0  0  0  0  0
  -26.0965  -31.5437   20.6071 H   0  0  0  0  0  0
  -26.8455  -30.8341   22.0065 H   0  0  0  0  0  0
  -28.1193  -28.9594   21.2099 H   0  0  0  0  0  0
  -26.0064  -25.9256   18.9886 H   0  0  0  0  0  0
  -23.9819  -27.3072   18.9981 H   0  0  0  0  0  0
  -23.7616  -30.5900   19.4033 H   0  0  0  0  0  0
  -22.7612  -29.2434   19.8561 H   0  0  0  0  0  0
  -25.1284  -36.1932   25.0823 H   0  0  0  0  0  0
  -20.9968  -28.3272   24.1406 H   0  0  0  0  0  0
  -20.5680  -26.2294   23.3611 H   0  0  0  0  0  0
  -21.6650  -26.7446   22.1208 H   0  0  0  0  0  0
  -19.6919  -25.6298   21.1238 H   0  0  0  0  0  0
  -19.6693  -27.3199   20.6747 H   0  0  0  0  0  0
  -17.4200  -26.6663   21.4033 H   0  0  0  0  0  0
  -18.0341  -26.0078   22.9027 H   0  0  0  0  0  0
  -19.7935  -30.7272   24.2267 H   0  0  0  0  0  0
  -17.5015  -31.6263   24.5170 H   0  0  0  0  0  0
  -15.5354  -30.2990   23.7655 H   0  0  0  0  0  0
  -15.8671  -28.0826   22.7066 H   0  0  0  0  0  0
  -24.5852  -30.7151   25.7786 H   0  0  0  0  0  0
  -24.8983  -32.2936   26.4909 H   0  0  0  0  0  0
  -25.8035  -30.8882   27.0212 H   0  0  0  0  0  0
  -26.2882  -29.6742   24.1209 H   0  0  0  0  0  0
  -27.3983  -29.7233   25.4700 H   0  0  0  0  0  0
  -27.8771  -30.4239   23.9421 H   0  0  0  0  0  0
  -27.2677  -33.3610   26.2048 H   0  0  0  0  0  0
  -28.3869  -32.6847   25.0302 H   0  0  0  0  0  0
  -28.0720  -31.8427   26.5399 H   0  0  0  0  0  0
  -28.2591  -38.0104   24.7515 H   0  0  0  0  0  0
  -28.1086  -36.2635   24.6267 H   0  0  0  0  0  0
  -27.2305  -37.1425   25.8863 H   0  0  0  0  0  0
  -20.9376  -29.8746   21.6865 H   0  0  0  0  0  0
  -26.0170  -38.2842   24.1424 H   0  0  0  0  0  0
  -27.8580  -17.4112   21.6809 H   0  0  0  0  0  0
  -27.6725  -19.8264   21.4595 H   0  0  0  0  0  0
  -31.6835  -17.4886   19.7078 H   0  0  0  0  0  0
  -27.1466  -24.8946   20.9016 H   0  0  0  0  0  0
  -30.3563  -21.9934   19.8170 H   0  0  0  0  0  0
  -28.9099  -15.3656   21.2626 H   0  0  0  0  0  0
  -30.2008  -25.1569   19.4714 H   0  0  0  0  0  0
  1 25  1  0  0  0
  1 30  2  0  0  0
  1 81  1  0  0  0
  2  3  1  0  0  0
  2 25  1  0  0  0
  2 85  1  0  0  0
  2 86  1  0  0  0
  3  4  1  0  0  0
  3 87  1  0  0  0
  3 88  1  0  0  0
  4  5  1  0  0  0
  4 89  1  0  0  0
  4 90  1  0  0  0
  5  6  1  0  0  0
  5 26  1  0  0  0
  5 91  1  0  0  0
  6 25  1  0  0  0
  6 92  1  0  0  0
  6 93  1  0  0  0
  7  8  2  0  0  0
  7 26  1  0  0  0
  7 29  1  0  0  0
  8  9  1  0  0  0
  8 22  1  0  0  0
  9 10  1  0  0  0
  9 27  2  0  0  0
 10 11  2  0  0  0
 10 15  1  0  0  0
 11 12  1  0  0  0
 11 94  1  0  0  0
 12 13  2  0  0  0
 12 95  1  0  0  0
 13 14  1  0  0  0
 13 31  1  0  0  0
 14 15  2  0  0  0
 14 96  1  0  0  0
 15 97  1  0  0  0
 16 17  2  0  0  0
 16 21  1  0  0  0
 16 31  1  0  0  0
 17 18  1  0  0  0
 17 98  1  0  0  0
 18 19  2  0  0  0
 18 99  1  0  0  0
 19 20  1  0  0  0
 19 24  1  0  0  0
 20 21  2  0  0  0
 20100  1  0  0  0
 21 23  1  0  0  0
 22 28  1  0  0  0
 22 32  2  0  0  0
 26 27  1  0  0  0
 28101  1  0  0  0
 28102  1  0  0  0
 29103  1  0  0  0
 29104  1  0  0  0
 33 34  1  0  0  0
 33 66  1  0  0  0
 33 70  2  0  0  0
 34 36  1  0  0  0
 34 59  1  0  0  0
 34105  1  0  0  0
 35 44  2  0  0  0
 35 45  1  0  0  0
 35 68  1  0  0  0
 36 56  1  0  0  0
 36106  1  0  0  0
 37 39  1  0  0  0
 37 47  1  0  0  0
 37 66  1  0  0  0
 37107  1  0  0  0
 38 43  2  0  0  0
 38 46  1  0  0  0
 38 47  1  0  0  0
 39 64  1  0  0  0
 39 67  2  0  0  0
 40 52  1  0  0  0
 40 53  2  0  0  0
 40 58  1  0  0  0
 41108  1  0  0  0
 41109  1  0  0  0
 41110  1  0  0  0
 41 48  1  0  0  0
 42 43  1  0  0  0
 42 66  1  0  0  0
 42111  1  0  0  0
 42112  1  0  0  0
 43 44  1  0  0  0
 44113  1  0  0  0
 45 46  2  0  0  0
 45114  1  0  0  0
 46115  1  0  0  0
 47116  1  0  0  0
 47117  1  0  0  0
 48 56  1  0  0  0
 48 65  1  0  0  0
 48118  1  0  0  0
 49 50  1  0  0  0
 49 53  1  0  0  0
 49 64  1  0  0  0
 49119  1  0  0  0
 50 51  1  0  0  0
 50120  1  0  0  0
 50121  1  0  0  0
 51 52  1  0  0  0
 51122  1  0  0  0
 51123  1  0  0  0
 52124  1  0  0  0
 52125  1  0  0  0
 53 54  1  0  0  0
 54 55  2  0  0  0
 54126  1  0  0  0
 55 57  1  0  0  0
 55127  1  0  0  0
 56 69  2  0  0  0
 57 58  2  0  0  0
 57128  1  0  0  0
 58129  1  0  0  0
 59 60  1  0  0  0
 59 61  1  0  0  0
 59 62  1  0  0  0
 60130  1  0  0  0
 60131  1  0  0  0
 60132  1  0  0  0
 61133  1  0  0  0
 61134  1  0  0  0
 61135  1  0  0  0
 62136  1  0  0  0
 62137  1  0  0  0
 62138  1  0  0  0
 63 65  1  0  0  0
 63139  1  0  0  0
 63140  1  0  0  0
 63141  1  0  0  0
 64142  1  0  0  0
 65143  1  0  0  0
 68 77  1  0  0  0
 71 72  2  0  0  0
 71 74  1  0  0  0
 71144  1  0  0  0
 72 75  1  0  0  0
 72145  1  0  0  0
 73 74  2  0  0  0
 73 76  1  0  0  0
 73146  1  0  0  0
 74 81  1  0  0  0
 75 76  2  0  0  0
 75 80  1  0  0  0
 76 84  1  0  0  0
 77 78  2  0  0  0
 77147  1  0  0  0
 78 79  1  0  0  0
 78 83  1  0  0  0
 79 80  1  0  0  0
 79 82  2  0  0  0
 80148  1  0  0  0
 81149  1  0  0  0
 83150  1  0  0  0
M  ISO  4   1 100  68 101  77 101  81 100
M  END
> <chiral flag>
0

> <version>
0

> <s_m_source_file>
/data/baiqing/PycharmProjects/Reinvent-master-3.2/result/LINK_invent/BTK/process_docking_weight1_custom_product_contain_oxygen_bond_distance_aromatic_linkinvent_7_9_3/rearranged_h_0169.sdf

> <i_m_source_file_index>
20

> <r_mmod_Potential_Energy-OPLS-2005>
-16.1836090087891

> <r_mmod_Stretch_Energy-OPLS-2005>
89.4873428344727

> <r_mmod_Bend_Energy-OPLS-2005>
146.241195678711

> <r_mmod_Torsional_Energy-OPLS-2005>
206.097305297852

> <r_mmod_Improper_Torsional_Energy-OPLS-2005>
3.61035680770874

> <r_mmod_Van_der_Waal_Energy-OPLS-2005>
145.394577026367

> <r_mmod_Electrostatic_Energy-OPLS-2005>
-452.366577148438

> <r_mmod_Solvation_Energy-OPLS-2005>
-215.703277587891

> <b_mmod_Minimization_Converged-OPLS-2005>
0

> <r_mmod_RMS_Derivative-OPLS-2005>
0.984381675720215

$$$$
20
                    3D
 Structure written by MMmdl.
162170  0  0  1  0            999 V2000
  -30.7241  -14.4774   20.5356 C   0  0  0  0  0  0
  -30.3884  -12.3019   19.4207 C   0  0  0  0  0  0
  -29.4738  -12.5092   18.1970 C   0  0  0  0  0  0
  -27.9936  -12.3863   18.6051 C   0  0  0  0  0  0
  -27.6461  -13.2221   19.8668 C   0  0  2  0  0  0
  -28.6924  -13.0358   20.9895 C   0  0  0  0  0  0
  -25.2508  -13.8209   20.5710 C   0  0  0  0  0  0
  -24.1780  -13.0439   20.9208 C   0  0  0  0  0  0
  -24.6366  -11.6919   20.8728 C   0  0  0  0  0  0
  -23.9054  -10.4289   21.0369 C   0  0  0  0  0  0
  -24.3605   -9.4214   21.9149 C   0  0  0  0  0  0
  -23.6304   -8.2241   22.0743 C   0  0  0  0  0  0
  -22.4294   -8.0267   21.3535 C   0  0  0  0  0  0
  -21.9913   -9.0226   20.4630 C   0  0  0  0  0  0
  -22.7225  -10.2115   20.3029 C   0  0  0  0  0  0
  -21.6855   -6.0735   22.5278 C   0  0  0  0  0  0
  -21.4006   -6.5639   23.8211 C   0  0  0  0  0  0
  -21.3665   -5.6802   24.9179 C   0  0  0  0  0  0
  -21.6048   -4.3071   24.7229 C   0  0  0  0  0  0
  -21.8814   -3.8160   23.4353 C   0  0  0  0  0  0
  -21.9201   -4.6965   22.3403 C   0  0  0  0  0  0
  -22.7799  -13.5207   21.1885 C   0  0  0  0  0  0
  -22.1666   -4.2152   21.0976 F   0  0  0  0  0  0
  -21.5634   -3.4555   25.7739 F   0  0  0  0  0  0
  -30.0183  -13.3171   20.4216 N   0  0  0  0  0  0
  -26.2937  -12.9389   20.3364 N   0  0  0  0  0  0
  -25.9289  -11.6534   20.5749 N   0  0  0  0  0  0
  -22.0504  -12.8149   22.0441 N   0  0  0  0  0  0
  -25.4270  -15.1933   20.4124 N   0  0  0  0  0  0
  -31.8704  -14.5754   20.0929 O   0  0  0  0  0  0
  -21.6663   -6.8864   21.4233 O   0  0  0  0  0  0
  -22.3458  -14.5529   20.6785 O   0  0  0  0  0  0
  -24.6252  -31.8607   23.2049 C   0  0  0  0  0  0
  -25.9101  -32.4796   23.8383 C   0  0  1  0  0  0
  -27.2322  -27.3869   20.1156 C   0  0  0  0  0  0
  -25.5895  -33.8599   24.2301 N   0  0  0  0  0  0
  -23.4160  -30.4824   21.5469 C   0  0  2  0  0  0
  -24.8603  -28.9374   20.1121 C   0  0  0  0  0  0
  -22.7473  -29.4642   22.5001 C   0  0  0  0  0  0
  -18.0276  -28.1421   22.8543 C   0  0  0  0  0  0
  -24.1460  -36.7319   23.2644 C   0  0  0  0  0  0
  -25.9475  -30.8143   21.3579 C   0  0  0  0  0  0
  -26.0253  -29.4438   20.7095 C   0  0  0  0  0  0
  -27.2184  -28.6781   20.6995 C   0  0  0  0  0  0
  -26.0561  -26.9066   19.5026 C   0  0  0  0  0  0
  -24.8742  -27.6716   19.5002 C   0  0  0  0  0  0
  -23.6223  -29.8074   20.1640 C   0  0  0  0  0  0
  -25.4085  -36.3127   24.0348 C   0  0  1  0  0  0
  -20.5873  -28.3708   23.1327 C   0  0  2  0  0  0
  -20.6780  -26.9431   22.5446 C   0  0  0  0  0  0
  -19.5727  -26.6410   21.5275 C   0  0  0  0  0  0
  -18.1897  -26.7981   22.1664 C   0  0  0  0  0  0
  -19.1526  -28.8894   23.2923 C   0  0  0  0  0  0
  -18.9453  -30.1511   23.8917 C   0  0  0  0  0  0
  -17.6444  -30.6614   24.0602 C   0  0  0  0  0  0
  -25.9022  -34.9479   23.5128 C   0  0  0  0  0  0
  -16.5337  -29.9111   23.6358 C   0  0  0  0  0  0
  -16.7268  -28.6535   23.0371 C   0  0  0  0  0  0
  -26.4468  -31.6616   25.0758 C   0  0  0  0  0  0
  -25.3706  -31.3739   26.1499 C   0  0  0  0  0  0
  -27.0302  -30.3066   24.6182 C   0  0  0  0  0  0
  -27.6054  -32.4357   25.7469 C   0  0  0  0  0  0
  -27.5570  -37.1822   24.8492 C   0  0  0  0  0  0
  -21.4188  -29.3045   22.3733 N   0  0  0  0  0  0
  -26.4283  -37.3806   23.9430 N   0  0  0  0  0  0
  -24.6826  -31.0662   22.0965 N   0  0  0  0  0  0
  -23.4222  -28.8191   23.3072 O   0  0  0  0  0  0
  -28.3546  -26.5775   20.1474 O   0  0  0  0  0  0
  -26.5588  -34.8946   22.4700 O   0  0  0  0  0  0
  -23.5416  -32.1380   23.7397 O   0  0  0  0  0  0
  -29.6709  -18.0440   20.9003 C   0  0  0  0  0  0
  -31.9005  -17.1889   21.3385 C   0  0  0  0  0  0
  -31.5448  -19.6042   21.2041 C   0  0  0  0  0  0
  -30.5382  -16.9248   21.0618 C   0  0  0  0  0  0
  -30.1573  -19.3872   20.9525 C   0  0  0  0  0  0
  -32.3987  -18.4985   21.3938 C   0  0  0  0  0  0
  -28.5689  -22.7828   20.7649 C   0  0  0  0  0  0
  -28.8411  -24.0750   20.3798 C   0  0  0  0  0  0
  -29.3181  -21.6387   20.1806 C   0  0  0  0  0  0
  -32.1521  -20.9983   21.3186 C   0  0  0  0  0  0
  -28.0519  -22.4971   23.2614 C   0  0  0  0  0  0
  -27.4995  -22.4738   21.8235 C   0  0  0  0  0  0
  -28.1939  -25.3653   20.9385 C   0  0  0  0  0  0
  -29.2325  -20.4901   20.8949 N   0  0  0  0  0  0
  -30.0473  -15.5671   20.9783 N   0  0  0  0  0  0
  -29.9712  -21.6957   19.1316 O   0  0  0  0  0  0
  -29.7606  -24.4059   19.4544 O   0  0  0  0  0  0
  -33.7168  -18.6859   21.6438 F   0  0  0  0  0  0
  -31.4370  -12.3530   19.1258 H   0  0  0  0  0  0
  -30.2428  -11.3033   19.8338 H   0  0  0  0  0  0
  -29.7043  -11.7834   17.4167 H   0  0  0  0  0  0
  -29.6508  -13.4934   17.7608 H   0  0  0  0  0  0
  -27.7805  -11.3313   18.7806 H   0  0  0  0  0  0
  -27.3527  -12.6882   17.7748 H   0  0  0  0  0  0
  -27.6770  -14.2681   19.5601 H   0  0  0  0  0  0
  -28.6628  -12.0138   21.3723 H   0  0  0  0  0  0
  -28.4710  -13.6782   21.8416 H   0  0  0  0  0  0
  -25.2738   -9.5716   22.4718 H   0  0  0  0  0  0
  -24.0047   -7.4637   22.7451 H   0  0  0  0  0  0
  -21.0866   -8.8697   19.8927 H   0  0  0  0  0  0
  -22.3657  -10.9629   19.6142 H   0  0  0  0  0  0
  -21.1983   -7.6139   23.9710 H   0  0  0  0  0  0
  -21.1489   -6.0537   25.9080 H   0  0  0  0  0  0
  -22.0593   -2.7624   23.2858 H   0  0  0  0  0  0
  -22.4202  -11.9809   22.4747 H   0  0  0  0  0  0
  -21.1096  -13.1072   22.2670 H   0  0  0  0  0  0
  -24.6667  -15.8574   20.5113 H   0  0  0  0  0  0
  -26.2858  -15.6234   20.0907 H   0  0  0  0  0  0
  -26.7188  -32.5454   23.1150 H   0  0  0  0  0  0
  -25.0108  -33.9756   25.0494 H   0  0  0  0  0  0
  -22.7091  -31.3007   21.4017 H   0  0  0  0  0  0
  -23.3741  -35.9633   23.3313 H   0  0  0  0  0  0
  -24.3539  -36.8936   22.2059 H   0  0  0  0  0  0
  -23.7181  -37.6506   23.6663 H   0  0  0  0  0  0
  -26.0551  -31.5686   20.5763 H   0  0  0  0  0  0
  -26.8409  -30.8773   21.9694 H   0  0  0  0  0  0
  -28.1182  -29.0588   21.1598 H   0  0  0  0  0  0
  -26.0486  -25.9276   19.0411 H   0  0  0  0  0  0
  -23.9821  -27.2679   19.0389 H   0  0  0  0  0  0
  -23.7240  -30.5767   19.3980 H   0  0  0  0  0  0
  -22.7464  -29.2215   19.8785 H   0  0  0  0  0  0
  -25.1259  -36.2009   25.0843 H   0  0  0  0  0  0
  -20.9952  -28.3279   24.1450 H   0  0  0  0  0  0
  -20.5731  -26.2314   23.3653 H   0  0  0  0  0  0
  -21.6636  -26.7487   22.1188 H   0  0  0  0  0  0
  -19.6860  -25.6322   21.1297 H   0  0  0  0  0  0
  -19.6664  -27.3236   20.6811 H   0  0  0  0  0  0
  -17.4198  -26.6840   21.4017 H   0  0  0  0  0  0
  -18.0190  -26.0095   22.9013 H   0  0  0  0  0  0
  -19.7904  -30.7366   24.2257 H   0  0  0  0  0  0
  -17.4955  -31.6269   24.5235 H   0  0  0  0  0  0
  -15.5334  -30.2995   23.7654 H   0  0  0  0  0  0
  -15.8682  -28.0846   22.7052 H   0  0  0  0  0  0
  -24.5905  -30.7047   25.7851 H   0  0  0  0  0  0
  -24.8833  -32.2875   26.4920 H   0  0  0  0  0  0
  -25.8028  -30.8955   27.0297 H   0  0  0  0  0  0
  -26.2863  -29.6818   24.1234 H   0  0  0  0  0  0
  -27.4050  -29.7335   25.4669 H   0  0  0  0  0  0
  -27.8694  -30.4405   23.9356 H   0  0  0  0  0  0
  -27.2738  -33.3718   26.1979 H   0  0  0  0  0  0
  -28.3843  -32.6829   25.0244 H   0  0  0  0  0  0
  -28.0749  -31.8530   26.5407 H   0  0  0  0  0  0
  -28.2656  -38.0049   24.7455 H   0  0  0  0  0  0
  -28.0985  -36.2580   24.6418 H   0  0  0  0  0  0
  -27.2280  -37.1614   25.8893 H   0  0  0  0  0  0
  -20.9393  -29.8768   21.6932 H   0  0  0  0  0  0
  -26.0187  -38.2900   24.1393 H   0  0  0  0  0  0
  -28.6169  -17.8726   20.7229 H   0  0  0  0  0  0
  -32.6015  -16.3884   21.5143 H   0  0  0  0  0  0
  -31.5346  -21.6515   21.9337 H   0  0  0  0  0  0
  -32.2555  -21.4379   20.3272 H   0  0  0  0  0  0
  -33.1460  -20.9889   21.7670 H   0  0  0  0  0  0
  -27.2919  -22.1683   23.9711 H   0  0  0  0  0  0
  -28.3643  -23.5001   23.5535 H   0  0  0  0  0  0
  -28.9127  -21.8377   23.3820 H   0  0  0  0  0  0
  -27.0208  -21.5125   21.6250 H   0  0  0  0  0  0
  -26.6775  -23.1823   21.7482 H   0  0  0  0  0  0
  -28.6569  -25.5523   21.9092 H   0  0  0  0  0  0
  -27.1433  -25.1766   21.1537 H   0  0  0  0  0  0
  -28.5038  -20.4921   21.5952 H   0  0  0  0  0  0
  -29.0657  -15.4162   21.1604 H   0  0  0  0  0  0
  -30.1278  -23.5917   19.1183 H   0  0  0  0  0  0
  1 25  1  0  0  0
  1 30  2  0  0  0
  1 85  1  0  0  0
  2  3  1  0  0  0
  2 25  1  0  0  0
  2 89  1  0  0  0
  2 90  1  0  0  0
  3  4  1  0  0  0
  3 91  1  0  0  0
  3 92  1  0  0  0
  4  5  1  0  0  0
  4 93  1  0  0  0
  4 94  1  0  0  0
  5  6  1  0  0  0
  5 26  1  0  0  0
  5 95  1  0  0  0
  6 25  1  0  0  0
  6 96  1  0  0  0
  6 97  1  0  0  0
  7  8  2  0  0  0
  7 26  1  0  0  0
  7 29  1  0  0  0
  8  9  1  0  0  0
  8 22  1  0  0  0
  9 10  1  0  0  0
  9 27  2  0  0  0
 10 11  2  0  0  0
 10 15  1  0  0  0
 11 12  1  0  0  0
 11 98  1  0  0  0
 12 13  2  0  0  0
 12 99  1  0  0  0
 13 14  1  0  0  0
 13 31  1  0  0  0
 14 15  2  0  0  0
 14100  1  0  0  0
 15101  1  0  0  0
 16 17  2  0  0  0
 16 21  1  0  0  0
 16 31  1  0  0  0
 17 18  1  0  0  0
 17102  1  0  0  0
 18 19  2  0  0  0
 18103  1  0  0  0
 19 20  1  0  0  0
 19 24  1  0  0  0
 20 21  2  0  0  0
 20104  1  0  0  0
 21 23  1  0  0  0
 22 28  1  0  0  0
 22 32  2  0  0  0
 26 27  1  0  0  0
 28105  1  0  0  0
 28106  1  0  0  0
 29107  1  0  0  0
 29108  1  0  0  0
 33 34  1  0  0  0
 33 66  1  0  0  0
 33 70  2  0  0  0
 34 36  1  0  0  0
 34 59  1  0  0  0
 34109  1  0  0  0
 35 44  2  0  0  0
 35 45  1  0  0  0
 35 68  1  0  0  0
 36 56  1  0  0  0
 36110  1  0  0  0
 37 39  1  0  0  0
 37 47  1  0  0  0
 37 66  1  0  0  0
 37111  1  0  0  0
 38 43  2  0  0  0
 38 46  1  0  0  0
 38 47  1  0  0  0
 39 64  1  0  0  0
 39 67  2  0  0  0
 40 52  1  0  0  0
 40 53  2  0  0  0
 40 58  1  0  0  0
 41112  1  0  0  0
 41113  1  0  0  0
 41114  1  0  0  0
 41 48  1  0  0  0
 42 43  1  0  0  0
 42 66  1  0  0  0
 42115  1  0  0  0
 42116  1  0  0  0
 43 44  1  0  0  0
 44117  1  0  0  0
 45 46  2  0  0  0
 45118  1  0  0  0
 46119  1  0  0  0
 47120  1  0  0  0
 47121  1  0  0  0
 48 56  1  0  0  0
 48 65  1  0  0  0
 48122  1  0  0  0
 49 50  1  0  0  0
 49 53  1  0  0  0
 49 64  1  0  0  0
 49123  1  0  0  0
 50 51  1  0  0  0
 50124  1  0  0  0
 50125  1  0  0  0
 51 52  1  0  0  0
 51126  1  0  0  0
 51127  1  0  0  0
 52128  1  0  0  0
 52129  1  0  0  0
 53 54  1  0  0  0
 54 55  2  0  0  0
 54130  1  0  0  0
 55 57  1  0  0  0
 55131  1  0  0  0
 56 69  2  0  0  0
 57 58  2  0  0  0
 57132  1  0  0  0
 58133  1  0  0  0
 59 60  1  0  0  0
 59 61  1  0  0  0
 59 62  1  0  0  0
 60134  1  0  0  0
 60135  1  0  0  0
 60136  1  0  0  0
 61137  1  0  0  0
 61138  1  0  0  0
 61139  1  0  0  0
 62140  1  0  0  0
 62141  1  0  0  0
 62142  1  0  0  0
 63 65  1  0  0  0
 63143  1  0  0  0
 63144  1  0  0  0
 63145  1  0  0  0
 64146  1  0  0  0
 65147  1  0  0  0
 68 83  1  0  0  0
 71 74  2  0  0  0
 71 75  1  0  0  0
 71148  1  0  0  0
 72 74  1  0  0  0
 72 76  2  0  0  0
 72149  1  0  0  0
 73 75  2  0  0  0
 73 76  1  0  0  0
 73 80  1  0  0  0
 74 85  1  0  0  0
 75 84  1  0  0  0
 76 88  1  0  0  0
 77 78  2  0  0  0
 77 79  1  0  0  0
 77 82  1  0  0  0
 78 83  1  0  0  0
 78 87  1  0  0  0
 79 84  1  0  0  0
 79 86  2  0  0  0
 80150  1  0  0  0
 80151  1  0  0  0
 80152  1  0  0  0
 81 82  1  0  0  0
 81153  1  0  0  0
 81154  1  0  0  0
 81155  1  0  0  0
 82156  1  0  0  0
 82157  1  0  0  0
 83158  1  0  0  0
 83159  1  0  0  0
 84160  1  0  0  0
 85161  1  0  0  0
 87162  1  0  0  0
M  ISO  4   1 100  68 101  83 101  85 100
M  END
> <chiral flag>
0

> <version>
0

> <s_m_source_file>
/data/baiqing/PycharmProjects/Reinvent-master-3.2/result/LINK_invent/BTK/process_docking_weight1_custom_product_contain_oxygen_bond_distance_aromatic_linkinvent_7_9_3/rearranged_h_0169.sdf

> <i_m_source_file_index>
21

> <r_mmod_Potential_Energy-OPLS-2005>
72.4612579345703

> <r_mmod_Stretch_Energy-OPLS-2005>
55.293384552002

> <r_mmod_Bend_Energy-OPLS-2005>
104.675750732422

> <r_mmod_Torsional_Energy-OPLS-2005>
271.217742919922

> <r_mmod_Improper_Torsional_Energy-OPLS-2005>
5.2169132232666

> <r_mmod_Van_der_Waal_Energy-OPLS-2005>
176.667938232422

> <r_mmod_Electrostatic_Energy-OPLS-2005>
-334.636474609375

> <r_mmod_Solvation_Energy-OPLS-2005>
-228.230545043945

> <b_mmod_Minimization_Converged-OPLS-2005>
0

> <r_mmod_RMS_Derivative-OPLS-2005>
3.95315718650818

$$$$
21
                    3D
 Structure written by MMmdl.
158166  0  0  1  0            999 V2000
  -30.6812  -14.4295   20.6133 C   0  0  0  0  0  0
  -30.4244  -12.2952   19.3941 C   0  0  0  0  0  0
  -29.4857  -12.5379   18.1917 C   0  0  0  0  0  0
  -28.0052  -12.3955   18.6029 C   0  0  0  0  0  0
  -27.6689  -13.1970   19.8876 C   0  0  2  0  0  0
  -28.7090  -12.9032   20.9921 C   0  0  0  0  0  0
  -25.2638  -13.8163   20.5677 C   0  0  0  0  0  0
  -24.1885  -13.0453   20.9186 C   0  0  0  0  0  0
  -24.6417  -11.6899   20.8747 C   0  0  0  0  0  0
  -23.9067  -10.4304   21.0413 C   0  0  0  0  0  0
  -24.3602   -9.4212   21.9165 C   0  0  0  0  0  0
  -23.6265   -8.2258   22.0759 C   0  0  0  0  0  0
  -22.4246   -8.0306   21.3538 C   0  0  0  0  0  0
  -21.9887   -9.0310   20.4668 C   0  0  0  0  0  0
  -22.7234  -10.2180   20.3062 C   0  0  0  0  0  0
  -21.6860   -6.0740   22.5279 C   0  0  0  0  0  0
  -21.4029   -6.5644   23.8220 C   0  0  0  0  0  0
  -21.3648   -5.6795   24.9176 C   0  0  0  0  0  0
  -21.6024   -4.3063   24.7227 C   0  0  0  0  0  0
  -21.8811   -3.8154   23.4366 C   0  0  0  0  0  0
  -21.9196   -4.6959   22.3412 C   0  0  0  0  0  0
  -22.7920  -13.5260   21.1887 C   0  0  0  0  0  0
  -22.1656   -4.2138   21.0998 F   0  0  0  0  0  0
  -21.5621   -3.4548   25.7745 F   0  0  0  0  0  0
  -30.0498  -13.2342   20.4620 N   0  0  0  0  0  0
  -26.3056  -12.9288   20.3393 N   0  0  0  0  0  0
  -25.9330  -11.6460   20.5757 N   0  0  0  0  0  0
  -22.0553  -12.8262   22.0428 N   0  0  0  0  0  0
  -25.4434  -15.1874   20.4028 N   0  0  0  0  0  0
  -31.7524  -14.7078   20.0536 O   0  0  0  0  0  0
  -21.6639   -6.8887   21.4232 O   0  0  0  0  0  0
  -22.3617  -14.5578   20.6742 O   0  0  0  0  0  0
  -24.6196  -31.8652   23.2144 C   0  0  0  0  0  0
  -25.9089  -32.4793   23.8419 C   0  0  1  0  0  0
  -27.1917  -27.3862   20.0454 C   0  0  0  0  0  0
  -25.5948  -33.8595   24.2320 N   0  0  0  0  0  0
  -23.4035  -30.4990   21.5601 C   0  0  2  0  0  0
  -24.8356  -28.9738   20.1108 C   0  0  0  0  0  0
  -22.7424  -29.4637   22.4989 C   0  0  0  0  0  0
  -18.0270  -28.1348   22.8495 C   0  0  0  0  0  0
  -24.1489  -36.7315   23.2631 C   0  0  0  0  0  0
  -25.9451  -30.8011   21.3897 C   0  0  0  0  0  0
  -26.0042  -29.4391   20.7248 C   0  0  0  0  0  0
  -27.1799  -28.6440   20.7080 C   0  0  0  0  0  0
  -25.9999  -26.9750   19.3985 C   0  0  0  0  0  0
  -24.8308  -27.7425   19.4489 C   0  0  0  0  0  0
  -23.6099  -29.8545   20.1677 C   0  0  0  0  0  0
  -25.4105  -36.3083   24.0326 C   0  0  1  0  0  0
  -20.5863  -28.3637   23.1297 C   0  0  2  0  0  0
  -20.6740  -26.9372   22.5396 C   0  0  0  0  0  0
  -19.5727  -26.6372   21.5179 C   0  0  0  0  0  0
  -18.1918  -26.7894   22.1623 C   0  0  0  0  0  0
  -19.1520  -28.8815   23.2899 C   0  0  0  0  0  0
  -18.9450  -30.1415   23.8913 C   0  0  0  0  0  0
  -17.6453  -30.6572   24.0555 C   0  0  0  0  0  0
  -25.9041  -34.9453   23.5113 C   0  0  0  0  0  0
  -16.5340  -29.9075   23.6315 C   0  0  0  0  0  0
  -16.7257  -28.6477   23.0364 C   0  0  0  0  0  0
  -26.4505  -31.6598   25.0772 C   0  0  0  0  0  0
  -25.3789  -31.3786   26.1557 C   0  0  0  0  0  0
  -27.0327  -30.3009   24.6222 C   0  0  0  0  0  0
  -27.6089  -32.4332   25.7508 C   0  0  0  0  0  0
  -27.5575  -37.1795   24.8457 C   0  0  0  0  0  0
  -21.4152  -29.3024   22.3737 N   0  0  0  0  0  0
  -26.4283  -37.3766   23.9411 N   0  0  0  0  0  0
  -24.6738  -31.0702   22.1100 N   0  0  0  0  0  0
  -23.4194  -28.8123   23.2993 O   0  0  0  0  0  0
  -28.3415  -26.6056   20.0422 O   0  0  0  0  0  0
  -26.5579  -34.8903   22.4659 O   0  0  0  0  0  0
  -23.5376  -32.1453   23.7508 O   0  0  0  0  0  0
  -28.7778  -18.7278   21.5898 C   0  0  0  0  0  0
  -28.8218  -17.3422   21.9621 C   0  0  0  0  0  0
  -29.6427  -19.0697   20.5889 C   0  0  0  0  0  0
  -29.7793  -16.6196   21.2685 C   0  0  0  0  0  0
  -27.9233  -16.7763   22.9769 C   0  0  0  0  0  0
  -29.0617  -22.7461   19.6823 C   0  0  0  0  0  0
  -28.9780  -24.1963   20.2738 C   0  0  0  0  0  0
  -25.7111  -16.9969   24.3058 C   0  0  0  0  0  0
  -26.7061  -17.6385   23.3302 C   0  0  0  0  0  0
  -29.4515  -21.5811   20.6318 C   0  0  0  0  0  0
  -28.2995  -25.2866   19.4183 C   0  0  0  0  0  0
  -30.0359  -15.2825   21.4224 N   0  0  0  0  0  0
  -29.8289  -20.3137   19.9679 N   0  0  0  0  0  0
  -28.0669  -15.6729   23.5147 O   0  0  0  0  0  0
  -28.8146  -22.5284   18.4864 O   0  0  0  0  0  0
  -29.4227  -24.4532   21.4009 O   0  0  0  0  0  0
  -30.5652  -17.6705   20.0880 S   0  0  0  0  0  0
  -31.4688  -12.4027   19.0981 H   0  0  0  0  0  0
  -30.3368  -11.2685   19.7508 H   0  0  0  0  0  0
  -29.7217  -11.8508   17.3771 H   0  0  0  0  0  0
  -29.6485  -13.5428   17.7991 H   0  0  0  0  0  0
  -27.7963  -11.3350   18.7482 H   0  0  0  0  0  0
  -27.3555  -12.7139   17.7876 H   0  0  0  0  0  0
  -27.7371  -14.2572   19.6428 H   0  0  0  0  0  0
  -28.6739  -11.8439   21.2514 H   0  0  0  0  0  0
  -28.4582  -13.4205   21.9166 H   0  0  0  0  0  0
  -25.2752   -9.5681   22.4748 H   0  0  0  0  0  0
  -23.9981   -7.4639   22.7464 H   0  0  0  0  0  0
  -21.0838   -8.8855   19.8966 H   0  0  0  0  0  0
  -22.3699  -10.9743   19.6216 H   0  0  0  0  0  0
  -21.2031   -7.6156   23.9718 H   0  0  0  0  0  0
  -21.1466   -6.0534   25.9075 H   0  0  0  0  0  0
  -22.0595   -2.7614   23.2874 H   0  0  0  0  0  0
  -22.4128  -11.9895   22.4783 H   0  0  0  0  0  0
  -21.1206  -13.1358   22.2668 H   0  0  0  0  0  0
  -24.6748  -15.8432   20.4811 H   0  0  0  0  0  0
  -26.2821  -15.6099   20.0268 H   0  0  0  0  0  0
  -26.7145  -32.5429   23.1149 H   0  0  0  0  0  0
  -25.0138  -33.9771   25.0490 H   0  0  0  0  0  0
  -22.6937  -31.3185   21.4318 H   0  0  0  0  0  0
  -23.3720  -35.9680   23.3301 H   0  0  0  0  0  0
  -24.3576  -36.8916   22.2045 H   0  0  0  0  0  0
  -23.7282  -37.6543   23.6635 H   0  0  0  0  0  0
  -26.0810  -31.5653   20.6242 H   0  0  0  0  0  0
  -26.8246  -30.8322   22.0200 H   0  0  0  0  0  0
  -28.0748  -28.9889   21.2043 H   0  0  0  0  0  0
  -25.9092  -26.0827   18.8030 H   0  0  0  0  0  0
  -23.9398  -27.3935   18.9431 H   0  0  0  0  0  0
  -23.7381  -30.6416   19.4241 H   0  0  0  0  0  0
  -22.7264  -29.2959   19.8537 H   0  0  0  0  0  0
  -25.1282  -36.1930   25.0815 H   0  0  0  0  0  0
  -20.9943  -28.3172   24.1419 H   0  0  0  0  0  0
  -20.5585  -26.2254   23.3586 H   0  0  0  0  0  0
  -21.6607  -26.7372   22.1200 H   0  0  0  0  0  0
  -19.6871  -25.6284   21.1202 H   0  0  0  0  0  0
  -19.6656  -27.3192   20.6712 H   0  0  0  0  0  0
  -17.4165  -26.6619   21.4057 H   0  0  0  0  0  0
  -18.0355  -26.0033   22.9028 H   0  0  0  0  0  0
  -19.7934  -30.7203   24.2309 H   0  0  0  0  0  0
  -17.5019  -31.6250   24.5161 H   0  0  0  0  0  0
  -15.5342  -30.2979   23.7634 H   0  0  0  0  0  0
  -15.8660  -28.0785   22.7093 H   0  0  0  0  0  0
  -24.5833  -30.7271   25.7927 H   0  0  0  0  0  0
  -24.9161  -32.3004   26.5093 H   0  0  0  0  0  0
  -25.8136  -30.8862   27.0269 H   0  0  0  0  0  0
  -26.2888  -29.6757   24.1269 H   0  0  0  0  0  0
  -27.4046  -29.7262   25.4717 H   0  0  0  0  0  0
  -27.8758  -30.4281   23.9428 H   0  0  0  0  0  0
  -27.2693  -33.3605   26.2134 H   0  0  0  0  0  0
  -28.3859  -32.6939   25.0310 H   0  0  0  0  0  0
  -28.0806  -31.8441   26.5383 H   0  0  0  0  0  0
  -28.2587  -38.0095   24.7470 H   0  0  0  0  0  0
  -28.1075  -36.2616   24.6303 H   0  0  0  0  0  0
  -27.2302  -37.1474   25.8865 H   0  0  0  0  0  0
  -20.9303  -29.8866   21.7066 H   0  0  0  0  0  0
  -26.0163  -38.2838   24.1419 H   0  0  0  0  0  0
  -28.0991  -19.4226   22.0547 H   0  0  0  0  0  0
  -24.8842  -17.6832   24.4869 H   0  0  0  0  0  0
  -26.1815  -16.7751   25.2636 H   0  0  0  0  0  0
  -25.2997  -16.0733   23.8962 H   0  0  0  0  0  0
  -26.1896  -17.8661   22.3985 H   0  0  0  0  0  0
  -27.0541  -18.5839   23.7467 H   0  0  0  0  0  0
  -28.6097  -21.4253   21.3073 H   0  0  0  0  0  0
  -30.2826  -21.9168   21.2545 H   0  0  0  0  0  0
  -27.2985  -24.8826   19.2987 H   0  0  0  0  0  0
  -28.7488  -25.3309   18.4232 H   0  0  0  0  0  0
  -29.3725  -14.8133   22.0246 H   0  0  0  0  0  0
  -30.5584  -20.3907   19.2612 H   0  0  0  0  0  0
  1 25  1  0  0  0
  1 30  2  0  0  0
  1 82  1  0  0  0
  2  3  1  0  0  0
  2 25  1  0  0  0
  2 88  1  0  0  0
  2 89  1  0  0  0
  3  4  1  0  0  0
  3 90  1  0  0  0
  3 91  1  0  0  0
  4  5  1  0  0  0
  4 92  1  0  0  0
  4 93  1  0  0  0
  5  6  1  0  0  0
  5 26  1  0  0  0
  5 94  1  0  0  0
  6 25  1  0  0  0
  6 95  1  0  0  0
  6 96  1  0  0  0
  7  8  2  0  0  0
  7 26  1  0  0  0
  7 29  1  0  0  0
  8  9  1  0  0  0
  8 22  1  0  0  0
  9 10  1  0  0  0
  9 27  2  0  0  0
 10 11  2  0  0  0
 10 15  1  0  0  0
 11 12  1  0  0  0
 11 97  1  0  0  0
 12 13  2  0  0  0
 12 98  1  0  0  0
 13 14  1  0  0  0
 13 31  1  0  0  0
 14 15  2  0  0  0
 14 99  1  0  0  0
 15100  1  0  0  0
 16 17  2  0  0  0
 16 21  1  0  0  0
 16 31  1  0  0  0
 17 18  1  0  0  0
 17101  1  0  0  0
 18 19  2  0  0  0
 18102  1  0  0  0
 19 20  1  0  0  0
 19 24  1  0  0  0
 20 21  2  0  0  0
 20103  1  0  0  0
 21 23  1  0  0  0
 22 28  1  0  0  0
 22 32  2  0  0  0
 26 27  1  0  0  0
 28104  1  0  0  0
 28105  1  0  0  0
 29106  1  0  0  0
 29107  1  0  0  0
 33 34  1  0  0  0
 33 66  1  0  0  0
 33 70  2  0  0  0
 34 36  1  0  0  0
 34 59  1  0  0  0
 34108  1  0  0  0
 35 44  2  0  0  0
 35 45  1  0  0  0
 35 68  1  0  0  0
 36 56  1  0  0  0
 36109  1  0  0  0
 37 39  1  0  0  0
 37 47  1  0  0  0
 37 66  1  0  0  0
 37110  1  0  0  0
 38 43  2  0  0  0
 38 46  1  0  0  0
 38 47  1  0  0  0
 39 64  1  0  0  0
 39 67  2  0  0  0
 40 52  1  0  0  0
 40 53  2  0  0  0
 40 58  1  0  0  0
 41111  1  0  0  0
 41112  1  0  0  0
 41113  1  0  0  0
 41 48  1  0  0  0
 42 43  1  0  0  0
 42 66  1  0  0  0
 42114  1  0  0  0
 42115  1  0  0  0
 43 44  1  0  0  0
 44116  1  0  0  0
 45 46  2  0  0  0
 45117  1  0  0  0
 46118  1  0  0  0
 47119  1  0  0  0
 47120  1  0  0  0
 48 56  1  0  0  0
 48 65  1  0  0  0
 48121  1  0  0  0
 49 50  1  0  0  0
 49 53  1  0  0  0
 49 64  1  0  0  0
 49122  1  0  0  0
 50 51  1  0  0  0
 50123  1  0  0  0
 50124  1  0  0  0
 51 52  1  0  0  0
 51125  1  0  0  0
 51126  1  0  0  0
 52127  1  0  0  0
 52128  1  0  0  0
 53 54  1  0  0  0
 54 55  2  0  0  0
 54129  1  0  0  0
 55 57  1  0  0  0
 55130  1  0  0  0
 56 69  2  0  0  0
 57 58  2  0  0  0
 57131  1  0  0  0
 58132  1  0  0  0
 59 60  1  0  0  0
 59 61  1  0  0  0
 59 62  1  0  0  0
 60133  1  0  0  0
 60134  1  0  0  0
 60135  1  0  0  0
 61136  1  0  0  0
 61137  1  0  0  0
 61138  1  0  0  0
 62139  1  0  0  0
 62140  1  0  0  0
 62141  1  0  0  0
 63 65  1  0  0  0
 63142  1  0  0  0
 63143  1  0  0  0
 63144  1  0  0  0
 64145  1  0  0  0
 65146  1  0  0  0
 68 81  1  0  0  0
 71 72  1  0  0  0
 71 73  2  0  0  0
 71147  1  0  0  0
 72 74  2  0  0  0
 72 75  1  0  0  0
 73 83  1  0  0  0
 73 87  1  0  0  0
 74 82  1  0  0  0
 74 87  1  0  0  0
 75 79  1  0  0  0
 75 84  2  0  0  0
 76 77  1  0  0  0
 76 80  1  0  0  0
 76 85  2  0  0  0
 77 81  1  0  0  0
 77 86  2  0  0  0
 78 79  1  0  0  0
 78148  1  0  0  0
 78149  1  0  0  0
 78150  1  0  0  0
 79151  1  0  0  0
 79152  1  0  0  0
 80 83  1  0  0  0
 80153  1  0  0  0
 80154  1  0  0  0
 81155  1  0  0  0
 81156  1  0  0  0
 82157  1  0  0  0
 83158  1  0  0  0
M  ISO  4   1 100  68 101  81 101  82 100
M  END
> <chiral flag>
0

> <version>
0

> <s_m_source_file>
/data/baiqing/PycharmProjects/Reinvent-master-3.2/result/LINK_invent/BTK/process_docking_weight1_custom_product_contain_oxygen_bond_distance_aromatic_linkinvent_7_9_3/rearranged_h_0169.sdf

> <i_m_source_file_index>
22

> <r_mmod_Potential_Energy-OPLS-2005>
92.9903869628906

> <r_mmod_Stretch_Energy-OPLS-2005>
45.4333267211914

> <r_mmod_Bend_Energy-OPLS-2005>
117.020904541016

> <r_mmod_Torsional_Energy-OPLS-2005>
226.454360961914

> <r_mmod_Improper_Torsional_Energy-OPLS-2005>
5.80048561096191

> <r_mmod_Van_der_Waal_Energy-OPLS-2005>
138.938049316406

> <r_mmod_Electrostatic_Energy-OPLS-2005>
-205.789978027344

> <r_mmod_Solvation_Energy-OPLS-2005>
-253.78825378418

> <b_mmod_Minimization_Converged-OPLS-2005>
0

> <r_mmod_RMS_Derivative-OPLS-2005>
5.23728895187378

$$$$
22
                    3D
 Structure written by MMmdl.
153161  0  0  1  0            999 V2000
  -30.7323  -14.5002   20.5350 C   0  0  0  0  0  0
  -30.4152  -12.3226   19.4094 C   0  0  0  0  0  0
  -29.4826  -12.4719   18.1908 C   0  0  0  0  0  0
  -28.0065  -12.3409   18.6148 C   0  0  0  0  0  0
  -27.6504  -13.2127   19.8496 C   0  0  2  0  0  0
  -28.7034  -13.0544   20.9683 C   0  0  0  0  0  0
  -25.2577  -13.8177   20.5671 C   0  0  0  0  0  0
  -24.1836  -13.0431   20.9175 C   0  0  0  0  0  0
  -24.6396  -11.6905   20.8702 C   0  0  0  0  0  0
  -23.9068  -10.4272   21.0372 C   0  0  0  0  0  0
  -24.3614   -9.4199   21.9159 C   0  0  0  0  0  0
  -23.6284   -8.2238   22.0759 C   0  0  0  0  0  0
  -22.4268   -8.0267   21.3549 C   0  0  0  0  0  0
  -21.9909   -9.0236   20.4662 C   0  0  0  0  0  0
  -22.7238  -10.2104   20.3048 C   0  0  0  0  0  0
  -21.6847   -6.0720   22.5267 C   0  0  0  0  0  0
  -21.4000   -6.5633   23.8198 C   0  0  0  0  0  0
  -21.3646   -5.6789   24.9153 C   0  0  0  0  0  0
  -21.6050   -4.3067   24.7225 C   0  0  0  0  0  0
  -21.8828   -3.8141   23.4361 C   0  0  0  0  0  0
  -21.9206   -4.6942   22.3392 C   0  0  0  0  0  0
  -22.7860  -13.5222   21.1864 C   0  0  0  0  0  0
  -22.1666   -4.2136   21.0964 F   0  0  0  0  0  0
  -21.5635   -3.4556   25.7744 F   0  0  0  0  0  0
  -30.0199  -13.3483   20.3874 N   0  0  0  0  0  0
  -26.2977  -12.9350   20.3284 N   0  0  0  0  0  0
  -25.9324  -11.6498   20.5727 N   0  0  0  0  0  0
  -22.0503  -12.8185   22.0412 N   0  0  0  0  0  0
  -25.4323  -15.1874   20.4059 N   0  0  0  0  0  0
  -31.9166  -14.5716   20.1934 O   0  0  0  0  0  0
  -21.6634   -6.8864   21.4238 O   0  0  0  0  0  0
  -22.3516  -14.5512   20.6713 O   0  0  0  0  0  0
  -24.6192  -31.8652   23.2059 C   0  0  0  0  0  0
  -25.9081  -32.4779   23.8379 C   0  0  1  0  0  0
  -27.2275  -27.4013   20.1115 C   0  0  0  0  0  0
  -25.5959  -33.8590   24.2333 N   0  0  0  0  0  0
  -23.4086  -30.4892   21.5449 C   0  0  2  0  0  0
  -24.8547  -28.9487   20.1169 C   0  0  0  0  0  0
  -22.7413  -29.4682   22.4957 C   0  0  0  0  0  0
  -18.0275  -28.1439   22.8468 C   0  0  0  0  0  0
  -24.1497  -36.7281   23.2655 C   0  0  0  0  0  0
  -25.9387  -30.8234   21.3640 C   0  0  0  0  0  0
  -26.0159  -29.4540   20.7153 C   0  0  0  0  0  0
  -27.2091  -28.6873   20.7084 C   0  0  0  0  0  0
  -26.0538  -26.9167   19.5028 C   0  0  0  0  0  0
  -24.8679  -27.6786   19.5114 C   0  0  0  0  0  0
  -23.6193  -29.8206   20.1624 C   0  0  0  0  0  0
  -25.4113  -36.3085   24.0353 C   0  0  1  0  0  0
  -20.5852  -28.3752   23.1296 C   0  0  2  0  0  0
  -20.6789  -26.9485   22.5441 C   0  0  0  0  0  0
  -19.5792  -26.6432   21.5225 C   0  0  0  0  0  0
  -18.1937  -26.7978   22.1584 C   0  0  0  0  0  0
  -19.1518  -28.8900   23.2868 C   0  0  0  0  0  0
  -18.9455  -30.1474   23.8912 C   0  0  0  0  0  0
  -17.6483  -30.6635   24.0598 C   0  0  0  0  0  0
  -25.9070  -34.9447   23.5131 C   0  0  0  0  0  0
  -16.5365  -29.9147   23.6372 C   0  0  0  0  0  0
  -16.7280  -28.6574   23.0367 C   0  0  0  0  0  0
  -26.4512  -31.6551   25.0718 C   0  0  0  0  0  0
  -25.3790  -31.3648   26.1480 C   0  0  0  0  0  0
  -27.0331  -30.2987   24.6099 C   0  0  0  0  0  0
  -27.6161  -32.4246   25.7425 C   0  0  0  0  0  0
  -27.5550  -37.1773   24.8488 C   0  0  0  0  0  0
  -21.4145  -29.3075   22.3657 N   0  0  0  0  0  0
  -26.4301  -37.3766   23.9410 N   0  0  0  0  0  0
  -24.6733  -31.0743   22.0966 N   0  0  0  0  0  0
  -23.4137  -28.8248   23.3073 O   0  0  0  0  0  0
  -28.3740  -26.6298   20.1044 O   0  0  0  0  0  0
  -26.5598  -34.8878   22.4678 O   0  0  0  0  0  0
  -23.5373  -32.1436   23.7423 O   0  0  0  0  0  0
  -29.2387  -19.8777   19.2589 C   0  0  0  0  0  0
  -29.7830  -18.5450   19.2886 C   0  0  0  0  0  0
  -29.9011  -18.0562   20.5759 C   0  0  0  0  0  0
  -28.9542  -20.4030   20.4986 C   0  0  0  0  0  0
  -30.5407  -16.8248   21.1219 C   0  0  0  0  0  0
  -28.4376  -24.1119   20.1105 C   0  0  0  0  0  0
  -30.2304  -17.8180   18.0431 C   0  0  0  0  0  0
  -29.1665  -22.8917   20.7367 C   0  0  0  0  0  0
  -28.3278  -25.4321   20.9233 C   0  0  0  0  0  0
  -28.3756  -21.6445   20.8206 N   0  0  0  0  0  0
  -30.0183  -15.6169   20.8046 N   0  0  0  0  0  0
  -31.5517  -16.9590   21.8217 O   0  0  0  0  0  0
  -27.9451  -24.0171   18.9794 O   0  0  0  0  0  0
  -29.3700  -19.2506   21.7494 S   0  0  0  0  0  0
  -31.4556  -12.4112   19.0926 H   0  0  0  0  0  0
  -30.3213  -11.3272   19.8461 H   0  0  0  0  0  0
  -29.7190  -11.7144   17.4419 H   0  0  0  0  0  0
  -29.6418  -13.4382   17.7076 H   0  0  0  0  0  0
  -27.8252  -11.2881   18.8402 H   0  0  0  0  0  0
  -27.3522  -12.5835   17.7791 H   0  0  0  0  0  0
  -27.6764  -14.2483   19.5088 H   0  0  0  0  0  0
  -28.6907  -12.0354   21.3566 H   0  0  0  0  0  0
  -28.4808  -13.7068   21.8137 H   0  0  0  0  0  0
  -25.2753   -9.5666   22.4733 H   0  0  0  0  0  0
  -24.0003   -7.4628   22.7470 H   0  0  0  0  0  0
  -21.0850   -8.8763   19.8937 H   0  0  0  0  0  0
  -22.3712  -10.9653   19.6158 H   0  0  0  0  0  0
  -21.1973   -7.6144   23.9696 H   0  0  0  0  0  0
  -21.1450   -6.0513   25.9055 H   0  0  0  0  0  0
  -22.0619   -2.7610   23.2854 H   0  0  0  0  0  0
  -22.4166  -11.9842   22.4748 H   0  0  0  0  0  0
  -21.1104  -13.1161   22.2611 H   0  0  0  0  0  0
  -24.6721  -15.8486   20.5189 H   0  0  0  0  0  0
  -26.2875  -15.6223   20.0888 H   0  0  0  0  0  0
  -26.7154  -32.5517   23.1150 H   0  0  0  0  0  0
  -25.0169  -33.9774   25.0504 H   0  0  0  0  0  0
  -22.7011  -31.3067   21.3997 H   0  0  0  0  0  0
  -23.3779  -35.9591   23.3318 H   0  0  0  0  0  0
  -24.3578  -36.8921   22.2070 H   0  0  0  0  0  0
  -23.7212  -37.6459   23.6686 H   0  0  0  0  0  0
  -26.0485  -31.5854   20.5891 H   0  0  0  0  0  0
  -26.8249  -30.8765   21.9835 H   0  0  0  0  0  0
  -28.1028  -29.0746   21.1772 H   0  0  0  0  0  0
  -26.0543  -25.9476   19.0235 H   0  0  0  0  0  0
  -23.9707  -27.2876   19.0557 H   0  0  0  0  0  0
  -23.7321  -30.5965   19.4062 H   0  0  0  0  0  0
  -22.7413  -29.2431   19.8684 H   0  0  0  0  0  0
  -25.1256  -36.1978   25.0849 H   0  0  0  0  0  0
  -20.9898  -28.3430   24.1432 H   0  0  0  0  0  0
  -20.5739  -26.2390   23.3654 H   0  0  0  0  0  0
  -21.6644  -26.7572   22.1160 H   0  0  0  0  0  0
  -19.7013  -25.6331   21.1279 H   0  0  0  0  0  0
  -19.6787  -27.3245   20.6748 H   0  0  0  0  0  0
  -17.4212  -26.6765   21.3982 H   0  0  0  0  0  0
  -18.0320  -26.0110   22.8961 H   0  0  0  0  0  0
  -19.7939  -30.7257   24.2309 H   0  0  0  0  0  0
  -17.5062  -31.6312   24.5197 H   0  0  0  0  0  0
  -15.5360  -30.3076   23.7702 H   0  0  0  0  0  0
  -15.8663  -28.0916   22.7093 H   0  0  0  0  0  0
  -24.6127  -30.6779   25.7879 H   0  0  0  0  0  0
  -24.8794  -32.2753   26.4823 H   0  0  0  0  0  0
  -25.8219  -30.8999   27.0309 H   0  0  0  0  0  0
  -26.2839  -29.6659   24.1347 H   0  0  0  0  0  0
  -27.4292  -29.7329   25.4539 H   0  0  0  0  0  0
  -27.8593  -30.4266   23.9110 H   0  0  0  0  0  0
  -27.2962  -33.3721   26.1784 H   0  0  0  0  0  0
  -28.4084  -32.6476   25.0263 H   0  0  0  0  0  0
  -28.0665  -31.8457   26.5502 H   0  0  0  0  0  0
  -28.2624  -38.0000   24.7420 H   0  0  0  0  0  0
  -28.0986  -36.2525   24.6477 H   0  0  0  0  0  0
  -27.2249  -37.1626   25.8888 H   0  0  0  0  0  0
  -20.9394  -29.8701   21.6722 H   0  0  0  0  0  0
  -26.0210  -38.2872   24.1359 H   0  0  0  0  0  0
  -29.0795  -20.4020   18.3260 H   0  0  0  0  0  0
  -30.1776  -18.4592   17.1616 H   0  0  0  0  0  0
  -29.6164  -16.9420   17.8308 H   0  0  0  0  0  0
  -31.2634  -17.4731   18.1269 H   0  0  0  0  0  0
  -29.4923  -23.1576   21.7447 H   0  0  0  0  0  0
  -30.0753  -22.7153   20.1608 H   0  0  0  0  0  0
  -29.1429  -25.4723   21.6494 H   0  0  0  0  0  0
  -27.4055  -25.3997   21.5067 H   0  0  0  0  0  0
  -27.8339  -21.6137   21.6824 H   0  0  0  0  0  0
  -29.0271  -15.5743   20.6414 H   0  0  0  0  0  0
  1 25  1  0  0  0
  1 30  2  0  0  0
  1 81  1  0  0  0
  2  3  1  0  0  0
  2 25  1  0  0  0
  2 85  1  0  0  0
  2 86  1  0  0  0
  3  4  1  0  0  0
  3 87  1  0  0  0
  3 88  1  0  0  0
  4  5  1  0  0  0
  4 89  1  0  0  0
  4 90  1  0  0  0
  5  6  1  0  0  0
  5 26  1  0  0  0
  5 91  1  0  0  0
  6 25  1  0  0  0
  6 92  1  0  0  0
  6 93  1  0  0  0
  7  8  2  0  0  0
  7 26  1  0  0  0
  7 29  1  0  0  0
  8  9  1  0  0  0
  8 22  1  0  0  0
  9 10  1  0  0  0
  9 27  2  0  0  0
 10 11  2  0  0  0
 10 15  1  0  0  0
 11 12  1  0  0  0
 11 94  1  0  0  0
 12 13  2  0  0  0
 12 95  1  0  0  0
 13 14  1  0  0  0
 13 31  1  0  0  0
 14 15  2  0  0  0
 14 96  1  0  0  0
 15 97  1  0  0  0
 16 17  2  0  0  0
 16 21  1  0  0  0
 16 31  1  0  0  0
 17 18  1  0  0  0
 17 98  1  0  0  0
 18 19  2  0  0  0
 18 99  1  0  0  0
 19 20  1  0  0  0
 19 24  1  0  0  0
 20 21  2  0  0  0
 20100  1  0  0  0
 21 23  1  0  0  0
 22 28  1  0  0  0
 22 32  2  0  0  0
 26 27  1  0  0  0
 28101  1  0  0  0
 28102  1  0  0  0
 29103  1  0  0  0
 29104  1  0  0  0
 33 34  1  0  0  0
 33 66  1  0  0  0
 33 70  2  0  0  0
 34 36  1  0  0  0
 34 59  1  0  0  0
 34105  1  0  0  0
 35 44  2  0  0  0
 35 45  1  0  0  0
 35 68  1  0  0  0
 36 56  1  0  0  0
 36106  1  0  0  0
 37 39  1  0  0  0
 37 47  1  0  0  0
 37 66  1  0  0  0
 37107  1  0  0  0
 38 43  2  0  0  0
 38 46  1  0  0  0
 38 47  1  0  0  0
 39 64  1  0  0  0
 39 67  2  0  0  0
 40 52  1  0  0  0
 40 53  2  0  0  0
 40 58  1  0  0  0
 41108  1  0  0  0
 41109  1  0  0  0
 41110  1  0  0  0
 41 48  1  0  0  0
 42 43  1  0  0  0
 42 66  1  0  0  0
 42111  1  0  0  0
 42112  1  0  0  0
 43 44  1  0  0  0
 44113  1  0  0  0
 45 46  2  0  0  0
 45114  1  0  0  0
 46115  1  0  0  0
 47116  1  0  0  0
 47117  1  0  0  0
 48 56  1  0  0  0
 48 65  1  0  0  0
 48118  1  0  0  0
 49 50  1  0  0  0
 49 53  1  0  0  0
 49 64  1  0  0  0
 49119  1  0  0  0
 50 51  1  0  0  0
 50120  1  0  0  0
 50121  1  0  0  0
 51 52  1  0  0  0
 51122  1  0  0  0
 51123  1  0  0  0
 52124  1  0  0  0
 52125  1  0  0  0
 53 54  1  0  0  0
 54 55  2  0  0  0
 54126  1  0  0  0
 55 57  1  0  0  0
 55127  1  0  0  0
 56 69  2  0  0  0
 57 58  2  0  0  0
 57128  1  0  0  0
 58129  1  0  0  0
 59 60  1  0  0  0
 59 61  1  0  0  0
 59 62  1  0  0  0
 60130  1  0  0  0
 60131  1  0  0  0
 60132  1  0  0  0
 61133  1  0  0  0
 61134  1  0  0  0
 61135  1  0  0  0
 62136  1  0  0  0
 62137  1  0  0  0
 62138  1  0  0  0
 63 65  1  0  0  0
 63139  1  0  0  0
 63140  1  0  0  0
 63141  1  0  0  0
 64142  1  0  0  0
 65143  1  0  0  0
 68 79  1  0  0  0
 71 72  1  0  0  0
 71 74  2  0  0  0
 71144  1  0  0  0
 72 73  2  0  0  0
 72 77  1  0  0  0
 73 75  1  0  0  0
 73 84  1  0  0  0
 74 80  1  0  0  0
 74 84  1  0  0  0
 75 81  1  0  0  0
 75 82  2  0  0  0
 76 78  1  0  0  0
 76 79  1  0  0  0
 76 83  2  0  0  0
 77145  1  0  0  0
 77146  1  0  0  0
 77147  1  0  0  0
 78 80  1  0  0  0
 78148  1  0  0  0
 78149  1  0  0  0
 79150  1  0  0  0
 79151  1  0  0  0
 80152  1  0  0  0
 81153  1  0  0  0
M  ISO  4   1 100  68 101  79 101  81 100
M  END
> <chiral flag>
0

> <version>
0

> <s_m_source_file>
/data/baiqing/PycharmProjects/Reinvent-master-3.2/result/LINK_invent/BTK/process_docking_weight1_custom_product_contain_oxygen_bond_distance_aromatic_linkinvent_7_9_3/rearranged_h_0169.sdf

> <i_m_source_file_index>
23

> <r_mmod_Potential_Energy-OPLS-2005>
-14.7230577468872

> <r_mmod_Stretch_Energy-OPLS-2005>
41.4806632995605

> <r_mmod_Bend_Energy-OPLS-2005>
98.9051284790039

> <r_mmod_Torsional_Energy-OPLS-2005>
311.896148681641

> <r_mmod_Improper_Torsional_Energy-OPLS-2005>
11.324818611145

> <r_mmod_Van_der_Waal_Energy-OPLS-2005>
118.325492858887

> <r_mmod_Electrostatic_Energy-OPLS-2005>
-365.507049560547

> <r_mmod_Solvation_Energy-OPLS-2005>
-255.418243408203

> <b_mmod_Minimization_Converged-OPLS-2005>
0

> <r_mmod_RMS_Derivative-OPLS-2005>
4.57125854492188

$$$$
23
                    3D
 Structure written by MMmdl.
157165  0  0  1  0            999 V2000
  -30.6257  -14.8082   20.4563 C   0  0  0  0  0  0
  -30.4305  -12.5009   19.4733 C   0  0  0  0  0  0
  -29.5068  -12.4904   18.2342 C   0  0  0  0  0  0
  -28.0314  -12.3299   18.6489 C   0  0  0  0  0  0
  -27.6346  -13.2416   19.8383 C   0  0  2  0  0  0
  -28.6810  -13.2048   20.9659 C   0  0  0  0  0  0
  -25.2518  -13.8216   20.5722 C   0  0  0  0  0  0
  -24.1822  -13.0452   20.9207 C   0  0  0  0  0  0
  -24.6415  -11.6926   20.8744 C   0  0  0  0  0  0
  -23.9100  -10.4296   21.0407 C   0  0  0  0  0  0
  -24.3641   -9.4209   21.9192 C   0  0  0  0  0  0
  -23.6319   -8.2241   22.0754 C   0  0  0  0  0  0
  -22.4298   -8.0278   21.3552 C   0  0  0  0  0  0
  -21.9931   -9.0259   20.4672 C   0  0  0  0  0  0
  -22.7262  -10.2137   20.3074 C   0  0  0  0  0  0
  -21.6860   -6.0732   22.5287 C   0  0  0  0  0  0
  -21.4022   -6.5632   23.8216 C   0  0  0  0  0  0
  -21.3671   -5.6787   24.9179 C   0  0  0  0  0  0
  -21.6040   -4.3047   24.7233 C   0  0  0  0  0  0
  -21.8823   -3.8138   23.4346 C   0  0  0  0  0  0
  -21.9190   -4.6958   22.3401 C   0  0  0  0  0  0
  -22.7841  -13.5235   21.1865 C   0  0  0  0  0  0
  -22.1665   -4.2142   21.0978 F   0  0  0  0  0  0
  -21.5638   -3.4530   25.7744 F   0  0  0  0  0  0
  -29.9657  -13.5922   20.3691 N   0  0  0  0  0  0
  -26.2930  -12.9435   20.3262 N   0  0  0  0  0  0
  -25.9349  -11.6569   20.5752 N   0  0  0  0  0  0
  -22.0476  -12.8223   22.0406 N   0  0  0  0  0  0
  -25.4235  -15.1938   20.4185 N   0  0  0  0  0  0
  -31.8304  -14.8286   20.1843 O   0  0  0  0  0  0
  -21.6659   -6.8877   21.4241 O   0  0  0  0  0  0
  -22.3514  -14.5527   20.6691 O   0  0  0  0  0  0
  -24.6349  -31.8530   23.1980 C   0  0  0  0  0  0
  -25.9153  -32.4736   23.8354 C   0  0  1  0  0  0
  -27.2105  -27.2280   20.1387 C   0  0  0  0  0  0
  -25.5949  -33.8538   24.2282 N   0  0  0  0  0  0
  -23.4368  -30.4782   21.5366 C   0  0  2  0  0  0
  -24.8886  -28.9248   20.1015 C   0  0  0  0  0  0
  -22.7539  -29.4606   22.4848 C   0  0  0  0  0  0
  -18.0312  -28.1393   22.8473 C   0  0  0  0  0  0
  -24.1487  -36.7248   23.2642 C   0  0  0  0  0  0
  -25.9872  -30.7542   21.3891 C   0  0  0  0  0  0
  -26.0614  -29.3761   20.7252 C   0  0  0  0  0  0
  -27.2293  -28.5371   20.7390 C   0  0  0  0  0  0
  -26.0240  -26.8636   19.4691 C   0  0  0  0  0  0
  -24.8772  -27.6783   19.4595 C   0  0  0  0  0  0
  -23.6616  -29.8163   20.1503 C   0  0  0  0  0  0
  -25.4110  -36.3050   24.0349 C   0  0  1  0  0  0
  -20.5919  -28.3723   23.1224 C   0  0  2  0  0  0
  -20.6787  -26.9430   22.5392 C   0  0  0  0  0  0
  -19.5764  -26.6388   21.5196 C   0  0  0  0  0  0
  -18.1954  -26.7932   22.1619 C   0  0  0  0  0  0
  -19.1567  -28.8875   23.2846 C   0  0  0  0  0  0
  -18.9492  -30.1468   23.8873 C   0  0  0  0  0  0
  -17.6483  -30.6590   24.0559 C   0  0  0  0  0  0
  -25.9057  -34.9420   23.5107 C   0  0  0  0  0  0
  -16.5378  -29.9086   23.6334 C   0  0  0  0  0  0
  -16.7301  -28.6501   23.0363 C   0  0  0  0  0  0
  -26.4504  -31.6566   25.0755 C   0  0  0  0  0  0
  -25.3726  -31.3711   26.1478 C   0  0  0  0  0  0
  -27.0369  -30.2988   24.6273 C   0  0  0  0  0  0
  -27.6069  -32.4307   25.7507 C   0  0  0  0  0  0
  -27.5576  -37.1789   24.8479 C   0  0  0  0  0  0
  -21.4245  -29.3057   22.3586 N   0  0  0  0  0  0
  -26.4277  -37.3766   23.9431 N   0  0  0  0  0  0
  -24.7046  -31.0478   22.0970 N   0  0  0  0  0  0
  -23.4207  -28.8120   23.2960 O   0  0  0  0  0  0
  -28.2031  -26.2131   20.2371 O   0  0  0  0  0  0
  -26.5616  -34.8902   22.4669 O   0  0  0  0  0  0
  -23.5488  -32.1370   23.7253 O   0  0  0  0  0  0
  -30.1990  -16.5237   18.1553 C   0  0  0  0  0  0
  -30.3224  -17.2492   16.9648 C   0  0  0  0  0  0
  -29.8933  -19.2693   18.1996 C   0  0  0  0  0  0
  -29.7263  -18.5885   19.4374 C   0  0  0  0  0  0
  -29.9378  -17.0972   19.4372 C   0  0  0  0  0  0
  -30.1778  -18.6320   16.9883 C   0  0  0  0  0  0
  -27.7688  -25.0331   20.9259 C   0  0  0  0  0  0
  -27.9924  -23.6431   20.9875 C   0  0  0  0  0  0
  -28.9266  -22.5872   20.3240 C   0  0  0  0  0  0
  -29.4211  -16.4441   21.8314 C   0  0  0  0  0  0
  -29.4103  -19.6766   20.5726 C   0  0  0  0  0  0
  -28.4976  -21.0175   20.2282 C   0  0  0  0  0  0
  -29.9208  -16.0392   20.5174 N   0  0  0  0  0  0
  -30.0069  -22.9128   19.8271 O   0  0  0  0  0  0
  -27.1985  -23.0306   21.8802 O   0  0  0  0  0  0
  -30.3136  -19.3532   15.8495 F   0  0  0  0  0  0
  -31.4694  -12.6218   19.1621 H   0  0  0  0  0  0
  -30.3923  -11.5423   19.9917 H   0  0  0  0  0  0
  -29.7877  -11.6761   17.5663 H   0  0  0  0  0  0
  -29.6339  -13.4082   17.6593 H   0  0  0  0  0  0
  -27.8800  -11.2834   18.9205 H   0  0  0  0  0  0
  -27.3783  -12.5152   17.7974 H   0  0  0  0  0  0
  -27.6231  -14.2588   19.4453 H   0  0  0  0  0  0
  -28.7451  -12.2085   21.4066 H   0  0  0  0  0  0
  -28.3909  -13.8737   21.7724 H   0  0  0  0  0  0
  -25.2772   -9.5682   22.4789 H   0  0  0  0  0  0
  -24.0029   -7.4617   22.7456 H   0  0  0  0  0  0
  -21.0859   -8.8793   19.8976 H   0  0  0  0  0  0
  -22.3719  -10.9688   19.6201 H   0  0  0  0  0  0
  -21.2030   -7.6144   23.9725 H   0  0  0  0  0  0
  -21.1493   -6.0510   25.9079 H   0  0  0  0  0  0
  -22.0594   -2.7598   23.2849 H   0  0  0  0  0  0
  -22.4094  -11.9922   22.4861 H   0  0  0  0  0  0
  -21.1106  -13.1283   22.2630 H   0  0  0  0  0  0
  -24.6680  -15.8539   20.5677 H   0  0  0  0  0  0
  -26.2875  -15.6334   20.1254 H   0  0  0  0  0  0
  -26.7214  -32.5388   23.1093 H   0  0  0  0  0  0
  -25.0122  -33.9676   25.0447 H   0  0  0  0  0  0
  -22.7363  -31.3024   21.3890 H   0  0  0  0  0  0
  -23.3763  -35.9560   23.3294 H   0  0  0  0  0  0
  -24.3583  -36.8880   22.2057 H   0  0  0  0  0  0
  -23.7225  -37.6446   23.6661 H   0  0  0  0  0  0
  -26.1394  -31.5180   20.6246 H   0  0  0  0  0  0
  -26.8574  -30.7968   22.0330 H   0  0  0  0  0  0
  -28.1164  -28.8560   21.2681 H   0  0  0  0  0  0
  -25.9671  -25.8956   18.9921 H   0  0  0  0  0  0
  -23.9825  -27.3311   18.9622 H   0  0  0  0  0  0
  -23.7945  -30.5964   19.4001 H   0  0  0  0  0  0
  -22.7784  -29.2588   19.8336 H   0  0  0  0  0  0
  -25.1285  -36.1883   25.0845 H   0  0  0  0  0  0
  -21.0050  -28.3308   24.1335 H   0  0  0  0  0  0
  -20.5652  -26.2357   23.3619 H   0  0  0  0  0  0
  -21.6656  -26.7415   22.1216 H   0  0  0  0  0  0
  -19.6912  -25.6286   21.1265 H   0  0  0  0  0  0
  -19.6677  -27.3159   20.6687 H   0  0  0  0  0  0
  -17.4216  -26.6687   21.4035 H   0  0  0  0  0  0
  -18.0357  -26.0076   22.9016 H   0  0  0  0  0  0
  -19.7968  -30.7301   24.2242 H   0  0  0  0  0  0
  -17.5043  -31.6269   24.5159 H   0  0  0  0  0  0
  -15.5377  -30.2978   23.7679 H   0  0  0  0  0  0
  -15.8713  -28.0810   22.7095 H   0  0  0  0  0  0
  -24.5932  -30.7013   25.7829 H   0  0  0  0  0  0
  -24.8865  -32.2861   26.4872 H   0  0  0  0  0  0
  -25.8058  -30.8944   27.0282 H   0  0  0  0  0  0
  -26.2980  -29.6725   24.1267 H   0  0  0  0  0  0
  -27.4014  -29.7266   25.4813 H   0  0  0  0  0  0
  -27.8868  -30.4279   23.9568 H   0  0  0  0  0  0
  -27.2708  -33.3646   26.2018 H   0  0  0  0  0  0
  -28.3888  -32.6796   25.0319 H   0  0  0  0  0  0
  -28.0705  -31.8464   26.5471 H   0  0  0  0  0  0
  -28.2587  -38.0090   24.7524 H   0  0  0  0  0  0
  -28.1080  -36.2628   24.6286 H   0  0  0  0  0  0
  -27.2307  -37.1415   25.8887 H   0  0  0  0  0  0
  -20.9441  -29.8795   21.6792 H   0  0  0  0  0  0
  -26.0146  -38.2838   24.1436 H   0  0  0  0  0  0
  -30.3373  -15.4633   18.0267 H   0  0  0  0  0  0
  -30.5454  -16.7404   16.0385 H   0  0  0  0  0  0
  -29.8205  -20.3438   18.1486 H   0  0  0  0  0  0
  -27.0101  -25.3702   21.6203 H   0  0  0  0  0  0
  -29.4158  -15.6339   22.5614 H   0  0  0  0  0  0
  -30.0406  -17.2372   22.2506 H   0  0  0  0  0  0
  -28.3975  -16.8094   21.7456 H   0  0  0  0  0  0
  -30.3629  -20.0049   20.9882 H   0  0  0  0  0  0
  -28.9079  -19.1561   21.3866 H   0  0  0  0  0  0
  -28.0763  -20.8988   19.2314 H   0  0  0  0  0  0
  -27.6123  -20.9112   20.8530 H   0  0  0  0  0  0
  -26.6229  -23.6869   22.2508 H   0  0  0  0  0  0
  1 25  1  0  0  0
  1 30  2  0  0  0
  1 83  1  0  0  0
  2  3  1  0  0  0
  2 25  1  0  0  0
  2 87  1  0  0  0
  2 88  1  0  0  0
  3  4  1  0  0  0
  3 89  1  0  0  0
  3 90  1  0  0  0
  4  5  1  0  0  0
  4 91  1  0  0  0
  4 92  1  0  0  0
  5  6  1  0  0  0
  5 26  1  0  0  0
  5 93  1  0  0  0
  6 25  1  0  0  0
  6 94  1  0  0  0
  6 95  1  0  0  0
  7  8  2  0  0  0
  7 26  1  0  0  0
  7 29  1  0  0  0
  8  9  1  0  0  0
  8 22  1  0  0  0
  9 10  1  0  0  0
  9 27  2  0  0  0
 10 11  2  0  0  0
 10 15  1  0  0  0
 11 12  1  0  0  0
 11 96  1  0  0  0
 12 13  2  0  0  0
 12 97  1  0  0  0
 13 14  1  0  0  0
 13 31  1  0  0  0
 14 15  2  0  0  0
 14 98  1  0  0  0
 15 99  1  0  0  0
 16 17  2  0  0  0
 16 21  1  0  0  0
 16 31  1  0  0  0
 17 18  1  0  0  0
 17100  1  0  0  0
 18 19  2  0  0  0
 18101  1  0  0  0
 19 20  1  0  0  0
 19 24  1  0  0  0
 20 21  2  0  0  0
 20102  1  0  0  0
 21 23  1  0  0  0
 22 28  1  0  0  0
 22 32  2  0  0  0
 26 27  1  0  0  0
 28103  1  0  0  0
 28104  1  0  0  0
 29105  1  0  0  0
 29106  1  0  0  0
 33 34  1  0  0  0
 33 66  1  0  0  0
 33 70  2  0  0  0
 34 36  1  0  0  0
 34 59  1  0  0  0
 34107  1  0  0  0
 35 44  2  0  0  0
 35 45  1  0  0  0
 35 68  1  0  0  0
 36 56  1  0  0  0
 36108  1  0  0  0
 37 39  1  0  0  0
 37 47  1  0  0  0
 37 66  1  0  0  0
 37109  1  0  0  0
 38 43  2  0  0  0
 38 46  1  0  0  0
 38 47  1  0  0  0
 39 64  1  0  0  0
 39 67  2  0  0  0
 40 52  1  0  0  0
 40 53  2  0  0  0
 40 58  1  0  0  0
 41110  1  0  0  0
 41111  1  0  0  0
 41112  1  0  0  0
 41 48  1  0  0  0
 42 43  1  0  0  0
 42 66  1  0  0  0
 42113  1  0  0  0
 42114  1  0  0  0
 43 44  1  0  0  0
 44115  1  0  0  0
 45 46  2  0  0  0
 45116  1  0  0  0
 46117  1  0  0  0
 47118  1  0  0  0
 47119  1  0  0  0
 48 56  1  0  0  0
 48 65  1  0  0  0
 48120  1  0  0  0
 49 50  1  0  0  0
 49 53  1  0  0  0
 49 64  1  0  0  0
 49121  1  0  0  0
 50 51  1  0  0  0
 50122  1  0  0  0
 50123  1  0  0  0
 51 52  1  0  0  0
 51124  1  0  0  0
 51125  1  0  0  0
 52126  1  0  0  0
 52127  1  0  0  0
 53 54  1  0  0  0
 54 55  2  0  0  0
 54128  1  0  0  0
 55 57  1  0  0  0
 55129  1  0  0  0
 56 69  2  0  0  0
 57 58  2  0  0  0
 57130  1  0  0  0
 58131  1  0  0  0
 59 60  1  0  0  0
 59 61  1  0  0  0
 59 62  1  0  0  0
 60132  1  0  0  0
 60133  1  0  0  0
 60134  1  0  0  0
 61135  1  0  0  0
 61136  1  0  0  0
 61137  1  0  0  0
 62138  1  0  0  0
 62139  1  0  0  0
 62140  1  0  0  0
 63 65  1  0  0  0
 63141  1  0  0  0
 63142  1  0  0  0
 63143  1  0  0  0
 64144  1  0  0  0
 65145  1  0  0  0
 68 77  1  0  0  0
 71 72  2  0  0  0
 71 75  1  0  0  0
 71146  1  0  0  0
 72 76  1  0  0  0
 72147  1  0  0  0
 73 74  1  0  0  0
 73 76  2  0  0  0
 73148  1  0  0  0
 74 75  2  0  0  0
 74 81  1  0  0  0
 75 83  1  0  0  0
 76 86  1  0  0  0
 77 78  2  0  0  0
 77149  1  0  0  0
 78 79  1  0  0  0
 78 85  1  0  0  0
 79 82  1  0  0  0
 79 84  2  0  0  0
 80 83  1  0  0  0
 80150  1  0  0  0
 80151  1  0  0  0
 80152  1  0  0  0
 81 82  1  0  0  0
 81153  1  0  0  0
 81154  1  0  0  0
 82155  1  0  0  0
 82156  1  0  0  0
 85157  1  0  0  0
M  ISO  4   1 100  68 101  77 101  83 100
M  END
> <chiral flag>
0

> <version>
0

> <s_m_source_file>
/data/baiqing/PycharmProjects/Reinvent-master-3.2/result/LINK_invent/BTK/process_docking_weight1_custom_product_contain_oxygen_bond_distance_aromatic_linkinvent_7_9_3/rearranged_h_0169.sdf

> <i_m_source_file_index>
24

> <r_mmod_Potential_Energy-OPLS-2005>
580.510559082031

> <r_mmod_Stretch_Energy-OPLS-2005>
185.402862548828

> <r_mmod_Bend_Energy-OPLS-2005>
308.391296386719

> <r_mmod_Torsional_Energy-OPLS-2005>
301.417266845703

> <r_mmod_Improper_Torsional_Energy-OPLS-2005>
9.04174995422363

> <r_mmod_Van_der_Waal_Energy-OPLS-2005>
150.328002929688

> <r_mmod_Electrostatic_Energy-OPLS-2005>
-289.527374267578

> <r_mmod_Solvation_Energy-OPLS-2005>
-210.419738769531

> <b_mmod_Minimization_Converged-OPLS-2005>
0

> <r_mmod_RMS_Derivative-OPLS-2005>
3.31986379623413

$$$$
24
                    3D
 Structure written by MMmdl.
158166  0  0  1  0            999 V2000
  -30.6609  -14.4962   20.5200 C   0  0  0  0  0  0
  -30.4344  -12.2952   19.4359 C   0  0  0  0  0  0
  -29.5052  -12.4536   18.2125 C   0  0  0  0  0  0
  -28.0188  -12.3550   18.6191 C   0  0  0  0  0  0
  -27.6631  -13.1991   19.8740 C   0  0  2  0  0  0
  -28.7049  -12.9813   20.9945 C   0  0  0  0  0  0
  -25.2608  -13.8138   20.5682 C   0  0  0  0  0  0
  -24.1848  -13.0425   20.9168 C   0  0  0  0  0  0
  -24.6388  -11.6887   20.8733 C   0  0  0  0  0  0
  -23.9048  -10.4282   21.0405 C   0  0  0  0  0  0
  -24.3599   -9.4197   21.9185 C   0  0  0  0  0  0
  -23.6280   -8.2230   22.0750 C   0  0  0  0  0  0
  -22.4262   -8.0271   21.3538 C   0  0  0  0  0  0
  -21.9894   -9.0247   20.4644 C   0  0  0  0  0  0
  -22.7220  -10.2128   20.3054 C   0  0  0  0  0  0
  -21.6847   -6.0730   22.5282 C   0  0  0  0  0  0
  -21.4012   -6.5634   23.8216 C   0  0  0  0  0  0
  -21.3660   -5.6786   24.9176 C   0  0  0  0  0  0
  -21.6043   -4.3050   24.7225 C   0  0  0  0  0  0
  -21.8820   -3.8141   23.4348 C   0  0  0  0  0  0
  -21.9189   -4.6957   22.3403 C   0  0  0  0  0  0
  -22.7875  -13.5237   21.1836 C   0  0  0  0  0  0
  -22.1656   -4.2141   21.0982 F   0  0  0  0  0  0
  -21.5632   -3.4535   25.7741 F   0  0  0  0  0  0
  -30.0351  -13.2906   20.4424 N   0  0  0  0  0  0
  -26.3033  -12.9290   20.3363 N   0  0  0  0  0  0
  -25.9317  -11.6458   20.5774 N   0  0  0  0  0  0
  -22.0507  -12.8244   22.0399 N   0  0  0  0  0  0
  -25.4334  -15.1862   20.4129 N   0  0  0  0  0  0
  -31.8090  -14.6874   20.1079 O   0  0  0  0  0  0
  -21.6621   -6.8875   21.4246 O   0  0  0  0  0  0
  -22.3566  -14.5544   20.6682 O   0  0  0  0  0  0
  -24.6135  -31.8674   23.2087 C   0  0  0  0  0  0
  -25.9030  -32.4818   23.8386 C   0  0  1  0  0  0
  -27.2419  -27.4373   20.0980 C   0  0  0  0  0  0
  -25.5887  -33.8617   24.2321 N   0  0  0  0  0  0
  -23.4013  -30.4886   21.5493 C   0  0  2  0  0  0
  -24.8479  -28.9491   20.1177 C   0  0  0  0  0  0
  -22.7403  -29.4651   22.5001 C   0  0  0  0  0  0
  -18.0269  -28.1372   22.8497 C   0  0  0  0  0  0
  -24.1487  -36.7323   23.2639 C   0  0  0  0  0  0
  -25.9281  -30.8344   21.3590 C   0  0  0  0  0  0
  -26.0059  -29.4675   20.7086 C   0  0  0  0  0  0
  -27.2034  -28.7199   20.6911 C   0  0  0  0  0  0
  -26.0630  -26.9249   19.5096 C   0  0  0  0  0  0
  -24.8711  -27.6776   19.5162 C   0  0  0  0  0  0
  -23.6092  -29.8155   20.1655 C   0  0  0  0  0  0
  -25.4106  -36.3112   24.0340 C   0  0  1  0  0  0
  -20.5858  -28.3655   23.1329 C   0  0  2  0  0  0
  -20.6759  -26.9395   22.5423 C   0  0  0  0  0  0
  -19.5740  -26.6384   21.5218 C   0  0  0  0  0  0
  -18.1917  -26.7919   22.1626 C   0  0  0  0  0  0
  -19.1517  -28.8831   23.2909 C   0  0  0  0  0  0
  -18.9445  -30.1438   23.8915 C   0  0  0  0  0  0
  -17.6449  -30.6581   24.0564 C   0  0  0  0  0  0
  -25.9031  -34.9476   23.5130 C   0  0  0  0  0  0
  -16.5340  -29.9083   23.6322 C   0  0  0  0  0  0
  -16.7259  -28.6500   23.0345 C   0  0  0  0  0  0
  -26.4462  -31.6596   25.0711 C   0  0  0  0  0  0
  -25.3744  -31.3707   26.1477 C   0  0  0  0  0  0
  -27.0284  -30.3039   24.6075 C   0  0  0  0  0  0
  -27.6042  -32.4317   25.7471 C   0  0  0  0  0  0
  -27.5582  -37.1813   24.8463 C   0  0  0  0  0  0
  -21.4132  -29.3025   22.3743 N   0  0  0  0  0  0
  -26.4295  -37.3793   23.9407 N   0  0  0  0  0  0
  -24.6661  -31.0779   22.0979 N   0  0  0  0  0  0
  -23.4181  -28.8200   23.3043 O   0  0  0  0  0  0
  -28.4387  -26.7529   20.1036 O   0  0  0  0  0  0
  -26.5597  -34.8928   22.4694 O   0  0  0  0  0  0
  -23.5330  -32.1421   23.7491 O   0  0  0  0  0  0
  -29.7451  -17.8815   21.4885 C   0  0  0  0  0  0
  -29.6168  -19.2476   21.1471 C   0  0  0  0  0  0
  -29.8533  -17.2781   19.1242 C   0  0  0  0  0  0
  -29.8701  -16.8812   20.4962 C   0  0  0  0  0  0
  -29.6223  -19.6458   19.7933 C   0  0  0  0  0  0
  -29.7769  -18.6580   18.7908 C   0  0  0  0  0  0
  -30.2245  -23.3081   19.8420 C   0  0  0  0  0  0
  -29.8786  -24.7992   20.1405 C   0  0  0  0  0  0
  -29.8494  -16.2411   18.0060 C   0  0  0  0  0  0
  -29.2257  -22.1745   20.1652 C   0  0  0  0  0  0
  -28.4413  -25.3219   19.9506 C   0  0  0  0  0  0
  -29.8475  -19.0830   17.4575 N   0  0  0  0  0  0
  -29.8708  -15.5115   20.9304 N   0  0  0  0  0  0
  -29.4455  -20.9699   19.3452 N   0  0  0  0  0  0
  -31.3262  -23.0329   19.3432 O   0  0  0  0  0  0
  -30.7804  -25.5663   20.5130 O   0  0  0  0  0  0
  -31.4779  -12.4037   19.1339 H   0  0  0  0  0  0
  -30.3480  -11.2908   19.8541 H   0  0  0  0  0  0
  -29.7346  -11.6835   17.4749 H   0  0  0  0  0  0
  -29.7022  -13.3992   17.7125 H   0  0  0  0  0  0
  -27.8088  -11.3031   18.8160 H   0  0  0  0  0  0
  -27.3784  -12.6369   17.7820 H   0  0  0  0  0  0
  -27.7017  -14.2456   19.5767 H   0  0  0  0  0  0
  -28.6819  -11.9456   21.3365 H   0  0  0  0  0  0
  -28.4701  -13.5819   21.8745 H   0  0  0  0  0  0
  -25.2748   -9.5669   22.4756 H   0  0  0  0  0  0
  -23.9991   -7.4620   22.7467 H   0  0  0  0  0  0
  -21.0821   -8.8764   19.8957 H   0  0  0  0  0  0
  -22.3680  -10.9664   19.6157 H   0  0  0  0  0  0
  -21.2004   -7.6141   23.9719 H   0  0  0  0  0  0
  -21.1484   -6.0513   25.9080 H   0  0  0  0  0  0
  -22.0601   -2.7603   23.2845 H   0  0  0  0  0  0
  -22.4107  -11.9901   22.4789 H   0  0  0  0  0  0
  -21.1135  -13.1298   22.2606 H   0  0  0  0  0  0
  -24.6699  -15.8424   20.5358 H   0  0  0  0  0  0
  -26.2915  -15.6316   20.1121 H   0  0  0  0  0  0
  -26.7101  -32.5531   23.1151 H   0  0  0  0  0  0
  -25.0034  -33.9777   25.0463 H   0  0  0  0  0  0
  -22.6893  -31.3045   21.4083 H   0  0  0  0  0  0
  -23.3741  -35.9665   23.3308 H   0  0  0  0  0  0
  -24.3584  -36.8930   22.2053 H   0  0  0  0  0  0
  -23.7251  -37.6535   23.6648 H   0  0  0  0  0  0
  -26.0377  -31.5989   20.5885 H   0  0  0  0  0  0
  -26.8173  -30.8904   21.9752 H   0  0  0  0  0  0
  -28.1011  -29.1216   21.1403 H   0  0  0  0  0  0
  -26.0502  -25.9551   19.0337 H   0  0  0  0  0  0
  -23.9790  -27.2728   19.0582 H   0  0  0  0  0  0
  -23.7168  -30.5876   19.4030 H   0  0  0  0  0  0
  -22.7339  -29.2332   19.8723 H   0  0  0  0  0  0
  -25.1282  -36.1979   25.0834 H   0  0  0  0  0  0
  -20.9947  -28.3216   24.1452 H   0  0  0  0  0  0
  -20.5669  -26.2259   23.3605 H   0  0  0  0  0  0
  -21.6630  -26.7444   22.1211 H   0  0  0  0  0  0
  -19.6902  -25.6300   21.1229 H   0  0  0  0  0  0
  -19.6680  -27.3209   20.6760 H   0  0  0  0  0  0
  -17.4191  -26.6674   21.4022 H   0  0  0  0  0  0
  -18.0312  -26.0054   22.9015 H   0  0  0  0  0  0
  -19.7922  -30.7247   24.2292 H   0  0  0  0  0  0
  -17.5005  -31.6263   24.5164 H   0  0  0  0  0  0
  -15.5340  -30.2991   23.7635 H   0  0  0  0  0  0
  -15.8659  -28.0826   22.7047 H   0  0  0  0  0  0
  -24.5887  -30.7084   25.7822 H   0  0  0  0  0  0
  -24.8974  -32.2868   26.4967 H   0  0  0  0  0  0
  -25.8109  -30.8841   27.0208 H   0  0  0  0  0  0
  -26.2812  -29.6807   24.1143 H   0  0  0  0  0  0
  -27.4072  -29.7265   25.4518 H   0  0  0  0  0  0
  -27.8641  -30.4356   23.9198 H   0  0  0  0  0  0
  -27.2651  -33.3596   26.2088 H   0  0  0  0  0  0
  -28.3825  -32.6914   25.0284 H   0  0  0  0  0  0
  -28.0737  -31.8422   26.5353 H   0  0  0  0  0  0
  -28.2606  -38.0104   24.7502 H   0  0  0  0  0  0
  -28.1071  -36.2635   24.6293 H   0  0  0  0  0  0
  -27.2303  -37.1473   25.8867 H   0  0  0  0  0  0
  -20.9294  -29.8744   21.6962 H   0  0  0  0  0  0
  -26.0187  -38.2876   24.1395 H   0  0  0  0  0  0
  -29.7244  -17.6039   22.5333 H   0  0  0  0  0  0
  -29.5013  -19.9682   21.9417 H   0  0  0  0  0  0
  -29.1498  -15.4478   18.2514 H   0  0  0  0  0  0
  -30.8427  -15.8175   17.8618 H   0  0  0  0  0  0
  -29.5134  -16.6339   17.0480 H   0  0  0  0  0  0
  -28.2114  -22.5340   19.9903 H   0  0  0  0  0  0
  -29.3019  -21.9558   21.2290 H   0  0  0  0  0  0
  -27.7839  -24.8616   20.6889 H   0  0  0  0  0  0
  -28.0921  -25.0423   18.9565 H   0  0  0  0  0  0
  -30.1948  -18.3930   16.8028 H   0  0  0  0  0  0
  -30.3388  -19.9608   17.3349 H   0  0  0  0  0  0
  -29.0472  -15.2203   21.4349 H   0  0  0  0  0  0
  -29.3327  -21.0620   18.3405 H   0  0  0  0  0  0
  1 25  1  0  0  0
  1 30  2  0  0  0
  1 83  1  0  0  0
  2  3  1  0  0  0
  2 25  1  0  0  0
  2 87  1  0  0  0
  2 88  1  0  0  0
  3  4  1  0  0  0
  3 89  1  0  0  0
  3 90  1  0  0  0
  4  5  1  0  0  0
  4 91  1  0  0  0
  4 92  1  0  0  0
  5  6  1  0  0  0
  5 26  1  0  0  0
  5 93  1  0  0  0
  6 25  1  0  0  0
  6 94  1  0  0  0
  6 95  1  0  0  0
  7  8  2  0  0  0
  7 26  1  0  0  0
  7 29  1  0  0  0
  8  9  1  0  0  0
  8 22  1  0  0  0
  9 10  1  0  0  0
  9 27  2  0  0  0
 10 11  2  0  0  0
 10 15  1  0  0  0
 11 12  1  0  0  0
 11 96  1  0  0  0
 12 13  2  0  0  0
 12 97  1  0  0  0
 13 14  1  0  0  0
 13 31  1  0  0  0
 14 15  2  0  0  0
 14 98  1  0  0  0
 15 99  1  0  0  0
 16 17  2  0  0  0
 16 21  1  0  0  0
 16 31  1  0  0  0
 17 18  1  0  0  0
 17100  1  0  0  0
 18 19  2  0  0  0
 18101  1  0  0  0
 19 20  1  0  0  0
 19 24  1  0  0  0
 20 21  2  0  0  0
 20102  1  0  0  0
 21 23  1  0  0  0
 22 28  1  0  0  0
 22 32  2  0  0  0
 26 27  1  0  0  0
 28103  1  0  0  0
 28104  1  0  0  0
 29105  1  0  0  0
 29106  1  0  0  0
 33 34  1  0  0  0
 33 66  1  0  0  0
 33 70  2  0  0  0
 34 36  1  0  0  0
 34 59  1  0  0  0
 34107  1  0  0  0
 35 44  2  0  0  0
 35 45  1  0  0  0
 35 68  1  0  0  0
 36 56  1  0  0  0
 36108  1  0  0  0
 37 39  1  0  0  0
 37 47  1  0  0  0
 37 66  1  0  0  0
 37109  1  0  0  0
 38 43  2  0  0  0
 38 46  1  0  0  0
 38 47  1  0  0  0
 39 64  1  0  0  0
 39 67  2  0  0  0
 40 52  1  0  0  0
 40 53  2  0  0  0
 40 58  1  0  0  0
 41110  1  0  0  0
 41111  1  0  0  0
 41112  1  0  0  0
 41 48  1  0  0  0
 42 43  1  0  0  0
 42 66  1  0  0  0
 42113  1  0  0  0
 42114  1  0  0  0
 43 44  1  0  0  0
 44115  1  0  0  0
 45 46  2  0  0  0
 45116  1  0  0  0
 46117  1  0  0  0
 47118  1  0  0  0
 47119  1  0  0  0
 48 56  1  0  0  0
 48 65  1  0  0  0
 48120  1  0  0  0
 49 50  1  0  0  0
 49 53  1  0  0  0
 49 64  1  0  0  0
 49121  1  0  0  0
 50 51  1  0  0  0
 50122  1  0  0  0
 50123  1  0  0  0
 51 52  1  0  0  0
 51124  1  0  0  0
 51125  1  0  0  0
 52126  1  0  0  0
 52127  1  0  0  0
 53 54  1  0  0  0
 54 55  2  0  0  0
 54128  1  0  0  0
 55 57  1  0  0  0
 55129  1  0  0  0
 56 69  2  0  0  0
 57 58  2  0  0  0
 57130  1  0  0  0
 58131  1  0  0  0
 59 60  1  0  0  0
 59 61  1  0  0  0
 59 62  1  0  0  0
 60132  1  0  0  0
 60133  1  0  0  0
 60134  1  0  0  0
 61135  1  0  0  0
 61136  1  0  0  0
 61137  1  0  0  0
 62138  1  0  0  0
 62139  1  0  0  0
 62140  1  0  0  0
 63 65  1  0  0  0
 63141  1  0  0  0
 63142  1  0  0  0
 63143  1  0  0  0
 64144  1  0  0  0
 65145  1  0  0  0
 68 81  1  0  0  0
 71 72  2  0  0  0
 71 74  1  0  0  0
 71146  1  0  0  0
 72 75  1  0  0  0
 72147  1  0  0  0
 73 74  2  0  0  0
 73 76  1  0  0  0
 73 79  1  0  0  0
 74 83  1  0  0  0
 75 76  2  0  0  0
 75 84  1  0  0  0
 76 82  1  0  0  0
 77 78  1  0  0  0
 77 80  1  0  0  0
 77 85  2  0  0  0
 78 81  1  0  0  0
 78 86  2  0  0  0
 79148  1  0  0  0
 79149  1  0  0  0
 79150  1  0  0  0
 80 84  1  0  0  0
 80151  1  0  0  0
 80152  1  0  0  0
 81153  1  0  0  0
 81154  1  0  0  0
 82155  1  0  0  0
 82156  1  0  0  0
 83157  1  0  0  0
 84158  1  0  0  0
M  ISO  4   1 100  68 101  81 101  83 100
M  END
> <chiral flag>
0

> <version>
0

> <s_m_source_file>
/data/baiqing/PycharmProjects/Reinvent-master-3.2/result/LINK_invent/BTK/process_docking_weight1_custom_product_contain_oxygen_bond_distance_aromatic_linkinvent_7_9_3/rearranged_h_0169.sdf

> <i_m_source_file_index>
25

> <r_mmod_Potential_Energy-OPLS-2005>
-27.5873756408691

> <r_mmod_Stretch_Energy-OPLS-2005>
42.5068092346191

> <r_mmod_Bend_Energy-OPLS-2005>
123.89754486084

> <r_mmod_Torsional_Energy-OPLS-2005>
249.516357421875

> <r_mmod_Improper_Torsional_Energy-OPLS-2005>
10.222806930542

> <r_mmod_Van_der_Waal_Energy-OPLS-2005>
163.800308227539

> <r_mmod_Electrostatic_Energy-OPLS-2005>
-356.696411132812

> <r_mmod_Solvation_Energy-OPLS-2005>
-276.336883544922

> <b_mmod_Minimization_Converged-OPLS-2005>
0

> <r_mmod_RMS_Derivative-OPLS-2005>
0.720881760120392

$$$$
25
                    3D
 Structure written by MMmdl.
157165  0  0  1  0            999 V2000
  -30.6333  -14.6895   20.4780 C   0  0  0  0  0  0
  -30.4269  -12.4223   19.4598 C   0  0  0  0  0  0
  -29.5037  -12.4979   18.2255 C   0  0  0  0  0  0
  -28.0293  -12.3303   18.6415 C   0  0  0  0  0  0
  -27.6419  -13.2255   19.8493 C   0  0  2  0  0  0
  -28.6872  -13.1413   20.9823 C   0  0  0  0  0  0
  -25.2505  -13.8181   20.5682 C   0  0  0  0  0  0
  -24.1795  -13.0434   20.9206 C   0  0  0  0  0  0
  -24.6377  -11.6910   20.8741 C   0  0  0  0  0  0
  -23.9046  -10.4289   21.0399 C   0  0  0  0  0  0
  -24.3604   -9.4206   21.9175 C   0  0  0  0  0  0
  -23.6289   -8.2239   22.0748 C   0  0  0  0  0  0
  -22.4270   -8.0271   21.3540 C   0  0  0  0  0  0
  -21.9898   -9.0240   20.4641 C   0  0  0  0  0  0
  -22.7217  -10.2123   20.3049 C   0  0  0  0  0  0
  -21.6855   -6.0726   22.5278 C   0  0  0  0  0  0
  -21.4012   -6.5631   23.8208 C   0  0  0  0  0  0
  -21.3661   -5.6786   24.9173 C   0  0  0  0  0  0
  -21.6050   -4.3051   24.7222 C   0  0  0  0  0  0
  -21.8821   -3.8136   23.4345 C   0  0  0  0  0  0
  -21.9190   -4.6955   22.3396 C   0  0  0  0  0  0
  -22.7819  -13.5219   21.1869 C   0  0  0  0  0  0
  -22.1663   -4.2138   21.0979 F   0  0  0  0  0  0
  -21.5629   -3.4536   25.7735 F   0  0  0  0  0  0
  -29.9903  -13.4787   20.3982 N   0  0  0  0  0  0
  -26.2930  -12.9380   20.3273 N   0  0  0  0  0  0
  -25.9305  -11.6527   20.5743 N   0  0  0  0  0  0
  -22.0463  -12.8215   22.0433 N   0  0  0  0  0  0
  -25.4174  -15.1905   20.4077 N   0  0  0  0  0  0
  -31.8235  -14.7724   20.1633 O   0  0  0  0  0  0
  -21.6641   -6.8867   21.4236 O   0  0  0  0  0  0
  -22.3508  -14.5523   20.6713 O   0  0  0  0  0  0
  -24.6285  -31.8565   23.1981 C   0  0  0  0  0  0
  -25.9121  -32.4759   23.8327 C   0  0  1  0  0  0
  -27.2224  -27.2967   20.1358 C   0  0  0  0  0  0
  -25.5932  -33.8564   24.2256 N   0  0  0  0  0  0
  -23.4228  -30.4782   21.5406 C   0  0  2  0  0  0
  -24.8693  -28.9214   20.1123 C   0  0  0  0  0  0
  -22.7482  -29.4619   22.4929 C   0  0  0  0  0  0
  -18.0290  -28.1388   22.8488 C   0  0  0  0  0  0
  -24.1487  -36.7294   23.2641 C   0  0  0  0  0  0
  -25.9632  -30.7829   21.3688 C   0  0  0  0  0  0
  -26.0378  -29.4055   20.7161 C   0  0  0  0  0  0
  -27.2197  -28.6061   20.7122 C   0  0  0  0  0  0
  -26.0383  -26.8632   19.5075 C   0  0  0  0  0  0
  -24.8721  -27.6564   19.4978 C   0  0  0  0  0  0
  -23.6381  -29.8050   20.1582 C   0  0  0  0  0  0
  -25.4112  -36.3080   24.0330 C   0  0  1  0  0  0
  -20.5891  -28.3696   23.1285 C   0  0  2  0  0  0
  -20.6781  -26.9415   22.5419 C   0  0  0  0  0  0
  -19.5757  -26.6385   21.5221 C   0  0  0  0  0  0
  -18.1936  -26.7934   22.1626 C   0  0  0  0  0  0
  -19.1543  -28.8859   23.2880 C   0  0  0  0  0  0
  -18.9462  -30.1462   23.8893 C   0  0  0  0  0  0
  -17.6462  -30.6588   24.0566 C   0  0  0  0  0  0
  -25.9052  -34.9450   23.5093 C   0  0  0  0  0  0
  -16.5353  -29.9085   23.6330 C   0  0  0  0  0  0
  -16.7279  -28.6505   23.0347 C   0  0  0  0  0  0
  -26.4497  -31.6572   25.0705 C   0  0  0  0  0  0
  -25.3732  -31.3711   26.1430 C   0  0  0  0  0  0
  -27.0324  -30.2990   24.6171 C   0  0  0  0  0  0
  -27.6063  -32.4302   25.7471 C   0  0  0  0  0  0
  -27.5575  -37.1801   24.8466 C   0  0  0  0  0  0
  -21.4195  -29.3042   22.3671 N   0  0  0  0  0  0
  -26.4290  -37.3780   23.9411 N   0  0  0  0  0  0
  -24.6905  -31.0570   22.0928 N   0  0  0  0  0  0
  -23.4197  -28.8184   23.3030 O   0  0  0  0  0  0
  -28.3420  -26.4486   20.1433 O   0  0  0  0  0  0
  -26.5623  -34.8931   22.4661 O   0  0  0  0  0  0
  -23.5446  -32.1369   23.7305 O   0  0  0  0  0  0
  -29.4465  -18.3923   20.4962 C   0  0  0  0  0  0
  -31.5340  -17.5299   21.3798 C   0  0  0  0  0  0
  -29.8478  -19.7812   20.6916 C   0  0  0  0  0  0
  -30.2716  -17.2415   20.8234 C   0  0  0  0  0  0
  -31.1574  -19.9612   21.2362 C   0  0  0  0  0  0
  -31.9639  -18.8512   21.5725 C   0  0  0  0  0  0
  -28.9462  -20.9717   20.2170 C   0  0  0  0  0  0
  -27.2507  -25.0581   21.9432 C   0  0  0  0  0  0
  -28.9578  -22.4313   20.8720 C   0  0  0  0  0  0
  -28.4515  -23.7331   20.0569 C   0  0  0  0  0  0
  -28.3367  -25.1297   20.8516 C   0  0  1  0  0  0
  -31.7688  -21.1980   21.4556 N   0  0  0  0  0  0
  -29.8635  -15.8269   20.6652 N   0  0  0  0  0  0
  -28.1210  -20.7886   19.3164 O   0  0  0  0  0  0
  -33.1954  -19.0681   22.0991 F   0  0  0  0  0  0
  -31.4692  -12.5369   19.1567 H   0  0  0  0  0  0
  -30.3612  -11.4408   19.9322 H   0  0  0  0  0  0
  -29.7770  -11.7299   17.5007 H   0  0  0  0  0  0
  -29.6386  -13.4564   17.7222 H   0  0  0  0  0  0
  -27.8801  -11.2812   18.8987 H   0  0  0  0  0  0
  -27.3711  -12.5318   17.7952 H   0  0  0  0  0  0
  -27.6418  -14.2495   19.4758 H   0  0  0  0  0  0
  -28.7117  -12.1406   21.4158 H   0  0  0  0  0  0
  -28.4325  -13.8203   21.7977 H   0  0  0  0  0  0
  -25.2746   -9.5693   22.4754 H   0  0  0  0  0  0
  -23.9999   -7.4632   22.7471 H   0  0  0  0  0  0
  -21.0826   -8.8747   19.8956 H   0  0  0  0  0  0
  -22.3658  -10.9658   19.6163 H   0  0  0  0  0  0
  -21.2008   -7.6142   23.9709 H   0  0  0  0  0  0
  -21.1486   -6.0518   25.9077 H   0  0  0  0  0  0
  -22.0601   -2.7600   23.2844 H   0  0  0  0  0  0
  -22.4082  -11.9880   22.4821 H   0  0  0  0  0  0
  -21.1079  -13.1237   22.2638 H   0  0  0  0  0  0
  -24.6412  -15.8353   20.5088 H   0  0  0  0  0  0
  -26.2508  -15.6317   20.0425 H   0  0  0  0  0  0
  -26.7195  -32.5422   23.1083 H   0  0  0  0  0  0
  -25.0064  -33.9692   25.0390 H   0  0  0  0  0  0
  -22.7185  -31.2995   21.3943 H   0  0  0  0  0  0
  -23.3751  -35.9625   23.3298 H   0  0  0  0  0  0
  -24.3586  -36.8916   22.2058 H   0  0  0  0  0  0
  -23.7238  -37.6497   23.6658 H   0  0  0  0  0  0
  -26.0941  -31.5434   20.5973 H   0  0  0  0  0  0
  -26.8445  -30.8365   21.9964 H   0  0  0  0  0  0
  -28.1200  -28.9737   21.1838 H   0  0  0  0  0  0
  -26.0121  -25.8889   19.0390 H   0  0  0  0  0  0
  -23.9767  -27.2790   19.0222 H   0  0  0  0  0  0
  -23.7597  -30.5781   19.3989 H   0  0  0  0  0  0
  -22.7567  -29.2361   19.8562 H   0  0  0  0  0  0
  -25.1296  -36.1929   25.0826 H   0  0  0  0  0  0
  -20.9987  -28.3272   24.1405 H   0  0  0  0  0  0
  -20.5691  -26.2301   23.3620 H   0  0  0  0  0  0
  -21.6648  -26.7447   22.1207 H   0  0  0  0  0  0
  -19.6914  -25.6296   21.1246 H   0  0  0  0  0  0
  -19.6696  -27.3200   20.6754 H   0  0  0  0  0  0
  -17.4208  -26.6691   21.4023 H   0  0  0  0  0  0
  -18.0326  -26.0081   22.9024 H   0  0  0  0  0  0
  -19.7938  -30.7284   24.2255 H   0  0  0  0  0  0
  -17.5012  -31.6268   24.5170 H   0  0  0  0  0  0
  -15.5351  -30.2982   23.7657 H   0  0  0  0  0  0
  -15.8681  -28.0824   22.7054 H   0  0  0  0  0  0
  -24.5923  -30.7046   25.7754 H   0  0  0  0  0  0
  -24.8911  -32.2875   26.4846 H   0  0  0  0  0  0
  -25.8066  -30.8896   27.0205 H   0  0  0  0  0  0
  -26.2889  -29.6752   24.1198 H   0  0  0  0  0  0
  -27.4006  -29.7247   25.4681 H   0  0  0  0  0  0
  -27.8771  -30.4258   23.9397 H   0  0  0  0  0  0
  -27.2679  -33.3608   26.2042 H   0  0  0  0  0  0
  -28.3869  -32.6846   25.0288 H   0  0  0  0  0  0
  -28.0733  -31.8427   26.5388 H   0  0  0  0  0  0
  -28.2595  -38.0091   24.7507 H   0  0  0  0  0  0
  -28.1063  -36.2629   24.6291 H   0  0  0  0  0  0
  -27.2298  -37.1450   25.8869 H   0  0  0  0  0  0
  -20.9377  -29.8739   21.6856 H   0  0  0  0  0  0
  -26.0169  -38.2856   24.1408 H   0  0  0  0  0  0
  -28.4700  -18.2112   20.0687 H   0  0  0  0  0  0
  -32.2061  -16.7402   21.6782 H   0  0  0  0  0  0
  -27.4039  -24.2056   22.6034 H   0  0  0  0  0  0
  -26.2547  -24.9579   21.5134 H   0  0  0  0  0  0
  -27.2569  -25.9503   22.5700 H   0  0  0  0  0  0
  -29.9492  -22.6694   21.2353 H   0  0  0  0  0  0
  -28.3449  -22.3368   21.7674 H   0  0  0  0  0  0
  -27.4891  -23.5140   19.5951 H   0  0  0  0  0  0
  -29.1414  -23.8797   19.2260 H   0  0  0  0  0  0
  -29.2766  -25.1879   21.4018 H   0  0  0  0  0  0
  -31.2122  -21.9056   21.9182 H   0  0  0  0  0  0
  -32.6719  -21.1098   21.9138 H   0  0  0  0  0  0
  -28.8706  -15.6528   20.6940 H   0  0  0  0  0  0
  1 25  1  0  0  0
  1 30  2  0  0  0
  1 83  1  0  0  0
  2  3  1  0  0  0
  2 25  1  0  0  0
  2 86  1  0  0  0
  2 87  1  0  0  0
  3  4  1  0  0  0
  3 88  1  0  0  0
  3 89  1  0  0  0
  4  5  1  0  0  0
  4 90  1  0  0  0
  4 91  1  0  0  0
  5  6  1  0  0  0
  5 26  1  0  0  0
  5 92  1  0  0  0
  6 25  1  0  0  0
  6 93  1  0  0  0
  6 94  1  0  0  0
  7  8  2  0  0  0
  7 26  1  0  0  0
  7 29  1  0  0  0
  8  9  1  0  0  0
  8 22  1  0  0  0
  9 10  1  0  0  0
  9 27  2  0  0  0
 10 11  2  0  0  0
 10 15  1  0  0  0
 11 12  1  0  0  0
 11 95  1  0  0  0
 12 13  2  0  0  0
 12 96  1  0  0  0
 13 14  1  0  0  0
 13 31  1  0  0  0
 14 15  2  0  0  0
 14 97  1  0  0  0
 15 98  1  0  0  0
 16 17  2  0  0  0
 16 21  1  0  0  0
 16 31  1  0  0  0
 17 18  1  0  0  0
 17 99  1  0  0  0
 18 19  2  0  0  0
 18100  1  0  0  0
 19 20  1  0  0  0
 19 24  1  0  0  0
 20 21  2  0  0  0
 20101  1  0  0  0
 21 23  1  0  0  0
 22 28  1  0  0  0
 22 32  2  0  0  0
 26 27  1  0  0  0
 28102  1  0  0  0
 28103  1  0  0  0
 29104  1  0  0  0
 29105  1  0  0  0
 33 34  1  0  0  0
 33 66  1  0  0  0
 33 70  2  0  0  0
 34 36  1  0  0  0
 34 59  1  0  0  0
 34106  1  0  0  0
 35 44  2  0  0  0
 35 45  1  0  0  0
 35 68  1  0  0  0
 36 56  1  0  0  0
 36107  1  0  0  0
 37 39  1  0  0  0
 37 47  1  0  0  0
 37 66  1  0  0  0
 37108  1  0  0  0
 38 43  2  0  0  0
 38 46  1  0  0  0
 38 47  1  0  0  0
 39 64  1  0  0  0
 39 67  2  0  0  0
 40 52  1  0  0  0
 40 53  2  0  0  0
 40 58  1  0  0  0
 41109  1  0  0  0
 41110  1  0  0  0
 41111  1  0  0  0
 41 48  1  0  0  0
 42 43  1  0  0  0
 42 66  1  0  0  0
 42112  1  0  0  0
 42113  1  0  0  0
 43 44  1  0  0  0
 44114  1  0  0  0
 45 46  2  0  0  0
 45115  1  0  0  0
 46116  1  0  0  0
 47117  1  0  0  0
 47118  1  0  0  0
 48 56  1  0  0  0
 48 65  1  0  0  0
 48119  1  0  0  0
 49 50  1  0  0  0
 49 53  1  0  0  0
 49 64  1  0  0  0
 49120  1  0  0  0
 50 51  1  0  0  0
 50121  1  0  0  0
 50122  1  0  0  0
 51 52  1  0  0  0
 51123  1  0  0  0
 51124  1  0  0  0
 52125  1  0  0  0
 52126  1  0  0  0
 53 54  1  0  0  0
 54 55  2  0  0  0
 54127  1  0  0  0
 55 57  1  0  0  0
 55128  1  0  0  0
 56 69  2  0  0  0
 57 58  2  0  0  0
 57129  1  0  0  0
 58130  1  0  0  0
 59 60  1  0  0  0
 59 61  1  0  0  0
 59 62  1  0  0  0
 60131  1  0  0  0
 60132  1  0  0  0
 60133  1  0  0  0
 61134  1  0  0  0
 61135  1  0  0  0
 61136  1  0  0  0
 62137  1  0  0  0
 62138  1  0  0  0
 62139  1  0  0  0
 63 65  1  0  0  0
 63140  1  0  0  0
 63141  1  0  0  0
 63142  1  0  0  0
 64143  1  0  0  0
 65144  1  0  0  0
 68 81  1  0  0  0
 71 73  2  0  0  0
 71 74  1  0  0  0
 71145  1  0  0  0
 72 74  2  0  0  0
 72 76  1  0  0  0
 72146  1  0  0  0
 73 75  1  0  0  0
 73 77  1  0  0  0
 74 83  1  0  0  0
 75 76  2  0  0  0
 75 82  1  0  0  0
 76 85  1  0  0  0
 77 79  1  0  0  0
 77 84  2  0  0  0
 78147  1  0  0  0
 78148  1  0  0  0
 78149  1  0  0  0
 78 81  1  0  0  0
 79 80  1  0  0  0
 79150  1  0  0  0
 79151  1  0  0  0
 80 81  1  0  0  0
 80152  1  0  0  0
 80153  1  0  0  0
 81154  1  0  0  0
 82155  1  0  0  0
 82156  1  0  0  0
 83157  1  0  0  0
M  ISO  4   1 100  68 101  81 101  83 100
M  END
> <chiral flag>
0

> <version>
0

> <s_m_source_file>
/data/baiqing/PycharmProjects/Reinvent-master-3.2/result/LINK_invent/BTK/process_docking_weight1_custom_product_contain_oxygen_bond_distance_aromatic_linkinvent_7_9_3/rearranged_h_0169.sdf

> <i_m_source_file_index>
26

> <r_mmod_Potential_Energy-OPLS-2005>
181.484664916992

> <r_mmod_Stretch_Energy-OPLS-2005>
114.102912902832

> <r_mmod_Bend_Energy-OPLS-2005>
164.508209228516

> <r_mmod_Torsional_Energy-OPLS-2005>
274.634735107422

> <r_mmod_Improper_Torsional_Energy-OPLS-2005>
11.5433683395386

> <r_mmod_Van_der_Waal_Energy-OPLS-2005>
147.350723266602

> <r_mmod_Electrostatic_Energy-OPLS-2005>
-373.885009765625

> <r_mmod_Solvation_Energy-OPLS-2005>
-219.457077026367

> <b_mmod_Minimization_Converged-OPLS-2005>
0

> <r_mmod_RMS_Derivative-OPLS-2005>
1.03022217750549

$$$$
26
                    3D
 Structure written by MMmdl.
157165  0  0  1  0            999 V2000
  -30.5515  -15.0050   20.4113 C   0  0  0  0  0  0
  -30.4406  -12.6264   19.5103 C   0  0  0  0  0  0
  -29.5264  -12.5404   18.2661 C   0  0  0  0  0  0
  -28.0614  -12.3174   18.6848 C   0  0  0  0  0  0
  -27.6269  -13.2612   19.8376 C   0  0  2  0  0  0
  -28.6707  -13.3241   20.9736 C   0  0  0  0  0  0
  -25.2415  -13.8219   20.5741 C   0  0  0  0  0  0
  -24.1737  -13.0416   20.9200 C   0  0  0  0  0  0
  -24.6386  -11.6922   20.8732 C   0  0  0  0  0  0
  -23.9079  -10.4286   21.0383 C   0  0  0  0  0  0
  -24.3628   -9.4208   21.9168 C   0  0  0  0  0  0
  -23.6296   -8.2251   22.0745 C   0  0  0  0  0  0
  -22.4280   -8.0280   21.3537 C   0  0  0  0  0  0
  -21.9911   -9.0242   20.4635 C   0  0  0  0  0  0
  -22.7249  -10.2117   20.3037 C   0  0  0  0  0  0
  -21.6854   -6.0735   22.5285 C   0  0  0  0  0  0
  -21.4018   -6.5635   23.8216 C   0  0  0  0  0  0
  -21.3671   -5.6787   24.9178 C   0  0  0  0  0  0
  -21.6047   -4.3053   24.7224 C   0  0  0  0  0  0
  -21.8818   -3.8143   23.4342 C   0  0  0  0  0  0
  -21.9188   -4.6959   22.3400 C   0  0  0  0  0  0
  -22.7756  -13.5177   21.1884 C   0  0  0  0  0  0
  -22.1659   -4.2150   21.0978 F   0  0  0  0  0  0
  -21.5630   -3.4536   25.7735 F   0  0  0  0  0  0
  -29.9422  -13.7445   20.3675 N   0  0  0  0  0  0
  -26.2880  -12.9501   20.3271 N   0  0  0  0  0  0
  -25.9335  -11.6614   20.5731 N   0  0  0  0  0  0
  -22.0414  -12.8160   22.0451 N   0  0  0  0  0  0
  -25.3969  -15.1957   20.4302 N   0  0  0  0  0  0
  -31.7603  -15.0242   20.1545 O   0  0  0  0  0  0
  -21.6644   -6.8876   21.4246 O   0  0  0  0  0  0
  -22.3435  -14.5487   20.6740 O   0  0  0  0  0  0
  -24.6474  -31.8429   23.1879 C   0  0  0  0  0  0
  -25.9241  -32.4690   23.8263 C   0  0  1  0  0  0
  -27.2040  -27.0800   20.1661 C   0  0  0  0  0  0
  -25.5983  -33.8494   24.2184 N   0  0  0  0  0  0
  -23.4524  -30.4646   21.5332 C   0  0  2  0  0  0
  -24.9028  -28.8873   20.1146 C   0  0  0  0  0  0
  -22.7584  -29.4561   22.4832 C   0  0  0  0  0  0
  -18.0319  -28.1396   22.8496 C   0  0  0  0  0  0
  -24.1490  -36.7235   23.2642 C   0  0  0  0  0  0
  -26.0136  -30.6961   21.4030 C   0  0  0  0  0  0
  -26.0804  -29.3013   20.7496 C   0  0  0  0  0  0
  -27.2302  -28.4132   20.7641 C   0  0  0  0  0  0
  -26.0230  -26.8241   19.4357 C   0  0  0  0  0  0
  -24.8891  -27.6609   19.4406 C   0  0  0  0  0  0
  -23.6843  -29.7969   20.1532 C   0  0  0  0  0  0
  -25.4128  -36.3019   24.0315 C   0  0  1  0  0  0
  -20.5934  -28.3749   23.1211 C   0  0  2  0  0  0
  -20.6793  -26.9443   22.5398 C   0  0  0  0  0  0
  -19.5760  -26.6392   21.5211 C   0  0  0  0  0  0
  -18.1950  -26.7936   22.1630 C   0  0  0  0  0  0
  -19.1581  -28.8886   23.2849 C   0  0  0  0  0  0
  -18.9496  -30.1471   23.8889 C   0  0  0  0  0  0
  -17.6493  -30.6596   24.0562 C   0  0  0  0  0  0
  -25.9083  -34.9401   23.5055 C   0  0  0  0  0  0
  -16.5384  -29.9093   23.6335 C   0  0  0  0  0  0
  -16.7304  -28.6496   23.0383 C   0  0  0  0  0  0
  -26.4549  -31.6558   25.0719 C   0  0  0  0  0  0
  -25.3717  -31.3806   26.1408 C   0  0  0  0  0  0
  -27.0431  -30.2938   24.6359 C   0  0  0  0  0  0
  -27.6053  -32.4358   25.7523 C   0  0  0  0  0  0
  -27.5571  -37.1777   24.8474 C   0  0  0  0  0  0
  -21.4274  -29.3076   22.3574 N   0  0  0  0  0  0
  -26.4276  -37.3739   23.9413 N   0  0  0  0  0  0
  -24.7236  -31.0240   22.0950 N   0  0  0  0  0  0
  -23.4211  -28.8118   23.3009 O   0  0  0  0  0  0
  -28.2400  -26.0510   20.1922 O   0  0  0  0  0  0
  -26.5656  -34.8904   22.4631 O   0  0  0  0  0  0
  -23.5585  -32.1358   23.7054 O   0  0  0  0  0  0
  -31.8612  -19.4903   20.4681 C   0  0  0  0  0  0
  -31.4524  -18.1385   20.4974 C   0  0  0  0  0  0
  -30.9574  -20.5756   20.4257 C   0  0  0  0  0  0
  -29.1534  -18.9367   20.4081 C   0  0  0  0  0  0
  -30.0942  -17.7515   20.4716 C   0  0  0  0  0  0
  -29.5582  -20.3991   20.4072 C   0  0  0  0  0  0
  -27.7028  -18.5882   20.3545 C   0  0  0  0  0  0
  -26.7837  -19.4632   19.5086 C   0  0  0  0  0  0
  -26.6224  -23.9715   20.2289 C   0  0  0  0  0  0
  -29.0835  -23.1905   20.1789 C   0  0  0  0  0  0
  -28.0361  -24.5015   20.5306 C   0  0  2  0  0  0
  -29.7866  -16.2199   20.5199 N   0  0  0  0  0  0
  -28.7377  -21.6636   20.4301 N   0  0  0  0  0  0
  -27.2254  -17.5841   20.8909 O   0  0  0  0  0  0
  -31.4743  -12.7816   19.1966 H   0  0  0  0  0  0
  -30.4371  -11.6853   20.0646 H   0  0  0  0  0  0
  -29.8580  -11.7358   17.6086 H   0  0  0  0  0  0
  -29.6072  -13.4623   17.6873 H   0  0  0  0  0  0
  -27.9703  -11.2794   19.0060 H   0  0  0  0  0  0
  -27.3979  -12.4316   17.8266 H   0  0  0  0  0  0
  -27.5741  -14.2564   19.3943 H   0  0  0  0  0  0
  -28.7672  -12.3608   21.4757 H   0  0  0  0  0  0
  -28.3597  -14.0398   21.7357 H   0  0  0  0  0  0
  -25.2767   -9.5700   22.4745 H   0  0  0  0  0  0
  -24.0011   -7.4644   22.7458 H   0  0  0  0  0  0
  -21.0845   -8.8754   19.8925 H   0  0  0  0  0  0
  -22.3702  -10.9650   19.6141 H   0  0  0  0  0  0
  -21.2021   -7.6146   23.9726 H   0  0  0  0  0  0
  -21.1497   -6.0516   25.9084 H   0  0  0  0  0  0
  -22.0584   -2.7606   23.2839 H   0  0  0  0  0  0
  -22.4047  -11.9841   22.4854 H   0  0  0  0  0  0
  -21.1013  -13.1154   22.2633 H   0  0  0  0  0  0
  -24.6292  -15.8317   20.6134 H   0  0  0  0  0  0
  -26.2731  -15.6857   20.2864 H   0  0  0  0  0  0
  -26.7297  -32.5288   23.0975 H   0  0  0  0  0  0
  -25.0132  -33.9610   25.0335 H   0  0  0  0  0  0
  -22.7576  -31.2919   21.3761 H   0  0  0  0  0  0
  -23.3758  -35.9557   23.3296 H   0  0  0  0  0  0
  -24.3560  -36.8875   22.2050 H   0  0  0  0  0  0
  -23.7227  -37.6426   23.6683 H   0  0  0  0  0  0
  -26.1822  -31.4464   20.6287 H   0  0  0  0  0  0
  -26.8781  -30.7459   22.0524 H   0  0  0  0  0  0
  -28.1227  -28.7283   21.2870 H   0  0  0  0  0  0
  -25.9443  -25.9318   18.8387 H   0  0  0  0  0  0
  -24.0049  -27.3537   18.8982 H   0  0  0  0  0  0
  -23.8300  -30.5721   19.4003 H   0  0  0  0  0  0
  -22.7985  -29.2449   19.8345 H   0  0  0  0  0  0
  -25.1302  -36.1839   25.0801 H   0  0  0  0  0  0
  -21.0042  -28.3346   24.1324 H   0  0  0  0  0  0
  -20.5675  -26.2373   23.3634 H   0  0  0  0  0  0
  -21.6654  -26.7430   22.1197 H   0  0  0  0  0  0
  -19.6912  -25.6298   21.1254 H   0  0  0  0  0  0
  -19.6665  -27.3186   20.6723 H   0  0  0  0  0  0
  -17.4211  -26.6713   21.4034 H   0  0  0  0  0  0
  -18.0331  -26.0065   22.9012 H   0  0  0  0  0  0
  -19.7979  -30.7280   24.2262 H   0  0  0  0  0  0
  -17.5058  -31.6276   24.5160 H   0  0  0  0  0  0
  -15.5386  -30.2997   23.7647 H   0  0  0  0  0  0
  -15.8708  -28.0789   22.7133 H   0  0  0  0  0  0
  -24.5893  -30.7139   25.7758 H   0  0  0  0  0  0
  -24.8920  -32.3019   26.4723 H   0  0  0  0  0  0
  -25.7990  -30.9069   27.0254 H   0  0  0  0  0  0
  -26.3071  -29.6648   24.1339 H   0  0  0  0  0  0
  -27.3973  -29.7251   25.4969 H   0  0  0  0  0  0
  -27.9004  -30.4140   23.9734 H   0  0  0  0  0  0
  -27.2597  -33.3678   26.2013 H   0  0  0  0  0  0
  -28.3917  -32.6895   25.0401 H   0  0  0  0  0  0
  -28.0654  -31.8548   26.5529 H   0  0  0  0  0  0
  -28.2588  -38.0080   24.7507 H   0  0  0  0  0  0
  -28.1062  -36.2597   24.6304 H   0  0  0  0  0  0
  -27.2283  -37.1426   25.8880 H   0  0  0  0  0  0
  -20.9488  -29.8793   21.6752 H   0  0  0  0  0  0
  -26.0139  -38.2800   24.1441 H   0  0  0  0  0  0
  -32.9198  -19.7049   20.4944 H   0  0  0  0  0  0
  -32.2329  -17.3933   20.5480 H   0  0  0  0  0  0
  -31.3751  -21.5716   20.4288 H   0  0  0  0  0  0
  -26.3480  -20.2590   20.1106 H   0  0  0  0  0  0
  -25.9760  -18.8597   19.0954 H   0  0  0  0  0  0
  -27.3304  -19.9057   18.6757 H   0  0  0  0  0  0
  -25.8485  -24.5881   20.6811 H   0  0  0  0  0  0
  -26.4724  -22.9831   20.6611 H   0  0  0  0  0  0
  -26.4460  -23.8739   19.1581 H   0  0  0  0  0  0
  -30.0319  -23.3927   20.6781 H   0  0  0  0  0  0
  -29.3110  -23.2599   19.1144 H   0  0  0  0  0  0
  -28.0627  -24.5370   21.6200 H   0  0  0  0  0  0
  -28.8038  -16.0249   20.6506 H   0  0  0  0  0  0
  -27.7382  -21.5241   20.5350 H   0  0  0  0  0  0
  1 25  1  0  0  0
  1 30  2  0  0  0
  1 82  1  0  0  0
  2  3  1  0  0  0
  2 25  1  0  0  0
  2 85  1  0  0  0
  2 86  1  0  0  0
  3  4  1  0  0  0
  3 87  1  0  0  0
  3 88  1  0  0  0
  4  5  1  0  0  0
  4 89  1  0  0  0
  4 90  1  0  0  0
  5  6  1  0  0  0
  5 26  1  0  0  0
  5 91  1  0  0  0
  6 25  1  0  0  0
  6 92  1  0  0  0
  6 93  1  0  0  0
  7  8  2  0  0  0
  7 26  1  0  0  0
  7 29  1  0  0  0
  8  9  1  0  0  0
  8 22  1  0  0  0
  9 10  1  0  0  0
  9 27  2  0  0  0
 10 11  2  0  0  0
 10 15  1  0  0  0
 11 12  1  0  0  0
 11 94  1  0  0  0
 12 13  2  0  0  0
 12 95  1  0  0  0
 13 14  1  0  0  0
 13 31  1  0  0  0
 14 15  2  0  0  0
 14 96  1  0  0  0
 15 97  1  0  0  0
 16 17  2  0  0  0
 16 21  1  0  0  0
 16 31  1  0  0  0
 17 18  1  0  0  0
 17 98  1  0  0  0
 18 19  2  0  0  0
 18 99  1  0  0  0
 19 20  1  0  0  0
 19 24  1  0  0  0
 20 21  2  0  0  0
 20100  1  0  0  0
 21 23  1  0  0  0
 22 28  1  0  0  0
 22 32  2  0  0  0
 26 27  1  0  0  0
 28101  1  0  0  0
 28102  1  0  0  0
 29103  1  0  0  0
 29104  1  0  0  0
 33 34  1  0  0  0
 33 66  1  0  0  0
 33 70  2  0  0  0
 34 36  1  0  0  0
 34 59  1  0  0  0
 34105  1  0  0  0
 35 44  2  0  0  0
 35 45  1  0  0  0
 35 68  1  0  0  0
 36 56  1  0  0  0
 36106  1  0  0  0
 37 39  1  0  0  0
 37 47  1  0  0  0
 37 66  1  0  0  0
 37107  1  0  0  0
 38 43  2  0  0  0
 38 46  1  0  0  0
 38 47  1  0  0  0
 39 64  1  0  0  0
 39 67  2  0  0  0
 40 52  1  0  0  0
 40 53  2  0  0  0
 40 58  1  0  0  0
 41108  1  0  0  0
 41109  1  0  0  0
 41110  1  0  0  0
 41 48  1  0  0  0
 42 43  1  0  0  0
 42 66  1  0  0  0
 42111  1  0  0  0
 42112  1  0  0  0
 43 44  1  0  0  0
 44113  1  0  0  0
 45 46  2  0  0  0
 45114  1  0  0  0
 46115  1  0  0  0
 47116  1  0  0  0
 47117  1  0  0  0
 48 56  1  0  0  0
 48 65  1  0  0  0
 48118  1  0  0  0
 49 50  1  0  0  0
 49 53  1  0  0  0
 49 64  1  0  0  0
 49119  1  0  0  0
 50 51  1  0  0  0
 50120  1  0  0  0
 50121  1  0  0  0
 51 52  1  0  0  0
 51122  1  0  0  0
 51123  1  0  0  0
 52124  1  0  0  0
 52125  1  0  0  0
 53 54  1  0  0  0
 54 55  2  0  0  0
 54126  1  0  0  0
 55 57  1  0  0  0
 55127  1  0  0  0
 56 69  2  0  0  0
 57 58  2  0  0  0
 57128  1  0  0  0
 58129  1  0  0  0
 59 60  1  0  0  0
 59 61  1  0  0  0
 59 62  1  0  0  0
 60130  1  0  0  0
 60131  1  0  0  0
 60132  1  0  0  0
 61133  1  0  0  0
 61134  1  0  0  0
 61135  1  0  0  0
 62136  1  0  0  0
 62137  1  0  0  0
 62138  1  0  0  0
 63 65  1  0  0  0
 63139  1  0  0  0
 63140  1  0  0  0
 63141  1  0  0  0
 64142  1  0  0  0
 65143  1  0  0  0
 68 81  1  0  0  0
 71 72  2  0  0  0
 71 73  1  0  0  0
 71144  1  0  0  0
 72 75  1  0  0  0
 72145  1  0  0  0
 73 76  2  0  0  0
 73146  1  0  0  0
 74 75  2  0  0  0
 74 76  1  0  0  0
 74 77  1  0  0  0
 75 82  1  0  0  0
 76 83  1  0  0  0
 77 78  1  0  0  0
 77 84  2  0  0  0
 78147  1  0  0  0
 78148  1  0  0  0
 78149  1  0  0  0
 79150  1  0  0  0
 79151  1  0  0  0
 79152  1  0  0  0
 79 81  1  0  0  0
 80 81  1  0  0  0
 80 83  1  0  0  0
 80153  1  0  0  0
 80154  1  0  0  0
 81155  1  0  0  0
 82156  1  0  0  0
 83157  1  0  0  0
M  ISO  4   1 100  68 101  81 101  82 100
M  END
> <chiral flag>
0

> <version>
0

> <s_m_source_file>
/data/baiqing/PycharmProjects/Reinvent-master-3.2/result/LINK_invent/BTK/process_docking_weight1_custom_product_contain_oxygen_bond_distance_aromatic_linkinvent_7_9_3/rearranged_h_0169.sdf

> <i_m_source_file_index>
27

> <r_mmod_Potential_Energy-OPLS-2005>
769.540588378906

> <r_mmod_Stretch_Energy-OPLS-2005>
331.513916015625

> <r_mmod_Bend_Energy-OPLS-2005>
296.07568359375

> <r_mmod_Torsional_Energy-OPLS-2005>
259.672546386719

> <r_mmod_Improper_Torsional_Energy-OPLS-2005>
5.38752174377441

> <r_mmod_Van_der_Waal_Energy-OPLS-2005>
143.387283325195

> <r_mmod_Electrostatic_Energy-OPLS-2005>
-296.540924072266

> <r_mmod_Solvation_Energy-OPLS-2005>
-207.314331054688

> <b_mmod_Minimization_Converged-OPLS-2005>
0

> <r_mmod_RMS_Derivative-OPLS-2005>
1.82603478431702

$$$$
27
                    3D
 Structure written by MMmdl.
156164  0  0  1  0            999 V2000
  -30.6275  -14.6311   20.4886 C   0  0  0  0  0  0
  -30.4399  -12.3852   19.4404 C   0  0  0  0  0  0
  -29.5065  -12.5104   18.2152 C   0  0  0  0  0  0
  -28.0270  -12.3570   18.6243 C   0  0  0  0  0  0
  -27.6547  -13.2180   19.8599 C   0  0  2  0  0  0
  -28.7033  -13.0620   20.9848 C   0  0  0  0  0  0
  -25.2560  -13.8167   20.5659 C   0  0  0  0  0  0
  -24.1837  -13.0449   20.9218 C   0  0  0  0  0  0
  -24.6399  -11.6911   20.8756 C   0  0  0  0  0  0
  -23.9059  -10.4303   21.0419 C   0  0  0  0  0  0
  -24.3622   -9.4206   21.9182 C   0  0  0  0  0  0
  -23.6294   -8.2242   22.0744 C   0  0  0  0  0  0
  -22.4270   -8.0288   21.3544 C   0  0  0  0  0  0
  -21.9917   -9.0262   20.4647 C   0  0  0  0  0  0
  -22.7241  -10.2139   20.3058 C   0  0  0  0  0  0
  -21.6849   -6.0738   22.5275 C   0  0  0  0  0  0
  -21.4008   -6.5641   23.8207 C   0  0  0  0  0  0
  -21.3660   -5.6792   24.9176 C   0  0  0  0  0  0
  -21.6041   -4.3053   24.7222 C   0  0  0  0  0  0
  -21.8819   -3.8147   23.4343 C   0  0  0  0  0  0
  -21.9191   -4.6967   22.3398 C   0  0  0  0  0  0
  -22.7851  -13.5233   21.1868 C   0  0  0  0  0  0
  -22.1658   -4.2159   21.0970 F   0  0  0  0  0  0
  -21.5636   -3.4531   25.7730 F   0  0  0  0  0  0
  -30.0193  -13.4039   20.4220 N   0  0  0  0  0  0
  -26.3000  -12.9362   20.3307 N   0  0  0  0  0  0
  -25.9329  -11.6517   20.5768 N   0  0  0  0  0  0
  -22.0472  -12.8244   22.0419 N   0  0  0  0  0  0
  -25.4253  -15.1889   20.3968 N   0  0  0  0  0  0
  -31.8007  -14.7749   20.1422 O   0  0  0  0  0  0
  -21.6627   -6.8890   21.4239 O   0  0  0  0  0  0
  -22.3547  -14.5531   20.6688 O   0  0  0  0  0  0
  -24.6265  -31.8579   23.1998 C   0  0  0  0  0  0
  -25.9112  -32.4763   23.8340 C   0  0  1  0  0  0
  -27.2243  -27.3048   20.1337 C   0  0  0  0  0  0
  -25.5918  -33.8566   24.2246 N   0  0  0  0  0  0
  -23.4213  -30.4798   21.5429 C   0  0  2  0  0  0
  -24.8670  -28.9229   20.1179 C   0  0  0  0  0  0
  -22.7468  -29.4626   22.4936 C   0  0  0  0  0  0
  -18.0294  -28.1405   22.8496 C   0  0  0  0  0  0
  -24.1484  -36.7262   23.2640 C   0  0  0  0  0  0
  -25.9623  -30.7827   21.3755 C   0  0  0  0  0  0
  -26.0345  -29.4074   20.7211 C   0  0  0  0  0  0
  -27.2170  -28.6099   20.7157 C   0  0  0  0  0  0
  -26.0413  -26.8750   19.4983 C   0  0  0  0  0  0
  -24.8702  -27.6596   19.5017 C   0  0  0  0  0  0
  -23.6379  -29.8076   20.1606 C   0  0  0  0  0  0
  -25.4121  -36.3057   24.0321 C   0  0  1  0  0  0
  -20.5895  -28.3708   23.1283 C   0  0  2  0  0  0
  -20.6777  -26.9429   22.5416 C   0  0  0  0  0  0
  -19.5754  -26.6395   21.5218 C   0  0  0  0  0  0
  -18.1934  -26.7954   22.1633 C   0  0  0  0  0  0
  -19.1551  -28.8875   23.2883 C   0  0  0  0  0  0
  -18.9475  -30.1475   23.8903 C   0  0  0  0  0  0
  -17.6475  -30.6605   24.0580 C   0  0  0  0  0  0
  -25.9060  -34.9444   23.5089 C   0  0  0  0  0  0
  -16.5359  -29.9108   23.6345 C   0  0  0  0  0  0
  -16.7283  -28.6525   23.0365 C   0  0  0  0  0  0
  -26.4505  -31.6594   25.0727 C   0  0  0  0  0  0
  -25.3734  -31.3744   26.1454 C   0  0  0  0  0  0
  -27.0359  -30.3014   24.6208 C   0  0  0  0  0  0
  -27.6051  -32.4347   25.7502 C   0  0  0  0  0  0
  -27.5573  -37.1788   24.8475 C   0  0  0  0  0  0
  -21.4192  -29.3041   22.3657 N   0  0  0  0  0  0
  -26.4291  -37.3757   23.9403 N   0  0  0  0  0  0
  -24.6890  -31.0569   22.0963 N   0  0  0  0  0  0
  -23.4183  -28.8193   23.3048 O   0  0  0  0  0  0
  -28.3577  -26.4770   20.1456 O   0  0  0  0  0  0
  -26.5634  -34.8928   22.4657 O   0  0  0  0  0  0
  -23.5422  -32.1396   23.7315 O   0  0  0  0  0  0
  -30.7085  -19.2513   19.6492 C   0  0  0  0  0  0
  -28.8895  -17.9418   21.2821 C   0  0  0  0  0  0
  -29.7595  -20.0665   20.3298 C   0  0  0  0  0  0
  -29.8663  -17.1292   20.6339 C   0  0  0  0  0  0
  -30.7690  -17.8330   19.7864 C   0  0  0  0  0  0
  -28.8275  -19.3636   21.1365 C   0  0  0  0  0  0
  -29.8416  -21.5784   20.2005 C   0  0  0  0  0  0
  -27.0539  -24.6446   21.3918 C   0  0  0  0  0  0
  -28.7755  -23.9219   19.6211 C   0  0  0  0  0  0
  -28.3330  -25.0644   20.6391 C   0  0  1  0  0  0
  -31.0636  -22.1107   20.1574 N   0  0  0  0  0  0
  -29.8099  -15.6739   20.8323 N   0  0  0  0  0  0
  -28.8018  -22.4683   20.1019 N   0  3  0  0  0  0
  -31.6976  -17.1733   19.0559 F   0  0  0  0  0  0
  -27.8616  -20.0485   21.7970 F   0  0  0  0  0  0
  -31.4790  -12.5131   19.1323 H   0  0  0  0  0  0
  -30.3759  -11.3863   19.8755 H   0  0  0  0  0  0
  -29.7660  -11.7620   17.4650 H   0  0  0  0  0  0
  -29.6544  -13.4821   17.7423 H   0  0  0  0  0  0
  -27.8506  -11.3032   18.8404 H   0  0  0  0  0  0
  -27.3785  -12.6082   17.7840 H   0  0  0  0  0  0
  -27.6745  -14.2548   19.5240 H   0  0  0  0  0  0
  -28.7155  -12.0370   21.3569 H   0  0  0  0  0  0
  -28.4545  -13.6881   21.8430 H   0  0  0  0  0  0
  -25.2774   -9.5667   22.4758 H   0  0  0  0  0  0
  -23.9999   -7.4629   22.7452 H   0  0  0  0  0  0
  -21.0857   -8.8794   19.8956 H   0  0  0  0  0  0
  -22.3713  -10.9685   19.6175 H   0  0  0  0  0  0
  -21.1986   -7.6147   23.9722 H   0  0  0  0  0  0
  -21.1487   -6.0514   25.9081 H   0  0  0  0  0  0
  -22.0597   -2.7611   23.2828 H   0  0  0  0  0  0
  -22.4077  -11.9926   22.4863 H   0  0  0  0  0  0
  -21.1081  -13.1279   22.2578 H   0  0  0  0  0  0
  -24.6410  -15.8285   20.4617 H   0  0  0  0  0  0
  -26.2356  -15.6064   19.9580 H   0  0  0  0  0  0
  -26.7181  -32.5432   23.1088 H   0  0  0  0  0  0
  -25.0066  -33.9705   25.0392 H   0  0  0  0  0  0
  -22.7158  -31.3006   21.3935 H   0  0  0  0  0  0
  -23.3750  -35.9590   23.3333 H   0  0  0  0  0  0
  -24.3559  -36.8852   22.2041 H   0  0  0  0  0  0
  -23.7245  -37.6478   23.6651 H   0  0  0  0  0  0
  -26.1013  -31.5452   20.6081 H   0  0  0  0  0  0
  -26.8380  -30.8263   22.0124 H   0  0  0  0  0  0
  -28.1174  -28.9754   21.1912 H   0  0  0  0  0  0
  -26.0168  -25.9141   19.0061 H   0  0  0  0  0  0
  -23.9733  -27.2792   19.0315 H   0  0  0  0  0  0
  -23.7653  -30.5803   19.4019 H   0  0  0  0  0  0
  -22.7564  -29.2382   19.8593 H   0  0  0  0  0  0
  -25.1301  -36.1904   25.0813 H   0  0  0  0  0  0
  -20.9993  -28.3300   24.1407 H   0  0  0  0  0  0
  -20.5669  -26.2323   23.3626 H   0  0  0  0  0  0
  -21.6653  -26.7451   22.1221 H   0  0  0  0  0  0
  -19.6906  -25.6297   21.1268 H   0  0  0  0  0  0
  -19.6707  -27.3202   20.6748 H   0  0  0  0  0  0
  -17.4201  -26.6723   21.4031 H   0  0  0  0  0  0
  -18.0331  -26.0094   22.9031 H   0  0  0  0  0  0
  -19.7947  -30.7295   24.2275 H   0  0  0  0  0  0
  -17.5031  -31.6298   24.5168 H   0  0  0  0  0  0
  -15.5365  -30.3011   23.7657 H   0  0  0  0  0  0
  -15.8689  -28.0838   22.7076 H   0  0  0  0  0  0
  -24.5896  -30.7104   25.7786 H   0  0  0  0  0  0
  -24.8947  -32.2920   26.4886 H   0  0  0  0  0  0
  -25.8054  -30.8921   27.0224 H   0  0  0  0  0  0
  -26.2948  -29.6756   24.1216 H   0  0  0  0  0  0
  -27.4026  -29.7287   25.4726 H   0  0  0  0  0  0
  -27.8829  -30.4288   23.9463 H   0  0  0  0  0  0
  -27.2646  -33.3643   26.2087 H   0  0  0  0  0  0
  -28.3868  -32.6927   25.0339 H   0  0  0  0  0  0
  -28.0731  -31.8481   26.5415 H   0  0  0  0  0  0
  -28.2606  -38.0069   24.7502 H   0  0  0  0  0  0
  -28.1051  -36.2598   24.6335 H   0  0  0  0  0  0
  -27.2286  -37.1482   25.8879 H   0  0  0  0  0  0
  -20.9363  -29.8730   21.6842 H   0  0  0  0  0  0
  -26.0165  -38.2825   24.1429 H   0  0  0  0  0  0
  -31.4224  -19.7183   18.9866 H   0  0  0  0  0  0
  -28.1571  -17.4687   21.9195 H   0  0  0  0  0  0
  -26.2407  -24.3880   20.7127 H   0  0  0  0  0  0
  -26.7103  -25.4160   22.0796 H   0  0  0  0  0  0
  -27.2424  -23.7553   21.9930 H   0  0  0  0  0  0
  -29.7451  -24.1855   19.1948 H   0  0  0  0  0  0
  -28.0866  -23.9525   18.7773 H   0  0  0  0  0  0
  -29.1147  -25.0785   21.3997 H   0  0  0  0  0  0
  -31.8604  -21.5109   20.3114 H   0  0  0  0  0  0
  -31.2169  -23.1048   20.1735 H   0  0  0  0  0  0
  -28.9339  -15.3475   21.2059 H   0  0  0  0  0  0
  -27.8875  -22.0565   20.2462 H   0  0  0  0  0  0
  1 25  1  0  0  0
  1 30  2  0  0  0
  1 82  1  0  0  0
  2  3  1  0  0  0
  2 25  1  0  0  0
  2 86  1  0  0  0
  2 87  1  0  0  0
  3  4  1  0  0  0
  3 88  1  0  0  0
  3 89  1  0  0  0
  4  5  1  0  0  0
  4 90  1  0  0  0
  4 91  1  0  0  0
  5  6  1  0  0  0
  5 26  1  0  0  0
  5 92  1  0  0  0
  6 25  1  0  0  0
  6 93  1  0  0  0
  6 94  1  0  0  0
  7  8  2  0  0  0
  7 26  1  0  0  0
  7 29  1  0  0  0
  8  9  1  0  0  0
  8 22  1  0  0  0
  9 10  1  0  0  0
  9 27  2  0  0  0
 10 11  2  0  0  0
 10 15  1  0  0  0
 11 12  1  0  0  0
 11 95  1  0  0  0
 12 13  2  0  0  0
 12 96  1  0  0  0
 13 14  1  0  0  0
 13 31  1  0  0  0
 14 15  2  0  0  0
 14 97  1  0  0  0
 15 98  1  0  0  0
 16 17  2  0  0  0
 16 21  1  0  0  0
 16 31  1  0  0  0
 17 18  1  0  0  0
 17 99  1  0  0  0
 18 19  2  0  0  0
 18100  1  0  0  0
 19 20  1  0  0  0
 19 24  1  0  0  0
 20 21  2  0  0  0
 20101  1  0  0  0
 21 23  1  0  0  0
 22 28  1  0  0  0
 22 32  2  0  0  0
 26 27  1  0  0  0
 28102  1  0  0  0
 28103  1  0  0  0
 29104  1  0  0  0
 29105  1  0  0  0
 33 34  1  0  0  0
 33 66  1  0  0  0
 33 70  2  0  0  0
 34 36  1  0  0  0
 34 59  1  0  0  0
 34106  1  0  0  0
 35 44  2  0  0  0
 35 45  1  0  0  0
 35 68  1  0  0  0
 36 56  1  0  0  0
 36107  1  0  0  0
 37 39  1  0  0  0
 37 47  1  0  0  0
 37 66  1  0  0  0
 37108  1  0  0  0
 38 43  2  0  0  0
 38 46  1  0  0  0
 38 47  1  0  0  0
 39 64  1  0  0  0
 39 67  2  0  0  0
 40 52  1  0  0  0
 40 53  2  0  0  0
 40 58  1  0  0  0
 41109  1  0  0  0
 41110  1  0  0  0
 41111  1  0  0  0
 41 48  1  0  0  0
 42 43  1  0  0  0
 42 66  1  0  0  0
 42112  1  0  0  0
 42113  1  0  0  0
 43 44  1  0  0  0
 44114  1  0  0  0
 45 46  2  0  0  0
 45115  1  0  0  0
 46116  1  0  0  0
 47117  1  0  0  0
 47118  1  0  0  0
 48 56  1  0  0  0
 48 65  1  0  0  0
 48119  1  0  0  0
 49 50  1  0  0  0
 49 53  1  0  0  0
 49 64  1  0  0  0
 49120  1  0  0  0
 50 51  1  0  0  0
 50121  1  0  0  0
 50122  1  0  0  0
 51 52  1  0  0  0
 51123  1  0  0  0
 51124  1  0  0  0
 52125  1  0  0  0
 52126  1  0  0  0
 53 54  1  0  0  0
 54 55  2  0  0  0
 54127  1  0  0  0
 55 57  1  0  0  0
 55128  1  0  0  0
 56 69  2  0  0  0
 57 58  2  0  0  0
 57129  1  0  0  0
 58130  1  0  0  0
 59 60  1  0  0  0
 59 61  1  0  0  0
 59 62  1  0  0  0
 60131  1  0  0  0
 60132  1  0  0  0
 60133  1  0  0  0
 61134  1  0  0  0
 61135  1  0  0  0
 61136  1  0  0  0
 62137  1  0  0  0
 62138  1  0  0  0
 62139  1  0  0  0
 63 65  1  0  0  0
 63140  1  0  0  0
 63141  1  0  0  0
 63142  1  0  0  0
 64143  1  0  0  0
 65144  1  0  0  0
 68 80  1  0  0  0
 71 73  2  0  0  0
 71 75  1  0  0  0
 71145  1  0  0  0
 72 74  1  0  0  0
 72 76  2  0  0  0
 72146  1  0  0  0
 73 76  1  0  0  0
 73 77  1  0  0  0
 74 75  2  0  0  0
 74 82  1  0  0  0
 75 84  1  0  0  0
 76 85  1  0  0  0
 77 81  1  0  0  0
 77 83  2  0  0  0
 78147  1  0  0  0
 78148  1  0  0  0
 78149  1  0  0  0
 78 80  1  0  0  0
 79 80  1  0  0  0
 79 83  1  0  0  0
 79150  1  0  0  0
 79151  1  0  0  0
 80152  1  0  0  0
 81153  1  0  0  0
 81154  1  0  0  0
 82155  1  0  0  0
 83156  1  0  0  0
M  CHG  1  83   1
M  ISO  4   1 100  68 101  80 101  82 100
M  END
> <chiral flag>
0

> <version>
0

> <s_m_source_file>
/data/baiqing/PycharmProjects/Reinvent-master-3.2/result/LINK_invent/BTK/process_docking_weight1_custom_product_contain_oxygen_bond_distance_aromatic_linkinvent_7_9_3/rearranged_h_0169.sdf

> <i_m_source_file_index>
28

> <r_mmod_Potential_Energy-OPLS-2005>
-207.681549072266

> <r_mmod_Stretch_Energy-OPLS-2005>
83.8591156005859

> <r_mmod_Bend_Energy-OPLS-2005>
157.785583496094

> <r_mmod_Torsional_Energy-OPLS-2005>
246.113388061523

> <r_mmod_Improper_Torsional_Energy-OPLS-2005>
4.89634132385254

> <r_mmod_Van_der_Waal_Energy-OPLS-2005>
145.85124206543

> <r_mmod_Electrostatic_Energy-OPLS-2005>
-458.457611083984

> <r_mmod_Solvation_Energy-OPLS-2005>
-435.331176757812

> <b_mmod_Minimization_Converged-OPLS-2005>
0

> <r_mmod_RMS_Derivative-OPLS-2005>
2.60108113288879

$$$$
28
                    3D
 Structure written by MMmdl.
157165  0  0  1  0            999 V2000
  -30.5720  -14.7473   20.4766 C   0  0  0  0  0  0
  -30.4337  -12.4619   19.4666 C   0  0  0  0  0  0
  -29.5067  -12.5065   18.2319 C   0  0  0  0  0  0
  -28.0299  -12.3338   18.6422 C   0  0  0  0  0  0
  -27.6349  -13.2251   19.8500 C   0  0  2  0  0  0
  -28.6763  -13.1451   20.9844 C   0  0  0  0  0  0
  -25.2476  -13.8185   20.5676 C   0  0  0  0  0  0
  -24.1771  -13.0426   20.9214 C   0  0  0  0  0  0
  -24.6354  -11.6909   20.8750 C   0  0  0  0  0  0
  -23.9044  -10.4287   21.0413 C   0  0  0  0  0  0
  -24.3606   -9.4206   21.9191 C   0  0  0  0  0  0
  -23.6281   -8.2238   22.0760 C   0  0  0  0  0  0
  -22.4269   -8.0278   21.3544 C   0  0  0  0  0  0
  -21.9900   -9.0249   20.4646 C   0  0  0  0  0  0
  -22.7220  -10.2131   20.3055 C   0  0  0  0  0  0
  -21.6852   -6.0726   22.5268 C   0  0  0  0  0  0
  -21.4015   -6.5633   23.8199 C   0  0  0  0  0  0
  -21.3657   -5.6788   24.9168 C   0  0  0  0  0  0
  -21.6042   -4.3049   24.7222 C   0  0  0  0  0  0
  -21.8820   -3.8142   23.4340 C   0  0  0  0  0  0
  -21.9193   -4.6956   22.3396 C   0  0  0  0  0  0
  -22.7794  -13.5221   21.1863 C   0  0  0  0  0  0
  -22.1662   -4.2136   21.0972 F   0  0  0  0  0  0
  -21.5629   -3.4534   25.7736 F   0  0  0  0  0  0
  -29.9700  -13.5129   20.3984 N   0  0  0  0  0  0
  -26.2875  -12.9361   20.3263 N   0  0  0  0  0  0
  -25.9281  -11.6511   20.5747 N   0  0  0  0  0  0
  -22.0446  -12.8215   22.0429 N   0  0  0  0  0  0
  -25.4157  -15.1905   20.4080 N   0  0  0  0  0  0
  -31.7727  -14.8609   20.2095 O   0  0  0  0  0  0
  -21.6639   -6.8875   21.4235 O   0  0  0  0  0  0
  -22.3474  -14.5521   20.6709 O   0  0  0  0  0  0
  -24.6300  -31.8558   23.1979 C   0  0  0  0  0  0
  -25.9133  -32.4753   23.8306 C   0  0  1  0  0  0
  -27.2138  -27.2628   20.1381 C   0  0  0  0  0  0
  -25.5923  -33.8551   24.2222 N   0  0  0  0  0  0
  -23.4247  -30.4753   21.5452 C   0  0  2  0  0  0
  -24.8685  -28.9203   20.1135 C   0  0  0  0  0  0
  -22.7488  -29.4595   22.4964 C   0  0  0  0  0  0
  -18.0288  -28.1370   22.8472 C   0  0  0  0  0  0
  -24.1482  -36.7283   23.2645 C   0  0  0  0  0  0
  -25.9691  -30.7693   21.3760 C   0  0  0  0  0  0
  -26.0434  -29.3927   20.7150 C   0  0  0  0  0  0
  -27.2234  -28.5811   20.7049 C   0  0  0  0  0  0
  -26.0184  -26.8534   19.5101 C   0  0  0  0  0  0
  -24.8620  -27.6595   19.4956 C   0  0  0  0  0  0
  -23.6371  -29.8053   20.1627 C   0  0  0  0  0  0
  -25.4105  -36.3067   24.0314 C   0  0  1  0  0  0
  -20.5880  -28.3678   23.1266 C   0  0  2  0  0  0
  -20.6761  -26.9391   22.5412 C   0  0  0  0  0  0
  -19.5741  -26.6365   21.5209 C   0  0  0  0  0  0
  -18.1921  -26.7911   22.1611 C   0  0  0  0  0  0
  -19.1533  -28.8846   23.2857 C   0  0  0  0  0  0
  -18.9472  -30.1451   23.8858 C   0  0  0  0  0  0
  -17.6477  -30.6586   24.0549 C   0  0  0  0  0  0
  -25.9054  -34.9440   23.5076 C   0  0  0  0  0  0
  -16.5364  -29.9065   23.6348 C   0  0  0  0  0  0
  -16.7272  -28.6483   23.0358 C   0  0  0  0  0  0
  -26.4492  -31.6593   25.0721 C   0  0  0  0  0  0
  -25.3693  -31.3767   26.1433 C   0  0  0  0  0  0
  -27.0357  -30.2999   24.6254 C   0  0  0  0  0  0
  -27.6021  -32.4374   25.7503 C   0  0  0  0  0  0
  -27.5567  -37.1782   24.8456 C   0  0  0  0  0  0
  -21.4202  -29.3016   22.3672 N   0  0  0  0  0  0
  -26.4286  -37.3758   23.9408 N   0  0  0  0  0  0
  -24.6940  -31.0521   22.0952 N   0  0  0  0  0  0
  -23.4180  -28.8153   23.3090 O   0  0  0  0  0  0
  -28.3006  -26.3621   20.1620 O   0  0  0  0  0  0
  -26.5667  -34.8934   22.4674 O   0  0  0  0  0  0
  -23.5465  -32.1377   23.7293 O   0  0  0  0  0  0
  -31.0243  -17.5291   21.8749 C   0  0  0  0  0  0
  -29.4029  -18.4668   20.3468 C   0  0  0  0  0  0
  -31.3795  -18.8354   22.2679 C   0  0  0  0  0  0
  -30.8426  -19.9953   21.6260 C   0  0  0  0  0  0
  -30.0653  -17.2836   20.8816 C   0  0  0  0  0  0
  -29.7603  -19.8435   20.6894 C   0  0  0  0  0  0
  -28.7313  -23.7032   20.0772 C   0  0  0  0  0  0
  -32.3578  -18.9402   23.4305 C   0  0  0  0  0  0
  -28.5875  -22.2442   20.7497 C   0  0  0  0  0  0
  -28.0533  -24.9955   20.7471 C   0  0  0  0  0  0
  -31.4960  -21.3618   21.9481 C   0  0  0  0  0  0
  -29.7470  -15.8658   20.5744 N   0  0  0  0  0  0
  -29.0968  -20.9804   20.0614 N   0  0  0  0  0  0
  -29.3723  -23.8204   19.0285 O   0  0  0  0  0  0
  -32.8167  -21.2451   22.0940 F   0  0  0  0  0  0
  -31.3651  -22.2829   20.9975 F   0  0  0  0  0  0
  -30.9979  -21.8497   23.0859 F   0  0  0  0  0  0
  -31.4702  -12.6165   19.1624 H   0  0  0  0  0  0
  -30.4042  -11.4820   19.9444 H   0  0  0  0  0  0
  -29.7904  -11.7331   17.5174 H   0  0  0  0  0  0
  -29.6324  -13.4590   17.7163 H   0  0  0  0  0  0
  -27.8783  -11.2832   18.8938 H   0  0  0  0  0  0
  -27.3769  -12.5387   17.7946 H   0  0  0  0  0  0
  -27.6310  -14.2484   19.4771 H   0  0  0  0  0  0
  -28.7140  -12.1400   21.4081 H   0  0  0  0  0  0
  -28.4101  -13.8134   21.8052 H   0  0  0  0  0  0
  -25.2745   -9.5682   22.4770 H   0  0  0  0  0  0
  -23.9983   -7.4632   22.7480 H   0  0  0  0  0  0
  -21.0834   -8.8764   19.8953 H   0  0  0  0  0  0
  -22.3672  -10.9676   19.6168 H   0  0  0  0  0  0
  -21.2012   -7.6141   23.9699 H   0  0  0  0  0  0
  -21.1479   -6.0522   25.9068 H   0  0  0  0  0  0
  -22.0607   -2.7600   23.2842 H   0  0  0  0  0  0
  -22.4075  -11.9878   22.4800 H   0  0  0  0  0  0
  -21.1075  -13.1250   22.2654 H   0  0  0  0  0  0
  -24.6418  -15.8401   20.5072 H   0  0  0  0  0  0
  -26.2532  -15.6331   20.0526 H   0  0  0  0  0  0
  -26.7211  -32.5387   23.1050 H   0  0  0  0  0  0
  -24.9978  -33.9666   25.0307 H   0  0  0  0  0  0
  -22.7212  -31.2973   21.4032 H   0  0  0  0  0  0
  -23.3754  -35.9609   23.3321 H   0  0  0  0  0  0
  -24.3555  -36.8905   22.2057 H   0  0  0  0  0  0
  -23.7230  -37.6472   23.6688 H   0  0  0  0  0  0
  -26.1084  -31.5368   20.6132 H   0  0  0  0  0  0
  -26.8452  -30.8110   22.0106 H   0  0  0  0  0  0
  -28.1284  -28.9449   21.1724 H   0  0  0  0  0  0
  -25.9677  -25.8844   19.0359 H   0  0  0  0  0  0
  -23.9627  -27.2964   19.0178 H   0  0  0  0  0  0
  -23.7498  -30.5780   19.4021 H   0  0  0  0  0  0
  -22.7545  -29.2330   19.8734 H   0  0  0  0  0  0
  -25.1292  -36.1909   25.0808 H   0  0  0  0  0  0
  -20.9938  -28.3285   24.1406 H   0  0  0  0  0  0
  -20.5648  -26.2295   23.3625 H   0  0  0  0  0  0
  -21.6637  -26.7416   22.1212 H   0  0  0  0  0  0
  -19.6920  -25.6271   21.1255 H   0  0  0  0  0  0
  -19.6703  -27.3172   20.6737 H   0  0  0  0  0  0
  -17.4192  -26.6656   21.4024 H   0  0  0  0  0  0
  -18.0317  -26.0052   22.9003 H   0  0  0  0  0  0
  -19.7964  -30.7254   24.2198 H   0  0  0  0  0  0
  -17.5052  -31.6268   24.5149 H   0  0  0  0  0  0
  -15.5355  -30.2958   23.7712 H   0  0  0  0  0  0
  -15.8666  -28.0803   22.7081 H   0  0  0  0  0  0
  -24.5866  -30.7124   25.7759 H   0  0  0  0  0  0
  -24.8893  -32.2953   26.4826 H   0  0  0  0  0  0
  -25.7982  -30.8959   27.0235 H   0  0  0  0  0  0
  -26.2970  -29.6724   24.1259 H   0  0  0  0  0  0
  -27.3973  -29.7283   25.4809 H   0  0  0  0  0  0
  -27.8872  -30.4239   23.9552 H   0  0  0  0  0  0
  -27.2593  -33.3689   26.2024 H   0  0  0  0  0  0
  -28.3855  -32.6915   25.0354 H   0  0  0  0  0  0
  -28.0671  -31.8549   26.5463 H   0  0  0  0  0  0
  -28.2571  -38.0091   24.7511 H   0  0  0  0  0  0
  -28.1068  -36.2613   24.6280 H   0  0  0  0  0  0
  -27.2281  -37.1427   25.8856 H   0  0  0  0  0  0
  -20.9406  -29.8690   21.6830 H   0  0  0  0  0  0
  -26.0167  -38.2831   24.1443 H   0  0  0  0  0  0
  -31.4907  -16.6910   22.3705 H   0  0  0  0  0  0
  -28.5984  -18.3163   19.6398 H   0  0  0  0  0  0
  -32.3373  -18.0393   24.0444 H   0  0  0  0  0  0
  -32.0931  -19.7670   24.0904 H   0  0  0  0  0  0
  -33.3788  -19.0829   23.0746 H   0  0  0  0  0  0
  -27.5163  -22.0828   20.8860 H   0  0  0  0  0  0
  -28.9918  -22.3018   21.7583 H   0  0  0  0  0  0
  -28.3967  -25.0317   21.7832 H   0  0  0  0  0  0
  -26.9831  -24.8004   20.8051 H   0  0  0  0  0  0
  -28.7640  -15.6552   20.4963 H   0  0  0  0  0  0
  -28.5828  -20.7676   19.2090 H   0  0  0  0  0  0
  1 25  1  0  0  0
  1 30  2  0  0  0
  1 82  1  0  0  0
  2  3  1  0  0  0
  2 25  1  0  0  0
  2 88  1  0  0  0
  2 89  1  0  0  0
  3  4  1  0  0  0
  3 90  1  0  0  0
  3 91  1  0  0  0
  4  5  1  0  0  0
  4 92  1  0  0  0
  4 93  1  0  0  0
  5  6  1  0  0  0
  5 26  1  0  0  0
  5 94  1  0  0  0
  6 25  1  0  0  0
  6 95  1  0  0  0
  6 96  1  0  0  0
  7  8  2  0  0  0
  7 26  1  0  0  0
  7 29  1  0  0  0
  8  9  1  0  0  0
  8 22  1  0  0  0
  9 10  1  0  0  0
  9 27  2  0  0  0
 10 11  2  0  0  0
 10 15  1  0  0  0
 11 12  1  0  0  0
 11 97  1  0  0  0
 12 13  2  0  0  0
 12 98  1  0  0  0
 13 14  1  0  0  0
 13 31  1  0  0  0
 14 15  2  0  0  0
 14 99  1  0  0  0
 15100  1  0  0  0
 16 17  2  0  0  0
 16 21  1  0  0  0
 16 31  1  0  0  0
 17 18  1  0  0  0
 17101  1  0  0  0
 18 19  2  0  0  0
 18102  1  0  0  0
 19 20  1  0  0  0
 19 24  1  0  0  0
 20 21  2  0  0  0
 20103  1  0  0  0
 21 23  1  0  0  0
 22 28  1  0  0  0
 22 32  2  0  0  0
 26 27  1  0  0  0
 28104  1  0  0  0
 28105  1  0  0  0
 29106  1  0  0  0
 29107  1  0  0  0
 33 34  1  0  0  0
 33 66  1  0  0  0
 33 70  2  0  0  0
 34 36  1  0  0  0
 34 59  1  0  0  0
 34108  1  0  0  0
 35 44  2  0  0  0
 35 45  1  0  0  0
 35 68  1  0  0  0
 36 56  1  0  0  0
 36109  1  0  0  0
 37 39  1  0  0  0
 37 47  1  0  0  0
 37 66  1  0  0  0
 37110  1  0  0  0
 38 43  2  0  0  0
 38 46  1  0  0  0
 38 47  1  0  0  0
 39 64  1  0  0  0
 39 67  2  0  0  0
 40 52  1  0  0  0
 40 53  2  0  0  0
 40 58  1  0  0  0
 41111  1  0  0  0
 41112  1  0  0  0
 41113  1  0  0  0
 41 48  1  0  0  0
 42 43  1  0  0  0
 42 66  1  0  0  0
 42114  1  0  0  0
 42115  1  0  0  0
 43 44  1  0  0  0
 44116  1  0  0  0
 45 46  2  0  0  0
 45117  1  0  0  0
 46118  1  0  0  0
 47119  1  0  0  0
 47120  1  0  0  0
 48 56  1  0  0  0
 48 65  1  0  0  0
 48121  1  0  0  0
 49 50  1  0  0  0
 49 53  1  0  0  0
 49 64  1  0  0  0
 49122  1  0  0  0
 50 51  1  0  0  0
 50123  1  0  0  0
 50124  1  0  0  0
 51 52  1  0  0  0
 51125  1  0  0  0
 51126  1  0  0  0
 52127  1  0  0  0
 52128  1  0  0  0
 53 54  1  0  0  0
 54 55  2  0  0  0
 54129  1  0  0  0
 55 57  1  0  0  0
 55130  1  0  0  0
 56 69  2  0  0  0
 57 58  2  0  0  0
 57131  1  0  0  0
 58132  1  0  0  0
 59 60  1  0  0  0
 59 61  1  0  0  0
 59 62  1  0  0  0
 60133  1  0  0  0
 60134  1  0  0  0
 60135  1  0  0  0
 61136  1  0  0  0
 61137  1  0  0  0
 61138  1  0  0  0
 62139  1  0  0  0
 62140  1  0  0  0
 62141  1  0  0  0
 63 65  1  0  0  0
 63142  1  0  0  0
 63143  1  0  0  0
 63144  1  0  0  0
 64145  1  0  0  0
 65146  1  0  0  0
 68 80  1  0  0  0
 71 73  2  0  0  0
 71 75  1  0  0  0
 71147  1  0  0  0
 72 75  2  0  0  0
 72 76  1  0  0  0
 72148  1  0  0  0
 73 74  1  0  0  0
 73 78  1  0  0  0
 74 76  2  0  0  0
 74 81  1  0  0  0
 75 82  1  0  0  0
 76 83  1  0  0  0
 77 79  1  0  0  0
 77 80  1  0  0  0
 77 84  2  0  0  0
 78149  1  0  0  0
 78150  1  0  0  0
 78151  1  0  0  0
 79 83  1  0  0  0
 79152  1  0  0  0
 79153  1  0  0  0
 80154  1  0  0  0
 80155  1  0  0  0
 81 85  1  0  0  0
 81 86  1  0  0  0
 81 87  1  0  0  0
 82156  1  0  0  0
 83157  1  0  0  0
M  ISO  4   1 100  68 101  80 101  82 100
M  END
> <chiral flag>
0

> <version>
0

> <s_m_source_file>
/data/baiqing/PycharmProjects/Reinvent-master-3.2/result/LINK_invent/BTK/process_docking_weight1_custom_product_contain_oxygen_bond_distance_aromatic_linkinvent_7_9_3/rearranged_h_0169.sdf

> <i_m_source_file_index>
29

> <r_mmod_Potential_Energy-OPLS-2005>
412.986602783203

> <r_mmod_Stretch_Energy-OPLS-2005>
131.003799438477

> <r_mmod_Bend_Energy-OPLS-2005>
169.240509033203

> <r_mmod_Torsional_Energy-OPLS-2005>
251.768630981445

> <r_mmod_Improper_Torsional_Energy-OPLS-2005>
9.13705348968506

> <r_mmod_Van_der_Waal_Energy-OPLS-2005>
147.294174194336

> <r_mmod_Electrostatic_Energy-OPLS-2005>
-136.906753540039

> <r_mmod_Solvation_Energy-OPLS-2005>
-245.990859985352

> <b_mmod_Minimization_Converged-OPLS-2005>
0

> <r_mmod_RMS_Derivative-OPLS-2005>
3.51671695709229

$$$$
29
                    3D
 Structure written by MMmdl.
156164  0  0  1  0            999 V2000
  -30.7571  -14.3923   20.6504 C   0  0  0  0  0  0
  -30.4152  -12.2915   19.4022 C   0  0  0  0  0  0
  -29.4845  -12.5119   18.1959 C   0  0  0  0  0  0
  -28.0079  -12.3737   18.6133 C   0  0  0  0  0  0
  -27.6632  -13.2043   19.8776 C   0  0  2  0  0  0
  -28.7032  -12.9629   20.9939 C   0  0  0  0  0  0
  -25.2596  -13.8163   20.5680 C   0  0  0  0  0  0
  -24.1840  -13.0438   20.9173 C   0  0  0  0  0  0
  -24.6390  -11.6912   20.8731 C   0  0  0  0  0  0
  -23.9054  -10.4294   21.0404 C   0  0  0  0  0  0
  -24.3610   -9.4210   21.9181 C   0  0  0  0  0  0
  -23.6290   -8.2243   22.0749 C   0  0  0  0  0  0
  -22.4272   -8.0280   21.3544 C   0  0  0  0  0  0
  -21.9909   -9.0250   20.4642 C   0  0  0  0  0  0
  -22.7231  -10.2132   20.3052 C   0  0  0  0  0  0
  -21.6855   -6.0734   22.5279 C   0  0  0  0  0  0
  -21.4010   -6.5638   23.8211 C   0  0  0  0  0  0
  -21.3660   -5.6794   24.9175 C   0  0  0  0  0  0
  -21.6044   -4.3056   24.7228 C   0  0  0  0  0  0
  -21.8822   -3.8146   23.4349 C   0  0  0  0  0  0
  -21.9192   -4.6961   22.3402 C   0  0  0  0  0  0
  -22.7861  -13.5236   21.1841 C   0  0  0  0  0  0
  -22.1662   -4.2146   21.0982 F   0  0  0  0  0  0
  -21.5629   -3.4540   25.7741 F   0  0  0  0  0  0
  -30.0403  -13.2563   20.4464 N   0  0  0  0  0  0
  -26.3032  -12.9327   20.3381 N   0  0  0  0  0  0
  -25.9315  -11.6490   20.5766 N   0  0  0  0  0  0
  -22.0505  -12.8224   22.0401 N   0  0  0  0  0  0
  -25.4339  -15.1878   20.4099 N   0  0  0  0  0  0
  -31.8292  -14.6207   20.0808 O   0  0  0  0  0  0
  -21.6640   -6.8875   21.4240 O   0  0  0  0  0  0
  -22.3548  -14.5546   20.6699 O   0  0  0  0  0  0
  -24.6127  -31.8694   23.2098 C   0  0  0  0  0  0
  -25.9029  -32.4830   23.8388 C   0  0  1  0  0  0
  -27.2418  -27.4487   20.0853 C   0  0  0  0  0  0
  -25.5885  -33.8620   24.2337 N   0  0  0  0  0  0
  -23.3991  -30.4923   21.5511 C   0  0  2  0  0  0
  -24.8450  -28.9563   20.1183 C   0  0  0  0  0  0
  -22.7394  -29.4669   22.5004 C   0  0  0  0  0  0
  -18.0269  -28.1369   22.8498 C   0  0  0  0  0  0
  -24.1485  -36.7311   23.2636 C   0  0  0  0  0  0
  -25.9255  -30.8390   21.3594 C   0  0  0  0  0  0
  -26.0033  -29.4725   20.7095 C   0  0  0  0  0  0
  -27.2000  -28.7248   20.6912 C   0  0  0  0  0  0
  -26.0573  -26.9367   19.5019 C   0  0  0  0  0  0
  -24.8655  -27.6864   19.5159 C   0  0  0  0  0  0
  -23.6062  -29.8210   20.1669 C   0  0  0  0  0  0
  -25.4101  -36.3113   24.0341 C   0  0  1  0  0  0
  -20.5856  -28.3653   23.1328 C   0  0  2  0  0  0
  -20.6760  -26.9394   22.5414 C   0  0  0  0  0  0
  -19.5740  -26.6385   21.5209 C   0  0  0  0  0  0
  -18.1919  -26.7922   22.1616 C   0  0  0  0  0  0
  -19.1519  -28.8828   23.2910 C   0  0  0  0  0  0
  -18.9448  -30.1434   23.8918 C   0  0  0  0  0  0
  -17.6454  -30.6581   24.0566 C   0  0  0  0  0  0
  -25.9026  -34.9476   23.5139 C   0  0  0  0  0  0
  -16.5341  -29.9086   23.6324 C   0  0  0  0  0  0
  -16.7260  -28.6497   23.0350 C   0  0  0  0  0  0
  -26.4471  -31.6598   25.0705 C   0  0  0  0  0  0
  -25.3749  -31.3676   26.1463 C   0  0  0  0  0  0
  -27.0309  -30.3053   24.6048 C   0  0  0  0  0  0
  -27.6057  -32.4306   25.7459 C   0  0  0  0  0  0
  -27.5585  -37.1799   24.8463 C   0  0  0  0  0  0
  -21.4125  -29.3030   22.3742 N   0  0  0  0  0  0
  -26.4293  -37.3796   23.9416 N   0  0  0  0  0  0
  -24.6641  -31.0802   22.0993 N   0  0  0  0  0  0
  -23.4180  -28.8214   23.3041 O   0  0  0  0  0  0
  -28.4505  -26.7807   20.0840 O   0  0  0  0  0  0
  -26.5593  -34.8928   22.4702 O   0  0  0  0  0  0
  -23.5328  -32.1447   23.7499 O   0  0  0  0  0  0
  -30.0740  -17.7051   21.9100 C   0  0  0  0  0  0
  -31.9514  -18.8605   22.9583 C   0  0  0  0  0  0
  -32.0970  -16.4718   22.5064 C   0  0  0  0  0  0
  -30.6575  -18.9041   22.3953 C   0  0  0  0  0  0
  -30.7981  -16.4900   21.9473 C   0  0  0  0  0  0
  -32.6694  -17.6523   23.0114 C   0  0  0  0  0  0
  -28.2887  -24.4334   20.8021 C   0  0  0  0  0  0
  -29.1012  -20.6553   21.5207 C   0  0  0  0  0  0
  -28.5017  -22.9429   20.5117 C   0  0  0  0  0  0
  -28.5359  -25.4164   19.6449 C   0  0  0  0  0  0
  -28.6120  -22.0810   21.7918 C   0  0  0  0  0  0
  -29.9897  -20.1619   22.3999 N   0  0  0  0  0  0
  -30.1934  -15.2931   21.4721 N   0  0  0  0  0  0
  -27.9387  -24.8212   21.9221 O   0  0  0  0  0  0
  -28.6798  -20.0354   20.5417 O   0  0  0  0  0  0
  -33.9111  -17.6250   23.5538 F   0  0  0  0  0  0
  -31.4582  -12.3865   19.0955 H   0  0  0  0  0  0
  -30.3131  -11.2748   19.7843 H   0  0  0  0  0  0
  -29.7159  -11.7966   17.4059 H   0  0  0  0  0  0
  -29.6553  -13.5032   17.7723 H   0  0  0  0  0  0
  -27.8144  -11.3165   18.8006 H   0  0  0  0  0  0
  -27.3550  -12.6585   17.7873 H   0  0  0  0  0  0
  -27.7161  -14.2552   19.5934 H   0  0  0  0  0  0
  -28.6702  -11.9233   21.3227 H   0  0  0  0  0  0
  -28.4570  -13.5495   21.8797 H   0  0  0  0  0  0
  -25.2756   -9.5688   22.4754 H   0  0  0  0  0  0
  -24.0002   -7.4636   22.7470 H   0  0  0  0  0  0
  -21.0840   -8.8769   19.8947 H   0  0  0  0  0  0
  -22.3691  -10.9671   19.6161 H   0  0  0  0  0  0
  -21.2004   -7.6147   23.9714 H   0  0  0  0  0  0
  -21.1478   -6.0524   25.9076 H   0  0  0  0  0  0
  -22.0601   -2.7609   23.2853 H   0  0  0  0  0  0
  -22.4123  -11.9881   22.4775 H   0  0  0  0  0  0
  -21.1123  -13.1248   22.2611 H   0  0  0  0  0  0
  -24.6713  -15.8484   20.5176 H   0  0  0  0  0  0
  -26.2943  -15.6244   20.1022 H   0  0  0  0  0  0
  -26.7099  -32.5564   23.1153 H   0  0  0  0  0  0
  -25.0052  -33.9779   25.0494 H   0  0  0  0  0  0
  -22.6873  -31.3082   21.4110 H   0  0  0  0  0  0
  -23.3759  -35.9635   23.3292 H   0  0  0  0  0  0
  -24.3586  -36.8924   22.2052 H   0  0  0  0  0  0
  -23.7230  -37.6503   23.6659 H   0  0  0  0  0  0
  -26.0300  -31.6043   20.5890 H   0  0  0  0  0  0
  -26.8169  -30.8988   21.9727 H   0  0  0  0  0  0
  -28.0971  -29.1248   21.1437 H   0  0  0  0  0  0
  -26.0247  -25.9689   19.0260 H   0  0  0  0  0  0
  -23.9734  -27.2793   19.0615 H   0  0  0  0  0  0
  -23.7093  -30.5950   19.4049 H   0  0  0  0  0  0
  -22.7321  -29.2353   19.8763 H   0  0  0  0  0  0
  -25.1280  -36.1971   25.0833 H   0  0  0  0  0  0
  -20.9945  -28.3220   24.1451 H   0  0  0  0  0  0
  -20.5667  -26.2255   23.3596 H   0  0  0  0  0  0
  -21.6633  -26.7448   22.1204 H   0  0  0  0  0  0
  -19.6909  -25.6304   21.1219 H   0  0  0  0  0  0
  -19.6687  -27.3210   20.6755 H   0  0  0  0  0  0
  -17.4187  -26.6667   21.4018 H   0  0  0  0  0  0
  -18.0314  -26.0059   22.9009 H   0  0  0  0  0  0
  -19.7927  -30.7230   24.2306 H   0  0  0  0  0  0
  -17.5015  -31.6271   24.5155 H   0  0  0  0  0  0
  -15.5342  -30.2996   23.7644 H   0  0  0  0  0  0
  -15.8652  -28.0824   22.7063 H   0  0  0  0  0  0
  -24.5934  -30.7006   25.7795 H   0  0  0  0  0  0
  -24.8922  -32.2814   26.4932 H   0  0  0  0  0  0
  -25.8111  -30.8835   27.0209 H   0  0  0  0  0  0
  -26.2835  -29.6784   24.1166 H   0  0  0  0  0  0
  -27.4177  -29.7302   25.4468 H   0  0  0  0  0  0
  -27.8622  -30.4380   23.9121 H   0  0  0  0  0  0
  -27.2700  -33.3606   26.2056 H   0  0  0  0  0  0
  -28.3861  -32.6853   25.0278 H   0  0  0  0  0  0
  -28.0741  -31.8415   26.5356 H   0  0  0  0  0  0
  -28.2589  -38.0113   24.7549 H   0  0  0  0  0  0
  -28.1096  -36.2646   24.6248 H   0  0  0  0  0  0
  -27.2307  -37.1394   25.8865 H   0  0  0  0  0  0
  -20.9273  -29.8745   21.6966 H   0  0  0  0  0  0
  -26.0185  -38.2869   24.1443 H   0  0  0  0  0  0
  -29.0722  -17.7108   21.5040 H   0  0  0  0  0  0
  -32.4097  -19.7569   23.3508 H   0  0  0  0  0  0
  -32.6615  -15.5529   22.5658 H   0  0  0  0  0  0
  -29.4093  -22.8395   19.9154 H   0  0  0  0  0  0
  -27.6797  -22.5899   19.8890 H   0  0  0  0  0  0
  -27.8923  -25.1934   18.7964 H   0  0  0  0  0  0
  -29.5539  -25.2543   19.2911 H   0  0  0  0  0  0
  -29.2964  -22.5602   22.4946 H   0  0  0  0  0  0
  -27.6449  -22.0235   22.2913 H   0  0  0  0  0  0
  -30.2965  -20.8173   23.1057 H   0  0  0  0  0  0
  -29.2449  -15.1052   21.7601 H   0  0  0  0  0  0
  1 25  1  0  0  0
  1 30  2  0  0  0
  1 83  1  0  0  0
  2  3  1  0  0  0
  2 25  1  0  0  0
  2 87  1  0  0  0
  2 88  1  0  0  0
  3  4  1  0  0  0
  3 89  1  0  0  0
  3 90  1  0  0  0
  4  5  1  0  0  0
  4 91  1  0  0  0
  4 92  1  0  0  0
  5  6  1  0  0  0
  5 26  1  0  0  0
  5 93  1  0  0  0
  6 25  1  0  0  0
  6 94  1  0  0  0
  6 95  1  0  0  0
  7  8  2  0  0  0
  7 26  1  0  0  0
  7 29  1  0  0  0
  8  9  1  0  0  0
  8 22  1  0  0  0
  9 10  1  0  0  0
  9 27  2  0  0  0
 10 11  2  0  0  0
 10 15  1  0  0  0
 11 12  1  0  0  0
 11 96  1  0  0  0
 12 13  2  0  0  0
 12 97  1  0  0  0
 13 14  1  0  0  0
 13 31  1  0  0  0
 14 15  2  0  0  0
 14 98  1  0  0  0
 15 99  1  0  0  0
 16 17  2  0  0  0
 16 21  1  0  0  0
 16 31  1  0  0  0
 17 18  1  0  0  0
 17100  1  0  0  0
 18 19  2  0  0  0
 18101  1  0  0  0
 19 20  1  0  0  0
 19 24  1  0  0  0
 20 21  2  0  0  0
 20102  1  0  0  0
 21 23  1  0  0  0
 22 28  1  0  0  0
 22 32  2  0  0  0
 26 27  1  0  0  0
 28103  1  0  0  0
 28104  1  0  0  0
 29105  1  0  0  0
 29106  1  0  0  0
 33 34  1  0  0  0
 33 66  1  0  0  0
 33 70  2  0  0  0
 34 36  1  0  0  0
 34 59  1  0  0  0
 34107  1  0  0  0
 35 44  2  0  0  0
 35 45  1  0  0  0
 35 68  1  0  0  0
 36 56  1  0  0  0
 36108  1  0  0  0
 37 39  1  0  0  0
 37 47  1  0  0  0
 37 66  1  0  0  0
 37109  1  0  0  0
 38 43  2  0  0  0
 38 46  1  0  0  0
 38 47  1  0  0  0
 39 64  1  0  0  0
 39 67  2  0  0  0
 40 52  1  0  0  0
 40 53  2  0  0  0
 40 58  1  0  0  0
 41110  1  0  0  0
 41111  1  0  0  0
 41112  1  0  0  0
 41 48  1  0  0  0
 42 43  1  0  0  0
 42 66  1  0  0  0
 42113  1  0  0  0
 42114  1  0  0  0
 43 44  1  0  0  0
 44115  1  0  0  0
 45 46  2  0  0  0
 45116  1  0  0  0
 46117  1  0  0  0
 47118  1  0  0  0
 47119  1  0  0  0
 48 56  1  0  0  0
 48 65  1  0  0  0
 48120  1  0  0  0
 49 50  1  0  0  0
 49 53  1  0  0  0
 49 64  1  0  0  0
 49121  1  0  0  0
 50 51  1  0  0  0
 50122  1  0  0  0
 50123  1  0  0  0
 51 52  1  0  0  0
 51124  1  0  0  0
 51125  1  0  0  0
 52126  1  0  0  0
 52127  1  0  0  0
 53 54  1  0  0  0
 54 55  2  0  0  0
 54128  1  0  0  0
 55 57  1  0  0  0
 55129  1  0  0  0
 56 69  2  0  0  0
 57 58  2  0  0  0
 57130  1  0  0  0
 58131  1  0  0  0
 59 60  1  0  0  0
 59 61  1  0  0  0
 59 62  1  0  0  0
 60132  1  0  0  0
 60133  1  0  0  0
 60134  1  0  0  0
 61135  1  0  0  0
 61136  1  0  0  0
 61137  1  0  0  0
 62138  1  0  0  0
 62139  1  0  0  0
 62140  1  0  0  0
 63 65  1  0  0  0
 63141  1  0  0  0
 63142  1  0  0  0
 63143  1  0  0  0
 64144  1  0  0  0
 65145  1  0  0  0
 68 80  1  0  0  0
 71 74  2  0  0  0
 71 75  1  0  0  0
 71146  1  0  0  0
 72 74  1  0  0  0
 72 76  2  0  0  0
 72147  1  0  0  0
 73 75  2  0  0  0
 73 76  1  0  0  0
 73148  1  0  0  0
 74 82  1  0  0  0
 75 83  1  0  0  0
 76 86  1  0  0  0
 77 79  1  0  0  0
 77 80  1  0  0  0
 77 84  2  0  0  0
 78 81  1  0  0  0
 78 82  1  0  0  0
 78 85  2  0  0  0
 79 81  1  0  0  0
 79149  1  0  0  0
 79150  1  0  0  0
 80151  1  0  0  0
 80152  1  0  0  0
 81153  1  0  0  0
 81154  1  0  0  0
 82155  1  0  0  0
 83156  1  0  0  0
M  ISO  4   1 100  68 101  80 101  83 100
M  END
> <chiral flag>
0

> <version>
0

> <s_m_source_file>
/data/baiqing/PycharmProjects/Reinvent-master-3.2/result/LINK_invent/BTK/process_docking_weight1_custom_product_contain_oxygen_bond_distance_aromatic_linkinvent_7_9_3/rearranged_h_0169.sdf

> <i_m_source_file_index>
30

> <r_mmod_Potential_Energy-OPLS-2005>
-115.644538879395

> <r_mmod_Stretch_Energy-OPLS-2005>
34.7289085388184

> <r_mmod_Bend_Energy-OPLS-2005>
102.46223449707

> <r_mmod_Torsional_Energy-OPLS-2005>
222.675369262695

> <r_mmod_Improper_Torsional_Energy-OPLS-2005>
2.12230277061462

> <r_mmod_Van_der_Waal_Energy-OPLS-2005>
160.322204589844

> <r_mmod_Electrostatic_Energy-OPLS-2005>
-399.240966796875

> <r_mmod_Solvation_Energy-OPLS-2005>
-247.421463012695

> <b_mmod_Minimization_Converged-OPLS-2005>
0

> <r_mmod_RMS_Derivative-OPLS-2005>
1.29476988315582

$$$$
30
                    3D
 Structure written by MMmdl.
157165  0  0  1  0            999 V2000
  -30.6996  -14.4947   20.5759 C   0  0  0  0  0  0
  -30.4280  -12.3292   19.4137 C   0  0  0  0  0  0
  -29.4874  -12.5031   18.1988 C   0  0  0  0  0  0
  -28.0122  -12.3664   18.6223 C   0  0  0  0  0  0
  -27.6617  -13.2066   19.8784 C   0  0  2  0  0  0
  -28.7096  -12.9947   20.9951 C   0  0  0  0  0  0
  -25.2628  -13.8157   20.5769 C   0  0  0  0  0  0
  -24.1844  -13.0436   20.9166 C   0  0  0  0  0  0
  -24.6381  -11.6887   20.8735 C   0  0  0  0  0  0
  -23.9046  -10.4291   21.0446 C   0  0  0  0  0  0
  -24.3598   -9.4193   21.9217 C   0  0  0  0  0  0
  -23.6281   -8.2230   22.0769 C   0  0  0  0  0  0
  -22.4258   -8.0297   21.3567 C   0  0  0  0  0  0
  -21.9899   -9.0262   20.4663 C   0  0  0  0  0  0
  -22.7231  -10.2141   20.3079 C   0  0  0  0  0  0
  -21.6856   -6.0729   22.5271 C   0  0  0  0  0  0
  -21.4022   -6.5615   23.8208 C   0  0  0  0  0  0
  -21.3668   -5.6761   24.9151 C   0  0  0  0  0  0
  -21.6043   -4.3030   24.7200 C   0  0  0  0  0  0
  -21.8825   -3.8122   23.4322 C   0  0  0  0  0  0
  -21.9195   -4.6950   22.3375 C   0  0  0  0  0  0
  -22.7866  -13.5282   21.1766 C   0  0  0  0  0  0
  -22.1667   -4.2135   21.0962 F   0  0  0  0  0  0
  -21.5631   -3.4517   25.7718 F   0  0  0  0  0  0
  -30.0302  -13.3171   20.4294 N   0  0  0  0  0  0
  -26.3043  -12.9320   20.3420 N   0  0  0  0  0  0
  -25.9319  -11.6470   20.5765 N   0  0  0  0  0  0
  -22.0468  -12.8343   22.0334 N   0  0  0  0  0  0
  -25.4363  -15.1899   20.4297 N   0  0  0  0  0  0
  -31.8406  -14.6701   20.1450 O   0  0  0  0  0  0
  -21.6632   -6.8892   21.4244 O   0  0  0  0  0  0
  -22.3604  -14.5591   20.6590 O   0  0  0  0  0  0
  -24.6187  -31.8675   23.2053 C   0  0  0  0  0  0
  -25.9087  -32.4779   23.8361 C   0  0  1  0  0  0
  -27.2404  -27.3968   20.1150 C   0  0  0  0  0  0
  -25.5983  -33.8580   24.2325 N   0  0  0  0  0  0
  -23.4072  -30.4928   21.5427 C   0  0  2  0  0  0
  -24.8532  -28.9468   20.1130 C   0  0  0  0  0  0
  -22.7425  -29.4669   22.4917 C   0  0  0  0  0  0
  -18.0296  -28.1401   22.8487 C   0  0  0  0  0  0
  -24.1506  -36.7287   23.2627 C   0  0  0  0  0  0
  -25.9377  -30.8222   21.3653 C   0  0  0  0  0  0
  -26.0127  -29.4529   20.7111 C   0  0  0  0  0  0
  -27.2014  -28.6855   20.7041 C   0  0  0  0  0  0
  -26.0539  -26.9072   19.5186 C   0  0  0  0  0  0
  -24.8729  -27.6758   19.5100 C   0  0  0  0  0  0
  -23.6188  -29.8217   20.1587 C   0  0  0  0  0  0
  -25.4137  -36.3094   24.0330 C   0  0  1  0  0  0
  -20.5886  -28.3693   23.1302 C   0  0  2  0  0  0
  -20.6764  -26.9434   22.5397 C   0  0  0  0  0  0
  -19.5741  -26.6405   21.5184 C   0  0  0  0  0  0
  -18.1918  -26.7964   22.1600 C   0  0  0  0  0  0
  -19.1545  -28.8846   23.2912 C   0  0  0  0  0  0
  -18.9481  -30.1438   23.8957 C   0  0  0  0  0  0
  -17.6488  -30.6602   24.0586 C   0  0  0  0  0  0
  -25.9058  -34.9443   23.5114 C   0  0  0  0  0  0
  -16.5376  -29.9110   23.6334 C   0  0  0  0  0  0
  -16.7284  -28.6516   23.0365 C   0  0  0  0  0  0
  -26.4528  -31.6563   25.0696 C   0  0  0  0  0  0
  -25.3786  -31.3659   26.1431 C   0  0  0  0  0  0
  -27.0401  -30.3018   24.6091 C   0  0  0  0  0  0
  -27.6111  -32.4312   25.7462 C   0  0  0  0  0  0
  -27.5604  -37.1792   24.8458 C   0  0  0  0  0  0
  -21.4140  -29.3090   22.3697 N   0  0  0  0  0  0
  -26.4317  -37.3798   23.9400 N   0  0  0  0  0  0
  -24.6717  -31.0767   22.0957 N   0  0  0  0  0  0
  -23.4173  -28.8181   23.2932 O   0  0  0  0  0  0
  -28.4372  -26.6908   20.1573 O   0  0  0  0  0  0
  -26.5568  -34.8913   22.4652 O   0  0  0  0  0  0
  -23.5376  -32.1447   23.7418 O   0  0  0  0  0  0
  -31.5190  -17.1432   22.1015 C   0  0  0  0  0  0
  -31.1556  -19.5497   21.8330 C   0  0  0  0  0  0
  -30.4087  -16.8692   21.2720 C   0  0  0  0  0  0
  -30.0436  -19.3127   20.9931 C   0  0  0  0  0  0
  -31.8858  -18.4766   22.3821 C   0  0  0  0  0  0
  -29.6798  -17.9620   20.7220 C   0  0  0  0  0  0
  -28.4598  -22.7684   20.2027 C   0  0  0  0  0  0
  -30.0321  -25.2725   19.1258 C   0  0  0  0  0  0
  -28.3281  -24.2266   20.7290 C   0  0  0  0  0  0
  -29.4214  -21.7788   20.9127 C   0  0  0  0  0  0
  -28.5880  -25.3372   19.6598 C   0  0  1  0  0  0
  -29.9691  -15.5209   21.0568 N   0  0  0  0  0  0
  -29.3049  -20.3841   20.4338 N   0  0  0  0  0  0
  -27.8120  -22.3933   19.2195 O   0  0  0  0  0  0
  -32.9406  -18.7296   23.1918 F   0  0  0  0  0  0
  -28.6131  -17.7080   19.9232 F   0  0  0  0  0  0
  -31.4682  -12.4418   19.1087 H   0  0  0  0  0  0
  -30.3487  -11.3203   19.8209 H   0  0  0  0  0  0
  -29.7176  -11.7698   17.4238 H   0  0  0  0  0  0
  -29.6445  -13.4811   17.7420 H   0  0  0  0  0  0
  -27.8195  -11.3110   18.8123 H   0  0  0  0  0  0
  -27.3598  -12.6478   17.7950 H   0  0  0  0  0  0
  -27.7057  -14.2503   19.5707 H   0  0  0  0  0  0
  -28.6983  -11.9564   21.3287 H   0  0  0  0  0  0
  -28.4745  -13.5888   21.8804 H   0  0  0  0  0  0
  -25.2755   -9.5634   22.4789 H   0  0  0  0  0  0
  -23.9963   -7.4605   22.7494 H   0  0  0  0  0  0
  -21.0824   -8.8796   19.8989 H   0  0  0  0  0  0
  -22.3729  -10.9666   19.6164 H   0  0  0  0  0  0
  -21.2041   -7.6126   23.9708 H   0  0  0  0  0  0
  -21.1488   -6.0490   25.9063 H   0  0  0  0  0  0
  -22.0608   -2.7593   23.2811 H   0  0  0  0  0  0
  -22.4044  -12.0047   22.4816 H   0  0  0  0  0  0
  -21.1090  -13.1453   22.2442 H   0  0  0  0  0  0
  -24.6760  -15.8457   20.5862 H   0  0  0  0  0  0
  -26.2933  -15.6442   20.1404 H   0  0  0  0  0  0
  -26.7154  -32.5481   23.1113 H   0  0  0  0  0  0
  -25.0258  -33.9693   25.0559 H   0  0  0  0  0  0
  -22.6993  -31.3118   21.3974 H   0  0  0  0  0  0
  -23.3780  -35.9605   23.3273 H   0  0  0  0  0  0
  -24.3561  -36.8925   22.2038 H   0  0  0  0  0  0
  -23.7225  -37.6474   23.6653 H   0  0  0  0  0  0
  -26.0645  -31.5952   20.6049 H   0  0  0  0  0  0
  -26.8149  -30.8610   21.9972 H   0  0  0  0  0  0
  -28.0969  -29.0753   21.1661 H   0  0  0  0  0  0
  -26.0110  -25.9331   19.0566 H   0  0  0  0  0  0
  -23.9820  -27.2769   19.0413 H   0  0  0  0  0  0
  -23.7359  -30.5938   19.3994 H   0  0  0  0  0  0
  -22.7420  -29.2515   19.8559 H   0  0  0  0  0  0
  -25.1327  -36.1942   25.0823 H   0  0  0  0  0  0
  -21.0029  -28.3233   24.1410 H   0  0  0  0  0  0
  -20.5588  -26.2340   23.3591 H   0  0  0  0  0  0
  -21.6640  -26.7439   22.1251 H   0  0  0  0  0  0
  -19.6917  -25.6302   21.1253 H   0  0  0  0  0  0
  -19.6674  -27.3171   20.6678 H   0  0  0  0  0  0
  -17.4177  -26.6718   21.4022 H   0  0  0  0  0  0
  -18.0284  -26.0118   22.9008 H   0  0  0  0  0  0
  -19.7956  -30.7215   24.2370 H   0  0  0  0  0  0
  -17.5068  -31.6283   24.5175 H   0  0  0  0  0  0
  -15.5380  -30.3033   23.7640 H   0  0  0  0  0  0
  -15.8690  -28.0840   22.7105 H   0  0  0  0  0  0
  -24.6006  -30.6957   25.7749 H   0  0  0  0  0  0
  -24.8909  -32.2806   26.4831 H   0  0  0  0  0  0
  -25.8128  -30.8874   27.0214 H   0  0  0  0  0  0
  -26.2942  -29.6694   24.1267 H   0  0  0  0  0  0
  -27.4326  -29.7334   25.4525 H   0  0  0  0  0  0
  -27.8721  -30.4327   23.9158 H   0  0  0  0  0  0
  -27.2752  -33.3657   26.1966 H   0  0  0  0  0  0
  -28.3963  -32.6786   25.0305 H   0  0  0  0  0  0
  -28.0748  -31.8480   26.5422 H   0  0  0  0  0  0
  -28.2619  -38.0099   24.7581 H   0  0  0  0  0  0
  -28.1103  -36.2638   24.6240 H   0  0  0  0  0  0
  -27.2293  -37.1414   25.8845 H   0  0  0  0  0  0
  -20.9262  -29.8949   21.7069 H   0  0  0  0  0  0
  -26.0213  -38.2875   24.1416 H   0  0  0  0  0  0
  -32.0842  -16.3390   22.5513 H   0  0  0  0  0  0
  -31.4690  -20.5563   22.0677 H   0  0  0  0  0  0
  -30.1639  -25.9389   18.2742 H   0  0  0  0  0  0
  -30.2957  -24.2726   18.7863 H   0  0  0  0  0  0
  -30.7566  -25.5563   19.8903 H   0  0  0  0  0  0
  -28.9878  -24.3621   21.5872 H   0  0  0  0  0  0
  -27.3124  -24.3393   21.1098 H   0  0  0  0  0  0
  -29.2338  -21.8149   21.9877 H   0  0  0  0  0  0
  -30.4415  -22.1323   20.7512 H   0  0  0  0  0  0
  -27.9389  -25.1548   18.8058 H   0  0  0  0  0  0
  -28.9846  -15.3376   21.1840 H   0  0  0  0  0  0
  -28.4972  -20.1676   19.8497 H   0  0  0  0  0  0
  1 25  1  0  0  0
  1 30  2  0  0  0
  1 82  1  0  0  0
  2  3  1  0  0  0
  2 25  1  0  0  0
  2 87  1  0  0  0
  2 88  1  0  0  0
  3  4  1  0  0  0
  3 89  1  0  0  0
  3 90  1  0  0  0
  4  5  1  0  0  0
  4 91  1  0  0  0
  4 92  1  0  0  0
  5  6  1  0  0  0
  5 26  1  0  0  0
  5 93  1  0  0  0
  6 25  1  0  0  0
  6 94  1  0  0  0
  6 95  1  0  0  0
  7  8  2  0  0  0
  7 26  1  0  0  0
  7 29  1  0  0  0
  8  9  1  0  0  0
  8 22  1  0  0  0
  9 10  1  0  0  0
  9 27  2  0  0  0
 10 11  2  0  0  0
 10 15  1  0  0  0
 11 12  1  0  0  0
 11 96  1  0  0  0
 12 13  2  0  0  0
 12 97  1  0  0  0
 13 14  1  0  0  0
 13 31  1  0  0  0
 14 15  2  0  0  0
 14 98  1  0  0  0
 15 99  1  0  0  0
 16 17  2  0  0  0
 16 21  1  0  0  0
 16 31  1  0  0  0
 17 18  1  0  0  0
 17100  1  0  0  0
 18 19  2  0  0  0
 18101  1  0  0  0
 19 20  1  0  0  0
 19 24  1  0  0  0
 20 21  2  0  0  0
 20102  1  0  0  0
 21 23  1  0  0  0
 22 28  1  0  0  0
 22 32  2  0  0  0
 26 27  1  0  0  0
 28103  1  0  0  0
 28104  1  0  0  0
 29105  1  0  0  0
 29106  1  0  0  0
 33 34  1  0  0  0
 33 66  1  0  0  0
 33 70  2  0  0  0
 34 36  1  0  0  0
 34 59  1  0  0  0
 34107  1  0  0  0
 35 44  2  0  0  0
 35 45  1  0  0  0
 35 68  1  0  0  0
 36 56  1  0  0  0
 36108  1  0  0  0
 37 39  1  0  0  0
 37 47  1  0  0  0
 37 66  1  0  0  0
 37109  1  0  0  0
 38 43  2  0  0  0
 38 46  1  0  0  0
 38 47  1  0  0  0
 39 64  1  0  0  0
 39 67  2  0  0  0
 40 52  1  0  0  0
 40 53  2  0  0  0
 40 58  1  0  0  0
 41110  1  0  0  0
 41111  1  0  0  0
 41112  1  0  0  0
 41 48  1  0  0  0
 42 43  1  0  0  0
 42 66  1  0  0  0
 42113  1  0  0  0
 42114  1  0  0  0
 43 44  1  0  0  0
 44115  1  0  0  0
 45 46  2  0  0  0
 45116  1  0  0  0
 46117  1  0  0  0
 47118  1  0  0  0
 47119  1  0  0  0
 48 56  1  0  0  0
 48 65  1  0  0  0
 48120  1  0  0  0
 49 50  1  0  0  0
 49 53  1  0  0  0
 49 64  1  0  0  0
 49121  1  0  0  0
 50 51  1  0  0  0
 50122  1  0  0  0
 50123  1  0  0  0
 51 52  1  0  0  0
 51124  1  0  0  0
 51125  1  0  0  0
 52126  1  0  0  0
 52127  1  0  0  0
 53 54  1  0  0  0
 54 55  2  0  0  0
 54128  1  0  0  0
 55 57  1  0  0  0
 55129  1  0  0  0
 56 69  2  0  0  0
 57 58  2  0  0  0
 57130  1  0  0  0
 58131  1  0  0  0
 59 60  1  0  0  0
 59 61  1  0  0  0
 59 62  1  0  0  0
 60132  1  0  0  0
 60133  1  0  0  0
 60134  1  0  0  0
 61135  1  0  0  0
 61136  1  0  0  0
 61137  1  0  0  0
 62138  1  0  0  0
 62139  1  0  0  0
 62140  1  0  0  0
 63 65  1  0  0  0
 63141  1  0  0  0
 63142  1  0  0  0
 63143  1  0  0  0
 64144  1  0  0  0
 65145  1  0  0  0
 68 81  1  0  0  0
 71 73  2  0  0  0
 71 75  1  0  0  0
 71146  1  0  0  0
 72 74  1  0  0  0
 72 75  2  0  0  0
 72147  1  0  0  0
 73 76  1  0  0  0
 73 82  1  0  0  0
 74 76  2  0  0  0
 74 83  1  0  0  0
 75 85  1  0  0  0
 76 86  1  0  0  0
 77 79  1  0  0  0
 77 80  1  0  0  0
 77 84  2  0  0  0
 78148  1  0  0  0
 78149  1  0  0  0
 78150  1  0  0  0
 78 81  1  0  0  0
 79 81  1  0  0  0
 79151  1  0  0  0
 79152  1  0  0  0
 80 83  1  0  0  0
 80153  1  0  0  0
 80154  1  0  0  0
 81155  1  0  0  0
 82156  1  0  0  0
 83157  1  0  0  0
M  ISO  4   1 100  68 101  81 101  82 100
M  END
> <chiral flag>
0

> <version>
0

> <s_m_source_file>
/data/baiqing/PycharmProjects/Reinvent-master-3.2/result/LINK_invent/BTK/process_docking_weight1_custom_product_contain_oxygen_bond_distance_aromatic_linkinvent_7_9_3/rearranged_h_0169.sdf

> <i_m_source_file_index>
31

> <r_mmod_Potential_Energy-OPLS-2005>
-17.5891742706299

> <r_mmod_Stretch_Energy-OPLS-2005>
46.200855255127

> <r_mmod_Bend_Energy-OPLS-2005>
120.201095581055

> <r_mmod_Torsional_Energy-OPLS-2005>
204.051086425781

> <r_mmod_Improper_Torsional_Energy-OPLS-2005>
4.59882926940918

> <r_mmod_Van_der_Waal_Energy-OPLS-2005>
149.231567382812

> <r_mmod_Electrostatic_Energy-OPLS-2005>
-342.234008789062

> <r_mmod_Solvation_Energy-OPLS-2005>
-217.493789672852

> <b_mmod_Minimization_Converged-OPLS-2005>
0

> <r_mmod_RMS_Derivative-OPLS-2005>
5.30118656158447

$$$$
31
                    3D
 Structure written by MMmdl.
163172  0  0  1  0            999 V2000
  -30.6662  -14.5383   20.5860 C   0  0  0  0  0  0
  -30.4434  -12.3495   19.4413 C   0  0  0  0  0  0
  -29.5125  -12.5192   18.2204 C   0  0  0  0  0  0
  -28.0311  -12.3707   18.6248 C   0  0  0  0  0  0
  -27.6655  -13.2101   19.8776 C   0  0  2  0  0  0
  -28.7062  -12.9994   21.0017 C   0  0  0  0  0  0
  -25.2621  -13.8169   20.5703 C   0  0  0  0  0  0
  -24.1861  -13.0442   20.9147 C   0  0  0  0  0  0
  -24.6408  -11.6911   20.8701 C   0  0  0  0  0  0
  -23.9056  -10.4308   21.0384 C   0  0  0  0  0  0
  -24.3618   -9.4241   21.9178 C   0  0  0  0  0  0
  -23.6291   -8.2277   22.0768 C   0  0  0  0  0  0
  -22.4279   -8.0295   21.3549 C   0  0  0  0  0  0
  -21.9899   -9.0269   20.4655 C   0  0  0  0  0  0
  -22.7218  -10.2153   20.3055 C   0  0  0  0  0  0
  -21.6870   -6.0725   22.5263 C   0  0  0  0  0  0
  -21.4021   -6.5626   23.8195 C   0  0  0  0  0  0
  -21.3663   -5.6774   24.9154 C   0  0  0  0  0  0
  -21.6053   -4.3036   24.7204 C   0  0  0  0  0  0
  -21.8830   -3.8123   23.4324 C   0  0  0  0  0  0
  -21.9207   -4.6951   22.3386 C   0  0  0  0  0  0
  -22.7881  -13.5269   21.1793 C   0  0  0  0  0  0
  -22.1673   -4.2132   21.0965 F   0  0  0  0  0  0
  -21.5637   -3.4526   25.7717 F   0  0  0  0  0  0
  -30.0398  -13.3312   20.4629 N   0  0  0  0  0  0
  -26.3055  -12.9330   20.3362 N   0  0  0  0  0  0
  -25.9342  -11.6488   20.5731 N   0  0  0  0  0  0
  -22.0497  -12.8325   22.0357 N   0  0  0  0  0  0
  -25.4358  -15.1888   20.4200 N   0  0  0  0  0  0
  -31.7629  -14.7788   20.0719 O   0  0  0  0  0  0
  -21.6658   -6.8877   21.4230 O   0  0  0  0  0  0
  -22.3576  -14.5570   20.6613 O   0  0  0  0  0  0
  -24.6216  -31.8669   23.2086 C   0  0  0  0  0  0
  -25.9094  -32.4808   23.8389 C   0  0  1  0  0  0
  -27.2245  -27.3826   20.0827 C   0  0  0  0  0  0
  -25.5938  -33.8606   24.2335 N   0  0  0  0  0  0
  -23.4075  -30.4955   21.5518 C   0  0  2  0  0  0
  -24.8490  -28.9616   20.1135 C   0  0  0  0  0  0
  -22.7426  -29.4679   22.4970 C   0  0  0  0  0  0
  -18.0291  -28.1382   22.8481 C   0  0  0  0  0  0
  -24.1491  -36.7300   23.2634 C   0  0  0  0  0  0
  -25.9446  -30.8175   21.3675 C   0  0  0  0  0  0
  -26.0177  -29.4497   20.7092 C   0  0  0  0  0  0
  -27.2030  -28.6677   20.6935 C   0  0  0  0  0  0
  -26.0174  -26.9203   19.5015 C   0  0  0  0  0  0
  -24.8465  -27.6973   19.5112 C   0  0  0  0  0  0
  -23.6146  -29.8350   20.1656 C   0  0  0  0  0  0
  -25.4106  -36.3094   24.0340 C   0  0  1  0  0  0
  -20.5883  -28.3689   23.1293 C   0  0  2  0  0  0
  -20.6780  -26.9419   22.5411 C   0  0  0  0  0  0
  -19.5763  -26.6386   21.5207 C   0  0  0  0  0  0
  -18.1935  -26.7930   22.1603 C   0  0  0  0  0  0
  -19.1536  -28.8849   23.2884 C   0  0  0  0  0  0
  -18.9465  -30.1443   23.8913 C   0  0  0  0  0  0
  -17.6466  -30.6585   24.0563 C   0  0  0  0  0  0
  -25.9039  -34.9465   23.5126 C   0  0  0  0  0  0
  -16.5358  -29.9086   23.6324 C   0  0  0  0  0  0
  -16.7275  -28.6497   23.0355 C   0  0  0  0  0  0
  -26.4502  -31.6582   25.0724 C   0  0  0  0  0  0
  -25.3758  -31.3742   26.1478 C   0  0  0  0  0  0
  -27.0316  -30.3002   24.6125 C   0  0  0  0  0  0
  -27.6091  -32.4292   25.7472 C   0  0  0  0  0  0
  -27.5592  -37.1788   24.8453 C   0  0  0  0  0  0
  -21.4149  -29.3054   22.3689 N   0  0  0  0  0  0
  -26.4282  -37.3789   23.9427 N   0  0  0  0  0  0
  -24.6764  -31.0740   22.0998 N   0  0  0  0  0  0
  -23.4172  -28.8219   23.3024 O   0  0  0  0  0  0
  -28.3892  -26.6159   20.1257 O   0  0  0  0  0  0
  -26.5585  -34.8914   22.4681 O   0  0  0  0  0  0
  -23.5389  -32.1441   23.7457 O   0  0  0  0  0  0
  -28.4449  -18.8721   21.3263 C   0  0  0  0  0  0
  -30.7790  -17.7454   20.4149 C   0  0  0  0  0  0
  -29.8513  -16.8939   21.0638 C   0  0  0  0  0  0
  -28.6807  -17.5038   21.5481 C   0  0  0  0  0  0
  -29.3952  -19.6397   20.6273 C   0  0  0  0  0  0
  -29.7666  -21.6944   19.0304 C   0  0  0  0  0  0
  -29.2259  -22.1611   21.4295 C   0  0  0  0  0  0
  -29.2142  -23.0955   18.6429 C   0  0  0  0  0  0
  -28.6518  -23.5651   21.0401 C   0  0  0  0  0  0
  -29.0736  -21.1257   20.2863 C   0  0  2  0  0  0
  -29.2927  -24.1818   19.7608 C   0  0  2  0  0  0
  -31.1077  -25.4397   20.7989 C   0  0  0  0  0  0
  -28.5917  -25.4949   19.2177 C   0  0  0  0  0  0
  -30.5672  -19.0830   20.2207 N   0  0  0  0  0  0
  -29.9704  -15.4712   21.2693 N   0  0  0  0  0  0
  -30.6996  -24.3787   19.9418 O   0  0  0  0  0  0
  -27.7608  -16.7530   22.2023 F   0  0  0  0  0  0
  -31.4854  -12.4736   19.1419 H   0  0  0  0  0  0
  -30.3703  -11.3394   19.8487 H   0  0  0  0  0  0
  -29.7637  -11.7864   17.4527 H   0  0  0  0  0  0
  -29.6752  -13.4986   17.7688 H   0  0  0  0  0  0
  -27.8457  -11.3134   18.8186 H   0  0  0  0  0  0
  -27.3885  -12.6436   17.7874 H   0  0  0  0  0  0
  -27.7028  -14.2575   19.5782 H   0  0  0  0  0  0
  -28.6986  -11.9620   21.3364 H   0  0  0  0  0  0
  -28.4433  -13.5854   21.8830 H   0  0  0  0  0  0
  -25.2780   -9.5725   22.4727 H   0  0  0  0  0  0
  -24.0009   -7.4691   22.7520 H   0  0  0  0  0  0
  -21.0817   -8.8793   19.8971 H   0  0  0  0  0  0
  -22.3682  -10.9695   19.6158 H   0  0  0  0  0  0
  -21.2010   -7.6134   23.9699 H   0  0  0  0  0  0
  -21.1473   -6.0492   25.9056 H   0  0  0  0  0  0
  -22.0606   -2.7579   23.2832 H   0  0  0  0  0  0
  -22.4043  -11.9964   22.4761 H   0  0  0  0  0  0
  -21.1137  -13.1453   22.2544 H   0  0  0  0  0  0
  -24.6826  -15.8508   20.5660 H   0  0  0  0  0  0
  -26.3152  -15.6336   20.1895 H   0  0  0  0  0  0
  -26.7174  -32.5514   23.1156 H   0  0  0  0  0  0
  -25.0126  -33.9769   25.0499 H   0  0  0  0  0  0
  -22.6979  -31.3146   21.4160 H   0  0  0  0  0  0
  -23.3756  -35.9626   23.3260 H   0  0  0  0  0  0
  -24.3602  -36.8943   22.2055 H   0  0  0  0  0  0
  -23.7214  -37.6481   23.6665 H   0  0  0  0  0  0
  -26.0669  -31.5847   20.6007 H   0  0  0  0  0  0
  -26.8296  -30.8662   21.9907 H   0  0  0  0  0  0
  -28.1017  -29.0433   21.1629 H   0  0  0  0  0  0
  -25.9048  -25.9458   19.0589 H   0  0  0  0  0  0
  -23.9408  -27.3073   19.0681 H   0  0  0  0  0  0
  -23.7255  -30.6145   19.4115 H   0  0  0  0  0  0
  -22.7338  -29.2651   19.8646 H   0  0  0  0  0  0
  -25.1266  -36.1958   25.0827 H   0  0  0  0  0  0
  -20.9973  -28.3284   24.1414 H   0  0  0  0  0  0
  -20.5692  -26.2302   23.3604 H   0  0  0  0  0  0
  -21.6651  -26.7467   22.1209 H   0  0  0  0  0  0
  -19.6929  -25.6300   21.1230 H   0  0  0  0  0  0
  -19.6707  -27.3196   20.6740 H   0  0  0  0  0  0
  -17.4209  -26.6699   21.4002 H   0  0  0  0  0  0
  -18.0323  -26.0072   22.8993 H   0  0  0  0  0  0
  -19.7941  -30.7254   24.2297 H   0  0  0  0  0  0
  -17.5025  -31.6273   24.5154 H   0  0  0  0  0  0
  -15.5355  -30.2995   23.7648 H   0  0  0  0  0  0
  -15.8673  -28.0815   22.7080 H   0  0  0  0  0  0
  -24.5926  -30.7075   25.7843 H   0  0  0  0  0  0
  -24.8967  -32.2931   26.4876 H   0  0  0  0  0  0
  -25.8119  -30.8957   27.0257 H   0  0  0  0  0  0
  -26.2861  -29.6748   24.1193 H   0  0  0  0  0  0
  -27.4076  -29.7254   25.4599 H   0  0  0  0  0  0
  -27.8708  -30.4286   23.9282 H   0  0  0  0  0  0
  -27.2735  -33.3613   26.2033 H   0  0  0  0  0  0
  -28.3910  -32.6806   25.0288 H   0  0  0  0  0  0
  -28.0731  -31.8404   26.5395 H   0  0  0  0  0  0
  -28.2577  -38.0118   24.7545 H   0  0  0  0  0  0
  -28.1118  -36.2655   24.6203 H   0  0  0  0  0  0
  -27.2331  -37.1336   25.8857 H   0  0  0  0  0  0
  -20.9309  -29.8763   21.6904 H   0  0  0  0  0  0
  -26.0167  -38.2856   24.1459 H   0  0  0  0  0  0
  -27.5233  -19.3155   21.6719 H   0  0  0  0  0  0
  -31.7109  -17.3605   20.0310 H   0  0  0  0  0  0
  -30.8422  -21.7530   19.1983 H   0  0  0  0  0  0
  -29.6201  -21.0107   18.1927 H   0  0  0  0  0  0
  -28.6934  -21.8025   22.3092 H   0  0  0  0  0  0
  -30.2734  -22.2485   21.7189 H   0  0  0  0  0  0
  -28.1727  -22.9665   18.3427 H   0  0  0  0  0  0
  -29.7324  -23.4486   17.7504 H   0  0  0  0  0  0
  -28.7412  -24.2488   21.8843 H   0  0  0  0  0  0
  -27.5770  -23.4677   20.8758 H   0  0  0  0  0  0
  -28.0098  -21.0995   20.0468 H   0  0  0  0  0  0
  -32.1890  -25.3980   20.9277 H   0  0  0  0  0  0
  -30.6619  -25.3743   21.7910 H   0  0  0  0  0  0
  -30.8772  -26.4165   20.3744 H   0  0  0  0  0  0
  -27.6790  -25.1633   18.7407 H   0  0  0  0  0  0
  -29.1834  -25.8823   18.3869 H   0  0  0  0  0  0
  -29.1823  -15.0805   21.7650 H   0  0  0  0  0  0
  1 25  1  0  0  0
  1 30  2  0  0  0
  1 85  1  0  0  0
  2  3  1  0  0  0
  2 25  1  0  0  0
  2 88  1  0  0  0
  2 89  1  0  0  0
  3  4  1  0  0  0
  3 90  1  0  0  0
  3 91  1  0  0  0
  4  5  1  0  0  0
  4 92  1  0  0  0
  4 93  1  0  0  0
  5  6  1  0  0  0
  5 26  1  0  0  0
  5 94  1  0  0  0
  6 25  1  0  0  0
  6 95  1  0  0  0
  6 96  1  0  0  0
  7  8  2  0  0  0
  7 26  1  0  0  0
  7 29  1  0  0  0
  8  9  1  0  0  0
  8 22  1  0  0  0
  9 10  1  0  0  0
  9 27  2  0  0  0
 10 11  2  0  0  0
 10 15  1  0  0  0
 11 12  1  0  0  0
 11 97  1  0  0  0
 12 13  2  0  0  0
 12 98  1  0  0  0
 13 14  1  0  0  0
 13 31  1  0  0  0
 14 15  2  0  0  0
 14 99  1  0  0  0
 15100  1  0  0  0
 16 17  2  0  0  0
 16 21  1  0  0  0
 16 31  1  0  0  0
 17 18  1  0  0  0
 17101  1  0  0  0
 18 19  2  0  0  0
 18102  1  0  0  0
 19 20  1  0  0  0
 19 24  1  0  0  0
 20 21  2  0  0  0
 20103  1  0  0  0
 21 23  1  0  0  0
 22 28  1  0  0  0
 22 32  2  0  0  0
 26 27  1  0  0  0
 28104  1  0  0  0
 28105  1  0  0  0
 29106  1  0  0  0
 29107  1  0  0  0
 33 34  1  0  0  0
 33 66  1  0  0  0
 33 70  2  0  0  0
 34 36  1  0  0  0
 34 59  1  0  0  0
 34108  1  0  0  0
 35 44  2  0  0  0
 35 45  1  0  0  0
 35 68  1  0  0  0
 36 56  1  0  0  0
 36109  1  0  0  0
 37 39  1  0  0  0
 37 47  1  0  0  0
 37 66  1  0  0  0
 37110  1  0  0  0
 38 43  2  0  0  0
 38 46  1  0  0  0
 38 47  1  0  0  0
 39 64  1  0  0  0
 39 67  2  0  0  0
 40 52  1  0  0  0
 40 53  2  0  0  0
 40 58  1  0  0  0
 41111  1  0  0  0
 41112  1  0  0  0
 41113  1  0  0  0
 41 48  1  0  0  0
 42 43  1  0  0  0
 42 66  1  0  0  0
 42114  1  0  0  0
 42115  1  0  0  0
 43 44  1  0  0  0
 44116  1  0  0  0
 45 46  2  0  0  0
 45117  1  0  0  0
 46118  1  0  0  0
 47119  1  0  0  0
 47120  1  0  0  0
 48 56  1  0  0  0
 48 65  1  0  0  0
 48121  1  0  0  0
 49 50  1  0  0  0
 49 53  1  0  0  0
 49 64  1  0  0  0
 49122  1  0  0  0
 50 51  1  0  0  0
 50123  1  0  0  0
 50124  1  0  0  0
 51 52  1  0  0  0
 51125  1  0  0  0
 51126  1  0  0  0
 52127  1  0  0  0
 52128  1  0  0  0
 53 54  1  0  0  0
 54 55  2  0  0  0
 54129  1  0  0  0
 55 57  1  0  0  0
 55130  1  0  0  0
 56 69  2  0  0  0
 57 58  2  0  0  0
 57131  1  0  0  0
 58132  1  0  0  0
 59 60  1  0  0  0
 59 61  1  0  0  0
 59 62  1  0  0  0
 60133  1  0  0  0
 60134  1  0  0  0
 60135  1  0  0  0
 61136  1  0  0  0
 61137  1  0  0  0
 61138  1  0  0  0
 62139  1  0  0  0
 62140  1  0  0  0
 62141  1  0  0  0
 63 65  1  0  0  0
 63142  1  0  0  0
 63143  1  0  0  0
 63144  1  0  0  0
 64145  1  0  0  0
 65146  1  0  0  0
 68 83  1  0  0  0
 71 74  2  0  0  0
 71 75  1  0  0  0
 71147  1  0  0  0
 72 73  2  0  0  0
 72 84  1  0  0  0
 72148  1  0  0  0
 73 74  1  0  0  0
 73 85  1  0  0  0
 74 87  1  0  0  0
 75 84  2  0  0  0
 75 80  1  0  0  0
 76 78  1  0  0  0
 76 80  1  0  0  0
 76149  1  0  0  0
 76150  1  0  0  0
 77 79  1  0  0  0
 77 80  1  0  0  0
 77151  1  0  0  0
 77152  1  0  0  0
 78 81  1  0  0  0
 78153  1  0  0  0
 78154  1  0  0  0
 79 81  1  0  0  0
 79155  1  0  0  0
 79156  1  0  0  0
 80157  1  0  0  0
 81 83  1  0  0  0
 81 86  1  0  0  0
 82 86  1  0  0  0
 82158  1  0  0  0
 82159  1  0  0  0
 82160  1  0  0  0
 83161  1  0  0  0
 83162  1  0  0  0
 85163  1  0  0  0
M  ISO  4   1 100  68 101  83 101  85 100
M  END
> <chiral flag>
0

> <version>
0

> <s_m_source_file>
/data/baiqing/PycharmProjects/Reinvent-master-3.2/result/LINK_invent/BTK/process_docking_weight1_custom_product_contain_oxygen_bond_distance_aromatic_linkinvent_7_9_3/rearranged_h_0169.sdf

> <i_m_source_file_index>
32

> <r_mmod_Potential_Energy-OPLS-2005>
-214.487487792969

> <r_mmod_Stretch_Energy-OPLS-2005>
55.3881378173828

> <r_mmod_Bend_Energy-OPLS-2005>
145.364807128906

> <r_mmod_Torsional_Energy-OPLS-2005>
235.126251220703

> <r_mmod_Improper_Torsional_Energy-OPLS-2005>
3.70146656036377

> <r_mmod_Van_der_Waal_Energy-OPLS-2005>
158.570999145508

> <r_mmod_Electrostatic_Energy-OPLS-2005>
-623.308837890625

> <r_mmod_Solvation_Energy-OPLS-2005>
-212.117492675781

> <b_mmod_Minimization_Converged-OPLS-2005>
0

> <r_mmod_RMS_Derivative-OPLS-2005>
2.6922082901001

$$$$
32
                    3D
 Structure written by MMmdl.
160168  0  0  1  0            999 V2000
  -30.7349  -14.4220   20.6293 C   0  0  0  0  0  0
  -30.4163  -12.2989   19.4103 C   0  0  0  0  0  0
  -29.4878  -12.5108   18.1995 C   0  0  0  0  0  0
  -28.0113  -12.3672   18.6157 C   0  0  0  0  0  0
  -27.6619  -13.2027   19.8761 C   0  0  2  0  0  0
  -28.7012  -12.9712   20.9953 C   0  0  0  0  0  0
  -25.2593  -13.8155   20.5673 C   0  0  0  0  0  0
  -24.1840  -13.0439   20.9178 C   0  0  0  0  0  0
  -24.6384  -11.6904   20.8735 C   0  0  0  0  0  0
  -23.9052  -10.4294   21.0409 C   0  0  0  0  0  0
  -24.3607   -9.4210   21.9189 C   0  0  0  0  0  0
  -23.6286   -8.2243   22.0758 C   0  0  0  0  0  0
  -22.4273   -8.0280   21.3542 C   0  0  0  0  0  0
  -21.9906   -9.0255   20.4645 C   0  0  0  0  0  0
  -22.7228  -10.2137   20.3056 C   0  0  0  0  0  0
  -21.6851   -6.0737   22.5280 C   0  0  0  0  0  0
  -21.4009   -6.5641   23.8213 C   0  0  0  0  0  0
  -21.3656   -5.6793   24.9176 C   0  0  0  0  0  0
  -21.6046   -4.3057   24.7226 C   0  0  0  0  0  0
  -21.8820   -3.8150   23.4347 C   0  0  0  0  0  0
  -21.9192   -4.6965   22.3404 C   0  0  0  0  0  0
  -22.7867  -13.5245   21.1846 C   0  0  0  0  0  0
  -22.1665   -4.2149   21.0979 F   0  0  0  0  0  0
  -21.5630   -3.4540   25.7739 F   0  0  0  0  0  0
  -30.0339  -13.2722   20.4445 N   0  0  0  0  0  0
  -26.3021  -12.9315   20.3365 N   0  0  0  0  0  0
  -25.9306  -11.6480   20.5762 N   0  0  0  0  0  0
  -22.0506  -12.8233   22.0394 N   0  0  0  0  0  0
  -25.4330  -15.1870   20.4069 N   0  0  0  0  0  0
  -31.8306  -14.6266   20.0974 O   0  0  0  0  0  0
  -21.6638   -6.8877   21.4238 O   0  0  0  0  0  0
  -22.3564  -14.5564   20.6706 O   0  0  0  0  0  0
  -24.6127  -31.8690   23.2118 C   0  0  0  0  0  0
  -25.9027  -32.4829   23.8406 C   0  0  1  0  0  0
  -27.2324  -27.4531   20.0985 C   0  0  0  0  0  0
  -25.5888  -33.8625   24.2339 N   0  0  0  0  0  0
  -23.3997  -30.4921   21.5522 C   0  0  2  0  0  0
  -24.8460  -28.9583   20.1176 C   0  0  0  0  0  0
  -22.7401  -29.4658   22.5008 C   0  0  0  0  0  0
  -18.0268  -28.1379   22.8490 C   0  0  0  0  0  0
  -24.1478  -36.7314   23.2645 C   0  0  0  0  0  0
  -25.9259  -30.8422   21.3596 C   0  0  0  0  0  0
  -26.0053  -29.4769   20.7089 C   0  0  0  0  0  0
  -27.2052  -28.7327   20.6925 C   0  0  0  0  0  0
  -26.0604  -26.9437   19.5002 C   0  0  0  0  0  0
  -24.8672  -27.6902   19.5099 C   0  0  0  0  0  0
  -23.6063  -29.8223   20.1675 C   0  0  0  0  0  0
  -25.4102  -36.3113   24.0344 C   0  0  1  0  0  0
  -20.5857  -28.3658   23.1332 C   0  0  2  0  0  0
  -20.6744  -26.9391   22.5442 C   0  0  0  0  0  0
  -19.5739  -26.6380   21.5217 C   0  0  0  0  0  0
  -18.1908  -26.7936   22.1601 C   0  0  0  0  0  0
  -19.1518  -28.8837   23.2903 C   0  0  0  0  0  0
  -18.9445  -30.1444   23.8913 C   0  0  0  0  0  0
  -17.6449  -30.6582   24.0569 C   0  0  0  0  0  0
  -25.9029  -34.9476   23.5138 C   0  0  0  0  0  0
  -16.5340  -29.9084   23.6332 C   0  0  0  0  0  0
  -16.7257  -28.6502   23.0351 C   0  0  0  0  0  0
  -26.4464  -31.6605   25.0726 C   0  0  0  0  0  0
  -25.3739  -31.3682   26.1481 C   0  0  0  0  0  0
  -27.0316  -30.3065   24.6081 C   0  0  0  0  0  0
  -27.6048  -32.4331   25.7475 C   0  0  0  0  0  0
  -27.5582  -37.1802   24.8461 C   0  0  0  0  0  0
  -21.4133  -29.3020   22.3740 N   0  0  0  0  0  0
  -26.4288  -37.3796   23.9417 N   0  0  0  0  0  0
  -24.6644  -31.0816   22.1002 N   0  0  0  0  0  0
  -23.4186  -28.8210   23.3048 O   0  0  0  0  0  0
  -28.3935  -26.7207   20.0880 O   0  0  0  0  0  0
  -26.5595  -34.8924   22.4702 O   0  0  0  0  0  0
  -23.5322  -32.1423   23.7527 O   0  0  0  0  0  0
  -32.4656  -17.8938   22.8109 C   0  0  0  0  0  0
  -31.9436  -16.6721   22.3550 C   0  0  0  0  0  0
  -29.9074  -17.8073   21.6610 C   0  0  0  0  0  0
  -31.7361  -19.1007   22.6869 C   0  0  0  0  0  0
  -30.6622  -16.6170   21.7700 C   0  0  0  0  0  0
  -30.4391  -19.0547   22.0876 C   0  0  0  0  0  0
  -32.3509  -20.3702   23.2127 C   0  0  0  0  0  0
  -28.5232  -22.1554   21.0712 C   0  0  0  0  0  0
  -28.9419  -20.6756   20.9120 C   0  0  0  0  0  0
  -29.1252  -24.3863   20.0151 C   0  0  0  0  0  0
  -33.8608  -20.3962   23.4295 C   0  0  0  0  0  0
  -29.6288  -23.1917   20.8295 C   0  0  0  0  0  0
  -28.2933  -25.4497   20.7456 C   0  0  0  0  0  0
  -29.6805  -20.2572   21.9531 N   0  0  0  0  0  0
  -30.1096  -15.3753   21.3453 N   0  0  0  0  0  0
  -31.7091  -21.3981   23.4558 O   0  0  0  0  0  0
  -27.3818  -22.4770   21.4240 O   0  0  0  0  0  0
  -28.6007  -19.9880   19.9439 O   0  0  0  0  0  0
  -29.4100  -24.5000   18.8171 O   0  0  0  0  0  0
  -31.4606  -12.3940   19.1070 H   0  0  0  0  0  0
  -30.3129  -11.2850   19.7999 H   0  0  0  0  0  0
  -29.7256  -11.7941   17.4122 H   0  0  0  0  0  0
  -29.6563  -13.5014   17.7731 H   0  0  0  0  0  0
  -27.8234  -11.3108   18.8102 H   0  0  0  0  0  0
  -27.3576  -12.6435   17.7875 H   0  0  0  0  0  0
  -27.7119  -14.2524   19.5864 H   0  0  0  0  0  0
  -28.6736  -11.9329   21.3301 H   0  0  0  0  0  0
  -28.4572  -13.5624   21.8786 H   0  0  0  0  0  0
  -25.2751   -9.5695   22.4763 H   0  0  0  0  0  0
  -24.0000   -7.4640   22.7477 H   0  0  0  0  0  0
  -21.0843   -8.8769   19.8946 H   0  0  0  0  0  0
  -22.3686  -10.9677   19.6167 H   0  0  0  0  0  0
  -21.1999   -7.6147   23.9713 H   0  0  0  0  0  0
  -21.1477   -6.0526   25.9078 H   0  0  0  0  0  0
  -22.0601   -2.7612   23.2849 H   0  0  0  0  0  0
  -22.4109  -11.9869   22.4748 H   0  0  0  0  0  0
  -21.1128  -13.1266   22.2612 H   0  0  0  0  0  0
  -24.6668  -15.8437   20.5085 H   0  0  0  0  0  0
  -26.2856  -15.6214   20.0766 H   0  0  0  0  0  0
  -26.7104  -32.5555   23.1181 H   0  0  0  0  0  0
  -25.0045  -33.9786   25.0488 H   0  0  0  0  0  0
  -22.6864  -31.3073   21.4140 H   0  0  0  0  0  0
  -23.3742  -35.9645   23.3308 H   0  0  0  0  0  0
  -24.3567  -36.8930   22.2060 H   0  0  0  0  0  0
  -23.7225  -37.6514   23.6663 H   0  0  0  0  0  0
  -26.0318  -31.6087   20.5900 H   0  0  0  0  0  0
  -26.8165  -30.8991   21.9738 H   0  0  0  0  0  0
  -28.1038  -29.1291   21.1443 H   0  0  0  0  0  0
  -26.0698  -25.9740   19.0226 H   0  0  0  0  0  0
  -23.9761  -27.2861   19.0498 H   0  0  0  0  0  0
  -23.7103  -30.5950   19.4047 H   0  0  0  0  0  0
  -22.7310  -29.2387   19.8762 H   0  0  0  0  0  0
  -25.1271  -36.1981   25.0835 H   0  0  0  0  0  0
  -20.9945  -28.3230   24.1454 H   0  0  0  0  0  0
  -20.5624  -26.2265   23.3627 H   0  0  0  0  0  0
  -21.6620  -26.7426   22.1256 H   0  0  0  0  0  0
  -19.6892  -25.6296   21.1234 H   0  0  0  0  0  0
  -19.6700  -27.3192   20.6754 H   0  0  0  0  0  0
  -17.4202  -26.6745   21.3969 H   0  0  0  0  0  0
  -18.0253  -26.0059   22.8965 H   0  0  0  0  0  0
  -19.7920  -30.7249   24.2291 H   0  0  0  0  0  0
  -17.5008  -31.6261   24.5179 H   0  0  0  0  0  0
  -15.5340  -30.2991   23.7656 H   0  0  0  0  0  0
  -15.8656  -28.0829   22.7061 H   0  0  0  0  0  0
  -24.5972  -30.6952   25.7835 H   0  0  0  0  0  0
  -24.8848  -32.2811   26.4887 H   0  0  0  0  0  0
  -25.8120  -30.8922   27.0264 H   0  0  0  0  0  0
  -26.2854  -29.6798   24.1190 H   0  0  0  0  0  0
  -27.4170  -29.7325   25.4519 H   0  0  0  0  0  0
  -27.8639  -30.4414   23.9172 H   0  0  0  0  0  0
  -27.2669  -33.3602   26.2117 H   0  0  0  0  0  0
  -28.3806  -32.6946   25.0267 H   0  0  0  0  0  0
  -28.0784  -31.8430   26.5329 H   0  0  0  0  0  0
  -28.2607  -38.0094   24.7513 H   0  0  0  0  0  0
  -28.1068  -36.2628   24.6272 H   0  0  0  0  0  0
  -27.2308  -37.1445   25.8866 H   0  0  0  0  0  0
  -20.9295  -29.8742   21.6965 H   0  0  0  0  0  0
  -26.0179  -38.2871   24.1440 H   0  0  0  0  0  0
  -33.4440  -17.8763   23.2688 H   0  0  0  0  0  0
  -32.5358  -15.7746   22.4738 H   0  0  0  0  0  0
  -28.9151  -17.7631   21.2348 H   0  0  0  0  0  0
  -34.1277  -19.8262   24.3192 H   0  0  0  0  0  0
  -34.2042  -21.4212   23.5633 H   0  0  0  0  0  0
  -34.3784  -19.9738   22.5682 H   0  0  0  0  0  0
  -30.4629  -22.7268   20.3053 H   0  0  0  0  0  0
  -30.0061  -23.5415   21.7896 H   0  0  0  0  0  0
  -28.6542  -25.5518   21.7688 H   0  0  0  0  0  0
  -27.2638  -25.0968   20.8085 H   0  0  0  0  0  0
  -29.9016  -20.9848   22.6249 H   0  0  0  0  0  0
  -29.1446  -15.1950   21.5769 H   0  0  0  0  0  0
  1 25  1  0  0  0
  1 30  2  0  0  0
  1 85  1  0  0  0
  2  3  1  0  0  0
  2 25  1  0  0  0
  2 90  1  0  0  0
  2 91  1  0  0  0
  3  4  1  0  0  0
  3 92  1  0  0  0
  3 93  1  0  0  0
  4  5  1  0  0  0
  4 94  1  0  0  0
  4 95  1  0  0  0
  5  6  1  0  0  0
  5 26  1  0  0  0
  5 96  1  0  0  0
  6 25  1  0  0  0
  6 97  1  0  0  0
  6 98  1  0  0  0
  7  8  2  0  0  0
  7 26  1  0  0  0
  7 29  1  0  0  0
  8  9  1  0  0  0
  8 22  1  0  0  0
  9 10  1  0  0  0
  9 27  2  0  0  0
 10 11  2  0  0  0
 10 15  1  0  0  0
 11 12  1  0  0  0
 11 99  1  0  0  0
 12 13  2  0  0  0
 12100  1  0  0  0
 13 14  1  0  0  0
 13 31  1  0  0  0
 14 15  2  0  0  0
 14101  1  0  0  0
 15102  1  0  0  0
 16 17  2  0  0  0
 16 21  1  0  0  0
 16 31  1  0  0  0
 17 18  1  0  0  0
 17103  1  0  0  0
 18 19  2  0  0  0
 18104  1  0  0  0
 19 20  1  0  0  0
 19 24  1  0  0  0
 20 21  2  0  0  0
 20105  1  0  0  0
 21 23  1  0  0  0
 22 28  1  0  0  0
 22 32  2  0  0  0
 26 27  1  0  0  0
 28106  1  0  0  0
 28107  1  0  0  0
 29108  1  0  0  0
 29109  1  0  0  0
 33 34  1  0  0  0
 33 66  1  0  0  0
 33 70  2  0  0  0
 34 36  1  0  0  0
 34 59  1  0  0  0
 34110  1  0  0  0
 35 44  2  0  0  0
 35 45  1  0  0  0
 35 68  1  0  0  0
 36 56  1  0  0  0
 36111  1  0  0  0
 37 39  1  0  0  0
 37 47  1  0  0  0
 37 66  1  0  0  0
 37112  1  0  0  0
 38 43  2  0  0  0
 38 46  1  0  0  0
 38 47  1  0  0  0
 39 64  1  0  0  0
 39 67  2  0  0  0
 40 52  1  0  0  0
 40 53  2  0  0  0
 40 58  1  0  0  0
 41113  1  0  0  0
 41114  1  0  0  0
 41115  1  0  0  0
 41 48  1  0  0  0
 42 43  1  0  0  0
 42 66  1  0  0  0
 42116  1  0  0  0
 42117  1  0  0  0
 43 44  1  0  0  0
 44118  1  0  0  0
 45 46  2  0  0  0
 45119  1  0  0  0
 46120  1  0  0  0
 47121  1  0  0  0
 47122  1  0  0  0
 48 56  1  0  0  0
 48 65  1  0  0  0
 48123  1  0  0  0
 49 50  1  0  0  0
 49 53  1  0  0  0
 49 64  1  0  0  0
 49124  1  0  0  0
 50 51  1  0  0  0
 50125  1  0  0  0
 50126  1  0  0  0
 51 52  1  0  0  0
 51127  1  0  0  0
 51128  1  0  0  0
 52129  1  0  0  0
 52130  1  0  0  0
 53 54  1  0  0  0
 54 55  2  0  0  0
 54131  1  0  0  0
 55 57  1  0  0  0
 55132  1  0  0  0
 56 69  2  0  0  0
 57 58  2  0  0  0
 57133  1  0  0  0
 58134  1  0  0  0
 59 60  1  0  0  0
 59 61  1  0  0  0
 59 62  1  0  0  0
 60135  1  0  0  0
 60136  1  0  0  0
 60137  1  0  0  0
 61138  1  0  0  0
 61139  1  0  0  0
 61140  1  0  0  0
 62141  1  0  0  0
 62142  1  0  0  0
 62143  1  0  0  0
 63 65  1  0  0  0
 63144  1  0  0  0
 63145  1  0  0  0
 63146  1  0  0  0
 64147  1  0  0  0
 65148  1  0  0  0
 68 83  1  0  0  0
 71 72  2  0  0  0
 71 74  1  0  0  0
 71149  1  0  0  0
 72 75  1  0  0  0
 72150  1  0  0  0
 73 75  2  0  0  0
 73 76  1  0  0  0
 73151  1  0  0  0
 74 76  2  0  0  0
 74 77  1  0  0  0
 75 85  1  0  0  0
 76 84  1  0  0  0
 77 81  1  0  0  0
 77 86  2  0  0  0
 78 79  1  0  0  0
 78 82  1  0  0  0
 78 87  2  0  0  0
 79 84  1  0  0  0
 79 88  2  0  0  0
 80 82  1  0  0  0
 80 83  1  0  0  0
 80 89  2  0  0  0
 81152  1  0  0  0
 81153  1  0  0  0
 81154  1  0  0  0
 82155  1  0  0  0
 82156  1  0  0  0
 83157  1  0  0  0
 83158  1  0  0  0
 84159  1  0  0  0
 85160  1  0  0  0
M  ISO  4   1 100  68 101  83 101  85 100
M  END
> <chiral flag>
0

> <version>
0

> <s_m_source_file>
/data/baiqing/PycharmProjects/Reinvent-master-3.2/result/LINK_invent/BTK/process_docking_weight1_custom_product_contain_oxygen_bond_distance_aromatic_linkinvent_7_9_3/rearranged_h_0169.sdf

> <i_m_source_file_index>
33

> <r_mmod_Potential_Energy-OPLS-2005>
-39.515323638916

> <r_mmod_Stretch_Energy-OPLS-2005>
38.1438140869141

> <r_mmod_Bend_Energy-OPLS-2005>
94.3977584838867

> <r_mmod_Torsional_Energy-OPLS-2005>
298.754486083984

> <r_mmod_Improper_Torsional_Energy-OPLS-2005>
3.54401636123657

> <r_mmod_Van_der_Waal_Energy-OPLS-2005>
162.651336669922

> <r_mmod_Electrostatic_Energy-OPLS-2005>
-384.973114013672

> <r_mmod_Solvation_Energy-OPLS-2005>
-260.995513916016

> <b_mmod_Minimization_Converged-OPLS-2005>
0

> <r_mmod_RMS_Derivative-OPLS-2005>
0.898670017719269

$$$$
33
                    3D
 Structure written by MMmdl.
163172  0  0  1  0            999 V2000
  -30.6012  -14.6595   20.5027 C   0  0  0  0  0  0
  -30.4459  -12.4079   19.4421 C   0  0  0  0  0  0
  -29.5085  -12.5135   18.2171 C   0  0  0  0  0  0
  -28.0291  -12.3574   18.6269 C   0  0  0  0  0  0
  -27.6559  -13.2159   19.8634 C   0  0  2  0  0  0
  -28.7044  -13.0568   20.9874 C   0  0  0  0  0  0
  -25.2606  -13.8172   20.5693 C   0  0  0  0  0  0
  -24.1855  -13.0455   20.9185 C   0  0  0  0  0  0
  -24.6408  -11.6920   20.8733 C   0  0  0  0  0  0
  -23.9059  -10.4315   21.0406 C   0  0  0  0  0  0
  -24.3611   -9.4236   21.9186 C   0  0  0  0  0  0
  -23.6296   -8.2261   22.0751 C   0  0  0  0  0  0
  -22.4279   -8.0292   21.3543 C   0  0  0  0  0  0
  -21.9914   -9.0264   20.4649 C   0  0  0  0  0  0
  -22.7230  -10.2151   20.3057 C   0  0  0  0  0  0
  -21.6862   -6.0740   22.5275 C   0  0  0  0  0  0
  -21.4023   -6.5642   23.8208 C   0  0  0  0  0  0
  -21.3658   -5.6793   24.9170 C   0  0  0  0  0  0
  -21.6037   -4.3052   24.7222 C   0  0  0  0  0  0
  -21.8825   -3.8146   23.4343 C   0  0  0  0  0  0
  -21.9205   -4.6966   22.3401 C   0  0  0  0  0  0
  -22.7880  -13.5266   21.1839 C   0  0  0  0  0  0
  -22.1669   -4.2155   21.0978 F   0  0  0  0  0  0
  -21.5626   -3.4535   25.7734 F   0  0  0  0  0  0
  -30.0164  -13.4200   20.4270 N   0  0  0  0  0  0
  -26.3014  -12.9339   20.3316 N   0  0  0  0  0  0
  -25.9338  -11.6495   20.5736 N   0  0  0  0  0  0
  -22.0498  -12.8275   22.0390 N   0  0  0  0  0  0
  -25.4382  -15.1892   20.4136 N   0  0  0  0  0  0
  -31.7547  -14.8583   20.1103 O   0  0  0  0  0  0
  -21.6646   -6.8887   21.4238 O   0  0  0  0  0  0
  -22.3571  -14.5566   20.6677 O   0  0  0  0  0  0
  -24.6280  -31.8589   23.2007 C   0  0  0  0  0  0
  -25.9122  -32.4773   23.8345 C   0  0  1  0  0  0
  -27.2224  -27.3114   20.1181 C   0  0  0  0  0  0
  -25.5931  -33.8577   24.2274 N   0  0  0  0  0  0
  -23.4229  -30.4815   21.5443 C   0  0  2  0  0  0
  -24.8704  -28.9341   20.1112 C   0  0  0  0  0  0
  -22.7485  -29.4618   22.4931 C   0  0  0  0  0  0
  -18.0296  -28.1383   22.8494 C   0  0  0  0  0  0
  -24.1489  -36.7290   23.2639 C   0  0  0  0  0  0
  -25.9651  -30.7869   21.3739 C   0  0  0  0  0  0
  -26.0409  -29.4136   20.7150 C   0  0  0  0  0  0
  -27.2244  -28.6142   20.7085 C   0  0  0  0  0  0
  -26.0354  -26.8890   19.4843 C   0  0  0  0  0  0
  -24.8696  -27.6782   19.4847 C   0  0  0  0  0  0
  -23.6390  -29.8159   20.1603 C   0  0  0  0  0  0
  -25.4116  -36.3080   24.0329 C   0  0  1  0  0  0
  -20.5898  -28.3699   23.1292 C   0  0  2  0  0  0
  -20.6785  -26.9419   22.5419 C   0  0  0  0  0  0
  -19.5765  -26.6370   21.5218 C   0  0  0  0  0  0
  -18.1941  -26.7930   22.1626 C   0  0  0  0  0  0
  -19.1548  -28.8854   23.2889 C   0  0  0  0  0  0
  -18.9471  -30.1456   23.8905 C   0  0  0  0  0  0
  -17.6472  -30.6591   24.0572 C   0  0  0  0  0  0
  -25.9052  -34.9449   23.5102 C   0  0  0  0  0  0
  -16.5363  -29.9093   23.6336 C   0  0  0  0  0  0
  -16.7285  -28.6509   23.0358 C   0  0  0  0  0  0
  -26.4506  -31.6581   25.0719 C   0  0  0  0  0  0
  -25.3736  -31.3715   26.1438 C   0  0  0  0  0  0
  -27.0353  -30.3002   24.6181 C   0  0  0  0  0  0
  -27.6061  -32.4317   25.7496 C   0  0  0  0  0  0
  -27.5579  -37.1803   24.8468 C   0  0  0  0  0  0
  -21.4193  -29.3064   22.3691 N   0  0  0  0  0  0
  -26.4293  -37.3772   23.9406 N   0  0  0  0  0  0
  -24.6907  -31.0587   22.0962 N   0  0  0  0  0  0
  -23.4202  -28.8138   23.2997 O   0  0  0  0  0  0
  -28.3033  -26.4179   20.1509 O   0  0  0  0  0  0
  -26.5624  -34.8919   22.4665 O   0  0  0  0  0  0
  -23.5436  -32.1388   23.7319 O   0  0  0  0  0  0
  -29.0985  -17.7624   19.6476 C   0  0  0  0  0  0
  -30.2547  -18.0190   21.7007 C   0  0  0  0  0  0
  -28.7809  -19.1609   19.6729 C   0  0  0  0  0  0
  -29.7921  -17.1291   20.7078 C   0  0  0  0  0  0
  -29.1302  -19.9434   20.8187 C   0  0  0  0  0  0
  -28.6235  -23.7592   20.2844 C   0  0  0  0  0  0
  -25.5043  -21.5570   21.0862 C   0  0  0  0  0  0
  -26.1576  -20.3480   21.7789 C   0  0  0  0  0  0
  -26.4644  -22.2521   20.1036 C   0  0  0  0  0  0
  -27.5438  -20.6887   22.3743 C   0  0  0  0  0  0
  -27.8635  -22.4279   20.7436 C   0  0  1  0  0  0
  -28.0008  -25.1262   20.8216 C   0  0  0  0  0  0
  -27.9957  -19.7165   18.4987 C   0  0  0  0  0  0
  -29.9493  -19.3520   21.7403 N   0  0  0  0  0  0
  -28.4786  -21.1489   21.3193 N   0  0  0  0  0  0
  -29.7697  -15.6739   20.8962 N   0  0  0  0  0  0
  -29.6233  -23.7557   19.5605 O   0  0  0  0  0  0
  -28.0939  -18.9321   17.4249 F   0  0  0  0  0  0
  -28.4504  -20.9206   18.1550 F   0  0  0  0  0  0
  -31.4838  -12.5496   19.1354 H   0  0  0  0  0  0
  -30.3950  -11.4088   19.8777 H   0  0  0  0  0  0
  -29.7726  -11.7550   17.4790 H   0  0  0  0  0  0
  -29.6517  -13.4768   17.7257 H   0  0  0  0  0  0
  -27.8557  -11.3031   18.8402 H   0  0  0  0  0  0
  -27.3776  -12.6080   17.7883 H   0  0  0  0  0  0
  -27.6756  -14.2538   19.5304 H   0  0  0  0  0  0
  -28.7243  -12.0265   21.3450 H   0  0  0  0  0  0
  -28.4469  -13.6663   21.8546 H   0  0  0  0  0  0
  -25.2758   -9.5718   22.4755 H   0  0  0  0  0  0
  -24.0016   -7.4658   22.7467 H   0  0  0  0  0  0
  -21.0842   -8.8773   19.8959 H   0  0  0  0  0  0
  -22.3676  -10.9685   19.6164 H   0  0  0  0  0  0
  -21.2007   -7.6147   23.9711 H   0  0  0  0  0  0
  -21.1472   -6.0520   25.9073 H   0  0  0  0  0  0
  -22.0607   -2.7608   23.2836 H   0  0  0  0  0  0
  -22.4088  -11.9934   22.4793 H   0  0  0  0  0  0
  -21.1111  -13.1315   22.2544 H   0  0  0  0  0  0
  -24.6801  -15.8513   20.5346 H   0  0  0  0  0  0
  -26.2894  -15.6201   20.0793 H   0  0  0  0  0  0
  -26.7195  -32.5450   23.1097 H   0  0  0  0  0  0
  -25.0099  -33.9721   25.0435 H   0  0  0  0  0  0
  -22.7170  -31.3028   21.3997 H   0  0  0  0  0  0
  -23.3755  -35.9619   23.3302 H   0  0  0  0  0  0
  -24.3578  -36.8905   22.2052 H   0  0  0  0  0  0
  -23.7246  -37.6494   23.6660 H   0  0  0  0  0  0
  -26.1002  -31.5507   20.6068 H   0  0  0  0  0  0
  -26.8440  -30.8334   22.0059 H   0  0  0  0  0  0
  -28.1213  -28.9754   21.1920 H   0  0  0  0  0  0
  -25.9988  -25.9224   19.0012 H   0  0  0  0  0  0
  -23.9736  -27.3076   19.0050 H   0  0  0  0  0  0
  -23.7584  -30.5932   19.4043 H   0  0  0  0  0  0
  -22.7592  -29.2468   19.8568 H   0  0  0  0  0  0
  -25.1299  -36.1930   25.0825 H   0  0  0  0  0  0
  -20.9989  -28.3281   24.1414 H   0  0  0  0  0  0
  -20.5676  -26.2310   23.3622 H   0  0  0  0  0  0
  -21.6655  -26.7437   22.1228 H   0  0  0  0  0  0
  -19.6931  -25.6269   21.1264 H   0  0  0  0  0  0
  -19.6703  -27.3165   20.6738 H   0  0  0  0  0  0
  -17.4215  -26.6685   21.4029 H   0  0  0  0  0  0
  -18.0320  -26.0072   22.9022 H   0  0  0  0  0  0
  -19.7946  -30.7280   24.2270 H   0  0  0  0  0  0
  -17.5030  -31.6274   24.5167 H   0  0  0  0  0  0
  -15.5369  -30.3002   23.7651 H   0  0  0  0  0  0
  -15.8684  -28.0834   22.7070 H   0  0  0  0  0  0
  -24.5924  -30.7052   25.7765 H   0  0  0  0  0  0
  -24.8917  -32.2876   26.4855 H   0  0  0  0  0  0
  -25.8053  -30.8902   27.0219 H   0  0  0  0  0  0
  -26.2927  -29.6747   24.1216 H   0  0  0  0  0  0
  -27.4061  -29.7262   25.4685 H   0  0  0  0  0  0
  -27.8789  -30.4285   23.9398 H   0  0  0  0  0  0
  -27.2672  -33.3620   26.2063 H   0  0  0  0  0  0
  -28.3881  -32.6866   25.0333 H   0  0  0  0  0  0
  -28.0725  -31.8455   26.5422 H   0  0  0  0  0  0
  -28.2601  -38.0096   24.7512 H   0  0  0  0  0  0
  -28.1070  -36.2626   24.6299 H   0  0  0  0  0  0
  -27.2296  -37.1464   25.8872 H   0  0  0  0  0  0
  -20.9358  -29.8848   21.6964 H   0  0  0  0  0  0
  -26.0175  -38.2848   24.1395 H   0  0  0  0  0  0
  -28.7222  -17.1452   18.8446 H   0  0  0  0  0  0
  -30.7840  -17.6390   22.5624 H   0  0  0  0  0  0
  -25.1949  -22.2732   21.8493 H   0  0  0  0  0  0
  -24.5917  -21.2528   20.5710 H   0  0  0  0  0  0
  -26.2480  -19.5230   21.0724 H   0  0  0  0  0  0
  -25.5002  -19.9872   22.5706 H   0  0  0  0  0  0
  -26.0357  -23.2213   19.8458 H   0  0  0  0  0  0
  -26.4955  -21.7347   19.1557 H   0  0  0  0  0  0
  -27.8891  -19.8179   22.9325 H   0  0  0  0  0  0
  -27.4439  -21.4486   23.1516 H   0  0  0  0  0  0
  -27.5428  -22.8579   21.6907 H   0  0  0  0  0  0
  -28.3225  -25.2275   21.8573 H   0  0  0  0  0  0
  -26.9233  -24.9810   20.8844 H   0  0  0  0  0  0
  -26.9342  -19.7551   18.7373 H   0  0  0  0  0  0
  -28.8799  -15.3142   21.2094 H   0  0  0  0  0  0
  1 25  1  0  0  0
  1 30  2  0  0  0
  1 86  1  0  0  0
  2  3  1  0  0  0
  2 25  1  0  0  0
  2 90  1  0  0  0
  2 91  1  0  0  0
  3  4  1  0  0  0
  3 92  1  0  0  0
  3 93  1  0  0  0
  4  5  1  0  0  0
  4 94  1  0  0  0
  4 95  1  0  0  0
  5  6  1  0  0  0
  5 26  1  0  0  0
  5 96  1  0  0  0
  6 25  1  0  0  0
  6 97  1  0  0  0
  6 98  1  0  0  0
  7  8  2  0  0  0
  7 26  1  0  0  0
  7 29  1  0  0  0
  8  9  1  0  0  0
  8 22  1  0  0  0
  9 10  1  0  0  0
  9 27  2  0  0  0
 10 11  2  0  0  0
 10 15  1  0  0  0
 11 12  1  0  0  0
 11 99  1  0  0  0
 12 13  2  0  0  0
 12100  1  0  0  0
 13 14  1  0  0  0
 13 31  1  0  0  0
 14 15  2  0  0  0
 14101  1  0  0  0
 15102  1  0  0  0
 16 17  2  0  0  0
 16 21  1  0  0  0
 16 31  1  0  0  0
 17 18  1  0  0  0
 17103  1  0  0  0
 18 19  2  0  0  0
 18104  1  0  0  0
 19 20  1  0  0  0
 19 24  1  0  0  0
 20 21  2  0  0  0
 20105  1  0  0  0
 21 23  1  0  0  0
 22 28  1  0  0  0
 22 32  2  0  0  0
 26 27  1  0  0  0
 28106  1  0  0  0
 28107  1  0  0  0
 29108  1  0  0  0
 29109  1  0  0  0
 33 34  1  0  0  0
 33 66  1  0  0  0
 33 70  2  0  0  0
 34 36  1  0  0  0
 34 59  1  0  0  0
 34110  1  0  0  0
 35 44  2  0  0  0
 35 45  1  0  0  0
 35 68  1  0  0  0
 36 56  1  0  0  0
 36111  1  0  0  0
 37 39  1  0  0  0
 37 47  1  0  0  0
 37 66  1  0  0  0
 37112  1  0  0  0
 38 43  2  0  0  0
 38 46  1  0  0  0
 38 47  1  0  0  0
 39 64  1  0  0  0
 39 67  2  0  0  0
 40 52  1  0  0  0
 40 53  2  0  0  0
 40 58  1  0  0  0
 41113  1  0  0  0
 41114  1  0  0  0
 41115  1  0  0  0
 41 48  1  0  0  0
 42 43  1  0  0  0
 42 66  1  0  0  0
 42116  1  0  0  0
 42117  1  0  0  0
 43 44  1  0  0  0
 44118  1  0  0  0
 45 46  2  0  0  0
 45119  1  0  0  0
 46120  1  0  0  0
 47121  1  0  0  0
 47122  1  0  0  0
 48 56  1  0  0  0
 48 65  1  0  0  0
 48123  1  0  0  0
 49 50  1  0  0  0
 49 53  1  0  0  0
 49 64  1  0  0  0
 49124  1  0  0  0
 50 51  1  0  0  0
 50125  1  0  0  0
 50126  1  0  0  0
 51 52  1  0  0  0
 51127  1  0  0  0
 51128  1  0  0  0
 52129  1  0  0  0
 52130  1  0  0  0
 53 54  1  0  0  0
 54 55  2  0  0  0
 54131  1  0  0  0
 55 57  1  0  0  0
 55132  1  0  0  0
 56 69  2  0  0  0
 57 58  2  0  0  0
 57133  1  0  0  0
 58134  1  0  0  0
 59 60  1  0  0  0
 59 61  1  0  0  0
 59 62  1  0  0  0
 60135  1  0  0  0
 60136  1  0  0  0
 60137  1  0  0  0
 61138  1  0  0  0
 61139  1  0  0  0
 61140  1  0  0  0
 62141  1  0  0  0
 62142  1  0  0  0
 62143  1  0  0  0
 63 65  1  0  0  0
 63144  1  0  0  0
 63145  1  0  0  0
 63146  1  0  0  0
 64147  1  0  0  0
 65148  1  0  0  0
 68 82  1  0  0  0
 71 73  2  0  0  0
 71 74  1  0  0  0
 71149  1  0  0  0
 72 74  2  0  0  0
 72 84  1  0  0  0
 72150  1  0  0  0
 73 75  1  0  0  0
 73 83  1  0  0  0
 74 86  1  0  0  0
 75 84  2  0  0  0
 75 85  1  0  0  0
 76 82  1  0  0  0
 76 87  2  0  0  0
 76 81  1  0  0  0
 77 78  1  0  0  0
 77 79  1  0  0  0
 77151  1  0  0  0
 77152  1  0  0  0
 78 80  1  0  0  0
 78153  1  0  0  0
 78154  1  0  0  0
 79 81  1  0  0  0
 79155  1  0  0  0
 79156  1  0  0  0
 80 85  1  0  0  0
 80157  1  0  0  0
 80158  1  0  0  0
 81 85  1  0  0  0
 81159  1  0  0  0
 82160  1  0  0  0
 82161  1  0  0  0
 83 88  1  0  0  0
 83 89  1  0  0  0
 83162  1  0  0  0
 86163  1  0  0  0
M  ISO  4   1 100  68 101  82 101  86 100
M  END
> <chiral flag>
0

> <version>
0

> <s_m_source_file>
/data/baiqing/PycharmProjects/Reinvent-master-3.2/result/LINK_invent/BTK/process_docking_weight1_custom_product_contain_oxygen_bond_distance_aromatic_linkinvent_7_9_3/rearranged_h_0169.sdf

> <i_m_source_file_index>
34

> <r_mmod_Potential_Energy-OPLS-2005>
137.640518188477

> <r_mmod_Stretch_Energy-OPLS-2005>
99.3022766113281

> <r_mmod_Bend_Energy-OPLS-2005>
258.453521728516

> <r_mmod_Torsional_Energy-OPLS-2005>
333.18798828125

> <r_mmod_Improper_Torsional_Energy-OPLS-2005>
12.9143018722534

> <r_mmod_Van_der_Waal_Energy-OPLS-2005>
159.33283996582

> <r_mmod_Electrostatic_Energy-OPLS-2005>
-517.698791503906

> <r_mmod_Solvation_Energy-OPLS-2005>
-264.318298339844

> <b_mmod_Minimization_Converged-OPLS-2005>
0

> <r_mmod_RMS_Derivative-OPLS-2005>
1.64741373062134

$$$$
34
                    3D
 Structure written by MMmdl.
163171  0  0  1  0            999 V2000
  -30.6675  -14.6745   20.4492 C   0  0  0  0  0  0
  -30.4184  -12.4063   19.4919 C   0  0  0  0  0  0
  -29.5090  -12.4952   18.2503 C   0  0  0  0  0  0
  -28.0411  -12.3114   18.6674 C   0  0  0  0  0  0
  -27.6490  -13.2181   19.8632 C   0  0  2  0  0  0
  -28.6863  -13.1583   21.0077 C   0  0  0  0  0  0
  -25.2566  -13.8157   20.5665 C   0  0  0  0  0  0
  -24.1843  -13.0468   20.9195 C   0  0  0  0  0  0
  -24.6407  -11.6929   20.8792 C   0  0  0  0  0  0
  -23.9083  -10.4335   21.0456 C   0  0  0  0  0  0
  -24.3650   -9.4241   21.9215 C   0  0  0  0  0  0
  -23.6340   -8.2276   22.0754 C   0  0  0  0  0  0
  -22.4313   -8.0339   21.3552 C   0  0  0  0  0  0
  -21.9959   -9.0311   20.4627 C   0  0  0  0  0  0
  -22.7286  -10.2186   20.3065 C   0  0  0  0  0  0
  -21.6857   -6.0803   22.5314 C   0  0  0  0  0  0
  -21.4035   -6.5693   23.8261 C   0  0  0  0  0  0
  -21.3646   -5.6814   24.9196 C   0  0  0  0  0  0
  -21.6027   -4.3081   24.7218 C   0  0  0  0  0  0
  -21.8831   -3.8204   23.4333 C   0  0  0  0  0  0
  -21.9198   -4.7036   22.3404 C   0  0  0  0  0  0
  -22.7870  -13.5268   21.1868 C   0  0  0  0  0  0
  -22.1660   -4.2251   21.0974 F   0  0  0  0  0  0
  -21.5602   -3.4532   25.7701 F   0  0  0  0  0  0
  -29.9950  -13.4768   20.4260 N   0  0  0  0  0  0
  -26.2988  -12.9339   20.3349 N   0  0  0  0  0  0
  -25.9336  -11.6501   20.5827 N   0  0  0  0  0  0
  -22.0501  -12.8259   22.0378 N   0  0  0  0  0  0
  -25.4281  -15.1890   20.4031 N   0  0  0  0  0  0
  -31.8639  -14.6735   20.1460 O   0  0  0  0  0  0
  -21.6646   -6.8958   21.4286 O   0  0  0  0  0  0
  -22.3595  -14.5631   20.6772 O   0  0  0  0  0  0
  -24.6242  -31.8594   23.2091 C   0  0  0  0  0  0
  -25.9111  -32.4762   23.8393 C   0  0  1  0  0  0
  -27.2104  -27.3447   20.1382 C   0  0  0  0  0  0
  -25.5932  -33.8562   24.2330 N   0  0  0  0  0  0
  -23.4186  -30.4875   21.5455 C   0  0  2  0  0  0
  -24.8678  -28.9500   20.1079 C   0  0  0  0  0  0
  -22.7460  -29.4642   22.4926 C   0  0  0  0  0  0
  -18.0282  -28.1388   22.8468 C   0  0  0  0  0  0
  -24.1489  -36.7287   23.2653 C   0  0  0  0  0  0
  -25.9556  -30.8084   21.3700 C   0  0  0  0  0  0
  -26.0323  -29.4375   20.7144 C   0  0  0  0  0  0
  -27.2119  -28.6416   20.7273 C   0  0  0  0  0  0
  -26.0451  -26.9168   19.4755 C   0  0  0  0  0  0
  -24.8722  -27.6929   19.4799 C   0  0  0  0  0  0
  -23.6353  -29.8280   20.1586 C   0  0  0  0  0  0
  -25.4093  -36.3062   24.0349 C   0  0  1  0  0  0
  -20.5874  -28.3687   23.1280 C   0  0  2  0  0  0
  -20.6780  -26.9421   22.5407 C   0  0  0  0  0  0
  -19.5752  -26.6390   21.5208 C   0  0  0  0  0  0
  -18.1923  -26.7934   22.1611 C   0  0  0  0  0  0
  -19.1532  -28.8849   23.2868 C   0  0  0  0  0  0
  -18.9463  -30.1442   23.8901 C   0  0  0  0  0  0
  -17.6468  -30.6582   24.0563 C   0  0  0  0  0  0
  -25.9008  -34.9428   23.5114 C   0  0  0  0  0  0
  -16.5359  -29.9098   23.6335 C   0  0  0  0  0  0
  -16.7269  -28.6518   23.0349 C   0  0  0  0  0  0
  -26.4466  -31.6543   25.0735 C   0  0  0  0  0  0
  -25.3692  -31.3694   26.1455 C   0  0  0  0  0  0
  -27.0292  -30.2972   24.6127 C   0  0  0  0  0  0
  -27.6008  -32.4276   25.7479 C   0  0  0  0  0  0
  -27.5544  -37.1807   24.8460 C   0  0  0  0  0  0
  -21.4182  -29.3037   22.3676 N   0  0  0  0  0  0
  -26.4276  -37.3755   23.9400 N   0  0  0  0  0  0
  -24.6839  -31.0671   22.0989 N   0  0  0  0  0  0
  -23.4177  -28.8163   23.2997 O   0  0  0  0  0  0
  -28.2850  -26.4586   20.1988 O   0  0  0  0  0  0
  -26.5547  -34.8901   22.4658 O   0  0  0  0  0  0
  -23.5422  -32.1340   23.7475 O   0  0  0  0  0  0
  -28.8212  -20.6885   19.6471 C   0  0  0  0  0  0
  -29.3008  -20.3965   21.9710 C   0  0  0  0  0  0
  -29.6245  -18.4447   20.4600 C   0  0  0  0  0  0
  -29.1326  -19.3019   19.4077 C   0  0  0  0  0  0
  -28.9158  -21.2850   20.9315 C   0  0  0  0  0  0
  -29.6692  -19.0397   21.7486 C   0  0  0  0  0  0
  -30.3866  -17.1191   20.2066 C   0  0  0  0  0  0
  -30.1347  -18.8939   17.0708 C   0  0  0  0  0  0
  -29.2576  -25.6295   22.1593 C   0  0  0  0  0  0
  -26.8392  -25.1237   21.8277 C   0  0  0  0  0  0
  -28.9065  -18.7854   17.9841 C   0  0  0  0  0  0
  -28.5508  -23.8692   20.3735 C   0  0  0  0  0  0
  -28.2041  -25.2690   21.0914 C   0  0  0  0  0  0
  -28.6256  -22.6593   21.2600 N   0  0  0  0  0  0
  -29.9585  -15.8586   20.6024 N   0  0  0  0  0  0
  -31.4633  -17.2805   19.6212 O   0  0  0  0  0  0
  -30.1380  -18.3187   22.7978 F   0  0  0  0  0  0
  -31.4670  -12.4862   19.2013 H   0  0  0  0  0  0
  -30.3269  -11.4303   19.9708 H   0  0  0  0  0  0
  -29.7922  -11.7327   17.5257 H   0  0  0  0  0  0
  -29.6293  -13.4586   17.7552 H   0  0  0  0  0  0
  -27.9203  -11.2638   18.9421 H   0  0  0  0  0  0
  -27.3710  -12.4903   17.8261 H   0  0  0  0  0  0
  -27.6467  -14.2362   19.4803 H   0  0  0  0  0  0
  -28.7023  -12.1706   21.4720 H   0  0  0  0  0  0
  -28.4277  -13.8555   21.8068 H   0  0  0  0  0  0
  -25.2794   -9.5726   22.4772 H   0  0  0  0  0  0
  -24.0078   -7.4648   22.7439 H   0  0  0  0  0  0
  -21.0902   -8.8858   19.8864 H   0  0  0  0  0  0
  -22.3803  -10.9764   19.6176 H   0  0  0  0  0  0
  -21.2064   -7.6201   23.9825 H   0  0  0  0  0  0
  -21.1412   -6.0501   25.9109 H   0  0  0  0  0  0
  -22.0602   -2.7677   23.2784 H   0  0  0  0  0  0
  -22.4132  -11.9893   22.4714 H   0  0  0  0  0  0
  -21.1123  -13.1276   22.2591 H   0  0  0  0  0  0
  -24.6529  -15.8350   20.5057 H   0  0  0  0  0  0
  -26.2657  -15.6247   20.0445 H   0  0  0  0  0  0
  -26.7198  -32.5464   23.1174 H   0  0  0  0  0  0
  -25.0216  -33.9679   25.0566 H   0  0  0  0  0  0
  -22.7131  -31.3085   21.4060 H   0  0  0  0  0  0
  -23.3733  -35.9640   23.3297 H   0  0  0  0  0  0
  -24.3614  -36.8888   22.2077 H   0  0  0  0  0  0
  -23.7290  -37.6514   23.6644 H   0  0  0  0  0  0
  -26.0771  -31.5804   20.6093 H   0  0  0  0  0  0
  -26.8417  -30.8577   21.9903 H   0  0  0  0  0  0
  -28.1008  -29.0052   21.2208 H   0  0  0  0  0  0
  -26.0342  -25.9458   19.0033 H   0  0  0  0  0  0
  -23.9785  -27.3103   19.0087 H   0  0  0  0  0  0
  -23.7691  -30.6087   19.4093 H   0  0  0  0  0  0
  -22.7570  -29.2604   19.8486 H   0  0  0  0  0  0
  -25.1295  -36.1897   25.0850 H   0  0  0  0  0  0
  -20.9947  -28.3273   24.1407 H   0  0  0  0  0  0
  -20.5682  -26.2306   23.3597 H   0  0  0  0  0  0
  -21.6654  -26.7465   22.1192 H   0  0  0  0  0  0
  -19.6916  -25.6299   21.1242 H   0  0  0  0  0  0
  -19.6707  -27.3197   20.6729 H   0  0  0  0  0  0
  -17.4211  -26.6682   21.4000 H   0  0  0  0  0  0
  -18.0306  -26.0085   22.9015 H   0  0  0  0  0  0
  -19.7949  -30.7240   24.2280 H   0  0  0  0  0  0
  -17.5046  -31.6262   24.5163 H   0  0  0  0  0  0
  -15.5366  -30.3010   23.7636 H   0  0  0  0  0  0
  -15.8669  -28.0832   22.7062 H   0  0  0  0  0  0
  -24.5901  -30.6972   25.7822 H   0  0  0  0  0  0
  -24.8833  -32.2865   26.4796 H   0  0  0  0  0  0
  -25.8010  -30.8966   27.0284 H   0  0  0  0  0  0
  -26.2852  -29.6721   24.1162 H   0  0  0  0  0  0
  -27.4041  -29.7180   25.4573 H   0  0  0  0  0  0
  -27.8674  -30.4259   23.9276 H   0  0  0  0  0  0
  -27.2607  -33.3619   26.1961 H   0  0  0  0  0  0
  -28.3832  -32.6762   25.0297 H   0  0  0  0  0  0
  -28.0627  -31.8466   26.5471 H   0  0  0  0  0  0
  -28.2585  -38.0084   24.7478 H   0  0  0  0  0  0
  -28.1003  -36.2607   24.6301 H   0  0  0  0  0  0
  -27.2246  -37.1487   25.8864 H   0  0  0  0  0  0
  -20.9339  -29.8810   21.6934 H   0  0  0  0  0  0
  -26.0120  -38.2811   24.1421 H   0  0  0  0  0  0
  -28.4966  -21.3012   18.8162 H   0  0  0  0  0  0
  -29.3775  -20.7653   22.9842 H   0  0  0  0  0  0
  -29.8837  -18.5873   16.0541 H   0  0  0  0  0  0
  -30.9583  -18.2622   17.3931 H   0  0  0  0  0  0
  -30.4970  -19.9194   17.0320 H   0  0  0  0  0  0
  -29.3292  -24.8781   22.9440 H   0  0  0  0  0  0
  -29.0013  -26.5760   22.6417 H   0  0  0  0  0  0
  -30.2507  -25.7515   21.7253 H   0  0  0  0  0  0
  -26.8856  -24.3745   22.6169 H   0  0  0  0  0  0
  -26.0491  -24.8050   21.1514 H   0  0  0  0  0  0
  -26.5194  -26.0493   22.3118 H   0  0  0  0  0  0
  -28.1049  -19.3712   17.5291 H   0  0  0  0  0  0
  -28.5245  -17.7636   18.0018 H   0  0  0  0  0  0
  -29.5053  -23.9747   19.8513 H   0  0  0  0  0  0
  -27.7962  -23.6923   19.6103 H   0  0  0  0  0  0
  -28.5868  -22.8801   22.2509 H   0  0  0  0  0  0
  -29.0339  -15.7972   20.9973 H   0  0  0  0  0  0
  1 25  1  0  0  0
  1 30  2  0  0  0
  1 85  1  0  0  0
  2  3  1  0  0  0
  2 25  1  0  0  0
  2 88  1  0  0  0
  2 89  1  0  0  0
  3  4  1  0  0  0
  3 90  1  0  0  0
  3 91  1  0  0  0
  4  5  1  0  0  0
  4 92  1  0  0  0
  4 93  1  0  0  0
  5  6  1  0  0  0
  5 26  1  0  0  0
  5 94  1  0  0  0
  6 25  1  0  0  0
  6 95  1  0  0  0
  6 96  1  0  0  0
  7  8  2  0  0  0
  7 26  1  0  0  0
  7 29  1  0  0  0
  8  9  1  0  0  0
  8 22  1  0  0  0
  9 10  1  0  0  0
  9 27  2  0  0  0
 10 11  2  0  0  0
 10 15  1  0  0  0
 11 12  1  0  0  0
 11 97  1  0  0  0
 12 13  2  0  0  0
 12 98  1  0  0  0
 13 14  1  0  0  0
 13 31  1  0  0  0
 14 15  2  0  0  0
 14 99  1  0  0  0
 15100  1  0  0  0
 16 17  2  0  0  0
 16 21  1  0  0  0
 16 31  1  0  0  0
 17 18  1  0  0  0
 17101  1  0  0  0
 18 19  2  0  0  0
 18102  1  0  0  0
 19 20  1  0  0  0
 19 24  1  0  0  0
 20 21  2  0  0  0
 20103  1  0  0  0
 21 23  1  0  0  0
 22 28  1  0  0  0
 22 32  2  0  0  0
 26 27  1  0  0  0
 28104  1  0  0  0
 28105  1  0  0  0
 29106  1  0  0  0
 29107  1  0  0  0
 33 34  1  0  0  0
 33 66  1  0  0  0
 33 70  2  0  0  0
 34 36  1  0  0  0
 34 59  1  0  0  0
 34108  1  0  0  0
 35 44  2  0  0  0
 35 45  1  0  0  0
 35 68  1  0  0  0
 36 56  1  0  0  0
 36109  1  0  0  0
 37 39  1  0  0  0
 37 47  1  0  0  0
 37 66  1  0  0  0
 37110  1  0  0  0
 38 43  2  0  0  0
 38 46  1  0  0  0
 38 47  1  0  0  0
 39 64  1  0  0  0
 39 67  2  0  0  0
 40 52  1  0  0  0
 40 53  2  0  0  0
 40 58  1  0  0  0
 41111  1  0  0  0
 41112  1  0  0  0
 41113  1  0  0  0
 41 48  1  0  0  0
 42 43  1  0  0  0
 42 66  1  0  0  0
 42114  1  0  0  0
 42115  1  0  0  0
 43 44  1  0  0  0
 44116  1  0  0  0
 45 46  2  0  0  0
 45117  1  0  0  0
 46118  1  0  0  0
 47119  1  0  0  0
 47120  1  0  0  0
 48 56  1  0  0  0
 48 65  1  0  0  0
 48121  1  0  0  0
 49 50  1  0  0  0
 49 53  1  0  0  0
 49 64  1  0  0  0
 49122  1  0  0  0
 50 51  1  0  0  0
 50123  1  0  0  0
 50124  1  0  0  0
 51 52  1  0  0  0
 51125  1  0  0  0
 51126  1  0  0  0
 52127  1  0  0  0
 52128  1  0  0  0
 53 54  1  0  0  0
 54 55  2  0  0  0
 54129  1  0  0  0
 55 57  1  0  0  0
 55130  1  0  0  0
 56 69  2  0  0  0
 57 58  2  0  0  0
 57131  1  0  0  0
 58132  1  0  0  0
 59 60  1  0  0  0
 59 61  1  0  0  0
 59 62  1  0  0  0
 60133  1  0  0  0
 60134  1  0  0  0
 60135  1  0  0  0
 61136  1  0  0  0
 61137  1  0  0  0
 61138  1  0  0  0
 62139  1  0  0  0
 62140  1  0  0  0
 62141  1  0  0  0
 63 65  1  0  0  0
 63142  1  0  0  0
 63143  1  0  0  0
 63144  1  0  0  0
 64145  1  0  0  0
 65146  1  0  0  0
 68 83  1  0  0  0
 71 74  2  0  0  0
 71 75  1  0  0  0
 71147  1  0  0  0
 72 75  2  0  0  0
 72 76  1  0  0  0
 72148  1  0  0  0
 73 74  1  0  0  0
 73 76  2  0  0  0
 73 77  1  0  0  0
 74 81  1  0  0  0
 75 84  1  0  0  0
 76 87  1  0  0  0
 77 85  1  0  0  0
 77 86  2  0  0  0
 78 81  1  0  0  0
 78149  1  0  0  0
 78150  1  0  0  0
 78151  1  0  0  0
 79152  1  0  0  0
 79153  1  0  0  0
 79154  1  0  0  0
 79 83  1  0  0  0
 80 83  1  0  0  0
 80155  1  0  0  0
 80156  1  0  0  0
 80157  1  0  0  0
 81158  1  0  0  0
 81159  1  0  0  0
 82 83  1  0  0  0
 82 84  1  0  0  0
 82160  1  0  0  0
 82161  1  0  0  0
 84162  1  0  0  0
 85163  1  0  0  0
M  ISO  4   1 100  68 101  83 101  85 100
M  END
> <chiral flag>
0

> <version>
0

> <s_m_source_file>
/data/baiqing/PycharmProjects/Reinvent-master-3.2/result/LINK_invent/BTK/process_docking_weight1_custom_product_contain_oxygen_bond_distance_aromatic_linkinvent_7_9_3/rearranged_h_0169.sdf

> <i_m_source_file_index>
35

> <r_mmod_Potential_Energy-OPLS-2005>
123.711280822754

> <r_mmod_Stretch_Energy-OPLS-2005>
90.5305404663086

> <r_mmod_Bend_Energy-OPLS-2005>
173.857040405273

> <r_mmod_Torsional_Energy-OPLS-2005>
282.979705810547

> <r_mmod_Improper_Torsional_Energy-OPLS-2005>
7.68138217926025

> <r_mmod_Van_der_Waal_Energy-OPLS-2005>
151.47216796875

> <r_mmod_Electrostatic_Energy-OPLS-2005>
-425.976959228516

> <r_mmod_Solvation_Energy-OPLS-2005>
-215.985870361328

> <b_mmod_Minimization_Converged-OPLS-2005>
0

> <r_mmod_RMS_Derivative-OPLS-2005>
5.57562780380249

$$$$
35
                    3D
 Structure written by MMmdl.
158166  0  0  1  0            999 V2000
  -30.7041  -14.4819   20.5787 C   0  0  0  0  0  0
  -30.4284  -12.3161   19.4251 C   0  0  0  0  0  0
  -29.4963  -12.5125   18.2104 C   0  0  0  0  0  0
  -28.0179  -12.3626   18.6214 C   0  0  0  0  0  0
  -27.6614  -13.2021   19.8767 C   0  0  2  0  0  0
  -28.7061  -12.9911   20.9983 C   0  0  0  0  0  0
  -25.2530  -13.8088   20.5695 C   0  0  0  0  0  0
  -24.1797  -13.0363   20.9166 C   0  0  0  0  0  0
  -24.6384  -11.6853   20.8726 C   0  0  0  0  0  0
  -23.9056  -10.4255   21.0394 C   0  0  0  0  0  0
  -24.3607   -9.4184   21.9183 C   0  0  0  0  0  0
  -23.6283   -8.2223   22.0755 C   0  0  0  0  0  0
  -22.4263   -8.0268   21.3546 C   0  0  0  0  0  0
  -21.9900   -9.0236   20.4642 C   0  0  0  0  0  0
  -22.7228  -10.2108   20.3048 C   0  0  0  0  0  0
  -21.6848   -6.0732   22.5281 C   0  0  0  0  0  0
  -21.4006   -6.5635   23.8215 C   0  0  0  0  0  0
  -21.3660   -5.6790   24.9178 C   0  0  0  0  0  0
  -21.6044   -4.3053   24.7226 C   0  0  0  0  0  0
  -21.8821   -3.8147   23.4347 C   0  0  0  0  0  0
  -21.9190   -4.6962   22.3402 C   0  0  0  0  0  0
  -22.7826  -13.5176   21.1837 C   0  0  0  0  0  0
  -22.1662   -4.2150   21.0976 F   0  0  0  0  0  0
  -21.5631   -3.4537   25.7736 F   0  0  0  0  0  0
  -30.0417  -13.2975   20.4517 N   0  0  0  0  0  0
  -26.3014  -12.9296   20.3390 N   0  0  0  0  0  0
  -25.9319  -11.6452   20.5778 N   0  0  0  0  0  0
  -22.0472  -12.8190   22.0409 N   0  0  0  0  0  0
  -25.4094  -15.1795   20.4179 N   0  0  0  0  0  0
  -31.8194  -14.6828   20.0903 O   0  0  0  0  0  0
  -21.6625   -6.8869   21.4241 O   0  0  0  0  0  0
  -22.3515  -14.5494   20.6702 O   0  0  0  0  0  0
  -24.6135  -31.8659   23.2085 C   0  0  0  0  0  0
  -25.9027  -32.4810   23.8385 C   0  0  1  0  0  0
  -27.2458  -27.4296   20.0830 C   0  0  0  0  0  0
  -25.5881  -33.8606   24.2326 N   0  0  0  0  0  0
  -23.4020  -30.4885   21.5482 C   0  0  2  0  0  0
  -24.8496  -28.9502   20.1146 C   0  0  0  0  0  0
  -22.7398  -29.4646   22.4980 C   0  0  0  0  0  0
  -18.0268  -28.1377   22.8487 C   0  0  0  0  0  0
  -24.1483  -36.7318   23.2638 C   0  0  0  0  0  0
  -25.9306  -30.8273   21.3642 C   0  0  0  0  0  0
  -26.0073  -29.4605   20.7119 C   0  0  0  0  0  0
  -27.2014  -28.7042   20.6985 C   0  0  0  0  0  0
  -26.0596  -26.9269   19.4971 C   0  0  0  0  0  0
  -24.8698  -27.6817   19.5101 C   0  0  0  0  0  0
  -23.6111  -29.8166   20.1633 C   0  0  0  0  0  0
  -25.4100  -36.3106   24.0342 C   0  0  1  0  0  0
  -20.5855  -28.3659   23.1319 C   0  0  2  0  0  0
  -20.6757  -26.9396   22.5418 C   0  0  0  0  0  0
  -19.5737  -26.6379   21.5209 C   0  0  0  0  0  0
  -18.1912  -26.7928   22.1613 C   0  0  0  0  0  0
  -19.1514  -28.8832   23.2900 C   0  0  0  0  0  0
  -18.9446  -30.1437   23.8912 C   0  0  0  0  0  0
  -17.6452  -30.6585   24.0556 C   0  0  0  0  0  0
  -25.9023  -34.9467   23.5137 C   0  0  0  0  0  0
  -16.5341  -29.9084   23.6328 C   0  0  0  0  0  0
  -16.7259  -28.6498   23.0356 C   0  0  0  0  0  0
  -26.4470  -31.6587   25.0711 C   0  0  0  0  0  0
  -25.3755  -31.3679   26.1476 C   0  0  0  0  0  0
  -27.0309  -30.3028   24.6093 C   0  0  0  0  0  0
  -27.6043  -32.4309   25.7481 C   0  0  0  0  0  0
  -27.5591  -37.1798   24.8453 C   0  0  0  0  0  0
  -21.4124  -29.3034   22.3729 N   0  0  0  0  0  0
  -26.4287  -37.3792   23.9418 N   0  0  0  0  0  0
  -24.6669  -31.0754   22.0987 N   0  0  0  0  0  0
  -23.4171  -28.8186   23.3021 O   0  0  0  0  0  0
  -28.4455  -26.7395   20.1102 O   0  0  0  0  0  0
  -26.5587  -34.8923   22.4700 O   0  0  0  0  0  0
  -23.5328  -32.1423   23.7474 O   0  0  0  0  0  0
  -31.0120  -19.0487   20.4853 C   0  0  0  0  0  0
  -31.1114  -17.6969   20.9047 C   0  0  0  0  0  0
  -29.8053  -19.5512   19.9364 C   0  0  0  0  0  0
  -29.9974  -16.8315   20.7934 C   0  0  0  0  0  0
  -28.6896  -18.6896   19.8577 C   0  0  0  0  0  0
  -28.7868  -17.3544   20.2962 C   0  0  0  0  0  0
  -29.7269  -20.9300   19.3341 C   0  0  0  0  0  0
  -31.4344  -23.8882   20.2127 C   0  0  0  0  0  0
  -28.9167  -24.3110   20.1235 C   0  0  0  0  0  0
  -32.0987  -25.0489   19.4824 C   0  0  0  0  0  0
  -28.6732  -25.5850   19.2803 C   0  0  0  0  0  0
  -30.0800  -23.3799   19.6857 C   0  0  2  0  0  0
  -30.0158  -15.4602   21.1957 N   0  0  0  0  0  0
  -29.8984  -21.9839   20.1430 N   0  0  0  0  0  0
  -29.5138  -21.0569   18.1272 O   0  0  0  0  0  0
  -32.0098  -23.3851   21.1845 O   0  0  0  0  0  0
  -28.1818  -24.0596   21.0880 O   0  0  0  0  0  0
  -27.5113  -19.1326   19.3524 F   0  0  0  0  0  0
  -27.7049  -16.5536   20.2099 F   0  0  0  0  0  0
  -31.4713  -12.4205   19.1205 H   0  0  0  0  0  0
  -30.3345  -11.3033   19.8206 H   0  0  0  0  0  0
  -29.7395  -11.7935   17.4271 H   0  0  0  0  0  0
  -29.6585  -13.5014   17.7793 H   0  0  0  0  0  0
  -27.8333  -11.3061   18.8175 H   0  0  0  0  0  0
  -27.3665  -12.6359   17.7900 H   0  0  0  0  0  0
  -27.6999  -14.2444   19.5677 H   0  0  0  0  0  0
  -28.6848  -11.9562   21.3437 H   0  0  0  0  0  0
  -28.4592  -13.5905   21.8754 H   0  0  0  0  0  0
  -25.2754   -9.5662   22.4755 H   0  0  0  0  0  0
  -23.9994   -7.4614   22.7474 H   0  0  0  0  0  0
  -21.0834   -8.8749   19.8949 H   0  0  0  0  0  0
  -22.3694  -10.9646   19.6155 H   0  0  0  0  0  0
  -21.1997   -7.6140   23.9719 H   0  0  0  0  0  0
  -21.1481   -6.0518   25.9080 H   0  0  0  0  0  0
  -22.0601   -2.7609   23.2844 H   0  0  0  0  0  0
  -22.4078  -11.9842   22.4794 H   0  0  0  0  0  0
  -21.1104  -13.1248   22.2624 H   0  0  0  0  0  0
  -24.6464  -15.8306   20.5605 H   0  0  0  0  0  0
  -26.2852  -15.6430   20.1966 H   0  0  0  0  0  0
  -26.7093  -32.5521   23.1144 H   0  0  0  0  0  0
  -25.0039  -33.9766   25.0479 H   0  0  0  0  0  0
  -22.6912  -31.3048   21.4059 H   0  0  0  0  0  0
  -23.3743  -35.9649   23.3274 H   0  0  0  0  0  0
  -24.3593  -36.8958   22.2057 H   0  0  0  0  0  0
  -23.7228  -37.6512   23.6671 H   0  0  0  0  0  0
  -26.0451  -31.5938   20.5959 H   0  0  0  0  0  0
  -26.8170  -30.8795   21.9846 H   0  0  0  0  0  0
  -28.0960  -29.0976   21.1611 H   0  0  0  0  0  0
  -26.0155  -25.9500   19.0410 H   0  0  0  0  0  0
  -23.9747  -27.2778   19.0572 H   0  0  0  0  0  0
  -23.7184  -30.5885   19.4006 H   0  0  0  0  0  0
  -22.7368  -29.2341   19.8686 H   0  0  0  0  0  0
  -25.1275  -36.1968   25.0835 H   0  0  0  0  0  0
  -20.9940  -28.3223   24.1437 H   0  0  0  0  0  0
  -20.5648  -26.2267   23.3602 H   0  0  0  0  0  0
  -21.6635  -26.7435   22.1218 H   0  0  0  0  0  0
  -19.6893  -25.6287   21.1244 H   0  0  0  0  0  0
  -19.6686  -27.3187   20.6736 H   0  0  0  0  0  0
  -17.4191  -26.6681   21.4006 H   0  0  0  0  0  0
  -18.0300  -26.0060   22.8994 H   0  0  0  0  0  0
  -19.7925  -30.7242   24.2292 H   0  0  0  0  0  0
  -17.5013  -31.6274   24.5136 H   0  0  0  0  0  0
  -15.5345  -30.2995   23.7639 H   0  0  0  0  0  0
  -15.8657  -28.0815   22.7081 H   0  0  0  0  0  0
  -24.5916  -30.7039   25.7817 H   0  0  0  0  0  0
  -24.8968  -32.2830   26.4970 H   0  0  0  0  0  0
  -25.8134  -30.8816   27.0204 H   0  0  0  0  0  0
  -26.2853  -29.6770   24.1176 H   0  0  0  0  0  0
  -27.4103  -29.7280   25.4552 H   0  0  0  0  0  0
  -27.8679  -30.4338   23.9230 H   0  0  0  0  0  0
  -27.2652  -33.3586   26.2102 H   0  0  0  0  0  0
  -28.3841  -32.6900   25.0310 H   0  0  0  0  0  0
  -28.0727  -31.8407   26.5368 H   0  0  0  0  0  0
  -28.2567  -38.0136   24.7559 H   0  0  0  0  0  0
  -28.1130  -36.2670   24.6204 H   0  0  0  0  0  0
  -27.2319  -37.1359   25.8856 H   0  0  0  0  0  0
  -20.9276  -29.8778   21.6973 H   0  0  0  0  0  0
  -26.0173  -38.2863   24.1447 H   0  0  0  0  0  0
  -31.8815  -19.6891   20.5457 H   0  0  0  0  0  0
  -32.0476  -17.3278   21.3004 H   0  0  0  0  0  0
  -31.9244  -24.9805   18.4088 H   0  0  0  0  0  0
  -33.1752  -25.0364   19.6540 H   0  0  0  0  0  0
  -31.7048  -25.9987   19.8419 H   0  0  0  0  0  0
  -27.8840  -25.3975   18.5564 H   0  0  0  0  0  0
  -29.5625  -25.7838   18.6835 H   0  0  0  0  0  0
  -30.1278  -23.4089   18.5963 H   0  0  0  0  0  0
  -29.1366  -15.1275   21.5621 H   0  0  0  0  0  0
  -30.0618  -21.8155   21.1252 H   0  0  0  0  0  0
  1 25  1  0  0  0
  1 30  2  0  0  0
  1 83  1  0  0  0
  2  3  1  0  0  0
  2 25  1  0  0  0
  2 90  1  0  0  0
  2 91  1  0  0  0
  3  4  1  0  0  0
  3 92  1  0  0  0
  3 93  1  0  0  0
  4  5  1  0  0  0
  4 94  1  0  0  0
  4 95  1  0  0  0
  5  6  1  0  0  0
  5 26  1  0  0  0
  5 96  1  0  0  0
  6 25  1  0  0  0
  6 97  1  0  0  0
  6 98  1  0  0  0
  7  8  2  0  0  0
  7 26  1  0  0  0
  7 29  1  0  0  0
  8  9  1  0  0  0
  8 22  1  0  0  0
  9 10  1  0  0  0
  9 27  2  0  0  0
 10 11  2  0  0  0
 10 15  1  0  0  0
 11 12  1  0  0  0
 11 99  1  0  0  0
 12 13  2  0  0  0
 12100  1  0  0  0
 13 14  1  0  0  0
 13 31  1  0  0  0
 14 15  2  0  0  0
 14101  1  0  0  0
 15102  1  0  0  0
 16 17  2  0  0  0
 16 21  1  0  0  0
 16 31  1  0  0  0
 17 18  1  0  0  0
 17103  1  0  0  0
 18 19  2  0  0  0
 18104  1  0  0  0
 19 20  1  0  0  0
 19 24  1  0  0  0
 20 21  2  0  0  0
 20105  1  0  0  0
 21 23  1  0  0  0
 22 28  1  0  0  0
 22 32  2  0  0  0
 26 27  1  0  0  0
 28106  1  0  0  0
 28107  1  0  0  0
 29108  1  0  0  0
 29109  1  0  0  0
 33 34  1  0  0  0
 33 66  1  0  0  0
 33 70  2  0  0  0
 34 36  1  0  0  0
 34 59  1  0  0  0
 34110  1  0  0  0
 35 44  2  0  0  0
 35 45  1  0  0  0
 35 68  1  0  0  0
 36 56  1  0  0  0
 36111  1  0  0  0
 37 39  1  0  0  0
 37 47  1  0  0  0
 37 66  1  0  0  0
 37112  1  0  0  0
 38 43  2  0  0  0
 38 46  1  0  0  0
 38 47  1  0  0  0
 39 64  1  0  0  0
 39 67  2  0  0  0
 40 52  1  0  0  0
 40 53  2  0  0  0
 40 58  1  0  0  0
 41113  1  0  0  0
 41114  1  0  0  0
 41115  1  0  0  0
 41 48  1  0  0  0
 42 43  1  0  0  0
 42 66  1  0  0  0
 42116  1  0  0  0
 42117  1  0  0  0
 43 44  1  0  0  0
 44118  1  0  0  0
 45 46  2  0  0  0
 45119  1  0  0  0
 46120  1  0  0  0
 47121  1  0  0  0
 47122  1  0  0  0
 48 56  1  0  0  0
 48 65  1  0  0  0
 48123  1  0  0  0
 49 50  1  0  0  0
 49 53  1  0  0  0
 49 64  1  0  0  0
 49124  1  0  0  0
 50 51  1  0  0  0
 50125  1  0  0  0
 50126  1  0  0  0
 51 52  1  0  0  0
 51127  1  0  0  0
 51128  1  0  0  0
 52129  1  0  0  0
 52130  1  0  0  0
 53 54  1  0  0  0
 54 55  2  0  0  0
 54131  1  0  0  0
 55 57  1  0  0  0
 55132  1  0  0  0
 56 69  2  0  0  0
 57 58  2  0  0  0
 57133  1  0  0  0
 58134  1  0  0  0
 59 60  1  0  0  0
 59 61  1  0  0  0
 59 62  1  0  0  0
 60135  1  0  0  0
 60136  1  0  0  0
 60137  1  0  0  0
 61138  1  0  0  0
 61139  1  0  0  0
 61140  1  0  0  0
 62141  1  0  0  0
 62142  1  0  0  0
 62143  1  0  0  0
 63 65  1  0  0  0
 63144  1  0  0  0
 63145  1  0  0  0
 63146  1  0  0  0
 64147  1  0  0  0
 65148  1  0  0  0
 68 81  1  0  0  0
 71 72  2  0  0  0
 71 73  1  0  0  0
 71149  1  0  0  0
 72 74  1  0  0  0
 72150  1  0  0  0
 73 75  2  0  0  0
 73 77  1  0  0  0
 74 76  2  0  0  0
 74 83  1  0  0  0
 75 76  1  0  0  0
 75 88  1  0  0  0
 76 89  1  0  0  0
 77 84  1  0  0  0
 77 85  2  0  0  0
 78 80  1  0  0  0
 78 82  1  0  0  0
 78 86  2  0  0  0
 79 81  1  0  0  0
 79 82  1  0  0  0
 79 87  2  0  0  0
 80151  1  0  0  0
 80152  1  0  0  0
 80153  1  0  0  0
 81154  1  0  0  0
 81155  1  0  0  0
 82 84  1  0  0  0
 82156  1  0  0  0
 83157  1  0  0  0
 84158  1  0  0  0
M  ISO  4   1 100  68 101  81 101  83 100
M  END
> <chiral flag>
0

> <version>
0

> <s_m_source_file>
/data/baiqing/PycharmProjects/Reinvent-master-3.2/result/LINK_invent/BTK/process_docking_weight1_custom_product_contain_oxygen_bond_distance_aromatic_linkinvent_7_9_3/rearranged_h_0169.sdf

> <i_m_source_file_index>
36

> <r_mmod_Potential_Energy-OPLS-2005>
-228.610153198242

> <r_mmod_Stretch_Energy-OPLS-2005>
40.0624313354492

> <r_mmod_Bend_Energy-OPLS-2005>
105.06420135498

> <r_mmod_Torsional_Energy-OPLS-2005>
226.641525268555

> <r_mmod_Improper_Torsional_Energy-OPLS-2005>
5.9119291305542

> <r_mmod_Van_der_Waal_Energy-OPLS-2005>
152.116744995117

> <r_mmod_Electrostatic_Energy-OPLS-2005>
-524.844177246094

> <r_mmod_Solvation_Energy-OPLS-2005>
-246.808563232422

> <b_mmod_Minimization_Converged-OPLS-2005>
0

> <r_mmod_RMS_Derivative-OPLS-2005>
1.11936831474304

$$$$
36
                    3D
 Structure written by MMmdl.
156164  0  0  1  0            999 V2000
  -30.6819  -14.5010   20.5647 C   0  0  0  0  0  0
  -30.4288  -12.3188   19.4333 C   0  0  0  0  0  0
  -29.5035  -12.5039   18.2125 C   0  0  0  0  0  0
  -28.0205  -12.3728   18.6151 C   0  0  0  0  0  0
  -27.6604  -13.2092   19.8727 C   0  0  2  0  0  0
  -28.7010  -12.9957   20.9950 C   0  0  0  0  0  0
  -25.2578  -13.8166   20.5665 C   0  0  0  0  0  0
  -24.1839  -13.0446   20.9199 C   0  0  0  0  0  0
  -24.6393  -11.6912   20.8752 C   0  0  0  0  0  0
  -23.9060  -10.4299   21.0415 C   0  0  0  0  0  0
  -24.3618   -9.4217   21.9182 C   0  0  0  0  0  0
  -23.6295   -8.2254   22.0747 C   0  0  0  0  0  0
  -22.4274   -8.0286   21.3546 C   0  0  0  0  0  0
  -21.9912   -9.0259   20.4653 C   0  0  0  0  0  0
  -22.7239  -10.2139   20.3062 C   0  0  0  0  0  0
  -21.6857   -6.0740   22.5282 C   0  0  0  0  0  0
  -21.4022   -6.5640   23.8218 C   0  0  0  0  0  0
  -21.3665   -5.6787   24.9173 C   0  0  0  0  0  0
  -21.6042   -4.3050   24.7223 C   0  0  0  0  0  0
  -21.8811   -3.8148   23.4341 C   0  0  0  0  0  0
  -21.9193   -4.6968   22.3401 C   0  0  0  0  0  0
  -22.7861  -13.5247   21.1853 C   0  0  0  0  0  0
  -22.1653   -4.2155   21.0978 F   0  0  0  0  0  0
  -21.5635   -3.4529   25.7734 F   0  0  0  0  0  0
  -30.0304  -13.3097   20.4448 N   0  0  0  0  0  0
  -26.3012  -12.9338   20.3323 N   0  0  0  0  0  0
  -25.9322  -11.6500   20.5760 N   0  0  0  0  0  0
  -22.0477  -12.8266   22.0411 N   0  0  0  0  0  0
  -25.4266  -15.1888   20.4048 N   0  0  0  0  0  0
  -31.8201  -14.6708   20.1151 O   0  0  0  0  0  0
  -21.6639   -6.8881   21.4241 O   0  0  0  0  0  0
  -22.3554  -14.5536   20.6672 O   0  0  0  0  0  0
  -24.6141  -31.8676   23.2095 C   0  0  0  0  0  0
  -25.9023  -32.4844   23.8367 C   0  0  1  0  0  0
  -27.2298  -27.4388   20.1006 C   0  0  0  0  0  0
  -25.5864  -33.8636   24.2297 N   0  0  0  0  0  0
  -23.4012  -30.4899   21.5508 C   0  0  2  0  0  0
  -24.8483  -28.9541   20.1167 C   0  0  0  0  0  0
  -22.7395  -29.4665   22.5009 C   0  0  0  0  0  0
  -18.0265  -28.1379   22.8485 C   0  0  0  0  0  0
  -24.1486  -36.7323   23.2632 C   0  0  0  0  0  0
  -25.9276  -30.8384   21.3562 C   0  0  0  0  0  0
  -26.0086  -29.4707   20.7079 C   0  0  0  0  0  0
  -27.2074  -28.7211   20.6942 C   0  0  0  0  0  0
  -26.0565  -26.9322   19.5075 C   0  0  0  0  0  0
  -24.8660  -27.6835   19.5133 C   0  0  0  0  0  0
  -23.6092  -29.8193   20.1656 C   0  0  0  0  0  0
  -25.4100  -36.3120   24.0338 C   0  0  1  0  0  0
  -20.5847  -28.3658   23.1335 C   0  0  2  0  0  0
  -20.6748  -26.9395   22.5427 C   0  0  0  0  0  0
  -19.5737  -26.6383   21.5210 C   0  0  0  0  0  0
  -18.1914  -26.7923   22.1623 C   0  0  0  0  0  0
  -19.1510  -28.8828   23.2908 C   0  0  0  0  0  0
  -18.9450  -30.1429   23.8926 C   0  0  0  0  0  0
  -17.6457  -30.6590   24.0558 C   0  0  0  0  0  0
  -25.9022  -34.9494   23.5117 C   0  0  0  0  0  0
  -16.5344  -29.9108   23.6314 C   0  0  0  0  0  0
  -16.7247  -28.6518   23.0338 C   0  0  0  0  0  0
  -26.4496  -31.6645   25.0680 C   0  0  0  0  0  0
  -25.3801  -31.3741   26.1464 C   0  0  0  0  0  0
  -27.0358  -30.3124   24.6001 C   0  0  0  0  0  0
  -27.6080  -32.4397   25.7402 C   0  0  0  0  0  0
  -27.5580  -37.1810   24.8452 C   0  0  0  0  0  0
  -21.4119  -29.3039   22.3754 N   0  0  0  0  0  0
  -26.4286  -37.3807   23.9412 N   0  0  0  0  0  0
  -24.6669  -31.0788   22.0986 N   0  0  0  0  0  0
  -23.4174  -28.8211   23.3052 O   0  0  0  0  0  0
  -28.3733  -26.6769   20.0874 O   0  0  0  0  0  0
  -26.5622  -34.8952   22.4699 O   0  0  0  0  0  0
  -23.5337  -32.1418   23.7497 O   0  0  0  0  0  0
  -29.0658  -17.7669   21.3143 C   0  0  0  0  0  0
  -30.4077  -19.6539   21.3863 C   0  0  0  0  0  0
  -30.1869  -16.9152   21.1132 C   0  0  0  0  0  0
  -31.5397  -18.8127   21.1542 C   0  0  0  0  0  0
  -28.5979  -24.2283   20.4620 C   0  0  0  0  0  0
  -29.8002  -23.4016   21.0133 C   0  0  0  0  0  0
  -30.4409  -21.2821   23.3071 C   0  0  0  0  0  0
  -28.3837  -25.6297   21.0787 C   0  0  0  0  0  0
  -30.5387  -21.1431   21.7738 C   0  0  2  0  0  0
  -29.1632  -19.1174   21.4442 N   0  0  0  0  0  0
  -31.4237  -17.4719   21.0151 N   0  0  0  0  0  0
  -32.8481  -19.2800   21.0911 N   0  0  0  0  0  0
  -29.9282  -15.5073   21.0612 N   0  0  0  0  0  0
  -29.5824  -22.0717   21.1354 N   0  0  0  0  0  0
  -27.8321  -23.7801   19.5996 O   0  0  0  0  0  0
  -30.8623  -23.9437   21.3342 O   0  0  0  0  0  0
  -31.4740  -12.4228   19.1364 H   0  0  0  0  0  0
  -30.3342  -11.3101   19.8394 H   0  0  0  0  0  0
  -29.7471  -11.7671   17.4460 H   0  0  0  0  0  0
  -29.6787  -13.4822   17.7635 H   0  0  0  0  0  0
  -27.8200  -11.3175   18.8007 H   0  0  0  0  0  0
  -27.3798  -12.6557   17.7789 H   0  0  0  0  0  0
  -27.7000  -14.2570   19.5762 H   0  0  0  0  0  0
  -28.6823  -11.9596   21.3352 H   0  0  0  0  0  0
  -28.4578  -13.5924   21.8750 H   0  0  0  0  0  0
  -25.2767   -9.5695   22.4747 H   0  0  0  0  0  0
  -24.0015   -7.4643   22.7458 H   0  0  0  0  0  0
  -21.0839   -8.8772   19.8959 H   0  0  0  0  0  0
  -22.3690  -10.9672   19.6171 H   0  0  0  0  0  0
  -21.2005   -7.6148   23.9723 H   0  0  0  0  0  0
  -21.1503   -6.0516   25.9076 H   0  0  0  0  0  0
  -22.0584   -2.7611   23.2836 H   0  0  0  0  0  0
  -22.4078  -11.9963   22.4876 H   0  0  0  0  0  0
  -21.1078  -13.1290   22.2555 H   0  0  0  0  0  0
  -24.6469  -15.8313   20.4969 H   0  0  0  0  0  0
  -26.2521  -15.6241   20.0149 H   0  0  0  0  0  0
  -26.7069  -32.5573   23.1109 H   0  0  0  0  0  0
  -24.9946  -33.9802   25.0390 H   0  0  0  0  0  0
  -22.6899  -31.3063   21.4103 H   0  0  0  0  0  0
  -23.3758  -35.9647   23.3296 H   0  0  0  0  0  0
  -24.3585  -36.8935   22.2046 H   0  0  0  0  0  0
  -23.7230  -37.6522   23.6652 H   0  0  0  0  0  0
  -26.0256  -31.5989   20.5806 H   0  0  0  0  0  0
  -26.8208  -30.9030   21.9656 H   0  0  0  0  0  0
  -28.1070  -29.1172   21.1452 H   0  0  0  0  0  0
  -26.0660  -25.9534   19.0501 H   0  0  0  0  0  0
  -23.9738  -27.2771   19.0575 H   0  0  0  0  0  0
  -23.7130  -30.5924   19.4034 H   0  0  0  0  0  0
  -22.7347  -29.2344   19.8741 H   0  0  0  0  0  0
  -25.1278  -36.1978   25.0834 H   0  0  0  0  0  0
  -20.9913  -28.3193   24.1463 H   0  0  0  0  0  0
  -20.5626  -26.2253   23.3601 H   0  0  0  0  0  0
  -21.6630  -26.7430   22.1232 H   0  0  0  0  0  0
  -19.6896  -25.6295   21.1235 H   0  0  0  0  0  0
  -19.6696  -27.3188   20.6737 H   0  0  0  0  0  0
  -17.4184  -26.6643   21.4032 H   0  0  0  0  0  0
  -18.0335  -26.0065   22.9032 H   0  0  0  0  0  0
  -19.7929  -30.7213   24.2328 H   0  0  0  0  0  0
  -17.5032  -31.6273   24.5151 H   0  0  0  0  0  0
  -15.5351  -30.3035   23.7626 H   0  0  0  0  0  0
  -15.8635  -28.0852   22.7056 H   0  0  0  0  0  0
  -24.6011  -30.7007   25.7855 H   0  0  0  0  0  0
  -24.8945  -32.2900   26.4859 H   0  0  0  0  0  0
  -25.8220  -30.9018   27.0248 H   0  0  0  0  0  0
  -26.2903  -29.6887   24.1050 H   0  0  0  0  0  0
  -27.4217  -29.7350   25.4418 H   0  0  0  0  0  0
  -27.8669  -30.4533   23.9090 H   0  0  0  0  0  0
  -27.2679  -33.3651   26.2059 H   0  0  0  0  0  0
  -28.3813  -32.7067   25.0182 H   0  0  0  0  0  0
  -28.0850  -31.8493   26.5238 H   0  0  0  0  0  0
  -28.2593  -38.0107   24.7518 H   0  0  0  0  0  0
  -28.1085  -36.2646   24.6255 H   0  0  0  0  0  0
  -27.2308  -37.1430   25.8855 H   0  0  0  0  0  0
  -20.9264  -29.8782   21.7002 H   0  0  0  0  0  0
  -26.0178  -38.2882   24.1435 H   0  0  0  0  0  0
  -28.0681  -17.3596   21.3921 H   0  0  0  0  0  0
  -31.1774  -20.6482   23.8012 H   0  0  0  0  0  0
  -29.4564  -20.9835   23.6699 H   0  0  0  0  0  0
  -30.6234  -22.3039   23.6389 H   0  0  0  0  0  0
  -29.1741  -25.8406   21.7998 H   0  0  0  0  0  0
  -27.4495  -25.6125   21.6426 H   0  0  0  0  0  0
  -31.5389  -21.4639   21.4783 H   0  0  0  0  0  0
  -33.0348  -20.2670   20.9539 H   0  0  0  0  0  0
  -33.5780  -18.6630   20.7537 H   0  0  0  0  0  0
  -29.0007  -15.2317   21.3422 H   0  0  0  0  0  0
  -28.6959  -21.7003   20.8183 H   0  0  0  0  0  0
  1 25  1  0  0  0
  1 30  2  0  0  0
  1 83  1  0  0  0
  2  3  1  0  0  0
  2 25  1  0  0  0
  2 87  1  0  0  0
  2 88  1  0  0  0
  3  4  1  0  0  0
  3 89  1  0  0  0
  3 90  1  0  0  0
  4  5  1  0  0  0
  4 91  1  0  0  0
  4 92  1  0  0  0
  5  6  1  0  0  0
  5 26  1  0  0  0
  5 93  1  0  0  0
  6 25  1  0  0  0
  6 94  1  0  0  0
  6 95  1  0  0  0
  7  8  2  0  0  0
  7 26  1  0  0  0
  7 29  1  0  0  0
  8  9  1  0  0  0
  8 22  1  0  0  0
  9 10  1  0  0  0
  9 27  2  0  0  0
 10 11  2  0  0  0
 10 15  1  0  0  0
 11 12  1  0  0  0
 11 96  1  0  0  0
 12 13  2  0  0  0
 12 97  1  0  0  0
 13 14  1  0  0  0
 13 31  1  0  0  0
 14 15  2  0  0  0
 14 98  1  0  0  0
 15 99  1  0  0  0
 16 17  2  0  0  0
 16 21  1  0  0  0
 16 31  1  0  0  0
 17 18  1  0  0  0
 17100  1  0  0  0
 18 19  2  0  0  0
 18101  1  0  0  0
 19 20  1  0  0  0
 19 24  1  0  0  0
 20 21  2  0  0  0
 20102  1  0  0  0
 21 23  1  0  0  0
 22 28  1  0  0  0
 22 32  2  0  0  0
 26 27  1  0  0  0
 28103  1  0  0  0
 28104  1  0  0  0
 29105  1  0  0  0
 29106  1  0  0  0
 33 34  1  0  0  0
 33 66  1  0  0  0
 33 70  2  0  0  0
 34 36  1  0  0  0
 34 59  1  0  0  0
 34107  1  0  0  0
 35 44  2  0  0  0
 35 45  1  0  0  0
 35 68  1  0  0  0
 36 56  1  0  0  0
 36108  1  0  0  0
 37 39  1  0  0  0
 37 47  1  0  0  0
 37 66  1  0  0  0
 37109  1  0  0  0
 38 43  2  0  0  0
 38 46  1  0  0  0
 38 47  1  0  0  0
 39 64  1  0  0  0
 39 67  2  0  0  0
 40 52  1  0  0  0
 40 53  2  0  0  0
 40 58  1  0  0  0
 41110  1  0  0  0
 41111  1  0  0  0
 41112  1  0  0  0
 41 48  1  0  0  0
 42 43  1  0  0  0
 42 66  1  0  0  0
 42113  1  0  0  0
 42114  1  0  0  0
 43 44  1  0  0  0
 44115  1  0  0  0
 45 46  2  0  0  0
 45116  1  0  0  0
 46117  1  0  0  0
 47118  1  0  0  0
 47119  1  0  0  0
 48 56  1  0  0  0
 48 65  1  0  0  0
 48120  1  0  0  0
 49 50  1  0  0  0
 49 53  1  0  0  0
 49 64  1  0  0  0
 49121  1  0  0  0
 50 51  1  0  0  0
 50122  1  0  0  0
 50123  1  0  0  0
 51 52  1  0  0  0
 51124  1  0  0  0
 51125  1  0  0  0
 52126  1  0  0  0
 52127  1  0  0  0
 53 54  1  0  0  0
 54 55  2  0  0  0
 54128  1  0  0  0
 55 57  1  0  0  0
 55129  1  0  0  0
 56 69  2  0  0  0
 57 58  2  0  0  0
 57130  1  0  0  0
 58131  1  0  0  0
 59 60  1  0  0  0
 59 61  1  0  0  0
 59 62  1  0  0  0
 60132  1  0  0  0
 60133  1  0  0  0
 60134  1  0  0  0
 61135  1  0  0  0
 61136  1  0  0  0
 61137  1  0  0  0
 62138  1  0  0  0
 62139  1  0  0  0
 62140  1  0  0  0
 63 65  1  0  0  0
 63141  1  0  0  0
 63142  1  0  0  0
 63143  1  0  0  0
 64144  1  0  0  0
 65145  1  0  0  0
 68 78  1  0  0  0
 71 73  2  0  0  0
 71 80  1  0  0  0
 71146  1  0  0  0
 72 74  1  0  0  0
 72 79  1  0  0  0
 72 80  2  0  0  0
 73 81  1  0  0  0
 73 83  1  0  0  0
 74 81  2  0  0  0
 74 82  1  0  0  0
 75 76  1  0  0  0
 75 78  1  0  0  0
 75 85  2  0  0  0
 76 84  1  0  0  0
 76 86  2  0  0  0
 77147  1  0  0  0
 77148  1  0  0  0
 77149  1  0  0  0
 77 79  1  0  0  0
 78150  1  0  0  0
 78151  1  0  0  0
 79 84  1  0  0  0
 79152  1  0  0  0
 82153  1  0  0  0
 82154  1  0  0  0
 83155  1  0  0  0
 84156  1  0  0  0
M  ISO  4   1 100  68 101  78 101  83 100
M  END
> <chiral flag>
0

> <version>
0

> <s_m_source_file>
/data/baiqing/PycharmProjects/Reinvent-master-3.2/result/LINK_invent/BTK/process_docking_weight1_custom_product_contain_oxygen_bond_distance_aromatic_linkinvent_7_9_3/rearranged_h_0169.sdf

> <i_m_source_file_index>
37

> <r_mmod_Potential_Energy-OPLS-2005>
-37.4071922302246

> <r_mmod_Stretch_Energy-OPLS-2005>
43.961669921875

> <r_mmod_Bend_Energy-OPLS-2005>
105.606063842773

> <r_mmod_Torsional_Energy-OPLS-2005>
230.198226928711

> <r_mmod_Improper_Torsional_Energy-OPLS-2005>
6.78747797012329

> <r_mmod_Van_der_Waal_Energy-OPLS-2005>
154.297958374023

> <r_mmod_Electrostatic_Energy-OPLS-2005>
-328.671661376953

> <r_mmod_Solvation_Energy-OPLS-2005>
-263.697021484375

> <b_mmod_Minimization_Converged-OPLS-2005>
0

> <r_mmod_RMS_Derivative-OPLS-2005>
2.23502993583679

$$$$
37
                    3D
 Structure written by MMmdl.
160168  0  0  1  0            999 V2000
  -30.6778  -14.4645   20.6297 C   0  0  0  0  0  0
  -30.4378  -12.3222   19.4066 C   0  0  0  0  0  0
  -29.4975  -12.5301   18.1996 C   0  0  0  0  0  0
  -28.0164  -12.3914   18.6076 C   0  0  0  0  0  0
  -27.6688  -13.2035   19.8831 C   0  0  2  0  0  0
  -28.7073  -12.9310   20.9934 C   0  0  0  0  0  0
  -25.2612  -13.8148   20.5667 C   0  0  0  0  0  0
  -24.1854  -13.0431   20.9154 C   0  0  0  0  0  0
  -24.6397  -11.6894   20.8710 C   0  0  0  0  0  0
  -23.9055  -10.4285   21.0388 C   0  0  0  0  0  0
  -24.3610   -9.4209   21.9171 C   0  0  0  0  0  0
  -23.6287   -8.2247   22.0751 C   0  0  0  0  0  0
  -22.4268   -8.0277   21.3545 C   0  0  0  0  0  0
  -21.9900   -9.0244   20.4646 C   0  0  0  0  0  0
  -22.7226  -10.2123   20.3046 C   0  0  0  0  0  0
  -21.6851   -6.0730   22.5276 C   0  0  0  0  0  0
  -21.4014   -6.5636   23.8206 C   0  0  0  0  0  0
  -21.3657   -5.6794   24.9171 C   0  0  0  0  0  0
  -21.6043   -4.3054   24.7224 C   0  0  0  0  0  0
  -21.8823   -3.8141   23.4345 C   0  0  0  0  0  0
  -21.9195   -4.6960   22.3400 C   0  0  0  0  0  0
  -22.7875  -13.5237   21.1812 C   0  0  0  0  0  0
  -22.1664   -4.2144   21.0978 F   0  0  0  0  0  0
  -21.5626   -3.4535   25.7734 F   0  0  0  0  0  0
  -30.0443  -13.2684   20.4645 N   0  0  0  0  0  0
  -26.3056  -12.9313   20.3370 N   0  0  0  0  0  0
  -25.9327  -11.6472   20.5739 N   0  0  0  0  0  0
  -22.0517  -12.8240   22.0379 N   0  0  0  0  0  0
  -25.4354  -15.1864   20.4091 N   0  0  0  0  0  0
  -31.7477  -14.7375   20.0754 O   0  0  0  0  0  0
  -21.6641   -6.8870   21.4234 O   0  0  0  0  0  0
  -22.3564  -14.5542   20.6660 O   0  0  0  0  0  0
  -24.6146  -31.8687   23.2083 C   0  0  0  0  0  0
  -25.9027  -32.4841   23.8378 C   0  0  1  0  0  0
  -27.2463  -27.4274   20.1176 C   0  0  0  0  0  0
  -25.5871  -33.8628   24.2311 N   0  0  0  0  0  0
  -23.4048  -30.4903   21.5475 C   0  0  2  0  0  0
  -24.8579  -28.9522   20.1179 C   0  0  0  0  0  0
  -22.7421  -29.4667   22.4979 C   0  0  0  0  0  0
  -18.0283  -28.1408   22.8511 C   0  0  0  0  0  0
  -24.1474  -36.7293   23.2635 C   0  0  0  0  0  0
  -25.9343  -30.8313   21.3654 C   0  0  0  0  0  0
  -26.0152  -29.4634   20.7186 C   0  0  0  0  0  0
  -27.2143  -28.7120   20.7166 C   0  0  0  0  0  0
  -26.0775  -26.9394   19.5021 C   0  0  0  0  0  0
  -24.8844  -27.6879   19.5034 C   0  0  0  0  0  0
  -23.6171  -29.8166   20.1656 C   0  0  0  0  0  0
  -25.4094  -36.3113   24.0355 C   0  0  1  0  0  0
  -20.5886  -28.3684   23.1313 C   0  0  2  0  0  0
  -20.6777  -26.9417   22.5424 C   0  0  0  0  0  0
  -19.5753  -26.6402   21.5226 C   0  0  0  0  0  0
  -18.1931  -26.7953   22.1630 C   0  0  0  0  0  0
  -19.1542  -28.8865   23.2916 C   0  0  0  0  0  0
  -18.9474  -30.1468   23.8922 C   0  0  0  0  0  0
  -17.6478  -30.6605   24.0603 C   0  0  0  0  0  0
  -25.9029  -34.9493   23.5130 C   0  0  0  0  0  0
  -16.5361  -29.9129   23.6343 C   0  0  0  0  0  0
  -16.7277  -28.6553   23.0352 C   0  0  0  0  0  0
  -26.4448  -31.6624   25.0710 C   0  0  0  0  0  0
  -25.3709  -31.3762   26.1457 C   0  0  0  0  0  0
  -27.0274  -30.3061   24.6095 C   0  0  0  0  0  0
  -27.6022  -32.4342   25.7467 C   0  0  0  0  0  0
  -27.5608  -37.1764   24.8449 C   0  0  0  0  0  0
  -21.4161  -29.3036   22.3704 N   0  0  0  0  0  0
  -26.4275  -37.3808   23.9464 N   0  0  0  0  0  0
  -24.6690  -31.0782   22.0983 N   0  0  0  0  0  0
  -23.4190  -28.8226   23.3037 O   0  0  0  0  0  0
  -28.3726  -26.6256   20.0591 O   0  0  0  0  0  0
  -26.5604  -34.8950   22.4700 O   0  0  0  0  0  0
  -23.5318  -32.1444   23.7457 O   0  0  0  0  0  0
  -30.6405  -17.6310   20.6003 C   0  0  0  0  0  0
  -30.3223  -19.0128   20.5237 C   0  0  0  0  0  0
  -28.6902  -17.2668   21.9958 C   0  0  0  0  0  0
  -29.8172  -16.7358   21.3313 C   0  0  0  0  0  0
  -29.1705  -19.5312   21.1664 C   0  0  0  0  0  0
  -28.3664  -18.6372   21.9082 C   0  0  0  0  0  0
  -28.8328  -23.3663   20.6614 C   0  0  0  0  0  0
  -27.8484  -25.8172   22.3755 C   0  0  0  0  0  0
  -29.9960  -26.9810   21.7783 C   0  0  0  0  0  0
  -29.6356  -24.6722   20.8874 C   0  0  0  0  0  0
  -29.6075  -22.0197   20.7327 C   0  0  0  0  0  0
  -28.9077  -26.0195   21.2615 C   0  0  0  0  0  0
  -30.0323  -15.3208   21.4490 N   0  0  0  0  0  0
  -28.7506  -20.8779   21.0917 N   0  0  0  0  0  0
  -27.6220  -23.3717   20.4177 O   0  0  0  0  0  0
  -27.2616  -19.1035   22.5421 F   0  0  0  0  0  0
  -31.4785  -12.4544   19.1021 H   0  0  0  0  0  0
  -30.3641  -11.2981   19.7748 H   0  0  0  0  0  0
  -29.7348  -11.8147   17.4111 H   0  0  0  0  0  0
  -29.6661  -13.5196   17.7714 H   0  0  0  0  0  0
  -27.8136  -11.3334   18.7730 H   0  0  0  0  0  0
  -27.3708  -12.6958   17.7826 H   0  0  0  0  0  0
  -27.7262  -14.2609   19.6222 H   0  0  0  0  0  0
  -28.6842  -11.8767   21.2707 H   0  0  0  0  0  0
  -28.4468  -13.4646   21.9082 H   0  0  0  0  0  0
  -25.2761   -9.5680   22.4743 H   0  0  0  0  0  0
  -23.9990   -7.4639   22.7476 H   0  0  0  0  0  0
  -21.0831   -8.8756   19.8960 H   0  0  0  0  0  0
  -22.3682  -10.9652   19.6150 H   0  0  0  0  0  0
  -21.2007   -7.6149   23.9706 H   0  0  0  0  0  0
  -21.1473   -6.0525   25.9072 H   0  0  0  0  0  0
  -22.0606   -2.7605   23.2844 H   0  0  0  0  0  0
  -22.4134  -11.9911   22.4780 H   0  0  0  0  0  0
  -21.1131  -13.1265   22.2566 H   0  0  0  0  0  0
  -24.6714  -15.8442   20.5190 H   0  0  0  0  0  0
  -26.2936  -15.6229   20.0955 H   0  0  0  0  0  0
  -26.7099  -32.5543   23.1139 H   0  0  0  0  0  0
  -25.0028  -33.9787   25.0459 H   0  0  0  0  0  0
  -22.6953  -31.3091   21.4037 H   0  0  0  0  0  0
  -23.3777  -35.9576   23.3254 H   0  0  0  0  0  0
  -24.3604  -36.8937   22.2064 H   0  0  0  0  0  0
  -23.7152  -37.6459   23.6662 H   0  0  0  0  0  0
  -26.0515  -31.5959   20.5958 H   0  0  0  0  0  0
  -26.8193  -30.8825   21.9880 H   0  0  0  0  0  0
  -28.1036  -29.1263   21.1663 H   0  0  0  0  0  0
  -26.0937  -25.9661   19.0312 H   0  0  0  0  0  0
  -23.9963  -27.2904   19.0310 H   0  0  0  0  0  0
  -23.7257  -30.5886   19.4040 H   0  0  0  0  0  0
  -22.7411  -29.2363   19.8696 H   0  0  0  0  0  0
  -25.1255  -36.1949   25.0839 H   0  0  0  0  0  0
  -20.9990  -28.3236   24.1434 H   0  0  0  0  0  0
  -20.5696  -26.2285   23.3616 H   0  0  0  0  0  0
  -21.6644  -26.7481   22.1195 H   0  0  0  0  0  0
  -19.6938  -25.6327   21.1218 H   0  0  0  0  0  0
  -19.6699  -27.3250   20.6786 H   0  0  0  0  0  0
  -17.4213  -26.6735   21.4009 H   0  0  0  0  0  0
  -18.0318  -26.0090   22.9013 H   0  0  0  0  0  0
  -19.7959  -30.7285   24.2266 H   0  0  0  0  0  0
  -17.5053  -31.6285   24.5224 H   0  0  0  0  0  0
  -15.5374  -30.3056   23.7671 H   0  0  0  0  0  0
  -15.8674  -28.0902   22.7032 H   0  0  0  0  0  0
  -24.5851  -30.7150   25.7785 H   0  0  0  0  0  0
  -24.8950  -32.2946   26.4909 H   0  0  0  0  0  0
  -25.8043  -30.8917   27.0209 H   0  0  0  0  0  0
  -26.2831  -29.6840   24.1108 H   0  0  0  0  0  0
  -27.4002  -29.7277   25.4554 H   0  0  0  0  0  0
  -27.8677  -30.4396   23.9278 H   0  0  0  0  0  0
  -27.2646  -33.3628   26.2070 H   0  0  0  0  0  0
  -28.3806  -32.6913   25.0280 H   0  0  0  0  0  0
  -28.0708  -31.8456   26.5362 H   0  0  0  0  0  0
  -28.2507  -38.0180   24.7688 H   0  0  0  0  0  0
  -28.1226  -36.2734   24.6005 H   0  0  0  0  0  0
  -27.2396  -37.1067   25.8858 H   0  0  0  0  0  0
  -20.9318  -29.8754   21.6935 H   0  0  0  0  0  0
  -26.0168  -38.2856   24.1573 H   0  0  0  0  0  0
  -31.5186  -17.2738   20.0818 H   0  0  0  0  0  0
  -30.9621  -19.6635   19.9462 H   0  0  0  0  0  0
  -28.0407  -16.6220   22.5705 H   0  0  0  0  0  0
  -28.2564  -25.2549   23.2149 H   0  0  0  0  0  0
  -26.9693  -25.2810   22.0201 H   0  0  0  0  0  0
  -27.4928  -26.7646   22.7822 H   0  0  0  0  0  0
  -30.5519  -26.5418   22.6084 H   0  0  0  0  0  0
  -29.5912  -27.9193   22.1494 H   0  0  0  0  0  0
  -30.7161  -27.2155   20.9937 H   0  0  0  0  0  0
  -30.2478  -24.8369   20.0013 H   0  0  0  0  0  0
  -30.3384  -24.4303   21.6840 H   0  0  0  0  0  0
  -30.4147  -22.1125   21.4617 H   0  0  0  0  0  0
  -30.0702  -21.8417   19.7614 H   0  0  0  0  0  0
  -29.3311  -14.8449   21.9966 H   0  0  0  0  0  0
  -27.8983  -21.1123   21.5951 H   0  0  0  0  0  0
  1 25  1  0  0  0
  1 30  2  0  0  0
  1 83  1  0  0  0
  2  3  1  0  0  0
  2 25  1  0  0  0
  2 87  1  0  0  0
  2 88  1  0  0  0
  3  4  1  0  0  0
  3 89  1  0  0  0
  3 90  1  0  0  0
  4  5  1  0  0  0
  4 91  1  0  0  0
  4 92  1  0  0  0
  5  6  1  0  0  0
  5 26  1  0  0  0
  5 93  1  0  0  0
  6 25  1  0  0  0
  6 94  1  0  0  0
  6 95  1  0  0  0
  7  8  2  0  0  0
  7 26  1  0  0  0
  7 29  1  0  0  0
  8  9  1  0  0  0
  8 22  1  0  0  0
  9 10  1  0  0  0
  9 27  2  0  0  0
 10 11  2  0  0  0
 10 15  1  0  0  0
 11 12  1  0  0  0
 11 96  1  0  0  0
 12 13  2  0  0  0
 12 97  1  0  0  0
 13 14  1  0  0  0
 13 31  1  0  0  0
 14 15  2  0  0  0
 14 98  1  0  0  0
 15 99  1  0  0  0
 16 17  2  0  0  0
 16 21  1  0  0  0
 16 31  1  0  0  0
 17 18  1  0  0  0
 17100  1  0  0  0
 18 19  2  0  0  0
 18101  1  0  0  0
 19 20  1  0  0  0
 19 24  1  0  0  0
 20 21  2  0  0  0
 20102  1  0  0  0
 21 23  1  0  0  0
 22 28  1  0  0  0
 22 32  2  0  0  0
 26 27  1  0  0  0
 28103  1  0  0  0
 28104  1  0  0  0
 29105  1  0  0  0
 29106  1  0  0  0
 33 34  1  0  0  0
 33 66  1  0  0  0
 33 70  2  0  0  0
 34 36  1  0  0  0
 34 59  1  0  0  0
 34107  1  0  0  0
 35 44  2  0  0  0
 35 45  1  0  0  0
 35 68  1  0  0  0
 36 56  1  0  0  0
 36108  1  0  0  0
 37 39  1  0  0  0
 37 47  1  0  0  0
 37 66  1  0  0  0
 37109  1  0  0  0
 38 43  2  0  0  0
 38 46  1  0  0  0
 38 47  1  0  0  0
 39 64  1  0  0  0
 39 67  2  0  0  0
 40 52  1  0  0  0
 40 53  2  0  0  0
 40 58  1  0  0  0
 41110  1  0  0  0
 41111  1  0  0  0
 41112  1  0  0  0
 41 48  1  0  0  0
 42 43  1  0  0  0
 42 66  1  0  0  0
 42113  1  0  0  0
 42114  1  0  0  0
 43 44  1  0  0  0
 44115  1  0  0  0
 45 46  2  0  0  0
 45116  1  0  0  0
 46117  1  0  0  0
 47118  1  0  0  0
 47119  1  0  0  0
 48 56  1  0  0  0
 48 65  1  0  0  0
 48120  1  0  0  0
 49 50  1  0  0  0
 49 53  1  0  0  0
 49 64  1  0  0  0
 49121  1  0  0  0
 50 51  1  0  0  0
 50122  1  0  0  0
 50123  1  0  0  0
 51 52  1  0  0  0
 51124  1  0  0  0
 51125  1  0  0  0
 52126  1  0  0  0
 52127  1  0  0  0
 53 54  1  0  0  0
 54 55  2  0  0  0
 54128  1  0  0  0
 55 57  1  0  0  0
 55129  1  0  0  0
 56 69  2  0  0  0
 57 58  2  0  0  0
 57130  1  0  0  0
 58131  1  0  0  0
 59 60  1  0  0  0
 59 61  1  0  0  0
 59 62  1  0  0  0
 60132  1  0  0  0
 60133  1  0  0  0
 60134  1  0  0  0
 61135  1  0  0  0
 61136  1  0  0  0
 61137  1  0  0  0
 62138  1  0  0  0
 62139  1  0  0  0
 62140  1  0  0  0
 63 65  1  0  0  0
 63141  1  0  0  0
 63142  1  0  0  0
 63143  1  0  0  0
 64144  1  0  0  0
 65145  1  0  0  0
 68 82  1  0  0  0
 71 72  2  0  0  0
 71 74  1  0  0  0
 71146  1  0  0  0
 72 75  1  0  0  0
 72147  1  0  0  0
 73 74  2  0  0  0
 73 76  1  0  0  0
 73148  1  0  0  0
 74 83  1  0  0  0
 75 76  2  0  0  0
 75 84  1  0  0  0
 76 86  1  0  0  0
 77 80  1  0  0  0
 77 81  1  0  0  0
 77 85  2  0  0  0
 78149  1  0  0  0
 78150  1  0  0  0
 78151  1  0  0  0
 78 82  1  0  0  0
 79 82  1  0  0  0
 79152  1  0  0  0
 79153  1  0  0  0
 79154  1  0  0  0
 80 82  1  0  0  0
 80155  1  0  0  0
 80156  1  0  0  0
 81 84  1  0  0  0
 81157  1  0  0  0
 81158  1  0  0  0
 83159  1  0  0  0
 84160  1  0  0  0
M  ISO  4   1 100  68 101  82 101  83 100
M  END
> <chiral flag>
0

> <version>
0

> <s_m_source_file>
/data/baiqing/PycharmProjects/Reinvent-master-3.2/result/LINK_invent/BTK/process_docking_weight1_custom_product_contain_oxygen_bond_distance_aromatic_linkinvent_7_9_3/rearranged_h_0169.sdf

> <i_m_source_file_index>
38

> <r_mmod_Potential_Energy-OPLS-2005>
-13.9704866409302

> <r_mmod_Stretch_Energy-OPLS-2005>
45.3464775085449

> <r_mmod_Bend_Energy-OPLS-2005>
136.30029296875

> <r_mmod_Torsional_Energy-OPLS-2005>
212.719650268555

> <r_mmod_Improper_Torsional_Energy-OPLS-2005>
4.71846771240234

> <r_mmod_Van_der_Waal_Energy-OPLS-2005>
146.371292114258

> <r_mmod_Electrostatic_Energy-OPLS-2005>
-348.8876953125

> <r_mmod_Solvation_Energy-OPLS-2005>
-222.788208007812

> <b_mmod_Minimization_Converged-OPLS-2005>
0

> <r_mmod_RMS_Derivative-OPLS-2005>
2.78658294677734

$$$$
38
                    3D
 Structure written by MMmdl.
161170  0  0  1  0            999 V2000
  -30.5628  -14.6984   20.5160 C   0  0  0  0  0  0
  -30.4514  -12.4330   19.4633 C   0  0  0  0  0  0
  -29.5147  -12.5099   18.2344 C   0  0  0  0  0  0
  -28.0351  -12.3478   18.6388 C   0  0  0  0  0  0
  -27.6532  -13.2127   19.8674 C   0  0  2  0  0  0
  -28.6946  -13.0630   20.9978 C   0  0  0  0  0  0
  -25.2581  -13.8159   20.5708 C   0  0  0  0  0  0
  -24.1835  -13.0432   20.9185 C   0  0  0  0  0  0
  -24.6390  -11.6904   20.8733 C   0  0  0  0  0  0
  -23.9055  -10.4293   21.0391 C   0  0  0  0  0  0
  -24.3600   -9.4211   21.9179 C   0  0  0  0  0  0
  -23.6292   -8.2243   22.0757 C   0  0  0  0  0  0
  -22.4270   -8.0281   21.3551 C   0  0  0  0  0  0
  -21.9899   -9.0248   20.4645 C   0  0  0  0  0  0
  -22.7222  -10.2129   20.3042 C   0  0  0  0  0  0
  -21.6854   -6.0721   22.5278 C   0  0  0  0  0  0
  -21.4020   -6.5633   23.8209 C   0  0  0  0  0  0
  -21.3663   -5.6783   24.9172 C   0  0  0  0  0  0
  -21.6033   -4.3047   24.7228 C   0  0  0  0  0  0
  -21.8827   -3.8134   23.4351 C   0  0  0  0  0  0
  -21.9209   -4.6956   22.3406 C   0  0  0  0  0  0
  -22.7865  -13.5247   21.1866 C   0  0  0  0  0  0
  -22.1674   -4.2125   21.0983 F   0  0  0  0  0  0
  -21.5624   -3.4535   25.7742 F   0  0  0  0  0  0
  -30.0040  -13.4446   20.4441 N   0  0  0  0  0  0
  -26.2984  -12.9315   20.3333 N   0  0  0  0  0  0
  -25.9314  -11.6472   20.5736 N   0  0  0  0  0  0
  -22.0509  -12.8220   22.0399 N   0  0  0  0  0  0
  -25.4333  -15.1883   20.4150 N   0  0  0  0  0  0
  -31.7086  -14.9106   20.0985 O   0  0  0  0  0  0
  -21.6653   -6.8872   21.4236 O   0  0  0  0  0  0
  -22.3556  -14.5558   20.6736 O   0  0  0  0  0  0
  -24.6264  -31.8552   23.1965 C   0  0  0  0  0  0
  -25.9107  -32.4724   23.8302 C   0  0  1  0  0  0
  -27.2314  -27.2975   20.1428 C   0  0  0  0  0  0
  -25.5932  -33.8522   24.2257 N   0  0  0  0  0  0
  -23.4217  -30.4796   21.5318 C   0  0  2  0  0  0
  -24.8722  -28.9225   20.1180 C   0  0  0  0  0  0
  -22.7489  -29.4599   22.4831 C   0  0  0  0  0  0
  -18.0310  -28.1392   22.8458 C   0  0  0  0  0  0
  -24.1491  -36.7248   23.2660 C   0  0  0  0  0  0
  -25.9614  -30.7841   21.3658 C   0  0  0  0  0  0
  -26.0385  -29.4051   20.7223 C   0  0  0  0  0  0
  -27.2242  -28.6059   20.7190 C   0  0  0  0  0  0
  -26.0346  -26.8590   19.5383 C   0  0  0  0  0  0
  -24.8744  -27.6550   19.5155 C   0  0  0  0  0  0
  -23.6434  -29.8090   20.1508 C   0  0  0  0  0  0
  -25.4095  -36.3005   24.0353 C   0  0  1  0  0  0
  -20.5920  -28.3670   23.1276 C   0  0  2  0  0  0
  -20.6771  -26.9372   22.5405 C   0  0  0  0  0  0
  -19.5756  -26.6362   21.5208 C   0  0  0  0  0  0
  -18.1943  -26.7923   22.1619 C   0  0  0  0  0  0
  -19.1561  -28.8844   23.2877 C   0  0  0  0  0  0
  -18.9505  -30.1464   23.8861 C   0  0  0  0  0  0
  -17.6499  -30.6578   24.0567 C   0  0  0  0  0  0
  -25.9048  -34.9406   23.5105 C   0  0  0  0  0  0
  -16.5403  -29.9062   23.6340 C   0  0  0  0  0  0
  -16.7299  -28.6519   23.0291 C   0  0  0  0  0  0
  -26.4488  -31.6525   25.0682 C   0  0  0  0  0  0
  -25.3759  -31.3695   26.1438 C   0  0  0  0  0  0
  -27.0331  -30.2961   24.6105 C   0  0  0  0  0  0
  -27.6049  -32.4255   25.7467 C   0  0  0  0  0  0
  -27.5534  -37.1767   24.8479 C   0  0  0  0  0  0
  -21.4181  -29.3052   22.3640 N   0  0  0  0  0  0
  -26.4234  -37.3727   23.9433 N   0  0  0  0  0  0
  -24.6878  -31.0596   22.0891 N   0  0  0  0  0  0
  -23.4238  -28.8126   23.2886 O   0  0  0  0  0  0
  -28.3752  -26.4839   20.1000 O   0  0  0  0  0  0
  -26.5591  -34.8890   22.4658 O   0  0  0  0  0  0
  -23.5424  -32.1339   23.7290 O   0  0  0  0  0  0
  -28.6289  -17.8253   21.6069 C   0  0  0  0  0  0
  -30.4238  -18.0254   20.0301 C   0  0  0  0  0  0
  -28.4100  -19.2365   21.5635 C   0  0  0  0  0  0
  -29.1941  -20.1067   20.7470 C   0  0  0  0  0  0
  -29.6391  -17.1659   20.8541 C   0  0  0  0  0  0
  -30.2107  -19.4472   19.9771 C   0  0  0  0  0  0
  -28.2638  -23.8894   19.6073 C   0  0  0  0  0  0
  -27.3559  -19.8513   22.4792 C   0  0  0  0  0  0
  -27.9844  -20.6175   23.6645 C   0  0  0  0  0  0
  -29.3953  -21.1785   23.3685 C   0  0  0  0  0  0
  -29.4547  -22.1165   22.1371 C   0  0  0  0  0  0
  -29.0626  -22.4945   19.6855 C   0  0  0  0  0  0
  -28.3805  -25.0883   20.6416 C   0  0  0  0  0  0
  -28.9995  -21.5454   20.8566 N   0  0  0  0  0  0
  -29.7231  -15.6949   20.9699 N   0  0  0  0  0  0
  -27.5323  -24.0534   18.6267 O   0  0  0  0  0  0
  -31.0384  -20.1868   19.1983 F   0  0  0  0  0  0
  -31.4861  -12.5993   19.1594 H   0  0  0  0  0  0
  -30.4263  -11.4388   19.9120 H   0  0  0  0  0  0
  -29.7850  -11.7419   17.5078 H   0  0  0  0  0  0
  -29.6464  -13.4659   17.7276 H   0  0  0  0  0  0
  -27.8633  -11.2944   18.8609 H   0  0  0  0  0  0
  -27.3855  -12.5859   17.7938 H   0  0  0  0  0  0
  -27.6711  -14.2503   19.5332 H   0  0  0  0  0  0
  -28.7225  -12.0315   21.3509 H   0  0  0  0  0  0
  -28.4259  -13.6645   21.8666 H   0  0  0  0  0  0
  -25.2746   -9.5694   22.4764 H   0  0  0  0  0  0
  -24.0004   -7.4624   22.7466 H   0  0  0  0  0  0
  -21.0836   -8.8754   19.8941 H   0  0  0  0  0  0
  -22.3681  -10.9663   19.6149 H   0  0  0  0  0  0
  -21.2008   -7.6136   23.9701 H   0  0  0  0  0  0
  -21.1477   -6.0516   25.9071 H   0  0  0  0  0  0
  -22.0608   -2.7588   23.2862 H   0  0  0  0  0  0
  -22.4141  -11.9880   22.4755 H   0  0  0  0  0  0
  -21.1122  -13.1231   22.2587 H   0  0  0  0  0  0
  -24.6712  -15.8480   20.5365 H   0  0  0  0  0  0
  -26.2823  -15.6232   20.0779 H   0  0  0  0  0  0
  -26.7151  -32.5389   23.1014 H   0  0  0  0  0  0
  -25.0087  -33.9669   25.0400 H   0  0  0  0  0  0
  -22.7175  -31.3010   21.3742 H   0  0  0  0  0  0
  -23.3740  -35.9608   23.3291 H   0  0  0  0  0  0
  -24.3620  -36.8896   22.2094 H   0  0  0  0  0  0
  -23.7272  -37.6463   23.6690 H   0  0  0  0  0  0
  -26.0937  -31.5363   20.5867 H   0  0  0  0  0  0
  -26.8447  -30.8433   21.9885 H   0  0  0  0  0  0
  -28.1210  -28.9768   21.1937 H   0  0  0  0  0  0
  -25.9852  -25.8884   19.0716 H   0  0  0  0  0  0
  -23.9788  -27.2732   19.0447 H   0  0  0  0  0  0
  -23.7737  -30.5772   19.3866 H   0  0  0  0  0  0
  -22.7659  -29.2419   19.8379 H   0  0  0  0  0  0
  -25.1275  -36.1823   25.0848 H   0  0  0  0  0  0
  -21.0084  -28.3196   24.1372 H   0  0  0  0  0  0
  -20.5667  -26.2232   23.3577 H   0  0  0  0  0  0
  -21.6610  -26.7331   22.1206 H   0  0  0  0  0  0
  -19.6886  -25.6290   21.1180 H   0  0  0  0  0  0
  -19.6697  -27.3219   20.6787 H   0  0  0  0  0  0
  -17.4189  -26.6698   21.4034 H   0  0  0  0  0  0
  -18.0318  -26.0094   22.9056 H   0  0  0  0  0  0
  -19.8004  -30.7296   24.2160 H   0  0  0  0  0  0
  -17.5081  -31.6255   24.5176 H   0  0  0  0  0  0
  -15.5411  -30.2953   23.7712 H   0  0  0  0  0  0
  -15.8705  -28.0878   22.6911 H   0  0  0  0  0  0
  -24.5942  -30.6987   25.7810 H   0  0  0  0  0  0
  -24.8933  -32.2888   26.4806 H   0  0  0  0  0  0
  -25.8142  -30.8943   27.0227 H   0  0  0  0  0  0
  -26.2899  -29.6719   24.1112 H   0  0  0  0  0  0
  -27.4075  -29.7189   25.4574 H   0  0  0  0  0  0
  -27.8731  -30.4263   23.9275 H   0  0  0  0  0  0
  -27.2635  -33.3567   26.1990 H   0  0  0  0  0  0
  -28.3879  -32.6800   25.0307 H   0  0  0  0  0  0
  -28.0652  -31.8400   26.5432 H   0  0  0  0  0  0
  -28.2526  -38.0074   24.7469 H   0  0  0  0  0  0
  -28.1039  -36.2598   24.6327 H   0  0  0  0  0  0
  -27.2277  -37.1473   25.8894 H   0  0  0  0  0  0
  -20.9300  -29.8868   21.6947 H   0  0  0  0  0  0
  -26.0088  -38.2793   24.1458 H   0  0  0  0  0  0
  -28.0133  -17.2345   22.2715 H   0  0  0  0  0  0
  -31.2089  -17.6089   19.4140 H   0  0  0  0  0  0
  -26.6539  -19.0985   22.8395 H   0  0  0  0  0  0
  -26.7566  -20.5411   21.8815 H   0  0  0  0  0  0
  -28.0758  -19.9389   24.5162 H   0  0  0  0  0  0
  -27.3023  -21.4081   23.9888 H   0  0  0  0  0  0
  -30.1106  -20.3612   23.2635 H   0  0  0  0  0  0
  -29.7441  -21.7223   24.2459 H   0  0  0  0  0  0
  -30.4774  -22.4827   22.0092 H   0  0  0  0  0  0
  -28.8428  -22.9914   22.3575 H   0  0  0  0  0  0
  -30.1029  -22.6890   19.4164 H   0  0  0  0  0  0
  -28.6679  -21.9182   18.8461 H   0  0  0  0  0  0
  -29.3116  -24.9495   21.1968 H   0  0  0  0  0  0
  -27.5791  -24.9817   21.3745 H   0  0  0  0  0  0
  -28.9028  -15.2864   21.3949 H   0  0  0  0  0  0
  1 25  1  0  0  0
  1 30  2  0  0  0
  1 85  1  0  0  0
  2  3  1  0  0  0
  2 25  1  0  0  0
  2 88  1  0  0  0
  2 89  1  0  0  0
  3  4  1  0  0  0
  3 90  1  0  0  0
  3 91  1  0  0  0
  4  5  1  0  0  0
  4 92  1  0  0  0
  4 93  1  0  0  0
  5  6  1  0  0  0
  5 26  1  0  0  0
  5 94  1  0  0  0
  6 25  1  0  0  0
  6 95  1  0  0  0
  6 96  1  0  0  0
  7  8  2  0  0  0
  7 26  1  0  0  0
  7 29  1  0  0  0
  8  9  1  0  0  0
  8 22  1  0  0  0
  9 10  1  0  0  0
  9 27  2  0  0  0
 10 11  2  0  0  0
 10 15  1  0  0  0
 11 12  1  0  0  0
 11 97  1  0  0  0
 12 13  2  0  0  0
 12 98  1  0  0  0
 13 14  1  0  0  0
 13 31  1  0  0  0
 14 15  2  0  0  0
 14 99  1  0  0  0
 15100  1  0  0  0
 16 17  2  0  0  0
 16 21  1  0  0  0
 16 31  1  0  0  0
 17 18  1  0  0  0
 17101  1  0  0  0
 18 19  2  0  0  0
 18102  1  0  0  0
 19 20  1  0  0  0
 19 24  1  0  0  0
 20 21  2  0  0  0
 20103  1  0  0  0
 21 23  1  0  0  0
 22 28  1  0  0  0
 22 32  2  0  0  0
 26 27  1  0  0  0
 28104  1  0  0  0
 28105  1  0  0  0
 29106  1  0  0  0
 29107  1  0  0  0
 33 34  1  0  0  0
 33 66  1  0  0  0
 33 70  2  0  0  0
 34 36  1  0  0  0
 34 59  1  0  0  0
 34108  1  0  0  0
 35 44  2  0  0  0
 35 45  1  0  0  0
 35 68  1  0  0  0
 36 56  1  0  0  0
 36109  1  0  0  0
 37 39  1  0  0  0
 37 47  1  0  0  0
 37 66  1  0  0  0
 37110  1  0  0  0
 38 43  2  0  0  0
 38 46  1  0  0  0
 38 47  1  0  0  0
 39 64  1  0  0  0
 39 67  2  0  0  0
 40 52  1  0  0  0
 40 53  2  0  0  0
 40 58  1  0  0  0
 41111  1  0  0  0
 41112  1  0  0  0
 41113  1  0  0  0
 41 48  1  0  0  0
 42 43  1  0  0  0
 42 66  1  0  0  0
 42114  1  0  0  0
 42115  1  0  0  0
 43 44  1  0  0  0
 44116  1  0  0  0
 45 46  2  0  0  0
 45117  1  0  0  0
 46118  1  0  0  0
 47119  1  0  0  0
 47120  1  0  0  0
 48 56  1  0  0  0
 48 65  1  0  0  0
 48121  1  0  0  0
 49 50  1  0  0  0
 49 53  1  0  0  0
 49 64  1  0  0  0
 49122  1  0  0  0
 50 51  1  0  0  0
 50123  1  0  0  0
 50124  1  0  0  0
 51 52  1  0  0  0
 51125  1  0  0  0
 51126  1  0  0  0
 52127  1  0  0  0
 52128  1  0  0  0
 53 54  1  0  0  0
 54 55  2  0  0  0
 54129  1  0  0  0
 55 57  1  0  0  0
 55130  1  0  0  0
 56 69  2  0  0  0
 57 58  2  0  0  0
 57131  1  0  0  0
 58132  1  0  0  0
 59 60  1  0  0  0
 59 61  1  0  0  0
 59 62  1  0  0  0
 60133  1  0  0  0
 60134  1  0  0  0
 60135  1  0  0  0
 61136  1  0  0  0
 61137  1  0  0  0
 61138  1  0  0  0
 62139  1  0  0  0
 62140  1  0  0  0
 62141  1  0  0  0
 63 65  1  0  0  0
 63142  1  0  0  0
 63143  1  0  0  0
 63144  1  0  0  0
 64145  1  0  0  0
 65146  1  0  0  0
 68 83  1  0  0  0
 71 73  2  0  0  0
 71 75  1  0  0  0
 71147  1  0  0  0
 72 75  2  0  0  0
 72 76  1  0  0  0
 72148  1  0  0  0
 73 74  1  0  0  0
 73 78  1  0  0  0
 74 76  2  0  0  0
 74 84  1  0  0  0
 75 85  1  0  0  0
 76 87  1  0  0  0
 77 82  1  0  0  0
 77 83  1  0  0  0
 77 86  2  0  0  0
 78 79  1  0  0  0
 78149  1  0  0  0
 78150  1  0  0  0
 79 80  1  0  0  0
 79151  1  0  0  0
 79152  1  0  0  0
 80 81  1  0  0  0
 80153  1  0  0  0
 80154  1  0  0  0
 81 84  1  0  0  0
 81155  1  0  0  0
 81156  1  0  0  0
 82 84  1  0  0  0
 82157  1  0  0  0
 82158  1  0  0  0
 83159  1  0  0  0
 83160  1  0  0  0
 85161  1  0  0  0
M  ISO  4   1 100  68 101  83 101  85 100
M  END
> <chiral flag>
0

> <version>
0

> <s_m_source_file>
/data/baiqing/PycharmProjects/Reinvent-master-3.2/result/LINK_invent/BTK/process_docking_weight1_custom_product_contain_oxygen_bond_distance_aromatic_linkinvent_7_9_3/rearranged_h_0169.sdf

> <i_m_source_file_index>
39

> <r_mmod_Potential_Energy-OPLS-2005>
259.867370605469

> <r_mmod_Stretch_Energy-OPLS-2005>
104.79027557373

> <r_mmod_Bend_Energy-OPLS-2005>
193.384246826172

> <r_mmod_Torsional_Energy-OPLS-2005>
263.09228515625

> <r_mmod_Improper_Torsional_Energy-OPLS-2005>
6.37099504470825

> <r_mmod_Van_der_Waal_Energy-OPLS-2005>
146.088668823242

> <r_mmod_Electrostatic_Energy-OPLS-2005>
-288.455871582031

> <r_mmod_Solvation_Energy-OPLS-2005>
-226.690505981445

> <b_mmod_Minimization_Converged-OPLS-2005>
0

> <r_mmod_RMS_Derivative-OPLS-2005>
5.67412328720093

$$$$
39
                    3D
 Structure written by MMmdl.
158166  0  0  1  0            999 V2000
  -30.7209  -14.4967   20.5362 C   0  0  0  0  0  0
  -30.4109  -12.3134   19.4322 C   0  0  0  0  0  0
  -29.4912  -12.4932   18.2086 C   0  0  0  0  0  0
  -28.0138  -12.3535   18.6228 C   0  0  0  0  0  0
  -27.6537  -13.2142   19.8641 C   0  0  2  0  0  0
  -28.6982  -13.0456   20.9912 C   0  0  0  0  0  0
  -25.2564  -13.8183   20.5689 C   0  0  0  0  0  0
  -24.1831  -13.0450   20.9199 C   0  0  0  0  0  0
  -24.6393  -11.6918   20.8748 C   0  0  0  0  0  0
  -23.9063  -10.4300   21.0410 C   0  0  0  0  0  0
  -24.3618   -9.4213   21.9184 C   0  0  0  0  0  0
  -23.6295   -8.2246   22.0752 C   0  0  0  0  0  0
  -22.4277   -8.0283   21.3543 C   0  0  0  0  0  0
  -21.9910   -9.0257   20.4646 C   0  0  0  0  0  0
  -22.7237  -10.2138   20.3057 C   0  0  0  0  0  0
  -21.6853   -6.0738   22.5280 C   0  0  0  0  0  0
  -21.4014   -6.5642   23.8214 C   0  0  0  0  0  0
  -21.3660   -5.6792   24.9176 C   0  0  0  0  0  0
  -21.6045   -4.3054   24.7227 C   0  0  0  0  0  0
  -21.8818   -3.8147   23.4347 C   0  0  0  0  0  0
  -21.9193   -4.6965   22.3403 C   0  0  0  0  0  0
  -22.7853  -13.5240   21.1855 C   0  0  0  0  0  0
  -22.1661   -4.2149   21.0981 F   0  0  0  0  0  0
  -21.5626   -3.4537   25.7738 F   0  0  0  0  0  0
  -30.0235  -13.3315   20.4231 N   0  0  0  0  0  0
  -26.2989  -12.9361   20.3332 N   0  0  0  0  0  0
  -25.9320  -11.6517   20.5769 N   0  0  0  0  0  0
  -22.0490  -12.8231   22.0405 N   0  0  0  0  0  0
  -25.4284  -15.1901   20.4085 N   0  0  0  0  0  0
  -31.8831  -14.5798   20.1301 O   0  0  0  0  0  0
  -21.6640   -6.8880   21.4241 O   0  0  0  0  0  0
  -22.3542  -14.5545   20.6699 O   0  0  0  0  0  0
  -24.6155  -31.8674   23.2089 C   0  0  0  0  0  0
  -25.9044  -32.4820   23.8390 C   0  0  1  0  0  0
  -27.2284  -27.4263   20.1018 C   0  0  0  0  0  0
  -25.5898  -33.8617   24.2325 N   0  0  0  0  0  0
  -23.4041  -30.4908   21.5495 C   0  0  2  0  0  0
  -24.8513  -28.9561   20.1129 C   0  0  0  0  0  0
  -22.7418  -29.4655   22.4981 C   0  0  0  0  0  0
  -18.0273  -28.1375   22.8494 C   0  0  0  0  0  0
  -24.1488  -36.7316   23.2636 C   0  0  0  0  0  0
  -25.9337  -30.8325   21.3616 C   0  0  0  0  0  0
  -26.0126  -29.4665   20.7079 C   0  0  0  0  0  0
  -27.2090  -28.7105   20.6952 C   0  0  0  0  0  0
  -26.0540  -26.9327   19.4973 C   0  0  0  0  0  0
  -24.8674  -27.6897   19.5022 C   0  0  0  0  0  0
  -23.6130  -29.8231   20.1638 C   0  0  0  0  0  0
  -25.4107  -36.3110   24.0339 C   0  0  1  0  0  0
  -20.5866  -28.3663   23.1317 C   0  0  2  0  0  0
  -20.6763  -26.9399   22.5416 C   0  0  0  0  0  0
  -19.5742  -26.6386   21.5212 C   0  0  0  0  0  0
  -18.1923  -26.7921   22.1627 C   0  0  0  0  0  0
  -19.1523  -28.8835   23.2902 C   0  0  0  0  0  0
  -18.9449  -30.1442   23.8910 C   0  0  0  0  0  0
  -17.6452  -30.6584   24.0563 C   0  0  0  0  0  0
  -25.9035  -34.9475   23.5129 C   0  0  0  0  0  0
  -16.5343  -29.9085   23.6325 C   0  0  0  0  0  0
  -16.7262  -28.6501   23.0347 C   0  0  0  0  0  0
  -26.4470  -31.6595   25.0716 C   0  0  0  0  0  0
  -25.3743  -31.3716   26.1477 C   0  0  0  0  0  0
  -27.0281  -30.3031   24.6087 C   0  0  0  0  0  0
  -27.6062  -32.4301   25.7467 C   0  0  0  0  0  0
  -27.5586  -37.1806   24.8458 C   0  0  0  0  0  0
  -21.4144  -29.3031   22.3724 N   0  0  0  0  0  0
  -26.4291  -37.3796   23.9414 N   0  0  0  0  0  0
  -24.6695  -31.0775   22.0988 N   0  0  0  0  0  0
  -23.4191  -28.8198   23.3021 O   0  0  0  0  0  0
  -28.3620  -26.6444   20.1180 O   0  0  0  0  0  0
  -26.5598  -34.8928   22.4691 O   0  0  0  0  0  0
  -23.5345  -32.1422   23.7484 O   0  0  0  0  0  0
  -28.3947  -17.7923   22.1064 C   0  0  0  0  0  0
  -27.6684  -20.0923   21.7712 C   0  0  0  0  0  0
  -29.4408  -17.9655   21.1749 C   0  0  0  0  0  0
  -29.5651  -19.2271   20.4866 C   0  0  0  0  0  0
  -28.6960  -20.3205   20.8249 C   0  0  0  0  0  0
  -27.5104  -18.8422   22.3929 C   0  0  0  0  0  0
  -30.6173  -19.4178   19.4324 C   0  0  0  0  0  0
  -30.4657  -16.8540   21.0435 C   0  0  0  0  0  0
  -28.6221  -24.1514   20.1815 C   0  0  0  0  0  0
  -30.5779  -18.4644   18.2417 C   0  0  0  0  0  0
  -28.2462  -22.8104   20.8609 C   0  0  0  0  0  0
  -28.2168  -25.4493   20.9186 C   0  0  0  0  0  0
  -28.8207  -21.6056   20.2296 N   0  0  0  0  0  0
  -30.0062  -15.5841   20.9183 N   0  0  0  0  0  0
  -31.4546  -20.3246   19.4496 O   0  0  0  0  0  0
  -31.6613  -17.1659   21.0549 O   0  0  0  0  0  0
  -29.2337  -24.1701   19.1062 O   0  0  0  0  0  0
  -26.5181  -18.6574   23.2955 F   0  0  0  0  0  0
  -31.4571  -12.3862   19.1298 H   0  0  0  0  0  0
  -30.2957  -11.3144   19.8562 H   0  0  0  0  0  0
  -29.7352  -11.7566   17.4421 H   0  0  0  0  0  0
  -29.6587  -13.4726   17.7573 H   0  0  0  0  0  0
  -27.8319  -11.2999   18.8384 H   0  0  0  0  0  0
  -27.3615  -12.6067   17.7862 H   0  0  0  0  0  0
  -27.6818  -14.2536   19.5371 H   0  0  0  0  0  0
  -28.6773  -12.0270   21.3818 H   0  0  0  0  0  0
  -28.4670  -13.6933   21.8380 H   0  0  0  0  0  0
  -25.2764   -9.5688   22.4755 H   0  0  0  0  0  0
  -24.0005   -7.4636   22.7470 H   0  0  0  0  0  0
  -21.0840   -8.8778   19.8952 H   0  0  0  0  0  0
  -22.3697  -10.9677   19.6165 H   0  0  0  0  0  0
  -21.2007   -7.6150   23.9717 H   0  0  0  0  0  0
  -21.1482   -6.0523   25.9079 H   0  0  0  0  0  0
  -22.0597   -2.7609   23.2846 H   0  0  0  0  0  0
  -22.4100  -11.9891   22.4797 H   0  0  0  0  0  0
  -21.1107  -13.1260   22.2601 H   0  0  0  0  0  0
  -24.6583  -15.8415   20.5138 H   0  0  0  0  0  0
  -26.2665  -15.6268   20.0487 H   0  0  0  0  0  0
  -26.7115  -32.5533   23.1155 H   0  0  0  0  0  0
  -25.0052  -33.9776   25.0471 H   0  0  0  0  0  0
  -22.6931  -31.3078   21.4104 H   0  0  0  0  0  0
  -23.3746  -35.9654   23.3305 H   0  0  0  0  0  0
  -24.3586  -36.8920   22.2049 H   0  0  0  0  0  0
  -23.7246  -37.6528   23.6639 H   0  0  0  0  0  0
  -26.0451  -31.5991   20.5934 H   0  0  0  0  0  0
  -26.8220  -30.8864   21.9793 H   0  0  0  0  0  0
  -28.1060  -29.0978   21.1583 H   0  0  0  0  0  0
  -26.0554  -25.9588   19.0281 H   0  0  0  0  0  0
  -23.9750  -27.2926   19.0379 H   0  0  0  0  0  0
  -23.7206  -30.5980   19.4038 H   0  0  0  0  0  0
  -22.7371  -29.2425   19.8686 H   0  0  0  0  0  0
  -25.1281  -36.1974   25.0831 H   0  0  0  0  0  0
  -20.9962  -28.3224   24.1436 H   0  0  0  0  0  0
  -20.5671  -26.2268   23.3599 H   0  0  0  0  0  0
  -21.6634  -26.7444   22.1206 H   0  0  0  0  0  0
  -19.6905  -25.6303   21.1227 H   0  0  0  0  0  0
  -19.6684  -27.3206   20.6751 H   0  0  0  0  0  0
  -17.4195  -26.6667   21.4029 H   0  0  0  0  0  0
  -18.0329  -26.0059   22.9020 H   0  0  0  0  0  0
  -19.7927  -30.7249   24.2288 H   0  0  0  0  0  0
  -17.5010  -31.6266   24.5161 H   0  0  0  0  0  0
  -15.5343  -30.2991   23.7641 H   0  0  0  0  0  0
  -15.8663  -28.0826   22.7052 H   0  0  0  0  0  0
  -24.5874  -30.7113   25.7813 H   0  0  0  0  0  0
  -24.8985  -32.2883   26.4972 H   0  0  0  0  0  0
  -25.8092  -30.8835   27.0207 H   0  0  0  0  0  0
  -26.2809  -29.6806   24.1148 H   0  0  0  0  0  0
  -27.4053  -29.7257   25.4538 H   0  0  0  0  0  0
  -27.8652  -30.4340   23.9224 H   0  0  0  0  0  0
  -27.2704  -33.3602   26.2063 H   0  0  0  0  0  0
  -28.3859  -32.6854   25.0278 H   0  0  0  0  0  0
  -28.0742  -31.8405   26.5361 H   0  0  0  0  0  0
  -28.2593  -38.0113   24.7525 H   0  0  0  0  0  0
  -28.1090  -36.2647   24.6252 H   0  0  0  0  0  0
  -27.2311  -37.1421   25.8862 H   0  0  0  0  0  0
  -20.9302  -29.8755   21.6949 H   0  0  0  0  0  0
  -26.0182  -38.2874   24.1423 H   0  0  0  0  0  0
  -28.2832  -16.8621   22.6456 H   0  0  0  0  0  0
  -26.9702  -20.8694   22.0409 H   0  0  0  0  0  0
  -29.6471  -17.8977   18.2270 H   0  0  0  0  0  0
  -31.4139  -17.7671   18.2863 H   0  0  0  0  0  0
  -30.6482  -19.0267   17.3112 H   0  0  0  0  0  0
  -27.1579  -22.7408   20.8536 H   0  0  0  0  0  0
  -28.5567  -22.8594   21.9056 H   0  0  0  0  0  0
  -28.8523  -25.5501   21.7985 H   0  0  0  0  0  0
  -27.1974  -25.3320   21.2890 H   0  0  0  0  0  0
  -29.6458  -21.7941   19.6614 H   0  0  0  0  0  0
  -29.0207  -15.4443   21.0543 H   0  0  0  0  0  0
  1 25  1  0  0  0
  1 30  2  0  0  0
  1 84  1  0  0  0
  2  3  1  0  0  0
  2 25  1  0  0  0
  2 89  1  0  0  0
  2 90  1  0  0  0
  3  4  1  0  0  0
  3 91  1  0  0  0
  3 92  1  0  0  0
  4  5  1  0  0  0
  4 93  1  0  0  0
  4 94  1  0  0  0
  5  6  1  0  0  0
  5 26  1  0  0  0
  5 95  1  0  0  0
  6 25  1  0  0  0
  6 96  1  0  0  0
  6 97  1  0  0  0
  7  8  2  0  0  0
  7 26  1  0  0  0
  7 29  1  0  0  0
  8  9  1  0  0  0
  8 22  1  0  0  0
  9 10  1  0  0  0
  9 27  2  0  0  0
 10 11  2  0  0  0
 10 15  1  0  0  0
 11 12  1  0  0  0
 11 98  1  0  0  0
 12 13  2  0  0  0
 12 99  1  0  0  0
 13 14  1  0  0  0
 13 31  1  0  0  0
 14 15  2  0  0  0
 14100  1  0  0  0
 15101  1  0  0  0
 16 17  2  0  0  0
 16 21  1  0  0  0
 16 31  1  0  0  0
 17 18  1  0  0  0
 17102  1  0  0  0
 18 19  2  0  0  0
 18103  1  0  0  0
 19 20  1  0  0  0
 19 24  1  0  0  0
 20 21  2  0  0  0
 20104  1  0  0  0
 21 23  1  0  0  0
 22 28  1  0  0  0
 22 32  2  0  0  0
 26 27  1  0  0  0
 28105  1  0  0  0
 28106  1  0  0  0
 29107  1  0  0  0
 29108  1  0  0  0
 33 34  1  0  0  0
 33 66  1  0  0  0
 33 70  2  0  0  0
 34 36  1  0  0  0
 34 59  1  0  0  0
 34109  1  0  0  0
 35 44  2  0  0  0
 35 45  1  0  0  0
 35 68  1  0  0  0
 36 56  1  0  0  0
 36110  1  0  0  0
 37 39  1  0  0  0
 37 47  1  0  0  0
 37 66  1  0  0  0
 37111  1  0  0  0
 38 43  2  0  0  0
 38 46  1  0  0  0
 38 47  1  0  0  0
 39 64  1  0  0  0
 39 67  2  0  0  0
 40 52  1  0  0  0
 40 53  2  0  0  0
 40 58  1  0  0  0
 41112  1  0  0  0
 41113  1  0  0  0
 41114  1  0  0  0
 41 48  1  0  0  0
 42 43  1  0  0  0
 42 66  1  0  0  0
 42115  1  0  0  0
 42116  1  0  0  0
 43 44  1  0  0  0
 44117  1  0  0  0
 45 46  2  0  0  0
 45118  1  0  0  0
 46119  1  0  0  0
 47120  1  0  0  0
 47121  1  0  0  0
 48 56  1  0  0  0
 48 65  1  0  0  0
 48122  1  0  0  0
 49 50  1  0  0  0
 49 53  1  0  0  0
 49 64  1  0  0  0
 49123  1  0  0  0
 50 51  1  0  0  0
 50124  1  0  0  0
 50125  1  0  0  0
 51 52  1  0  0  0
 51126  1  0  0  0
 51127  1  0  0  0
 52128  1  0  0  0
 52129  1  0  0  0
 53 54  1  0  0  0
 54 55  2  0  0  0
 54130  1  0  0  0
 55 57  1  0  0  0
 55131  1  0  0  0
 56 69  2  0  0  0
 57 58  2  0  0  0
 57132  1  0  0  0
 58133  1  0  0  0
 59 60  1  0  0  0
 59 61  1  0  0  0
 59 62  1  0  0  0
 60134  1  0  0  0
 60135  1  0  0  0
 60136  1  0  0  0
 61137  1  0  0  0
 61138  1  0  0  0
 61139  1  0  0  0
 62140  1  0  0  0
 62141  1  0  0  0
 62142  1  0  0  0
 63 65  1  0  0  0
 63143  1  0  0  0
 63144  1  0  0  0
 63145  1  0  0  0
 64146  1  0  0  0
 65147  1  0  0  0
 68 82  1  0  0  0
 71 73  2  0  0  0
 71 76  1  0  0  0
 71148  1  0  0  0
 72 75  1  0  0  0
 72 76  2  0  0  0
 72149  1  0  0  0
 73 74  1  0  0  0
 73 78  1  0  0  0
 74 75  2  0  0  0
 74 77  1  0  0  0
 75 83  1  0  0  0
 76 88  1  0  0  0
 77 80  1  0  0  0
 77 85  2  0  0  0
 78 84  1  0  0  0
 78 86  2  0  0  0
 79 81  1  0  0  0
 79 82  1  0  0  0
 79 87  2  0  0  0
 80150  1  0  0  0
 80151  1  0  0  0
 80152  1  0  0  0
 81 83  1  0  0  0
 81153  1  0  0  0
 81154  1  0  0  0
 82155  1  0  0  0
 82156  1  0  0  0
 83157  1  0  0  0
 84158  1  0  0  0
M  ISO  4   1 100  68 101  82 101  84 100
M  END
> <chiral flag>
0

> <version>
0

> <s_m_source_file>
/data/baiqing/PycharmProjects/Reinvent-master-3.2/result/LINK_invent/BTK/process_docking_weight1_custom_product_contain_oxygen_bond_distance_aromatic_linkinvent_7_9_3/rearranged_h_0169.sdf

> <i_m_source_file_index>
40

> <r_mmod_Potential_Energy-OPLS-2005>
-82.01318359375

> <r_mmod_Stretch_Energy-OPLS-2005>
48.2508659362793

> <r_mmod_Bend_Energy-OPLS-2005>
102.101104736328

> <r_mmod_Torsional_Energy-OPLS-2005>
276.704650878906

> <r_mmod_Improper_Torsional_Energy-OPLS-2005>
7.40838289260864

> <r_mmod_Van_der_Waal_Energy-OPLS-2005>
168.566741943359

> <r_mmod_Electrostatic_Energy-OPLS-2005>
-442.555084228516

> <r_mmod_Solvation_Energy-OPLS-2005>
-261.652923583984

> <b_mmod_Minimization_Converged-OPLS-2005>
0

> <r_mmod_RMS_Derivative-OPLS-2005>
0.401316702365875

$$$$
40
                    3D
 Structure written by MMmdl.
150158  0  0  1  0            999 V2000
  -30.5816  -14.7696   20.4532 C   0  0  0  0  0  0
  -30.4410  -12.4702   19.4678 C   0  0  0  0  0  0
  -29.5126  -12.5075   18.2331 C   0  0  0  0  0  0
  -28.0389  -12.3255   18.6486 C   0  0  0  0  0  0
  -27.6410  -13.2268   19.8474 C   0  0  2  0  0  0
  -28.6875  -13.1622   20.9808 C   0  0  0  0  0  0
  -25.2513  -13.8181   20.5687 C   0  0  0  0  0  0
  -24.1804  -13.0433   20.9212 C   0  0  0  0  0  0
  -24.6389  -11.6910   20.8750 C   0  0  0  0  0  0
  -23.9064  -10.4289   21.0408 C   0  0  0  0  0  0
  -24.3617   -9.4204   21.9183 C   0  0  0  0  0  0
  -23.6289   -8.2242   22.0754 C   0  0  0  0  0  0
  -22.4272   -8.0279   21.3544 C   0  0  0  0  0  0
  -21.9906   -9.0252   20.4648 C   0  0  0  0  0  0
  -22.7236  -10.2131   20.3057 C   0  0  0  0  0  0
  -21.6853   -6.0732   22.5276 C   0  0  0  0  0  0
  -21.4015   -6.5636   23.8209 C   0  0  0  0  0  0
  -21.3659   -5.6789   24.9171 C   0  0  0  0  0  0
  -21.6046   -4.3052   24.7223 C   0  0  0  0  0  0
  -21.8819   -3.8143   23.4345 C   0  0  0  0  0  0
  -21.9192   -4.6960   22.3402 C   0  0  0  0  0  0
  -22.7827  -13.5220   21.1871 C   0  0  0  0  0  0
  -22.1662   -4.2146   21.0979 F   0  0  0  0  0  0
  -21.5629   -3.4535   25.7736 F   0  0  0  0  0  0
  -29.9834  -13.5291   20.3957 N   0  0  0  0  0  0
  -26.2932  -12.9378   20.3264 N   0  0  0  0  0  0
  -25.9316  -11.6528   20.5745 N   0  0  0  0  0  0
  -22.0472  -12.8212   22.0427 N   0  0  0  0  0  0
  -25.4182  -15.1908   20.4091 N   0  0  0  0  0  0
  -31.7809  -14.8811   20.1801 O   0  0  0  0  0  0
  -21.6640   -6.8875   21.4239 O   0  0  0  0  0  0
  -22.3514  -14.5525   20.6713 O   0  0  0  0  0  0
  -24.6312  -31.8537   23.1959 C   0  0  0  0  0  0
  -25.9132  -32.4747   23.8315 C   0  0  1  0  0  0
  -27.2263  -27.2558   20.1439 C   0  0  0  0  0  0
  -25.5923  -33.8548   24.2241 N   0  0  0  0  0  0
  -23.4294  -30.4728   21.5393 C   0  0  2  0  0  0
  -24.8788  -28.9093   20.1182 C   0  0  0  0  0  0
  -22.7502  -29.4589   22.4915 C   0  0  0  0  0  0
  -18.0290  -28.1390   22.8482 C   0  0  0  0  0  0
  -24.1490  -36.7282   23.2642 C   0  0  0  0  0  0
  -25.9741  -30.7660   21.3747 C   0  0  0  0  0  0
  -26.0500  -29.3847   20.7227 C   0  0  0  0  0  0
  -27.2299  -28.5726   20.7174 C   0  0  0  0  0  0
  -26.0327  -26.8385   19.5223 C   0  0  0  0  0  0
  -24.8746  -27.6441   19.5068 C   0  0  0  0  0  0
  -23.6499  -29.7987   20.1587 C   0  0  0  0  0  0
  -25.4118  -36.3065   24.0326 C   0  0  1  0  0  0
  -20.5893  -28.3699   23.1272 C   0  0  2  0  0  0
  -20.6780  -26.9417   22.5411 C   0  0  0  0  0  0
  -19.5756  -26.6383   21.5214 C   0  0  0  0  0  0
  -18.1936  -26.7931   22.1624 C   0  0  0  0  0  0
  -19.1544  -28.8862   23.2870 C   0  0  0  0  0  0
  -18.9465  -30.1462   23.8889 C   0  0  0  0  0  0
  -17.6464  -30.6589   24.0562 C   0  0  0  0  0  0
  -25.9055  -34.9436   23.5088 C   0  0  0  0  0  0
  -16.5355  -29.9086   23.6332 C   0  0  0  0  0  0
  -16.7277  -28.6504   23.0352 C   0  0  0  0  0  0
  -26.4500  -31.6578   25.0710 C   0  0  0  0  0  0
  -25.3720  -31.3731   26.1429 C   0  0  0  0  0  0
  -27.0357  -30.2997   24.6202 C   0  0  0  0  0  0
  -27.6049  -32.4326   25.7484 C   0  0  0  0  0  0
  -27.5578  -37.1796   24.8466 C   0  0  0  0  0  0
  -21.4209  -29.3041   22.3658 N   0  0  0  0  0  0
  -26.4293  -37.3765   23.9404 N   0  0  0  0  0  0
  -24.6974  -31.0493   22.0934 N   0  0  0  0  0  0
  -23.4196  -28.8139   23.3026 O   0  0  0  0  0  0
  -28.3310  -26.3776   20.1282 O   0  0  0  0  0  0
  -26.5635  -34.8915   22.4662 O   0  0  0  0  0  0
  -23.5461  -32.1358   23.7252 O   0  0  0  0  0  0
  -29.1111  -18.3446   20.2306 C   0  0  0  0  0  0
  -29.6236  -19.7247   20.3963 C   0  0  0  0  0  0
  -29.9666  -17.2729   20.5780 C   0  0  0  0  0  0
  -30.8926  -19.6672   20.9332 C   0  0  0  0  0  0
  -29.0620  -22.3630   20.4457 C   0  0  0  0  0  0
  -28.9172  -21.0554   19.9663 C   0  0  0  0  0  0
  -28.4823  -23.6980   19.8724 C   0  0  0  0  0  0
  -28.2120  -25.0118   20.7579 C   0  0  0  0  0  0
  -31.7668  -20.7048   21.2371 N   0  0  0  0  0  0
  -29.7416  -15.8780   20.5538 N   0  0  0  0  0  0
  -28.2146  -23.7986   18.6703 O   0  0  0  0  0  0
  -28.1149  -20.8417   18.9122 O   0  0  0  0  0  0
  -31.4496  -18.0045   21.1685 S   0  0  0  0  0  0
  -31.4786  -12.6139   19.1614 H   0  0  0  0  0  0
  -30.4025  -11.4940   19.9539 H   0  0  0  0  0  0
  -29.7993  -11.7326   17.5211 H   0  0  0  0  0  0
  -29.6311  -13.4594   17.7128 H   0  0  0  0  0  0
  -27.8996  -11.2771   18.9150 H   0  0  0  0  0  0
  -27.3806  -12.5119   17.7995 H   0  0  0  0  0  0
  -27.6314  -14.2463   19.4620 H   0  0  0  0  0  0
  -28.7317  -12.1622   21.4148 H   0  0  0  0  0  0
  -28.4201  -13.8370   21.7957 H   0  0  0  0  0  0
  -25.2760   -9.5683   22.4758 H   0  0  0  0  0  0
  -23.9999   -7.4632   22.7472 H   0  0  0  0  0  0
  -21.0838   -8.8770   19.8953 H   0  0  0  0  0  0
  -22.3689  -10.9672   19.6169 H   0  0  0  0  0  0
  -21.2007   -7.6144   23.9709 H   0  0  0  0  0  0
  -21.1484   -6.0522   25.9074 H   0  0  0  0  0  0
  -22.0599   -2.7605   23.2847 H   0  0  0  0  0  0
  -22.4090  -11.9876   22.4822 H   0  0  0  0  0  0
  -21.1092  -13.1241   22.2634 H   0  0  0  0  0  0
  -24.6433  -15.8369   20.5135 H   0  0  0  0  0  0
  -26.2498  -15.6317   20.0396 H   0  0  0  0  0  0
  -26.7196  -32.5401   23.1056 H   0  0  0  0  0  0
  -25.0058  -33.9681   25.0379 H   0  0  0  0  0  0
  -22.7262  -31.2944   21.3884 H   0  0  0  0  0  0
  -23.3750  -35.9616   23.3308 H   0  0  0  0  0  0
  -24.3578  -36.8903   22.2056 H   0  0  0  0  0  0
  -23.7247  -37.6484   23.6668 H   0  0  0  0  0  0
  -26.1101  -31.5239   20.6020 H   0  0  0  0  0  0
  -26.8521  -30.8198   22.0068 H   0  0  0  0  0  0
  -28.1324  -28.9371   21.1878 H   0  0  0  0  0  0
  -25.9939  -25.8670   19.0497 H   0  0  0  0  0  0
  -23.9771  -27.2736   19.0307 H   0  0  0  0  0  0
  -23.7777  -30.5709   19.3992 H   0  0  0  0  0  0
  -22.7684  -29.2316   19.8541 H   0  0  0  0  0  0
  -25.1303  -36.1911   25.0819 H   0  0  0  0  0  0
  -20.9983  -28.3279   24.1394 H   0  0  0  0  0  0
  -20.5682  -26.2309   23.3615 H   0  0  0  0  0  0
  -21.6648  -26.7443   22.1204 H   0  0  0  0  0  0
  -19.6920  -25.6292   21.1250 H   0  0  0  0  0  0
  -19.6696  -27.3189   20.6740 H   0  0  0  0  0  0
  -17.4205  -26.6672   21.4028 H   0  0  0  0  0  0
  -18.0340  -26.0077   22.9025 H   0  0  0  0  0  0
  -19.7941  -30.7281   24.2256 H   0  0  0  0  0  0
  -17.5018  -31.6270   24.5164 H   0  0  0  0  0  0
  -15.5356  -30.2986   23.7662 H   0  0  0  0  0  0
  -15.8677  -28.0822   22.7072 H   0  0  0  0  0  0
  -24.5893  -30.7086   25.7752 H   0  0  0  0  0  0
  -24.8917  -32.2904   26.4845 H   0  0  0  0  0  0
  -25.8032  -30.8909   27.0211 H   0  0  0  0  0  0
  -26.2947  -29.6732   24.1225 H   0  0  0  0  0  0
  -27.4039  -29.7272   25.4725 H   0  0  0  0  0  0
  -27.8819  -30.4274   23.9449 H   0  0  0  0  0  0
  -27.2652  -33.3629   26.2049 H   0  0  0  0  0  0
  -28.3865  -32.6883   25.0318 H   0  0  0  0  0  0
  -28.0713  -31.8462   26.5412 H   0  0  0  0  0  0
  -28.2599  -38.0090   24.7506 H   0  0  0  0  0  0
  -28.1072  -36.2620   24.6304 H   0  0  0  0  0  0
  -27.2294  -37.1458   25.8869 H   0  0  0  0  0  0
  -20.9401  -29.8749   21.6846 H   0  0  0  0  0  0
  -26.0171  -38.2839   24.1401 H   0  0  0  0  0  0
  -28.1177  -18.1860   19.8379 H   0  0  0  0  0  0
  -29.6871  -22.4977   21.3157 H   0  0  0  0  0  0
  -28.9062  -24.9842   21.5976 H   0  0  0  0  0  0
  -27.2189  -24.9119   21.1961 H   0  0  0  0  0  0
  -31.6436  -21.6332   20.8464 H   0  0  0  0  0  0
  -32.7387  -20.5178   21.4671 H   0  0  0  0  0  0
  -28.7699  -15.6134   20.5914 H   0  0  0  0  0  0
  -28.2317  -19.9403   18.6405 H   0  0  0  0  0  0
  1 25  1  0  0  0
  1 30  2  0  0  0
  1 80  1  0  0  0
  2  3  1  0  0  0
  2 25  1  0  0  0
  2 84  1  0  0  0
  2 85  1  0  0  0
  3  4  1  0  0  0
  3 86  1  0  0  0
  3 87  1  0  0  0
  4  5  1  0  0  0
  4 88  1  0  0  0
  4 89  1  0  0  0
  5  6  1  0  0  0
  5 26  1  0  0  0
  5 90  1  0  0  0
  6 25  1  0  0  0
  6 91  1  0  0  0
  6 92  1  0  0  0
  7  8  2  0  0  0
  7 26  1  0  0  0
  7 29  1  0  0  0
  8  9  1  0  0  0
  8 22  1  0  0  0
  9 10  1  0  0  0
  9 27  2  0  0  0
 10 11  2  0  0  0
 10 15  1  0  0  0
 11 12  1  0  0  0
 11 93  1  0  0  0
 12 13  2  0  0  0
 12 94  1  0  0  0
 13 14  1  0  0  0
 13 31  1  0  0  0
 14 15  2  0  0  0
 14 95  1  0  0  0
 15 96  1  0  0  0
 16 17  2  0  0  0
 16 21  1  0  0  0
 16 31  1  0  0  0
 17 18  1  0  0  0
 17 97  1  0  0  0
 18 19  2  0  0  0
 18 98  1  0  0  0
 19 20  1  0  0  0
 19 24  1  0  0  0
 20 21  2  0  0  0
 20 99  1  0  0  0
 21 23  1  0  0  0
 22 28  1  0  0  0
 22 32  2  0  0  0
 26 27  1  0  0  0
 28100  1  0  0  0
 28101  1  0  0  0
 29102  1  0  0  0
 29103  1  0  0  0
 33 34  1  0  0  0
 33 66  1  0  0  0
 33 70  2  0  0  0
 34 36  1  0  0  0
 34 59  1  0  0  0
 34104  1  0  0  0
 35 44  2  0  0  0
 35 45  1  0  0  0
 35 68  1  0  0  0
 36 56  1  0  0  0
 36105  1  0  0  0
 37 39  1  0  0  0
 37 47  1  0  0  0
 37 66  1  0  0  0
 37106  1  0  0  0
 38 43  2  0  0  0
 38 46  1  0  0  0
 38 47  1  0  0  0
 39 64  1  0  0  0
 39 67  2  0  0  0
 40 52  1  0  0  0
 40 53  2  0  0  0
 40 58  1  0  0  0
 41107  1  0  0  0
 41108  1  0  0  0
 41109  1  0  0  0
 41 48  1  0  0  0
 42 43  1  0  0  0
 42 66  1  0  0  0
 42110  1  0  0  0
 42111  1  0  0  0
 43 44  1  0  0  0
 44112  1  0  0  0
 45 46  2  0  0  0
 45113  1  0  0  0
 46114  1  0  0  0
 47115  1  0  0  0
 47116  1  0  0  0
 48 56  1  0  0  0
 48 65  1  0  0  0
 48117  1  0  0  0
 49 50  1  0  0  0
 49 53  1  0  0  0
 49 64  1  0  0  0
 49118  1  0  0  0
 50 51  1  0  0  0
 50119  1  0  0  0
 50120  1  0  0  0
 51 52  1  0  0  0
 51121  1  0  0  0
 51122  1  0  0  0
 52123  1  0  0  0
 52124  1  0  0  0
 53 54  1  0  0  0
 54 55  2  0  0  0
 54125  1  0  0  0
 55 57  1  0  0  0
 55126  1  0  0  0
 56 69  2  0  0  0
 57 58  2  0  0  0
 57127  1  0  0  0
 58128  1  0  0  0
 59 60  1  0  0  0
 59 61  1  0  0  0
 59 62  1  0  0  0
 60129  1  0  0  0
 60130  1  0  0  0
 60131  1  0  0  0
 61132  1  0  0  0
 61133  1  0  0  0
 61134  1  0  0  0
 62135  1  0  0  0
 62136  1  0  0  0
 62137  1  0  0  0
 63 65  1  0  0  0
 63138  1  0  0  0
 63139  1  0  0  0
 63140  1  0  0  0
 64141  1  0  0  0
 65142  1  0  0  0
 68 78  1  0  0  0
 71 72  1  0  0  0
 71 73  2  0  0  0
 71143  1  0  0  0
 72 74  2  0  0  0
 72 76  1  0  0  0
 73 80  1  0  0  0
 73 83  1  0  0  0
 74 79  1  0  0  0
 74 83  1  0  0  0
 75 76  2  0  0  0
 75 77  1  0  0  0
 75144  1  0  0  0
 76 82  1  0  0  0
 77 78  1  0  0  0
 77 81  2  0  0  0
 78145  1  0  0  0
 78146  1  0  0  0
 79147  1  0  0  0
 79148  1  0  0  0
 80149  1  0  0  0
 82150  1  0  0  0
M  ISO  4   1 100  68 101  78 101  80 100
M  END
> <chiral flag>
0

> <version>
0

> <s_m_source_file>
/data/baiqing/PycharmProjects/Reinvent-master-3.2/result/LINK_invent/BTK/process_docking_weight1_custom_product_contain_oxygen_bond_distance_aromatic_linkinvent_7_9_3/rearranged_h_0169.sdf

> <i_m_source_file_index>
41

> <r_mmod_Potential_Energy-OPLS-2005>
214.515975952148

> <r_mmod_Stretch_Energy-OPLS-2005>
130.005569458008

> <r_mmod_Bend_Energy-OPLS-2005>
165.543762207031

> <r_mmod_Torsional_Energy-OPLS-2005>
239.419509887695

> <r_mmod_Improper_Torsional_Energy-OPLS-2005>
9.37983417510986

> <r_mmod_Van_der_Waal_Energy-OPLS-2005>
113.463706970215

> <r_mmod_Electrostatic_Energy-OPLS-2005>
-270.756378173828

> <r_mmod_Solvation_Energy-OPLS-2005>
-263.449798583984

> <b_mmod_Minimization_Converged-OPLS-2005>
0

> <r_mmod_RMS_Derivative-OPLS-2005>
0.440982729196548

$$$$
41
                    3D
 Structure written by MMmdl.
165173  0  0  1  0            999 V2000
  -30.6845  -14.4788   20.6717 C   0  0  0  0  0  0
  -30.4378  -12.3494   19.4116 C   0  0  0  0  0  0
  -29.4958  -12.5529   18.2051 C   0  0  0  0  0  0
  -28.0191  -12.3915   18.6161 C   0  0  0  0  0  0
  -27.6670  -13.2050   19.8872 C   0  0  2  0  0  0
  -28.7065  -12.9397   21.0004 C   0  0  0  0  0  0
  -25.2520  -13.8048   20.5433 C   0  0  0  0  0  0
  -24.1815  -13.0377   20.9119 C   0  0  0  0  0  0
  -24.6400  -11.6854   20.8750 C   0  0  0  0  0  0
  -23.9054  -10.4264   21.0409 C   0  0  0  0  0  0
  -24.3597   -9.4190   21.9196 C   0  0  0  0  0  0
  -23.6273   -8.2222   22.0767 C   0  0  0  0  0  0
  -22.4256   -8.0268   21.3552 C   0  0  0  0  0  0
  -21.9881   -9.0244   20.4660 C   0  0  0  0  0  0
  -22.7216  -10.2114   20.3069 C   0  0  0  0  0  0
  -21.6857   -6.0720   22.5276 C   0  0  0  0  0  0
  -21.4015   -6.5622   23.8204 C   0  0  0  0  0  0
  -21.3662   -5.6776   24.9167 C   0  0  0  0  0  0
  -21.6039   -4.3035   24.7219 C   0  0  0  0  0  0
  -21.8821   -3.8134   23.4342 C   0  0  0  0  0  0
  -21.9190   -4.6948   22.3404 C   0  0  0  0  0  0
  -22.7855  -13.5213   21.1780 C   0  0  0  0  0  0
  -22.1658   -4.2146   21.0980 F   0  0  0  0  0  0
  -21.5625   -3.4512   25.7723 F   0  0  0  0  0  0
  -30.0451  -13.2855   20.4810 N   0  0  0  0  0  0
  -26.3049  -12.9279   20.3401 N   0  0  0  0  0  0
  -25.9346  -11.6450   20.5848 N   0  0  0  0  0  0
  -22.0467  -12.8284   22.0379 N   0  0  0  0  0  0
  -25.3969  -15.1699   20.3311 N   0  0  0  0  0  0
  -31.7012  -14.8025   20.0501 O   0  0  0  0  0  0
  -21.6630   -6.8861   21.4239 O   0  0  0  0  0  0
  -22.3604  -14.5552   20.6626 O   0  0  0  0  0  0
  -24.6235  -31.8613   23.2035 C   0  0  0  0  0  0
  -25.9095  -32.4775   23.8365 C   0  0  1  0  0  0
  -27.2424  -27.3584   20.1094 C   0  0  0  0  0  0
  -25.5918  -33.8580   24.2296 N   0  0  0  0  0  0
  -23.4164  -30.4844   21.5434 C   0  0  2  0  0  0
  -24.8627  -28.9365   20.1124 C   0  0  0  0  0  0
  -22.7453  -29.4633   22.4918 C   0  0  0  0  0  0
  -18.0292  -28.1387   22.8488 C   0  0  0  0  0  0
  -24.1494  -36.7295   23.2634 C   0  0  0  0  0  0
  -25.9556  -30.7964   21.3776 C   0  0  0  0  0  0
  -26.0253  -29.4291   20.7162 C   0  0  0  0  0  0
  -27.2114  -28.6491   20.7075 C   0  0  0  0  0  0
  -26.0519  -26.8913   19.5052 C   0  0  0  0  0  0
  -24.8752  -27.6687   19.5036 C   0  0  0  0  0  0
  -23.6315  -29.8176   20.1575 C   0  0  0  0  0  0
  -25.4112  -36.3087   24.0336 C   0  0  1  0  0  0
  -20.5889  -28.3697   23.1275 C   0  0  2  0  0  0
  -20.6788  -26.9422   22.5409 C   0  0  0  0  0  0
  -19.5764  -26.6387   21.5213 C   0  0  0  0  0  0
  -18.1934  -26.7933   22.1625 C   0  0  0  0  0  0
  -19.1544  -28.8859   23.2884 C   0  0  0  0  0  0
  -18.9468  -30.1457   23.8906 C   0  0  0  0  0  0
  -17.6471  -30.6590   24.0569 C   0  0  0  0  0  0
  -25.9046  -34.9454   23.5119 C   0  0  0  0  0  0
  -16.5361  -29.9090   23.6329 C   0  0  0  0  0  0
  -16.7277  -28.6507   23.0346 C   0  0  0  0  0  0
  -26.4493  -31.6592   25.0744 C   0  0  0  0  0  0
  -25.3725  -31.3751   26.1474 C   0  0  0  0  0  0
  -27.0338  -30.3000   24.6236 C   0  0  0  0  0  0
  -27.6065  -32.4329   25.7495 C   0  0  0  0  0  0
  -27.5588  -37.1791   24.8456 C   0  0  0  0  0  0
  -21.4171  -29.3050   22.3662 N   0  0  0  0  0  0
  -26.4292  -37.3779   23.9409 N   0  0  0  0  0  0
  -24.6825  -31.0651   22.0973 N   0  0  0  0  0  0
  -23.4190  -28.8166   23.2990 O   0  0  0  0  0  0
  -28.4208  -26.6131   20.1586 O   0  0  0  0  0  0
  -26.5611  -34.8922   22.4684 O   0  0  0  0  0  0
  -23.5400  -32.1406   23.7374 O   0  0  0  0  0  0
  -28.1608  -16.4802   22.0071 C   0  0  0  0  0  0
  -27.9171  -18.8633   21.5503 C   0  0  0  0  0  0
  -30.0451  -17.7433   21.1146 C   0  0  0  0  0  0
  -27.3671  -17.6386   21.9897 C   0  0  0  0  0  0
  -29.4925  -16.4988   21.5534 C   0  0  0  0  0  0
  -29.2630  -18.9479   21.1177 C   0  0  0  0  0  0
  -29.0949  -22.6621   20.1583 C   0  0  0  0  0  0
  -28.6375  -24.1100   20.6398 C   0  0  0  0  0  0
  -24.4729  -19.4174   21.6028 C   0  0  0  0  0  0
  -23.6360  -19.9295   20.4733 C   0  0  0  0  0  0
  -25.9159  -17.5295   22.4357 C   0  0  0  0  0  0
  -29.3598  -21.5208   21.2019 C   0  0  0  0  0  0
  -28.5482  -25.2667   19.5889 C   0  0  0  0  0  0
  -30.1783  -15.2400   21.6660 N   0  0  0  0  0  0
  -29.7927  -20.1889   20.6695 N   0  0  0  0  0  0
  -24.9908  -18.1804   21.5030 N   0  0  0  0  0  0
  -24.6920  -20.1920   22.6812 N   0  3  0  0  0  0
  -29.2457  -22.4296   18.9517 O   0  0  0  0  0  0
  -28.3525  -24.3144   21.8272 O   0  0  0  0  0  0
  -31.4737  -12.4910   19.1042 H   0  0  0  0  0  0
  -30.3748  -11.3227   19.7763 H   0  0  0  0  0  0
  -29.7427  -11.8467   17.4106 H   0  0  0  0  0  0
  -29.6482  -13.5493   17.7868 H   0  0  0  0  0  0
  -27.8305  -11.3323   18.7916 H   0  0  0  0  0  0
  -27.3701  -12.6851   17.7912 H   0  0  0  0  0  0
  -27.7212  -14.2620   19.6257 H   0  0  0  0  0  0
  -28.6897  -11.8840   21.2770 H   0  0  0  0  0  0
  -28.4375  -13.4660   21.9128 H   0  0  0  0  0  0
  -25.2745   -9.5659   22.4763 H   0  0  0  0  0  0
  -23.9983   -7.4612   22.7479 H   0  0  0  0  0  0
  -21.0810   -8.8761   19.8973 H   0  0  0  0  0  0
  -22.3679  -10.9641   19.6166 H   0  0  0  0  0  0
  -21.2016   -7.6127   23.9709 H   0  0  0  0  0  0
  -21.1478   -6.0497   25.9067 H   0  0  0  0  0  0
  -22.0603   -2.7600   23.2834 H   0  0  0  0  0  0
  -22.4020  -11.9940   22.4813 H   0  0  0  0  0  0
  -21.1099  -13.1352   22.2561 H   0  0  0  0  0  0
  -24.5266  -15.6046   20.0505 H   0  0  0  0  0  0
  -26.1828  -15.4874   19.7778 H   0  0  0  0  0  0
  -26.7168  -32.5445   23.1117 H   0  0  0  0  0  0
  -25.0065  -33.9734   25.0440 H   0  0  0  0  0  0
  -22.7109  -31.3057   21.3993 H   0  0  0  0  0  0
  -23.3755  -35.9627   23.3305 H   0  0  0  0  0  0
  -24.3598  -36.8903   22.2049 H   0  0  0  0  0  0
  -23.7252  -37.6503   23.6652 H   0  0  0  0  0  0
  -26.1073  -31.5643   20.6180 H   0  0  0  0  0  0
  -26.8280  -30.8261   22.0197 H   0  0  0  0  0  0
  -28.1089  -29.0252   21.1775 H   0  0  0  0  0  0
  -25.9971  -25.9186   19.0416 H   0  0  0  0  0  0
  -23.9806  -27.2773   19.0378 H   0  0  0  0  0  0
  -23.7592  -30.5965   19.4045 H   0  0  0  0  0  0
  -22.7507  -29.2516   19.8492 H   0  0  0  0  0  0
  -25.1279  -36.1946   25.0824 H   0  0  0  0  0  0
  -21.0004  -28.3297   24.1388 H   0  0  0  0  0  0
  -20.5718  -26.2308   23.3607 H   0  0  0  0  0  0
  -21.6657  -26.7469   22.1190 H   0  0  0  0  0  0
  -19.6928  -25.6298   21.1243 H   0  0  0  0  0  0
  -19.6694  -27.3204   20.6745 H   0  0  0  0  0  0
  -17.4206  -26.6692   21.4019 H   0  0  0  0  0  0
  -18.0330  -26.0074   22.9023 H   0  0  0  0  0  0
  -19.7943  -30.7269   24.2288 H   0  0  0  0  0  0
  -17.5024  -31.6269   24.5167 H   0  0  0  0  0  0
  -15.5363  -30.2999   23.7637 H   0  0  0  0  0  0
  -15.8681  -28.0830   22.7057 H   0  0  0  0  0  0
  -24.5883  -30.7120   25.7808 H   0  0  0  0  0  0
  -24.8940  -32.2931   26.4897 H   0  0  0  0  0  0
  -25.8041  -30.8926   27.0249 H   0  0  0  0  0  0
  -26.2926  -29.6744   24.1252 H   0  0  0  0  0  0
  -27.3991  -29.7276   25.4772 H   0  0  0  0  0  0
  -27.8822  -30.4260   23.9507 H   0  0  0  0  0  0
  -27.2679  -33.3616   26.2099 H   0  0  0  0  0  0
  -28.3846  -32.6905   25.0300 H   0  0  0  0  0  0
  -28.0770  -31.8444   26.5381 H   0  0  0  0  0  0
  -28.2580  -38.0114   24.7536 H   0  0  0  0  0  0
  -28.1110  -36.2646   24.6228 H   0  0  0  0  0  0
  -27.2323  -37.1383   25.8864 H   0  0  0  0  0  0
  -20.9339  -29.8769   21.6876 H   0  0  0  0  0  0
  -26.0177  -38.2854   24.1412 H   0  0  0  0  0  0
  -27.7197  -15.5564   22.3571 H   0  0  0  0  0  0
  -27.2813  -19.7353   21.5281 H   0  0  0  0  0  0
  -31.0781  -17.7730   20.7982 H   0  0  0  0  0  0
  -22.7789  -19.2754   20.3091 H   0  0  0  0  0  0
  -24.2287  -19.9595   19.5578 H   0  0  0  0  0  0
  -23.2692  -20.9363   20.6716 H   0  0  0  0  0  0
  -25.8027  -17.9446   23.4354 H   0  0  0  0  0  0
  -25.6303  -16.4808   22.5196 H   0  0  0  0  0  0
  -28.4976  -21.4368   21.8612 H   0  0  0  0  0  0
  -30.1737  -21.8762   21.8375 H   0  0  0  0  0  0
  -27.7946  -25.0332   18.8405 H   0  0  0  0  0  0
  -29.4956  -25.2570   19.0483 H   0  0  0  0  0  0
  -29.6896  -14.6222   22.2973 H   0  0  0  0  0  0
  -30.7123  -20.1795   20.2331 H   0  0  0  0  0  0
  -24.7295  -17.6114   20.7086 H   0  0  0  0  0  0
  -24.2920  -21.1194   22.7467 H   0  0  0  0  0  0
  -25.1769  -19.8574   23.5002 H   0  0  0  0  0  0
  1 25  1  0  0  0
  1 30  2  0  0  0
  1 84  1  0  0  0
  2  3  1  0  0  0
  2 25  1  0  0  0
  2 90  1  0  0  0
  2 91  1  0  0  0
  3  4  1  0  0  0
  3 92  1  0  0  0
  3 93  1  0  0  0
  4  5  1  0  0  0
  4 94  1  0  0  0
  4 95  1  0  0  0
  5  6  1  0  0  0
  5 26  1  0  0  0
  5 96  1  0  0  0
  6 25  1  0  0  0
  6 97  1  0  0  0
  6 98  1  0  0  0
  7  8  2  0  0  0
  7 26  1  0  0  0
  7 29  1  0  0  0
  8  9  1  0  0  0
  8 22  1  0  0  0
  9 10  1  0  0  0
  9 27  2  0  0  0
 10 11  2  0  0  0
 10 15  1  0  0  0
 11 12  1  0  0  0
 11 99  1  0  0  0
 12 13  2  0  0  0
 12100  1  0  0  0
 13 14  1  0  0  0
 13 31  1  0  0  0
 14 15  2  0  0  0
 14101  1  0  0  0
 15102  1  0  0  0
 16 17  2  0  0  0
 16 21  1  0  0  0
 16 31  1  0  0  0
 17 18  1  0  0  0
 17103  1  0  0  0
 18 19  2  0  0  0
 18104  1  0  0  0
 19 20  1  0  0  0
 19 24  1  0  0  0
 20 21  2  0  0  0
 20105  1  0  0  0
 21 23  1  0  0  0
 22 28  1  0  0  0
 22 32  2  0  0  0
 26 27  1  0  0  0
 28106  1  0  0  0
 28107  1  0  0  0
 29108  1  0  0  0
 29109  1  0  0  0
 33 34  1  0  0  0
 33 66  1  0  0  0
 33 70  2  0  0  0
 34 36  1  0  0  0
 34 59  1  0  0  0
 34110  1  0  0  0
 35 44  2  0  0  0
 35 45  1  0  0  0
 35 68  1  0  0  0
 36 56  1  0  0  0
 36111  1  0  0  0
 37 39  1  0  0  0
 37 47  1  0  0  0
 37 66  1  0  0  0
 37112  1  0  0  0
 38 43  2  0  0  0
 38 46  1  0  0  0
 38 47  1  0  0  0
 39 64  1  0  0  0
 39 67  2  0  0  0
 40 52  1  0  0  0
 40 53  2  0  0  0
 40 58  1  0  0  0
 41113  1  0  0  0
 41114  1  0  0  0
 41115  1  0  0  0
 41 48  1  0  0  0
 42 43  1  0  0  0
 42 66  1  0  0  0
 42116  1  0  0  0
 42117  1  0  0  0
 43 44  1  0  0  0
 44118  1  0  0  0
 45 46  2  0  0  0
 45119  1  0  0  0
 46120  1  0  0  0
 47121  1  0  0  0
 47122  1  0  0  0
 48 56  1  0  0  0
 48 65  1  0  0  0
 48123  1  0  0  0
 49 50  1  0  0  0
 49 53  1  0  0  0
 49 64  1  0  0  0
 49124  1  0  0  0
 50 51  1  0  0  0
 50125  1  0  0  0
 50126  1  0  0  0
 51 52  1  0  0  0
 51127  1  0  0  0
 51128  1  0  0  0
 52129  1  0  0  0
 52130  1  0  0  0
 53 54  1  0  0  0
 54 55  2  0  0  0
 54131  1  0  0  0
 55 57  1  0  0  0
 55132  1  0  0  0
 56 69  2  0  0  0
 57 58  2  0  0  0
 57133  1  0  0  0
 58134  1  0  0  0
 59 60  1  0  0  0
 59 61  1  0  0  0
 59 62  1  0  0  0
 60135  1  0  0  0
 60136  1  0  0  0
 60137  1  0  0  0
 61138  1  0  0  0
 61139  1  0  0  0
 61140  1  0  0  0
 62141  1  0  0  0
 62142  1  0  0  0
 62143  1  0  0  0
 63 65  1  0  0  0
 63144  1  0  0  0
 63145  1  0  0  0
 63146  1  0  0  0
 64147  1  0  0  0
 65148  1  0  0  0
 68 83  1  0  0  0
 71 74  2  0  0  0
 71 75  1  0  0  0
 71149  1  0  0  0
 72 74  1  0  0  0
 72 76  2  0  0  0
 72150  1  0  0  0
 73 75  2  0  0  0
 73 76  1  0  0  0
 73151  1  0  0  0
 74 81  1  0  0  0
 75 84  1  0  0  0
 76 85  1  0  0  0
 77 78  1  0  0  0
 77 82  1  0  0  0
 77 88  2  0  0  0
 78 83  1  0  0  0
 78 89  2  0  0  0
 79 80  1  0  0  0
 79 86  1  0  0  0
 79 87  2  0  0  0
 80152  1  0  0  0
 80153  1  0  0  0
 80154  1  0  0  0
 81 86  1  0  0  0
 81155  1  0  0  0
 81156  1  0  0  0
 82 85  1  0  0  0
 82157  1  0  0  0
 82158  1  0  0  0
 83159  1  0  0  0
 83160  1  0  0  0
 84161  1  0  0  0
 85162  1  0  0  0
 86163  1  0  0  0
 87164  1  0  0  0
 87165  1  0  0  0
M  CHG  1  87   1
M  ISO  4   1 100  68 101  83 101  84 100
M  END
> <chiral flag>
0

> <version>
0

> <s_m_source_file>
/data/baiqing/PycharmProjects/Reinvent-master-3.2/result/LINK_invent/BTK/process_docking_weight1_custom_product_contain_oxygen_bond_distance_aromatic_linkinvent_7_9_3/rearranged_h_0169.sdf

> <i_m_source_file_index>
42

> <r_mmod_Potential_Energy-OPLS-2005>
16.592170715332

> <r_mmod_Stretch_Energy-OPLS-2005>
63.494140625

> <r_mmod_Bend_Energy-OPLS-2005>
142.111541748047

> <r_mmod_Torsional_Energy-OPLS-2005>
235.978012084961

> <r_mmod_Improper_Torsional_Energy-OPLS-2005>
12.8441467285156

> <r_mmod_Van_der_Waal_Energy-OPLS-2005>
135.142517089844

> <r_mmod_Electrostatic_Energy-OPLS-2005>
-108.029281616211

> <r_mmod_Solvation_Energy-OPLS-2005>
-488.028076171875

> <b_mmod_Minimization_Converged-OPLS-2005>
0

> <r_mmod_RMS_Derivative-OPLS-2005>
3.27171111106873

$$$$
42
                    3D
 Structure written by MMmdl.
171179  0  0  1  0            999 V2000
  -30.6854  -14.5295   20.5328 C   0  0  0  0  0  0
  -30.4243  -12.3233   19.4557 C   0  0  0  0  0  0
  -29.5041  -12.4990   18.2264 C   0  0  0  0  0  0
  -28.0207  -12.3699   18.6254 C   0  0  0  0  0  0
  -27.6601  -13.2131   19.8780 C   0  0  2  0  0  0
  -28.7033  -13.0298   21.0066 C   0  0  0  0  0  0
  -25.2587  -13.8174   20.5669 C   0  0  0  0  0  0
  -24.1822  -13.0443   20.9176 C   0  0  0  0  0  0
  -24.6391  -11.6918   20.8741 C   0  0  0  0  0  0
  -23.9054  -10.4308   21.0397 C   0  0  0  0  0  0
  -24.3626   -9.4240   21.9167 C   0  0  0  0  0  0
  -23.6325   -8.2256   22.0726 C   0  0  0  0  0  0
  -22.4304   -8.0277   21.3526 C   0  0  0  0  0  0
  -21.9934   -9.0240   20.4614 C   0  0  0  0  0  0
  -22.7230  -10.2142   20.3032 C   0  0  0  0  0  0
  -21.6853   -6.0746   22.5285 C   0  0  0  0  0  0
  -21.4016   -6.5642   23.8229 C   0  0  0  0  0  0
  -21.3665   -5.6782   24.9185 C   0  0  0  0  0  0
  -21.6061   -4.3047   24.7222 C   0  0  0  0  0  0
  -21.8816   -3.8146   23.4337 C   0  0  0  0  0  0
  -21.9212   -4.6973   22.3403 C   0  0  0  0  0  0
  -22.7855  -13.5236   21.1866 C   0  0  0  0  0  0
  -22.1662   -4.2162   21.0972 F   0  0  0  0  0  0
  -21.5651   -3.4530   25.7733 F   0  0  0  0  0  0
  -30.0327  -13.3327   20.4539 N   0  0  0  0  0  0
  -26.3030  -12.9345   20.3390 N   0  0  0  0  0  0
  -25.9331  -11.6505   20.5808 N   0  0  0  0  0  0
  -22.0508  -12.8191   22.0410 N   0  0  0  0  0  0
  -25.4351  -15.1877   20.4025 N   0  0  0  0  0  0
  -31.8268  -14.6917   20.0930 O   0  0  0  0  0  0
  -21.6649   -6.8886   21.4244 O   0  0  0  0  0  0
  -22.3560  -14.5558   20.6750 O   0  0  0  0  0  0
  -24.6144  -31.8687   23.2067 C   0  0  0  0  0  0
  -25.9023  -32.4807   23.8404 C   0  0  1  0  0  0
  -27.2341  -27.3973   20.1109 C   0  0  0  0  0  0
  -25.5929  -33.8616   24.2377 N   0  0  0  0  0  0
  -23.4074  -30.4858   21.5494 C   0  0  2  0  0  0
  -24.8582  -28.9463   20.1184 C   0  0  0  0  0  0
  -22.7435  -29.4637   22.5009 C   0  0  0  0  0  0
  -18.0276  -28.1416   22.8478 C   0  0  0  0  0  0
  -24.1499  -36.7295   23.2636 C   0  0  0  0  0  0
  -25.9400  -30.8219   21.3653 C   0  0  0  0  0  0
  -26.0187  -29.4511   20.7171 C   0  0  0  0  0  0
  -27.2132  -28.6852   20.7078 C   0  0  0  0  0  0
  -26.0572  -26.9168   19.5021 C   0  0  0  0  0  0
  -24.8740  -27.6800   19.5062 C   0  0  0  0  0  0
  -23.6204  -29.8153   20.1647 C   0  0  0  0  0  0
  -25.4106  -36.3110   24.0369 C   0  0  1  0  0  0
  -20.5874  -28.3679   23.1342 C   0  0  2  0  0  0
  -20.6787  -26.9418   22.5434 C   0  0  0  0  0  0
  -19.5769  -26.6411   21.5238 C   0  0  0  0  0  0
  -18.1939  -26.7965   22.1626 C   0  0  0  0  0  0
  -19.1526  -28.8862   23.2911 C   0  0  0  0  0  0
  -18.9458  -30.1473   23.8917 C   0  0  0  0  0  0
  -17.6464  -30.6613   24.0577 C   0  0  0  0  0  0
  -25.9025  -34.9469   23.5173 C   0  0  0  0  0  0
  -16.5349  -29.9111   23.6344 C   0  0  0  0  0  0
  -16.7270  -28.6543   23.0338 C   0  0  0  0  0  0
  -26.4376  -31.6487   25.0697 C   0  0  0  0  0  0
  -25.3588  -31.3652   26.1411 C   0  0  0  0  0  0
  -27.0090  -30.2886   24.6009 C   0  0  0  0  0  0
  -27.5994  -32.4086   25.7494 C   0  0  0  0  0  0
  -27.5605  -37.1807   24.8481 C   0  0  0  0  0  0
  -21.4172  -29.3011   22.3737 N   0  0  0  0  0  0
  -26.4307  -37.3786   23.9430 N   0  0  0  0  0  0
  -24.6726  -31.0743   22.0992 N   0  0  0  0  0  0
  -23.4180  -28.8189   23.3078 O   0  0  0  0  0  0
  -28.3759  -26.6101   20.0824 O   0  0  0  0  0  0
  -26.5562  -34.8927   22.4712 O   0  0  0  0  0  0
  -23.5326  -32.1470   23.7406 O   0  0  0  0  0  0
  -29.8490  -18.1054   20.7579 C   0  0  0  0  0  0
  -29.2442  -19.1094   18.6089 C   0  0  0  0  0  0
  -29.3887  -16.6809   18.8287 C   0  0  0  0  0  0
  -29.5697  -19.2711   19.9775 C   0  0  0  0  0  0
  -29.7658  -16.7961   20.1879 C   0  0  0  0  0  0
  -29.1452  -17.8239   18.0454 C   0  0  0  0  0  0
  -28.5178  -24.1531   20.5626 C   0  0  0  0  0  0
  -29.0658  -22.9706   21.0058 C   0  0  0  0  0  0
  -28.8002  -21.6761   20.3921 C   0  0  0  0  0  0
  -25.8864  -22.2799   21.2539 C   0  0  0  0  0  0
  -30.0633  -22.9366   22.1595 C   0  0  0  0  0  0
  -24.6943  -23.2002   21.4775 C   0  0  0  0  0  0
  -27.6152  -25.7277   22.2974 C   0  0  0  0  0  0
  -30.0154  -26.0020   21.6102 C   0  0  0  0  0  0
  -26.3355  -22.0528   19.8046 C   0  0  0  0  0  0
  -28.6090  -25.6064   21.1196 C   0  0  0  0  0  0
  -29.6809  -20.6309   20.5464 N   0  0  0  0  0  0
  -29.9517  -15.5887   20.9559 N   0  0  0  0  0  0
  -27.6674  -21.4207   19.6907 N   0  3  0  0  0  0
  -26.4754  -21.7612   22.2072 O   0  0  0  0  0  0
  -28.7978  -17.6802   16.7435 F   0  0  0  0  0  0
  -31.4720  -12.4119   19.1655 H   0  0  0  0  0  0
  -30.3125  -11.3250   19.8806 H   0  0  0  0  0  0
  -29.7497  -11.7604   17.4621 H   0  0  0  0  0  0
  -29.6801  -13.4740   17.7698 H   0  0  0  0  0  0
  -27.8149  -11.3148   18.8117 H   0  0  0  0  0  0
  -27.3810  -12.6547   17.7902 H   0  0  0  0  0  0
  -27.6888  -14.2561   19.5677 H   0  0  0  0  0  0
  -28.6885  -12.0017   21.3718 H   0  0  0  0  0  0
  -28.4626  -13.6512   21.8695 H   0  0  0  0  0  0
  -25.2775   -9.5732   22.4734 H   0  0  0  0  0  0
  -24.0058   -7.4639   22.7444 H   0  0  0  0  0  0
  -21.0876   -8.8735   19.8915 H   0  0  0  0  0  0
  -22.3670  -10.9671   19.6145 H   0  0  0  0  0  0
  -21.1966   -7.6147   23.9734 H   0  0  0  0  0  0
  -21.1500   -6.0504   25.9090 H   0  0  0  0  0  0
  -22.0593   -2.7611   23.2829 H   0  0  0  0  0  0
  -22.4124  -11.9835   22.4758 H   0  0  0  0  0  0
  -21.1122  -13.1200   22.2615 H   0  0  0  0  0  0
  -24.6730  -15.8511   20.4831 H   0  0  0  0  0  0
  -26.2929  -15.6136   20.0757 H   0  0  0  0  0  0
  -26.7143  -32.5518   23.1212 H   0  0  0  0  0  0
  -25.0151  -33.9774   25.0581 H   0  0  0  0  0  0
  -22.6996  -31.3031   21.4057 H   0  0  0  0  0  0
  -23.3796  -35.9602   23.3293 H   0  0  0  0  0  0
  -24.3617  -36.8887   22.2053 H   0  0  0  0  0  0
  -23.7195  -37.6495   23.6615 H   0  0  0  0  0  0
  -26.0512  -31.5849   20.5964 H   0  0  0  0  0  0
  -26.8284  -30.8762   21.9836 H   0  0  0  0  0  0
  -28.1129  -29.0680   21.1718 H   0  0  0  0  0  0
  -26.0582  -25.9443   19.0316 H   0  0  0  0  0  0
  -23.9782  -27.2883   19.0430 H   0  0  0  0  0  0
  -23.7309  -30.5916   19.4076 H   0  0  0  0  0  0
  -22.7452  -29.2360   19.8668 H   0  0  0  0  0  0
  -25.1283  -36.2009   25.0871 H   0  0  0  0  0  0
  -20.9947  -28.3252   24.1482 H   0  0  0  0  0  0
  -20.5741  -26.2278   23.3613 H   0  0  0  0  0  0
  -21.6643  -26.7492   22.1199 H   0  0  0  0  0  0
  -19.6915  -25.6324   21.1271 H   0  0  0  0  0  0
  -19.6749  -27.3225   20.6783 H   0  0  0  0  0  0
  -17.4218  -26.6749   21.4017 H   0  0  0  0  0  0
  -18.0302  -26.0125   22.9040 H   0  0  0  0  0  0
  -19.7925  -30.7301   24.2310 H   0  0  0  0  0  0
  -17.5004  -31.6297   24.5163 H   0  0  0  0  0  0
  -15.5343  -30.3018   23.7675 H   0  0  0  0  0  0
  -15.8678  -28.0888   22.7016 H   0  0  0  0  0  0
  -24.5621  -30.7225   25.7675 H   0  0  0  0  0  0
  -24.8944  -32.2849   26.4976 H   0  0  0  0  0  0
  -25.7818  -30.8616   27.0093 H   0  0  0  0  0  0
  -26.2595  -29.6808   24.0926 H   0  0  0  0  0  0
  -27.3719  -29.6965   25.4426 H   0  0  0  0  0  0
  -27.8542  -30.4182   23.9251 H   0  0  0  0  0  0
  -27.2710  -33.3432   26.2041 H   0  0  0  0  0  0
  -28.3859  -32.6489   25.0335 H   0  0  0  0  0  0
  -28.0525  -31.8117   26.5426 H   0  0  0  0  0  0
  -28.2617  -38.0117   24.7527 H   0  0  0  0  0  0
  -28.1111  -36.2641   24.6307 H   0  0  0  0  0  0
  -27.2318  -37.1438   25.8883 H   0  0  0  0  0  0
  -20.9370  -29.8687   21.6896 H   0  0  0  0  0  0
  -26.0241  -38.2894   24.1394 H   0  0  0  0  0  0
  -30.1346  -18.2121   21.7943 H   0  0  0  0  0  0
  -29.0858  -19.9616   17.9661 H   0  0  0  0  0  0
  -29.2785  -15.7130   18.3631 H   0  0  0  0  0  0
  -27.9075  -24.1167   19.6786 H   0  0  0  0  0  0
  -29.6771  -23.5204   22.9931 H   0  0  0  0  0  0
  -31.0249  -23.3474   21.8523 H   0  0  0  0  0  0
  -30.2317  -21.9453   22.5734 H   0  0  0  0  0  0
  -23.8516  -22.8728   20.8717 H   0  0  0  0  0  0
  -24.9498  -24.2223   21.1988 H   0  0  0  0  0  0
  -24.3889  -23.1929   22.5243 H   0  0  0  0  0  0
  -27.8165  -24.9750   23.0581 H   0  0  0  0  0  0
  -26.5881  -25.5701   21.9731 H   0  0  0  0  0  0
  -27.6699  -26.7028   22.7800 H   0  0  0  0  0  0
  -30.0688  -27.0795   21.7703 H   0  0  0  0  0  0
  -30.7861  -25.7438   20.8848 H   0  0  0  0  0  0
  -30.2763  -25.5571   22.5686 H   0  0  0  0  0  0
  -26.2746  -22.9729   19.2275 H   0  0  0  0  0  0
  -25.6106  -21.3784   19.3476 H   0  0  0  0  0  0
  -30.3598  -20.7982   21.2748 H   0  0  0  0  0  0
  -29.1520  -15.3240   21.5122 H   0  0  0  0  0  0
  -27.6342  -20.5367   19.2049 H   0  0  0  0  0  0
  1 25  1  0  0  0
  1 30  2  0  0  0
  1 88  1  0  0  0
  2  3  1  0  0  0
  2 25  1  0  0  0
  2 92  1  0  0  0
  2 93  1  0  0  0
  3  4  1  0  0  0
  3 94  1  0  0  0
  3 95  1  0  0  0
  4  5  1  0  0  0
  4 96  1  0  0  0
  4 97  1  0  0  0
  5  6  1  0  0  0
  5 26  1  0  0  0
  5 98  1  0  0  0
  6 25  1  0  0  0
  6 99  1  0  0  0
  6100  1  0  0  0
  7  8  2  0  0  0
  7 26  1  0  0  0
  7 29  1  0  0  0
  8  9  1  0  0  0
  8 22  1  0  0  0
  9 10  1  0  0  0
  9 27  2  0  0  0
 10 11  2  0  0  0
 10 15  1  0  0  0
 11 12  1  0  0  0
 11101  1  0  0  0
 12 13  2  0  0  0
 12102  1  0  0  0
 13 14  1  0  0  0
 13 31  1  0  0  0
 14 15  2  0  0  0
 14103  1  0  0  0
 15104  1  0  0  0
 16 17  2  0  0  0
 16 21  1  0  0  0
 16 31  1  0  0  0
 17 18  1  0  0  0
 17105  1  0  0  0
 18 19  2  0  0  0
 18106  1  0  0  0
 19 20  1  0  0  0
 19 24  1  0  0  0
 20 21  2  0  0  0
 20107  1  0  0  0
 21 23  1  0  0  0
 22 28  1  0  0  0
 22 32  2  0  0  0
 26 27  1  0  0  0
 28108  1  0  0  0
 28109  1  0  0  0
 29110  1  0  0  0
 29111  1  0  0  0
 33 34  1  0  0  0
 33 66  1  0  0  0
 33 70  2  0  0  0
 34 36  1  0  0  0
 34 59  1  0  0  0
 34112  1  0  0  0
 35 44  2  0  0  0
 35 45  1  0  0  0
 35 68  1  0  0  0
 36 56  1  0  0  0
 36113  1  0  0  0
 37 39  1  0  0  0
 37 47  1  0  0  0
 37 66  1  0  0  0
 37114  1  0  0  0
 38 43  2  0  0  0
 38 46  1  0  0  0
 38 47  1  0  0  0
 39 64  1  0  0  0
 39 67  2  0  0  0
 40 52  1  0  0  0
 40 53  2  0  0  0
 40 58  1  0  0  0
 41115  1  0  0  0
 41116  1  0  0  0
 41117  1  0  0  0
 41 48  1  0  0  0
 42 43  1  0  0  0
 42 66  1  0  0  0
 42118  1  0  0  0
 42119  1  0  0  0
 43 44  1  0  0  0
 44120  1  0  0  0
 45 46  2  0  0  0
 45121  1  0  0  0
 46122  1  0  0  0
 47123  1  0  0  0
 47124  1  0  0  0
 48 56  1  0  0  0
 48 65  1  0  0  0
 48125  1  0  0  0
 49 50  1  0  0  0
 49 53  1  0  0  0
 49 64  1  0  0  0
 49126  1  0  0  0
 50 51  1  0  0  0
 50127  1  0  0  0
 50128  1  0  0  0
 51 52  1  0  0  0
 51129  1  0  0  0
 51130  1  0  0  0
 52131  1  0  0  0
 52132  1  0  0  0
 53 54  1  0  0  0
 54 55  2  0  0  0
 54133  1  0  0  0
 55 57  1  0  0  0
 55134  1  0  0  0
 56 69  2  0  0  0
 57 58  2  0  0  0
 57135  1  0  0  0
 58136  1  0  0  0
 59 60  1  0  0  0
 59 61  1  0  0  0
 59 62  1  0  0  0
 60137  1  0  0  0
 60138  1  0  0  0
 60139  1  0  0  0
 61140  1  0  0  0
 61141  1  0  0  0
 61142  1  0  0  0
 62143  1  0  0  0
 62144  1  0  0  0
 62145  1  0  0  0
 63 65  1  0  0  0
 63146  1  0  0  0
 63147  1  0  0  0
 63148  1  0  0  0
 64149  1  0  0  0
 65150  1  0  0  0
 68 86  1  0  0  0
 71 74  2  0  0  0
 71 75  1  0  0  0
 71151  1  0  0  0
 72 74  1  0  0  0
 72 76  2  0  0  0
 72152  1  0  0  0
 73 75  2  0  0  0
 73 76  1  0  0  0
 73153  1  0  0  0
 74 87  1  0  0  0
 75 88  1  0  0  0
 76 91  1  0  0  0
 77 78  2  0  0  0
 77 86  1  0  0  0
 77154  1  0  0  0
 78 79  1  0  0  0
 78 81  1  0  0  0
 79 87  1  0  0  0
 79 89  2  0  0  0
 80 82  1  0  0  0
 80 85  1  0  0  0
 80 90  2  0  0  0
 81155  1  0  0  0
 81156  1  0  0  0
 81157  1  0  0  0
 82158  1  0  0  0
 82159  1  0  0  0
 82160  1  0  0  0
 83161  1  0  0  0
 83162  1  0  0  0
 83163  1  0  0  0
 83 86  1  0  0  0
 84 86  1  0  0  0
 84164  1  0  0  0
 84165  1  0  0  0
 84166  1  0  0  0
 85 89  1  0  0  0
 85167  1  0  0  0
 85168  1  0  0  0
 87169  1  0  0  0
 88170  1  0  0  0
 89171  1  0  0  0
M  CHG  1  89   1
M  ISO  4   1 100  68 101  86 101  88 100
M  END
> <chiral flag>
0

> <version>
0

> <s_m_source_file>
/data/baiqing/PycharmProjects/Reinvent-master-3.2/result/LINK_invent/BTK/process_docking_weight1_custom_product_contain_oxygen_bond_distance_aromatic_linkinvent_7_9_3/rearranged_h_0169.sdf

> <i_m_source_file_index>
43

> <r_mmod_Potential_Energy-OPLS-2005>
-98.3631591796875

> <r_mmod_Stretch_Energy-OPLS-2005>
62.8524551391602

> <r_mmod_Bend_Energy-OPLS-2005>
130.682083129883

> <r_mmod_Torsional_Energy-OPLS-2005>
306.615173339844

> <r_mmod_Improper_Torsional_Energy-OPLS-2005>
8.44827747344971

> <r_mmod_Van_der_Waal_Energy-OPLS-2005>
154.656234741211

> <r_mmod_Electrostatic_Energy-OPLS-2005>
-342.417999267578

> <r_mmod_Solvation_Energy-OPLS-2005>
-439.455108642578

> <b_mmod_Minimization_Converged-OPLS-2005>
0

> <r_mmod_RMS_Derivative-OPLS-2005>
4.30899333953857

$$$$
43
                    3D
 Structure written by MMmdl.
159167  0  0  1  0            999 V2000
  -30.7301  -14.4294   20.4972 C   0  0  0  0  0  0
  -30.4085  -12.2609   19.4166 C   0  0  0  0  0  0
  -29.4886  -12.4888   18.2003 C   0  0  0  0  0  0
  -28.0092  -12.3702   18.6167 C   0  0  0  0  0  0
  -27.6639  -13.2101   19.8762 C   0  0  2  0  0  0
  -28.7121  -13.0052   20.9961 C   0  0  0  0  0  0
  -25.2619  -13.8169   20.5697 C   0  0  0  0  0  0
  -24.1871  -13.0449   20.9183 C   0  0  0  0  0  0
  -24.6419  -11.6914   20.8727 C   0  0  0  0  0  0
  -23.9064  -10.4294   21.0370 C   0  0  0  0  0  0
  -24.3625   -9.4221   21.9150 C   0  0  0  0  0  0
  -23.6315   -8.2251   22.0736 C   0  0  0  0  0  0
  -22.4292   -8.0283   21.3540 C   0  0  0  0  0  0
  -21.9915   -9.0238   20.4636 C   0  0  0  0  0  0
  -22.7230  -10.2127   20.3026 C   0  0  0  0  0  0
  -21.6864   -6.0730   22.5275 C   0  0  0  0  0  0
  -21.4030   -6.5635   23.8209 C   0  0  0  0  0  0
  -21.3661   -5.6790   24.9163 C   0  0  0  0  0  0
  -21.6035   -4.3053   24.7216 C   0  0  0  0  0  0
  -21.8828   -3.8147   23.4342 C   0  0  0  0  0  0
  -21.9215   -4.6959   22.3402 C   0  0  0  0  0  0
  -22.7894  -13.5241   21.1827 C   0  0  0  0  0  0
  -22.1672   -4.2154   21.0969 F   0  0  0  0  0  0
  -21.5617   -3.4534   25.7721 F   0  0  0  0  0  0
  -30.0432  -13.2625   20.4276 N   0  0  0  0  0  0
  -26.3062  -12.9353   20.3402 N   0  0  0  0  0  0
  -25.9359  -11.6508   20.5785 N   0  0  0  0  0  0
  -22.0555  -12.8217   22.0387 N   0  0  0  0  0  0
  -25.4344  -15.1884   20.4080 N   0  0  0  0  0  0
  -31.8974  -14.5459   20.1129 O   0  0  0  0  0  0
  -21.6673   -6.8870   21.4236 O   0  0  0  0  0  0
  -22.3565  -14.5529   20.6670 O   0  0  0  0  0  0
  -24.6128  -31.8670   23.2080 C   0  0  0  0  0  0
  -25.9032  -32.4818   23.8367 C   0  0  1  0  0  0
  -27.2369  -27.4635   20.1019 C   0  0  0  0  0  0
  -25.5899  -33.8613   24.2297 N   0  0  0  0  0  0
  -23.3975  -30.4894   21.5478 C   0  0  2  0  0  0
  -24.8444  -28.9542   20.1167 C   0  0  0  0  0  0
  -22.7392  -29.4664   22.5005 C   0  0  0  0  0  0
  -18.0274  -28.1368   22.8516 C   0  0  0  0  0  0
  -24.1488  -36.7325   23.2633 C   0  0  0  0  0  0
  -25.9205  -30.8466   21.3522 C   0  0  0  0  0  0
  -26.0028  -29.4822   20.7043 C   0  0  0  0  0  0
  -27.2040  -28.7437   20.6883 C   0  0  0  0  0  0
  -26.0647  -26.9359   19.5165 C   0  0  0  0  0  0
  -24.8692  -27.6794   19.5210 C   0  0  0  0  0  0
  -23.6030  -29.8142   20.1639 C   0  0  0  0  0  0
  -25.4107  -36.3103   24.0325 C   0  0  1  0  0  0
  -20.5854  -28.3674   23.1330 C   0  0  2  0  0  0
  -20.6780  -26.9423   22.5419 C   0  0  0  0  0  0
  -19.5757  -26.6388   21.5230 C   0  0  0  0  0  0
  -18.1932  -26.7922   22.1624 C   0  0  0  0  0  0
  -19.1511  -28.8836   23.2926 C   0  0  0  0  0  0
  -18.9447  -30.1441   23.8949 C   0  0  0  0  0  0
  -17.6447  -30.6588   24.0573 C   0  0  0  0  0  0
  -25.9031  -34.9470   23.5098 C   0  0  0  0  0  0
  -16.5347  -29.9087   23.6317 C   0  0  0  0  0  0
  -16.7260  -28.6482   23.0376 C   0  0  0  0  0  0
  -26.4465  -31.6602   25.0695 C   0  0  0  0  0  0
  -25.3738  -31.3732   26.1448 C   0  0  0  0  0  0
  -27.0316  -30.3048   24.6092 C   0  0  0  0  0  0
  -27.6039  -32.4330   25.7463 C   0  0  0  0  0  0
  -27.5582  -37.1808   24.8461 C   0  0  0  0  0  0
  -21.4118  -29.3043   22.3749 N   0  0  0  0  0  0
  -26.4296  -37.3789   23.9403 N   0  0  0  0  0  0
  -24.6619  -31.0801   22.0962 N   0  0  0  0  0  0
  -23.4176  -28.8227   23.3052 O   0  0  0  0  0  0
  -28.4120  -26.7521   20.1092 O   0  0  0  0  0  0
  -26.5601  -34.8918   22.4664 O   0  0  0  0  0  0
  -23.5324  -32.1406   23.7493 O   0  0  0  0  0  0
  -31.0958  -18.3333   18.5771 C   0  0  0  0  0  0
  -30.6395  -17.0694   18.9931 C   0  0  0  0  0  0
  -30.4054  -17.9020   21.2688 C   0  0  0  0  0  0
  -31.2519  -19.3840   19.5051 C   0  0  0  0  0  0
  -30.3397  -16.8288   20.3547 C   0  0  0  0  0  0
  -30.8725  -19.1689   20.8533 C   0  0  0  0  0  0
  -30.0243  -23.9298   19.5366 C   0  0  0  0  0  0
  -30.2743  -22.5452   18.8996 C   0  0  0  0  0  0
  -33.4034  -20.6966   19.4273 C   0  0  0  0  0  0
  -28.5587  -24.3355   19.7104 C   0  0  0  0  0  0
  -28.3286  -25.4661   20.7263 C   0  0  0  0  0  0
  -31.9184  -20.6773   19.0316 C   0  0  2  0  0  0
  -30.0050  -15.5179   20.8032 N   0  0  0  0  0  0
  -31.2858  -21.9040   19.4976 N   0  0  0  0  0  0
  -30.9590  -24.6569   19.8986 O   0  0  0  0  0  0
  -29.6314  -22.1075   17.9396 O   0  0  0  0  0  0
  -31.0017  -20.1577   21.7706 F   0  0  0  0  0  0
  -31.4566  -12.3186   19.1174 H   0  0  0  0  0  0
  -30.2663  -11.2547   19.8161 H   0  0  0  0  0  0
  -29.7129  -11.7669   17.4152 H   0  0  0  0  0  0
  -29.6756  -13.4751   17.7699 H   0  0  0  0  0  0
  -27.8047  -11.3144   18.8045 H   0  0  0  0  0  0
  -27.3628  -12.6584   17.7877 H   0  0  0  0  0  0
  -27.7019  -14.2570   19.5751 H   0  0  0  0  0  0
  -28.6749  -11.9815   21.3722 H   0  0  0  0  0  0
  -28.5068  -13.6499   21.8530 H   0  0  0  0  0  0
  -25.2764   -9.5717   22.4726 H   0  0  0  0  0  0
  -24.0038   -7.4646   22.7456 H   0  0  0  0  0  0
  -21.0838   -8.8732   19.8957 H   0  0  0  0  0  0
  -22.3652  -10.9653   19.6139 H   0  0  0  0  0  0
  -21.2033   -7.6149   23.9702 H   0  0  0  0  0  0
  -21.1463   -6.0518   25.9057 H   0  0  0  0  0  0
  -22.0619   -2.7612   23.2833 H   0  0  0  0  0  0
  -22.4217  -11.9897   22.4767 H   0  0  0  0  0  0
  -21.1156  -13.1185   22.2585 H   0  0  0  0  0  0
  -24.6698  -15.8457   20.5150 H   0  0  0  0  0  0
  -26.2797  -15.6227   20.0610 H   0  0  0  0  0  0
  -26.7114  -32.5560   23.1144 H   0  0  0  0  0  0
  -25.0122  -33.9783   25.0481 H   0  0  0  0  0  0
  -22.6886  -31.3070   21.4055 H   0  0  0  0  0  0
  -23.3728  -35.9679   23.3302 H   0  0  0  0  0  0
  -24.3601  -36.8943   22.2052 H   0  0  0  0  0  0
  -23.7244  -37.6529   23.6654 H   0  0  0  0  0  0
  -26.0216  -31.6143   20.5825 H   0  0  0  0  0  0
  -26.8108  -30.9044   21.9679 H   0  0  0  0  0  0
  -28.1018  -29.1436   21.1374 H   0  0  0  0  0  0
  -26.0758  -25.9569   19.0567 H   0  0  0  0  0  0
  -23.9773  -27.2670   19.0686 H   0  0  0  0  0  0
  -23.7054  -30.5812   19.3957 H   0  0  0  0  0  0
  -22.7317  -29.2264   19.8710 H   0  0  0  0  0  0
  -25.1271  -36.1971   25.0820 H   0  0  0  0  0  0
  -20.9968  -28.3238   24.1436 H   0  0  0  0  0  0
  -20.5737  -26.2284   23.3595 H   0  0  0  0  0  0
  -21.6649  -26.7510   22.1191 H   0  0  0  0  0  0
  -19.6941  -25.6305   21.1256 H   0  0  0  0  0  0
  -19.6682  -27.3203   20.6767 H   0  0  0  0  0  0
  -17.4218  -26.6706   21.4009 H   0  0  0  0  0  0
  -18.0322  -26.0026   22.8978 H   0  0  0  0  0  0
  -19.7923  -30.7243   24.2355 H   0  0  0  0  0  0
  -17.4997  -31.6281   24.5161 H   0  0  0  0  0  0
  -15.5346  -30.3018   23.7582 H   0  0  0  0  0  0
  -15.8661  -28.0797   22.7102 H   0  0  0  0  0  0
  -24.5870  -30.7132   25.7776 H   0  0  0  0  0  0
  -24.8974  -32.2910   26.4909 H   0  0  0  0  0  0
  -25.8058  -30.8867   27.0198 H   0  0  0  0  0  0
  -26.2865  -29.6799   24.1160 H   0  0  0  0  0  0
  -27.4097  -29.7316   25.4567 H   0  0  0  0  0  0
  -27.8685  -30.4360   23.9231 H   0  0  0  0  0  0
  -27.2643  -33.3613   26.2066 H   0  0  0  0  0  0
  -28.3826  -32.6928   25.0284 H   0  0  0  0  0  0
  -28.0731  -31.8446   26.5353 H   0  0  0  0  0  0
  -28.2592  -38.0116   24.7524 H   0  0  0  0  0  0
  -28.1078  -36.2645   24.6244 H   0  0  0  0  0  0
  -27.2325  -37.1427   25.8875 H   0  0  0  0  0  0
  -20.9292  -29.8720   21.6930 H   0  0  0  0  0  0
  -26.0182  -38.2874   24.1373 H   0  0  0  0  0  0
  -31.3700  -18.4766   17.5419 H   0  0  0  0  0  0
  -30.5717  -16.2765   18.2600 H   0  0  0  0  0  0
  -30.1640  -17.7438   22.3094 H   0  0  0  0  0  0
  -33.9271  -19.8323   19.0177 H   0  0  0  0  0  0
  -33.5316  -20.6755   20.5108 H   0  0  0  0  0  0
  -33.9026  -21.5893   19.0497 H   0  0  0  0  0  0
  -28.0183  -23.4522   20.0484 H   0  0  0  0  0  0
  -28.1395  -24.6007   18.7415 H   0  0  0  0  0  0
  -29.0667  -25.4259   21.5291 H   0  0  0  0  0  0
  -27.3714  -25.3128   21.2281 H   0  0  0  0  0  0
  -31.8839  -20.6882   17.9390 H   0  0  0  0  0  0
  -29.0954  -15.3745   21.2178 H   0  0  0  0  0  0
  -31.7214  -22.3947   20.2667 H   0  0  0  0  0  0
  1 25  1  0  0  0
  1 30  2  0  0  0
  1 83  1  0  0  0
  2  3  1  0  0  0
  2 25  1  0  0  0
  2 88  1  0  0  0
  2 89  1  0  0  0
  3  4  1  0  0  0
  3 90  1  0  0  0
  3 91  1  0  0  0
  4  5  1  0  0  0
  4 92  1  0  0  0
  4 93  1  0  0  0
  5  6  1  0  0  0
  5 26  1  0  0  0
  5 94  1  0  0  0
  6 25  1  0  0  0
  6 95  1  0  0  0
  6 96  1  0  0  0
  7  8  2  0  0  0
  7 26  1  0  0  0
  7 29  1  0  0  0
  8  9  1  0  0  0
  8 22  1  0  0  0
  9 10  1  0  0  0
  9 27  2  0  0  0
 10 11  2  0  0  0
 10 15  1  0  0  0
 11 12  1  0  0  0
 11 97  1  0  0  0
 12 13  2  0  0  0
 12 98  1  0  0  0
 13 14  1  0  0  0
 13 31  1  0  0  0
 14 15  2  0  0  0
 14 99  1  0  0  0
 15100  1  0  0  0
 16 17  2  0  0  0
 16 21  1  0  0  0
 16 31  1  0  0  0
 17 18  1  0  0  0
 17101  1  0  0  0
 18 19  2  0  0  0
 18102  1  0  0  0
 19 20  1  0  0  0
 19 24  1  0  0  0
 20 21  2  0  0  0
 20103  1  0  0  0
 21 23  1  0  0  0
 22 28  1  0  0  0
 22 32  2  0  0  0
 26 27  1  0  0  0
 28104  1  0  0  0
 28105  1  0  0  0
 29106  1  0  0  0
 29107  1  0  0  0
 33 34  1  0  0  0
 33 66  1  0  0  0
 33 70  2  0  0  0
 34 36  1  0  0  0
 34 59  1  0  0  0
 34108  1  0  0  0
 35 44  2  0  0  0
 35 45  1  0  0  0
 35 68  1  0  0  0
 36 56  1  0  0  0
 36109  1  0  0  0
 37 39  1  0  0  0
 37 47  1  0  0  0
 37 66  1  0  0  0
 37110  1  0  0  0
 38 43  2  0  0  0
 38 46  1  0  0  0
 38 47  1  0  0  0
 39 64  1  0  0  0
 39 67  2  0  0  0
 40 52  1  0  0  0
 40 53  2  0  0  0
 40 58  1  0  0  0
 41111  1  0  0  0
 41112  1  0  0  0
 41113  1  0  0  0
 41 48  1  0  0  0
 42 43  1  0  0  0
 42 66  1  0  0  0
 42114  1  0  0  0
 42115  1  0  0  0
 43 44  1  0  0  0
 44116  1  0  0  0
 45 46  2  0  0  0
 45117  1  0  0  0
 46118  1  0  0  0
 47119  1  0  0  0
 47120  1  0  0  0
 48 56  1  0  0  0
 48 65  1  0  0  0
 48121  1  0  0  0
 49 50  1  0  0  0
 49 53  1  0  0  0
 49 64  1  0  0  0
 49122  1  0  0  0
 50 51  1  0  0  0
 50123  1  0  0  0
 50124  1  0  0  0
 51 52  1  0  0  0
 51125  1  0  0  0
 51126  1  0  0  0
 52127  1  0  0  0
 52128  1  0  0  0
 53 54  1  0  0  0
 54 55  2  0  0  0
 54129  1  0  0  0
 55 57  1  0  0  0
 55130  1  0  0  0
 56 69  2  0  0  0
 57 58  2  0  0  0
 57131  1  0  0  0
 58132  1  0  0  0
 59 60  1  0  0  0
 59 61  1  0  0  0
 59 62  1  0  0  0
 60133  1  0  0  0
 60134  1  0  0  0
 60135  1  0  0  0
 61136  1  0  0  0
 61137  1  0  0  0
 61138  1  0  0  0
 62139  1  0  0  0
 62140  1  0  0  0
 62141  1  0  0  0
 63 65  1  0  0  0
 63142  1  0  0  0
 63143  1  0  0  0
 63144  1  0  0  0
 64145  1  0  0  0
 65146  1  0  0  0
 68 81  1  0  0  0
 71 72  2  0  0  0
 71 74  1  0  0  0
 71147  1  0  0  0
 72 75  1  0  0  0
 72148  1  0  0  0
 73 75  2  0  0  0
 73 76  1  0  0  0
 73149  1  0  0  0
 74 76  2  0  0  0
 74 82  1  0  0  0
 75 83  1  0  0  0
 76 87  1  0  0  0
 77 78  1  0  0  0
 77 80  1  0  0  0
 77 85  2  0  0  0
 78 84  1  0  0  0
 78 86  2  0  0  0
 79150  1  0  0  0
 79151  1  0  0  0
 79152  1  0  0  0
 79 82  1  0  0  0
 80 81  1  0  0  0
 80153  1  0  0  0
 80154  1  0  0  0
 81155  1  0  0  0
 81156  1  0  0  0
 82 84  1  0  0  0
 82157  1  0  0  0
 83158  1  0  0  0
 84159  1  0  0  0
M  ISO  4   1 100  68 101  81 101  83 100
M  END
> <chiral flag>
0

> <version>
0

> <s_m_source_file>
/data/baiqing/PycharmProjects/Reinvent-master-3.2/result/LINK_invent/BTK/process_docking_weight1_custom_product_contain_oxygen_bond_distance_aromatic_linkinvent_7_9_3/rearranged_h_0169.sdf

> <i_m_source_file_index>
44

> <r_mmod_Potential_Energy-OPLS-2005>
-57.6322746276855

> <r_mmod_Stretch_Energy-OPLS-2005>
32.8460845947266

> <r_mmod_Bend_Energy-OPLS-2005>
89.5553817749023

> <r_mmod_Torsional_Energy-OPLS-2005>
252.072448730469

> <r_mmod_Improper_Torsional_Energy-OPLS-2005>
5.98843622207642

> <r_mmod_Van_der_Waal_Energy-OPLS-2005>
154.832275390625

> <r_mmod_Electrostatic_Energy-OPLS-2005>
-376.502197265625

> <r_mmod_Solvation_Energy-OPLS-2005>
-231.017990112305

> <b_mmod_Minimization_Converged-OPLS-2005>
0

> <r_mmod_RMS_Derivative-OPLS-2005>
2.86100840568542

$$$$
44
                    3D
 Structure written by MMmdl.
160169  0  0  1  0            999 V2000
  -30.6146  -14.6428   20.5070 C   0  0  0  0  0  0
  -30.4451  -12.3947   19.4566 C   0  0  0  0  0  0
  -29.5134  -12.5050   18.2284 C   0  0  0  0  0  0
  -28.0363  -12.3403   18.6398 C   0  0  0  0  0  0
  -27.6560  -13.2144   19.8641 C   0  0  2  0  0  0
  -28.6990  -13.0617   20.9948 C   0  0  0  0  0  0
  -25.2582  -13.8163   20.5692 C   0  0  0  0  0  0
  -24.1841  -13.0435   20.9187 C   0  0  0  0  0  0
  -24.6400  -11.6904   20.8723 C   0  0  0  0  0  0
  -23.9059  -10.4297   21.0397 C   0  0  0  0  0  0
  -24.3609   -9.4213   21.9181 C   0  0  0  0  0  0
  -23.6283   -8.2250   22.0753 C   0  0  0  0  0  0
  -22.4267   -8.0283   21.3541 C   0  0  0  0  0  0
  -21.9899   -9.0258   20.4644 C   0  0  0  0  0  0
  -22.7223  -10.2140   20.3052 C   0  0  0  0  0  0
  -21.6847   -6.0728   22.5275 C   0  0  0  0  0  0
  -21.4012   -6.5635   23.8209 C   0  0  0  0  0  0
  -21.3664   -5.6787   24.9172 C   0  0  0  0  0  0
  -21.6046   -4.3051   24.7220 C   0  0  0  0  0  0
  -21.8822   -3.8139   23.4340 C   0  0  0  0  0  0
  -21.9194   -4.6959   22.3400 C   0  0  0  0  0  0
  -22.7867  -13.5239   21.1849 C   0  0  0  0  0  0
  -22.1667   -4.2143   21.0975 F   0  0  0  0  0  0
  -21.5627   -3.4535   25.7733 F   0  0  0  0  0  0
  -30.0171  -13.4106   20.4387 N   0  0  0  0  0  0
  -26.3004  -12.9336   20.3315 N   0  0  0  0  0  0
  -25.9327  -11.6493   20.5741 N   0  0  0  0  0  0
  -22.0500  -12.8241   22.0405 N   0  0  0  0  0  0
  -25.4309  -15.1885   20.4142 N   0  0  0  0  0  0
  -31.7638  -14.8223   20.0912 O   0  0  0  0  0  0
  -21.6636   -6.8876   21.4237 O   0  0  0  0  0  0
  -22.3573  -14.5547   20.6690 O   0  0  0  0  0  0
  -24.6249  -31.8600   23.2027 C   0  0  0  0  0  0
  -25.9104  -32.4780   23.8345 C   0  0  1  0  0  0
  -27.2284  -27.3335   20.1095 C   0  0  0  0  0  0
  -25.5916  -33.8577   24.2273 N   0  0  0  0  0  0
  -23.4173  -30.4839   21.5452 C   0  0  2  0  0  0
  -24.8626  -28.9376   20.1144 C   0  0  0  0  0  0
  -22.7460  -29.4629   22.4939 C   0  0  0  0  0  0
  -18.0283  -28.1387   22.8480 C   0  0  0  0  0  0
  -24.1487  -36.7299   23.2638 C   0  0  0  0  0  0
  -25.9561  -30.7978   21.3674 C   0  0  0  0  0  0
  -26.0317  -29.4243   20.7114 C   0  0  0  0  0  0
  -27.2177  -28.6352   20.6963 C   0  0  0  0  0  0
  -26.0313  -26.8882   19.5029 C   0  0  0  0  0  0
  -24.8627  -27.6733   19.5043 C   0  0  0  0  0  0
  -23.6306  -29.8172   20.1607 C   0  0  0  0  0  0
  -25.4110  -36.3084   24.0328 C   0  0  1  0  0  0
  -20.5880  -28.3686   23.1281 C   0  0  2  0  0  0
  -20.6770  -26.9410   22.5407 C   0  0  0  0  0  0
  -19.5751  -26.6389   21.5205 C   0  0  0  0  0  0
  -18.1932  -26.7929   22.1620 C   0  0  0  0  0  0
  -19.1535  -28.8851   23.2880 C   0  0  0  0  0  0
  -18.9464  -30.1451   23.8899 C   0  0  0  0  0  0
  -17.6469  -30.6587   24.0564 C   0  0  0  0  0  0
  -25.9048  -34.9453   23.5102 C   0  0  0  0  0  0
  -16.5357  -29.9090   23.6330 C   0  0  0  0  0  0
  -16.7273  -28.6509   23.0345 C   0  0  0  0  0  0
  -26.4501  -31.6585   25.0706 C   0  0  0  0  0  0
  -25.3750  -31.3717   26.1446 C   0  0  0  0  0  0
  -27.0343  -30.3016   24.6136 C   0  0  0  0  0  0
  -27.6067  -32.4310   25.7478 C   0  0  0  0  0  0
  -27.5576  -37.1796   24.8463 C   0  0  0  0  0  0
  -21.4177  -29.3046   22.3681 N   0  0  0  0  0  0
  -26.4288  -37.3778   23.9415 N   0  0  0  0  0  0
  -24.6855  -31.0624   22.0963 N   0  0  0  0  0  0
  -23.4193  -28.8169   23.3015 O   0  0  0  0  0  0
  -28.3697  -26.5221   20.1354 O   0  0  0  0  0  0
  -26.5621  -34.8923   22.4674 O   0  0  0  0  0  0
  -23.5419  -32.1383   23.7367 O   0  0  0  0  0  0
  -29.0696  -19.3282   21.6833 C   0  0  0  0  0  0
  -30.6622  -19.2932   19.8858 C   0  0  0  0  0  0
  -29.0598  -17.9044   21.6948 C   0  0  0  0  0  0
  -30.6716  -17.8620   19.9117 C   0  0  0  0  0  0
  -29.8900  -20.0719   20.7962 C   0  0  0  0  0  0
  -29.8856  -17.1254   20.8408 C   0  0  0  0  0  0
  -29.5419  -24.2214   20.1774 C   0  0  0  0  0  0
  -29.5040  -22.6460   19.9163 C   0  0  0  0  0  0
  -31.6043  -21.8084   21.3206 C   0  0  0  0  0  0
  -32.0626  -23.2020   21.7533 C   0  0  0  0  0  0
  -30.1004  -21.6265   20.9971 C   0  0  2  0  0  0
  -28.2223  -25.0505   20.0274 C   0  0  0  0  0  0
  -30.5784  -24.9241   20.4063 N   0  0  0  0  0  0
  -29.8144  -15.6663   20.9428 N   0  0  0  0  0  0
  -32.3493  -23.6010   19.0984 O   0  0  0  0  0  0
  -33.0419  -25.4446   20.6973 O   0  0  0  0  0  0
  -32.1234  -24.3504   20.3453 S   0  0  0  0  0  0
  -31.4850  -12.5267   19.1536 H   0  0  0  0  0  0
  -30.3882  -11.3986   19.8980 H   0  0  0  0  0  0
  -29.7785  -11.7512   17.4860 H   0  0  0  0  0  0
  -29.6544  -13.4719   17.7432 H   0  0  0  0  0  0
  -27.8771  -11.2876   18.8767 H   0  0  0  0  0  0
  -27.3827  -12.5619   17.7953 H   0  0  0  0  0  0
  -27.6763  -14.2510   19.5259 H   0  0  0  0  0  0
  -28.7111  -12.0362   21.3668 H   0  0  0  0  0  0
  -28.4397  -13.6823   21.8533 H   0  0  0  0  0  0
  -25.2756   -9.5685   22.4755 H   0  0  0  0  0  0
  -23.9982   -7.4645   22.7481 H   0  0  0  0  0  0
  -21.0825   -8.8781   19.8959 H   0  0  0  0  0  0
  -22.3679  -10.9680   19.6163 H   0  0  0  0  0  0
  -21.2009   -7.6142   23.9708 H   0  0  0  0  0  0
  -21.1482   -6.0519   25.9074 H   0  0  0  0  0  0
  -22.0598   -2.7598   23.2843 H   0  0  0  0  0  0
  -22.4085  -11.9888   22.4795 H   0  0  0  0  0  0
  -21.1132  -13.1294   22.2616 H   0  0  0  0  0  0
  -24.6665  -15.8445   20.5328 H   0  0  0  0  0  0
  -26.2825  -15.6274   20.0868 H   0  0  0  0  0  0
  -26.7169  -32.5458   23.1093 H   0  0  0  0  0  0
  -25.0048  -33.9715   25.0406 H   0  0  0  0  0  0
  -22.7117  -31.3052   21.4021 H   0  0  0  0  0  0
  -23.3742  -35.9637   23.3299 H   0  0  0  0  0  0
  -24.3578  -36.8921   22.2052 H   0  0  0  0  0  0
  -23.7247  -37.6505   23.6660 H   0  0  0  0  0  0
  -26.0797  -31.5604   20.5969 H   0  0  0  0  0  0
  -26.8400  -30.8502   21.9913 H   0  0  0  0  0  0
  -28.1188  -29.0082   21.1634 H   0  0  0  0  0  0
  -25.9692  -25.9235   19.0230 H   0  0  0  0  0  0
  -23.9645  -27.2911   19.0391 H   0  0  0  0  0  0
  -23.7516  -30.5936   19.4043 H   0  0  0  0  0  0
  -22.7500  -29.2483   19.8574 H   0  0  0  0  0  0
  -25.1290  -36.1933   25.0819 H   0  0  0  0  0  0
  -20.9975  -28.3259   24.1400 H   0  0  0  0  0  0
  -20.5662  -26.2297   23.3602 H   0  0  0  0  0  0
  -21.6642  -26.7434   22.1208 H   0  0  0  0  0  0
  -19.6916  -25.6305   21.1225 H   0  0  0  0  0  0
  -19.6692  -27.3206   20.6739 H   0  0  0  0  0  0
  -17.4196  -26.6657   21.4031 H   0  0  0  0  0  0
  -18.0349  -26.0074   22.9021 H   0  0  0  0  0  0
  -19.7944  -30.7259   24.2272 H   0  0  0  0  0  0
  -17.5029  -31.6267   24.5171 H   0  0  0  0  0  0
  -15.5360  -30.2999   23.7658 H   0  0  0  0  0  0
  -15.8667  -28.0838   22.7055 H   0  0  0  0  0  0
  -24.5922  -30.7066   25.7782 H   0  0  0  0  0  0
  -24.8950  -32.2883   26.4880 H   0  0  0  0  0  0
  -25.8092  -30.8893   27.0210 H   0  0  0  0  0  0
  -26.2899  -29.6757   24.1196 H   0  0  0  0  0  0
  -27.4099  -29.7280   25.4619 H   0  0  0  0  0  0
  -27.8742  -30.4318   23.9308 H   0  0  0  0  0  0
  -27.2684  -33.3603   26.2068 H   0  0  0  0  0  0
  -28.3876  -32.6872   25.0309 H   0  0  0  0  0  0
  -28.0733  -31.8422   26.5383 H   0  0  0  0  0  0
  -28.2594  -38.0092   24.7512 H   0  0  0  0  0  0
  -28.1070  -36.2624   24.6285 H   0  0  0  0  0  0
  -27.2292  -37.1439   25.8864 H   0  0  0  0  0  0
  -20.9346  -29.8776   21.6900 H   0  0  0  0  0  0
  -26.0167  -38.2850   24.1431 H   0  0  0  0  0  0
  -28.4646  -19.8512   22.4118 H   0  0  0  0  0  0
  -31.3130  -19.7970   19.1845 H   0  0  0  0  0  0
  -28.4198  -17.4062   22.4097 H   0  0  0  0  0  0
  -31.3043  -17.3370   19.2100 H   0  0  0  0  0  0
  -29.9781  -22.4545   18.9539 H   0  0  0  0  0  0
  -28.4582  -22.3795   19.7647 H   0  0  0  0  0  0
  -31.8535  -21.1252   22.1341 H   0  0  0  0  0  0
  -32.2172  -21.4812   20.4806 H   0  0  0  0  0  0
  -33.0850  -23.1386   22.1238 H   0  0  0  0  0  0
  -31.4658  -23.6346   22.5546 H   0  0  0  0  0  0
  -29.5722  -21.8696   21.9205 H   0  0  0  0  0  0
  -27.5104  -24.7026   20.7765 H   0  0  0  0  0  0
  -27.8105  -24.8017   19.0494 H   0  0  0  0  0  0
  -28.9688  -15.3247   21.3735 H   0  0  0  0  0  0
  1 25  1  0  0  0
  1 30  2  0  0  0
  1 84  1  0  0  0
  2  3  1  0  0  0
  2 25  1  0  0  0
  2 88  1  0  0  0
  2 89  1  0  0  0
  3  4  1  0  0  0
  3 90  1  0  0  0
  3 91  1  0  0  0
  4  5  1  0  0  0
  4 92  1  0  0  0
  4 93  1  0  0  0
  5  6  1  0  0  0
  5 26  1  0  0  0
  5 94  1  0  0  0
  6 25  1  0  0  0
  6 95  1  0  0  0
  6 96  1  0  0  0
  7  8  2  0  0  0
  7 26  1  0  0  0
  7 29  1  0  0  0
  8  9  1  0  0  0
  8 22  1  0  0  0
  9 10  1  0  0  0
  9 27  2  0  0  0
 10 11  2  0  0  0
 10 15  1  0  0  0
 11 12  1  0  0  0
 11 97  1  0  0  0
 12 13  2  0  0  0
 12 98  1  0  0  0
 13 14  1  0  0  0
 13 31  1  0  0  0
 14 15  2  0  0  0
 14 99  1  0  0  0
 15100  1  0  0  0
 16 17  2  0  0  0
 16 21  1  0  0  0
 16 31  1  0  0  0
 17 18  1  0  0  0
 17101  1  0  0  0
 18 19  2  0  0  0
 18102  1  0  0  0
 19 20  1  0  0  0
 19 24  1  0  0  0
 20 21  2  0  0  0
 20103  1  0  0  0
 21 23  1  0  0  0
 22 28  1  0  0  0
 22 32  2  0  0  0
 26 27  1  0  0  0
 28104  1  0  0  0
 28105  1  0  0  0
 29106  1  0  0  0
 29107  1  0  0  0
 33 34  1  0  0  0
 33 66  1  0  0  0
 33 70  2  0  0  0
 34 36  1  0  0  0
 34 59  1  0  0  0
 34108  1  0  0  0
 35 44  2  0  0  0
 35 45  1  0  0  0
 35 68  1  0  0  0
 36 56  1  0  0  0
 36109  1  0  0  0
 37 39  1  0  0  0
 37 47  1  0  0  0
 37 66  1  0  0  0
 37110  1  0  0  0
 38 43  2  0  0  0
 38 46  1  0  0  0
 38 47  1  0  0  0
 39 64  1  0  0  0
 39 67  2  0  0  0
 40 52  1  0  0  0
 40 53  2  0  0  0
 40 58  1  0  0  0
 41111  1  0  0  0
 41112  1  0  0  0
 41113  1  0  0  0
 41 48  1  0  0  0
 42 43  1  0  0  0
 42 66  1  0  0  0
 42114  1  0  0  0
 42115  1  0  0  0
 43 44  1  0  0  0
 44116  1  0  0  0
 45 46  2  0  0  0
 45117  1  0  0  0
 46118  1  0  0  0
 47119  1  0  0  0
 47120  1  0  0  0
 48 56  1  0  0  0
 48 65  1  0  0  0
 48121  1  0  0  0
 49 50  1  0  0  0
 49 53  1  0  0  0
 49 64  1  0  0  0
 49122  1  0  0  0
 50 51  1  0  0  0
 50123  1  0  0  0
 50124  1  0  0  0
 51 52  1  0  0  0
 51125  1  0  0  0
 51126  1  0  0  0
 52127  1  0  0  0
 52128  1  0  0  0
 53 54  1  0  0  0
 54 55  2  0  0  0
 54129  1  0  0  0
 55 57  1  0  0  0
 55130  1  0  0  0
 56 69  2  0  0  0
 57 58  2  0  0  0
 57131  1  0  0  0
 58132  1  0  0  0
 59 60  1  0  0  0
 59 61  1  0  0  0
 59 62  1  0  0  0
 60133  1  0  0  0
 60134  1  0  0  0
 60135  1  0  0  0
 61136  1  0  0  0
 61137  1  0  0  0
 61138  1  0  0  0
 62139  1  0  0  0
 62140  1  0  0  0
 62141  1  0  0  0
 63 65  1  0  0  0
 63142  1  0  0  0
 63143  1  0  0  0
 63144  1  0  0  0
 64145  1  0  0  0
 65146  1  0  0  0
 68 82  1  0  0  0
 71 73  2  0  0  0
 71 75  1  0  0  0
 71147  1  0  0  0
 72 74  1  0  0  0
 72 75  2  0  0  0
 72148  1  0  0  0
 73 76  1  0  0  0
 73149  1  0  0  0
 74 76  2  0  0  0
 74150  1  0  0  0
 75 81  1  0  0  0
 76 84  1  0  0  0
 77 78  1  0  0  0
 77 82  1  0  0  0
 77 83  2  0  0  0
 78 81  1  0  0  0
 78151  1  0  0  0
 78152  1  0  0  0
 79 80  1  0  0  0
 79 81  1  0  0  0
 79153  1  0  0  0
 79154  1  0  0  0
 80155  1  0  0  0
 80156  1  0  0  0
 80 87  1  0  0  0
 81157  1  0  0  0
 82158  1  0  0  0
 82159  1  0  0  0
 83 87  1  0  0  0
 84160  1  0  0  0
 85 87  2  0  0  0
 86 87  2  0  0  0
M  ISO  4   1 100  68 101  82 101  84 100
M  END
> <chiral flag>
0

> <version>
0

> <s_m_source_file>
/data/baiqing/PycharmProjects/Reinvent-master-3.2/result/LINK_invent/BTK/process_docking_weight1_custom_product_contain_oxygen_bond_distance_aromatic_linkinvent_7_9_3/rearranged_h_0169.sdf

> <i_m_source_file_index>
45

> <r_mmod_Potential_Energy-OPLS-2005>
-164.84407043457

> <r_mmod_Stretch_Energy-OPLS-2005>
85.2395324707031

> <r_mmod_Bend_Energy-OPLS-2005>
157.794464111328

> <r_mmod_Torsional_Energy-OPLS-2005>
218.821762084961

> <r_mmod_Improper_Torsional_Energy-OPLS-2005>
5.09838533401489

> <r_mmod_Van_der_Waal_Energy-OPLS-2005>
144.60009765625

> <r_mmod_Electrostatic_Energy-OPLS-2005>
-564.120971679688

> <r_mmod_Solvation_Energy-OPLS-2005>
-256.416687011719

> <b_mmod_Minimization_Converged-OPLS-2005>
0

> <r_mmod_RMS_Derivative-OPLS-2005>
1.41493260860443

$$$$
45
                    3D
 Structure written by MMmdl.
165173  0  0  1  0            999 V2000
  -30.7244  -14.4116   20.6541 C   0  0  0  0  0  0
  -30.4251  -12.3010   19.4127 C   0  0  0  0  0  0
  -29.4941  -12.5415   18.2067 C   0  0  0  0  0  0
  -28.0171  -12.3778   18.6199 C   0  0  0  0  0  0
  -27.6692  -13.2040   19.8847 C   0  0  2  0  0  0
  -28.7029  -12.9498   21.0034 C   0  0  0  0  0  0
  -25.2606  -13.8169   20.5678 C   0  0  0  0  0  0
  -24.1847  -13.0439   20.9141 C   0  0  0  0  0  0
  -24.6398  -11.6906   20.8740 C   0  0  0  0  0  0
  -23.9083  -10.4278   21.0403 C   0  0  0  0  0  0
  -24.3632   -9.4193   21.9155 C   0  0  0  0  0  0
  -23.6295   -8.2253   22.0758 C   0  0  0  0  0  0
  -22.4282   -8.0290   21.3551 C   0  0  0  0  0  0
  -21.9906   -9.0277   20.4671 C   0  0  0  0  0  0
  -22.7272  -10.2130   20.3057 C   0  0  0  0  0  0
  -21.6842   -6.0748   22.5275 C   0  0  0  0  0  0
  -21.4019   -6.5649   23.8215 C   0  0  0  0  0  0
  -21.3667   -5.6799   24.9170 C   0  0  0  0  0  0
  -21.6020   -4.3064   24.7211 C   0  0  0  0  0  0
  -21.8830   -3.8165   23.4344 C   0  0  0  0  0  0
  -21.9194   -4.6975   22.3402 C   0  0  0  0  0  0
  -22.7873  -13.5219   21.1849 C   0  0  0  0  0  0
  -22.1664   -4.2165   21.0979 F   0  0  0  0  0  0
  -21.5605   -3.4554   25.7728 F   0  0  0  0  0  0
  -30.0519  -13.2434   20.4751 N   0  0  0  0  0  0
  -26.3048  -12.9334   20.3386 N   0  0  0  0  0  0
  -25.9328  -11.6506   20.5758 N   0  0  0  0  0  0
  -22.0568  -12.8171   22.0424 N   0  0  0  0  0  0
  -25.4319  -15.1894   20.4093 N   0  0  0  0  0  0
  -31.7530  -14.7114   20.0337 O   0  0  0  0  0  0
  -21.6649   -6.8896   21.4235 O   0  0  0  0  0  0
  -22.3545  -14.5538   20.6726 O   0  0  0  0  0  0
  -24.6066  -31.8712   23.2103 C   0  0  0  0  0  0
  -25.8975  -32.4865   23.8400 C   0  0  1  0  0  0
  -27.2423  -27.4821   20.1004 C   0  0  0  0  0  0
  -25.5851  -33.8651   24.2345 N   0  0  0  0  0  0
  -23.3958  -30.4892   21.5527 C   0  0  2  0  0  0
  -24.8443  -28.9666   20.1159 C   0  0  0  0  0  0
  -22.7337  -29.4649   22.5003 C   0  0  0  0  0  0
  -18.0252  -28.1375   22.8512 C   0  0  0  0  0  0
  -24.1492  -36.7312   23.2638 C   0  0  0  0  0  0
  -25.9173  -30.8556   21.3513 C   0  0  0  0  0  0
  -25.9997  -29.4922   20.7052 C   0  0  0  0  0  0
  -27.2018  -28.7601   20.6936 C   0  0  0  0  0  0
  -26.0712  -26.9553   19.5117 C   0  0  0  0  0  0
  -24.8730  -27.6932   19.5193 C   0  0  0  0  0  0
  -23.6008  -29.8197   20.1680 C   0  0  0  0  0  0
  -25.4108  -36.3106   24.0342 C   0  0  1  0  0  0
  -20.5831  -28.3650   23.1361 C   0  0  2  0  0  0
  -20.6768  -26.9416   22.5429 C   0  0  0  0  0  0
  -19.5735  -26.6350   21.5252 C   0  0  0  0  0  0
  -18.1920  -26.7891   22.1696 C   0  0  0  0  0  0
  -19.1484  -28.8826   23.2944 C   0  0  0  0  0  0
  -18.9397  -30.1443   23.8928 C   0  0  0  0  0  0
  -17.6416  -30.6592   24.0559 C   0  0  0  0  0  0
  -25.9008  -34.9481   23.5124 C   0  0  0  0  0  0
  -16.5313  -29.9086   23.6365 C   0  0  0  0  0  0
  -16.7222  -28.6514   23.0347 C   0  0  0  0  0  0
  -26.4431  -31.6600   25.0707 C   0  0  0  0  0  0
  -25.3712  -31.3704   26.1442 C   0  0  0  0  0  0
  -27.0270  -30.3067   24.6028 C   0  0  0  0  0  0
  -27.6050  -32.4297   25.7459 C   0  0  0  0  0  0
  -27.5585  -37.1809   24.8465 C   0  0  0  0  0  0
  -21.4071  -29.3011   22.3761 N   0  0  0  0  0  0
  -26.4296  -37.3798   23.9414 N   0  0  0  0  0  0
  -24.6599  -31.0829   22.1003 N   0  0  0  0  0  0
  -23.4151  -28.8212   23.2994 O   0  0  0  0  0  0
  -28.4205  -26.7821   20.0821 O   0  0  0  0  0  0
  -26.5604  -34.8917   22.4696 O   0  0  0  0  0  0
  -23.5277  -32.1419   23.7531 O   0  0  0  0  0  0
  -30.8545  -17.2291   22.7636 C   0  0  0  0  0  0
  -29.5029  -17.3953   20.7267 C   0  0  0  0  0  0
  -30.7544  -18.6249   22.9591 C   0  0  0  0  0  0
  -30.2363  -16.6130   21.6546 C   0  0  0  0  0  0
  -29.4124  -18.7974   20.9011 C   0  0  0  0  0  0
  -30.0452  -19.3989   22.0194 C   0  0  0  0  0  0
  -28.2950  -24.3580   19.6891 C   0  0  0  0  0  0
  -28.9631  -20.7577   19.4980 C   0  0  0  0  0  0
  -31.6450  -18.3619   25.3674 C   0  0  0  0  0  0
  -28.0183  -22.9644   20.2600 C   0  0  0  0  0  0
  -28.3626  -25.5009   20.7131 C   0  0  0  0  0  0
  -27.8811  -21.8057   19.2282 C   0  0  0  0  0  0
  -31.3087  -19.3211   24.2075 C   0  0  1  0  0  0
  -28.5884  -19.5874   20.0456 N   0  0  0  0  0  0
  -30.2106  -15.1996   21.6075 N   0  0  0  0  0  0
  -32.4569  -20.1833   23.8839 N   0  3  0  0  0  0
  -28.4791  -24.5532   18.4822 O   0  0  0  0  0  0
  -30.1320  -21.0112   19.2035 O   0  0  0  0  0  0
  -29.9463  -20.7351   22.2332 F   0  0  0  0  0  0
  -31.4709  -12.4098   19.1209 H   0  0  0  0  0  0
  -30.3262  -11.2772   19.7821 H   0  0  0  0  0  0
  -29.7424  -11.8499   17.3998 H   0  0  0  0  0  0
  -29.6577  -13.5483   17.8184 H   0  0  0  0  0  0
  -27.8368  -11.3178   18.8025 H   0  0  0  0  0  0
  -27.3610  -12.6608   17.7969 H   0  0  0  0  0  0
  -27.7269  -14.2582   19.6120 H   0  0  0  0  0  0
  -28.6594  -11.9094   21.3318 H   0  0  0  0  0  0
  -28.4364  -13.5332   21.8864 H   0  0  0  0  0  0
  -25.2782   -9.5648   22.4728 H   0  0  0  0  0  0
  -24.0017   -7.4625   22.7461 H   0  0  0  0  0  0
  -21.0852   -8.8799   19.8979 H   0  0  0  0  0  0
  -22.3739  -10.9662   19.6184 H   0  0  0  0  0  0
  -21.2032   -7.6165   23.9700 H   0  0  0  0  0  0
  -21.1467   -6.0552   25.9058 H   0  0  0  0  0  0
  -22.0603   -2.7631   23.2846 H   0  0  0  0  0  0
  -22.4237  -11.9803   22.4729 H   0  0  0  0  0  0
  -21.1222  -13.1195   22.2741 H   0  0  0  0  0  0
  -24.6755  -15.8536   20.5391 H   0  0  0  0  0  0
  -26.2960  -15.6284   20.1114 H   0  0  0  0  0  0
  -26.7058  -32.5597   23.1200 H   0  0  0  0  0  0
  -24.9967  -33.9869   25.0467 H   0  0  0  0  0  0
  -22.6832  -31.3020   21.4125 H   0  0  0  0  0  0
  -23.3740  -35.9653   23.3309 H   0  0  0  0  0  0
  -24.3558  -36.8897   22.2037 H   0  0  0  0  0  0
  -23.7237  -37.6526   23.6632 H   0  0  0  0  0  0
  -26.0062  -31.6230   20.5808 H   0  0  0  0  0  0
  -26.8164  -30.9267   21.9539 H   0  0  0  0  0  0
  -28.0977  -29.1688   21.1419 H   0  0  0  0  0  0
  -26.0791  -25.9866   19.0383 H   0  0  0  0  0  0
  -23.9896  -27.2794   19.0571 H   0  0  0  0  0  0
  -23.6931  -30.5907   19.4015 H   0  0  0  0  0  0
  -22.7353  -29.2195   19.8831 H   0  0  0  0  0  0
  -25.1286  -36.1989   25.0841 H   0  0  0  0  0  0
  -20.9933  -28.3232   24.1469 H   0  0  0  0  0  0
  -20.5655  -26.2278   23.3599 H   0  0  0  0  0  0
  -21.6657  -26.7450   22.1262 H   0  0  0  0  0  0
  -19.6871  -25.6221   21.1375 H   0  0  0  0  0  0
  -19.6635  -27.3092   20.6704 H   0  0  0  0  0  0
  -17.4168  -26.6564   21.4175 H   0  0  0  0  0  0
  -18.0380  -26.0043   22.9126 H   0  0  0  0  0  0
  -19.7858  -30.7254   24.2362 H   0  0  0  0  0  0
  -17.4949  -31.6293   24.5111 H   0  0  0  0  0  0
  -15.5316  -30.2974   23.7689 H   0  0  0  0  0  0
  -15.8625  -28.0854   22.7003 H   0  0  0  0  0  0
  -24.5904  -30.7045   25.7748 H   0  0  0  0  0  0
  -24.8894  -32.2874   26.4859 H   0  0  0  0  0  0
  -25.8052  -30.8881   27.0215 H   0  0  0  0  0  0
  -26.2822  -29.6853   24.1065 H   0  0  0  0  0  0
  -27.4030  -29.7272   25.4466 H   0  0  0  0  0  0
  -27.8633  -30.4410   23.9181 H   0  0  0  0  0  0
  -27.2718  -33.3579   26.2118 H   0  0  0  0  0  0
  -28.3843  -32.6869   25.0279 H   0  0  0  0  0  0
  -28.0744  -31.8352   26.5315 H   0  0  0  0  0  0
  -28.2632  -38.0084   24.7513 H   0  0  0  0  0  0
  -28.1064  -36.2621   24.6310 H   0  0  0  0  0  0
  -27.2313  -37.1485   25.8873 H   0  0  0  0  0  0
  -20.9197  -29.8665   21.6953 H   0  0  0  0  0  0
  -26.0178  -38.2884   24.1391 H   0  0  0  0  0  0
  -31.3775  -16.6085   23.4742 H   0  0  0  0  0  0
  -28.9869  -16.9238   19.9030 H   0  0  0  0  0  0
  -30.7818  -17.7466   25.6278 H   0  0  0  0  0  0
  -31.9262  -18.9164   26.2634 H   0  0  0  0  0  0
  -32.4735  -17.6994   25.1199 H   0  0  0  0  0  0
  -27.1241  -23.0257   20.8806 H   0  0  0  0  0  0
  -28.8315  -22.7587   20.9583 H   0  0  0  0  0  0
  -29.2672  -25.3684   21.3067 H   0  0  0  0  0  0
  -27.5205  -25.4410   21.4068 H   0  0  0  0  0  0
  -26.8833  -21.3668   19.2992 H   0  0  0  0  0  0
  -27.9776  -22.1469   18.1954 H   0  0  0  0  0  0
  -30.5063  -19.9735   24.5628 H   0  0  0  0  0  0
  -27.5998  -19.3845   20.0591 H   0  0  0  0  0  0
  -29.5026  -14.7595   22.1762 H   0  0  0  0  0  0
  -33.2477  -19.6528   23.5717 H   0  0  0  0  0  0
  -32.7241  -20.7135   24.6946 H   0  0  0  0  0  0
  -32.1955  -20.8318   23.1586 H   0  0  0  0  0  0
  1 25  1  0  0  0
  1 30  2  0  0  0
  1 85  1  0  0  0
  2  3  1  0  0  0
  2 25  1  0  0  0
  2 90  1  0  0  0
  2 91  1  0  0  0
  3  4  1  0  0  0
  3 92  1  0  0  0
  3 93  1  0  0  0
  4  5  1  0  0  0
  4 94  1  0  0  0
  4 95  1  0  0  0
  5  6  1  0  0  0
  5 26  1  0  0  0
  5 96  1  0  0  0
  6 25  1  0  0  0
  6 97  1  0  0  0
  6 98  1  0  0  0
  7  8  2  0  0  0
  7 26  1  0  0  0
  7 29  1  0  0  0
  8  9  1  0  0  0
  8 22  1  0  0  0
  9 10  1  0  0  0
  9 27  2  0  0  0
 10 11  2  0  0  0
 10 15  1  0  0  0
 11 12  1  0  0  0
 11 99  1  0  0  0
 12 13  2  0  0  0
 12100  1  0  0  0
 13 14  1  0  0  0
 13 31  1  0  0  0
 14 15  2  0  0  0
 14101  1  0  0  0
 15102  1  0  0  0
 16 17  2  0  0  0
 16 21  1  0  0  0
 16 31  1  0  0  0
 17 18  1  0  0  0
 17103  1  0  0  0
 18 19  2  0  0  0
 18104  1  0  0  0
 19 20  1  0  0  0
 19 24  1  0  0  0
 20 21  2  0  0  0
 20105  1  0  0  0
 21 23  1  0  0  0
 22 28  1  0  0  0
 22 32  2  0  0  0
 26 27  1  0  0  0
 28106  1  0  0  0
 28107  1  0  0  0
 29108  1  0  0  0
 29109  1  0  0  0
 33 34  1  0  0  0
 33 66  1  0  0  0
 33 70  2  0  0  0
 34 36  1  0  0  0
 34 59  1  0  0  0
 34110  1  0  0  0
 35 44  2  0  0  0
 35 45  1  0  0  0
 35 68  1  0  0  0
 36 56  1  0  0  0
 36111  1  0  0  0
 37 39  1  0  0  0
 37 47  1  0  0  0
 37 66  1  0  0  0
 37112  1  0  0  0
 38 43  2  0  0  0
 38 46  1  0  0  0
 38 47  1  0  0  0
 39 64  1  0  0  0
 39 67  2  0  0  0
 40 52  1  0  0  0
 40 53  2  0  0  0
 40 58  1  0  0  0
 41113  1  0  0  0
 41114  1  0  0  0
 41115  1  0  0  0
 41 48  1  0  0  0
 42 43  1  0  0  0
 42 66  1  0  0  0
 42116  1  0  0  0
 42117  1  0  0  0
 43 44  1  0  0  0
 44118  1  0  0  0
 45 46  2  0  0  0
 45119  1  0  0  0
 46120  1  0  0  0
 47121  1  0  0  0
 47122  1  0  0  0
 48 56  1  0  0  0
 48 65  1  0  0  0
 48123  1  0  0  0
 49 50  1  0  0  0
 49 53  1  0  0  0
 49 64  1  0  0  0
 49124  1  0  0  0
 50 51  1  0  0  0
 50125  1  0  0  0
 50126  1  0  0  0
 51 52  1  0  0  0
 51127  1  0  0  0
 51128  1  0  0  0
 52129  1  0  0  0
 52130  1  0  0  0
 53 54  1  0  0  0
 54 55  2  0  0  0
 54131  1  0  0  0
 55 57  1  0  0  0
 55132  1  0  0  0
 56 69  2  0  0  0
 57 58  2  0  0  0
 57133  1  0  0  0
 58134  1  0  0  0
 59 60  1  0  0  0
 59 61  1  0  0  0
 59 62  1  0  0  0
 60135  1  0  0  0
 60136  1  0  0  0
 60137  1  0  0  0
 61138  1  0  0  0
 61139  1  0  0  0
 61140  1  0  0  0
 62141  1  0  0  0
 62142  1  0  0  0
 62143  1  0  0  0
 63 65  1  0  0  0
 63144  1  0  0  0
 63145  1  0  0  0
 63146  1  0  0  0
 64147  1  0  0  0
 65148  1  0  0  0
 68 81  1  0  0  0
 71 73  2  0  0  0
 71 74  1  0  0  0
 71149  1  0  0  0
 72 74  2  0  0  0
 72 75  1  0  0  0
 72150  1  0  0  0
 73 76  1  0  0  0
 73 83  1  0  0  0
 74 85  1  0  0  0
 75 76  2  0  0  0
 75 84  1  0  0  0
 76 89  1  0  0  0
 77 80  1  0  0  0
 77 81  1  0  0  0
 77 87  2  0  0  0
 78 82  1  0  0  0
 78 84  1  0  0  0
 78 88  2  0  0  0
 79151  1  0  0  0
 79152  1  0  0  0
 79153  1  0  0  0
 79 83  1  0  0  0
 80 82  1  0  0  0
 80154  1  0  0  0
 80155  1  0  0  0
 81156  1  0  0  0
 81157  1  0  0  0
 82158  1  0  0  0
 82159  1  0  0  0
 83 86  1  0  0  0
 83160  1  0  0  0
 84161  1  0  0  0
 85162  1  0  0  0
 86163  1  0  0  0
 86164  1  0  0  0
 86165  1  0  0  0
M  CHG  1  86   1
M  ISO  4   1 100  68 101  81 101  85 100
M  END
> <chiral flag>
0

> <version>
0

> <s_m_source_file>
/data/baiqing/PycharmProjects/Reinvent-master-3.2/result/LINK_invent/BTK/process_docking_weight1_custom_product_contain_oxygen_bond_distance_aromatic_linkinvent_7_9_3/rearranged_h_0169.sdf

> <i_m_source_file_index>
46

> <r_mmod_Potential_Energy-OPLS-2005>
-423.884124755859

> <r_mmod_Stretch_Energy-OPLS-2005>
35.515380859375

> <r_mmod_Bend_Energy-OPLS-2005>
92.4399337768555

> <r_mmod_Torsional_Energy-OPLS-2005>
285.590850830078

> <r_mmod_Improper_Torsional_Energy-OPLS-2005>
5.35077333450317

> <r_mmod_Van_der_Waal_Energy-OPLS-2005>
158.895874023438

> <r_mmod_Electrostatic_Energy-OPLS-2005>
-456.947326660156

> <r_mmod_Solvation_Energy-OPLS-2005>
-552.180053710938

> <b_mmod_Minimization_Converged-OPLS-2005>
0

> <r_mmod_RMS_Derivative-OPLS-2005>
6.67171669006348

$$$$
46
                    3D
 Structure written by MMmdl.
184192  0  0  1  0            999 V2000
  -30.7086  -14.5464   20.6005 C   0  0  0  0  0  0
  -30.4172  -12.3618   19.4424 C   0  0  0  0  0  0
  -29.4934  -12.5071   18.2177 C   0  0  0  0  0  0
  -28.0149  -12.3495   18.6235 C   0  0  0  0  0  0
  -27.6480  -13.2167   19.8598 C   0  0  2  0  0  0
  -28.6930  -13.0580   20.9896 C   0  0  0  0  0  0
  -25.2526  -13.8193   20.5649 C   0  0  0  0  0  0
  -24.1767  -13.0433   20.9185 C   0  0  0  0  0  0
  -24.6335  -11.6922   20.8715 C   0  0  0  0  0  0
  -23.8993  -10.4302   21.0353 C   0  0  0  0  0  0
  -24.3571   -9.4237   21.9133 C   0  0  0  0  0  0
  -23.6287   -8.2249   22.0706 C   0  0  0  0  0  0
  -22.4273   -8.0252   21.3511 C   0  0  0  0  0  0
  -21.9876   -9.0199   20.4600 C   0  0  0  0  0  0
  -22.7161  -10.2120   20.3006 C   0  0  0  0  0  0
  -21.6859   -6.0710   22.5266 C   0  0  0  0  0  0
  -21.4006   -6.5620   23.8198 C   0  0  0  0  0  0
  -21.3678   -5.6770   24.9164 C   0  0  0  0  0  0
  -21.6076   -4.3030   24.7207 C   0  0  0  0  0  0
  -21.8830   -3.8122   23.4328 C   0  0  0  0  0  0
  -21.9187   -4.6939   22.3389 C   0  0  0  0  0  0
  -22.7792  -13.5219   21.1867 C   0  0  0  0  0  0
  -22.1660   -4.2132   21.0976 F   0  0  0  0  0  0
  -21.5643   -3.4518   25.7733 F   0  0  0  0  0  0
  -30.0152  -13.3807   20.4327 N   0  0  0  0  0  0
  -26.2948  -12.9340   20.3303 N   0  0  0  0  0  0
  -25.9275  -11.6516   20.5737 N   0  0  0  0  0  0
  -22.0476  -12.8187   22.0459 N   0  0  0  0  0  0
  -25.4249  -15.1895   20.4019 N   0  0  0  0  0  0
  -31.8588  -14.6732   20.1729 O   0  0  0  0  0  0
  -21.6651   -6.8850   21.4233 O   0  0  0  0  0  0
  -22.3484  -14.5510   20.6724 O   0  0  0  0  0  0
  -24.6210  -31.8627   23.2087 C   0  0  0  0  0  0
  -25.9082  -32.4772   23.8404 C   0  0  1  0  0  0
  -27.2204  -27.3280   20.1646 C   0  0  0  0  0  0
  -25.5945  -33.8591   24.2311 N   0  0  0  0  0  0
  -23.4176  -30.4888   21.5440 C   0  0  2  0  0  0
  -24.8713  -28.9626   20.1084 C   0  0  0  0  0  0
  -22.7443  -29.4630   22.4876 C   0  0  0  0  0  0
  -18.0291  -28.1353   22.8511 C   0  0  0  0  0  0
  -24.1507  -36.7294   23.2641 C   0  0  0  0  0  0
  -25.9571  -30.8081   21.3843 C   0  0  0  0  0  0
  -26.0379  -29.4380   20.7230 C   0  0  0  0  0  0
  -27.2162  -28.6353   20.7402 C   0  0  0  0  0  0
  -26.0451  -26.9280   19.4822 C   0  0  0  0  0  0
  -24.8824  -27.7156   19.4743 C   0  0  0  0  0  0
  -23.6355  -29.8369   20.1545 C   0  0  0  0  0  0
  -25.4141  -36.3067   24.0308 C   0  0  1  0  0  0
  -20.5903  -28.3666   23.1299 C   0  0  2  0  0  0
  -20.6773  -26.9386   22.5423 C   0  0  0  0  0  0
  -19.5747  -26.6361   21.5236 C   0  0  0  0  0  0
  -18.1932  -26.7906   22.1632 C   0  0  0  0  0  0
  -19.1542  -28.8823   23.2915 C   0  0  0  0  0  0
  -18.9457  -30.1432   23.8918 C   0  0  0  0  0  0
  -17.6455  -30.6567   24.0554 C   0  0  0  0  0  0
  -25.9071  -34.9434   23.5100 C   0  0  0  0  0  0
  -16.5359  -29.9052   23.6328 C   0  0  0  0  0  0
  -16.7274  -28.6463   23.0371 C   0  0  0  0  0  0
  -26.4516  -31.6586   25.0754 C   0  0  0  0  0  0
  -25.3748  -31.3723   26.1468 C   0  0  0  0  0  0
  -27.0332  -30.2992   24.6228 C   0  0  0  0  0  0
  -27.6075  -32.4327   25.7510 C   0  0  0  0  0  0
  -27.5584  -37.1805   24.8459 C   0  0  0  0  0  0
  -21.4150  -29.3031   22.3625 N   0  0  0  0  0  0
  -26.4310  -37.3771   23.9375 N   0  0  0  0  0  0
  -24.6827  -31.0718   22.1004 N   0  0  0  0  0  0
  -23.4180  -28.8130   23.2910 O   0  0  0  0  0  0
  -28.2857  -26.4259   20.3332 O   0  0  0  0  0  0
  -26.5608  -34.8890   22.4647 O   0  0  0  0  0  0
  -23.5380  -32.1384   23.7459 O   0  0  0  0  0  0
  -30.0029  -18.1405   21.5090 C   0  0  0  0  0  0
  -31.6947  -16.7079   22.5382 C   0  0  0  0  0  0
  -30.5218  -19.3000   22.1881 C   0  0  0  0  0  0
  -30.5885  -16.8342   21.6716 C   0  0  0  0  0  0
  -32.2005  -17.8156   23.2391 C   0  0  0  0  0  0
  -31.6353  -19.1058   23.0499 C   0  0  0  0  0  0
  -28.7318  -23.8572   20.9692 C   0  0  0  0  0  0
  -34.3432  -18.9390   25.8074 C   0  0  0  0  0  0
  -28.8323  -22.3969   20.3268 C   0  0  0  0  0  0
  -34.2909  -18.2894   24.4008 C   0  0  0  0  0  0
  -30.0044  -19.7048   16.9095 C   0  0  0  0  0  0
  -35.2492  -20.1529   25.9418 C   0  0  0  0  0  0
  -31.0140  -19.4740   15.7853 C   0  0  0  0  0  0
  -28.6528  -20.7157   23.1448 C   0  0  0  0  0  0
  -30.7168  -21.9512   17.7290 C   0  0  0  0  0  0
  -28.9856  -21.7946   15.8817 C   0  0  0  0  0  0
  -27.9224  -24.9946   20.2057 C   0  0  0  0  0  0
  -28.3222  -21.1055   18.2265 C   0  0  0  0  0  0
  -29.8424  -20.7208   22.1589 C   0  0  2  0  0  0
  -29.4989  -21.1460   17.1884 C   0  0  0  0  0  0
  -33.1958  -17.5514   24.2125 N   0  0  0  0  0  0
  -30.0295  -15.6218   21.1008 N   0  0  0  0  0  0
  -29.3895  -21.2332   20.8342 N   0  0  0  0  0  0
  -28.2794  -22.2921   19.1001 N   0  3  0  0  0  0
  -29.2393  -24.0558   22.0780 O   0  0  0  0  0  0
  -33.6939  -18.5345   26.7786 O   0  0  0  0  0  0
  -35.2221  -18.3532   23.5848 O   0  0  0  0  0  0
  -29.6479  -18.7460   17.6002 O   0  0  0  0  0  0
  -32.1245  -20.1567   23.7540 F   0  0  0  0  0  0
  -31.4622  -12.4656   19.1440 H   0  0  0  0  0  0
  -30.3253  -11.3610   19.8728 H   0  0  0  0  0  0
  -29.7516  -11.7711   17.4560 H   0  0  0  0  0  0
  -29.6442  -13.4860   17.7611 H   0  0  0  0  0  0
  -27.8376  -11.2924   18.8391 H   0  0  0  0  0  0
  -27.3637  -12.5951   17.7855 H   0  0  0  0  0  0
  -27.6688  -14.2570   19.5252 H   0  0  0  0  0  0
  -28.6900  -12.0298   21.3540 H   0  0  0  0  0  0
  -28.4402  -13.6773   21.8512 H   0  0  0  0  0  0
  -25.2720   -9.5771   22.4692 H   0  0  0  0  0  0
  -24.0026   -7.4668   22.7408 H   0  0  0  0  0  0
  -21.0809   -8.8685   19.8910 H   0  0  0  0  0  0
  -22.3558  -10.9636   19.6127 H   0  0  0  0  0  0
  -21.1992   -7.6127   23.9705 H   0  0  0  0  0  0
  -21.1498   -6.0498   25.9087 H   0  0  0  0  0  0
  -22.0594   -2.7582   23.2834 H   0  0  0  0  0  0
  -22.4066  -11.9878   22.4891 H   0  0  0  0  0  0
  -21.1086  -13.1175   22.2609 H   0  0  0  0  0  0
  -24.6604  -15.8472   20.5054 H   0  0  0  0  0  0
  -26.2739  -15.6238   20.0727 H   0  0  0  0  0  0
  -26.7129  -32.5474   23.1139 H   0  0  0  0  0  0
  -25.0082  -33.9792   25.0449 H   0  0  0  0  0  0
  -22.7111  -31.3107   21.4054 H   0  0  0  0  0  0
  -23.3754  -35.9646   23.3314 H   0  0  0  0  0  0
  -24.3601  -36.8910   22.2055 H   0  0  0  0  0  0
  -23.7286  -37.6509   23.6670 H   0  0  0  0  0  0
  -26.1066  -31.5845   20.6331 H   0  0  0  0  0  0
  -26.8282  -30.8396   22.0230 H   0  0  0  0  0  0
  -28.1009  -28.9944   21.2488 H   0  0  0  0  0  0
  -25.9764  -25.9757   18.9785 H   0  0  0  0  0  0
  -23.9955  -27.3434   18.9894 H   0  0  0  0  0  0
  -23.7510  -30.6252   19.4063 H   0  0  0  0  0  0
  -22.7579  -29.2652   19.8446 H   0  0  0  0  0  0
  -25.1326  -36.1939   25.0797 H   0  0  0  0  0  0
  -21.0047  -28.3246   24.1405 H   0  0  0  0  0  0
  -20.5735  -26.2238   23.3600 H   0  0  0  0  0  0
  -21.6630  -26.7420   22.1197 H   0  0  0  0  0  0
  -19.6923  -25.6290   21.1227 H   0  0  0  0  0  0
  -19.6711  -27.3190   20.6791 H   0  0  0  0  0  0
  -17.4211  -26.6706   21.4018 H   0  0  0  0  0  0
  -18.0310  -26.0038   22.9004 H   0  0  0  0  0  0
  -19.7948  -30.7249   24.2288 H   0  0  0  0  0  0
  -17.5013  -31.6262   24.5110 H   0  0  0  0  0  0
  -15.5364  -30.2937   23.7655 H   0  0  0  0  0  0
  -15.8680  -28.0767   22.7085 H   0  0  0  0  0  0
  -24.5938  -30.7059   25.7798 H   0  0  0  0  0  0
  -24.8920  -32.2866   26.4913 H   0  0  0  0  0  0
  -25.8074  -30.8886   27.0228 H   0  0  0  0  0  0
  -26.2877  -29.6754   24.1256 H   0  0  0  0  0  0
  -27.3977  -29.7273   25.4782 H   0  0  0  0  0  0
  -27.8801  -30.4241   23.9468 H   0  0  0  0  0  0
  -27.2694  -33.3642   26.2081 H   0  0  0  0  0  0
  -28.3891  -32.6872   25.0329 H   0  0  0  0  0  0
  -28.0721  -31.8435   26.5430 H   0  0  0  0  0  0
  -28.2591  -38.0105   24.7459 H   0  0  0  0  0  0
  -28.1063  -36.2614   24.6326 H   0  0  0  0  0  0
  -27.2262  -37.1503   25.8852 H   0  0  0  0  0  0
  -20.9251  -29.8737   21.6880 H   0  0  0  0  0  0
  -26.0173  -38.2831   24.1391 H   0  0  0  0  0  0
  -29.1212  -18.2542   20.8913 H   0  0  0  0  0  0
  -32.1377  -15.7363   22.7188 H   0  0  0  0  0  0
  -36.1689  -19.8711   26.4496 H   0  0  0  0  0  0
  -34.7526  -20.9365   26.5115 H   0  0  0  0  0  0
  -35.4940  -20.5489   24.9576 H   0  0  0  0  0  0
  -31.5498  -20.3841   15.5219 H   0  0  0  0  0  0
  -30.5177  -19.1057   14.8863 H   0  0  0  0  0  0
  -31.7493  -18.7319   16.1000 H   0  0  0  0  0  0
  -28.9159  -21.1694   24.1013 H   0  0  0  0  0  0
  -28.3027  -19.7001   23.3501 H   0  0  0  0  0  0
  -27.8001  -21.2680   22.7497 H   0  0  0  0  0  0
  -31.5071  -22.0416   16.9814 H   0  0  0  0  0  0
  -31.1623  -21.4825   18.6072 H   0  0  0  0  0  0
  -30.4571  -22.9778   17.9990 H   0  0  0  0  0  0
  -29.7894  -22.0176   15.1791 H   0  0  0  0  0  0
  -28.4576  -22.7298   16.0712 H   0  0  0  0  0  0
  -28.2836  -21.1391   15.3645 H   0  0  0  0  0  0
  -26.8979  -24.8710   20.5608 H   0  0  0  0  0  0
  -27.9050  -24.7635   19.1413 H   0  0  0  0  0  0
  -28.3291  -20.2199   18.8600 H   0  0  0  0  0  0
  -27.3669  -21.0511   17.7027 H   0  0  0  0  0  0
  -30.5728  -21.4587   22.5004 H   0  0  0  0  0  0
  -33.3361  -16.5713   24.4187 H   0  0  0  0  0  0
  -29.0325  -15.5057   21.2037 H   0  0  0  0  0  0
  -29.4648  -20.4931   20.1538 H   0  0  0  0  0  0
  -27.7994  -23.0983   18.7300 H   0  0  0  0  0  0
  1 25  1  0  0  0
  1 30  2  0  0  0
  1 92  1  0  0  0
  2  3  1  0  0  0
  2 25  1  0  0  0
  2100  1  0  0  0
  2101  1  0  0  0
  3  4  1  0  0  0
  3102  1  0  0  0
  3103  1  0  0  0
  4  5  1  0  0  0
  4104  1  0  0  0
  4105  1  0  0  0
  5  6  1  0  0  0
  5 26  1  0  0  0
  5106  1  0  0  0
  6 25  1  0  0  0
  6107  1  0  0  0
  6108  1  0  0  0
  7  8  2  0  0  0
  7 26  1  0  0  0
  7 29  1  0  0  0
  8  9  1  0  0  0
  8 22  1  0  0  0
  9 10  1  0  0  0
  9 27  2  0  0  0
 10 11  2  0  0  0
 10 15  1  0  0  0
 11 12  1  0  0  0
 11109  1  0  0  0
 12 13  2  0  0  0
 12110  1  0  0  0
 13 14  1  0  0  0
 13 31  1  0  0  0
 14 15  2  0  0  0
 14111  1  0  0  0
 15112  1  0  0  0
 16 17  2  0  0  0
 16 21  1  0  0  0
 16 31  1  0  0  0
 17 18  1  0  0  0
 17113  1  0  0  0
 18 19  2  0  0  0
 18114  1  0  0  0
 19 20  1  0  0  0
 19 24  1  0  0  0
 20 21  2  0  0  0
 20115  1  0  0  0
 21 23  1  0  0  0
 22 28  1  0  0  0
 22 32  2  0  0  0
 26 27  1  0  0  0
 28116  1  0  0  0
 28117  1  0  0  0
 29118  1  0  0  0
 29119  1  0  0  0
 33 34  1  0  0  0
 33 66  1  0  0  0
 33 70  2  0  0  0
 34 36  1  0  0  0
 34 59  1  0  0  0
 34120  1  0  0  0
 35 44  2  0  0  0
 35 45  1  0  0  0
 35 68  1  0  0  0
 36 56  1  0  0  0
 36121  1  0  0  0
 37 39  1  0  0  0
 37 47  1  0  0  0
 37 66  1  0  0  0
 37122  1  0  0  0
 38 43  2  0  0  0
 38 46  1  0  0  0
 38 47  1  0  0  0
 39 64  1  0  0  0
 39 67  2  0  0  0
 40 52  1  0  0  0
 40 53  2  0  0  0
 40 58  1  0  0  0
 41123  1  0  0  0
 41124  1  0  0  0
 41125  1  0  0  0
 41 48  1  0  0  0
 42 43  1  0  0  0
 42 66  1  0  0  0
 42126  1  0  0  0
 42127  1  0  0  0
 43 44  1  0  0  0
 44128  1  0  0  0
 45 46  2  0  0  0
 45129  1  0  0  0
 46130  1  0  0  0
 47131  1  0  0  0
 47132  1  0  0  0
 48 56  1  0  0  0
 48 65  1  0  0  0
 48133  1  0  0  0
 49 50  1  0  0  0
 49 53  1  0  0  0
 49 64  1  0  0  0
 49134  1  0  0  0
 50 51  1  0  0  0
 50135  1  0  0  0
 50136  1  0  0  0
 51 52  1  0  0  0
 51137  1  0  0  0
 51138  1  0  0  0
 52139  1  0  0  0
 52140  1  0  0  0
 53 54  1  0  0  0
 54 55  2  0  0  0
 54141  1  0  0  0
 55 57  1  0  0  0
 55142  1  0  0  0
 56 69  2  0  0  0
 57 58  2  0  0  0
 57143  1  0  0  0
 58144  1  0  0  0
 59 60  1  0  0  0
 59 61  1  0  0  0
 59 62  1  0  0  0
 60145  1  0  0  0
 60146  1  0  0  0
 60147  1  0  0  0
 61148  1  0  0  0
 61149  1  0  0  0
 61150  1  0  0  0
 62151  1  0  0  0
 62152  1  0  0  0
 62153  1  0  0  0
 63 65  1  0  0  0
 63154  1  0  0  0
 63155  1  0  0  0
 63156  1  0  0  0
 64157  1  0  0  0
 65158  1  0  0  0
 68 87  1  0  0  0
 71 73  2  0  0  0
 71 74  1  0  0  0
 71159  1  0  0  0
 72 74  2  0  0  0
 72 75  1  0  0  0
 72160  1  0  0  0
 73 76  1  0  0  0
 73 89  1  0  0  0
 74 92  1  0  0  0
 75 76  2  0  0  0
 75 91  1  0  0  0
 76 99  1  0  0  0
 77 79  1  0  0  0
 77 87  1  0  0  0
 77 95  2  0  0  0
 78 80  1  0  0  0
 78 82  1  0  0  0
 78 96  2  0  0  0
 79 93  1  0  0  0
 79 94  2  0  0  0
 80 91  1  0  0  0
 80 97  2  0  0  0
 81 83  1  0  0  0
 81 90  1  0  0  0
 81 98  2  0  0  0
 82161  1  0  0  0
 82162  1  0  0  0
 82163  1  0  0  0
 83164  1  0  0  0
 83165  1  0  0  0
 83166  1  0  0  0
 84167  1  0  0  0
 84168  1  0  0  0
 84169  1  0  0  0
 84 89  1  0  0  0
 85170  1  0  0  0
 85171  1  0  0  0
 85172  1  0  0  0
 85 90  1  0  0  0
 86 90  1  0  0  0
 86173  1  0  0  0
 86174  1  0  0  0
 86175  1  0  0  0
 87176  1  0  0  0
 87177  1  0  0  0
 88 90  1  0  0  0
 88 94  1  0  0  0
 88178  1  0  0  0
 88179  1  0  0  0
 89 93  1  0  0  0
 89180  1  0  0  0
 91181  1  0  0  0
 92182  1  0  0  0
 93183  1  0  0  0
 94184  1  0  0  0
M  CHG  1  94   1
M  ISO  4   1 100  68 101  87 101  92 100
M  END
> <chiral flag>
0

> <version>
0

> <s_m_source_file>
/data/baiqing/PycharmProjects/Reinvent-master-3.2/result/LINK_invent/BTK/process_docking_weight1_custom_product_contain_oxygen_bond_distance_aromatic_linkinvent_7_9_3/rearranged_h_0169.sdf

> <i_m_source_file_index>
47

> <r_mmod_Potential_Energy-OPLS-2005>
39.355827331543

> <r_mmod_Stretch_Energy-OPLS-2005>
89.9225387573242

> <r_mmod_Bend_Energy-OPLS-2005>
171.544357299805

> <r_mmod_Torsional_Energy-OPLS-2005>
367.710052490234

> <r_mmod_Improper_Torsional_Energy-OPLS-2005>
9.10910415649414

> <r_mmod_Van_der_Waal_Energy-OPLS-2005>
164.173934936523

> <r_mmod_Electrostatic_Energy-OPLS-2005>
-301.528015136719

> <r_mmod_Solvation_Energy-OPLS-2005>
-508.896545410156

> <b_mmod_Minimization_Converged-OPLS-2005>
0

> <r_mmod_RMS_Derivative-OPLS-2005>
7.20108079910278

$$$$
47
                    3D
 Structure written by MMmdl.
159167  0  0  1  0            999 V2000
  -30.7061  -14.4390   20.6231 C   0  0  0  0  0  0
  -30.4223  -12.3071   19.3970 C   0  0  0  0  0  0
  -29.4850  -12.5024   18.1881 C   0  0  0  0  0  0
  -28.0049  -12.3783   18.6038 C   0  0  0  0  0  0
  -27.6582  -13.2036   19.8727 C   0  0  2  0  0  0
  -28.6998  -12.9516   20.9844 C   0  0  0  0  0  0
  -25.2556  -13.8138   20.5644 C   0  0  0  0  0  0
  -24.1801  -13.0430   20.9169 C   0  0  0  0  0  0
  -24.6349  -11.6893   20.8737 C   0  0  0  0  0  0
  -23.9008  -10.4277   21.0407 C   0  0  0  0  0  0
  -24.3575   -9.4188   21.9167 C   0  0  0  0  0  0
  -23.6258   -8.2220   22.0731 C   0  0  0  0  0  0
  -22.4246   -8.0263   21.3529 C   0  0  0  0  0  0
  -21.9875   -9.0228   20.4628 C   0  0  0  0  0  0
  -22.7184  -10.2112   20.3050 C   0  0  0  0  0  0
  -21.6854   -6.0716   22.5265 C   0  0  0  0  0  0
  -21.4023   -6.5628   23.8195 C   0  0  0  0  0  0
  -21.3647   -5.6787   24.9160 C   0  0  0  0  0  0
  -21.6031   -4.3049   24.7227 C   0  0  0  0  0  0
  -21.8826   -3.8128   23.4350 C   0  0  0  0  0  0
  -21.9199   -4.6938   22.3398 C   0  0  0  0  0  0
  -22.7835  -13.5234   21.1836 C   0  0  0  0  0  0
  -22.1682   -4.2129   21.0984 F   0  0  0  0  0  0
  -21.5600   -3.4532   25.7734 F   0  0  0  0  0  0
  -30.0314  -13.2724   20.4361 N   0  0  0  0  0  0
  -26.2992  -12.9305   20.3341 N   0  0  0  0  0  0
  -25.9289  -11.6467   20.5778 N   0  0  0  0  0  0
  -22.0514  -12.8210   22.0402 N   0  0  0  0  0  0
  -25.4269  -15.1843   20.3974 N   0  0  0  0  0  0
  -31.8033  -14.6738   20.1071 O   0  0  0  0  0  0
  -21.6625   -6.8854   21.4224 O   0  0  0  0  0  0
  -22.3510  -14.5554   20.6700 O   0  0  0  0  0  0
  -24.6128  -31.8684   23.2055 C   0  0  0  0  0  0
  -25.9022  -32.4832   23.8358 C   0  0  1  0  0  0
  -27.2481  -27.4501   20.1006 C   0  0  0  0  0  0
  -25.5878  -33.8628   24.2305 N   0  0  0  0  0  0
  -23.4011  -30.4863   21.5478 C   0  0  2  0  0  0
  -24.8504  -28.9478   20.1226 C   0  0  0  0  0  0
  -22.7405  -29.4643   22.4999 C   0  0  0  0  0  0
  -18.0270  -28.1384   22.8491 C   0  0  0  0  0  0
  -24.1485  -36.7316   23.2631 C   0  0  0  0  0  0
  -25.9248  -30.8452   21.3477 C   0  0  0  0  0  0
  -26.0100  -29.4766   20.7036 C   0  0  0  0  0  0
  -27.2131  -28.7372   20.6819 C   0  0  0  0  0  0
  -26.0697  -26.9281   19.5238 C   0  0  0  0  0  0
  -24.8730  -27.6716   19.5336 C   0  0  0  0  0  0
  -23.6093  -29.8091   20.1672 C   0  0  0  0  0  0
  -25.4103  -36.3117   24.0333 C   0  0  1  0  0  0
  -20.5857  -28.3659   23.1333 C   0  0  2  0  0  0
  -20.6765  -26.9395   22.5429 C   0  0  0  0  0  0
  -19.5747  -26.6383   21.5223 C   0  0  0  0  0  0
  -18.1922  -26.7934   22.1625 C   0  0  0  0  0  0
  -19.1521  -28.8837   23.2909 C   0  0  0  0  0  0
  -18.9451  -30.1445   23.8915 C   0  0  0  0  0  0
  -17.6453  -30.6588   24.0561 C   0  0  0  0  0  0
  -25.9028  -34.9487   23.5121 C   0  0  0  0  0  0
  -16.5344  -29.9089   23.6329 C   0  0  0  0  0  0
  -16.7259  -28.6511   23.0347 C   0  0  0  0  0  0
  -26.4450  -31.6601   25.0673 C   0  0  0  0  0  0
  -25.3708  -31.3737   26.1416 C   0  0  0  0  0  0
  -27.0251  -30.3044   24.6011 C   0  0  0  0  0  0
  -27.6034  -32.4290   25.7441 C   0  0  0  0  0  0
  -27.5588  -37.1799   24.8453 C   0  0  0  0  0  0
  -21.4133  -29.3019   22.3735 N   0  0  0  0  0  0
  -26.4288  -37.3802   23.9414 N   0  0  0  0  0  0
  -24.6652  -31.0797   22.0944 N   0  0  0  0  0  0
  -23.4185  -28.8192   23.3039 O   0  0  0  0  0  0
  -28.4330  -26.7483   20.0782 O   0  0  0  0  0  0
  -26.5603  -34.8936   22.4689 O   0  0  0  0  0  0
  -23.5319  -32.1409   23.7465 O   0  0  0  0  0  0
  -31.0763  -16.3751   23.2650 C   0  0  0  0  0  0
  -30.4883  -17.8109   21.3696 C   0  0  0  0  0  0
  -31.5220  -17.4995   23.9849 C   0  0  0  0  0  0
  -30.5668  -16.5204   21.9576 C   0  0  0  0  0  0
  -30.9348  -18.9505   22.0918 C   0  0  0  0  0  0
  -31.4487  -18.7783   23.3971 C   0  0  0  0  0  0
  -29.6204  -22.2596   20.8159 C   0  0  0  0  0  0
  -28.9620  -24.4053   19.5545 C   0  0  0  0  0  0
  -32.0677  -17.3422   25.3924 C   0  0  0  0  0  0
  -28.6880  -22.9075   19.7765 C   0  0  0  0  0  0
  -29.8108  -20.7283   20.7385 C   0  0  0  0  0  0
  -28.3858  -25.4016   20.5767 C   0  0  0  0  0  0
  -30.0295  -15.3708   21.3181 N   0  0  0  0  0  0
  -30.9110  -20.2643   21.5876 N   0  0  0  0  0  0
  -30.1636  -22.9075   21.7197 O   0  0  0  0  0  0
  -29.5825  -24.7929   18.5574 O   0  0  0  0  0  0
  -31.8624  -19.8638   24.0974 F   0  0  0  0  0  0
  -31.4638  -12.4239   19.0896 H   0  0  0  0  0  0
  -30.3381  -11.2914   19.7847 H   0  0  0  0  0  0
  -29.7070  -11.7668   17.4134 H   0  0  0  0  0  0
  -29.6619  -13.4803   17.7376 H   0  0  0  0  0  0
  -27.7997  -11.3227   18.7830 H   0  0  0  0  0  0
  -27.3583  -12.6732   17.7756 H   0  0  0  0  0  0
  -27.7093  -14.2568   19.5962 H   0  0  0  0  0  0
  -28.6741  -11.9027   21.2845 H   0  0  0  0  0  0
  -28.4553  -13.5085   21.8892 H   0  0  0  0  0  0
  -25.2729   -9.5642   22.4731 H   0  0  0  0  0  0
  -23.9944   -7.4608   22.7462 H   0  0  0  0  0  0
  -21.0791   -8.8738   19.8964 H   0  0  0  0  0  0
  -22.3626  -10.9641   19.6156 H   0  0  0  0  0  0
  -21.2054   -7.6141   23.9701 H   0  0  0  0  0  0
  -21.1456   -6.0517   25.9059 H   0  0  0  0  0  0
  -22.0629   -2.7596   23.2855 H   0  0  0  0  0  0
  -22.4186  -11.9855   22.4715 H   0  0  0  0  0  0
  -21.1142  -13.1198   22.2700 H   0  0  0  0  0  0
  -24.6545  -15.8372   20.4772 H   0  0  0  0  0  0
  -26.2709  -15.6125   20.0377 H   0  0  0  0  0  0
  -26.7105  -32.5569   23.1140 H   0  0  0  0  0  0
  -25.0005  -33.9786   25.0433 H   0  0  0  0  0  0
  -22.6888  -31.3008   21.4026 H   0  0  0  0  0  0
  -23.3748  -35.9647   23.3290 H   0  0  0  0  0  0
  -24.3587  -36.8928   22.2047 H   0  0  0  0  0  0
  -23.7227  -37.6516   23.6644 H   0  0  0  0  0  0
  -26.0147  -31.6069   20.5722 H   0  0  0  0  0  0
  -26.8209  -30.9168   21.9521 H   0  0  0  0  0  0
  -28.1126  -29.1469   21.1191 H   0  0  0  0  0  0
  -26.0725  -25.9511   19.0627 H   0  0  0  0  0  0
  -23.9770  -27.2553   19.0926 H   0  0  0  0  0  0
  -23.7112  -30.5757   19.3985 H   0  0  0  0  0  0
  -22.7370  -29.2200   19.8783 H   0  0  0  0  0  0
  -25.1270  -36.1975   25.0823 H   0  0  0  0  0  0
  -20.9946  -28.3228   24.1457 H   0  0  0  0  0  0
  -20.5679  -26.2257   23.3611 H   0  0  0  0  0  0
  -21.6634  -26.7444   22.1218 H   0  0  0  0  0  0
  -19.6908  -25.6298   21.1245 H   0  0  0  0  0  0
  -19.6700  -27.3205   20.6766 H   0  0  0  0  0  0
  -17.4189  -26.6674   21.4026 H   0  0  0  0  0  0
  -18.0316  -26.0074   22.9022 H   0  0  0  0  0  0
  -19.7924  -30.7261   24.2289 H   0  0  0  0  0  0
  -17.5006  -31.6279   24.5159 H   0  0  0  0  0  0
  -15.5347  -30.2999   23.7651 H   0  0  0  0  0  0
  -15.8656  -28.0842   22.7050 H   0  0  0  0  0  0
  -24.5860  -30.7112   25.7746 H   0  0  0  0  0  0
  -24.8924  -32.2922   26.4834 H   0  0  0  0  0  0
  -25.8034  -30.8907   27.0188 H   0  0  0  0  0  0
  -26.2795  -29.6846   24.1019 H   0  0  0  0  0  0
  -27.3992  -29.7220   25.4442 H   0  0  0  0  0  0
  -27.8632  -30.4356   23.9158 H   0  0  0  0  0  0
  -27.2671  -33.3573   26.2068 H   0  0  0  0  0  0
  -28.3837  -32.6878   25.0271 H   0  0  0  0  0  0
  -28.0715  -31.8375   26.5321 H   0  0  0  0  0  0
  -28.2580  -38.0122   24.7543 H   0  0  0  0  0  0
  -28.1111  -36.2661   24.6217 H   0  0  0  0  0  0
  -27.2319  -37.1367   25.8856 H   0  0  0  0  0  0
  -20.9296  -29.8721   21.6938 H   0  0  0  0  0  0
  -26.0178  -38.2868   24.1460 H   0  0  0  0  0  0
  -31.1127  -15.3951   23.7216 H   0  0  0  0  0  0
  -30.0888  -17.9188   20.3722 H   0  0  0  0  0  0
  -32.1638  -16.2948   25.6739 H   0  0  0  0  0  0
  -31.4055  -17.8274   26.1096 H   0  0  0  0  0  0
  -33.0524  -17.8020   25.4761 H   0  0  0  0  0  0
  -27.6570  -22.7869   20.1057 H   0  0  0  0  0  0
  -28.7960  -22.3812   18.8290 H   0  0  0  0  0  0
  -30.0078  -20.4439   19.7044 H   0  0  0  0  0  0
  -28.8756  -20.2497   21.0310 H   0  0  0  0  0  0
  -28.9935  -25.3529   21.4797 H   0  0  0  0  0  0
  -27.3795  -25.1014   20.8652 H   0  0  0  0  0  0
  -29.1264  -15.0614   21.6469 H   0  0  0  0  0  0
  -31.2011  -20.9627   22.2723 H   0  0  0  0  0  0
  1 25  1  0  0  0
  1 30  2  0  0  0
  1 83  1  0  0  0
  2  3  1  0  0  0
  2 25  1  0  0  0
  2 88  1  0  0  0
  2 89  1  0  0  0
  3  4  1  0  0  0
  3 90  1  0  0  0
  3 91  1  0  0  0
  4  5  1  0  0  0
  4 92  1  0  0  0
  4 93  1  0  0  0
  5  6  1  0  0  0
  5 26  1  0  0  0
  5 94  1  0  0  0
  6 25  1  0  0  0
  6 95  1  0  0  0
  6 96  1  0  0  0
  7  8  2  0  0  0
  7 26  1  0  0  0
  7 29  1  0  0  0
  8  9  1  0  0  0
  8 22  1  0  0  0
  9 10  1  0  0  0
  9 27  2  0  0  0
 10 11  2  0  0  0
 10 15  1  0  0  0
 11 12  1  0  0  0
 11 97  1  0  0  0
 12 13  2  0  0  0
 12 98  1  0  0  0
 13 14  1  0  0  0
 13 31  1  0  0  0
 14 15  2  0  0  0
 14 99  1  0  0  0
 15100  1  0  0  0
 16 17  2  0  0  0
 16 21  1  0  0  0
 16 31  1  0  0  0
 17 18  1  0  0  0
 17101  1  0  0  0
 18 19  2  0  0  0
 18102  1  0  0  0
 19 20  1  0  0  0
 19 24  1  0  0  0
 20 21  2  0  0  0
 20103  1  0  0  0
 21 23  1  0  0  0
 22 28  1  0  0  0
 22 32  2  0  0  0
 26 27  1  0  0  0
 28104  1  0  0  0
 28105  1  0  0  0
 29106  1  0  0  0
 29107  1  0  0  0
 33 34  1  0  0  0
 33 66  1  0  0  0
 33 70  2  0  0  0
 34 36  1  0  0  0
 34 59  1  0  0  0
 34108  1  0  0  0
 35 44  2  0  0  0
 35 45  1  0  0  0
 35 68  1  0  0  0
 36 56  1  0  0  0
 36109  1  0  0  0
 37 39  1  0  0  0
 37 47  1  0  0  0
 37 66  1  0  0  0
 37110  1  0  0  0
 38 43  2  0  0  0
 38 46  1  0  0  0
 38 47  1  0  0  0
 39 64  1  0  0  0
 39 67  2  0  0  0
 40 52  1  0  0  0
 40 53  2  0  0  0
 40 58  1  0  0  0
 41111  1  0  0  0
 41112  1  0  0  0
 41113  1  0  0  0
 41 48  1  0  0  0
 42 43  1  0  0  0
 42 66  1  0  0  0
 42114  1  0  0  0
 42115  1  0  0  0
 43 44  1  0  0  0
 44116  1  0  0  0
 45 46  2  0  0  0
 45117  1  0  0  0
 46118  1  0  0  0
 47119  1  0  0  0
 47120  1  0  0  0
 48 56  1  0  0  0
 48 65  1  0  0  0
 48121  1  0  0  0
 49 50  1  0  0  0
 49 53  1  0  0  0
 49 64  1  0  0  0
 49122  1  0  0  0
 50 51  1  0  0  0
 50123  1  0  0  0
 50124  1  0  0  0
 51 52  1  0  0  0
 51125  1  0  0  0
 51126  1  0  0  0
 52127  1  0  0  0
 52128  1  0  0  0
 53 54  1  0  0  0
 54 55  2  0  0  0
 54129  1  0  0  0
 55 57  1  0  0  0
 55130  1  0  0  0
 56 69  2  0  0  0
 57 58  2  0  0  0
 57131  1  0  0  0
 58132  1  0  0  0
 59 60  1  0  0  0
 59 61  1  0  0  0
 59 62  1  0  0  0
 60133  1  0  0  0
 60134  1  0  0  0
 60135  1  0  0  0
 61136  1  0  0  0
 61137  1  0  0  0
 61138  1  0  0  0
 62139  1  0  0  0
 62140  1  0  0  0
 62141  1  0  0  0
 63 65  1  0  0  0
 63142  1  0  0  0
 63143  1  0  0  0
 63144  1  0  0  0
 64145  1  0  0  0
 65146  1  0  0  0
 68 82  1  0  0  0
 71 73  2  0  0  0
 71 74  1  0  0  0
 71147  1  0  0  0
 72 74  2  0  0  0
 72 75  1  0  0  0
 72148  1  0  0  0
 73 76  1  0  0  0
 73 79  1  0  0  0
 74 83  1  0  0  0
 75 76  2  0  0  0
 75 84  1  0  0  0
 76 87  1  0  0  0
 77 80  1  0  0  0
 77 81  1  0  0  0
 77 85  2  0  0  0
 78 80  1  0  0  0
 78 82  1  0  0  0
 78 86  2  0  0  0
 79149  1  0  0  0
 79150  1  0  0  0
 79151  1  0  0  0
 80152  1  0  0  0
 80153  1  0  0  0
 81 84  1  0  0  0
 81154  1  0  0  0
 81155  1  0  0  0
 82156  1  0  0  0
 82157  1  0  0  0
 83158  1  0  0  0
 84159  1  0  0  0
M  ISO  4   1 100  68 101  82 101  83 100
M  END
> <chiral flag>
0

> <version>
0

> <s_m_source_file>
/data/baiqing/PycharmProjects/Reinvent-master-3.2/result/LINK_invent/BTK/process_docking_weight1_custom_product_contain_oxygen_bond_distance_aromatic_linkinvent_7_9_3/rearranged_h_0169.sdf

> <i_m_source_file_index>
48

> <r_mmod_Potential_Energy-OPLS-2005>
-44.6762886047363

> <r_mmod_Stretch_Energy-OPLS-2005>
36.9677619934082

> <r_mmod_Bend_Energy-OPLS-2005>
98.8958206176758

> <r_mmod_Torsional_Energy-OPLS-2005>
253.729568481445

> <r_mmod_Improper_Torsional_Energy-OPLS-2005>
8.32415103912354

> <r_mmod_Van_der_Waal_Energy-OPLS-2005>
150.458953857422

> <r_mmod_Electrostatic_Energy-OPLS-2005>
-351.300628662109

> <r_mmod_Solvation_Energy-OPLS-2005>
-251.308959960938

> <b_mmod_Minimization_Converged-OPLS-2005>
0

> <r_mmod_RMS_Derivative-OPLS-2005>
3.03133249282837

$$$$
48
                    3D
 Structure written by MMmdl.
161169  0  0  1  0            999 V2000
  -30.7235  -14.4951   20.5588 C   0  0  0  0  0  0
  -30.4147  -12.3187   19.4335 C   0  0  0  0  0  0
  -29.4921  -12.5001   18.2117 C   0  0  0  0  0  0
  -28.0150  -12.3600   18.6252 C   0  0  0  0  0  0
  -27.6567  -13.2155   19.8699 C   0  0  2  0  0  0
  -28.7007  -13.0345   20.9965 C   0  0  0  0  0  0
  -25.2549  -13.8172   20.5672 C   0  0  0  0  0  0
  -24.1823  -13.0438   20.9196 C   0  0  0  0  0  0
  -24.6393  -11.6911   20.8744 C   0  0  0  0  0  0
  -23.9064  -10.4292   21.0402 C   0  0  0  0  0  0
  -24.3615   -9.4206   21.9179 C   0  0  0  0  0  0
  -23.6289   -8.2242   22.0754 C   0  0  0  0  0  0
  -22.4272   -8.0278   21.3543 C   0  0  0  0  0  0
  -21.9907   -9.0253   20.4646 C   0  0  0  0  0  0
  -22.7236  -10.2133   20.3051 C   0  0  0  0  0  0
  -21.6851   -6.0730   22.5276 C   0  0  0  0  0  0
  -21.4015   -6.5636   23.8209 C   0  0  0  0  0  0
  -21.3660   -5.6789   24.9171 C   0  0  0  0  0  0
  -21.6043   -4.3052   24.7224 C   0  0  0  0  0  0
  -21.8821   -3.8144   23.4346 C   0  0  0  0  0  0
  -21.9195   -4.6959   22.3401 C   0  0  0  0  0  0
  -22.7842  -13.5229   21.1855 C   0  0  0  0  0  0
  -22.1661   -4.2144   21.0978 F   0  0  0  0  0  0
  -21.5631   -3.4539   25.7738 F   0  0  0  0  0  0
  -30.0299  -13.3278   20.4366 N   0  0  0  0  0  0
  -26.2998  -12.9367   20.3349 N   0  0  0  0  0  0
  -25.9323  -11.6520   20.5774 N   0  0  0  0  0  0
  -22.0485  -12.8214   22.0410 N   0  0  0  0  0  0
  -25.4228  -15.1885   20.4025 N   0  0  0  0  0  0
  -31.8505  -14.6270   20.0760 O   0  0  0  0  0  0
  -21.6637   -6.8873   21.4239 O   0  0  0  0  0  0
  -22.3525  -14.5534   20.6702 O   0  0  0  0  0  0
  -24.6161  -31.8678   23.2084 C   0  0  0  0  0  0
  -25.9045  -32.4826   23.8390 C   0  0  1  0  0  0
  -27.2355  -27.4297   20.0972 C   0  0  0  0  0  0
  -25.5901  -33.8622   24.2325 N   0  0  0  0  0  0
  -23.4058  -30.4893   21.5493 C   0  0  2  0  0  0
  -24.8545  -28.9562   20.1122 C   0  0  0  0  0  0
  -22.7426  -29.4652   22.4987 C   0  0  0  0  0  0
  -18.0272  -28.1377   22.8496 C   0  0  0  0  0  0
  -24.1491  -36.7310   23.2634 C   0  0  0  0  0  0
  -25.9349  -30.8325   21.3625 C   0  0  0  0  0  0
  -26.0156  -29.4664   20.7086 C   0  0  0  0  0  0
  -27.2125  -28.7106   20.6984 C   0  0  0  0  0  0
  -26.0622  -26.9374   19.4910 C   0  0  0  0  0  0
  -24.8734  -27.6910   19.4989 C   0  0  0  0  0  0
  -23.6150  -29.8217   20.1639 C   0  0  0  0  0  0
  -25.4105  -36.3110   24.0347 C   0  0  1  0  0  0
  -20.5867  -28.3665   23.1324 C   0  0  2  0  0  0
  -20.6768  -26.9402   22.5422 C   0  0  0  0  0  0
  -19.5745  -26.6387   21.5218 C   0  0  0  0  0  0
  -18.1918  -26.7921   22.1626 C   0  0  0  0  0  0
  -19.1523  -28.8834   23.2902 C   0  0  0  0  0  0
  -18.9454  -30.1438   23.8913 C   0  0  0  0  0  0
  -17.6458  -30.6583   24.0566 C   0  0  0  0  0  0
  -25.9044  -34.9480   23.5132 C   0  0  0  0  0  0
  -16.5347  -29.9087   23.6328 C   0  0  0  0  0  0
  -16.7263  -28.6503   23.0354 C   0  0  0  0  0  0
  -26.4466  -31.6598   25.0716 C   0  0  0  0  0  0
  -25.3725  -31.3695   26.1464 C   0  0  0  0  0  0
  -27.0306  -30.3050   24.6082 C   0  0  0  0  0  0
  -27.6054  -32.4308   25.7473 C   0  0  0  0  0  0
  -27.5592  -37.1784   24.8448 C   0  0  0  0  0  0
  -21.4152  -29.3028   22.3728 N   0  0  0  0  0  0
  -26.4282  -37.3810   23.9435 N   0  0  0  0  0  0
  -24.6705  -31.0771   22.0987 N   0  0  0  0  0  0
  -23.4190  -28.8192   23.3033 O   0  0  0  0  0  0
  -28.3583  -26.6326   20.1210 O   0  0  0  0  0  0
  -26.5608  -34.8934   22.4699 O   0  0  0  0  0  0
  -23.5351  -32.1427   23.7473 O   0  0  0  0  0  0
  -32.2954  -18.5583   21.5296 C   0  0  0  0  0  0
  -31.3620  -19.6058   21.5660 C   0  0  0  0  0  0
  -31.8636  -17.2316   21.3805 C   0  0  0  0  0  0
  -29.9788  -19.3503   21.4404 C   0  0  0  0  0  0
  -29.5404  -17.9942   21.2284 C   0  0  0  0  0  0
  -30.4905  -16.9202   21.2145 C   0  0  0  0  0  0
  -29.0783  -20.5152   21.6680 C   0  0  0  0  0  0
  -28.9251  -24.2439   20.7052 C   0  0  0  0  0  0
  -28.0647  -17.6604   21.0150 C   0  0  0  0  0  0
  -29.1001  -23.4128   23.1057 C   0  0  0  0  0  0
  -28.2381  -25.5786   21.0991 C   0  0  0  0  0  0
  -28.6774  -23.0394   21.6612 C   0  0  2  0  0  0
  -30.0554  -15.5460   21.0952 N   0  0  0  0  0  0
  -29.3450  -21.7709   21.2260 N   0  0  0  0  0  0
  -27.9999  -20.3530   22.4357 N   0  3  0  0  0  0
  -29.6351  -24.1545   19.6984 O   0  0  0  0  0  0
  -31.4605  -12.3985   19.1309 H   0  0  0  0  0  0
  -30.3070  -11.3169   19.8514 H   0  0  0  0  0  0
  -29.7361  -11.7650   17.4436 H   0  0  0  0  0  0
  -29.6582  -13.4807   17.7622 H   0  0  0  0  0  0
  -27.8310  -11.3052   18.8345 H   0  0  0  0  0  0
  -27.3638  -12.6196   17.7898 H   0  0  0  0  0  0
  -27.6895  -14.2573   19.5519 H   0  0  0  0  0  0
  -28.6799  -12.0100   21.3716 H   0  0  0  0  0  0
  -28.4622  -13.6664   21.8530 H   0  0  0  0  0  0
  -25.2763   -9.5680   22.4749 H   0  0  0  0  0  0
  -23.9998   -7.4633   22.7471 H   0  0  0  0  0  0
  -21.0838   -8.8769   19.8949 H   0  0  0  0  0  0
  -22.3695  -10.9668   19.6157 H   0  0  0  0  0  0
  -21.2005   -7.6143   23.9709 H   0  0  0  0  0  0
  -21.1481   -6.0520   25.9072 H   0  0  0  0  0  0
  -22.0602   -2.7606   23.2847 H   0  0  0  0  0  0
  -22.4101  -11.9873   22.4791 H   0  0  0  0  0  0
  -21.1100  -13.1232   22.2615 H   0  0  0  0  0  0
  -24.6453  -15.8338   20.4879 H   0  0  0  0  0  0
  -26.2495  -15.6157   20.0091 H   0  0  0  0  0  0
  -26.7124  -32.5547   23.1168 H   0  0  0  0  0  0
  -25.0048  -33.9784   25.0470 H   0  0  0  0  0  0
  -22.6950  -31.3059   21.4094 H   0  0  0  0  0  0
  -23.3769  -35.9624   23.3262 H   0  0  0  0  0  0
  -24.3593  -36.8963   22.2055 H   0  0  0  0  0  0
  -23.7209  -37.6492   23.6665 H   0  0  0  0  0  0
  -26.0454  -31.5982   20.5927 H   0  0  0  0  0  0
  -26.8235  -30.8884   21.9797 H   0  0  0  0  0  0
  -28.1072  -29.0959   21.1678 H   0  0  0  0  0  0
  -26.0657  -25.9619   19.0248 H   0  0  0  0  0  0
  -23.9822  -27.2922   19.0340 H   0  0  0  0  0  0
  -23.7190  -30.5968   19.4034 H   0  0  0  0  0  0
  -22.7400  -29.2392   19.8707 H   0  0  0  0  0  0
  -25.1263  -36.1973   25.0838 H   0  0  0  0  0  0
  -20.9956  -28.3234   24.1445 H   0  0  0  0  0  0
  -20.5691  -26.2265   23.3608 H   0  0  0  0  0  0
  -21.6635  -26.7458   22.1195 H   0  0  0  0  0  0
  -19.6915  -25.6304   21.1229 H   0  0  0  0  0  0
  -19.6689  -27.3217   20.6765 H   0  0  0  0  0  0
  -17.4193  -26.6686   21.4018 H   0  0  0  0  0  0
  -18.0303  -26.0058   22.9014 H   0  0  0  0  0  0
  -19.7935  -30.7243   24.2296 H   0  0  0  0  0  0
  -17.5018  -31.6271   24.5159 H   0  0  0  0  0  0
  -15.5347  -30.2997   23.7645 H   0  0  0  0  0  0
  -15.8662  -28.0827   22.7067 H   0  0  0  0  0  0
  -24.5905  -30.7045   25.7785 H   0  0  0  0  0  0
  -24.8908  -32.2848   26.4917 H   0  0  0  0  0  0
  -25.8070  -30.8851   27.0219 H   0  0  0  0  0  0
  -26.2854  -29.6808   24.1144 H   0  0  0  0  0  0
  -27.4105  -29.7284   25.4521 H   0  0  0  0  0  0
  -27.8666  -30.4384   23.9213 H   0  0  0  0  0  0
  -27.2687  -33.3601   26.2073 H   0  0  0  0  0  0
  -28.3839  -32.6876   25.0276 H   0  0  0  0  0  0
  -28.0743  -31.8412   26.5363 H   0  0  0  0  0  0
  -28.2540  -38.0150   24.7613 H   0  0  0  0  0  0
  -28.1158  -36.2696   24.6117 H   0  0  0  0  0  0
  -27.2333  -37.1243   25.8850 H   0  0  0  0  0  0
  -20.9310  -29.8752   21.6953 H   0  0  0  0  0  0
  -26.0172  -38.2876   24.1504 H   0  0  0  0  0  0
  -33.3490  -18.7680   21.6532 H   0  0  0  0  0  0
  -31.7243  -20.6099   21.7424 H   0  0  0  0  0  0
  -32.6193  -16.4617   21.4129 H   0  0  0  0  0  0
  -27.5142  -18.4850   20.5634 H   0  0  0  0  0  0
  -27.5876  -17.3987   21.9596 H   0  0  0  0  0  0
  -27.9417  -16.8218   20.3316 H   0  0  0  0  0  0
  -28.2371  -23.7375   23.6888 H   0  0  0  0  0  0
  -29.8329  -24.2215   23.1355 H   0  0  0  0  0  0
  -29.5472  -22.5764   23.6428 H   0  0  0  0  0  0
  -28.6774  -25.9352   22.0304 H   0  0  0  0  0  0
  -27.1921  -25.3582   21.3165 H   0  0  0  0  0  0
  -27.6037  -22.8475   21.6581 H   0  0  0  0  0  0
  -29.1021  -15.3536   21.3576 H   0  0  0  0  0  0
  -30.0864  -21.8761   20.5414 H   0  0  0  0  0  0
  -27.8252  -19.4537   22.8543 H   0  0  0  0  0  0
  -27.3882  -21.1220   22.6470 H   0  0  0  0  0  0
  1 25  1  0  0  0
  1 30  2  0  0  0
  1 83  1  0  0  0
  2  3  1  0  0  0
  2 25  1  0  0  0
  2 87  1  0  0  0
  2 88  1  0  0  0
  3  4  1  0  0  0
  3 89  1  0  0  0
  3 90  1  0  0  0
  4  5  1  0  0  0
  4 91  1  0  0  0
  4 92  1  0  0  0
  5  6  1  0  0  0
  5 26  1  0  0  0
  5 93  1  0  0  0
  6 25  1  0  0  0
  6 94  1  0  0  0
  6 95  1  0  0  0
  7  8  2  0  0  0
  7 26  1  0  0  0
  7 29  1  0  0  0
  8  9  1  0  0  0
  8 22  1  0  0  0
  9 10  1  0  0  0
  9 27  2  0  0  0
 10 11  2  0  0  0
 10 15  1  0  0  0
 11 12  1  0  0  0
 11 96  1  0  0  0
 12 13  2  0  0  0
 12 97  1  0  0  0
 13 14  1  0  0  0
 13 31  1  0  0  0
 14 15  2  0  0  0
 14 98  1  0  0  0
 15 99  1  0  0  0
 16 17  2  0  0  0
 16 21  1  0  0  0
 16 31  1  0  0  0
 17 18  1  0  0  0
 17100  1  0  0  0
 18 19  2  0  0  0
 18101  1  0  0  0
 19 20  1  0  0  0
 19 24  1  0  0  0
 20 21  2  0  0  0
 20102  1  0  0  0
 21 23  1  0  0  0
 22 28  1  0  0  0
 22 32  2  0  0  0
 26 27  1  0  0  0
 28103  1  0  0  0
 28104  1  0  0  0
 29105  1  0  0  0
 29106  1  0  0  0
 33 34  1  0  0  0
 33 66  1  0  0  0
 33 70  2  0  0  0
 34 36  1  0  0  0
 34 59  1  0  0  0
 34107  1  0  0  0
 35 44  2  0  0  0
 35 45  1  0  0  0
 35 68  1  0  0  0
 36 56  1  0  0  0
 36108  1  0  0  0
 37 39  1  0  0  0
 37 47  1  0  0  0
 37 66  1  0  0  0
 37109  1  0  0  0
 38 43  2  0  0  0
 38 46  1  0  0  0
 38 47  1  0  0  0
 39 64  1  0  0  0
 39 67  2  0  0  0
 40 52  1  0  0  0
 40 53  2  0  0  0
 40 58  1  0  0  0
 41110  1  0  0  0
 41111  1  0  0  0
 41112  1  0  0  0
 41 48  1  0  0  0
 42 43  1  0  0  0
 42 66  1  0  0  0
 42113  1  0  0  0
 42114  1  0  0  0
 43 44  1  0  0  0
 44115  1  0  0  0
 45 46  2  0  0  0
 45116  1  0  0  0
 46117  1  0  0  0
 47118  1  0  0  0
 47119  1  0  0  0
 48 56  1  0  0  0
 48 65  1  0  0  0
 48120  1  0  0  0
 49 50  1  0  0  0
 49 53  1  0  0  0
 49 64  1  0  0  0
 49121  1  0  0  0
 50 51  1  0  0  0
 50122  1  0  0  0
 50123  1  0  0  0
 51 52  1  0  0  0
 51124  1  0  0  0
 51125  1  0  0  0
 52126  1  0  0  0
 52127  1  0  0  0
 53 54  1  0  0  0
 54 55  2  0  0  0
 54128  1  0  0  0
 55 57  1  0  0  0
 55129  1  0  0  0
 56 69  2  0  0  0
 57 58  2  0  0  0
 57130  1  0  0  0
 58131  1  0  0  0
 59 60  1  0  0  0
 59 61  1  0  0  0
 59 62  1  0  0  0
 60132  1  0  0  0
 60133  1  0  0  0
 60134  1  0  0  0
 61135  1  0  0  0
 61136  1  0  0  0
 61137  1  0  0  0
 62138  1  0  0  0
 62139  1  0  0  0
 62140  1  0  0  0
 63 65  1  0  0  0
 63141  1  0  0  0
 63142  1  0  0  0
 63143  1  0  0  0
 64144  1  0  0  0
 65145  1  0  0  0
 68 81  1  0  0  0
 71 72  2  0  0  0
 71 73  1  0  0  0
 71146  1  0  0  0
 72 74  1  0  0  0
 72147  1  0  0  0
 73 76  2  0  0  0
 73148  1  0  0  0
 74 75  2  0  0  0
 74 77  1  0  0  0
 75 76  1  0  0  0
 75 79  1  0  0  0
 76 83  1  0  0  0
 77 84  1  0  0  0
 77 85  2  0  0  0
 78 81  1  0  0  0
 78 82  1  0  0  0
 78 86  2  0  0  0
 79149  1  0  0  0
 79150  1  0  0  0
 79151  1  0  0  0
 80152  1  0  0  0
 80153  1  0  0  0
 80154  1  0  0  0
 80 82  1  0  0  0
 81155  1  0  0  0
 81156  1  0  0  0
 82 84  1  0  0  0
 82157  1  0  0  0
 83158  1  0  0  0
 84159  1  0  0  0
 85160  1  0  0  0
 85161  1  0  0  0
M  CHG  1  85   1
M  ISO  4   1 100  68 101  81 101  83 100
M  END
> <chiral flag>
0

> <version>
0

> <s_m_source_file>
/data/baiqing/PycharmProjects/Reinvent-master-3.2/result/LINK_invent/BTK/process_docking_weight1_custom_product_contain_oxygen_bond_distance_aromatic_linkinvent_7_9_3/rearranged_h_0169.sdf

> <i_m_source_file_index>
49

> <r_mmod_Potential_Energy-OPLS-2005>
-238.516540527344

> <r_mmod_Stretch_Energy-OPLS-2005>
49.6743049621582

> <r_mmod_Bend_Energy-OPLS-2005>
100.874244689941

> <r_mmod_Torsional_Energy-OPLS-2005>
241.262847900391

> <r_mmod_Improper_Torsional_Energy-OPLS-2005>
5.09739542007446

> <r_mmod_Van_der_Waal_Energy-OPLS-2005>
164.8330078125

> <r_mmod_Electrostatic_Energy-OPLS-2005>
-380.554718017578

> <r_mmod_Solvation_Energy-OPLS-2005>
-436.381774902344

> <b_mmod_Minimization_Converged-OPLS-2005>
0

> <r_mmod_RMS_Derivative-OPLS-2005>
1.03541326522827

$$$$
49
                    3D
 Structure written by MMmdl.
161169  0  0  1  0            999 V2000
  -30.8281  -14.4163   20.5769 C   0  0  0  0  0  0
  -30.4004  -12.2742   19.4503 C   0  0  0  0  0  0
  -29.4949  -12.4723   18.2223 C   0  0  0  0  0  0
  -28.0225  -12.3310   18.6408 C   0  0  0  0  0  0
  -27.6658  -13.2137   19.8693 C   0  0  2  0  0  0
  -28.7113  -13.0757   21.0079 C   0  0  0  0  0  0
  -25.2621  -13.8179   20.5681 C   0  0  0  0  0  0
  -24.1847  -13.0445   20.9155 C   0  0  0  0  0  0
  -24.6407  -11.6921   20.8743 C   0  0  0  0  0  0
  -23.9052  -10.4319   21.0398 C   0  0  0  0  0  0
  -24.3615   -9.4237   21.9166 C   0  0  0  0  0  0
  -23.6296   -8.2259   22.0743 C   0  0  0  0  0  0
  -22.4276   -8.0304   21.3527 C   0  0  0  0  0  0
  -21.9895   -9.0282   20.4632 C   0  0  0  0  0  0
  -22.7218  -10.2168   20.3047 C   0  0  0  0  0  0
  -21.6858   -6.0749   22.5277 C   0  0  0  0  0  0
  -21.4013   -6.5643   23.8216 C   0  0  0  0  0  0
  -21.3655   -5.6781   24.9165 C   0  0  0  0  0  0
  -21.6047   -4.3055   24.7208 C   0  0  0  0  0  0
  -21.8816   -3.8157   23.4333 C   0  0  0  0  0  0
  -21.9187   -4.6970   22.3395 C   0  0  0  0  0  0
  -22.7877  -13.5282   21.1821 C   0  0  0  0  0  0
  -22.1657   -4.2154   21.0970 F   0  0  0  0  0  0
  -21.5623   -3.4549   25.7725 F   0  0  0  0  0  0
  -30.0540  -13.3029   20.4482 N   0  0  0  0  0  0
  -26.3069  -12.9358   20.3394 N   0  0  0  0  0  0
  -25.9340  -11.6516   20.5769 N   0  0  0  0  0  0
  -22.0490  -12.8311   22.0383 N   0  0  0  0  0  0
  -25.4356  -15.1882   20.4083 N   0  0  0  0  0  0
  -31.8858  -14.5396   19.9580 O   0  0  0  0  0  0
  -21.6643   -6.8904   21.4239 O   0  0  0  0  0  0
  -22.3581  -14.5592   20.6672 O   0  0  0  0  0  0
  -24.6084  -31.8715   23.2141 C   0  0  0  0  0  0
  -25.9001  -32.4840   23.8435 C   0  0  1  0  0  0
  -27.2441  -27.4652   20.1150 C   0  0  0  0  0  0
  -25.5896  -33.8646   24.2375 N   0  0  0  0  0  0
  -23.3952  -30.4918   21.5493 C   0  0  2  0  0  0
  -24.8519  -28.9592   20.1168 C   0  0  0  0  0  0
  -22.7391  -29.4653   22.5009 C   0  0  0  0  0  0
  -18.0261  -28.1375   22.8494 C   0  0  0  0  0  0
  -24.1486  -36.7321   23.2623 C   0  0  0  0  0  0
  -25.9191  -30.8441   21.3683 C   0  0  0  0  0  0
  -26.0036  -29.4773   20.7250 C   0  0  0  0  0  0
  -27.2015  -28.7311   20.7364 C   0  0  0  0  0  0
  -26.0877  -26.9623   19.4859 C   0  0  0  0  0  0
  -24.8860  -27.6989   19.4950 C   0  0  0  0  0  0
  -23.6081  -29.8213   20.1629 C   0  0  0  0  0  0
  -25.4107  -36.3139   24.0326 C   0  0  1  0  0  0
  -20.5858  -28.3648   23.1332 C   0  0  2  0  0  0
  -20.6754  -26.9387   22.5421 C   0  0  0  0  0  0
  -19.5742  -26.6384   21.5219 C   0  0  0  0  0  0
  -18.1924  -26.7923   22.1632 C   0  0  0  0  0  0
  -19.1511  -28.8832   23.2901 C   0  0  0  0  0  0
  -18.9443  -30.1447   23.8910 C   0  0  0  0  0  0
  -17.6449  -30.6583   24.0576 C   0  0  0  0  0  0
  -25.9028  -34.9485   23.5150 C   0  0  0  0  0  0
  -16.5345  -29.9091   23.6324 C   0  0  0  0  0  0
  -16.7252  -28.6503   23.0341 C   0  0  0  0  0  0
  -26.4479  -31.6593   25.0727 C   0  0  0  0  0  0
  -25.3747  -31.3699   26.1473 C   0  0  0  0  0  0
  -27.0288  -30.3028   24.6056 C   0  0  0  0  0  0
  -27.6079  -32.4301   25.7483 C   0  0  0  0  0  0
  -27.5580  -37.1810   24.8455 C   0  0  0  0  0  0
  -21.4132  -29.3023   22.3746 N   0  0  0  0  0  0
  -26.4309  -37.3809   23.9395 N   0  0  0  0  0  0
  -24.6579  -31.0817   22.1052 N   0  0  0  0  0  0
  -23.4173  -28.8199   23.3033 O   0  0  0  0  0  0
  -28.3935  -26.7161   20.0986 O   0  0  0  0  0  0
  -26.5582  -34.8926   22.4704 O   0  0  0  0  0  0
  -23.5289  -32.1506   23.7526 O   0  0  0  0  0  0
  -30.3966  -17.8966   21.3078 C   0  0  0  0  0  0
  -32.4783  -16.7347   21.7499 C   0  0  0  0  0  0
  -32.4927  -19.1688   21.4450 C   0  0  0  0  0  0
  -31.0909  -16.6793   21.4868 C   0  0  0  0  0  0
  -31.0690  -19.1465   21.2798 C   0  0  0  0  0  0
  -33.1712  -17.9579   21.7271 C   0  0  0  0  0  0
  -33.3327  -20.3914   21.3172 C   0  0  0  0  0  0
  -29.1484  -22.2674   22.0723 C   0  0  0  0  0  0
  -29.1441  -24.6529   21.1586 C   0  0  0  0  0  0
  -33.4703  -20.9808   19.9179 C   0  0  0  0  0  0
  -29.1942  -23.7615   22.4153 C   0  0  0  0  0  0
  -30.4690  -21.5584   21.7221 C   0  0  0  0  0  0
  -28.7229  -26.1204   21.3603 C   0  0  0  0  0  0
  -30.4023  -15.4235   21.3692 N   0  0  0  0  0  0
  -30.2443  -20.2708   21.0542 N   0  0  0  0  0  0
  -33.9390  -20.9162   22.2561 O   0  0  0  0  0  0
  -28.0863  -21.6334   22.0989 O   0  0  0  0  0  0
  -29.4629  -24.2386   20.0358 O   0  0  0  0  0  0
  -34.5139  -17.9431   21.9297 F   0  0  0  0  0  0
  -31.4503  -12.2888   19.1582 H   0  0  0  0  0  0
  -30.2409  -11.2812   19.8745 H   0  0  0  0  0  0
  -29.7414  -11.7297   17.4587 H   0  0  0  0  0  0
  -29.6693  -13.4532   17.7751 H   0  0  0  0  0  0
  -27.8557  -11.2808   18.8852 H   0  0  0  0  0  0
  -27.3634  -12.5569   17.7997 H   0  0  0  0  0  0
  -27.6987  -14.2454   19.5189 H   0  0  0  0  0  0
  -28.6576  -12.0837   21.4563 H   0  0  0  0  0  0
  -28.4841  -13.7714   21.8159 H   0  0  0  0  0  0
  -25.2760   -9.5729   22.4746 H   0  0  0  0  0  0
  -24.0017   -7.4652   22.7478 H   0  0  0  0  0  0
  -21.0814   -8.8784   19.8965 H   0  0  0  0  0  0
  -22.3645  -10.9698   19.6173 H   0  0  0  0  0  0
  -21.2015   -7.6152   23.9715 H   0  0  0  0  0  0
  -21.1471   -6.0518   25.9062 H   0  0  0  0  0  0
  -22.0599   -2.7622   23.2821 H   0  0  0  0  0  0
  -22.4076  -11.9974   22.4799 H   0  0  0  0  0  0
  -21.1092  -13.1326   22.2534 H   0  0  0  0  0  0
  -24.6735  -15.8481   20.5133 H   0  0  0  0  0  0
  -26.3016  -15.6229   20.1149 H   0  0  0  0  0  0
  -26.7050  -32.5613   23.1191 H   0  0  0  0  0  0
  -25.0091  -33.9837   25.0547 H   0  0  0  0  0  0
  -22.6795  -31.3041   21.4084 H   0  0  0  0  0  0
  -23.3753  -35.9659   23.3331 H   0  0  0  0  0  0
  -24.3569  -36.8900   22.2032 H   0  0  0  0  0  0
  -23.7242  -37.6526   23.6621 H   0  0  0  0  0  0
  -26.0162  -31.6038   20.5924 H   0  0  0  0  0  0
  -26.8109  -30.9107   21.9800 H   0  0  0  0  0  0
  -28.0878  -29.1199   21.2180 H   0  0  0  0  0  0
  -26.1168  -25.9997   18.9946 H   0  0  0  0  0  0
  -24.0053  -27.3020   19.0102 H   0  0  0  0  0  0
  -23.7115  -30.5957   19.4011 H   0  0  0  0  0  0
  -22.7363  -29.2319   19.8706 H   0  0  0  0  0  0
  -25.1283  -36.2017   25.0821 H   0  0  0  0  0  0
  -20.9949  -28.3214   24.1456 H   0  0  0  0  0  0
  -20.5689  -26.2269   23.3598 H   0  0  0  0  0  0
  -21.6625  -26.7454   22.1212 H   0  0  0  0  0  0
  -19.6917  -25.6305   21.1215 H   0  0  0  0  0  0
  -19.6674  -27.3222   20.6767 H   0  0  0  0  0  0
  -17.4197  -26.6678   21.4016 H   0  0  0  0  0  0
  -18.0317  -26.0051   22.9015 H   0  0  0  0  0  0
  -19.7919  -30.7262   24.2286 H   0  0  0  0  0  0
  -17.4994  -31.6258   24.5185 H   0  0  0  0  0  0
  -15.5341  -30.3000   23.7611 H   0  0  0  0  0  0
  -15.8658  -28.0820   22.7044 H   0  0  0  0  0  0
  -24.5926  -30.7041   25.7803 H   0  0  0  0  0  0
  -24.8932  -32.2859   26.4908 H   0  0  0  0  0  0
  -25.8095  -30.8874   27.0233 H   0  0  0  0  0  0
  -26.2816  -29.6810   24.1103 H   0  0  0  0  0  0
  -27.4055  -29.7236   25.4494 H   0  0  0  0  0  0
  -27.8672  -30.4342   23.9208 H   0  0  0  0  0  0
  -27.2711  -33.3586   26.2106 H   0  0  0  0  0  0
  -28.3871  -32.6870   25.0295 H   0  0  0  0  0  0
  -28.0772  -31.8397   26.5359 H   0  0  0  0  0  0
  -28.2612  -38.0086   24.7510 H   0  0  0  0  0  0
  -28.1067  -36.2624   24.6312 H   0  0  0  0  0  0
  -27.2295  -37.1510   25.8853 H   0  0  0  0  0  0
  -20.9312  -29.8759   21.6966 H   0  0  0  0  0  0
  -26.0204  -38.2890   24.1414 H   0  0  0  0  0  0
  -29.3293  -17.8653   21.1398 H   0  0  0  0  0  0
  -33.0455  -15.8297   21.9121 H   0  0  0  0  0  0
  -33.3949  -22.0669   19.9506 H   0  0  0  0  0  0
  -32.6985  -20.5965   19.2523 H   0  0  0  0  0  0
  -34.4420  -20.7267   19.4954 H   0  0  0  0  0  0
  -28.3579  -24.0025   23.0729 H   0  0  0  0  0  0
  -30.1069  -23.9706   22.9716 H   0  0  0  0  0  0
  -31.0288  -21.4189   22.6473 H   0  0  0  0  0  0
  -31.0510  -22.2224   21.0821 H   0  0  0  0  0  0
  -29.5447  -26.6688   21.8209 H   0  0  0  0  0  0
  -27.8865  -26.1559   22.0592 H   0  0  0  0  0  0
  -29.4881  -15.3357   21.7835 H   0  0  0  0  0  0
  -29.2463  -20.0664   21.0219 H   0  0  0  0  0  0
  1 25  1  0  0  0
  1 30  2  0  0  0
  1 84  1  0  0  0
  2  3  1  0  0  0
  2 25  1  0  0  0
  2 90  1  0  0  0
  2 91  1  0  0  0
  3  4  1  0  0  0
  3 92  1  0  0  0
  3 93  1  0  0  0
  4  5  1  0  0  0
  4 94  1  0  0  0
  4 95  1  0  0  0
  5  6  1  0  0  0
  5 26  1  0  0  0
  5 96  1  0  0  0
  6 25  1  0  0  0
  6 97  1  0  0  0
  6 98  1  0  0  0
  7  8  2  0  0  0
  7 26  1  0  0  0
  7 29  1  0  0  0
  8  9  1  0  0  0
  8 22  1  0  0  0
  9 10  1  0  0  0
  9 27  2  0  0  0
 10 11  2  0  0  0
 10 15  1  0  0  0
 11 12  1  0  0  0
 11 99  1  0  0  0
 12 13  2  0  0  0
 12100  1  0  0  0
 13 14  1  0  0  0
 13 31  1  0  0  0
 14 15  2  0  0  0
 14101  1  0  0  0
 15102  1  0  0  0
 16 17  2  0  0  0
 16 21  1  0  0  0
 16 31  1  0  0  0
 17 18  1  0  0  0
 17103  1  0  0  0
 18 19  2  0  0  0
 18104  1  0  0  0
 19 20  1  0  0  0
 19 24  1  0  0  0
 20 21  2  0  0  0
 20105  1  0  0  0
 21 23  1  0  0  0
 22 28  1  0  0  0
 22 32  2  0  0  0
 26 27  1  0  0  0
 28106  1  0  0  0
 28107  1  0  0  0
 29108  1  0  0  0
 29109  1  0  0  0
 33 34  1  0  0  0
 33 66  1  0  0  0
 33 70  2  0  0  0
 34 36  1  0  0  0
 34 59  1  0  0  0
 34110  1  0  0  0
 35 44  2  0  0  0
 35 45  1  0  0  0
 35 68  1  0  0  0
 36 56  1  0  0  0
 36111  1  0  0  0
 37 39  1  0  0  0
 37 47  1  0  0  0
 37 66  1  0  0  0
 37112  1  0  0  0
 38 43  2  0  0  0
 38 46  1  0  0  0
 38 47  1  0  0  0
 39 64  1  0  0  0
 39 67  2  0  0  0
 40 52  1  0  0  0
 40 53  2  0  0  0
 40 58  1  0  0  0
 41113  1  0  0  0
 41114  1  0  0  0
 41115  1  0  0  0
 41 48  1  0  0  0
 42 43  1  0  0  0
 42 66  1  0  0  0
 42116  1  0  0  0
 42117  1  0  0  0
 43 44  1  0  0  0
 44118  1  0  0  0
 45 46  2  0  0  0
 45119  1  0  0  0
 46120  1  0  0  0
 47121  1  0  0  0
 47122  1  0  0  0
 48 56  1  0  0  0
 48 65  1  0  0  0
 48123  1  0  0  0
 49 50  1  0  0  0
 49 53  1  0  0  0
 49 64  1  0  0  0
 49124  1  0  0  0
 50 51  1  0  0  0
 50125  1  0  0  0
 50126  1  0  0  0
 51 52  1  0  0  0
 51127  1  0  0  0
 51128  1  0  0  0
 52129  1  0  0  0
 52130  1  0  0  0
 53 54  1  0  0  0
 54 55  2  0  0  0
 54131  1  0  0  0
 55 57  1  0  0  0
 55132  1  0  0  0
 56 69  2  0  0  0
 57 58  2  0  0  0
 57133  1  0  0  0
 58134  1  0  0  0
 59 60  1  0  0  0
 59 61  1  0  0  0
 59 62  1  0  0  0
 60135  1  0  0  0
 60136  1  0  0  0
 60137  1  0  0  0
 61138  1  0  0  0
 61139  1  0  0  0
 61140  1  0  0  0
 62141  1  0  0  0
 62142  1  0  0  0
 62143  1  0  0  0
 63 65  1  0  0  0
 63144  1  0  0  0
 63145  1  0  0  0
 63146  1  0  0  0
 64147  1  0  0  0
 65148  1  0  0  0
 68 83  1  0  0  0
 71 74  2  0  0  0
 71 75  1  0  0  0
 71149  1  0  0  0
 72 74  1  0  0  0
 72 76  2  0  0  0
 72150  1  0  0  0
 73 75  2  0  0  0
 73 76  1  0  0  0
 73 77  1  0  0  0
 74 84  1  0  0  0
 75 85  1  0  0  0
 76 89  1  0  0  0
 77 80  1  0  0  0
 77 86  2  0  0  0
 78 81  1  0  0  0
 78 82  1  0  0  0
 78 87  2  0  0  0
 79 81  1  0  0  0
 79 83  1  0  0  0
 79 88  2  0  0  0
 80151  1  0  0  0
 80152  1  0  0  0
 80153  1  0  0  0
 81154  1  0  0  0
 81155  1  0  0  0
 82 85  1  0  0  0
 82156  1  0  0  0
 82157  1  0  0  0
 83158  1  0  0  0
 83159  1  0  0  0
 84160  1  0  0  0
 85161  1  0  0  0
M  ISO  4   1 100  68 101  83 101  84 100
M  END
> <chiral flag>
0

> <version>
0

> <s_m_source_file>
/data/baiqing/PycharmProjects/Reinvent-master-3.2/result/LINK_invent/BTK/process_docking_weight1_custom_product_contain_oxygen_bond_distance_aromatic_linkinvent_7_9_3/rearranged_h_0169.sdf

> <i_m_source_file_index>
50

> <r_mmod_Potential_Energy-OPLS-2005>
75.7582092285156

> <r_mmod_Stretch_Energy-OPLS-2005>
40.9290809631348

> <r_mmod_Bend_Energy-OPLS-2005>
108.17790222168

> <r_mmod_Torsional_Energy-OPLS-2005>
299.277893066406

> <r_mmod_Improper_Torsional_Energy-OPLS-2005>
6.25041723251343

> <r_mmod_Van_der_Waal_Energy-OPLS-2005>
158.147888183594

> <r_mmod_Electrostatic_Energy-OPLS-2005>
-299.185546875

> <r_mmod_Solvation_Energy-OPLS-2005>
-253.64875793457

> <b_mmod_Minimization_Converged-OPLS-2005>
0

> <r_mmod_RMS_Derivative-OPLS-2005>
4.72576522827148

$$$$
50
                    3D
 Structure written by MMmdl.
154162  0  0  1  0            999 V2000
  -30.6950  -14.5030   20.5434 C   0  0  0  0  0  0
  -30.4193  -12.3159   19.4331 C   0  0  0  0  0  0
  -29.4948  -12.4955   18.2113 C   0  0  0  0  0  0
  -28.0158  -12.3583   18.6228 C   0  0  0  0  0  0
  -27.6576  -13.2102   19.8708 C   0  0  2  0  0  0
  -28.7002  -13.0195   20.9959 C   0  0  0  0  0  0
  -25.2568  -13.8167   20.5679 C   0  0  0  0  0  0
  -24.1827  -13.0442   20.9185 C   0  0  0  0  0  0
  -24.6389  -11.6908   20.8739 C   0  0  0  0  0  0
  -23.9058  -10.4292   21.0406 C   0  0  0  0  0  0
  -24.3610   -9.4204   21.9179 C   0  0  0  0  0  0
  -23.6286   -8.2241   22.0752 C   0  0  0  0  0  0
  -22.4270   -8.0278   21.3544 C   0  0  0  0  0  0
  -21.9903   -9.0250   20.4646 C   0  0  0  0  0  0
  -22.7229  -10.2131   20.3053 C   0  0  0  0  0  0
  -21.6851   -6.0732   22.5276 C   0  0  0  0  0  0
  -21.4015   -6.5636   23.8210 C   0  0  0  0  0  0
  -21.3658   -5.6788   24.9169 C   0  0  0  0  0  0
  -21.6046   -4.3053   24.7224 C   0  0  0  0  0  0
  -21.8818   -3.8143   23.4346 C   0  0  0  0  0  0
  -21.9194   -4.6959   22.3400 C   0  0  0  0  0  0
  -22.7849  -13.5236   21.1843 C   0  0  0  0  0  0
  -22.1660   -4.2140   21.0979 F   0  0  0  0  0  0
  -21.5629   -3.4538   25.7740 F   0  0  0  0  0  0
  -30.0268  -13.3208   20.4361 N   0  0  0  0  0  0
  -26.3004  -12.9341   20.3351 N   0  0  0  0  0  0
  -25.9313  -11.6502   20.5773 N   0  0  0  0  0  0
  -22.0497  -12.8228   22.0406 N   0  0  0  0  0  0
  -25.4297  -15.1883   20.4069 N   0  0  0  0  0  0
  -31.8360  -14.6471   20.1005 O   0  0  0  0  0  0
  -21.6637   -6.8873   21.4239 O   0  0  0  0  0  0
  -22.3533  -14.5541   20.6689 O   0  0  0  0  0  0
  -24.6173  -31.8669   23.2086 C   0  0  0  0  0  0
  -25.9056  -32.4816   23.8389 C   0  0  1  0  0  0
  -27.2290  -27.4138   20.1051 C   0  0  0  0  0  0
  -25.5905  -33.8614   24.2321 N   0  0  0  0  0  0
  -23.4070  -30.4897   21.5498 C   0  0  2  0  0  0
  -24.8533  -28.9549   20.1120 C   0  0  0  0  0  0
  -22.7428  -29.4657   22.4985 C   0  0  0  0  0  0
  -18.0275  -28.1384   22.8498 C   0  0  0  0  0  0
  -24.1487  -36.7311   23.2639 C   0  0  0  0  0  0
  -25.9376  -30.8284   21.3629 C   0  0  0  0  0  0
  -26.0158  -29.4621   20.7074 C   0  0  0  0  0  0
  -27.2103  -28.7013   20.6948 C   0  0  0  0  0  0
  -26.0523  -26.9277   19.4973 C   0  0  0  0  0  0
  -24.8679  -27.6884   19.5017 C   0  0  0  0  0  0
  -23.6156  -29.8231   20.1641 C   0  0  0  0  0  0
  -25.4110  -36.3109   24.0336 C   0  0  1  0  0  0
  -20.5870  -28.3672   23.1317 C   0  0  2  0  0  0
  -20.6769  -26.9405   22.5426 C   0  0  0  0  0  0
  -19.5747  -26.6389   21.5224 C   0  0  0  0  0  0
  -18.1923  -26.7934   22.1629 C   0  0  0  0  0  0
  -19.1526  -28.8841   23.2906 C   0  0  0  0  0  0
  -18.9452  -30.1448   23.8915 C   0  0  0  0  0  0
  -17.6453  -30.6588   24.0565 C   0  0  0  0  0  0
  -25.9041  -34.9473   23.5125 C   0  0  0  0  0  0
  -16.5346  -29.9090   23.6329 C   0  0  0  0  0  0
  -16.7263  -28.6506   23.0353 C   0  0  0  0  0  0
  -26.4474  -31.6596   25.0723 C   0  0  0  0  0  0
  -25.3733  -31.3696   26.1466 C   0  0  0  0  0  0
  -27.0299  -30.3036   24.6106 C   0  0  0  0  0  0
  -27.6064  -32.4305   25.7472 C   0  0  0  0  0  0
  -27.5581  -37.1807   24.8465 C   0  0  0  0  0  0
  -21.4151  -29.3035   22.3719 N   0  0  0  0  0  0
  -26.4296  -37.3795   23.9408 N   0  0  0  0  0  0
  -24.6725  -31.0754   22.0993 N   0  0  0  0  0  0
  -23.4181  -28.8205   23.3045 O   0  0  0  0  0  0
  -28.3639  -26.6259   20.1272 O   0  0  0  0  0  0
  -26.5606  -34.8923   22.4689 O   0  0  0  0  0  0
  -23.5356  -32.1423   23.7466 O   0  0  0  0  0  0
  -29.3357  -17.9658   20.9777 C   0  0  0  0  0  0
  -31.6754  -17.3949   21.0181 C   0  0  0  0  0  0
  -29.6838  -19.3488   20.9932 C   0  0  0  0  0  0
  -30.3340  -16.9548   20.9872 C   0  0  0  0  0  0
  -31.0731  -19.6362   21.0497 C   0  0  0  0  0  0
  -28.5777  -20.4028   21.0177 C   0  0  0  0  0  0
  -28.0452  -22.7515   20.5239 C   0  0  0  0  0  0
  -28.6127  -24.0903   19.9744 C   0  0  0  0  0  0
  -28.2035  -25.3511   20.8011 C   0  0  0  0  0  0
  -32.0314  -18.6956   21.0367 N   0  0  0  0  0  0
  -31.6056  -20.9185   21.1121 N   0  0  0  0  0  0
  -29.9699  -15.5573   20.9926 N   0  0  0  0  0  0
  -28.8536  -21.6569   20.5626 N   0  0  0  0  0  0
  -27.4624  -20.0514   21.4210 O   0  0  0  0  0  0
  -26.8640  -22.7402   20.8885 O   0  0  0  0  0  0
  -31.4647  -12.4065   19.1329 H   0  0  0  0  0  0
  -30.3173  -11.3117   19.8478 H   0  0  0  0  0  0
  -29.7371  -11.7594   17.4433 H   0  0  0  0  0  0
  -29.6621  -13.4747   17.7602 H   0  0  0  0  0  0
  -27.8279  -11.3041   18.8293 H   0  0  0  0  0  0
  -27.3652  -12.6225   17.7879 H   0  0  0  0  0  0
  -27.6928  -14.2535   19.5568 H   0  0  0  0  0  0
  -28.6808  -11.9916   21.3616 H   0  0  0  0  0  0
  -28.4650  -13.6426   21.8597 H   0  0  0  0  0  0
  -25.2759   -9.5682   22.4751 H   0  0  0  0  0  0
  -23.9995   -7.4635   22.7470 H   0  0  0  0  0  0
  -21.0834   -8.8763   19.8956 H   0  0  0  0  0  0
  -22.3681  -10.9666   19.6160 H   0  0  0  0  0  0
  -21.2007   -7.6144   23.9708 H   0  0  0  0  0  0
  -21.1480   -6.0521   25.9071 H   0  0  0  0  0  0
  -22.0603   -2.7605   23.2847 H   0  0  0  0  0  0
  -22.4110  -11.9889   22.4793 H   0  0  0  0  0  0
  -21.1115  -13.1254   22.2617 H   0  0  0  0  0  0
  -24.6633  -15.8445   20.5120 H   0  0  0  0  0  0
  -26.2737  -15.6217   20.0553 H   0  0  0  0  0  0
  -26.7132  -32.5525   23.1157 H   0  0  0  0  0  0
  -25.0053  -33.9780   25.0462 H   0  0  0  0  0  0
  -22.6973  -31.3080   21.4101 H   0  0  0  0  0  0
  -23.3749  -35.9645   23.3313 H   0  0  0  0  0  0
  -24.3576  -36.8915   22.2051 H   0  0  0  0  0  0
  -23.7241  -37.6519   23.6644 H   0  0  0  0  0  0
  -26.0524  -31.5949   20.5952 H   0  0  0  0  0  0
  -26.8245  -30.8795   21.9833 H   0  0  0  0  0  0
  -28.1077  -29.0862   21.1582 H   0  0  0  0  0  0
  -26.0484  -25.9525   19.0304 H   0  0  0  0  0  0
  -23.9737  -27.2921   19.0400 H   0  0  0  0  0  0
  -23.7222  -30.5987   19.4053 H   0  0  0  0  0  0
  -22.7389  -29.2431   19.8695 H   0  0  0  0  0  0
  -25.1286  -36.1975   25.0828 H   0  0  0  0  0  0
  -20.9964  -28.3238   24.1435 H   0  0  0  0  0  0
  -20.5680  -26.2281   23.3619 H   0  0  0  0  0  0
  -21.6637  -26.7452   22.1209 H   0  0  0  0  0  0
  -19.6911  -25.6303   21.1242 H   0  0  0  0  0  0
  -19.6689  -27.3210   20.6762 H   0  0  0  0  0  0
  -17.4203  -26.6697   21.4018 H   0  0  0  0  0  0
  -18.0302  -26.0068   22.9009 H   0  0  0  0  0  0
  -19.7928  -30.7262   24.2295 H   0  0  0  0  0  0
  -17.5008  -31.6273   24.5163 H   0  0  0  0  0  0
  -15.5348  -30.2996   23.7645 H   0  0  0  0  0  0
  -15.8666  -28.0829   22.7064 H   0  0  0  0  0  0
  -24.5947  -30.6994   25.7806 H   0  0  0  0  0  0
  -24.8872  -32.2838   26.4883 H   0  0  0  0  0  0
  -25.8088  -30.8904   27.0246 H   0  0  0  0  0  0
  -26.2841  -29.6804   24.1163 H   0  0  0  0  0  0
  -27.4066  -29.7269   25.4565 H   0  0  0  0  0  0
  -27.8675  -30.4352   23.9253 H   0  0  0  0  0  0
  -27.2714  -33.3610   26.2063 H   0  0  0  0  0  0
  -28.3858  -32.6854   25.0279 H   0  0  0  0  0  0
  -28.0750  -31.8417   26.5369 H   0  0  0  0  0  0
  -28.2611  -38.0095   24.7507 H   0  0  0  0  0  0
  -28.1064  -36.2626   24.6293 H   0  0  0  0  0  0
  -27.2295  -37.1459   25.8868 H   0  0  0  0  0  0
  -20.9319  -29.8744   21.6925 H   0  0  0  0  0  0
  -26.0185  -38.2874   24.1410 H   0  0  0  0  0  0
  -28.2952  -17.6741   20.9601 H   0  0  0  0  0  0
  -32.5091  -16.7136   21.0665 H   0  0  0  0  0  0
  -28.2314  -24.1958   18.9587 H   0  0  0  0  0  0
  -29.6982  -24.0356   19.8901 H   0  0  0  0  0  0
  -28.8277  -25.3885   21.6944 H   0  0  0  0  0  0
  -27.1878  -25.2389   21.1851 H   0  0  0  0  0  0
  -31.2000  -21.5109   21.8273 H   0  0  0  0  0  0
  -32.6142  -20.9192   21.2118 H   0  0  0  0  0  0
  -29.0178  -15.3371   21.2443 H   0  0  0  0  0  0
  -29.8055  -21.7881   20.2449 H   0  0  0  0  0  0
  1 25  1  0  0  0
  1 30  2  0  0  0
  1 82  1  0  0  0
  2  3  1  0  0  0
  2 25  1  0  0  0
  2 86  1  0  0  0
  2 87  1  0  0  0
  3  4  1  0  0  0
  3 88  1  0  0  0
  3 89  1  0  0  0
  4  5  1  0  0  0
  4 90  1  0  0  0
  4 91  1  0  0  0
  5  6  1  0  0  0
  5 26  1  0  0  0
  5 92  1  0  0  0
  6 25  1  0  0  0
  6 93  1  0  0  0
  6 94  1  0  0  0
  7  8  2  0  0  0
  7 26  1  0  0  0
  7 29  1  0  0  0
  8  9  1  0  0  0
  8 22  1  0  0  0
  9 10  1  0  0  0
  9 27  2  0  0  0
 10 11  2  0  0  0
 10 15  1  0  0  0
 11 12  1  0  0  0
 11 95  1  0  0  0
 12 13  2  0  0  0
 12 96  1  0  0  0
 13 14  1  0  0  0
 13 31  1  0  0  0
 14 15  2  0  0  0
 14 97  1  0  0  0
 15 98  1  0  0  0
 16 17  2  0  0  0
 16 21  1  0  0  0
 16 31  1  0  0  0
 17 18  1  0  0  0
 17 99  1  0  0  0
 18 19  2  0  0  0
 18100  1  0  0  0
 19 20  1  0  0  0
 19 24  1  0  0  0
 20 21  2  0  0  0
 20101  1  0  0  0
 21 23  1  0  0  0
 22 28  1  0  0  0
 22 32  2  0  0  0
 26 27  1  0  0  0
 28102  1  0  0  0
 28103  1  0  0  0
 29104  1  0  0  0
 29105  1  0  0  0
 33 34  1  0  0  0
 33 66  1  0  0  0
 33 70  2  0  0  0
 34 36  1  0  0  0
 34 59  1  0  0  0
 34106  1  0  0  0
 35 44  2  0  0  0
 35 45  1  0  0  0
 35 68  1  0  0  0
 36 56  1  0  0  0
 36107  1  0  0  0
 37 39  1  0  0  0
 37 47  1  0  0  0
 37 66  1  0  0  0
 37108  1  0  0  0
 38 43  2  0  0  0
 38 46  1  0  0  0
 38 47  1  0  0  0
 39 64  1  0  0  0
 39 67  2  0  0  0
 40 52  1  0  0  0
 40 53  2  0  0  0
 40 58  1  0  0  0
 41109  1  0  0  0
 41110  1  0  0  0
 41111  1  0  0  0
 41 48  1  0  0  0
 42 43  1  0  0  0
 42 66  1  0  0  0
 42112  1  0  0  0
 42113  1  0  0  0
 43 44  1  0  0  0
 44114  1  0  0  0
 45 46  2  0  0  0
 45115  1  0  0  0
 46116  1  0  0  0
 47117  1  0  0  0
 47118  1  0  0  0
 48 56  1  0  0  0
 48 65  1  0  0  0
 48119  1  0  0  0
 49 50  1  0  0  0
 49 53  1  0  0  0
 49 64  1  0  0  0
 49120  1  0  0  0
 50 51  1  0  0  0
 50121  1  0  0  0
 50122  1  0  0  0
 51 52  1  0  0  0
 51123  1  0  0  0
 51124  1  0  0  0
 52125  1  0  0  0
 52126  1  0  0  0
 53 54  1  0  0  0
 54 55  2  0  0  0
 54127  1  0  0  0
 55 57  1  0  0  0
 55128  1  0  0  0
 56 69  2  0  0  0
 57 58  2  0  0  0
 57129  1  0  0  0
 58130  1  0  0  0
 59 60  1  0  0  0
 59 61  1  0  0  0
 59 62  1  0  0  0
 60131  1  0  0  0
 60132  1  0  0  0
 60133  1  0  0  0
 61134  1  0  0  0
 61135  1  0  0  0
 61136  1  0  0  0
 62137  1  0  0  0
 62138  1  0  0  0
 62139  1  0  0  0
 63 65  1  0  0  0
 63140  1  0  0  0
 63141  1  0  0  0
 63142  1  0  0  0
 64143  1  0  0  0
 65144  1  0  0  0
 68 79  1  0  0  0
 71 73  2  0  0  0
 71 74  1  0  0  0
 71145  1  0  0  0
 72 74  2  0  0  0
 72 80  1  0  0  0
 72146  1  0  0  0
 73 75  1  0  0  0
 73 76  1  0  0  0
 74 82  1  0  0  0
 75 80  2  0  0  0
 75 81  1  0  0  0
 76 83  1  0  0  0
 76 84  2  0  0  0
 77 78  1  0  0  0
 77 83  1  0  0  0
 77 85  2  0  0  0
 78 79  1  0  0  0
 78147  1  0  0  0
 78148  1  0  0  0
 79149  1  0  0  0
 79150  1  0  0  0
 81151  1  0  0  0
 81152  1  0  0  0
 82153  1  0  0  0
 83154  1  0  0  0
M  ISO  4   1 100  68 101  79 101  82 100
M  END
> <chiral flag>
0

> <version>
0

> <s_m_source_file>
/data/baiqing/PycharmProjects/Reinvent-master-3.2/result/LINK_invent/BTK/process_docking_weight1_custom_product_contain_oxygen_bond_distance_aromatic_linkinvent_7_9_3/rearranged_h_0169.sdf

> <i_m_source_file_index>
51

> <r_mmod_Potential_Energy-OPLS-2005>
-329.080444335938

> <r_mmod_Stretch_Energy-OPLS-2005>
47.6996459960938

> <r_mmod_Bend_Energy-OPLS-2005>
111.32251739502

> <r_mmod_Torsional_Energy-OPLS-2005>
251.691467285156

> <r_mmod_Improper_Torsional_Energy-OPLS-2005>
10.0629177093506

> <r_mmod_Van_der_Waal_Energy-OPLS-2005>
173.883483886719

> <r_mmod_Electrostatic_Energy-OPLS-2005>
-667.956481933594

> <r_mmod_Solvation_Energy-OPLS-2005>
-273.711791992188

> <b_mmod_Minimization_Converged-OPLS-2005>
0

> <r_mmod_RMS_Derivative-OPLS-2005>
0.970471620559692

$$$$
51
                    3D
 Structure written by MMmdl.
162170  0  0  1  0            999 V2000
  -30.7832  -14.4480   20.5474 C   0  0  0  0  0  0
  -30.3805  -12.2860   19.4371 C   0  0  0  0  0  0
  -29.4816  -12.4932   18.2059 C   0  0  0  0  0  0
  -28.0052  -12.3667   18.6197 C   0  0  0  0  0  0
  -27.6540  -13.2209   19.8694 C   0  0  2  0  0  0
  -28.7014  -13.0542   20.9956 C   0  0  0  0  0  0
  -25.2576  -13.8157   20.5730 C   0  0  0  0  0  0
  -24.1831  -13.0439   20.9201 C   0  0  0  0  0  0
  -24.6383  -11.6901   20.8742 C   0  0  0  0  0  0
  -23.9031  -10.4300   21.0394 C   0  0  0  0  0  0
  -24.3593   -9.4215   21.9154 C   0  0  0  0  0  0
  -23.6274   -8.2252   22.0741 C   0  0  0  0  0  0
  -22.4249   -8.0281   21.3548 C   0  0  0  0  0  0
  -21.9887   -9.0236   20.4627 C   0  0  0  0  0  0
  -22.7211  -10.2123   20.3027 C   0  0  0  0  0  0
  -21.6856   -6.0730   22.5269 C   0  0  0  0  0  0
  -21.4016   -6.5621   23.8206 C   0  0  0  0  0  0
  -21.3670   -5.6767   24.9158 C   0  0  0  0  0  0
  -21.6060   -4.3031   24.7218 C   0  0  0  0  0  0
  -21.8823   -3.8131   23.4330 C   0  0  0  0  0  0
  -21.9198   -4.6955   22.3386 C   0  0  0  0  0  0
  -22.7859  -13.5253   21.1870 C   0  0  0  0  0  0
  -22.1663   -4.2138   21.0968 F   0  0  0  0  0  0
  -21.5646   -3.4513   25.7735 F   0  0  0  0  0  0
  -30.0240  -13.3214   20.4211 N   0  0  0  0  0  0
  -26.3006  -12.9366   20.3384 N   0  0  0  0  0  0
  -25.9331  -11.6522   20.5780 N   0  0  0  0  0  0
  -22.0482  -12.8232   22.0392 N   0  0  0  0  0  0
  -25.4351  -15.1874   20.4184 N   0  0  0  0  0  0
  -31.9088  -14.4893   20.0487 O   0  0  0  0  0  0
  -21.6639   -6.8870   21.4232 O   0  0  0  0  0  0
  -22.3549  -14.5557   20.6697 O   0  0  0  0  0  0
  -24.6175  -31.8684   23.2125 C   0  0  0  0  0  0
  -25.9071  -32.4834   23.8394 C   0  0  1  0  0  0
  -27.2192  -27.4218   20.0822 C   0  0  0  0  0  0
  -25.5923  -33.8631   24.2346 N   0  0  0  0  0  0
  -23.4008  -30.5004   21.5534 C   0  0  2  0  0  0
  -24.8401  -28.9663   20.1126 C   0  0  0  0  0  0
  -22.7372  -29.4710   22.4969 C   0  0  0  0  0  0
  -18.0259  -28.1386   22.8501 C   0  0  0  0  0  0
  -24.1524  -36.7317   23.2640 C   0  0  0  0  0  0
  -25.9340  -30.8330   21.3616 C   0  0  0  0  0  0
  -26.0033  -29.4662   20.7078 C   0  0  0  0  0  0
  -27.1945  -28.7035   20.6873 C   0  0  0  0  0  0
  -26.0276  -26.9427   19.4865 C   0  0  0  0  0  0
  -24.8455  -27.7031   19.5025 C   0  0  0  0  0  0
  -23.6085  -29.8401   20.1637 C   0  0  0  0  0  0
  -25.4149  -36.3142   24.0342 C   0  0  1  0  0  0
  -20.5849  -28.3676   23.1301 C   0  0  2  0  0  0
  -20.6783  -26.9416   22.5397 C   0  0  0  0  0  0
  -19.5755  -26.6374   21.5234 C   0  0  0  0  0  0
  -18.1921  -26.7922   22.1630 C   0  0  0  0  0  0
  -19.1519  -28.8836   23.2905 C   0  0  0  0  0  0
  -18.9478  -30.1433   23.8918 C   0  0  0  0  0  0
  -17.6494  -30.6618   24.0566 C   0  0  0  0  0  0
  -25.9045  -34.9491   23.5136 C   0  0  0  0  0  0
  -16.5368  -29.9137   23.6352 C   0  0  0  0  0  0
  -16.7248  -28.6542   23.0391 C   0  0  0  0  0  0
  -26.4514  -31.6590   25.0695 C   0  0  0  0  0  0
  -25.3789  -31.3584   26.1413 C   0  0  0  0  0  0
  -27.0288  -30.3064   24.5972 C   0  0  0  0  0  0
  -27.6153  -32.4233   25.7435 C   0  0  0  0  0  0
  -27.5606  -37.1832   24.8461 C   0  0  0  0  0  0
  -21.4083  -29.3118   22.3768 N   0  0  0  0  0  0
  -26.4343  -37.3822   23.9380 N   0  0  0  0  0  0
  -24.6716  -31.0795   22.1033 N   0  0  0  0  0  0
  -23.4147  -28.8176   23.2909 O   0  0  0  0  0  0
  -28.3988  -26.6955   20.1019 O   0  0  0  0  0  0
  -26.5569  -34.8934   22.4686 O   0  0  0  0  0  0
  -23.5368  -32.1438   23.7511 O   0  0  0  0  0  0
  -28.9719  -18.2228   20.5463 C   0  0  0  0  0  0
  -28.3271  -19.4783   20.4796 C   0  0  0  0  0  0
  -29.8488  -20.3432   22.1497 C   0  0  0  0  0  0
  -30.0722  -18.0052   21.4102 C   0  0  0  0  0  0
  -30.5091  -19.0933   22.2284 C   0  0  0  0  0  0
  -28.7659  -20.5584   21.2745 C   0  0  0  0  0  0
  -30.8658  -16.7174   21.3146 C   0  0  0  0  0  0
  -28.8991  -24.1738   21.8909 C   0  0  0  0  0  0
  -28.7346  -25.3005   18.1565 C   0  0  0  0  0  0
  -29.4112  -24.4837   20.4736 C   0  0  0  0  0  0
  -28.2128  -22.8242   22.2153 C   0  0  0  0  0  0
  -31.7145  -18.9787   23.1668 C   0  0  0  0  0  0
  -28.4100  -25.3232   19.6572 C   0  0  1  0  0  0
  -28.1479  -21.8184   21.1425 N   0  0  0  0  0  0
  -30.2071  -15.5548   21.0719 N   0  0  0  0  0  0
  -32.0925  -16.7897   21.4569 O   0  0  0  0  0  0
  -29.0277  -25.0141   22.7848 O   0  0  0  0  0  0
  -31.5709  -17.9494   24.0024 F   0  0  0  0  0  0
  -31.9002  -20.0782   23.8988 F   0  0  0  0  0  0
  -31.4332  -12.2954   19.1491 H   0  0  0  0  0  0
  -30.2084  -11.2945   19.8609 H   0  0  0  0  0  0
  -29.7171  -11.7546   17.4393 H   0  0  0  0  0  0
  -29.6666  -13.4725   17.7602 H   0  0  0  0  0  0
  -27.8185  -11.3118   18.8247 H   0  0  0  0  0  0
  -27.3508  -12.6295   17.7885 H   0  0  0  0  0  0
  -27.6803  -14.2620   19.5488 H   0  0  0  0  0  0
  -28.6780  -12.0366   21.3871 H   0  0  0  0  0  0
  -28.4810  -13.7064   21.8404 H   0  0  0  0  0  0
  -25.2742   -9.5708   22.4720 H   0  0  0  0  0  0
  -23.9984   -7.4664   22.7473 H   0  0  0  0  0  0
  -21.0818   -8.8731   19.8943 H   0  0  0  0  0  0
  -22.3642  -10.9648   19.6122 H   0  0  0  0  0  0
  -21.1991   -7.6125   23.9701 H   0  0  0  0  0  0
  -21.1505   -6.0496   25.9063 H   0  0  0  0  0  0
  -22.0603   -2.7594   23.2825 H   0  0  0  0  0  0
  -22.4060  -11.9837   22.4723 H   0  0  0  0  0  0
  -21.1114  -13.1299   22.2640 H   0  0  0  0  0  0
  -24.6799  -15.8537   20.5359 H   0  0  0  0  0  0
  -26.2915  -15.6173   20.0940 H   0  0  0  0  0  0
  -26.7114  -32.5549   23.1129 H   0  0  0  0  0  0
  -25.0113  -33.9793   25.0515 H   0  0  0  0  0  0
  -22.6935  -31.3213   21.4182 H   0  0  0  0  0  0
  -23.3797  -35.9626   23.3300 H   0  0  0  0  0  0
  -24.3660  -36.8929   22.2059 H   0  0  0  0  0  0
  -23.7248  -37.6532   23.6620 H   0  0  0  0  0  0
  -26.0461  -31.6023   20.5955 H   0  0  0  0  0  0
  -26.8260  -30.8862   21.9721 H   0  0  0  0  0  0
  -28.0942  -29.0953   21.1420 H   0  0  0  0  0  0
  -25.9695  -25.9820   18.9984 H   0  0  0  0  0  0
  -23.9479  -27.3142   19.0428 H   0  0  0  0  0  0
  -23.7283  -30.6231   19.4130 H   0  0  0  0  0  0
  -22.7281  -29.2733   19.8544 H   0  0  0  0  0  0
  -25.1353  -36.2056   25.0842 H   0  0  0  0  0  0
  -20.9923  -28.3248   24.1424 H   0  0  0  0  0  0
  -20.5712  -26.2299   23.3595 H   0  0  0  0  0  0
  -21.6646  -26.7426   22.1176 H   0  0  0  0  0  0
  -19.6898  -25.6257   21.1326 H   0  0  0  0  0  0
  -19.6723  -27.3141   20.6729 H   0  0  0  0  0  0
  -17.4210  -26.6655   21.4009 H   0  0  0  0  0  0
  -18.0295  -26.0069   22.9029 H   0  0  0  0  0  0
  -19.7953  -30.7212   24.2337 H   0  0  0  0  0  0
  -17.5095  -31.6313   24.5125 H   0  0  0  0  0  0
  -15.5386  -30.3073   23.7747 H   0  0  0  0  0  0
  -15.8607  -28.0902   22.7126 H   0  0  0  0  0  0
  -24.6064  -30.6840   25.7719 H   0  0  0  0  0  0
  -24.8824  -32.2634   26.4890 H   0  0  0  0  0  0
  -25.8174  -30.8755   27.0137 H   0  0  0  0  0  0
  -26.2740  -29.6829   24.1162 H   0  0  0  0  0  0
  -27.4268  -29.7328   25.4350 H   0  0  0  0  0  0
  -27.8486  -30.4459   23.8923 H   0  0  0  0  0  0
  -27.2892  -33.3565   26.2018 H   0  0  0  0  0  0
  -28.3939  -32.6706   25.0210 H   0  0  0  0  0  0
  -28.0791  -31.8284   26.5310 H   0  0  0  0  0  0
  -28.2663  -38.0113   24.7566 H   0  0  0  0  0  0
  -28.1080  -36.2657   24.6264 H   0  0  0  0  0  0
  -27.2258  -37.1430   25.8846 H   0  0  0  0  0  0
  -20.9169  -29.9023   21.7201 H   0  0  0  0  0  0
  -26.0232  -38.2897   24.1411 H   0  0  0  0  0  0
  -28.6396  -17.4367   19.8816 H   0  0  0  0  0  0
  -27.5110  -19.6084   19.7807 H   0  0  0  0  0  0
  -30.2269  -21.1609   22.7407 H   0  0  0  0  0  0
  -27.9327  -25.7505   17.5726 H   0  0  0  0  0  0
  -28.8605  -24.2803   17.7936 H   0  0  0  0  0  0
  -29.6570  -25.8406   17.9433 H   0  0  0  0  0  0
  -29.6057  -23.5400   19.9642 H   0  0  0  0  0  0
  -30.3724  -24.9942   20.5335 H   0  0  0  0  0  0
  -27.1891  -23.0543   22.5122 H   0  0  0  0  0  0
  -28.6754  -22.4266   23.1179 H   0  0  0  0  0  0
  -32.6460  -18.8469   22.6127 H   0  0  0  0  0  0
  -27.4565  -24.8254   19.8140 H   0  0  0  0  0  0
  -27.3404  -21.8833   20.5312 H   0  0  0  0  0  0
  -29.2106  -15.5508   21.2006 H   0  0  0  0  0  0
  1 25  1  0  0  0
  1 30  2  0  0  0
  1 85  1  0  0  0
  2  3  1  0  0  0
  2 25  1  0  0  0
  2 90  1  0  0  0
  2 91  1  0  0  0
  3  4  1  0  0  0
  3 92  1  0  0  0
  3 93  1  0  0  0
  4  5  1  0  0  0
  4 94  1  0  0  0
  4 95  1  0  0  0
  5  6  1  0  0  0
  5 26  1  0  0  0
  5 96  1  0  0  0
  6 25  1  0  0  0
  6 97  1  0  0  0
  6 98  1  0  0  0
  7  8  2  0  0  0
  7 26  1  0  0  0
  7 29  1  0  0  0
  8  9  1  0  0  0
  8 22  1  0  0  0
  9 10  1  0  0  0
  9 27  2  0  0  0
 10 11  2  0  0  0
 10 15  1  0  0  0
 11 12  1  0  0  0
 11 99  1  0  0  0
 12 13  2  0  0  0
 12100  1  0  0  0
 13 14  1  0  0  0
 13 31  1  0  0  0
 14 15  2  0  0  0
 14101  1  0  0  0
 15102  1  0  0  0
 16 17  2  0  0  0
 16 21  1  0  0  0
 16 31  1  0  0  0
 17 18  1  0  0  0
 17103  1  0  0  0
 18 19  2  0  0  0
 18104  1  0  0  0
 19 20  1  0  0  0
 19 24  1  0  0  0
 20 21  2  0  0  0
 20105  1  0  0  0
 21 23  1  0  0  0
 22 28  1  0  0  0
 22 32  2  0  0  0
 26 27  1  0  0  0
 28106  1  0  0  0
 28107  1  0  0  0
 29108  1  0  0  0
 29109  1  0  0  0
 33 34  1  0  0  0
 33 66  1  0  0  0
 33 70  2  0  0  0
 34 36  1  0  0  0
 34 59  1  0  0  0
 34110  1  0  0  0
 35 44  2  0  0  0
 35 45  1  0  0  0
 35 68  1  0  0  0
 36 56  1  0  0  0
 36111  1  0  0  0
 37 39  1  0  0  0
 37 47  1  0  0  0
 37 66  1  0  0  0
 37112  1  0  0  0
 38 43  2  0  0  0
 38 46  1  0  0  0
 38 47  1  0  0  0
 39 64  1  0  0  0
 39 67  2  0  0  0
 40 52  1  0  0  0
 40 53  2  0  0  0
 40 58  1  0  0  0
 41113  1  0  0  0
 41114  1  0  0  0
 41115  1  0  0  0
 41 48  1  0  0  0
 42 43  1  0  0  0
 42 66  1  0  0  0
 42116  1  0  0  0
 42117  1  0  0  0
 43 44  1  0  0  0
 44118  1  0  0  0
 45 46  2  0  0  0
 45119  1  0  0  0
 46120  1  0  0  0
 47121  1  0  0  0
 47122  1  0  0  0
 48 56  1  0  0  0
 48 65  1  0  0  0
 48123  1  0  0  0
 49 50  1  0  0  0
 49 53  1  0  0  0
 49 64  1  0  0  0
 49124  1  0  0  0
 50 51  1  0  0  0
 50125  1  0  0  0
 50126  1  0  0  0
 51 52  1  0  0  0
 51127  1  0  0  0
 51128  1  0  0  0
 52129  1  0  0  0
 52130  1  0  0  0
 53 54  1  0  0  0
 54 55  2  0  0  0
 54131  1  0  0  0
 55 57  1  0  0  0
 55132  1  0  0  0
 56 69  2  0  0  0
 57 58  2  0  0  0
 57133  1  0  0  0
 58134  1  0  0  0
 59 60  1  0  0  0
 59 61  1  0  0  0
 59 62  1  0  0  0
 60135  1  0  0  0
 60136  1  0  0  0
 60137  1  0  0  0
 61138  1  0  0  0
 61139  1  0  0  0
 61140  1  0  0  0
 62141  1  0  0  0
 62142  1  0  0  0
 62143  1  0  0  0
 63 65  1  0  0  0
 63144  1  0  0  0
 63145  1  0  0  0
 63146  1  0  0  0
 64147  1  0  0  0
 65148  1  0  0  0
 68 83  1  0  0  0
 71 72  2  0  0  0
 71 74  1  0  0  0
 71149  1  0  0  0
 72 76  1  0  0  0
 72150  1  0  0  0
 73 75  1  0  0  0
 73 76  2  0  0  0
 73151  1  0  0  0
 74 75  2  0  0  0
 74 77  1  0  0  0
 75 82  1  0  0  0
 76 84  1  0  0  0
 77 85  1  0  0  0
 77 86  2  0  0  0
 78 80  1  0  0  0
 78 81  1  0  0  0
 78 87  2  0  0  0
 79152  1  0  0  0
 79153  1  0  0  0
 79154  1  0  0  0
 79 83  1  0  0  0
 80 83  1  0  0  0
 80155  1  0  0  0
 80156  1  0  0  0
 81 84  1  0  0  0
 81157  1  0  0  0
 81158  1  0  0  0
 82 88  1  0  0  0
 82 89  1  0  0  0
 82159  1  0  0  0
 83160  1  0  0  0
 84161  1  0  0  0
 85162  1  0  0  0
M  ISO  4   1 100  68 101  83 101  85 100
M  END
> <chiral flag>
0

> <version>
0

> <s_m_source_file>
/data/baiqing/PycharmProjects/Reinvent-master-3.2/result/LINK_invent/BTK/process_docking_weight1_custom_product_contain_oxygen_bond_distance_aromatic_linkinvent_7_9_3/rearranged_h_0169.sdf

> <i_m_source_file_index>
52

> <r_mmod_Potential_Energy-OPLS-2005>
-105.337715148926

> <r_mmod_Stretch_Energy-OPLS-2005>
42.1754531860352

> <r_mmod_Bend_Energy-OPLS-2005>
121.957046508789

> <r_mmod_Torsional_Energy-OPLS-2005>
211.741729736328

> <r_mmod_Improper_Torsional_Energy-OPLS-2005>
6.20456314086914

> <r_mmod_Van_der_Waal_Energy-OPLS-2005>
181.110885620117

> <r_mmod_Electrostatic_Energy-OPLS-2005>
-448.865753173828

> <r_mmod_Solvation_Energy-OPLS-2005>
-239.183486938477

> <b_mmod_Minimization_Converged-OPLS-2005>
0

> <r_mmod_RMS_Derivative-OPLS-2005>
4.3946852684021

$$$$
52
                    3D
 Structure written by MMmdl.
155163  0  0  1  0            999 V2000
  -30.6793  -14.5102   20.4972 C   0  0  0  0  0  0
  -30.4206  -12.3092   19.4390 C   0  0  0  0  0  0
  -29.4986  -12.4893   18.2145 C   0  0  0  0  0  0
  -28.0181  -12.3540   18.6231 C   0  0  0  0  0  0
  -27.6559  -13.2109   19.8660 C   0  0  2  0  0  0
  -28.6976  -13.0309   20.9939 C   0  0  0  0  0  0
  -25.2566  -13.8170   20.5672 C   0  0  0  0  0  0
  -24.1826  -13.0442   20.9182 C   0  0  0  0  0  0
  -24.6386  -11.6910   20.8738 C   0  0  0  0  0  0
  -23.9056  -10.4294   21.0407 C   0  0  0  0  0  0
  -24.3611   -9.4208   21.9184 C   0  0  0  0  0  0
  -23.6289   -8.2242   22.0753 C   0  0  0  0  0  0
  -22.4272   -8.0278   21.3543 C   0  0  0  0  0  0
  -21.9903   -9.0253   20.4648 C   0  0  0  0  0  0
  -22.7228  -10.2134   20.3058 C   0  0  0  0  0  0
  -21.6851   -6.0733   22.5278 C   0  0  0  0  0  0
  -21.4013   -6.5638   23.8211 C   0  0  0  0  0  0
  -21.3659   -5.6791   24.9174 C   0  0  0  0  0  0
  -21.6046   -4.3055   24.7224 C   0  0  0  0  0  0
  -21.8819   -3.8145   23.4346 C   0  0  0  0  0  0
  -21.9190   -4.6961   22.3402 C   0  0  0  0  0  0
  -22.7849  -13.5237   21.1847 C   0  0  0  0  0  0
  -22.1660   -4.2147   21.0980 F   0  0  0  0  0  0
  -21.5629   -3.4538   25.7738 F   0  0  0  0  0  0
  -30.0260  -13.3186   20.4341 N   0  0  0  0  0  0
  -26.2994  -12.9344   20.3325 N   0  0  0  0  0  0
  -25.9311  -11.6503   20.5758 N   0  0  0  0  0  0
  -22.0488  -12.8236   22.0407 N   0  0  0  0  0  0
  -25.4286  -15.1889   20.4077 N   0  0  0  0  0  0
  -31.8628  -14.6326   20.1709 O   0  0  0  0  0  0
  -21.6637   -6.8875   21.4240 O   0  0  0  0  0  0
  -22.3535  -14.5542   20.6692 O   0  0  0  0  0  0
  -24.6154  -31.8672   23.2089 C   0  0  0  0  0  0
  -25.9042  -32.4819   23.8392 C   0  0  1  0  0  0
  -27.2309  -27.4210   20.1088 C   0  0  0  0  0  0
  -25.5895  -33.8617   24.2325 N   0  0  0  0  0  0
  -23.4046  -30.4897   21.5492 C   0  0  2  0  0  0
  -24.8521  -28.9504   20.1193 C   0  0  0  0  0  0
  -22.7417  -29.4654   22.4984 C   0  0  0  0  0  0
  -18.0273  -28.1379   22.8494 C   0  0  0  0  0  0
  -24.1487  -36.7316   23.2639 C   0  0  0  0  0  0
  -25.9343  -30.8294   21.3635 C   0  0  0  0  0  0
  -26.0125  -29.4604   20.7162 C   0  0  0  0  0  0
  -27.2082  -28.7037   20.7063 C   0  0  0  0  0  0
  -26.0571  -26.9267   19.5059 C   0  0  0  0  0  0
  -24.8692  -27.6829   19.5109 C   0  0  0  0  0  0
  -23.6149  -29.8195   20.1651 C   0  0  0  0  0  0
  -25.4107  -36.3111   24.0339 C   0  0  1  0  0  0
  -20.5865  -28.3667   23.1318 C   0  0  2  0  0  0
  -20.6765  -26.9403   22.5418 C   0  0  0  0  0  0
  -19.5744  -26.6387   21.5214 C   0  0  0  0  0  0
  -18.1922  -26.7925   22.1626 C   0  0  0  0  0  0
  -19.1523  -28.8839   23.2903 C   0  0  0  0  0  0
  -18.9449  -30.1445   23.8916 C   0  0  0  0  0  0
  -17.6451  -30.6585   24.0566 C   0  0  0  0  0  0
  -25.9032  -34.9475   23.5130 C   0  0  0  0  0  0
  -16.5343  -29.9089   23.6323 C   0  0  0  0  0  0
  -16.7263  -28.6503   23.0350 C   0  0  0  0  0  0
  -26.4473  -31.6597   25.0718 C   0  0  0  0  0  0
  -25.3743  -31.3699   26.1470 C   0  0  0  0  0  0
  -27.0304  -30.3041   24.6089 C   0  0  0  0  0  0
  -27.6050  -32.4318   25.7477 C   0  0  0  0  0  0
  -27.5583  -37.1811   24.8465 C   0  0  0  0  0  0
  -21.4143  -29.3034   22.3724 N   0  0  0  0  0  0
  -26.4295  -37.3793   23.9408 N   0  0  0  0  0  0
  -24.6697  -31.0768   22.0990 N   0  0  0  0  0  0
  -23.4186  -28.8196   23.3029 O   0  0  0  0  0  0
  -28.3835  -26.6677   20.0688 O   0  0  0  0  0  0
  -26.5597  -34.8927   22.4694 O   0  0  0  0  0  0
  -23.5343  -32.1427   23.7477 O   0  0  0  0  0  0
  -29.7276  -18.0666   21.0011 C   0  0  0  0  0  0
  -30.9201  -18.4363   18.4870 C   0  0  0  0  0  0
  -29.9605  -19.3885   20.5252 C   0  0  0  0  0  0
  -30.1130  -16.9235   20.2434 C   0  0  0  0  0  0
  -30.6175  -19.5571   19.2805 C   0  0  0  0  0  0
  -30.6488  -17.1347   18.9455 C   0  0  0  0  0  0
  -29.0305  -22.9803   21.1353 C   0  0  0  0  0  0
  -28.3472  -24.1815   20.3916 C   0  0  0  0  0  0
  -28.6966  -21.5223   20.7186 C   0  0  0  0  0  0
  -28.4568  -25.5906   21.0294 C   0  0  0  0  0  0
  -30.9891  -20.8288   18.8379 N   0  0  0  0  0  0
  -29.9086  -15.5923   20.7593 N   0  0  0  0  0  0
  -29.6057  -20.5099   21.3091 N   0  0  0  0  0  0
  -29.8625  -23.1809   22.0304 O   0  0  0  0  0  0
  -27.7448  -24.0039   19.3245 O   0  0  0  0  0  0
  -30.8915  -16.0976   18.1069 F   0  0  0  0  0  0
  -31.4667  -12.4015   19.1407 H   0  0  0  0  0  0
  -30.3161  -11.3074   19.8583 H   0  0  0  0  0  0
  -29.7428  -11.7530   17.4478 H   0  0  0  0  0  0
  -29.6682  -13.4684   17.7633 H   0  0  0  0  0  0
  -27.8302  -11.3005   18.8334 H   0  0  0  0  0  0
  -27.3705  -12.6150   17.7853 H   0  0  0  0  0  0
  -27.6873  -14.2518   19.5438 H   0  0  0  0  0  0
  -28.6734  -12.0100   21.3777 H   0  0  0  0  0  0
  -28.4686  -13.6746   21.8446 H   0  0  0  0  0  0
  -25.2757   -9.5684   22.4754 H   0  0  0  0  0  0
  -23.9999   -7.4633   22.7471 H   0  0  0  0  0  0
  -21.0832   -8.8771   19.8956 H   0  0  0  0  0  0
  -22.3686  -10.9672   19.6166 H   0  0  0  0  0  0
  -21.2008   -7.6147   23.9714 H   0  0  0  0  0  0
  -21.1483   -6.0522   25.9077 H   0  0  0  0  0  0
  -22.0599   -2.7607   23.2846 H   0  0  0  0  0  0
  -22.4099  -11.9900   22.4806 H   0  0  0  0  0  0
  -21.1108  -13.1269   22.2612 H   0  0  0  0  0  0
  -24.6616  -15.8439   20.5142 H   0  0  0  0  0  0
  -26.2773  -15.6261   20.0714 H   0  0  0  0  0  0
  -26.7114  -32.5534   23.1158 H   0  0  0  0  0  0
  -25.0050  -33.9776   25.0475 H   0  0  0  0  0  0
  -22.6937  -31.3065   21.4081 H   0  0  0  0  0  0
  -23.3742  -35.9655   23.3310 H   0  0  0  0  0  0
  -24.3583  -36.8921   22.2052 H   0  0  0  0  0  0
  -23.7244  -37.6527   23.6646 H   0  0  0  0  0  0
  -26.0463  -31.5919   20.5914 H   0  0  0  0  0  0
  -26.8226  -30.8864   21.9806 H   0  0  0  0  0  0
  -28.1081  -29.0967   21.1592 H   0  0  0  0  0  0
  -26.0599  -25.9589   19.0253 H   0  0  0  0  0  0
  -23.9782  -27.2859   19.0444 H   0  0  0  0  0  0
  -23.7255  -30.5927   19.4038 H   0  0  0  0  0  0
  -22.7389  -29.2395   19.8687 H   0  0  0  0  0  0
  -25.1282  -36.1979   25.0833 H   0  0  0  0  0  0
  -20.9959  -28.3233   24.1437 H   0  0  0  0  0  0
  -20.5674  -26.2274   23.3604 H   0  0  0  0  0  0
  -21.6636  -26.7451   22.1207 H   0  0  0  0  0  0
  -19.6906  -25.6302   21.1234 H   0  0  0  0  0  0
  -19.6682  -27.3207   20.6752 H   0  0  0  0  0  0
  -17.4193  -26.6676   21.4026 H   0  0  0  0  0  0
  -18.0322  -26.0065   22.9019 H   0  0  0  0  0  0
  -19.7924  -30.7254   24.2298 H   0  0  0  0  0  0
  -17.5006  -31.6267   24.5164 H   0  0  0  0  0  0
  -15.5344  -30.2997   23.7633 H   0  0  0  0  0  0
  -15.8663  -28.0825   22.7060 H   0  0  0  0  0  0
  -24.5904  -30.7061   25.7804 H   0  0  0  0  0  0
  -24.8947  -32.2854   26.4945 H   0  0  0  0  0  0
  -25.8098  -30.8844   27.0211 H   0  0  0  0  0  0
  -26.2843  -29.6799   24.1156 H   0  0  0  0  0  0
  -27.4093  -29.7279   25.4540 H   0  0  0  0  0  0
  -27.8670  -30.4364   23.9224 H   0  0  0  0  0  0
  -27.2670  -33.3606   26.2085 H   0  0  0  0  0  0
  -28.3840  -32.6901   25.0291 H   0  0  0  0  0  0
  -28.0742  -31.8426   26.5366 H   0  0  0  0  0  0
  -28.2605  -38.0105   24.7513 H   0  0  0  0  0  0
  -28.1075  -36.2638   24.6287 H   0  0  0  0  0  0
  -27.2303  -37.1458   25.8869 H   0  0  0  0  0  0
  -20.9306  -29.8755   21.6943 H   0  0  0  0  0  0
  -26.0187  -38.2874   24.1404 H   0  0  0  0  0  0
  -29.2721  -17.9292   21.9708 H   0  0  0  0  0  0
  -31.3704  -18.5597   17.5134 H   0  0  0  0  0  0
  -28.6711  -21.4618   19.6305 H   0  0  0  0  0  0
  -27.6805  -21.3116   21.0526 H   0  0  0  0  0  0
  -29.4108  -25.6717   21.5498 H   0  0  0  0  0  0
  -27.6796  -25.6939   21.7877 H   0  0  0  0  0  0
  -31.7433  -20.8877   18.1624 H   0  0  0  0  0  0
  -31.0659  -21.5319   19.5617 H   0  0  0  0  0  0
  -29.0191  -15.4109   21.1972 H   0  0  0  0  0  0
  -30.4188  -20.9926   21.6856 H   0  0  0  0  0  0
  1 25  1  0  0  0
  1 30  2  0  0  0
  1 82  1  0  0  0
  2  3  1  0  0  0
  2 25  1  0  0  0
  2 87  1  0  0  0
  2 88  1  0  0  0
  3  4  1  0  0  0
  3 89  1  0  0  0
  3 90  1  0  0  0
  4  5  1  0  0  0
  4 91  1  0  0  0
  4 92  1  0  0  0
  5  6  1  0  0  0
  5 26  1  0  0  0
  5 93  1  0  0  0
  6 25  1  0  0  0
  6 94  1  0  0  0
  6 95  1  0  0  0
  7  8  2  0  0  0
  7 26  1  0  0  0
  7 29  1  0  0  0
  8  9  1  0  0  0
  8 22  1  0  0  0
  9 10  1  0  0  0
  9 27  2  0  0  0
 10 11  2  0  0  0
 10 15  1  0  0  0
 11 12  1  0  0  0
 11 96  1  0  0  0
 12 13  2  0  0  0
 12 97  1  0  0  0
 13 14  1  0  0  0
 13 31  1  0  0  0
 14 15  2  0  0  0
 14 98  1  0  0  0
 15 99  1  0  0  0
 16 17  2  0  0  0
 16 21  1  0  0  0
 16 31  1  0  0  0
 17 18  1  0  0  0
 17100  1  0  0  0
 18 19  2  0  0  0
 18101  1  0  0  0
 19 20  1  0  0  0
 19 24  1  0  0  0
 20 21  2  0  0  0
 20102  1  0  0  0
 21 23  1  0  0  0
 22 28  1  0  0  0
 22 32  2  0  0  0
 26 27  1  0  0  0
 28103  1  0  0  0
 28104  1  0  0  0
 29105  1  0  0  0
 29106  1  0  0  0
 33 34  1  0  0  0
 33 66  1  0  0  0
 33 70  2  0  0  0
 34 36  1  0  0  0
 34 59  1  0  0  0
 34107  1  0  0  0
 35 44  2  0  0  0
 35 45  1  0  0  0
 35 68  1  0  0  0
 36 56  1  0  0  0
 36108  1  0  0  0
 37 39  1  0  0  0
 37 47  1  0  0  0
 37 66  1  0  0  0
 37109  1  0  0  0
 38 43  2  0  0  0
 38 46  1  0  0  0
 38 47  1  0  0  0
 39 64  1  0  0  0
 39 67  2  0  0  0
 40 52  1  0  0  0
 40 53  2  0  0  0
 40 58  1  0  0  0
 41110  1  0  0  0
 41111  1  0  0  0
 41112  1  0  0  0
 41 48  1  0  0  0
 42 43  1  0  0  0
 42 66  1  0  0  0
 42113  1  0  0  0
 42114  1  0  0  0
 43 44  1  0  0  0
 44115  1  0  0  0
 45 46  2  0  0  0
 45116  1  0  0  0
 46117  1  0  0  0
 47118  1  0  0  0
 47119  1  0  0  0
 48 56  1  0  0  0
 48 65  1  0  0  0
 48120  1  0  0  0
 49 50  1  0  0  0
 49 53  1  0  0  0
 49 64  1  0  0  0
 49121  1  0  0  0
 50 51  1  0  0  0
 50122  1  0  0  0
 50123  1  0  0  0
 51 52  1  0  0  0
 51124  1  0  0  0
 51125  1  0  0  0
 52126  1  0  0  0
 52127  1  0  0  0
 53 54  1  0  0  0
 54 55  2  0  0  0
 54128  1  0  0  0
 55 57  1  0  0  0
 55129  1  0  0  0
 56 69  2  0  0  0
 57 58  2  0  0  0
 57130  1  0  0  0
 58131  1  0  0  0
 59 60  1  0  0  0
 59 61  1  0  0  0
 59 62  1  0  0  0
 60132  1  0  0  0
 60133  1  0  0  0
 60134  1  0  0  0
 61135  1  0  0  0
 61136  1  0  0  0
 61137  1  0  0  0
 62138  1  0  0  0
 62139  1  0  0  0
 62140  1  0  0  0
 63 65  1  0  0  0
 63141  1  0  0  0
 63142  1  0  0  0
 63143  1  0  0  0
 64144  1  0  0  0
 65145  1  0  0  0
 68 80  1  0  0  0
 71 73  2  0  0  0
 71 74  1  0  0  0
 71146  1  0  0  0
 72 75  2  0  0  0
 72 76  1  0  0  0
 72147  1  0  0  0
 73 75  1  0  0  0
 73 83  1  0  0  0
 74 76  2  0  0  0
 74 82  1  0  0  0
 75 81  1  0  0  0
 76 86  1  0  0  0
 77 78  1  0  0  0
 77 79  1  0  0  0
 77 84  2  0  0  0
 78 80  1  0  0  0
 78 85  2  0  0  0
 79 83  1  0  0  0
 79148  1  0  0  0
 79149  1  0  0  0
 80150  1  0  0  0
 80151  1  0  0  0
 81152  1  0  0  0
 81153  1  0  0  0
 82154  1  0  0  0
 83155  1  0  0  0
M  ISO  4   1 100  68 101  80 101  82 100
M  END
> <chiral flag>
0

> <version>
0

> <s_m_source_file>
/data/baiqing/PycharmProjects/Reinvent-master-3.2/result/LINK_invent/BTK/process_docking_weight1_custom_product_contain_oxygen_bond_distance_aromatic_linkinvent_7_9_3/rearranged_h_0169.sdf

> <i_m_source_file_index>
53

> <r_mmod_Potential_Energy-OPLS-2005>
-2.67184996604919

> <r_mmod_Stretch_Energy-OPLS-2005>
45.9623489379883

> <r_mmod_Bend_Energy-OPLS-2005>
96.0598678588867

> <r_mmod_Torsional_Energy-OPLS-2005>
287.367095947266

> <r_mmod_Improper_Torsional_Energy-OPLS-2005>
14.293384552002

> <r_mmod_Van_der_Waal_Energy-OPLS-2005>
156.222930908203

> <r_mmod_Electrostatic_Energy-OPLS-2005>
-375.719970703125

> <r_mmod_Solvation_Energy-OPLS-2005>
-246.01481628418

> <b_mmod_Minimization_Converged-OPLS-2005>
0

> <r_mmod_RMS_Derivative-OPLS-2005>
0.352026075124741

$$$$
53
                    3D
 Structure written by MMmdl.
149157  0  0  1  0            999 V2000
  -30.5834  -14.6993   20.4974 C   0  0  0  0  0  0
  -30.4491  -12.4311   19.4597 C   0  0  0  0  0  0
  -29.5149  -12.5202   18.2304 C   0  0  0  0  0  0
  -28.0383  -12.3443   18.6409 C   0  0  0  0  0  0
  -27.6538  -13.2173   19.8644 C   0  0  2  0  0  0
  -28.6986  -13.0809   20.9951 C   0  0  0  0  0  0
  -25.2568  -13.8167   20.5683 C   0  0  0  0  0  0
  -24.1834  -13.0437   20.9193 C   0  0  0  0  0  0
  -24.6400  -11.6906   20.8740 C   0  0  0  0  0  0
  -23.9066  -10.4291   21.0406 C   0  0  0  0  0  0
  -24.3616   -9.4206   21.9186 C   0  0  0  0  0  0
  -23.6292   -8.2242   22.0753 C   0  0  0  0  0  0
  -22.4274   -8.0280   21.3544 C   0  0  0  0  0  0
  -21.9909   -9.0254   20.4647 C   0  0  0  0  0  0
  -22.7237  -10.2133   20.3056 C   0  0  0  0  0  0
  -21.6852   -6.0736   22.5280 C   0  0  0  0  0  0
  -21.4012   -6.5639   23.8214 C   0  0  0  0  0  0
  -21.3661   -5.6792   24.9176 C   0  0  0  0  0  0
  -21.6046   -4.3055   24.7225 C   0  0  0  0  0  0
  -21.8819   -3.8147   23.4346 C   0  0  0  0  0  0
  -21.9192   -4.6964   22.3404 C   0  0  0  0  0  0
  -22.7854  -13.5235   21.1852 C   0  0  0  0  0  0
  -22.1660   -4.2150   21.0981 F   0  0  0  0  0  0
  -21.5632   -3.4539   25.7738 F   0  0  0  0  0  0
  -30.0092  -13.4514   20.4352 N   0  0  0  0  0  0
  -26.2992  -12.9345   20.3316 N   0  0  0  0  0  0
  -25.9330  -11.6501   20.5756 N   0  0  0  0  0  0
  -22.0487  -12.8232   22.0404 N   0  0  0  0  0  0
  -25.4289  -15.1886   20.4079 N   0  0  0  0  0  0
  -31.7355  -14.8936   20.0983 O   0  0  0  0  0  0
  -21.6639   -6.8877   21.4240 O   0  0  0  0  0  0
  -22.3546  -14.5543   20.6700 O   0  0  0  0  0  0
  -24.6288  -31.8573   23.1999 C   0  0  0  0  0  0
  -25.9122  -32.4766   23.8342 C   0  0  1  0  0  0
  -27.2280  -27.2904   20.1279 C   0  0  0  0  0  0
  -25.5931  -33.8567   24.2268 N   0  0  0  0  0  0
  -23.4251  -30.4787   21.5425 C   0  0  2  0  0  0
  -24.8749  -28.9271   20.1123 C   0  0  0  0  0  0
  -22.7490  -29.4609   22.4924 C   0  0  0  0  0  0
  -18.0288  -28.1386   22.8487 C   0  0  0  0  0  0
  -24.1491  -36.7287   23.2638 C   0  0  0  0  0  0
  -25.9683  -30.7780   21.3770 C   0  0  0  0  0  0
  -26.0439  -29.4010   20.7227 C   0  0  0  0  0  0
  -27.2240  -28.5934   20.7230 C   0  0  0  0  0  0
  -26.0398  -26.8791   19.4854 C   0  0  0  0  0  0
  -24.8754  -27.6716   19.4845 C   0  0  0  0  0  0
  -23.6433  -29.8101   20.1593 C   0  0  0  0  0  0
  -25.4117  -36.3076   24.0327 C   0  0  1  0  0  0
  -20.5890  -28.3696   23.1274 C   0  0  2  0  0  0
  -20.6777  -26.9415   22.5408 C   0  0  0  0  0  0
  -19.5751  -26.6383   21.5212 C   0  0  0  0  0  0
  -18.1931  -26.7931   22.1622 C   0  0  0  0  0  0
  -19.1541  -28.8858   23.2876 C   0  0  0  0  0  0
  -18.9463  -30.1459   23.8894 C   0  0  0  0  0  0
  -17.6462  -30.6589   24.0560 C   0  0  0  0  0  0
  -25.9056  -34.9445   23.5099 C   0  0  0  0  0  0
  -16.5354  -29.9085   23.6332 C   0  0  0  0  0  0
  -16.7275  -28.6502   23.0357 C   0  0  0  0  0  0
  -26.4499  -31.6582   25.0722 C   0  0  0  0  0  0
  -25.3729  -31.3732   26.1450 C   0  0  0  0  0  0
  -27.0332  -30.2996   24.6197 C   0  0  0  0  0  0
  -27.6064  -32.4311   25.7491 C   0  0  0  0  0  0
  -27.5581  -37.1800   24.8463 C   0  0  0  0  0  0
  -21.4200  -29.3046   22.3667 N   0  0  0  0  0  0
  -26.4293  -37.3773   23.9407 N   0  0  0  0  0  0
  -24.6927  -31.0556   22.0964 N   0  0  0  0  0  0
  -23.4197  -28.8154   23.3020 O   0  0  0  0  0  0
  -28.3252  -26.4064   20.1474 O   0  0  0  0  0  0
  -26.5627  -34.8917   22.4668 O   0  0  0  0  0  0
  -23.5441  -32.1386   23.7305 O   0  0  0  0  0  0
  -28.6376  -17.9307   21.2331 C   0  0  0  0  0  0
  -28.5476  -19.3457   21.0859 C   0  0  0  0  0  0
  -30.7209  -18.0006   20.1033 C   0  0  0  0  0  0
  -29.7420  -17.1901   20.7365 C   0  0  0  0  0  0
  -29.5612  -20.0935   20.4326 C   0  0  0  0  0  0
  -28.1029  -25.0317   20.4395 C   0  0  0  0  0  0
  -28.9385  -23.9568   20.1942 C   0  0  0  0  0  0
  -28.5763  -22.5386   20.5638 C   0  0  0  0  0  0
  -30.6273  -19.3695   19.9648 N   0  0  0  0  0  0
  -29.7484  -15.7200   20.8935 N   0  0  0  0  0  0
  -29.5061  -21.5633   20.2556 N   0  0  0  0  0  0
  -27.5060  -22.2603   21.1101 O   0  0  0  0  0  0
  -30.1213  -24.1791   19.6024 O   0  0  0  0  0  0
  -31.4872  -12.5780   19.1567 H   0  0  0  0  0  0
  -30.4063  -11.4362   19.9064 H   0  0  0  0  0  0
  -29.7901  -11.7662   17.4917 H   0  0  0  0  0  0
  -29.6451  -13.4870   17.7415 H   0  0  0  0  0  0
  -27.8842  -11.2910   18.8777 H   0  0  0  0  0  0
  -27.3826  -12.5650   17.7978 H   0  0  0  0  0  0
  -27.6682  -14.2512   19.5188 H   0  0  0  0  0  0
  -28.7252  -12.0568   21.3705 H   0  0  0  0  0  0
  -28.4317  -13.7012   21.8518 H   0  0  0  0  0  0
  -25.2760   -9.5685   22.4761 H   0  0  0  0  0  0
  -24.0002   -7.4634   22.7471 H   0  0  0  0  0  0
  -21.0840   -8.8772   19.8952 H   0  0  0  0  0  0
  -22.3696  -10.9673   19.6166 H   0  0  0  0  0  0
  -21.2000   -7.6147   23.9719 H   0  0  0  0  0  0
  -21.1485   -6.0521   25.9080 H   0  0  0  0  0  0
  -22.0596   -2.7608   23.2847 H   0  0  0  0  0  0
  -22.4091  -11.9893   22.4803 H   0  0  0  0  0  0
  -21.1106  -13.1268   22.2601 H   0  0  0  0  0  0
  -24.6559  -15.8389   20.4982 H   0  0  0  0  0  0
  -26.2661  -15.6193   20.0372 H   0  0  0  0  0  0
  -26.7193  -32.5428   23.1092 H   0  0  0  0  0  0
  -25.0079  -33.9711   25.0413 H   0  0  0  0  0  0
  -22.7204  -31.2999   21.3955 H   0  0  0  0  0  0
  -23.3759  -35.9613   23.3291 H   0  0  0  0  0  0
  -24.3584  -36.8920   22.2053 H   0  0  0  0  0  0
  -23.7237  -37.6482   23.6670 H   0  0  0  0  0  0
  -26.1032  -31.5381   20.6062 H   0  0  0  0  0  0
  -26.8469  -30.8290   22.0085 H   0  0  0  0  0  0
  -28.1208  -28.9507   21.2092 H   0  0  0  0  0  0
  -26.0019  -25.9169   18.9946 H   0  0  0  0  0  0
  -23.9814  -27.3037   18.9997 H   0  0  0  0  0  0
  -23.7647  -30.5848   19.4013 H   0  0  0  0  0  0
  -22.7632  -29.2397   19.8565 H   0  0  0  0  0  0
  -25.1301  -36.1925   25.0820 H   0  0  0  0  0  0
  -20.9983  -28.3272   24.1395 H   0  0  0  0  0  0
  -20.5673  -26.2308   23.3613 H   0  0  0  0  0  0
  -21.6644  -26.7442   22.1200 H   0  0  0  0  0  0
  -19.6911  -25.6292   21.1248 H   0  0  0  0  0  0
  -19.6687  -27.3191   20.6740 H   0  0  0  0  0  0
  -17.4201  -26.6683   21.4024 H   0  0  0  0  0  0
  -18.0328  -26.0071   22.9015 H   0  0  0  0  0  0
  -19.7938  -30.7277   24.2262 H   0  0  0  0  0  0
  -17.5016  -31.6272   24.5157 H   0  0  0  0  0  0
  -15.5354  -30.2987   23.7656 H   0  0  0  0  0  0
  -15.8673  -28.0818   22.7080 H   0  0  0  0  0  0
  -24.5888  -30.7106   25.7772 H   0  0  0  0  0  0
  -24.8946  -32.2903   26.4895 H   0  0  0  0  0  0
  -25.8045  -30.8881   27.0214 H   0  0  0  0  0  0
  -26.2902  -29.6748   24.1225 H   0  0  0  0  0  0
  -27.4013  -29.7257   25.4711 H   0  0  0  0  0  0
  -27.8787  -30.4262   23.9432 H   0  0  0  0  0  0
  -27.2691  -33.3624   26.2053 H   0  0  0  0  0  0
  -28.3886  -32.6845   25.0322 H   0  0  0  0  0  0
  -28.0719  -31.8439   26.5417 H   0  0  0  0  0  0
  -28.2597  -38.0098   24.7511 H   0  0  0  0  0  0
  -28.1078  -36.2629   24.6290 H   0  0  0  0  0  0
  -27.2299  -37.1446   25.8866 H   0  0  0  0  0  0
  -20.9385  -29.8771   21.6876 H   0  0  0  0  0  0
  -26.0173  -38.2848   24.1405 H   0  0  0  0  0  0
  -27.8323  -17.4127   21.7338 H   0  0  0  0  0  0
  -27.6760  -19.8398   21.4882 H   0  0  0  0  0  0
  -31.6073  -17.5523   19.6799 H   0  0  0  0  0  0
  -27.1442  -24.8822   20.9206 H   0  0  0  0  0  0
  -28.8896  -15.3516   21.2739 H   0  0  0  0  0  0
  -30.3179  -21.9609   19.8053 H   0  0  0  0  0  0
  -30.1782  -25.1142   19.4485 H   0  0  0  0  0  0
  1 25  1  0  0  0
  1 30  2  0  0  0
  1 80  1  0  0  0
  2  3  1  0  0  0
  2 25  1  0  0  0
  2 84  1  0  0  0
  2 85  1  0  0  0
  3  4  1  0  0  0
  3 86  1  0  0  0
  3 87  1  0  0  0
  4  5  1  0  0  0
  4 88  1  0  0  0
  4 89  1  0  0  0
  5  6  1  0  0  0
  5 26  1  0  0  0
  5 90  1  0  0  0
  6 25  1  0  0  0
  6 91  1  0  0  0
  6 92  1  0  0  0
  7  8  2  0  0  0
  7 26  1  0  0  0
  7 29  1  0  0  0
  8  9  1  0  0  0
  8 22  1  0  0  0
  9 10  1  0  0  0
  9 27  2  0  0  0
 10 11  2  0  0  0
 10 15  1  0  0  0
 11 12  1  0  0  0
 11 93  1  0  0  0
 12 13  2  0  0  0
 12 94  1  0  0  0
 13 14  1  0  0  0
 13 31  1  0  0  0
 14 15  2  0  0  0
 14 95  1  0  0  0
 15 96  1  0  0  0
 16 17  2  0  0  0
 16 21  1  0  0  0
 16 31  1  0  0  0
 17 18  1  0  0  0
 17 97  1  0  0  0
 18 19  2  0  0  0
 18 98  1  0  0  0
 19 20  1  0  0  0
 19 24  1  0  0  0
 20 21  2  0  0  0
 20 99  1  0  0  0
 21 23  1  0  0  0
 22 28  1  0  0  0
 22 32  2  0  0  0
 26 27  1  0  0  0
 28100  1  0  0  0
 28101  1  0  0  0
 29102  1  0  0  0
 29103  1  0  0  0
 33 34  1  0  0  0
 33 66  1  0  0  0
 33 70  2  0  0  0
 34 36  1  0  0  0
 34 59  1  0  0  0
 34104  1  0  0  0
 35 44  2  0  0  0
 35 45  1  0  0  0
 35 68  1  0  0  0
 36 56  1  0  0  0
 36105  1  0  0  0
 37 39  1  0  0  0
 37 47  1  0  0  0
 37 66  1  0  0  0
 37106  1  0  0  0
 38 43  2  0  0  0
 38 46  1  0  0  0
 38 47  1  0  0  0
 39 64  1  0  0  0
 39 67  2  0  0  0
 40 52  1  0  0  0
 40 53  2  0  0  0
 40 58  1  0  0  0
 41107  1  0  0  0
 41108  1  0  0  0
 41109  1  0  0  0
 41 48  1  0  0  0
 42 43  1  0  0  0
 42 66  1  0  0  0
 42110  1  0  0  0
 42111  1  0  0  0
 43 44  1  0  0  0
 44112  1  0  0  0
 45 46  2  0  0  0
 45113  1  0  0  0
 46114  1  0  0  0
 47115  1  0  0  0
 47116  1  0  0  0
 48 56  1  0  0  0
 48 65  1  0  0  0
 48117  1  0  0  0
 49 50  1  0  0  0
 49 53  1  0  0  0
 49 64  1  0  0  0
 49118  1  0  0  0
 50 51  1  0  0  0
 50119  1  0  0  0
 50120  1  0  0  0
 51 52  1  0  0  0
 51121  1  0  0  0
 51122  1  0  0  0
 52123  1  0  0  0
 52124  1  0  0  0
 53 54  1  0  0  0
 54 55  2  0  0  0
 54125  1  0  0  0
 55 57  1  0  0  0
 55126  1  0  0  0
 56 69  2  0  0  0
 57 58  2  0  0  0
 57127  1  0  0  0
 58128  1  0  0  0
 59 60  1  0  0  0
 59 61  1  0  0  0
 59 62  1  0  0  0
 60129  1  0  0  0
 60130  1  0  0  0
 60131  1  0  0  0
 61132  1  0  0  0
 61133  1  0  0  0
 61134  1  0  0  0
 62135  1  0  0  0
 62136  1  0  0  0
 62137  1  0  0  0
 63 65  1  0  0  0
 63138  1  0  0  0
 63139  1  0  0  0
 63140  1  0  0  0
 64141  1  0  0  0
 65142  1  0  0  0
 68 76  1  0  0  0
 71 72  2  0  0  0
 71 74  1  0  0  0
 71143  1  0  0  0
 72 75  1  0  0  0
 72144  1  0  0  0
 73 74  2  0  0  0
 73 79  1  0  0  0
 73145  1  0  0  0
 74 80  1  0  0  0
 75 79  2  0  0  0
 75 81  1  0  0  0
 76 77  2  0  0  0
 76146  1  0  0  0
 77 78  1  0  0  0
 77 83  1  0  0  0
 78 81  1  0  0  0
 78 82  2  0  0  0
 80147  1  0  0  0
 81148  1  0  0  0
 83149  1  0  0  0
M  ISO  4   1 100  68 101  76 101  80 100
M  END
> <chiral flag>
0

> <version>
0

> <s_m_source_file>
/data/baiqing/PycharmProjects/Reinvent-master-3.2/result/LINK_invent/BTK/process_docking_weight1_custom_product_contain_oxygen_bond_distance_aromatic_linkinvent_7_9_3/rearranged_h_0169.sdf

> <i_m_source_file_index>
54

> <r_mmod_Potential_Energy-OPLS-2005>
-189.884414672852

> <r_mmod_Stretch_Energy-OPLS-2005>
93.8165969848633

> <r_mmod_Bend_Energy-OPLS-2005>
155.306228637695

> <r_mmod_Torsional_Energy-OPLS-2005>
206.105621337891

> <r_mmod_Improper_Torsional_Energy-OPLS-2005>
3.73638606071472

> <r_mmod_Van_der_Waal_Energy-OPLS-2005>
147.449676513672

> <r_mmod_Electrostatic_Energy-OPLS-2005>
-632.996154785156

> <r_mmod_Solvation_Energy-OPLS-2005>
-230.448272705078

> <b_mmod_Minimization_Converged-OPLS-2005>
0

> <r_mmod_RMS_Derivative-OPLS-2005>
0.383091658353806

$$$$
54
                    3D
 Structure written by MMmdl.
161170  0  0  1  0            999 V2000
  -30.6259  -14.7372   20.4497 C   0  0  0  0  0  0
  -30.4268  -12.4428   19.4821 C   0  0  0  0  0  0
  -29.5104  -12.5039   18.2391 C   0  0  0  0  0  0
  -28.0344  -12.3329   18.6467 C   0  0  0  0  0  0
  -27.6396  -13.2297   19.8502 C   0  0  2  0  0  0
  -28.6828  -13.1613   20.9898 C   0  0  0  0  0  0
  -25.2498  -13.8187   20.5692 C   0  0  0  0  0  0
  -24.1796  -13.0435   20.9219 C   0  0  0  0  0  0
  -24.6382  -11.6912   20.8749 C   0  0  0  0  0  0
  -23.9061  -10.4288   21.0405 C   0  0  0  0  0  0
  -24.3616   -9.4208   21.9183 C   0  0  0  0  0  0
  -23.6297   -8.2239   22.0752 C   0  0  0  0  0  0
  -22.4279   -8.0276   21.3542 C   0  0  0  0  0  0
  -21.9909   -9.0246   20.4645 C   0  0  0  0  0  0
  -22.7233  -10.2128   20.3054 C   0  0  0  0  0  0
  -21.6851   -6.0735   22.5280 C   0  0  0  0  0  0
  -21.4014   -6.5638   23.8214 C   0  0  0  0  0  0
  -21.3658   -5.6792   24.9175 C   0  0  0  0  0  0
  -21.6045   -4.3054   24.7227 C   0  0  0  0  0  0
  -21.8819   -3.8147   23.4345 C   0  0  0  0  0  0
  -21.9194   -4.6963   22.3403 C   0  0  0  0  0  0
  -22.7820  -13.5221   21.1874 C   0  0  0  0  0  0
  -22.1663   -4.2148   21.0982 F   0  0  0  0  0  0
  -21.5630   -3.4538   25.7738 F   0  0  0  0  0  0
  -29.9899  -13.5105   20.4159 N   0  0  0  0  0  0
  -26.2913  -12.9389   20.3258 N   0  0  0  0  0  0
  -25.9310  -11.6536   20.5741 N   0  0  0  0  0  0
  -22.0458  -12.8214   22.0424 N   0  0  0  0  0  0
  -25.4184  -15.1914   20.4103 N   0  0  0  0  0  0
  -31.8136  -14.7964   20.0956 O   0  0  0  0  0  0
  -21.6642   -6.8874   21.4241 O   0  0  0  0  0  0
  -22.3514  -14.5530   20.6722 O   0  0  0  0  0  0
  -24.6307  -31.8555   23.1981 C   0  0  0  0  0  0
  -25.9142  -32.4747   23.8327 C   0  0  1  0  0  0
  -27.2231  -27.2692   20.1178 C   0  0  0  0  0  0
  -25.5954  -33.8551   24.2260 N   0  0  0  0  0  0
  -23.4260  -30.4777   21.5414 C   0  0  2  0  0  0
  -24.8713  -28.9236   20.1074 C   0  0  0  0  0  0
  -22.7494  -29.4609   22.4919 C   0  0  0  0  0  0
  -18.0289  -28.1386   22.8489 C   0  0  0  0  0  0
  -24.1493  -36.7272   23.2642 C   0  0  0  0  0  0
  -25.9705  -30.7689   21.3762 C   0  0  0  0  0  0
  -26.0408  -29.3922   20.7173 C   0  0  0  0  0  0
  -27.2142  -28.5748   20.7154 C   0  0  0  0  0  0
  -26.0249  -26.8593   19.4903 C   0  0  0  0  0  0
  -24.8680  -27.6649   19.4860 C   0  0  0  0  0  0
  -23.6424  -29.8108   20.1571 C   0  0  0  0  0  0
  -25.4120  -36.3061   24.0330 C   0  0  1  0  0  0
  -20.5892  -28.3699   23.1272 C   0  0  2  0  0  0
  -20.6779  -26.9420   22.5408 C   0  0  0  0  0  0
  -19.5756  -26.6385   21.5213 C   0  0  0  0  0  0
  -18.1935  -26.7932   22.1624 C   0  0  0  0  0  0
  -19.1542  -28.8860   23.2875 C   0  0  0  0  0  0
  -18.9463  -30.1463   23.8888 C   0  0  0  0  0  0
  -17.6463  -30.6590   24.0563 C   0  0  0  0  0  0
  -25.9067  -34.9434   23.5093 C   0  0  0  0  0  0
  -16.5353  -29.9087   23.6335 C   0  0  0  0  0  0
  -16.7277  -28.6503   23.0357 C   0  0  0  0  0  0
  -26.4511  -31.6570   25.0715 C   0  0  0  0  0  0
  -25.3738  -31.3716   26.1438 C   0  0  0  0  0  0
  -27.0361  -30.2989   24.6201 C   0  0  0  0  0  0
  -27.6073  -32.4303   25.7481 C   0  0  0  0  0  0
  -27.5577  -37.1792   24.8468 C   0  0  0  0  0  0
  -21.4204  -29.3042   22.3658 N   0  0  0  0  0  0
  -26.4288  -37.3764   23.9414 N   0  0  0  0  0  0
  -24.6946  -31.0527   22.0949 N   0  0  0  0  0  0
  -23.4197  -28.8163   23.3026 O   0  0  0  0  0  0
  -28.3443  -26.4138   20.2023 O   0  0  0  0  0  0
  -26.5634  -34.8909   22.4659 O   0  0  0  0  0  0
  -23.5463  -32.1378   23.7288 O   0  0  0  0  0  0
  -30.7176  -19.8958   19.1970 C   0  0  0  0  0  0
  -29.3785  -18.4855   20.6372 C   0  0  0  0  0  0
  -29.6585  -19.8229   20.1271 C   0  0  0  0  0  0
  -31.4444  -18.7440   18.8310 C   0  0  0  0  0  0
  -30.1412  -17.2989   20.2519 C   0  0  0  0  0  0
  -28.5084  -23.7406   20.4120 C   0  0  0  0  0  0
  -33.3239  -19.0357   15.8467 C   0  0  0  0  0  0
  -32.4882  -17.9580   16.5436 C   0  0  0  0  0  0
  -32.8437  -20.0014   16.9345 C   0  0  0  0  0  0
  -32.5917  -18.7805   17.8367 C   0  0  0  0  0  0
  -29.1213  -22.3916   19.7990 C   0  0  0  0  0  0
  -28.4371  -25.0751   19.5267 C   0  0  0  0  0  0
  -31.1464  -17.5431   19.3709 N   0  3  0  0  0  0
  -28.9603  -21.0453   20.4962 N   0  0  0  0  0  0
  -29.8856  -15.8937   20.6892 N   0  0  0  0  0  0
  -28.0810  -23.7337   21.5710 O   0  0  0  0  0  0
  -31.4712  -12.5471   19.1825 H   0  0  0  0  0  0
  -30.3574  -11.4650   19.9621 H   0  0  0  0  0  0
  -29.7916  -11.7292   17.5241 H   0  0  0  0  0  0
  -29.6439  -13.4568   17.7245 H   0  0  0  0  0  0
  -27.8846  -11.2835   18.9031 H   0  0  0  0  0  0
  -27.3807  -12.5320   17.7963 H   0  0  0  0  0  0
  -27.6315  -14.2506   19.4689 H   0  0  0  0  0  0
  -28.7134  -12.1602   21.4233 H   0  0  0  0  0  0
  -28.4115  -13.8325   21.8062 H   0  0  0  0  0  0
  -25.2758   -9.5690   22.4759 H   0  0  0  0  0  0
  -24.0006   -7.4628   22.7468 H   0  0  0  0  0  0
  -21.0840   -8.8762   19.8949 H   0  0  0  0  0  0
  -22.3685  -10.9668   19.6167 H   0  0  0  0  0  0
  -21.2002   -7.6147   23.9715 H   0  0  0  0  0  0
  -21.1482   -6.0523   25.9078 H   0  0  0  0  0  0
  -22.0599   -2.7608   23.2845 H   0  0  0  0  0  0
  -22.4072  -11.9874   22.4812 H   0  0  0  0  0  0
  -21.1072  -13.1233   22.2618 H   0  0  0  0  0  0
  -24.6384  -15.8326   20.5067 H   0  0  0  0  0  0
  -26.2348  -15.6268   20.0032 H   0  0  0  0  0  0
  -26.7212  -32.5391   23.1070 H   0  0  0  0  0  0
  -25.0117  -33.9693   25.0415 H   0  0  0  0  0  0
  -22.7224  -31.2998   21.3964 H   0  0  0  0  0  0
  -23.3757  -35.9601   23.3294 H   0  0  0  0  0  0
  -24.3586  -36.8903   22.2058 H   0  0  0  0  0  0
  -23.7238  -37.6468   23.6668 H   0  0  0  0  0  0
  -26.1107  -31.5305   20.6079 H   0  0  0  0  0  0
  -26.8476  -30.8149   22.0098 H   0  0  0  0  0  0
  -28.1081  -28.9290   21.2092 H   0  0  0  0  0  0
  -25.9339  -25.8912   19.0253 H   0  0  0  0  0  0
  -23.9691  -27.2967   19.0104 H   0  0  0  0  0  0
  -23.7664  -30.5873   19.4016 H   0  0  0  0  0  0
  -22.7601  -29.2450   19.8527 H   0  0  0  0  0  0
  -25.1301  -36.1902   25.0821 H   0  0  0  0  0  0
  -20.9985  -28.3275   24.1392 H   0  0  0  0  0  0
  -20.5682  -26.2314   23.3614 H   0  0  0  0  0  0
  -21.6645  -26.7451   22.1196 H   0  0  0  0  0  0
  -19.6920  -25.6294   21.1247 H   0  0  0  0  0  0
  -19.6689  -27.3193   20.6740 H   0  0  0  0  0  0
  -17.4207  -26.6683   21.4023 H   0  0  0  0  0  0
  -18.0334  -26.0073   22.9017 H   0  0  0  0  0  0
  -19.7942  -30.7286   24.2245 H   0  0  0  0  0  0
  -17.5017  -31.6268   24.5168 H   0  0  0  0  0  0
  -15.5354  -30.2987   23.7662 H   0  0  0  0  0  0
  -15.8676  -28.0819   22.7071 H   0  0  0  0  0  0
  -24.5922  -30.7057   25.7762 H   0  0  0  0  0  0
  -24.8921  -32.2881   26.4857 H   0  0  0  0  0  0
  -25.8063  -30.8898   27.0217 H   0  0  0  0  0  0
  -26.2944  -29.6721   24.1238 H   0  0  0  0  0  0
  -27.4059  -29.7267   25.4720 H   0  0  0  0  0  0
  -27.8816  -30.4261   23.9436 H   0  0  0  0  0  0
  -27.2699  -33.3622   26.2029 H   0  0  0  0  0  0
  -28.3898  -32.6826   25.0310 H   0  0  0  0  0  0
  -28.0725  -31.8440   26.5416 H   0  0  0  0  0  0
  -28.2589  -38.0094   24.7521 H   0  0  0  0  0  0
  -28.1079  -36.2626   24.6286 H   0  0  0  0  0  0
  -27.2301  -37.1429   25.8873 H   0  0  0  0  0  0
  -20.9393  -29.8752   21.6850 H   0  0  0  0  0  0
  -26.0160  -38.2837   24.1409 H   0  0  0  0  0  0
  -30.9979  -20.8387   18.7566 H   0  0  0  0  0  0
  -28.5659  -18.3668   21.3384 H   0  0  0  0  0  0
  -32.9996  -19.2863   14.8360 H   0  0  0  0  0  0
  -34.3967  -18.8390   15.8923 H   0  0  0  0  0  0
  -32.9431  -16.9683   16.5940 H   0  0  0  0  0  0
  -31.4686  -17.9104   16.1557 H   0  0  0  0  0  0
  -31.9284  -20.5161   16.6349 H   0  0  0  0  0  0
  -33.5930  -20.6993   17.3093 H   0  0  0  0  0  0
  -33.5137  -18.5274   18.3652 H   0  0  0  0  0  0
  -30.1871  -22.5909   19.6930 H   0  0  0  0  0  0
  -28.7334  -22.2951   18.7839 H   0  0  0  0  0  0
  -27.6680  -24.9406   18.7711 H   0  0  0  0  0  0
  -29.3663  -25.0984   18.9574 H   0  0  0  0  0  0
  -31.7255  -16.7440   19.0819 H   0  0  0  0  0  0
  -28.1749  -20.9747   21.1369 H   0  0  0  0  0  0
  -28.9860  -15.7307   21.1050 H   0  0  0  0  0  0
  1 25  1  0  0  0
  1 30  2  0  0  0
  1 85  1  0  0  0
  2  3  1  0  0  0
  2 25  1  0  0  0
  2 87  1  0  0  0
  2 88  1  0  0  0
  3  4  1  0  0  0
  3 89  1  0  0  0
  3 90  1  0  0  0
  4  5  1  0  0  0
  4 91  1  0  0  0
  4 92  1  0  0  0
  5  6  1  0  0  0
  5 26  1  0  0  0
  5 93  1  0  0  0
  6 25  1  0  0  0
  6 94  1  0  0  0
  6 95  1  0  0  0
  7  8  2  0  0  0
  7 26  1  0  0  0
  7 29  1  0  0  0
  8  9  1  0  0  0
  8 22  1  0  0  0
  9 10  1  0  0  0
  9 27  2  0  0  0
 10 11  2  0  0  0
 10 15  1  0  0  0
 11 12  1  0  0  0
 11 96  1  0  0  0
 12 13  2  0  0  0
 12 97  1  0  0  0
 13 14  1  0  0  0
 13 31  1  0  0  0
 14 15  2  0  0  0
 14 98  1  0  0  0
 15 99  1  0  0  0
 16 17  2  0  0  0
 16 21  1  0  0  0
 16 31  1  0  0  0
 17 18  1  0  0  0
 17100  1  0  0  0
 18 19  2  0  0  0
 18101  1  0  0  0
 19 20  1  0  0  0
 19 24  1  0  0  0
 20 21  2  0  0  0
 20102  1  0  0  0
 21 23  1  0  0  0
 22 28  1  0  0  0
 22 32  2  0  0  0
 26 27  1  0  0  0
 28103  1  0  0  0
 28104  1  0  0  0
 29105  1  0  0  0
 29106  1  0  0  0
 33 34  1  0  0  0
 33 66  1  0  0  0
 33 70  2  0  0  0
 34 36  1  0  0  0
 34 59  1  0  0  0
 34107  1  0  0  0
 35 44  2  0  0  0
 35 45  1  0  0  0
 35 68  1  0  0  0
 36 56  1  0  0  0
 36108  1  0  0  0
 37 39  1  0  0  0
 37 47  1  0  0  0
 37 66  1  0  0  0
 37109  1  0  0  0
 38 43  2  0  0  0
 38 46  1  0  0  0
 38 47  1  0  0  0
 39 64  1  0  0  0
 39 67  2  0  0  0
 40 52  1  0  0  0
 40 53  2  0  0  0
 40 58  1  0  0  0
 41110  1  0  0  0
 41111  1  0  0  0
 41112  1  0  0  0
 41 48  1  0  0  0
 42 43  1  0  0  0
 42 66  1  0  0  0
 42113  1  0  0  0
 42114  1  0  0  0
 43 44  1  0  0  0
 44115  1  0  0  0
 45 46  2  0  0  0
 45116  1  0  0  0
 46117  1  0  0  0
 47118  1  0  0  0
 47119  1  0  0  0
 48 56  1  0  0  0
 48 65  1  0  0  0
 48120  1  0  0  0
 49 50  1  0  0  0
 49 53  1  0  0  0
 49 64  1  0  0  0
 49121  1  0  0  0
 50 51  1  0  0  0
 50122  1  0  0  0
 50123  1  0  0  0
 51 52  1  0  0  0
 51124  1  0  0  0
 51125  1  0  0  0
 52126  1  0  0  0
 52127  1  0  0  0
 53 54  1  0  0  0
 54 55  2  0  0  0
 54128  1  0  0  0
 55 57  1  0  0  0
 55129  1  0  0  0
 56 69  2  0  0  0
 57 58  2  0  0  0
 57130  1  0  0  0
 58131  1  0  0  0
 59 60  1  0  0  0
 59 61  1  0  0  0
 59 62  1  0  0  0
 60132  1  0  0  0
 60133  1  0  0  0
 60134  1  0  0  0
 61135  1  0  0  0
 61136  1  0  0  0
 61137  1  0  0  0
 62138  1  0  0  0
 62139  1  0  0  0
 62140  1  0  0  0
 63 65  1  0  0  0
 63141  1  0  0  0
 63142  1  0  0  0
 63143  1  0  0  0
 64144  1  0  0  0
 65145  1  0  0  0
 68 82  1  0  0  0
 71 73  2  0  0  0
 71 74  1  0  0  0
 71146  1  0  0  0
 72 73  1  0  0  0
 72 75  2  0  0  0
 72147  1  0  0  0
 73 84  1  0  0  0
 74 83  2  0  0  0
 74 80  1  0  0  0
 75 83  1  0  0  0
 75 85  1  0  0  0
 76 81  1  0  0  0
 76 82  1  0  0  0
 76 86  2  0  0  0
 77 78  1  0  0  0
 77 79  1  0  0  0
 77148  1  0  0  0
 77149  1  0  0  0
 78 80  1  0  0  0
 78150  1  0  0  0
 78151  1  0  0  0
 79 80  1  0  0  0
 79152  1  0  0  0
 79153  1  0  0  0
 80154  1  0  0  0
 81 84  1  0  0  0
 81155  1  0  0  0
 81156  1  0  0  0
 82157  1  0  0  0
 82158  1  0  0  0
 83159  1  0  0  0
 84160  1  0  0  0
 85161  1  0  0  0
M  CHG  1  83   1
M  ISO  4   1 100  68 101  82 101  85 100
M  END
> <chiral flag>
0

> <version>
0

> <s_m_source_file>
/data/baiqing/PycharmProjects/Reinvent-master-3.2/result/LINK_invent/BTK/process_docking_weight1_custom_product_contain_oxygen_bond_distance_aromatic_linkinvent_7_9_3/rearranged_h_0169.sdf

> <i_m_source_file_index>
55

> <r_mmod_Potential_Energy-OPLS-2005>
146.943649291992

> <r_mmod_Stretch_Energy-OPLS-2005>
125.119781494141

> <r_mmod_Bend_Energy-OPLS-2005>
190.717102050781

> <r_mmod_Torsional_Energy-OPLS-2005>
212.108703613281

> <r_mmod_Improper_Torsional_Energy-OPLS-2005>
5.36099100112915

> <r_mmod_Van_der_Waal_Energy-OPLS-2005>
141.70832824707

> <r_mmod_Electrostatic_Energy-OPLS-2005>
-147.348434448242

> <r_mmod_Solvation_Energy-OPLS-2005>
-458.876708984375

> <b_mmod_Minimization_Converged-OPLS-2005>
0

> <r_mmod_RMS_Derivative-OPLS-2005>
0.761079728603363

$$$$
55
                    3D
 Structure written by MMmdl.
153161  0  0  1  0            999 V2000
  -30.6800  -14.4899   20.5845 C   0  0  0  0  0  0
  -30.4266  -12.3171   19.4312 C   0  0  0  0  0  0
  -29.4955  -12.5011   18.2147 C   0  0  0  0  0  0
  -28.0182  -12.3505   18.6286 C   0  0  0  0  0  0
  -27.6608  -13.2028   19.8746 C   0  0  2  0  0  0
  -28.6994  -12.9875   20.9985 C   0  0  0  0  0  0
  -25.2585  -13.8167   20.5674 C   0  0  0  0  0  0
  -24.1820  -13.0429   20.9161 C   0  0  0  0  0  0
  -24.6385  -11.6900   20.8718 C   0  0  0  0  0  0
  -23.9043  -10.4289   21.0389 C   0  0  0  0  0  0
  -24.3598   -9.4213   21.9176 C   0  0  0  0  0  0
  -23.6283   -8.2242   22.0753 C   0  0  0  0  0  0
  -22.4263   -8.0277   21.3547 C   0  0  0  0  0  0
  -21.9891   -9.0238   20.4638 C   0  0  0  0  0  0
  -22.7210  -10.2124   20.3046 C   0  0  0  0  0  0
  -21.6846   -6.0724   22.5275 C   0  0  0  0  0  0
  -21.4012   -6.5635   23.8207 C   0  0  0  0  0  0
  -21.3656   -5.6793   24.9169 C   0  0  0  0  0  0
  -21.6041   -4.3054   24.7230 C   0  0  0  0  0  0
  -21.8820   -3.8140   23.4354 C   0  0  0  0  0  0
  -21.9194   -4.6952   22.3407 C   0  0  0  0  0  0
  -22.7859  -13.5238   21.1835 C   0  0  0  0  0  0
  -22.1660   -4.2142   21.0983 F   0  0  0  0  0  0
  -21.5626   -3.4542   25.7745 F   0  0  0  0  0  0
  -30.0277  -13.3029   20.4497 N   0  0  0  0  0  0
  -26.3015  -12.9318   20.3356 N   0  0  0  0  0  0
  -25.9308  -11.6486   20.5757 N   0  0  0  0  0  0
  -22.0502  -12.8221   22.0404 N   0  0  0  0  0  0
  -25.4365  -15.1883   20.4154 N   0  0  0  0  0  0
  -31.8065  -14.6781   20.1150 O   0  0  0  0  0  0
  -21.6633   -6.8862   21.4237 O   0  0  0  0  0  0
  -22.3539  -14.5536   20.6686 O   0  0  0  0  0  0
  -24.6159  -31.8660   23.2094 C   0  0  0  0  0  0
  -25.9059  -32.4818   23.8379 C   0  0  1  0  0  0
  -27.2312  -27.4132   20.1159 C   0  0  0  0  0  0
  -25.5920  -33.8620   24.2310 N   0  0  0  0  0  0
  -23.4024  -30.4864   21.5496 C   0  0  2  0  0  0
  -24.8527  -28.9500   20.1163 C   0  0  0  0  0  0
  -22.7416  -29.4628   22.4998 C   0  0  0  0  0  0
  -18.0265  -28.1369   22.8506 C   0  0  0  0  0  0
  -24.1488  -36.7299   23.2637 C   0  0  0  0  0  0
  -25.9325  -30.8283   21.3631 C   0  0  0  0  0  0
  -26.0145  -29.4607   20.7111 C   0  0  0  0  0  0
  -27.2110  -28.7027   20.7002 C   0  0  0  0  0  0
  -26.0520  -26.9172   19.5208 C   0  0  0  0  0  0
  -24.8670  -27.6784   19.5169 C   0  0  0  0  0  0
  -23.6134  -29.8164   20.1651 C   0  0  0  0  0  0
  -25.4116  -36.3100   24.0326 C   0  0  1  0  0  0
  -20.5854  -28.3665   23.1330 C   0  0  2  0  0  0
  -20.6753  -26.9397   22.5428 C   0  0  0  0  0  0
  -19.5742  -26.6376   21.5214 C   0  0  0  0  0  0
  -18.1901  -26.7920   22.1613 C   0  0  0  0  0  0
  -19.1518  -28.8834   23.2893 C   0  0  0  0  0  0
  -18.9457  -30.1438   23.8899 C   0  0  0  0  0  0
  -17.6469  -30.6595   24.0552 C   0  0  0  0  0  0
  -25.9050  -34.9476   23.5115 C   0  0  0  0  0  0
  -16.5353  -29.9092   23.6334 C   0  0  0  0  0  0
  -16.7254  -28.6497   23.0367 C   0  0  0  0  0  0
  -26.4484  -31.6614   25.0721 C   0  0  0  0  0  0
  -25.3762  -31.3744   26.1483 C   0  0  0  0  0  0
  -27.0315  -30.3051   24.6113 C   0  0  0  0  0  0
  -27.6039  -32.4345   25.7487 C   0  0  0  0  0  0
  -27.5574  -37.1807   24.8471 C   0  0  0  0  0  0
  -21.4147  -29.3016   22.3742 N   0  0  0  0  0  0
  -26.4303  -37.3783   23.9391 N   0  0  0  0  0  0
  -24.6669  -31.0768   22.0974 N   0  0  0  0  0  0
  -23.4199  -28.8179   23.3031 O   0  0  0  0  0  0
  -28.3752  -26.6405   20.1244 O   0  0  0  0  0  0
  -26.5604  -34.8926   22.4668 O   0  0  0  0  0  0
  -23.5349  -32.1414   23.7514 O   0  0  0  0  0  0
  -31.5641  -17.3531   21.5083 C   0  0  0  0  0  0
  -30.8738  -19.6709   21.1294 C   0  0  0  0  0  0
  -30.2809  -16.8920   21.1373 C   0  0  0  0  0  0
  -29.5801  -19.2442   20.7575 C   0  0  0  0  0  0
  -31.8527  -18.7312   21.5069 C   0  0  0  0  0  0
  -29.2881  -17.8486   20.7893 C   0  0  0  0  0  0
  -28.6759  -22.7401   20.6208 C   0  0  0  0  0  0
  -28.6089  -24.1487   19.9275 C   0  0  0  0  0  0
  -28.9144  -21.4784   19.7477 C   0  0  0  0  0  0
  -28.2411  -25.3666   20.8059 C   0  0  0  0  0  0
  -29.9610  -15.4914   21.1410 N   0  0  0  0  0  0
  -28.5840  -20.1692   20.3678 N   0  0  0  0  0  0
  -28.5711  -22.6349   21.8503 O   0  0  0  0  0  0
  -28.8390  -24.2770   18.7166 O   0  0  0  0  0  0
  -33.0866  -19.1576   21.8690 F   0  0  0  0  0  0
  -28.0440  -17.4211   20.4545 F   0  0  0  0  0  0
  -31.4714  -12.4217   19.1296 H   0  0  0  0  0  0
  -30.3380  -11.3048   19.8303 H   0  0  0  0  0  0
  -29.7383  -11.7755   17.4361 H   0  0  0  0  0  0
  -29.6552  -13.4873   17.7741 H   0  0  0  0  0  0
  -27.8430  -11.2964   18.8456 H   0  0  0  0  0  0
  -27.3624  -12.6015   17.7948 H   0  0  0  0  0  0
  -27.7040  -14.2479   19.5680 H   0  0  0  0  0  0
  -28.6789  -11.9481   21.3323 H   0  0  0  0  0  0
  -28.4584  -13.5785   21.8837 H   0  0  0  0  0  0
  -25.2732   -9.5691   22.4754 H   0  0  0  0  0  0
  -23.9983   -7.4638   22.7481 H   0  0  0  0  0  0
  -21.0818   -8.8749   19.8952 H   0  0  0  0  0  0
  -22.3653  -10.9659   19.6164 H   0  0  0  0  0  0
  -21.2007   -7.6139   23.9706 H   0  0  0  0  0  0
  -21.1473   -6.0523   25.9071 H   0  0  0  0  0  0
  -22.0606   -2.7604   23.2859 H   0  0  0  0  0  0
  -22.4108  -11.9870   22.4759 H   0  0  0  0  0  0
  -21.1141  -13.1262   22.2640 H   0  0  0  0  0  0
  -24.6805  -15.8505   20.5464 H   0  0  0  0  0  0
  -26.3079  -15.6325   20.1504 H   0  0  0  0  0  0
  -26.7139  -32.5528   23.1144 H   0  0  0  0  0  0
  -25.0098  -33.9764   25.0471 H   0  0  0  0  0  0
  -22.6912  -31.3013   21.4079 H   0  0  0  0  0  0
  -23.3745  -35.9641   23.3352 H   0  0  0  0  0  0
  -24.3571  -36.8882   22.2043 H   0  0  0  0  0  0
  -23.7275  -37.6522   23.6645 H   0  0  0  0  0  0
  -26.0499  -31.5942   20.5963 H   0  0  0  0  0  0
  -26.8156  -30.8811   21.9885 H   0  0  0  0  0  0
  -28.1072  -29.0884   21.1657 H   0  0  0  0  0  0
  -26.0469  -25.9374   19.0655 H   0  0  0  0  0  0
  -23.9737  -27.2757   19.0605 H   0  0  0  0  0  0
  -23.7157  -30.5892   19.4019 H   0  0  0  0  0  0
  -22.7414  -29.2305   19.8724 H   0  0  0  0  0  0
  -25.1296  -36.1966   25.0824 H   0  0  0  0  0  0
  -20.9892  -28.3230   24.1476 H   0  0  0  0  0  0
  -20.5662  -26.2250   23.3602 H   0  0  0  0  0  0
  -21.6609  -26.7439   22.1209 H   0  0  0  0  0  0
  -19.6890  -25.6284   21.1252 H   0  0  0  0  0  0
  -19.6709  -27.3174   20.6738 H   0  0  0  0  0  0
  -17.4161  -26.6686   21.4012 H   0  0  0  0  0  0
  -18.0303  -26.0036   22.8989 H   0  0  0  0  0  0
  -19.7938  -30.7235   24.2283 H   0  0  0  0  0  0
  -17.5027  -31.6281   24.5149 H   0  0  0  0  0  0
  -15.5351  -30.2993   23.7675 H   0  0  0  0  0  0
  -15.8640  -28.0826   22.7106 H   0  0  0  0  0  0
  -24.5903  -30.7127   25.7825 H   0  0  0  0  0  0
  -24.8998  -32.2914   26.4952 H   0  0  0  0  0  0
  -25.8096  -30.8891   27.0233 H   0  0  0  0  0  0
  -26.2843  -29.6815   24.1187 H   0  0  0  0  0  0
  -27.4099  -29.7318   25.4586 H   0  0  0  0  0  0
  -27.8684  -30.4351   23.9249 H   0  0  0  0  0  0
  -27.2632  -33.3635   26.2061 H   0  0  0  0  0  0
  -28.3837  -32.6928   25.0314 H   0  0  0  0  0  0
  -28.0704  -31.8490   26.5414 H   0  0  0  0  0  0
  -28.2617  -38.0076   24.7482 H   0  0  0  0  0  0
  -28.1043  -36.2615   24.6337 H   0  0  0  0  0  0
  -27.2289  -37.1511   25.8877 H   0  0  0  0  0  0
  -20.9329  -29.8754   21.6974 H   0  0  0  0  0  0
  -26.0205  -38.2867   24.1382 H   0  0  0  0  0  0
  -32.3366  -16.6588   21.8033 H   0  0  0  0  0  0
  -31.1355  -20.7191   21.1434 H   0  0  0  0  0  0
  -29.9462  -21.4905   19.3948 H   0  0  0  0  0  0
  -28.3013  -21.5888   18.8519 H   0  0  0  0  0  0
  -28.8983  -25.3729   21.6754 H   0  0  0  0  0  0
  -27.2311  -25.2204   21.1898 H   0  0  0  0  0  0
  -29.0145  -15.2569   21.4036 H   0  0  0  0  0  0
  -27.6943  -19.7581   20.0990 H   0  0  0  0  0  0
  1 25  1  0  0  0
  1 30  2  0  0  0
  1 81  1  0  0  0
  2  3  1  0  0  0
  2 25  1  0  0  0
  2 87  1  0  0  0
  2 88  1  0  0  0
  3  4  1  0  0  0
  3 89  1  0  0  0
  3 90  1  0  0  0
  4  5  1  0  0  0
  4 91  1  0  0  0
  4 92  1  0  0  0
  5  6  1  0  0  0
  5 26  1  0  0  0
  5 93  1  0  0  0
  6 25  1  0  0  0
  6 94  1  0  0  0
  6 95  1  0  0  0
  7  8  2  0  0  0
  7 26  1  0  0  0
  7 29  1  0  0  0
  8  9  1  0  0  0
  8 22  1  0  0  0
  9 10  1  0  0  0
  9 27  2  0  0  0
 10 11  2  0  0  0
 10 15  1  0  0  0
 11 12  1  0  0  0
 11 96  1  0  0  0
 12 13  2  0  0  0
 12 97  1  0  0  0
 13 14  1  0  0  0
 13 31  1  0  0  0
 14 15  2  0  0  0
 14 98  1  0  0  0
 15 99  1  0  0  0
 16 17  2  0  0  0
 16 21  1  0  0  0
 16 31  1  0  0  0
 17 18  1  0  0  0
 17100  1  0  0  0
 18 19  2  0  0  0
 18101  1  0  0  0
 19 20  1  0  0  0
 19 24  1  0  0  0
 20 21  2  0  0  0
 20102  1  0  0  0
 21 23  1  0  0  0
 22 28  1  0  0  0
 22 32  2  0  0  0
 26 27  1  0  0  0
 28103  1  0  0  0
 28104  1  0  0  0
 29105  1  0  0  0
 29106  1  0  0  0
 33 34  1  0  0  0
 33 66  1  0  0  0
 33 70  2  0  0  0
 34 36  1  0  0  0
 34 59  1  0  0  0
 34107  1  0  0  0
 35 44  2  0  0  0
 35 45  1  0  0  0
 35 68  1  0  0  0
 36 56  1  0  0  0
 36108  1  0  0  0
 37 39  1  0  0  0
 37 47  1  0  0  0
 37 66  1  0  0  0
 37109  1  0  0  0
 38 43  2  0  0  0
 38 46  1  0  0  0
 38 47  1  0  0  0
 39 64  1  0  0  0
 39 67  2  0  0  0
 40 52  1  0  0  0
 40 53  2  0  0  0
 40 58  1  0  0  0
 41110  1  0  0  0
 41111  1  0  0  0
 41112  1  0  0  0
 41 48  1  0  0  0
 42 43  1  0  0  0
 42 66  1  0  0  0
 42113  1  0  0  0
 42114  1  0  0  0
 43 44  1  0  0  0
 44115  1  0  0  0
 45 46  2  0  0  0
 45116  1  0  0  0
 46117  1  0  0  0
 47118  1  0  0  0
 47119  1  0  0  0
 48 56  1  0  0  0
 48 65  1  0  0  0
 48120  1  0  0  0
 49 50  1  0  0  0
 49 53  1  0  0  0
 49 64  1  0  0  0
 49121  1  0  0  0
 50 51  1  0  0  0
 50122  1  0  0  0
 50123  1  0  0  0
 51 52  1  0  0  0
 51124  1  0  0  0
 51125  1  0  0  0
 52126  1  0  0  0
 52127  1  0  0  0
 53 54  1  0  0  0
 54 55  2  0  0  0
 54128  1  0  0  0
 55 57  1  0  0  0
 55129  1  0  0  0
 56 69  2  0  0  0
 57 58  2  0  0  0
 57130  1  0  0  0
 58131  1  0  0  0
 59 60  1  0  0  0
 59 61  1  0  0  0
 59 62  1  0  0  0
 60132  1  0  0  0
 60133  1  0  0  0
 60134  1  0  0  0
 61135  1  0  0  0
 61136  1  0  0  0
 61137  1  0  0  0
 62138  1  0  0  0
 62139  1  0  0  0
 62140  1  0  0  0
 63 65  1  0  0  0
 63141  1  0  0  0
 63142  1  0  0  0
 63143  1  0  0  0
 64144  1  0  0  0
 65145  1  0  0  0
 68 80  1  0  0  0
 71 73  2  0  0  0
 71 75  1  0  0  0
 71146  1  0  0  0
 72 74  1  0  0  0
 72 75  2  0  0  0
 72147  1  0  0  0
 73 76  1  0  0  0
 73 81  1  0  0  0
 74 76  2  0  0  0
 74 82  1  0  0  0
 75 85  1  0  0  0
 76 86  1  0  0  0
 77 78  1  0  0  0
 77 79  1  0  0  0
 77 83  2  0  0  0
 78 80  1  0  0  0
 78 84  2  0  0  0
 79 82  1  0  0  0
 79148  1  0  0  0
 79149  1  0  0  0
 80150  1  0  0  0
 80151  1  0  0  0
 81152  1  0  0  0
 82153  1  0  0  0
M  ISO  4   1 100  68 101  80 101  81 100
M  END
> <chiral flag>
0

> <version>
0

> <s_m_source_file>
/data/baiqing/PycharmProjects/Reinvent-master-3.2/result/LINK_invent/BTK/process_docking_weight1_custom_product_contain_oxygen_bond_distance_aromatic_linkinvent_7_9_3/rearranged_h_0169.sdf

> <i_m_source_file_index>
56

> <r_mmod_Potential_Energy-OPLS-2005>
94.5646209716797

> <r_mmod_Stretch_Energy-OPLS-2005>
46.0425148010254

> <r_mmod_Bend_Energy-OPLS-2005>
101.664581298828

> <r_mmod_Torsional_Energy-OPLS-2005>
230.973007202148

> <r_mmod_Improper_Torsional_Energy-OPLS-2005>
5.55808401107788

> <r_mmod_Van_der_Waal_Energy-OPLS-2005>
147.568862915039

> <r_mmod_Electrostatic_Energy-OPLS-2005>
-221.047348022461

> <r_mmod_Solvation_Energy-OPLS-2005>
-231.852767944336

> <b_mmod_Minimization_Converged-OPLS-2005>
0

> <r_mmod_RMS_Derivative-OPLS-2005>
3.6215968132019

$$$$
56
                    3D
 Structure written by MMmdl.
169177  0  0  1  0            999 V2000
  -30.6082  -14.5945   20.5989 C   0  0  0  0  0  0
  -30.4462  -12.3859   19.4494 C   0  0  0  0  0  0
  -29.5189  -12.5581   18.2255 C   0  0  0  0  0  0
  -28.0394  -12.3808   18.6233 C   0  0  0  0  0  0
  -27.6628  -13.2085   19.8821 C   0  0  2  0  0  0
  -28.6996  -12.9904   21.0073 C   0  0  0  0  0  0
  -25.2610  -13.8139   20.5697 C   0  0  0  0  0  0
  -24.1845  -13.0431   20.9149 C   0  0  0  0  0  0
  -24.6375  -11.6892   20.8665 C   0  0  0  0  0  0
  -23.9054  -10.4297   21.0352 C   0  0  0  0  0  0
  -24.3588   -9.4235   21.9154 C   0  0  0  0  0  0
  -23.6259   -8.2304   22.0756 C   0  0  0  0  0  0
  -22.4254   -8.0302   21.3554 C   0  0  0  0  0  0
  -21.9871   -9.0268   20.4661 C   0  0  0  0  0  0
  -22.7205  -10.2141   20.3028 C   0  0  0  0  0  0
  -21.6872   -6.0718   22.5263 C   0  0  0  0  0  0
  -21.4028   -6.5622   23.8192 C   0  0  0  0  0  0
  -21.3656   -5.6776   24.9147 C   0  0  0  0  0  0
  -21.6049   -4.3037   24.7210 C   0  0  0  0  0  0
  -21.8823   -3.8129   23.4334 C   0  0  0  0  0  0
  -21.9201   -4.6939   22.3381 C   0  0  0  0  0  0
  -22.7891  -13.5277   21.1810 C   0  0  0  0  0  0
  -22.1673   -4.2118   21.0957 F   0  0  0  0  0  0
  -21.5607   -3.4532   25.7735 F   0  0  0  0  0  0
  -30.0266  -13.3604   20.4730 N   0  0  0  0  0  0
  -26.3021  -12.9299   20.3339 N   0  0  0  0  0  0
  -25.9317  -11.6463   20.5698 N   0  0  0  0  0  0
  -22.0494  -12.8275   22.0345 N   0  0  0  0  0  0
  -25.4377  -15.1854   20.4173 N   0  0  0  0  0  0
  -31.7182  -14.8520   20.1131 O   0  0  0  0  0  0
  -21.6646   -6.8884   21.4240 O   0  0  0  0  0  0
  -22.3625  -14.5622   20.6685 O   0  0  0  0  0  0
  -24.6208  -31.8622   23.2069 C   0  0  0  0  0  0
  -25.9085  -32.4790   23.8388 C   0  0  1  0  0  0
  -27.2390  -27.3755   20.1259 C   0  0  0  0  0  0
  -25.5912  -33.8583   24.2329 N   0  0  0  0  0  0
  -23.4137  -30.4836   21.5455 C   0  0  2  0  0  0
  -24.8630  -28.9335   20.1241 C   0  0  0  0  0  0
  -22.7453  -29.4620   22.4946 C   0  0  0  0  0  0
  -18.0288  -28.1388   22.8490 C   0  0  0  0  0  0
  -24.1462  -36.7277   23.2640 C   0  0  0  0  0  0
  -25.9469  -30.8115   21.3660 C   0  0  0  0  0  0
  -26.0257  -29.4366   20.7238 C   0  0  0  0  0  0
  -27.2192  -28.6659   20.7190 C   0  0  0  0  0  0
  -26.0585  -26.8953   19.5227 C   0  0  0  0  0  0
  -24.8757  -27.6626   19.5210 C   0  0  0  0  0  0
  -23.6308  -29.8135   20.1620 C   0  0  0  0  0  0
  -25.4081  -36.3086   24.0349 C   0  0  1  0  0  0
  -20.5884  -28.3670   23.1304 C   0  0  2  0  0  0
  -20.6787  -26.9397   22.5411 C   0  0  0  0  0  0
  -19.5757  -26.6384   21.5211 C   0  0  0  0  0  0
  -18.1935  -26.7929   22.1620 C   0  0  0  0  0  0
  -19.1543  -28.8847   23.2894 C   0  0  0  0  0  0
  -18.9465  -30.1445   23.8921 C   0  0  0  0  0  0
  -17.6468  -30.6577   24.0584 C   0  0  0  0  0  0
  -25.9024  -34.9460   23.5137 C   0  0  0  0  0  0
  -16.5362  -29.9091   23.6323 C   0  0  0  0  0  0
  -16.7276  -28.6511   23.0337 C   0  0  0  0  0  0
  -26.4491  -31.6565   25.0719 C   0  0  0  0  0  0
  -25.3761  -31.3670   26.1473 C   0  0  0  0  0  0
  -27.0318  -30.3006   24.6085 C   0  0  0  0  0  0
  -27.6066  -32.4274   25.7491 C   0  0  0  0  0  0
  -27.5558  -37.1791   24.8471 C   0  0  0  0  0  0
  -21.4173  -29.3020   22.3697 N   0  0  0  0  0  0
  -26.4252  -37.3790   23.9440 N   0  0  0  0  0  0
  -24.6791  -31.0690   22.0983 N   0  0  0  0  0  0
  -23.4199  -28.8164   23.3024 O   0  0  0  0  0  0
  -28.3882  -26.6018   20.0621 O   0  0  0  0  0  0
  -26.5593  -34.8931   22.4700 O   0  0  0  0  0  0
  -23.5386  -32.1392   23.7433 O   0  0  0  0  0  0
  -30.5042  -18.0318   20.9114 C   0  0  0  0  0  0
  -28.4100  -17.4742   21.5233 C   0  0  0  0  0  0
  -29.6177  -16.9330   21.1829 C   0  0  0  0  0  0
  -29.8007  -19.2177   21.1004 C   0  0  0  0  0  0
  -30.2859  -20.6561   21.1316 C   0  0  0  0  0  0
  -28.5893  -24.0651   20.3211 C   0  0  0  0  0  0
  -32.4122  -23.5431   20.4405 C   0  0  0  0  0  0
  -25.4338  -21.1907   21.1890 C   0  0  0  0  0  0
  -25.6853  -18.8660   20.2165 C   0  0  0  0  0  0
  -28.4948  -25.4813   20.9877 C   0  0  0  0  0  0
  -31.0334  -23.5646   19.7547 C   0  0  0  0  0  0
  -27.4068  -19.7485   21.9001 C   0  0  0  0  0  0
  -29.8290  -23.1474   20.6491 C   0  0  2  0  0  0
  -26.4317  -20.1008   20.7542 C   0  0  0  0  0  0
  -28.5011  -18.8636   21.4896 N   0  0  0  0  0  0
  -29.8297  -15.4992   21.2543 N   0  0  0  0  0  0
  -29.5562  -21.6690   20.5821 N   0  0  0  0  0  0
  -31.3703  -20.8669   21.6683 O   0  0  0  0  0  0
  -27.7036  -23.6906   19.5455 O   0  0  0  0  0  0
  -31.4953  -12.5086   19.1717 H   0  0  0  0  0  0
  -30.3580  -11.3724   19.8416 H   0  0  0  0  0  0
  -29.7833  -11.8547   17.4376 H   0  0  0  0  0  0
  -29.6628  -13.5526   17.7974 H   0  0  0  0  0  0
  -27.8659  -11.3185   18.8071 H   0  0  0  0  0  0
  -27.3978  -12.6562   17.7865 H   0  0  0  0  0  0
  -27.7001  -14.2580   19.5884 H   0  0  0  0  0  0
  -28.7045  -11.9458   21.3228 H   0  0  0  0  0  0
  -28.4251  -13.5488   21.9037 H   0  0  0  0  0  0
  -25.2732   -9.5724   22.4738 H   0  0  0  0  0  0
  -23.9940   -7.4717   22.7495 H   0  0  0  0  0  0
  -21.0796   -8.8796   19.8998 H   0  0  0  0  0  0
  -22.3649  -10.9666   19.6133 H   0  0  0  0  0  0
  -21.2051   -7.6139   23.9682 H   0  0  0  0  0  0
  -21.1455   -6.0507   25.9045 H   0  0  0  0  0  0
  -22.0601   -2.7580   23.2851 H   0  0  0  0  0  0
  -22.4081  -11.9902   22.4702 H   0  0  0  0  0  0
  -21.1148  -13.1349   22.2588 H   0  0  0  0  0  0
  -24.6831  -15.8440   20.5733 H   0  0  0  0  0  0
  -26.2781  -15.6187   20.0606 H   0  0  0  0  0  0
  -26.7164  -32.5513   23.1158 H   0  0  0  0  0  0
  -25.0097  -33.9724   25.0502 H   0  0  0  0  0  0
  -22.7048  -31.3018   21.4022 H   0  0  0  0  0  0
  -23.3737  -35.9590   23.3290 H   0  0  0  0  0  0
  -24.3558  -36.8899   22.2055 H   0  0  0  0  0  0
  -23.7195  -37.6468   23.6664 H   0  0  0  0  0  0
  -26.0612  -31.5652   20.5854 H   0  0  0  0  0  0
  -26.8355  -30.8743   21.9834 H   0  0  0  0  0  0
  -28.1201  -29.0501   21.1783 H   0  0  0  0  0  0
  -26.0573  -25.9227   19.0508 H   0  0  0  0  0  0
  -23.9833  -27.2665   19.0556 H   0  0  0  0  0  0
  -23.7620  -30.5882   19.4055 H   0  0  0  0  0  0
  -22.7500  -29.2476   19.8537 H   0  0  0  0  0  0
  -25.1231  -36.1946   25.0832 H   0  0  0  0  0  0
  -20.9967  -28.3256   24.1429 H   0  0  0  0  0  0
  -20.5681  -26.2273   23.3597 H   0  0  0  0  0  0
  -21.6669  -26.7420   22.1232 H   0  0  0  0  0  0
  -19.6913  -25.6308   21.1206 H   0  0  0  0  0  0
  -19.6678  -27.3215   20.6764 H   0  0  0  0  0  0
  -17.4188  -26.6679   21.4039 H   0  0  0  0  0  0
  -18.0307  -26.0065   22.9001 H   0  0  0  0  0  0
  -19.7943  -30.7256   24.2299 H   0  0  0  0  0  0
  -17.5020  -31.6248   24.5211 H   0  0  0  0  0  0
  -15.5363  -30.3001   23.7638 H   0  0  0  0  0  0
  -15.8675  -28.0838   22.7029 H   0  0  0  0  0  0
  -24.5939  -30.6990   25.7844 H   0  0  0  0  0  0
  -24.8948  -32.2813   26.4951 H   0  0  0  0  0  0
  -25.8132  -30.8847   27.0220 H   0  0  0  0  0  0
  -26.2848  -29.6754   24.1165 H   0  0  0  0  0  0
  -27.4127  -29.7251   25.4535 H   0  0  0  0  0  0
  -27.8673  -30.4333   23.9202 H   0  0  0  0  0  0
  -27.2689  -33.3580   26.2068 H   0  0  0  0  0  0
  -28.3892  -32.6796   25.0322 H   0  0  0  0  0  0
  -28.0694  -31.8375   26.5414 H   0  0  0  0  0  0
  -28.2580  -38.0090   24.7526 H   0  0  0  0  0  0
  -28.1044  -36.2623   24.6253 H   0  0  0  0  0  0
  -27.2293  -37.1407   25.8882 H   0  0  0  0  0  0
  -20.9347  -29.8717   21.6887 H   0  0  0  0  0  0
  -26.0123  -38.2848   24.1482 H   0  0  0  0  0  0
  -31.5566  -17.9714   20.6681 H   0  0  0  0  0  0
  -27.4809  -17.0042   21.8266 H   0  0  0  0  0  0
  -33.1447  -24.0954   19.8515 H   0  0  0  0  0  0
  -32.8061  -22.5351   20.5537 H   0  0  0  0  0  0
  -32.3769  -24.0057   21.4277 H   0  0  0  0  0  0
  -24.7662  -21.4607   20.3690 H   0  0  0  0  0  0
  -25.9469  -22.1030   21.4957 H   0  0  0  0  0  0
  -24.8109  -20.8627   22.0222 H   0  0  0  0  0  0
  -24.9372  -19.1412   19.4707 H   0  0  0  0  0  0
  -25.1695  -18.3350   21.0176 H   0  0  0  0  0  0
  -26.3671  -18.1591   19.7441 H   0  0  0  0  0  0
  -29.3907  -25.6389   21.5871 H   0  0  0  0  0  0
  -27.6586  -25.4919   21.6876 H   0  0  0  0  0  0
  -31.0571  -22.9682   18.8421 H   0  0  0  0  0  0
  -30.8918  -24.5904   19.4088 H   0  0  0  0  0  0
  -26.8605  -19.2633   22.7095 H   0  0  0  0  0  0
  -27.8130  -20.6538   22.3490 H   0  0  0  0  0  0
  -30.0909  -23.3625   21.6866 H   0  0  0  0  0  0
  -27.0200  -20.5146   19.9342 H   0  0  0  0  0  0
  -29.0558  -15.0156   21.6844 H   0  0  0  0  0  0
  -28.6945  -21.4092   20.1266 H   0  0  0  0  0  0
  1 25  1  0  0  0
  1 30  2  0  0  0
  1 86  1  0  0  0
  2  3  1  0  0  0
  2 25  1  0  0  0
  2 90  1  0  0  0
  2 91  1  0  0  0
  3  4  1  0  0  0
  3 92  1  0  0  0
  3 93  1  0  0  0
  4  5  1  0  0  0
  4 94  1  0  0  0
  4 95  1  0  0  0
  5  6  1  0  0  0
  5 26  1  0  0  0
  5 96  1  0  0  0
  6 25  1  0  0  0
  6 97  1  0  0  0
  6 98  1  0  0  0
  7  8  2  0  0  0
  7 26  1  0  0  0
  7 29  1  0  0  0
  8  9  1  0  0  0
  8 22  1  0  0  0
  9 10  1  0  0  0
  9 27  2  0  0  0
 10 11  2  0  0  0
 10 15  1  0  0  0
 11 12  1  0  0  0
 11 99  1  0  0  0
 12 13  2  0  0  0
 12100  1  0  0  0
 13 14  1  0  0  0
 13 31  1  0  0  0
 14 15  2  0  0  0
 14101  1  0  0  0
 15102  1  0  0  0
 16 17  2  0  0  0
 16 21  1  0  0  0
 16 31  1  0  0  0
 17 18  1  0  0  0
 17103  1  0  0  0
 18 19  2  0  0  0
 18104  1  0  0  0
 19 20  1  0  0  0
 19 24  1  0  0  0
 20 21  2  0  0  0
 20105  1  0  0  0
 21 23  1  0  0  0
 22 28  1  0  0  0
 22 32  2  0  0  0
 26 27  1  0  0  0
 28106  1  0  0  0
 28107  1  0  0  0
 29108  1  0  0  0
 29109  1  0  0  0
 33 34  1  0  0  0
 33 66  1  0  0  0
 33 70  2  0  0  0
 34 36  1  0  0  0
 34 59  1  0  0  0
 34110  1  0  0  0
 35 44  2  0  0  0
 35 45  1  0  0  0
 35 68  1  0  0  0
 36 56  1  0  0  0
 36111  1  0  0  0
 37 39  1  0  0  0
 37 47  1  0  0  0
 37 66  1  0  0  0
 37112  1  0  0  0
 38 43  2  0  0  0
 38 46  1  0  0  0
 38 47  1  0  0  0
 39 64  1  0  0  0
 39 67  2  0  0  0
 40 52  1  0  0  0
 40 53  2  0  0  0
 40 58  1  0  0  0
 41113  1  0  0  0
 41114  1  0  0  0
 41115  1  0  0  0
 41 48  1  0  0  0
 42 43  1  0  0  0
 42 66  1  0  0  0
 42116  1  0  0  0
 42117  1  0  0  0
 43 44  1  0  0  0
 44118  1  0  0  0
 45 46  2  0  0  0
 45119  1  0  0  0
 46120  1  0  0  0
 47121  1  0  0  0
 47122  1  0  0  0
 48 56  1  0  0  0
 48 65  1  0  0  0
 48123  1  0  0  0
 49 50  1  0  0  0
 49 53  1  0  0  0
 49 64  1  0  0  0
 49124  1  0  0  0
 50 51  1  0  0  0
 50125  1  0  0  0
 50126  1  0  0  0
 51 52  1  0  0  0
 51127  1  0  0  0
 51128  1  0  0  0
 52129  1  0  0  0
 52130  1  0  0  0
 53 54  1  0  0  0
 54 55  2  0  0  0
 54131  1  0  0  0
 55 57  1  0  0  0
 55132  1  0  0  0
 56 69  2  0  0  0
 57 58  2  0  0  0
 57133  1  0  0  0
 58134  1  0  0  0
 59 60  1  0  0  0
 59 61  1  0  0  0
 59 62  1  0  0  0
 60135  1  0  0  0
 60136  1  0  0  0
 60137  1  0  0  0
 61138  1  0  0  0
 61139  1  0  0  0
 61140  1  0  0  0
 62141  1  0  0  0
 62142  1  0  0  0
 62143  1  0  0  0
 63 65  1  0  0  0
 63144  1  0  0  0
 63145  1  0  0  0
 63146  1  0  0  0
 64147  1  0  0  0
 65148  1  0  0  0
 68 80  1  0  0  0
 71 73  1  0  0  0
 71 74  2  0  0  0
 71149  1  0  0  0
 72 73  2  0  0  0
 72 85  1  0  0  0
 72150  1  0  0  0
 73 86  1  0  0  0
 74 75  1  0  0  0
 74 85  1  0  0  0
 75 87  1  0  0  0
 75 88  2  0  0  0
 76 80  1  0  0  0
 76 83  1  0  0  0
 76 89  2  0  0  0
 77 81  1  0  0  0
 77151  1  0  0  0
 77152  1  0  0  0
 77153  1  0  0  0
 78154  1  0  0  0
 78155  1  0  0  0
 78156  1  0  0  0
 78 84  1  0  0  0
 79 84  1  0  0  0
 79157  1  0  0  0
 79158  1  0  0  0
 79159  1  0  0  0
 80160  1  0  0  0
 80161  1  0  0  0
 81162  1  0  0  0
 81163  1  0  0  0
 81 83  1  0  0  0
 82 84  1  0  0  0
 82 85  1  0  0  0
 82164  1  0  0  0
 82165  1  0  0  0
 83 87  1  0  0  0
 83166  1  0  0  0
 84167  1  0  0  0
 86168  1  0  0  0
 87169  1  0  0  0
M  ISO  4   1 100  68 101  80 101  86 100
M  END
> <chiral flag>
0

> <version>
0

> <s_m_source_file>
/data/baiqing/PycharmProjects/Reinvent-master-3.2/result/LINK_invent/BTK/process_docking_weight1_custom_product_contain_oxygen_bond_distance_aromatic_linkinvent_7_9_3/rearranged_h_0169.sdf

> <i_m_source_file_index>
57

> <r_mmod_Potential_Energy-OPLS-2005>
18.3243942260742

> <r_mmod_Stretch_Energy-OPLS-2005>
62.5816917419434

> <r_mmod_Bend_Energy-OPLS-2005>
149.560470581055

> <r_mmod_Torsional_Energy-OPLS-2005>
296.798217773438

> <r_mmod_Improper_Torsional_Energy-OPLS-2005>
4.94230461120605

> <r_mmod_Van_der_Waal_Energy-OPLS-2005>
105.987457275391

> <r_mmod_Electrostatic_Energy-OPLS-2005>
-395.392211914062

> <r_mmod_Solvation_Energy-OPLS-2005>
-236.509963989258

> <b_mmod_Minimization_Converged-OPLS-2005>
0

> <r_mmod_RMS_Derivative-OPLS-2005>
4.01501131057739

$$$$
57
                    3D
 Structure written by MMmdl.
168177  0  0  1  0            999 V2000
  -30.7023  -14.4470   20.6455 C   0  0  0  0  0  0
  -30.4366  -12.3176   19.4089 C   0  0  0  0  0  0
  -29.4959  -12.5216   18.2027 C   0  0  0  0  0  0
  -28.0184  -12.3682   18.6163 C   0  0  0  0  0  0
  -27.6671  -13.1963   19.8788 C   0  0  2  0  0  0
  -28.7063  -12.9428   20.9941 C   0  0  0  0  0  0
  -25.2592  -13.8113   20.5647 C   0  0  0  0  0  0
  -24.1844  -13.0409   20.9174 C   0  0  0  0  0  0
  -24.6396  -11.6883   20.8738 C   0  0  0  0  0  0
  -23.9054  -10.4280   21.0404 C   0  0  0  0  0  0
  -24.3606   -9.4199   21.9184 C   0  0  0  0  0  0
  -23.6284   -8.2233   22.0750 C   0  0  0  0  0  0
  -22.4265   -8.0275   21.3543 C   0  0  0  0  0  0
  -21.9896   -9.0247   20.4642 C   0  0  0  0  0  0
  -22.7226  -10.2126   20.3051 C   0  0  0  0  0  0
  -21.6843   -6.0735   22.5284 C   0  0  0  0  0  0
  -21.4007   -6.5635   23.8221 C   0  0  0  0  0  0
  -21.3662   -5.6786   24.9178 C   0  0  0  0  0  0
  -21.6050   -4.3051   24.7230 C   0  0  0  0  0  0
  -21.8822   -3.8145   23.4347 C   0  0  0  0  0  0
  -21.9185   -4.6963   22.3408 C   0  0  0  0  0  0
  -22.7870  -13.5221   21.1844 C   0  0  0  0  0  0
  -22.1652   -4.2151   21.0983 F   0  0  0  0  0  0
  -21.5637   -3.4535   25.7742 F   0  0  0  0  0  0
  -30.0478  -13.2653   20.4654 N   0  0  0  0  0  0
  -26.3045  -12.9283   20.3360 N   0  0  0  0  0  0
  -25.9321  -11.6453   20.5767 N   0  0  0  0  0  0
  -22.0504  -12.8227   22.0407 N   0  0  0  0  0  0
  -25.4241  -15.1819   20.3989 N   0  0  0  0  0  0
  -31.7521  -14.7389   20.0636 O   0  0  0  0  0  0
  -21.6628   -6.8874   21.4245 O   0  0  0  0  0  0
  -22.3564  -14.5535   20.6697 O   0  0  0  0  0  0
  -24.6132  -31.8678   23.2115 C   0  0  0  0  0  0
  -25.9030  -32.4822   23.8404 C   0  0  1  0  0  0
  -27.2400  -27.4448   20.1013 C   0  0  0  0  0  0
  -25.5898  -33.8623   24.2341 N   0  0  0  0  0  0
  -23.4023  -30.4898   21.5503 C   0  0  2  0  0  0
  -24.8524  -28.9538   20.1179 C   0  0  0  0  0  0
  -22.7403  -29.4651   22.4992 C   0  0  0  0  0  0
  -18.0264  -28.1373   22.8495 C   0  0  0  0  0  0
  -24.1485  -36.7307   23.2642 C   0  0  0  0  0  0
  -25.9293  -30.8357   21.3645 C   0  0  0  0  0  0
  -26.0099  -29.4689   20.7165 C   0  0  0  0  0  0
  -27.2088  -28.7198   20.7097 C   0  0  0  0  0  0
  -26.0723  -26.9405   19.4955 C   0  0  0  0  0  0
  -24.8775  -27.6874   19.5054 C   0  0  0  0  0  0
  -23.6127  -29.8192   20.1658 C   0  0  0  0  0  0
  -25.4107  -36.3111   24.0345 C   0  0  1  0  0  0
  -20.5856  -28.3655   23.1323 C   0  0  2  0  0  0
  -20.6757  -26.9389   22.5424 C   0  0  0  0  0  0
  -19.5742  -26.6379   21.5217 C   0  0  0  0  0  0
  -18.1916  -26.7925   22.1611 C   0  0  0  0  0  0
  -19.1515  -28.8830   23.2907 C   0  0  0  0  0  0
  -18.9444  -30.1438   23.8913 C   0  0  0  0  0  0
  -17.6450  -30.6581   24.0564 C   0  0  0  0  0  0
  -25.9032  -34.9476   23.5138 C   0  0  0  0  0  0
  -16.5340  -29.9083   23.6331 C   0  0  0  0  0  0
  -16.7252  -28.6500   23.0350 C   0  0  0  0  0  0
  -26.4476  -31.6596   25.0722 C   0  0  0  0  0  0
  -25.3761  -31.3686   26.1484 C   0  0  0  0  0  0
  -27.0310  -30.3046   24.6081 C   0  0  0  0  0  0
  -27.6061  -32.4313   25.7472 C   0  0  0  0  0  0
  -27.5583  -37.1808   24.8469 C   0  0  0  0  0  0
  -21.4130  -29.3025   22.3733 N   0  0  0  0  0  0
  -26.4296  -37.3796   23.9414 N   0  0  0  0  0  0
  -24.6661  -31.0785   22.1008 N   0  0  0  0  0  0
  -23.4179  -28.8194   23.3032 O   0  0  0  0  0  0
  -28.3882  -26.6899   20.0742 O   0  0  0  0  0  0
  -26.5585  -34.8925   22.4694 O   0  0  0  0  0  0
  -23.5326  -32.1420   23.7515 O   0  0  0  0  0  0
  -28.6746  -17.0930   20.8244 C   0  0  0  0  0  0
  -30.7381  -17.6311   21.9763 C   0  0  0  0  0  0
  -29.0586  -19.4006   21.5818 C   0  0  0  0  0  0
  -28.2559  -18.4412   20.8997 C   0  0  0  0  0  0
  -29.8896  -16.6651   21.3946 C   0  0  0  0  0  0
  -30.3289  -18.9841   22.0610 C   0  0  0  0  0  0
  -28.7125  -24.3414   20.8113 C   0  0  0  0  0  0
  -28.3989  -20.9475   23.5017 C   0  0  0  0  0  0
  -27.5442  -23.2507   22.8022 C   0  0  0  0  0  0
  -28.5009  -20.7949   21.9654 C   0  0  1  0  0  0
  -28.8430  -23.3029   21.9546 C   0  0  1  0  0  0
  -27.6312  -22.2139   23.9405 C   0  0  1  0  0  0
  -26.8999  -18.7908   20.3020 C   0  0  0  0  0  0
  -26.2417  -21.8856   24.5134 C   0  0  0  0  0  0
  -28.5399  -25.8270   21.2131 C   0  0  0  0  0  0
  -30.1237  -15.2669   21.5398 N   0  0  0  0  0  0
  -29.1794  -21.9720   21.3499 N   0  3  0  0  0  0
  -28.7218  -24.0055   19.6205 O   0  0  0  0  0  0
  -31.1435  -19.8824   22.6647 F   0  0  0  0  0  0
  -31.4761  -12.4460   19.1029 H   0  0  0  0  0  0
  -30.3648  -11.2952   19.7828 H   0  0  0  0  0  0
  -29.7378  -11.8085   17.4135 H   0  0  0  0  0  0
  -29.6556  -13.5137   17.7775 H   0  0  0  0  0  0
  -27.8333  -11.3102   18.8060 H   0  0  0  0  0  0
  -27.3635  -12.6463   17.7898 H   0  0  0  0  0  0
  -27.7205  -14.2461   19.5945 H   0  0  0  0  0  0
  -28.6841  -11.8941   21.2940 H   0  0  0  0  0  0
  -28.4402  -13.4964   21.8945 H   0  0  0  0  0  0
  -25.2751   -9.5679   22.4754 H   0  0  0  0  0  0
  -23.9998   -7.4623   22.7461 H   0  0  0  0  0  0
  -21.0831   -8.8764   19.8942 H   0  0  0  0  0  0
  -22.3686  -10.9667   19.6159 H   0  0  0  0  0  0
  -21.1988   -7.6140   23.9733 H   0  0  0  0  0  0
  -21.1481   -6.0507   25.9086 H   0  0  0  0  0  0
  -22.0598   -2.7606   23.2846 H   0  0  0  0  0  0
  -22.4092  -11.9862   22.4766 H   0  0  0  0  0  0
  -21.1137  -13.1280   22.2643 H   0  0  0  0  0  0
  -24.6419  -15.8211   20.4843 H   0  0  0  0  0  0
  -26.2562  -15.6168   20.0281 H   0  0  0  0  0  0
  -26.7100  -32.5541   23.1169 H   0  0  0  0  0  0
  -25.0092  -33.9798   25.0515 H   0  0  0  0  0  0
  -22.6911  -31.3064   21.4096 H   0  0  0  0  0  0
  -23.3757  -35.9631   23.3312 H   0  0  0  0  0  0
  -24.3583  -36.8910   22.2054 H   0  0  0  0  0  0
  -23.7220  -37.6508   23.6648 H   0  0  0  0  0  0
  -26.0402  -31.6010   20.5952 H   0  0  0  0  0  0
  -26.8171  -30.8924   21.9820 H   0  0  0  0  0  0
  -28.1040  -29.1150   21.1697 H   0  0  0  0  0  0
  -26.0900  -25.9709   19.0177 H   0  0  0  0  0  0
  -23.9887  -27.2857   19.0380 H   0  0  0  0  0  0
  -23.7194  -30.5931   19.4049 H   0  0  0  0  0  0
  -22.7384  -29.2366   19.8705 H   0  0  0  0  0  0
  -25.1287  -36.1980   25.0842 H   0  0  0  0  0  0
  -20.9943  -28.3212   24.1444 H   0  0  0  0  0  0
  -20.5647  -26.2259   23.3609 H   0  0  0  0  0  0
  -21.6626  -26.7429   22.1218 H   0  0  0  0  0  0
  -19.6901  -25.6292   21.1239 H   0  0  0  0  0  0
  -19.6699  -27.3196   20.6758 H   0  0  0  0  0  0
  -17.4192  -26.6682   21.4005 H   0  0  0  0  0  0
  -18.0302  -26.0055   22.8991 H   0  0  0  0  0  0
  -19.7921  -30.7248   24.2282 H   0  0  0  0  0  0
  -17.5008  -31.6271   24.5155 H   0  0  0  0  0  0
  -15.5343  -30.2993   23.7661 H   0  0  0  0  0  0
  -15.8645  -28.0834   22.7059 H   0  0  0  0  0  0
  -24.5932  -30.7033   25.7827 H   0  0  0  0  0  0
  -24.8955  -32.2829   26.4971 H   0  0  0  0  0  0
  -25.8132  -30.8832   27.0217 H   0  0  0  0  0  0
  -26.2837  -29.6788   24.1185 H   0  0  0  0  0  0
  -27.4147  -29.7304   25.4524 H   0  0  0  0  0  0
  -27.8645  -30.4384   23.9183 H   0  0  0  0  0  0
  -27.2693  -33.3607   26.2078 H   0  0  0  0  0  0
  -28.3851  -32.6875   25.0280 H   0  0  0  0  0  0
  -28.0749  -31.8415   26.5360 H   0  0  0  0  0  0
  -28.2608  -38.0101   24.7518 H   0  0  0  0  0  0
  -28.1068  -36.2633   24.6287 H   0  0  0  0  0  0
  -27.2299  -37.1441   25.8872 H   0  0  0  0  0  0
  -20.9281  -29.8754   21.6968 H   0  0  0  0  0  0
  -26.0185  -38.2872   24.1431 H   0  0  0  0  0  0
  -28.0203  -16.3632   20.3743 H   0  0  0  0  0  0
  -31.6736  -17.3325   22.4262 H   0  0  0  0  0  0
  -29.3968  -20.9728   23.9390 H   0  0  0  0  0  0
  -27.9241  -20.0605   23.9240 H   0  0  0  0  0  0
  -26.6921  -23.0299   22.1554 H   0  0  0  0  0  0
  -27.3306  -24.2242   23.2448 H   0  0  0  0  0  0
  -27.4760  -20.8493   21.6056 H   0  0  0  0  0  0
  -29.6690  -23.5958   22.6035 H   0  0  0  0  0  0
  -28.2073  -22.6636   24.7519 H   0  0  0  0  0  0
  -26.5258  -17.9896   19.6642 H   0  0  0  0  0  0
  -26.9610  -19.6861   19.6825 H   0  0  0  0  0  0
  -26.1630  -18.9551   21.0888 H   0  0  0  0  0  0
  -25.5971  -21.4215   23.7661 H   0  0  0  0  0  0
  -25.7401  -22.7853   24.8714 H   0  0  0  0  0  0
  -26.3146  -21.1987   25.3578 H   0  0  0  0  0  0
  -29.4153  -26.1439   21.7795 H   0  0  0  0  0  0
  -27.6824  -25.9190   21.8802 H   0  0  0  0  0  0
  -29.3834  -14.7833   22.0262 H   0  0  0  0  0  0
  -28.9319  -22.0418   20.3722 H   0  0  0  0  0  0
  -30.1782  -21.8478   21.3933 H   0  0  0  0  0  0
  1 25  1  0  0  0
  1 30  2  0  0  0
  1 86  1  0  0  0
  2  3  1  0  0  0
  2 25  1  0  0  0
  2 90  1  0  0  0
  2 91  1  0  0  0
  3  4  1  0  0  0
  3 92  1  0  0  0
  3 93  1  0  0  0
  4  5  1  0  0  0
  4 94  1  0  0  0
  4 95  1  0  0  0
  5  6  1  0  0  0
  5 26  1  0  0  0
  5 96  1  0  0  0
  6 25  1  0  0  0
  6 97  1  0  0  0
  6 98  1  0  0  0
  7  8  2  0  0  0
  7 26  1  0  0  0
  7 29  1  0  0  0
  8  9  1  0  0  0
  8 22  1  0  0  0
  9 10  1  0  0  0
  9 27  2  0  0  0
 10 11  2  0  0  0
 10 15  1  0  0  0
 11 12  1  0  0  0
 11 99  1  0  0  0
 12 13  2  0  0  0
 12100  1  0  0  0
 13 14  1  0  0  0
 13 31  1  0  0  0
 14 15  2  0  0  0
 14101  1  0  0  0
 15102  1  0  0  0
 16 17  2  0  0  0
 16 21  1  0  0  0
 16 31  1  0  0  0
 17 18  1  0  0  0
 17103  1  0  0  0
 18 19  2  0  0  0
 18104  1  0  0  0
 19 20  1  0  0  0
 19 24  1  0  0  0
 20 21  2  0  0  0
 20105  1  0  0  0
 21 23  1  0  0  0
 22 28  1  0  0  0
 22 32  2  0  0  0
 26 27  1  0  0  0
 28106  1  0  0  0
 28107  1  0  0  0
 29108  1  0  0  0
 29109  1  0  0  0
 33 34  1  0  0  0
 33 66  1  0  0  0
 33 70  2  0  0  0
 34 36  1  0  0  0
 34 59  1  0  0  0
 34110  1  0  0  0
 35 44  2  0  0  0
 35 45  1  0  0  0
 35 68  1  0  0  0
 36 56  1  0  0  0
 36111  1  0  0  0
 37 39  1  0  0  0
 37 47  1  0  0  0
 37 66  1  0  0  0
 37112  1  0  0  0
 38 43  2  0  0  0
 38 46  1  0  0  0
 38 47  1  0  0  0
 39 64  1  0  0  0
 39 67  2  0  0  0
 40 52  1  0  0  0
 40 53  2  0  0  0
 40 58  1  0  0  0
 41113  1  0  0  0
 41114  1  0  0  0
 41115  1  0  0  0
 41 48  1  0  0  0
 42 43  1  0  0  0
 42 66  1  0  0  0
 42116  1  0  0  0
 42117  1  0  0  0
 43 44  1  0  0  0
 44118  1  0  0  0
 45 46  2  0  0  0
 45119  1  0  0  0
 46120  1  0  0  0
 47121  1  0  0  0
 47122  1  0  0  0
 48 56  1  0  0  0
 48 65  1  0  0  0
 48123  1  0  0  0
 49 50  1  0  0  0
 49 53  1  0  0  0
 49 64  1  0  0  0
 49124  1  0  0  0
 50 51  1  0  0  0
 50125  1  0  0  0
 50126  1  0  0  0
 51 52  1  0  0  0
 51127  1  0  0  0
 51128  1  0  0  0
 52129  1  0  0  0
 52130  1  0  0  0
 53 54  1  0  0  0
 54 55  2  0  0  0
 54131  1  0  0  0
 55 57  1  0  0  0
 55132  1  0  0  0
 56 69  2  0  0  0
 57 58  2  0  0  0
 57133  1  0  0  0
 58134  1  0  0  0
 59 60  1  0  0  0
 59 61  1  0  0  0
 59 62  1  0  0  0
 60135  1  0  0  0
 60136  1  0  0  0
 60137  1  0  0  0
 61138  1  0  0  0
 61139  1  0  0  0
 61140  1  0  0  0
 62141  1  0  0  0
 62142  1  0  0  0
 62143  1  0  0  0
 63 65  1  0  0  0
 63144  1  0  0  0
 63145  1  0  0  0
 63146  1  0  0  0
 64147  1  0  0  0
 65148  1  0  0  0
 68 85  1  0  0  0
 71 74  2  0  0  0
 71 75  1  0  0  0
 71149  1  0  0  0
 72 75  2  0  0  0
 72 76  1  0  0  0
 72150  1  0  0  0
 73 74  1  0  0  0
 73 76  2  0  0  0
 73 80  1  0  0  0
 74 83  1  0  0  0
 75 86  1  0  0  0
 76 89  1  0  0  0
 77 85  1  0  0  0
 77 88  2  0  0  0
 77 81  1  0  0  0
 78 80  1  0  0  0
 78 82  1  0  0  0
 78151  1  0  0  0
 78152  1  0  0  0
 79 81  1  0  0  0
 79 82  1  0  0  0
 79153  1  0  0  0
 79154  1  0  0  0
 80 87  1  0  0  0
 80155  1  0  0  0
 81 87  1  0  0  0
 81156  1  0  0  0
 82 84  1  0  0  0
 82157  1  0  0  0
 83158  1  0  0  0
 83159  1  0  0  0
 83160  1  0  0  0
 84161  1  0  0  0
 84162  1  0  0  0
 84163  1  0  0  0
 85164  1  0  0  0
 85165  1  0  0  0
 86166  1  0  0  0
 87167  1  0  0  0
 87168  1  0  0  0
M  CHG  1  87   1
M  ISO  4   1 100  68 101  85 101  86 100
M  END
> <chiral flag>
0

> <version>
0

> <s_m_source_file>
/data/baiqing/PycharmProjects/Reinvent-master-3.2/result/LINK_invent/BTK/process_docking_weight1_custom_product_contain_oxygen_bond_distance_aromatic_linkinvent_7_9_3/rearranged_h_0169.sdf

> <i_m_source_file_index>
58

> <r_mmod_Potential_Energy-OPLS-2005>
-158.819381713867

> <r_mmod_Stretch_Energy-OPLS-2005>
42.5688438415527

> <r_mmod_Bend_Energy-OPLS-2005>
99.8921432495117

> <r_mmod_Torsional_Energy-OPLS-2005>
317.650573730469

> <r_mmod_Improper_Torsional_Energy-OPLS-2005>
7.15280771255493

> <r_mmod_Van_der_Waal_Energy-OPLS-2005>
153.541732788086

> <r_mmod_Electrostatic_Energy-OPLS-2005>
-339.302062988281

> <r_mmod_Solvation_Energy-OPLS-2005>
-450.137481689453

> <b_mmod_Minimization_Converged-OPLS-2005>
0

> <r_mmod_RMS_Derivative-OPLS-2005>
1.0786200761795

$$$$
58
                    3D
 Structure written by MMmdl.
160168  0  0  1  0            999 V2000
  -30.7374  -14.4947   20.5686 C   0  0  0  0  0  0
  -30.4125  -12.3192   19.4428 C   0  0  0  0  0  0
  -29.4941  -12.4938   18.2175 C   0  0  0  0  0  0
  -28.0186  -12.3467   18.6331 C   0  0  0  0  0  0
  -27.6569  -13.2142   19.8691 C   0  0  2  0  0  0
  -28.6994  -13.0504   21.0001 C   0  0  0  0  0  0
  -25.2564  -13.8178   20.5683 C   0  0  0  0  0  0
  -24.1825  -13.0443   20.9183 C   0  0  0  0  0  0
  -24.6392  -11.6918   20.8741 C   0  0  0  0  0  0
  -23.9066  -10.4294   21.0404 C   0  0  0  0  0  0
  -24.3619   -9.4209   21.9181 C   0  0  0  0  0  0
  -23.6296   -8.2244   22.0756 C   0  0  0  0  0  0
  -22.4277   -8.0277   21.3549 C   0  0  0  0  0  0
  -21.9912   -9.0247   20.4646 C   0  0  0  0  0  0
  -22.7238  -10.2130   20.3054 C   0  0  0  0  0  0
  -21.6855   -6.0740   22.5278 C   0  0  0  0  0  0
  -21.4015   -6.5640   23.8212 C   0  0  0  0  0  0
  -21.3659   -5.6794   24.9170 C   0  0  0  0  0  0
  -21.6048   -4.3060   24.7225 C   0  0  0  0  0  0
  -21.8816   -3.8149   23.4345 C   0  0  0  0  0  0
  -21.9194   -4.6967   22.3400 C   0  0  0  0  0  0
  -22.7849  -13.5232   21.1844 C   0  0  0  0  0  0
  -22.1659   -4.2156   21.0978 F   0  0  0  0  0  0
  -21.5632   -3.4537   25.7736 F   0  0  0  0  0  0
  -30.0299  -13.3363   20.4393 N   0  0  0  0  0  0
  -26.3005  -12.9363   20.3355 N   0  0  0  0  0  0
  -25.9324  -11.6520   20.5789 N   0  0  0  0  0  0
  -22.0494  -12.8221   22.0401 N   0  0  0  0  0  0
  -25.4266  -15.1898   20.4051 N   0  0  0  0  0  0
  -31.8624  -14.6178   20.0770 O   0  0  0  0  0  0
  -21.6642   -6.8879   21.4241 O   0  0  0  0  0  0
  -22.3531  -14.5539   20.6694 O   0  0  0  0  0  0
  -24.6149  -31.8653   23.2081 C   0  0  0  0  0  0
  -25.9032  -32.4810   23.8379 C   0  0  1  0  0  0
  -27.2303  -27.4248   20.1040 C   0  0  0  0  0  0
  -25.5894  -33.8611   24.2312 N   0  0  0  0  0  0
  -23.4049  -30.4873   21.5482 C   0  0  2  0  0  0
  -24.8545  -28.9573   20.1065 C   0  0  0  0  0  0
  -22.7417  -29.4630   22.4980 C   0  0  0  0  0  0
  -18.0274  -28.1396   22.8485 C   0  0  0  0  0  0
  -24.1490  -36.7317   23.2639 C   0  0  0  0  0  0
  -25.9335  -30.8299   21.3636 C   0  0  0  0  0  0
  -26.0120  -29.4632   20.7126 C   0  0  0  0  0  0
  -27.2063  -28.7033   20.7097 C   0  0  0  0  0  0
  -26.0680  -26.9477   19.4654 C   0  0  0  0  0  0
  -24.8776  -27.7006   19.4765 C   0  0  0  0  0  0
  -23.6128  -29.8191   20.1621 C   0  0  0  0  0  0
  -25.4109  -36.3099   24.0333 C   0  0  1  0  0  0
  -20.5864  -28.3656   23.1322 C   0  0  2  0  0  0
  -20.6767  -26.9392   22.5423 C   0  0  0  0  0  0
  -19.5749  -26.6388   21.5221 C   0  0  0  0  0  0
  -18.1922  -26.7941   22.1619 C   0  0  0  0  0  0
  -19.1527  -28.8843   23.2902 C   0  0  0  0  0  0
  -18.9451  -30.1454   23.8903 C   0  0  0  0  0  0
  -17.6456  -30.6592   24.0559 C   0  0  0  0  0  0
  -25.9033  -34.9464   23.5119 C   0  0  0  0  0  0
  -16.5345  -29.9089   23.6339 C   0  0  0  0  0  0
  -16.7260  -28.6516   23.0340 C   0  0  0  0  0  0
  -26.4464  -31.6591   25.0707 C   0  0  0  0  0  0
  -25.3729  -31.3698   26.1450 C   0  0  0  0  0  0
  -27.0288  -30.3030   24.6079 C   0  0  0  0  0  0
  -27.6038  -32.4297   25.7475 C   0  0  0  0  0  0
  -27.5576  -37.1806   24.8457 C   0  0  0  0  0  0
  -21.4140  -29.3020   22.3728 N   0  0  0  0  0  0
  -26.4291  -37.3782   23.9405 N   0  0  0  0  0  0
  -24.6690  -31.0757   22.0984 N   0  0  0  0  0  0
  -23.4178  -28.8167   23.3025 O   0  0  0  0  0  0
  -28.3600  -26.6297   20.1268 O   0  0  0  0  0  0
  -26.5599  -34.8910   22.4682 O   0  0  0  0  0  0
  -23.5336  -32.1407   23.7465 O   0  0  0  0  0  0
  -32.4631  -18.4318   21.7551 C   0  0  0  0  0  0
  -31.6117  -19.5380   21.5996 C   0  0  0  0  0  0
  -31.9674  -17.1253   21.6016 C   0  0  0  0  0  0
  -29.7466  -18.0273   21.1547 C   0  0  0  0  0  0
  -30.2439  -19.3584   21.2898 C   0  0  0  0  0  0
  -30.6064  -16.8955   21.2802 C   0  0  0  0  0  0
  -29.6722  -21.7505   20.7929 C   0  0  0  0  0  0
  -27.1538  -25.3749   21.9692 C   0  0  0  0  0  0
  -29.6015  -25.9399   22.0008 C   0  0  0  0  0  0
  -28.7269  -22.9010   21.2106 C   0  0  0  0  0  0
  -28.7467  -24.2059   20.3405 C   0  0  0  0  0  0
  -28.4261  -25.5406   21.0935 C   0  0  0  0  0  0
  -29.3682  -20.4969   21.2106 N   0  0  0  0  0  0
  -30.0985  -15.5524   21.1268 N   0  0  0  0  0  0
  -30.6613  -21.9972   20.0974 O   0  0  0  0  0  0
  -31.4598  -12.3891   19.1448 H   0  0  0  0  0  0
  -30.2963  -11.3210   19.8683 H   0  0  0  0  0  0
  -29.7424  -11.7543   17.4551 H   0  0  0  0  0  0
  -29.6559  -13.4718   17.7635 H   0  0  0  0  0  0
  -27.8462  -11.2932   18.8582 H   0  0  0  0  0  0
  -27.3632  -12.5868   17.7947 H   0  0  0  0  0  0
  -27.6868  -14.2534   19.5402 H   0  0  0  0  0  0
  -28.6789  -12.0337   21.3955 H   0  0  0  0  0  0
  -28.4593  -13.6990   21.8438 H   0  0  0  0  0  0
  -25.2764   -9.5692   22.4754 H   0  0  0  0  0  0
  -24.0011   -7.4639   22.7473 H   0  0  0  0  0  0
  -21.0854   -8.8757   19.8945 H   0  0  0  0  0  0
  -22.3692  -10.9666   19.6161 H   0  0  0  0  0  0
  -21.2001   -7.6146   23.9720 H   0  0  0  0  0  0
  -21.1488   -6.0521   25.9079 H   0  0  0  0  0  0
  -22.0599   -2.7613   23.2839 H   0  0  0  0  0  0
  -22.4112  -11.9884   22.4795 H   0  0  0  0  0  0
  -21.1104  -13.1235   22.2603 H   0  0  0  0  0  0
  -24.6551  -15.8417   20.4996 H   0  0  0  0  0  0
  -26.2744  -15.6261   20.0662 H   0  0  0  0  0  0
  -26.7099  -32.5509   23.1137 H   0  0  0  0  0  0
  -25.0035  -33.9780   25.0448 H   0  0  0  0  0  0
  -22.6941  -31.3036   21.4073 H   0  0  0  0  0  0
  -23.3741  -35.9662   23.3312 H   0  0  0  0  0  0
  -24.3584  -36.8933   22.2053 H   0  0  0  0  0  0
  -23.7263  -37.6533   23.6649 H   0  0  0  0  0  0
  -26.0479  -31.5949   20.5940 H   0  0  0  0  0  0
  -26.8214  -30.8836   21.9813 H   0  0  0  0  0  0
  -28.0969  -29.0817   21.1904 H   0  0  0  0  0  0
  -26.0815  -25.9817   18.9816 H   0  0  0  0  0  0
  -23.9914  -27.3120   18.9949 H   0  0  0  0  0  0
  -23.7094  -30.5912   19.3989 H   0  0  0  0  0  0
  -22.7399  -29.2310   19.8727 H   0  0  0  0  0  0
  -25.1295  -36.1951   25.0828 H   0  0  0  0  0  0
  -20.9957  -28.3212   24.1443 H   0  0  0  0  0  0
  -20.5694  -26.2259   23.3611 H   0  0  0  0  0  0
  -21.6631  -26.7448   22.1196 H   0  0  0  0  0  0
  -19.6910  -25.6308   21.1232 H   0  0  0  0  0  0
  -19.6700  -27.3210   20.6763 H   0  0  0  0  0  0
  -17.4203  -26.6696   21.4008 H   0  0  0  0  0  0
  -18.0293  -26.0098   22.9025 H   0  0  0  0  0  0
  -19.7927  -30.7271   24.2265 H   0  0  0  0  0  0
  -17.5007  -31.6267   24.5162 H   0  0  0  0  0  0
  -15.5345  -30.2984   23.7676 H   0  0  0  0  0  0
  -15.8662  -28.0838   22.7046 H   0  0  0  0  0  0
  -24.5916  -30.7031   25.7780 H   0  0  0  0  0  0
  -24.8908  -32.2863   26.4856 H   0  0  0  0  0  0
  -25.8080  -30.8890   27.0222 H   0  0  0  0  0  0
  -26.2826  -29.6799   24.1131 H   0  0  0  0  0  0
  -27.4075  -29.7240   25.4512 H   0  0  0  0  0  0
  -27.8649  -30.4361   23.9212 H   0  0  0  0  0  0
  -27.2666  -33.3599   26.2051 H   0  0  0  0  0  0
  -28.3849  -32.6848   25.0306 H   0  0  0  0  0  0
  -28.0697  -31.8421   26.5398 H   0  0  0  0  0  0
  -28.2587  -38.0106   24.7493 H   0  0  0  0  0  0
  -28.1080  -36.2638   24.6290 H   0  0  0  0  0  0
  -27.2295  -37.1458   25.8860 H   0  0  0  0  0  0
  -20.9307  -29.8746   21.6955 H   0  0  0  0  0  0
  -26.0179  -38.2860   24.1403 H   0  0  0  0  0  0
  -33.5038  -18.5871   22.0052 H   0  0  0  0  0  0
  -32.0229  -20.5273   21.7489 H   0  0  0  0  0  0
  -32.6549  -16.3030   21.7410 H   0  0  0  0  0  0
  -28.6993  -17.8769   20.9374 H   0  0  0  0  0  0
  -27.2927  -24.6263   22.7483 H   0  0  0  0  0  0
  -26.2924  -25.0570   21.3814 H   0  0  0  0  0  0
  -26.8909  -26.2992   22.4853 H   0  0  0  0  0  0
  -29.7454  -25.2366   22.8204 H   0  0  0  0  0  0
  -29.4393  -26.9228   22.4450 H   0  0  0  0  0  0
  -30.5363  -25.9861   21.4423 H   0  0  0  0  0  0
  -29.0259  -23.1447   22.2299 H   0  0  0  0  0  0
  -27.7052  -22.5284   21.2843 H   0  0  0  0  0  0
  -28.0242  -24.0792   19.5335 H   0  0  0  0  0  0
  -29.7108  -24.3206   19.8441 H   0  0  0  0  0  0
  -28.4417  -20.3726   21.5965 H   0  0  0  0  0  0
  -29.1339  -15.3964   21.3760 H   0  0  0  0  0  0
  1 25  1  0  0  0
  1 30  2  0  0  0
  1 84  1  0  0  0
  2  3  1  0  0  0
  2 25  1  0  0  0
  2 86  1  0  0  0
  2 87  1  0  0  0
  3  4  1  0  0  0
  3 88  1  0  0  0
  3 89  1  0  0  0
  4  5  1  0  0  0
  4 90  1  0  0  0
  4 91  1  0  0  0
  5  6  1  0  0  0
  5 26  1  0  0  0
  5 92  1  0  0  0
  6 25  1  0  0  0
  6 93  1  0  0  0
  6 94  1  0  0  0
  7  8  2  0  0  0
  7 26  1  0  0  0
  7 29  1  0  0  0
  8  9  1  0  0  0
  8 22  1  0  0  0
  9 10  1  0  0  0
  9 27  2  0  0  0
 10 11  2  0  0  0
 10 15  1  0  0  0
 11 12  1  0  0  0
 11 95  1  0  0  0
 12 13  2  0  0  0
 12 96  1  0  0  0
 13 14  1  0  0  0
 13 31  1  0  0  0
 14 15  2  0  0  0
 14 97  1  0  0  0
 15 98  1  0  0  0
 16 17  2  0  0  0
 16 21  1  0  0  0
 16 31  1  0  0  0
 17 18  1  0  0  0
 17 99  1  0  0  0
 18 19  2  0  0  0
 18100  1  0  0  0
 19 20  1  0  0  0
 19 24  1  0  0  0
 20 21  2  0  0  0
 20101  1  0  0  0
 21 23  1  0  0  0
 22 28  1  0  0  0
 22 32  2  0  0  0
 26 27  1  0  0  0
 28102  1  0  0  0
 28103  1  0  0  0
 29104  1  0  0  0
 29105  1  0  0  0
 33 34  1  0  0  0
 33 66  1  0  0  0
 33 70  2  0  0  0
 34 36  1  0  0  0
 34 59  1  0  0  0
 34106  1  0  0  0
 35 44  2  0  0  0
 35 45  1  0  0  0
 35 68  1  0  0  0
 36 56  1  0  0  0
 36107  1  0  0  0
 37 39  1  0  0  0
 37 47  1  0  0  0
 37 66  1  0  0  0
 37108  1  0  0  0
 38 43  2  0  0  0
 38 46  1  0  0  0
 38 47  1  0  0  0
 39 64  1  0  0  0
 39 67  2  0  0  0
 40 52  1  0  0  0
 40 53  2  0  0  0
 40 58  1  0  0  0
 41109  1  0  0  0
 41110  1  0  0  0
 41111  1  0  0  0
 41 48  1  0  0  0
 42 43  1  0  0  0
 42 66  1  0  0  0
 42112  1  0  0  0
 42113  1  0  0  0
 43 44  1  0  0  0
 44114  1  0  0  0
 45 46  2  0  0  0
 45115  1  0  0  0
 46116  1  0  0  0
 47117  1  0  0  0
 47118  1  0  0  0
 48 56  1  0  0  0
 48 65  1  0  0  0
 48119  1  0  0  0
 49 50  1  0  0  0
 49 53  1  0  0  0
 49 64  1  0  0  0
 49120  1  0  0  0
 50 51  1  0  0  0
 50121  1  0  0  0
 50122  1  0  0  0
 51 52  1  0  0  0
 51123  1  0  0  0
 51124  1  0  0  0
 52125  1  0  0  0
 52126  1  0  0  0
 53 54  1  0  0  0
 54 55  2  0  0  0
 54127  1  0  0  0
 55 57  1  0  0  0
 55128  1  0  0  0
 56 69  2  0  0  0
 57 58  2  0  0  0
 57129  1  0  0  0
 58130  1  0  0  0
 59 60  1  0  0  0
 59 61  1  0  0  0
 59 62  1  0  0  0
 60131  1  0  0  0
 60132  1  0  0  0
 60133  1  0  0  0
 61134  1  0  0  0
 61135  1  0  0  0
 61136  1  0  0  0
 62137  1  0  0  0
 62138  1  0  0  0
 62139  1  0  0  0
 63 65  1  0  0  0
 63140  1  0  0  0
 63141  1  0  0  0
 63142  1  0  0  0
 64143  1  0  0  0
 65144  1  0  0  0
 68 82  1  0  0  0
 71 72  2  0  0  0
 71 73  1  0  0  0
 71145  1  0  0  0
 72 75  1  0  0  0
 72146  1  0  0  0
 73 76  2  0  0  0
 73147  1  0  0  0
 74 75  2  0  0  0
 74 76  1  0  0  0
 74148  1  0  0  0
 75 83  1  0  0  0
 76 84  1  0  0  0
 77 80  1  0  0  0
 77 83  1  0  0  0
 77 85  2  0  0  0
 78149  1  0  0  0
 78150  1  0  0  0
 78151  1  0  0  0
 78 82  1  0  0  0
 79 82  1  0  0  0
 79152  1  0  0  0
 79153  1  0  0  0
 79154  1  0  0  0
 80 81  1  0  0  0
 80155  1  0  0  0
 80156  1  0  0  0
 81 82  1  0  0  0
 81157  1  0  0  0
 81158  1  0  0  0
 83159  1  0  0  0
 84160  1  0  0  0
M  ISO  4   1 100  68 101  82 101  84 100
M  END
> <chiral flag>
0

> <version>
0

> <s_m_source_file>
/data/baiqing/PycharmProjects/Reinvent-master-3.2/result/LINK_invent/BTK/process_docking_weight1_custom_product_contain_oxygen_bond_distance_aromatic_linkinvent_7_9_3/rearranged_h_0169.sdf

> <i_m_source_file_index>
59

> <r_mmod_Potential_Energy-OPLS-2005>
-64.1939315795898

> <r_mmod_Stretch_Energy-OPLS-2005>
48.0014305114746

> <r_mmod_Bend_Energy-OPLS-2005>
107.111122131348

> <r_mmod_Torsional_Energy-OPLS-2005>
268.651885986328

> <r_mmod_Improper_Torsional_Energy-OPLS-2005>
3.62172794342041

> <r_mmod_Van_der_Waal_Energy-OPLS-2005>
161.824798583984

> <r_mmod_Electrostatic_Energy-OPLS-2005>
-440.586151123047

> <r_mmod_Solvation_Energy-OPLS-2005>
-230.725891113281

> <b_mmod_Minimization_Converged-OPLS-2005>
0

> <r_mmod_RMS_Derivative-OPLS-2005>
1.91727304458618

$$$$
59
                    3D
 Structure written by MMmdl.
155163  0  0  1  0            999 V2000
  -30.6978  -14.4737   20.5748 C   0  0  0  0  0  0
  -30.4253  -12.3082   19.4247 C   0  0  0  0  0  0
  -29.4966  -12.5074   18.2085 C   0  0  0  0  0  0
  -28.0173  -12.3649   18.6183 C   0  0  0  0  0  0
  -27.6616  -13.2044   19.8740 C   0  0  2  0  0  0
  -28.7025  -12.9856   20.9959 C   0  0  0  0  0  0
  -25.2593  -13.8152   20.5663 C   0  0  0  0  0  0
  -24.1844  -13.0440   20.9182 C   0  0  0  0  0  0
  -24.6394  -11.6907   20.8737 C   0  0  0  0  0  0
  -23.9058  -10.4294   21.0408 C   0  0  0  0  0  0
  -24.3617   -9.4206   21.9184 C   0  0  0  0  0  0
  -23.6298   -8.2238   22.0749 C   0  0  0  0  0  0
  -22.4278   -8.0277   21.3539 C   0  0  0  0  0  0
  -21.9910   -9.0250   20.4640 C   0  0  0  0  0  0
  -22.7233  -10.2132   20.3053 C   0  0  0  0  0  0
  -21.6846   -6.0738   22.5280 C   0  0  0  0  0  0
  -21.4007   -6.5642   23.8217 C   0  0  0  0  0  0
  -21.3661   -5.6793   24.9178 C   0  0  0  0  0  0
  -21.6049   -4.3059   24.7221 C   0  0  0  0  0  0
  -21.8818   -3.8148   23.4345 C   0  0  0  0  0  0
  -21.9194   -4.6966   22.3404 C   0  0  0  0  0  0
  -22.7867  -13.5243   21.1845 C   0  0  0  0  0  0
  -22.1659   -4.2153   21.0980 F   0  0  0  0  0  0
  -21.5636   -3.4538   25.7736 F   0  0  0  0  0  0
  -30.0359  -13.2909   20.4486 N   0  0  0  0  0  0
  -26.3023  -12.9316   20.3345 N   0  0  0  0  0  0
  -25.9318  -11.6482   20.5761 N   0  0  0  0  0  0
  -22.0499  -12.8238   22.0396 N   0  0  0  0  0  0
  -25.4328  -15.1861   20.4023 N   0  0  0  0  0  0
  -31.8218  -14.6555   20.0987 O   0  0  0  0  0  0
  -21.6637   -6.8876   21.4243 O   0  0  0  0  0  0
  -22.3568  -14.5558   20.6700 O   0  0  0  0  0  0
  -24.6132  -31.8677   23.2106 C   0  0  0  0  0  0
  -25.9028  -32.4818   23.8405 C   0  0  1  0  0  0
  -27.2355  -27.4406   20.1056 C   0  0  0  0  0  0
  -25.5894  -33.8622   24.2331 N   0  0  0  0  0  0
  -23.4027  -30.4895   21.5492 C   0  0  2  0  0  0
  -24.8519  -28.9512   20.1206 C   0  0  0  0  0  0
  -22.7410  -29.4646   22.4979 C   0  0  0  0  0  0
  -18.0270  -28.1379   22.8490 C   0  0  0  0  0  0
  -24.1485  -36.7317   23.2638 C   0  0  0  0  0  0
  -25.9299  -30.8329   21.3653 C   0  0  0  0  0  0
  -26.0083  -29.4642   20.7215 C   0  0  0  0  0  0
  -27.2060  -28.7131   20.7179 C   0  0  0  0  0  0
  -26.0674  -26.9368   19.5007 C   0  0  0  0  0  0
  -24.8740  -27.6837   19.5102 C   0  0  0  0  0  0
  -23.6143  -29.8190   20.1649 C   0  0  0  0  0  0
  -25.4101  -36.3111   24.0345 C   0  0  1  0  0  0
  -20.5861  -28.3663   23.1320 C   0  0  2  0  0  0
  -20.6750  -26.9395   22.5418 C   0  0  0  0  0  0
  -19.5734  -26.6383   21.5207 C   0  0  0  0  0  0
  -18.1916  -26.7931   22.1613 C   0  0  0  0  0  0
  -19.1518  -28.8835   23.2902 C   0  0  0  0  0  0
  -18.9445  -30.1440   23.8910 C   0  0  0  0  0  0
  -17.6447  -30.6584   24.0561 C   0  0  0  0  0  0
  -25.9034  -34.9476   23.5134 C   0  0  0  0  0  0
  -16.5337  -29.9084   23.6326 C   0  0  0  0  0  0
  -16.7257  -28.6501   23.0348 C   0  0  0  0  0  0
  -26.4471  -31.6596   25.0725 C   0  0  0  0  0  0
  -25.3754  -31.3702   26.1488 C   0  0  0  0  0  0
  -27.0288  -30.3035   24.6094 C   0  0  0  0  0  0
  -27.6058  -32.4311   25.7475 C   0  0  0  0  0  0
  -27.5588  -37.1794   24.8452 C   0  0  0  0  0  0
  -21.4137  -29.3028   22.3728 N   0  0  0  0  0  0
  -26.4280  -37.3802   23.9432 N   0  0  0  0  0  0
  -24.6662  -31.0789   22.1000 N   0  0  0  0  0  0
  -23.4186  -28.8182   23.3016 O   0  0  0  0  0  0
  -28.3904  -26.7014   20.0301 O   0  0  0  0  0  0
  -26.5593  -34.8928   22.4692 O   0  0  0  0  0  0
  -23.5325  -32.1422   23.7502 O   0  0  0  0  0  0
  -29.0968  -17.7650   21.0434 C   0  0  0  0  0  0
  -31.4968  -17.4669   21.0269 C   0  0  0  0  0  0
  -30.5565  -19.7506   20.9027 C   0  0  0  0  0  0
  -30.2072  -16.8887   21.0587 C   0  0  0  0  0  0
  -29.2626  -19.1689   20.9573 C   0  0  0  0  0  0
  -31.6706  -18.8655   20.9501 C   0  0  0  0  0  0
  -30.7538  -21.2269   20.7964 C   0  0  0  0  0  0
  -28.6807  -24.4236   20.9053 C   0  0  0  0  0  0
  -29.9594  -23.6211   21.1997 C   0  0  0  0  0  0
  -28.7130  -25.9382   21.1996 C   0  0  0  0  0  0
  -29.9812  -15.4718   21.1360 N   0  0  0  0  0  0
  -29.8120  -22.1375   21.1248 N   0  0  0  0  0  0
  -31.9174  -21.7171   20.3581 N   0  3  0  0  0  0
  -27.6675  -23.8652   20.4675 O   0  0  0  0  0  0
  -28.1534  -19.9518   20.9356 F   0  0  0  0  0  0
  -32.9431  -19.3387   20.9066 F   0  0  0  0  0  0
  -31.4702  -12.4067   19.1250 H   0  0  0  0  0  0
  -30.3263  -11.2958   19.8201 H   0  0  0  0  0  0
  -29.7368  -11.7856   17.4266 H   0  0  0  0  0  0
  -29.6637  -13.4946   17.7750 H   0  0  0  0  0  0
  -27.8265  -11.3087   18.8121 H   0  0  0  0  0  0
  -27.3678  -12.6392   17.7864 H   0  0  0  0  0  0
  -27.7055  -14.2518   19.5749 H   0  0  0  0  0  0
  -28.6781  -11.9485   21.3340 H   0  0  0  0  0  0
  -28.4604  -13.5810   21.8775 H   0  0  0  0  0  0
  -25.2764   -9.5690   22.4757 H   0  0  0  0  0  0
  -24.0009   -7.4627   22.7468 H   0  0  0  0  0  0
  -21.0840   -8.8769   19.8947 H   0  0  0  0  0  0
  -22.3690  -10.9674   19.6163 H   0  0  0  0  0  0
  -21.1986   -7.6148   23.9720 H   0  0  0  0  0  0
  -21.1486   -6.0520   25.9083 H   0  0  0  0  0  0
  -22.0595   -2.7612   23.2834 H   0  0  0  0  0  0
  -22.4103  -11.9888   22.4774 H   0  0  0  0  0  0
  -21.1120  -13.1269   22.2605 H   0  0  0  0  0  0
  -24.6576  -15.8352   20.4825 H   0  0  0  0  0  0
  -26.2657  -15.6111   20.0167 H   0  0  0  0  0  0
  -26.7099  -32.5538   23.1174 H   0  0  0  0  0  0
  -25.0057  -33.9794   25.0483 H   0  0  0  0  0  0
  -22.6908  -31.3049   21.4065 H   0  0  0  0  0  0
  -23.3753  -35.9639   23.3279 H   0  0  0  0  0  0
  -24.3592  -36.8950   22.2056 H   0  0  0  0  0  0
  -23.7216  -37.6512   23.6654 H   0  0  0  0  0  0
  -26.0410  -31.5941   20.5919 H   0  0  0  0  0  0
  -26.8185  -30.8905   21.9816 H   0  0  0  0  0  0
  -28.1028  -29.1110   21.1718 H   0  0  0  0  0  0
  -26.0848  -25.9665   19.0229 H   0  0  0  0  0  0
  -23.9849  -27.2838   19.0421 H   0  0  0  0  0  0
  -23.7269  -30.5923   19.4039 H   0  0  0  0  0  0
  -22.7401  -29.2374   19.8680 H   0  0  0  0  0  0
  -25.1270  -36.1969   25.0834 H   0  0  0  0  0  0
  -20.9951  -28.3211   24.1439 H   0  0  0  0  0  0
  -20.5624  -26.2268   23.3605 H   0  0  0  0  0  0
  -21.6616  -26.7421   22.1213 H   0  0  0  0  0  0
  -19.6895  -25.6297   21.1232 H   0  0  0  0  0  0
  -19.6701  -27.3197   20.6742 H   0  0  0  0  0  0
  -17.4192  -26.6696   21.4002 H   0  0  0  0  0  0
  -18.0311  -26.0063   22.8996 H   0  0  0  0  0  0
  -19.7923  -30.7249   24.2290 H   0  0  0  0  0  0
  -17.5005  -31.6271   24.5156 H   0  0  0  0  0  0
  -15.5339  -30.2989   23.7650 H   0  0  0  0  0  0
  -15.8656  -28.0825   22.7058 H   0  0  0  0  0  0
  -24.5926  -30.7042   25.7837 H   0  0  0  0  0  0
  -24.8946  -32.2858   26.4949 H   0  0  0  0  0  0
  -25.8133  -30.8872   27.0235 H   0  0  0  0  0  0
  -26.2815  -29.6797   24.1172 H   0  0  0  0  0  0
  -27.4077  -29.7272   25.4546 H   0  0  0  0  0  0
  -27.8647  -30.4346   23.9217 H   0  0  0  0  0  0
  -27.2686  -33.3602   26.2083 H   0  0  0  0  0  0
  -28.3850  -32.6887   25.0286 H   0  0  0  0  0  0
  -28.0744  -31.8413   26.5365 H   0  0  0  0  0  0
  -28.2561  -38.0136   24.7565 H   0  0  0  0  0  0
  -28.1128  -36.2676   24.6176 H   0  0  0  0  0  0
  -27.2336  -37.1318   25.8859 H   0  0  0  0  0  0
  -20.9293  -29.8773   21.6972 H   0  0  0  0  0  0
  -26.0170  -38.2866   24.1486 H   0  0  0  0  0  0
  -28.0928  -17.3699   21.0839 H   0  0  0  0  0  0
  -32.3842  -16.8535   21.0619 H   0  0  0  0  0  0
  -30.3237  -23.8958   22.1903 H   0  0  0  0  0  0
  -30.7085  -23.9636   20.4862 H   0  0  0  0  0  0
  -29.7109  -26.2191   21.5358 H   0  0  0  0  0  0
  -28.0255  -26.1572   22.0179 H   0  0  0  0  0  0
  -29.0714  -15.1834   21.4609 H   0  0  0  0  0  0
  -28.8737  -21.7839   21.2963 H   0  0  0  0  0  0
  -32.6744  -21.0594   20.2087 H   0  0  0  0  0  0
  -32.0934  -22.6968   20.2222 H   0  0  0  0  0  0
  1 25  1  0  0  0
  1 30  2  0  0  0
  1 81  1  0  0  0
  2  3  1  0  0  0
  2 25  1  0  0  0
  2 87  1  0  0  0
  2 88  1  0  0  0
  3  4  1  0  0  0
  3 89  1  0  0  0
  3 90  1  0  0  0
  4  5  1  0  0  0
  4 91  1  0  0  0
  4 92  1  0  0  0
  5  6  1  0  0  0
  5 26  1  0  0  0
  5 93  1  0  0  0
  6 25  1  0  0  0
  6 94  1  0  0  0
  6 95  1  0  0  0
  7  8  2  0  0  0
  7 26  1  0  0  0
  7 29  1  0  0  0
  8  9  1  0  0  0
  8 22  1  0  0  0
  9 10  1  0  0  0
  9 27  2  0  0  0
 10 11  2  0  0  0
 10 15  1  0  0  0
 11 12  1  0  0  0
 11 96  1  0  0  0
 12 13  2  0  0  0
 12 97  1  0  0  0
 13 14  1  0  0  0
 13 31  1  0  0  0
 14 15  2  0  0  0
 14 98  1  0  0  0
 15 99  1  0  0  0
 16 17  2  0  0  0
 16 21  1  0  0  0
 16 31  1  0  0  0
 17 18  1  0  0  0
 17100  1  0  0  0
 18 19  2  0  0  0
 18101  1  0  0  0
 19 20  1  0  0  0
 19 24  1  0  0  0
 20 21  2  0  0  0
 20102  1  0  0  0
 21 23  1  0  0  0
 22 28  1  0  0  0
 22 32  2  0  0  0
 26 27  1  0  0  0
 28103  1  0  0  0
 28104  1  0  0  0
 29105  1  0  0  0
 29106  1  0  0  0
 33 34  1  0  0  0
 33 66  1  0  0  0
 33 70  2  0  0  0
 34 36  1  0  0  0
 34 59  1  0  0  0
 34107  1  0  0  0
 35 44  2  0  0  0
 35 45  1  0  0  0
 35 68  1  0  0  0
 36 56  1  0  0  0
 36108  1  0  0  0
 37 39  1  0  0  0
 37 47  1  0  0  0
 37 66  1  0  0  0
 37109  1  0  0  0
 38 43  2  0  0  0
 38 46  1  0  0  0
 38 47  1  0  0  0
 39 64  1  0  0  0
 39 67  2  0  0  0
 40 52  1  0  0  0
 40 53  2  0  0  0
 40 58  1  0  0  0
 41110  1  0  0  0
 41111  1  0  0  0
 41112  1  0  0  0
 41 48  1  0  0  0
 42 43  1  0  0  0
 42 66  1  0  0  0
 42113  1  0  0  0
 42114  1  0  0  0
 43 44  1  0  0  0
 44115  1  0  0  0
 45 46  2  0  0  0
 45116  1  0  0  0
 46117  1  0  0  0
 47118  1  0  0  0
 47119  1  0  0  0
 48 56  1  0  0  0
 48 65  1  0  0  0
 48120  1  0  0  0
 49 50  1  0  0  0
 49 53  1  0  0  0
 49 64  1  0  0  0
 49121  1  0  0  0
 50 51  1  0  0  0
 50122  1  0  0  0
 50123  1  0  0  0
 51 52  1  0  0  0
 51124  1  0  0  0
 51125  1  0  0  0
 52126  1  0  0  0
 52127  1  0  0  0
 53 54  1  0  0  0
 54 55  2  0  0  0
 54128  1  0  0  0
 55 57  1  0  0  0
 55129  1  0  0  0
 56 69  2  0  0  0
 57 58  2  0  0  0
 57130  1  0  0  0
 58131  1  0  0  0
 59 60  1  0  0  0
 59 61  1  0  0  0
 59 62  1  0  0  0
 60132  1  0  0  0
 60133  1  0  0  0
 60134  1  0  0  0
 61135  1  0  0  0
 61136  1  0  0  0
 61137  1  0  0  0
 62138  1  0  0  0
 62139  1  0  0  0
 62140  1  0  0  0
 63 65  1  0  0  0
 63141  1  0  0  0
 63142  1  0  0  0
 63143  1  0  0  0
 64144  1  0  0  0
 65145  1  0  0  0
 68 80  1  0  0  0
 71 74  2  0  0  0
 71 75  1  0  0  0
 71146  1  0  0  0
 72 74  1  0  0  0
 72 76  2  0  0  0
 72147  1  0  0  0
 73 75  2  0  0  0
 73 76  1  0  0  0
 73 77  1  0  0  0
 74 81  1  0  0  0
 75 85  1  0  0  0
 76 86  1  0  0  0
 77 82  1  0  0  0
 77 83  2  0  0  0
 78 79  1  0  0  0
 78 80  1  0  0  0
 78 84  2  0  0  0
 79 82  1  0  0  0
 79148  1  0  0  0
 79149  1  0  0  0
 80150  1  0  0  0
 80151  1  0  0  0
 81152  1  0  0  0
 82153  1  0  0  0
 83154  1  0  0  0
 83155  1  0  0  0
M  CHG  1  83   1
M  ISO  4   1 100  68 101  80 101  81 100
M  END
> <chiral flag>
0

> <version>
0

> <s_m_source_file>
/data/baiqing/PycharmProjects/Reinvent-master-3.2/result/LINK_invent/BTK/process_docking_weight1_custom_product_contain_oxygen_bond_distance_aromatic_linkinvent_7_9_3/rearranged_h_0169.sdf

> <i_m_source_file_index>
60

> <r_mmod_Potential_Energy-OPLS-2005>
-196.293380737305

> <r_mmod_Stretch_Energy-OPLS-2005>
40.6781921386719

> <r_mmod_Bend_Energy-OPLS-2005>
96.9802474975586

> <r_mmod_Torsional_Energy-OPLS-2005>
245.259460449219

> <r_mmod_Improper_Torsional_Energy-OPLS-2005>
4.19593238830566

> <r_mmod_Van_der_Waal_Energy-OPLS-2005>
161.434341430664

> <r_mmod_Electrostatic_Energy-OPLS-2005>
-325.229644775391

> <r_mmod_Solvation_Energy-OPLS-2005>
-430.839599609375

> <b_mmod_Minimization_Converged-OPLS-2005>
0

> <r_mmod_RMS_Derivative-OPLS-2005>
1.23779761791229

$$$$
60
                    3D
 Structure written by MMmdl.
156164  0  0  1  0            999 V2000
  -30.6210  -14.7478   20.4487 C   0  0  0  0  0  0
  -30.4279  -12.4536   19.4792 C   0  0  0  0  0  0
  -29.5100  -12.5105   18.2382 C   0  0  0  0  0  0
  -28.0361  -12.3348   18.6491 C   0  0  0  0  0  0
  -27.6415  -13.2350   19.8507 C   0  0  2  0  0  0
  -28.6855  -13.1763   20.9882 C   0  0  0  0  0  0
  -25.2507  -13.8205   20.5695 C   0  0  0  0  0  0
  -24.1802  -13.0442   20.9203 C   0  0  0  0  0  0
  -24.6398  -11.6921   20.8741 C   0  0  0  0  0  0
  -23.9076  -10.4295   21.0399 C   0  0  0  0  0  0
  -24.3627   -9.4212   21.9176 C   0  0  0  0  0  0
  -23.6301   -8.2250   22.0749 C   0  0  0  0  0  0
  -22.4284   -8.0286   21.3540 C   0  0  0  0  0  0
  -21.9918   -9.0256   20.4643 C   0  0  0  0  0  0
  -22.7246  -10.2134   20.3051 C   0  0  0  0  0  0
  -21.6859   -6.0739   22.5280 C   0  0  0  0  0  0
  -21.4019   -6.5642   23.8211 C   0  0  0  0  0  0
  -21.3659   -5.6794   24.9173 C   0  0  0  0  0  0
  -21.6046   -4.3057   24.7224 C   0  0  0  0  0  0
  -21.8819   -3.8149   23.4346 C   0  0  0  0  0  0
  -21.9196   -4.6968   22.3403 C   0  0  0  0  0  0
  -22.7824  -13.5215   21.1864 C   0  0  0  0  0  0
  -22.1661   -4.2151   21.0980 F   0  0  0  0  0  0
  -21.5627   -3.4540   25.7737 F   0  0  0  0  0  0
  -29.9893  -13.5225   20.4086 N   0  0  0  0  0  0
  -26.2936  -12.9418   20.3277 N   0  0  0  0  0  0
  -25.9331  -11.6556   20.5752 N   0  0  0  0  0  0
  -22.0483  -12.8198   22.0425 N   0  0  0  0  0  0
  -25.4198  -15.1929   20.4118 N   0  0  0  0  0  0
  -31.8091  -14.8162   20.1217 O   0  0  0  0  0  0
  -21.6651   -6.8883   21.4240 O   0  0  0  0  0  0
  -22.3504  -14.5518   20.6711 O   0  0  0  0  0  0
  -24.6333  -31.8548   23.1993 C   0  0  0  0  0  0
  -25.9154  -32.4752   23.8342 C   0  0  1  0  0  0
  -27.2146  -27.2467   20.1227 C   0  0  0  0  0  0
  -25.5943  -33.8555   24.2257 N   0  0  0  0  0  0
  -23.4306  -30.4794   21.5434 C   0  0  2  0  0  0
  -24.8771  -28.9304   20.1077 C   0  0  0  0  0  0
  -22.7515  -29.4601   22.4908 C   0  0  0  0  0  0
  -18.0298  -28.1396   22.8482 C   0  0  0  0  0  0
  -24.1490  -36.7281   23.2639 C   0  0  0  0  0  0
  -25.9798  -30.7607   21.3859 C   0  0  0  0  0  0
  -26.0498  -29.3840   20.7242 C   0  0  0  0  0  0
  -27.2197  -28.5534   20.7253 C   0  0  0  0  0  0
  -26.0207  -26.8799   19.4565 C   0  0  0  0  0  0
  -24.8689  -27.6870   19.4635 C   0  0  0  0  0  0
  -23.6492  -29.8188   20.1580 C   0  0  0  0  0  0
  -25.4118  -36.3066   24.0322 C   0  0  1  0  0  0
  -20.5902  -28.3709   23.1260 C   0  0  2  0  0  0
  -20.6786  -26.9423   22.5405 C   0  0  0  0  0  0
  -19.5759  -26.6388   21.5212 C   0  0  0  0  0  0
  -18.1940  -26.7937   22.1625 C   0  0  0  0  0  0
  -19.1551  -28.8868   23.2869 C   0  0  0  0  0  0
  -18.9469  -30.1469   23.8885 C   0  0  0  0  0  0
  -17.6467  -30.6590   24.0564 C   0  0  0  0  0  0
  -25.9060  -34.9438   23.5092 C   0  0  0  0  0  0
  -16.5359  -29.9083   23.6336 C   0  0  0  0  0  0
  -16.7284  -28.6507   23.0347 C   0  0  0  0  0  0
  -26.4508  -31.6585   25.0742 C   0  0  0  0  0  0
  -25.3720  -31.3741   26.1453 C   0  0  0  0  0  0
  -27.0364  -30.2996   24.6260 C   0  0  0  0  0  0
  -27.6058  -32.4333   25.7517 C   0  0  0  0  0  0
  -27.5581  -37.1798   24.8464 C   0  0  0  0  0  0
  -21.4220  -29.3050   22.3646 N   0  0  0  0  0  0
  -26.4294  -37.3766   23.9405 N   0  0  0  0  0  0
  -24.7002  -31.0496   22.0986 N   0  0  0  0  0  0
  -23.4208  -28.8137   23.3009 O   0  0  0  0  0  0
  -28.2870  -26.3187   20.2043 O   0  0  0  0  0  0
  -26.5634  -34.8911   22.4664 O   0  0  0  0  0  0
  -23.5479  -32.1383   23.7274 O   0  0  0  0  0  0
  -31.0610  -19.5221   19.5613 C   0  0  0  0  0  0
  -29.9058  -19.7067   20.2981 C   0  0  0  0  0  0
  -30.1634  -17.3132   20.3707 C   0  0  0  0  0  0
  -28.8920  -23.6687   20.4395 C   0  0  0  0  0  0
  -31.9801  -20.5598   19.0022 C   0  0  0  0  0  0
  -27.2113  -21.8213   19.8830 C   0  0  0  0  0  0
  -29.2074  -22.1397   18.4321 C   0  0  0  0  0  0
  -28.0080  -24.8758   19.8438 C   0  0  0  0  0  0
  -28.7191  -22.1446   19.8960 C   0  0  0  0  0  0
  -29.4338  -18.4174   20.7646 N   0  0  0  0  0  0
  -29.3789  -21.0198   20.6963 N   0  0  0  0  0  0
  -29.8677  -15.8920   20.6914 N   0  0  0  0  0  0
  -29.7109  -23.8959   21.3360 O   0  0  0  0  0  0
  -31.5079  -17.8295   19.3602 S   0  0  0  0  0  0
  -31.4709  -12.5634   19.1774 H   0  0  0  0  0  0
  -30.3611  -11.4780   19.9633 H   0  0  0  0  0  0
  -29.7925  -11.7381   17.5217 H   0  0  0  0  0  0
  -29.6390  -13.4658   17.7267 H   0  0  0  0  0  0
  -27.8915  -11.2856   18.9099 H   0  0  0  0  0  0
  -27.3801  -12.5297   17.8001 H   0  0  0  0  0  0
  -27.6331  -14.2555   19.4677 H   0  0  0  0  0  0
  -28.7178  -12.1819   21.4354 H   0  0  0  0  0  0
  -28.4184  -13.8642   21.7921 H   0  0  0  0  0  0
  -25.2772   -9.5694   22.4752 H   0  0  0  0  0  0
  -24.0015   -7.4646   22.7467 H   0  0  0  0  0  0
  -21.0853   -8.8767   19.8950 H   0  0  0  0  0  0
  -22.3695  -10.9671   19.6164 H   0  0  0  0  0  0
  -21.2012   -7.6150   23.9712 H   0  0  0  0  0  0
  -21.1480   -6.0527   25.9074 H   0  0  0  0  0  0
  -22.0599   -2.7613   23.2847 H   0  0  0  0  0  0
  -22.4110  -11.9863   22.4814 H   0  0  0  0  0  0
  -21.1095  -13.1207   22.2625 H   0  0  0  0  0  0
  -24.6513  -15.8460   20.5205 H   0  0  0  0  0  0
  -26.2656  -15.6342   20.0747 H   0  0  0  0  0  0
  -26.7221  -32.5385   23.1082 H   0  0  0  0  0  0
  -25.0085  -33.9693   25.0398 H   0  0  0  0  0  0
  -22.7284  -31.3031   21.3995 H   0  0  0  0  0  0
  -23.3754  -35.9612   23.3297 H   0  0  0  0  0  0
  -24.3581  -36.8910   22.2055 H   0  0  0  0  0  0
  -23.7241  -37.6478   23.6670 H   0  0  0  0  0  0
  -26.1262  -31.5219   20.6184 H   0  0  0  0  0  0
  -26.8544  -30.8049   22.0231 H   0  0  0  0  0  0
  -28.1122  -28.8902   21.2338 H   0  0  0  0  0  0
  -25.9317  -25.9427   18.9286 H   0  0  0  0  0  0
  -23.9742  -27.3389   18.9648 H   0  0  0  0  0  0
  -23.7759  -30.5980   19.4056 H   0  0  0  0  0  0
  -22.7666  -29.2552   19.8500 H   0  0  0  0  0  0
  -25.1302  -36.1915   25.0815 H   0  0  0  0  0  0
  -21.0000  -28.3289   24.1380 H   0  0  0  0  0  0
  -20.5691  -26.2317   23.3614 H   0  0  0  0  0  0
  -21.6651  -26.7447   22.1193 H   0  0  0  0  0  0
  -19.6915  -25.6295   21.1249 H   0  0  0  0  0  0
  -19.6693  -27.3193   20.6737 H   0  0  0  0  0  0
  -17.4208  -26.6688   21.4028 H   0  0  0  0  0  0
  -18.0337  -26.0084   22.9027 H   0  0  0  0  0  0
  -19.7943  -30.7294   24.2244 H   0  0  0  0  0  0
  -17.5015  -31.6267   24.5173 H   0  0  0  0  0  0
  -15.5357  -30.2977   23.7667 H   0  0  0  0  0  0
  -15.8689  -28.0822   22.7062 H   0  0  0  0  0  0
  -24.5896  -30.7093   25.7771 H   0  0  0  0  0  0
  -24.8910  -32.2912   26.4867 H   0  0  0  0  0  0
  -25.8021  -30.8919   27.0241 H   0  0  0  0  0  0
  -26.2963  -29.6734   24.1262 H   0  0  0  0  0  0
  -27.4005  -29.7272   25.4803 H   0  0  0  0  0  0
  -27.8861  -30.4257   23.9545 H   0  0  0  0  0  0
  -27.2661  -33.3634   26.2087 H   0  0  0  0  0  0
  -28.3871  -32.6893   25.0349 H   0  0  0  0  0  0
  -28.0726  -31.8468   26.5441 H   0  0  0  0  0  0
  -28.2594  -38.0099   24.7512 H   0  0  0  0  0  0
  -28.1082  -36.2630   24.6292 H   0  0  0  0  0  0
  -27.2299  -37.1444   25.8868 H   0  0  0  0  0  0
  -20.9413  -29.8769   21.6844 H   0  0  0  0  0  0
  -26.0170  -38.2841   24.1403 H   0  0  0  0  0  0
  -31.9105  -21.4928   19.5617 H   0  0  0  0  0  0
  -31.7508  -20.7631   17.9563 H   0  0  0  0  0  0
  -33.0182  -20.2303   19.0543 H   0  0  0  0  0  0
  -26.6471  -22.5004   19.2419 H   0  0  0  0  0  0
  -26.7782  -21.8843   20.8826 H   0  0  0  0  0  0
  -27.0234  -20.8128   19.5115 H   0  0  0  0  0  0
  -28.5966  -22.7873   17.8020 H   0  0  0  0  0  0
  -29.1607  -21.1461   17.9856 H   0  0  0  0  0  0
  -30.2268  -22.5119   18.3438 H   0  0  0  0  0  0
  -26.9969  -24.6364   20.1701 H   0  0  0  0  0  0
  -28.0138  -24.7936   18.7572 H   0  0  0  0  0  0
  -28.9617  -20.9800   21.6202 H   0  0  0  0  0  0
  -28.9389  -15.7193   21.0396 H   0  0  0  0  0  0
  1 25  1  0  0  0
  1 30  2  0  0  0
  1 82  1  0  0  0
  2  3  1  0  0  0
  2 25  1  0  0  0
  2 85  1  0  0  0
  2 86  1  0  0  0
  3  4  1  0  0  0
  3 87  1  0  0  0
  3 88  1  0  0  0
  4  5  1  0  0  0
  4 89  1  0  0  0
  4 90  1  0  0  0
  5  6  1  0  0  0
  5 26  1  0  0  0
  5 91  1  0  0  0
  6 25  1  0  0  0
  6 92  1  0  0  0
  6 93  1  0  0  0
  7  8  2  0  0  0
  7 26  1  0  0  0
  7 29  1  0  0  0
  8  9  1  0  0  0
  8 22  1  0  0  0
  9 10  1  0  0  0
  9 27  2  0  0  0
 10 11  2  0  0  0
 10 15  1  0  0  0
 11 12  1  0  0  0
 11 94  1  0  0  0
 12 13  2  0  0  0
 12 95  1  0  0  0
 13 14  1  0  0  0
 13 31  1  0  0  0
 14 15  2  0  0  0
 14 96  1  0  0  0
 15 97  1  0  0  0
 16 17  2  0  0  0
 16 21  1  0  0  0
 16 31  1  0  0  0
 17 18  1  0  0  0
 17 98  1  0  0  0
 18 19  2  0  0  0
 18 99  1  0  0  0
 19 20  1  0  0  0
 19 24  1  0  0  0
 20 21  2  0  0  0
 20100  1  0  0  0
 21 23  1  0  0  0
 22 28  1  0  0  0
 22 32  2  0  0  0
 26 27  1  0  0  0
 28101  1  0  0  0
 28102  1  0  0  0
 29103  1  0  0  0
 29104  1  0  0  0
 33 34  1  0  0  0
 33 66  1  0  0  0
 33 70  2  0  0  0
 34 36  1  0  0  0
 34 59  1  0  0  0
 34105  1  0  0  0
 35 44  2  0  0  0
 35 45  1  0  0  0
 35 68  1  0  0  0
 36 56  1  0  0  0
 36106  1  0  0  0
 37 39  1  0  0  0
 37 47  1  0  0  0
 37 66  1  0  0  0
 37107  1  0  0  0
 38 43  2  0  0  0
 38 46  1  0  0  0
 38 47  1  0  0  0
 39 64  1  0  0  0
 39 67  2  0  0  0
 40 52  1  0  0  0
 40 53  2  0  0  0
 40 58  1  0  0  0
 41108  1  0  0  0
 41109  1  0  0  0
 41110  1  0  0  0
 41 48  1  0  0  0
 42 43  1  0  0  0
 42 66  1  0  0  0
 42111  1  0  0  0
 42112  1  0  0  0
 43 44  1  0  0  0
 44113  1  0  0  0
 45 46  2  0  0  0
 45114  1  0  0  0
 46115  1  0  0  0
 47116  1  0  0  0
 47117  1  0  0  0
 48 56  1  0  0  0
 48 65  1  0  0  0
 48118  1  0  0  0
 49 50  1  0  0  0
 49 53  1  0  0  0
 49 64  1  0  0  0
 49119  1  0  0  0
 50 51  1  0  0  0
 50120  1  0  0  0
 50121  1  0  0  0
 51 52  1  0  0  0
 51122  1  0  0  0
 51123  1  0  0  0
 52124  1  0  0  0
 52125  1  0  0  0
 53 54  1  0  0  0
 54 55  2  0  0  0
 54126  1  0  0  0
 55 57  1  0  0  0
 55127  1  0  0  0
 56 69  2  0  0  0
 57 58  2  0  0  0
 57128  1  0  0  0
 58129  1  0  0  0
 59 60  1  0  0  0
 59 61  1  0  0  0
 59 62  1  0  0  0
 60130  1  0  0  0
 60131  1  0  0  0
 60132  1  0  0  0
 61133  1  0  0  0
 61134  1  0  0  0
 61135  1  0  0  0
 62136  1  0  0  0
 62137  1  0  0  0
 62138  1  0  0  0
 63 65  1  0  0  0
 63139  1  0  0  0
 63140  1  0  0  0
 63141  1  0  0  0
 64142  1  0  0  0
 65143  1  0  0  0
 68 78  1  0  0  0
 71 72  2  0  0  0
 71 75  1  0  0  0
 71 84  1  0  0  0
 72 80  1  0  0  0
 72 81  1  0  0  0
 73 80  2  0  0  0
 73 82  1  0  0  0
 73 84  1  0  0  0
 74 78  1  0  0  0
 74 79  1  0  0  0
 74 83  2  0  0  0
 75144  1  0  0  0
 75145  1  0  0  0
 75146  1  0  0  0
 76147  1  0  0  0
 76148  1  0  0  0
 76149  1  0  0  0
 76 79  1  0  0  0
 77 79  1  0  0  0
 77150  1  0  0  0
 77151  1  0  0  0
 77152  1  0  0  0
 78153  1  0  0  0
 78154  1  0  0  0
 79 81  1  0  0  0
 81155  1  0  0  0
 82156  1  0  0  0
M  ISO  4   1 100  68 101  78 101  82 100
M  END
> <chiral flag>
0

> <version>
0

> <s_m_source_file>
/data/baiqing/PycharmProjects/Reinvent-master-3.2/result/LINK_invent/BTK/process_docking_weight1_custom_product_contain_oxygen_bond_distance_aromatic_linkinvent_7_9_3/rearranged_h_0169.sdf

> <i_m_source_file_index>
61

> <r_mmod_Potential_Energy-OPLS-2005>
112.072784423828

> <r_mmod_Stretch_Energy-OPLS-2005>
131.173309326172

> <r_mmod_Bend_Energy-OPLS-2005>
174.746795654297

> <r_mmod_Torsional_Energy-OPLS-2005>
233.036575317383

> <r_mmod_Improper_Torsional_Energy-OPLS-2005>
7.66964530944824

> <r_mmod_Van_der_Waal_Energy-OPLS-2005>
125.400001525879

> <r_mmod_Electrostatic_Energy-OPLS-2005>
-413.922668457031

> <r_mmod_Solvation_Energy-OPLS-2005>
-238.829605102539

> <b_mmod_Minimization_Converged-OPLS-2005>
0

> <r_mmod_RMS_Derivative-OPLS-2005>
0.785038471221924

$$$$
61
                    3D
 Structure written by MMmdl.
164172  0  0  1  0            999 V2000
  -30.7386  -14.4806   20.5210 C   0  0  0  0  0  0
  -30.4242  -12.2934   19.4272 C   0  0  0  0  0  0
  -29.5175  -12.5067   18.1995 C   0  0  0  0  0  0
  -28.0348  -12.3542   18.6012 C   0  0  0  0  0  0
  -27.6655  -13.2078   19.8476 C   0  0  2  0  0  0
  -28.7125  -13.0325   20.9737 C   0  0  0  0  0  0
  -25.2654  -13.8139   20.5623 C   0  0  0  0  0  0
  -24.1889  -13.0404   20.9103 C   0  0  0  0  0  0
  -24.6434  -11.6872   20.8634 C   0  0  0  0  0  0
  -23.9072  -10.4262   21.0315 C   0  0  0  0  0  0
  -24.3618   -9.4209   21.9131 C   0  0  0  0  0  0
  -23.6286   -8.2243   22.0741 C   0  0  0  0  0  0
  -22.4272   -8.0264   21.3517 C   0  0  0  0  0  0
  -21.9890   -9.0238   20.4631 C   0  0  0  0  0  0
  -22.7221  -10.2113   20.2984 C   0  0  0  0  0  0
  -21.6874   -6.0712   22.5269 C   0  0  0  0  0  0
  -21.4043   -6.5611   23.8217 C   0  0  0  0  0  0
  -21.3658   -5.6748   24.9169 C   0  0  0  0  0  0
  -21.6043   -4.3008   24.7219 C   0  0  0  0  0  0
  -21.8825   -3.8117   23.4325 C   0  0  0  0  0  0
  -21.9207   -4.6931   22.3385 C   0  0  0  0  0  0
  -22.7917  -13.5236   21.1731 C   0  0  0  0  0  0
  -22.1678   -4.2112   21.0952 F   0  0  0  0  0  0
  -21.5631   -3.4498   25.7729 F   0  0  0  0  0  0
  -30.0427  -13.3145   20.4114 N   0  0  0  0  0  0
  -26.3089  -12.9343   20.3207 N   0  0  0  0  0  0
  -25.9375  -11.6501   20.5598 N   0  0  0  0  0  0
  -22.0529  -12.8255   22.0268 N   0  0  0  0  0  0
  -25.4301  -15.1882   20.4065 N   0  0  0  0  0  0
  -31.8998  -14.5948   20.1216 O   0  0  0  0  0  0
  -21.6642   -6.8861   21.4212 O   0  0  0  0  0  0
  -22.3596  -14.5534   20.6541 O   0  0  0  0  0  0
  -24.6162  -31.8666   23.2150 C   0  0  0  0  0  0
  -25.9070  -32.4818   23.8412 C   0  0  1  0  0  0
  -27.2378  -27.4258   20.0692 C   0  0  0  0  0  0
  -25.5940  -33.8609   24.2345 N   0  0  0  0  0  0
  -23.4034  -30.4946   21.5517 C   0  0  2  0  0  0
  -24.8528  -28.9643   20.1108 C   0  0  0  0  0  0
  -22.7391  -29.4654   22.4954 C   0  0  0  0  0  0
  -18.0256  -28.1361   22.8481 C   0  0  0  0  0  0
  -24.1479  -36.7325   23.2637 C   0  0  0  0  0  0
  -25.9356  -30.8226   21.3777 C   0  0  0  0  0  0
  -26.0126  -29.4559   20.7239 C   0  0  0  0  0  0
  -27.2002  -28.6849   20.7209 C   0  0  0  0  0  0
  -26.0618  -26.9734   19.4374 C   0  0  0  0  0  0
  -24.8717  -27.7182   19.4655 C   0  0  0  0  0  0
  -23.6198  -29.8364   20.1617 C   0  0  0  0  0  0
  -25.4097  -36.3104   24.0335 C   0  0  1  0  0  0
  -20.5849  -28.3660   23.1302 C   0  0  2  0  0  0
  -20.6755  -26.9396   22.5400 C   0  0  0  0  0  0
  -19.5742  -26.6381   21.5172 C   0  0  0  0  0  0
  -18.1917  -26.7918   22.1595 C   0  0  0  0  0  0
  -19.1512  -28.8817   23.2900 C   0  0  0  0  0  0
  -18.9447  -30.1425   23.8920 C   0  0  0  0  0  0
  -17.6468  -30.6588   24.0534 C   0  0  0  0  0  0
  -25.9024  -34.9461   23.5115 C   0  0  0  0  0  0
  -16.5350  -29.9088   23.6307 C   0  0  0  0  0  0
  -16.7255  -28.6480   23.0353 C   0  0  0  0  0  0
  -26.4527  -31.6584   25.0733 C   0  0  0  0  0  0
  -25.3820  -31.3688   26.1473 C   0  0  0  0  0  0
  -27.0360  -30.3035   24.6105 C   0  0  0  0  0  0
  -27.6097  -32.4287   25.7485 C   0  0  0  0  0  0
  -27.5559  -37.1808   24.8447 C   0  0  0  0  0  0
  -21.4117  -29.3051   22.3714 N   0  0  0  0  0  0
  -26.4276  -37.3798   23.9413 N   0  0  0  0  0  0
  -24.6709  -31.0754   22.1075 N   0  0  0  0  0  0
  -23.4175  -28.8157   23.2959 O   0  0  0  0  0  0
  -28.4041  -26.6723   20.0996 O   0  0  0  0  0  0
  -26.5568  -34.8913   22.4653 O   0  0  0  0  0  0
  -23.5380  -32.1396   23.7558 O   0  0  0  0  0  0
  -29.9127  -18.0249   20.5288 C   0  0  0  0  0  0
  -31.7495  -17.0830   21.8284 C   0  0  0  0  0  0
  -30.4119  -19.3438   20.7484 C   0  0  0  0  0  0
  -30.5708  -16.8904   21.0719 C   0  0  0  0  0  0
  -31.5862  -19.5037   21.5229 C   0  0  0  0  0  0
  -32.2588  -18.3757   22.0436 C   0  0  0  0  0  0
  -28.6964  -21.2677   21.0814 C   0  0  0  0  0  0
  -27.8416  -20.3084   21.8770 C   0  0  0  0  0  0
  -26.9649  -23.7303   19.1800 C   0  0  0  0  0  0
  -29.7051  -20.5751   20.1484 C   0  0  0  0  0  0
  -29.1676  -23.6266   20.6016 C   0  0  0  0  0  0
  -28.6905  -25.7038   19.0621 C   0  0  0  0  0  0
  -28.4366  -24.1750   19.3379 C   0  0  2  0  0  0
  -28.4740  -22.5196   21.2574 N   0  0  0  0  0  0
  -32.0927  -20.7723   21.8062 N   0  0  0  0  0  0
  -30.0357  -15.5710   20.8895 N   0  0  0  0  0  0
  -33.3920  -18.5400   22.7724 F   0  0  0  0  0  0
  -31.4823  -12.3315   19.1557 H   0  0  0  0  0  0
  -30.2687  -11.2954   19.8418 H   0  0  0  0  0  0
  -29.7691  -11.7913   17.4162 H   0  0  0  0  0  0
  -29.6962  -13.5003   17.7747 H   0  0  0  0  0  0
  -27.8603  -11.2971   18.8078 H   0  0  0  0  0  0
  -27.3904  -12.6064   17.7555 H   0  0  0  0  0  0
  -27.6908  -14.2471   19.5212 H   0  0  0  0  0  0
  -28.6896  -12.0107   21.3579 H   0  0  0  0  0  0
  -28.4845  -13.6739   21.8248 H   0  0  0  0  0  0
  -25.2779   -9.5727   22.4673 H   0  0  0  0  0  0
  -23.9998   -7.4663   22.7479 H   0  0  0  0  0  0
  -21.0824   -8.8735   19.8967 H   0  0  0  0  0  0
  -22.3659  -10.9620   19.6050 H   0  0  0  0  0  0
  -21.2040   -7.6126   23.9705 H   0  0  0  0  0  0
  -21.1493   -6.0473   25.9056 H   0  0  0  0  0  0
  -22.0612   -2.7582   23.2821 H   0  0  0  0  0  0
  -22.4190  -12.0010   22.4824 H   0  0  0  0  0  0
  -21.1117  -13.1335   22.2334 H   0  0  0  0  0  0
  -24.6456  -15.8265   20.4915 H   0  0  0  0  0  0
  -26.2704  -15.6412   20.0750 H   0  0  0  0  0  0
  -26.7120  -32.5535   23.1161 H   0  0  0  0  0  0
  -25.0112  -33.9727   25.0510 H   0  0  0  0  0  0
  -22.6946  -31.3143   21.4171 H   0  0  0  0  0  0
  -23.3706  -35.9679   23.3291 H   0  0  0  0  0  0
  -24.3547  -36.8942   22.2043 H   0  0  0  0  0  0
  -23.7249  -37.6539   23.6650 H   0  0  0  0  0  0
  -26.0488  -31.5925   20.6122 H   0  0  0  0  0  0
  -26.8252  -30.8781   21.9917 H   0  0  0  0  0  0
  -28.0880  -29.0572   21.2153 H   0  0  0  0  0  0
  -26.0271  -26.0476   18.9012 H   0  0  0  0  0  0
  -23.9851  -27.3360   18.9805 H   0  0  0  0  0  0
  -23.7479  -30.6220   19.4152 H   0  0  0  0  0  0
  -22.7428  -29.2717   19.8426 H   0  0  0  0  0  0
  -25.1263  -36.1961   25.0833 H   0  0  0  0  0  0
  -20.9913  -28.3221   24.1429 H   0  0  0  0  0  0
  -20.5587  -26.2261   23.3586 H   0  0  0  0  0  0
  -21.6638  -26.7427   22.1233 H   0  0  0  0  0  0
  -19.6887  -25.6277   21.1208 H   0  0  0  0  0  0
  -19.6693  -27.3178   20.6693 H   0  0  0  0  0  0
  -17.4182  -26.6646   21.4005 H   0  0  0  0  0  0
  -18.0355  -26.0057   22.9004 H   0  0  0  0  0  0
  -19.7943  -30.7183   24.2322 H   0  0  0  0  0  0
  -17.5053  -31.6259   24.5154 H   0  0  0  0  0  0
  -15.5359  -30.3010   23.7616 H   0  0  0  0  0  0
  -15.8650  -28.0787   22.7112 H   0  0  0  0  0  0
  -24.5985  -30.7045   25.7829 H   0  0  0  0  0  0
  -24.9013  -32.2841   26.4937 H   0  0  0  0  0  0
  -25.8199  -30.8843   27.0214 H   0  0  0  0  0  0
  -26.2904  -29.6763   24.1225 H   0  0  0  0  0  0
  -27.4202  -29.7305   25.4558 H   0  0  0  0  0  0
  -27.8696  -30.4315   23.9202 H   0  0  0  0  0  0
  -27.2727  -33.3566   26.2094 H   0  0  0  0  0  0
  -28.3922  -32.6866   25.0349 H   0  0  0  0  0  0
  -28.0753  -31.8389   26.5387 H   0  0  0  0  0  0
  -28.2591  -38.0104   24.7501 H   0  0  0  0  0  0
  -28.1063  -36.2627   24.6280 H   0  0  0  0  0  0
  -27.2277  -37.1473   25.8857 H   0  0  0  0  0  0
  -20.9229  -29.8849   21.7030 H   0  0  0  0  0  0
  -26.0153  -38.2859   24.1450 H   0  0  0  0  0  0
  -29.0200  -17.8841   19.9341 H   0  0  0  0  0  0
  -32.2728  -16.2421   22.2587 H   0  0  0  0  0  0
  -28.3946  -19.9713   22.7534 H   0  0  0  0  0  0
  -27.5709  -19.4386   21.2813 H   0  0  0  0  0  0
  -26.9223  -20.7954   22.2096 H   0  0  0  0  0  0
  -26.8811  -22.6463   19.0963 H   0  0  0  0  0  0
  -26.5409  -24.1124   18.2512 H   0  0  0  0  0  0
  -26.3390  -24.0504   20.0145 H   0  0  0  0  0  0
  -29.1731  -20.2745   19.2448 H   0  0  0  0  0  0
  -30.4651  -21.2811   19.8056 H   0  0  0  0  0  0
  -29.2372  -24.4359   21.3300 H   0  0  0  0  0  0
  -30.2073  -23.3971   20.3753 H   0  0  0  0  0  0
  -28.2346  -26.0038   18.1163 H   0  0  0  0  0  0
  -29.7610  -25.8147   18.8798 H   0  0  0  0  0  0
  -28.9289  -23.6706   18.5066 H   0  0  0  0  0  0
  -31.4038  -21.5043   21.9418 H   0  0  0  0  0  0
  -32.8053  -20.7866   22.5315 H   0  0  0  0  0  0
  -29.0373  -15.4562   20.9711 H   0  0  0  0  0  0
  1 25  1  0  0  0
  1 30  2  0  0  0
  1 86  1  0  0  0
  2  3  1  0  0  0
  2 25  1  0  0  0
  2 88  1  0  0  0
  2 89  1  0  0  0
  3  4  1  0  0  0
  3 90  1  0  0  0
  3 91  1  0  0  0
  4  5  1  0  0  0
  4 92  1  0  0  0
  4 93  1  0  0  0
  5  6  1  0  0  0
  5 26  1  0  0  0
  5 94  1  0  0  0
  6 25  1  0  0  0
  6 95  1  0  0  0
  6 96  1  0  0  0
  7  8  2  0  0  0
  7 26  1  0  0  0
  7 29  1  0  0  0
  8  9  1  0  0  0
  8 22  1  0  0  0
  9 10  1  0  0  0
  9 27  2  0  0  0
 10 11  2  0  0  0
 10 15  1  0  0  0
 11 12  1  0  0  0
 11 97  1  0  0  0
 12 13  2  0  0  0
 12 98  1  0  0  0
 13 14  1  0  0  0
 13 31  1  0  0  0
 14 15  2  0  0  0
 14 99  1  0  0  0
 15100  1  0  0  0
 16 17  2  0  0  0
 16 21  1  0  0  0
 16 31  1  0  0  0
 17 18  1  0  0  0
 17101  1  0  0  0
 18 19  2  0  0  0
 18102  1  0  0  0
 19 20  1  0  0  0
 19 24  1  0  0  0
 20 21  2  0  0  0
 20103  1  0  0  0
 21 23  1  0  0  0
 22 28  1  0  0  0
 22 32  2  0  0  0
 26 27  1  0  0  0
 28104  1  0  0  0
 28105  1  0  0  0
 29106  1  0  0  0
 29107  1  0  0  0
 33 34  1  0  0  0
 33 66  1  0  0  0
 33 70  2  0  0  0
 34 36  1  0  0  0
 34 59  1  0  0  0
 34108  1  0  0  0
 35 44  2  0  0  0
 35 45  1  0  0  0
 35 68  1  0  0  0
 36 56  1  0  0  0
 36109  1  0  0  0
 37 39  1  0  0  0
 37 47  1  0  0  0
 37 66  1  0  0  0
 37110  1  0  0  0
 38 43  2  0  0  0
 38 46  1  0  0  0
 38 47  1  0  0  0
 39 64  1  0  0  0
 39 67  2  0  0  0
 40 52  1  0  0  0
 40 53  2  0  0  0
 40 58  1  0  0  0
 41111  1  0  0  0
 41112  1  0  0  0
 41113  1  0  0  0
 41 48  1  0  0  0
 42 43  1  0  0  0
 42 66  1  0  0  0
 42114  1  0  0  0
 42115  1  0  0  0
 43 44  1  0  0  0
 44116  1  0  0  0
 45 46  2  0  0  0
 45117  1  0  0  0
 46118  1  0  0  0
 47119  1  0  0  0
 47120  1  0  0  0
 48 56  1  0  0  0
 48 65  1  0  0  0
 48121  1  0  0  0
 49 50  1  0  0  0
 49 53  1  0  0  0
 49 64  1  0  0  0
 49122  1  0  0  0
 50 51  1  0  0  0
 50123  1  0  0  0
 50124  1  0  0  0
 51 52  1  0  0  0
 51125  1  0  0  0
 51126  1  0  0  0
 52127  1  0  0  0
 52128  1  0  0  0
 53 54  1  0  0  0
 54 55  2  0  0  0
 54129  1  0  0  0
 55 57  1  0  0  0
 55130  1  0  0  0
 56 69  2  0  0  0
 57 58  2  0  0  0
 57131  1  0  0  0
 58132  1  0  0  0
 59 60  1  0  0  0
 59 61  1  0  0  0
 59 62  1  0  0  0
 60133  1  0  0  0
 60134  1  0  0  0
 60135  1  0  0  0
 61136  1  0  0  0
 61137  1  0  0  0
 61138  1  0  0  0
 62139  1  0  0  0
 62140  1  0  0  0
 62141  1  0  0  0
 63 65  1  0  0  0
 63142  1  0  0  0
 63143  1  0  0  0
 63144  1  0  0  0
 64145  1  0  0  0
 65146  1  0  0  0
 68 82  1  0  0  0
 71 73  2  0  0  0
 71 74  1  0  0  0
 71147  1  0  0  0
 72 74  2  0  0  0
 72 76  1  0  0  0
 72148  1  0  0  0
 73 75  1  0  0  0
 73 80  1  0  0  0
 74 86  1  0  0  0
 75 76  2  0  0  0
 75 85  1  0  0  0
 76 87  1  0  0  0
 77 78  1  0  0  0
 77 80  1  0  0  0
 77 84  2  0  0  0
 78149  1  0  0  0
 78150  1  0  0  0
 78151  1  0  0  0
 79152  1  0  0  0
 79153  1  0  0  0
 79154  1  0  0  0
 79 83  1  0  0  0
 80155  1  0  0  0
 80156  1  0  0  0
 81 83  1  0  0  0
 81 84  1  0  0  0
 81157  1  0  0  0
 81158  1  0  0  0
 82 83  1  0  0  0
 82159  1  0  0  0
 82160  1  0  0  0
 83161  1  0  0  0
 85162  1  0  0  0
 85163  1  0  0  0
 86164  1  0  0  0
M  ISO  4   1 100  68 101  82 101  86 100
M  END
> <chiral flag>
0

> <version>
0

> <s_m_source_file>
/data/baiqing/PycharmProjects/Reinvent-master-3.2/result/LINK_invent/BTK/process_docking_weight1_custom_product_contain_oxygen_bond_distance_aromatic_linkinvent_7_9_3/rearranged_h_0169.sdf

> <i_m_source_file_index>
62

> <r_mmod_Potential_Energy-OPLS-2005>
-2.04876780509949

> <r_mmod_Stretch_Energy-OPLS-2005>
46.9609603881836

> <r_mmod_Bend_Energy-OPLS-2005>
139.858673095703

> <r_mmod_Torsional_Energy-OPLS-2005>
242.229827880859

> <r_mmod_Improper_Torsional_Energy-OPLS-2005>
9.36928558349609

> <r_mmod_Van_der_Waal_Energy-OPLS-2005>
158.884063720703

> <r_mmod_Electrostatic_Energy-OPLS-2005>
-398.752960205078

> <r_mmod_Solvation_Energy-OPLS-2005>
-219.700378417969

> <b_mmod_Minimization_Converged-OPLS-2005>
0

> <r_mmod_RMS_Derivative-OPLS-2005>
6.55301570892334

$$$$
62
                    3D
 Structure written by MMmdl.
160168  0  0  1  0            999 V2000
  -30.6767  -14.5058   20.5566 C   0  0  0  0  0  0
  -30.4236  -12.3243   19.4285 C   0  0  0  0  0  0
  -29.4952  -12.5052   18.2096 C   0  0  0  0  0  0
  -28.0190  -12.3514   18.6259 C   0  0  0  0  0  0
  -27.6590  -13.2036   19.8722 C   0  0  2  0  0  0
  -28.6982  -13.0003   20.9973 C   0  0  0  0  0  0
  -25.2599  -13.8173   20.5674 C   0  0  0  0  0  0
  -24.1835  -13.0441   20.9167 C   0  0  0  0  0  0
  -24.6381  -11.6909   20.8728 C   0  0  0  0  0  0
  -23.9054  -10.4292   21.0406 C   0  0  0  0  0  0
  -24.3612   -9.4211   21.9184 C   0  0  0  0  0  0
  -23.6288   -8.2249   22.0756 C   0  0  0  0  0  0
  -22.4273   -8.0279   21.3542 C   0  0  0  0  0  0
  -21.9906   -9.0258   20.4644 C   0  0  0  0  0  0
  -22.7233  -10.2134   20.3052 C   0  0  0  0  0  0
  -21.6852   -6.0732   22.5284 C   0  0  0  0  0  0
  -21.4013   -6.5640   23.8212 C   0  0  0  0  0  0
  -21.3659   -5.6791   24.9177 C   0  0  0  0  0  0
  -21.6042   -4.3057   24.7227 C   0  0  0  0  0  0
  -21.8820   -3.8146   23.4352 C   0  0  0  0  0  0
  -21.9192   -4.6963   22.3403 C   0  0  0  0  0  0
  -22.7858  -13.5244   21.1836 C   0  0  0  0  0  0
  -22.1661   -4.2148   21.0982 F   0  0  0  0  0  0
  -21.5631   -3.4538   25.7743 F   0  0  0  0  0  0
  -30.0244  -13.3156   20.4421 N   0  0  0  0  0  0
  -26.3010  -12.9315   20.3344 N   0  0  0  0  0  0
  -25.9306  -11.6483   20.5757 N   0  0  0  0  0  0
  -22.0504  -12.8225   22.0390 N   0  0  0  0  0  0
  -25.4352  -15.1886   20.4130 N   0  0  0  0  0  0
  -31.8066  -14.6800   20.0901 O   0  0  0  0  0  0
  -21.6636   -6.8877   21.4237 O   0  0  0  0  0  0
  -22.3548  -14.5560   20.6705 O   0  0  0  0  0  0
  -24.6163  -31.8662   23.2083 C   0  0  0  0  0  0
  -25.9028  -32.4822   23.8408 C   0  0  1  0  0  0
  -27.2351  -27.4144   20.0889 C   0  0  0  0  0  0
  -25.5843  -33.8619   24.2322 N   0  0  0  0  0  0
  -23.4060  -30.4968   21.5439 C   0  0  2  0  0  0
  -24.8519  -28.9615   20.1120 C   0  0  0  0  0  0
  -22.7436  -29.4659   22.4884 C   0  0  0  0  0  0
  -18.0284  -28.1384   22.8470 C   0  0  0  0  0  0
  -24.1484  -36.7322   23.2661 C   0  0  0  0  0  0
  -25.9369  -30.8321   21.3590 C   0  0  0  0  0  0
  -26.0137  -29.4638   20.7067 C   0  0  0  0  0  0
  -27.2050  -28.6975   20.6921 C   0  0  0  0  0  0
  -26.0386  -26.9241   19.5107 C   0  0  0  0  0  0
  -24.8586  -27.6900   19.5183 C   0  0  0  0  0  0
  -23.6208  -29.8384   20.1552 C   0  0  0  0  0  0
  -25.4100  -36.3123   24.0369 C   0  0  1  0  0  0
  -20.5880  -28.3680   23.1259 C   0  0  2  0  0  0
  -20.6756  -26.9394   22.5401 C   0  0  0  0  0  0
  -19.5728  -26.6366   21.5204 C   0  0  0  0  0  0
  -18.1910  -26.7924   22.1616 C   0  0  0  0  0  0
  -19.1540  -28.8839   23.2875 C   0  0  0  0  0  0
  -18.9475  -30.1439   23.8895 C   0  0  0  0  0  0
  -17.6477  -30.6576   24.0572 C   0  0  0  0  0  0
  -25.9019  -34.9485   23.5150 C   0  0  0  0  0  0
  -16.5363  -29.9104   23.6300 C   0  0  0  0  0  0
  -16.7284  -28.6531   23.0306 C   0  0  0  0  0  0
  -26.4449  -31.6634   25.0755 C   0  0  0  0  0  0
  -25.3723  -31.3741   26.1527 C   0  0  0  0  0  0
  -27.0316  -30.3100   24.6128 C   0  0  0  0  0  0
  -27.6021  -32.4374   25.7499 C   0  0  0  0  0  0
  -27.5590  -37.1829   24.8485 C   0  0  0  0  0  0
  -21.4160  -29.3052   22.3668 N   0  0  0  0  0  0
  -26.4296  -37.3802   23.9433 N   0  0  0  0  0  0
  -24.6716  -31.0795   22.0957 N   0  0  0  0  0  0
  -23.4211  -28.8177   23.2900 O   0  0  0  0  0  0
  -28.4277  -26.7045   20.1004 O   0  0  0  0  0  0
  -26.5616  -34.8935   22.4736 O   0  0  0  0  0  0
  -23.5348  -32.1401   23.7482 O   0  0  0  0  0  0
  -30.9636  -19.6711   20.9511 C   0  0  0  0  0  0
  -31.8672  -18.7324   21.4858 C   0  0  0  0  0  0
  -29.6929  -19.2612   20.4944 C   0  0  0  0  0  0
  -30.2923  -16.9151   21.0343 C   0  0  0  0  0  0
  -31.5312  -17.3660   21.5468 C   0  0  0  0  0  0
  -29.3679  -17.8737   20.5360 C   0  0  0  0  0  0
  -28.5581  -22.8092   19.7400 C   0  0  0  0  0  0
  -29.7084  -24.3037   21.4590 C   0  0  0  0  0  0
  -27.1988  -24.2261   21.3177 C   0  0  0  0  0  0
  -28.7144  -20.2967   19.9119 C   0  0  0  0  0  0
  -28.5449  -25.3944   19.4933 C   0  0  0  0  0  0
  -28.5057  -24.1822   20.4964 C   0  0  0  0  0  0
  -29.9428  -15.5247   21.0555 N   0  0  0  0  0  0
  -28.8404  -21.6793   20.4278 N   0  0  0  0  0  0
  -28.3050  -22.7614   18.5351 O   0  0  0  0  0  0
  -32.3975  -16.5008   22.1282 F   0  0  0  0  0  0
  -28.1619  -17.4499   20.0810 F   0  0  0  0  0  0
  -31.4676  -12.4308   19.1280 H   0  0  0  0  0  0
  -30.3321  -11.3162   19.8344 H   0  0  0  0  0  0
  -29.7435  -11.7798   17.4334 H   0  0  0  0  0  0
  -29.6511  -13.4889   17.7645 H   0  0  0  0  0  0
  -27.8440  -11.2958   18.8380 H   0  0  0  0  0  0
  -27.3616  -12.6058   17.7941 H   0  0  0  0  0  0
  -27.6981  -14.2473   19.5616 H   0  0  0  0  0  0
  -28.6839  -11.9666   21.3456 H   0  0  0  0  0  0
  -28.4543  -13.6056   21.8722 H   0  0  0  0  0  0
  -25.2762   -9.5689   22.4746 H   0  0  0  0  0  0
  -24.0000   -7.4638   22.7477 H   0  0  0  0  0  0
  -21.0839   -8.8775   19.8946 H   0  0  0  0  0  0
  -22.3702  -10.9670   19.6155 H   0  0  0  0  0  0
  -21.2008   -7.6146   23.9718 H   0  0  0  0  0  0
  -21.1476   -6.0521   25.9077 H   0  0  0  0  0  0
  -22.0600   -2.7610   23.2853 H   0  0  0  0  0  0
  -22.4122  -11.9880   22.4757 H   0  0  0  0  0  0
  -21.1128  -13.1248   22.2615 H   0  0  0  0  0  0
  -24.6726  -15.8457   20.5356 H   0  0  0  0  0  0
  -26.2936  -15.6342   20.1114 H   0  0  0  0  0  0
  -26.7136  -32.5521   23.1208 H   0  0  0  0  0  0
  -24.9952  -33.9779   25.0445 H   0  0  0  0  0  0
  -22.6965  -31.3159   21.4038 H   0  0  0  0  0  0
  -23.3729  -35.9668   23.3323 H   0  0  0  0  0  0
  -24.3581  -36.8931   22.2074 H   0  0  0  0  0  0
  -23.7248  -37.6540   23.6665 H   0  0  0  0  0  0
  -26.0500  -31.5963   20.5865 H   0  0  0  0  0  0
  -26.8234  -30.8843   21.9775 H   0  0  0  0  0  0
  -28.1046  -29.0890   21.1473 H   0  0  0  0  0  0
  -25.9708  -25.9459   19.0628 H   0  0  0  0  0  0
  -23.9587  -27.2883   19.0741 H   0  0  0  0  0  0
  -23.7555  -30.6203   19.4059 H   0  0  0  0  0  0
  -22.7390  -29.2806   19.8385 H   0  0  0  0  0  0
  -25.1269  -36.2007   25.0865 H   0  0  0  0  0  0
  -21.0013  -28.3272   24.1367 H   0  0  0  0  0  0
  -20.5570  -26.2328   23.3634 H   0  0  0  0  0  0
  -21.6629  -26.7358   22.1223 H   0  0  0  0  0  0
  -19.6858  -25.6270   21.1244 H   0  0  0  0  0  0
  -19.6644  -27.3166   20.6719 H   0  0  0  0  0  0
  -17.4169  -26.6691   21.4029 H   0  0  0  0  0  0
  -18.0288  -26.0087   22.9020 H   0  0  0  0  0  0
  -19.7959  -30.7253   24.2266 H   0  0  0  0  0  0
  -17.5037  -31.6242   24.5199 H   0  0  0  0  0  0
  -15.5366  -30.3009   23.7602 H   0  0  0  0  0  0
  -15.8697  -28.0877   22.6955 H   0  0  0  0  0  0
  -24.5890  -30.7073   25.7910 H   0  0  0  0  0  0
  -24.8891  -32.2886   26.4974 H   0  0  0  0  0  0
  -25.8081  -30.8958   27.0310 H   0  0  0  0  0  0
  -26.2876  -29.6844   24.1188 H   0  0  0  0  0  0
  -27.4125  -29.7374   25.4595 H   0  0  0  0  0  0
  -27.8675  -30.4445   23.9254 H   0  0  0  0  0  0
  -27.2649  -33.3692   26.2058 H   0  0  0  0  0  0
  -28.3816  -32.6895   25.0301 H   0  0  0  0  0  0
  -28.0696  -31.8511   26.5428 H   0  0  0  0  0  0
  -28.2612  -38.0119   24.7506 H   0  0  0  0  0  0
  -28.1071  -36.2649   24.6309 H   0  0  0  0  0  0
  -27.2321  -37.1486   25.8895 H   0  0  0  0  0  0
  -20.9320  -29.8966   21.7064 H   0  0  0  0  0  0
  -26.0188  -38.2892   24.1401 H   0  0  0  0  0  0
  -31.2543  -20.7107   20.8948 H   0  0  0  0  0  0
  -32.8251  -19.0638   21.8598 H   0  0  0  0  0  0
  -29.7086  -23.5275   22.2238 H   0  0  0  0  0  0
  -29.6888  -25.2626   21.9782 H   0  0  0  0  0  0
  -30.6592  -24.2437   20.9281 H   0  0  0  0  0  0
  -27.1550  -23.4118   22.0413 H   0  0  0  0  0  0
  -26.3176  -24.1435   20.6811 H   0  0  0  0  0  0
  -27.1105  -25.1573   21.8809 H   0  0  0  0  0  0
  -27.6922  -19.9636   20.0938 H   0  0  0  0  0  0
  -28.8439  -20.2819   18.8284 H   0  0  0  0  0  0
  -27.8636  -25.2596   18.6561 H   0  0  0  0  0  0
  -29.5210  -25.3910   19.0056 H   0  0  0  0  0  0
  -28.9847  -15.3131   21.2813 H   0  0  0  0  0  0
  -29.0558  -21.7768   21.4099 H   0  0  0  0  0  0
  1 25  1  0  0  0
  1 30  2  0  0  0
  1 83  1  0  0  0
  2  3  1  0  0  0
  2 25  1  0  0  0
  2 88  1  0  0  0
  2 89  1  0  0  0
  3  4  1  0  0  0
  3 90  1  0  0  0
  3 91  1  0  0  0
  4  5  1  0  0  0
  4 92  1  0  0  0
  4 93  1  0  0  0
  5  6  1  0  0  0
  5 26  1  0  0  0
  5 94  1  0  0  0
  6 25  1  0  0  0
  6 95  1  0  0  0
  6 96  1  0  0  0
  7  8  2  0  0  0
  7 26  1  0  0  0
  7 29  1  0  0  0
  8  9  1  0  0  0
  8 22  1  0  0  0
  9 10  1  0  0  0
  9 27  2  0  0  0
 10 11  2  0  0  0
 10 15  1  0  0  0
 11 12  1  0  0  0
 11 97  1  0  0  0
 12 13  2  0  0  0
 12 98  1  0  0  0
 13 14  1  0  0  0
 13 31  1  0  0  0
 14 15  2  0  0  0
 14 99  1  0  0  0
 15100  1  0  0  0
 16 17  2  0  0  0
 16 21  1  0  0  0
 16 31  1  0  0  0
 17 18  1  0  0  0
 17101  1  0  0  0
 18 19  2  0  0  0
 18102  1  0  0  0
 19 20  1  0  0  0
 19 24  1  0  0  0
 20 21  2  0  0  0
 20103  1  0  0  0
 21 23  1  0  0  0
 22 28  1  0  0  0
 22 32  2  0  0  0
 26 27  1  0  0  0
 28104  1  0  0  0
 28105  1  0  0  0
 29106  1  0  0  0
 29107  1  0  0  0
 33 34  1  0  0  0
 33 66  1  0  0  0
 33 70  2  0  0  0
 34 36  1  0  0  0
 34 59  1  0  0  0
 34108  1  0  0  0
 35 44  2  0  0  0
 35 45  1  0  0  0
 35 68  1  0  0  0
 36 56  1  0  0  0
 36109  1  0  0  0
 37 39  1  0  0  0
 37 47  1  0  0  0
 37 66  1  0  0  0
 37110  1  0  0  0
 38 43  2  0  0  0
 38 46  1  0  0  0
 38 47  1  0  0  0
 39 64  1  0  0  0
 39 67  2  0  0  0
 40 52  1  0  0  0
 40 53  2  0  0  0
 40 58  1  0  0  0
 41111  1  0  0  0
 41112  1  0  0  0
 41113  1  0  0  0
 41 48  1  0  0  0
 42 43  1  0  0  0
 42 66  1  0  0  0
 42114  1  0  0  0
 42115  1  0  0  0
 43 44  1  0  0  0
 44116  1  0  0  0
 45 46  2  0  0  0
 45117  1  0  0  0
 46118  1  0  0  0
 47119  1  0  0  0
 47120  1  0  0  0
 48 56  1  0  0  0
 48 65  1  0  0  0
 48121  1  0  0  0
 49 50  1  0  0  0
 49 53  1  0  0  0
 49 64  1  0  0  0
 49122  1  0  0  0
 50 51  1  0  0  0
 50123  1  0  0  0
 50124  1  0  0  0
 51 52  1  0  0  0
 51125  1  0  0  0
 51126  1  0  0  0
 52127  1  0  0  0
 52128  1  0  0  0
 53 54  1  0  0  0
 54 55  2  0  0  0
 54129  1  0  0  0
 55 57  1  0  0  0
 55130  1  0  0  0
 56 69  2  0  0  0
 57 58  2  0  0  0
 57131  1  0  0  0
 58132  1  0  0  0
 59 60  1  0  0  0
 59 61  1  0  0  0
 59 62  1  0  0  0
 60133  1  0  0  0
 60134  1  0  0  0
 60135  1  0  0  0
 61136  1  0  0  0
 61137  1  0  0  0
 61138  1  0  0  0
 62139  1  0  0  0
 62140  1  0  0  0
 62141  1  0  0  0
 63 65  1  0  0  0
 63142  1  0  0  0
 63143  1  0  0  0
 63144  1  0  0  0
 64145  1  0  0  0
 65146  1  0  0  0
 68 81  1  0  0  0
 71 72  2  0  0  0
 71 73  1  0  0  0
 71147  1  0  0  0
 72 75  1  0  0  0
 72148  1  0  0  0
 73 76  2  0  0  0
 73 80  1  0  0  0
 74 75  2  0  0  0
 74 76  1  0  0  0
 74 83  1  0  0  0
 75 86  1  0  0  0
 76 87  1  0  0  0
 77 82  1  0  0  0
 77 84  1  0  0  0
 77 85  2  0  0  0
 78149  1  0  0  0
 78150  1  0  0  0
 78151  1  0  0  0
 78 82  1  0  0  0
 79 82  1  0  0  0
 79152  1  0  0  0
 79153  1  0  0  0
 79154  1  0  0  0
 80 84  1  0  0  0
 80155  1  0  0  0
 80156  1  0  0  0
 81 82  1  0  0  0
 81157  1  0  0  0
 81158  1  0  0  0
 83159  1  0  0  0
 84160  1  0  0  0
M  ISO  4   1 100  68 101  81 101  83 100
M  END
> <chiral flag>
0

> <version>
0

> <s_m_source_file>
/data/baiqing/PycharmProjects/Reinvent-master-3.2/result/LINK_invent/BTK/process_docking_weight1_custom_product_contain_oxygen_bond_distance_aromatic_linkinvent_7_9_3/rearranged_h_0169.sdf

> <i_m_source_file_index>
63

> <r_mmod_Potential_Energy-OPLS-2005>
-160.97526550293

> <r_mmod_Stretch_Energy-OPLS-2005>
47.2344856262207

> <r_mmod_Bend_Energy-OPLS-2005>
109.285179138184

> <r_mmod_Torsional_Energy-OPLS-2005>
233.963760375977

> <r_mmod_Improper_Torsional_Energy-OPLS-2005>
4.53145265579224

> <r_mmod_Van_der_Waal_Energy-OPLS-2005>
158.939056396484

> <r_mmod_Electrostatic_Energy-OPLS-2005>
-514.262817382812

> <r_mmod_Solvation_Energy-OPLS-2005>
-216.80598449707

> <b_mmod_Minimization_Converged-OPLS-2005>
0

> <r_mmod_RMS_Derivative-OPLS-2005>
2.69264960289001

$$$$
63
                    3D
 Structure written by MMmdl.
158166  0  0  1  0            999 V2000
  -30.7236  -14.4875   20.5618 C   0  0  0  0  0  0
  -30.4153  -12.3164   19.4302 C   0  0  0  0  0  0
  -29.4931  -12.5032   18.2091 C   0  0  0  0  0  0
  -28.0154  -12.3630   18.6222 C   0  0  0  0  0  0
  -27.6581  -13.2147   19.8705 C   0  0  2  0  0  0
  -28.7018  -13.0290   20.9959 C   0  0  0  0  0  0
  -25.2574  -13.8179   20.5693 C   0  0  0  0  0  0
  -24.1832  -13.0445   20.9176 C   0  0  0  0  0  0
  -24.6398  -11.6915   20.8732 C   0  0  0  0  0  0
  -23.9064  -10.4294   21.0400 C   0  0  0  0  0  0
  -24.3615   -9.4213   21.9183 C   0  0  0  0  0  0
  -23.6292   -8.2248   22.0754 C   0  0  0  0  0  0
  -22.4273   -8.0282   21.3546 C   0  0  0  0  0  0
  -21.9910   -9.0253   20.4645 C   0  0  0  0  0  0
  -22.7237  -10.2134   20.3053 C   0  0  0  0  0  0
  -21.6855   -6.0738   22.5280 C   0  0  0  0  0  0
  -21.4013   -6.5640   23.8214 C   0  0  0  0  0  0
  -21.3658   -5.6793   24.9175 C   0  0  0  0  0  0
  -21.6043   -4.3055   24.7224 C   0  0  0  0  0  0
  -21.8820   -3.8148   23.4344 C   0  0  0  0  0  0
  -21.9192   -4.6966   22.3401 C   0  0  0  0  0  0
  -22.7853  -13.5240   21.1839 C   0  0  0  0  0  0
  -22.1664   -4.2152   21.0980 F   0  0  0  0  0  0
  -21.5627   -3.4539   25.7736 F   0  0  0  0  0  0
  -30.0302  -13.3216   20.4356 N   0  0  0  0  0  0
  -26.3012  -12.9366   20.3358 N   0  0  0  0  0  0
  -25.9329  -11.6518   20.5767 N   0  0  0  0  0  0
  -22.0487  -12.8229   22.0387 N   0  0  0  0  0  0
  -25.4284  -15.1903   20.4127 N   0  0  0  0  0  0
  -31.8525  -14.6249   20.0863 O   0  0  0  0  0  0
  -21.6640   -6.8879   21.4242 O   0  0  0  0  0  0
  -22.3539  -14.5546   20.6689 O   0  0  0  0  0  0
  -24.6161  -31.8670   23.2089 C   0  0  0  0  0  0
  -25.9046  -32.4819   23.8394 C   0  0  1  0  0  0
  -27.2321  -27.4261   20.0995 C   0  0  0  0  0  0
  -25.5895  -33.8616   24.2329 N   0  0  0  0  0  0
  -23.4055  -30.4903   21.5493 C   0  0  2  0  0  0
  -24.8543  -28.9576   20.1107 C   0  0  0  0  0  0
  -22.7424  -29.4650   22.4975 C   0  0  0  0  0  0
  -18.0271  -28.1383   22.8492 C   0  0  0  0  0  0
  -24.1484  -36.7308   23.2639 C   0  0  0  0  0  0
  -25.9356  -30.8314   21.3621 C   0  0  0  0  0  0
  -26.0158  -29.4661   20.7077 C   0  0  0  0  0  0
  -27.2124  -28.7084   20.6982 C   0  0  0  0  0  0
  -26.0591  -26.9391   19.4872 C   0  0  0  0  0  0
  -24.8715  -27.6941   19.4948 C   0  0  0  0  0  0
  -23.6147  -29.8233   20.1637 C   0  0  0  0  0  0
  -25.4106  -36.3107   24.0341 C   0  0  1  0  0  0
  -20.5867  -28.3666   23.1314 C   0  0  2  0  0  0
  -20.6763  -26.9402   22.5416 C   0  0  0  0  0  0
  -19.5740  -26.6392   21.5212 C   0  0  0  0  0  0
  -18.1919  -26.7929   22.1623 C   0  0  0  0  0  0
  -19.1524  -28.8841   23.2899 C   0  0  0  0  0  0
  -18.9450  -30.1447   23.8908 C   0  0  0  0  0  0
  -17.6452  -30.6584   24.0568 C   0  0  0  0  0  0
  -25.9034  -34.9473   23.5133 C   0  0  0  0  0  0
  -16.5343  -29.9086   23.6331 C   0  0  0  0  0  0
  -16.7260  -28.6505   23.0349 C   0  0  0  0  0  0
  -26.4474  -31.6591   25.0716 C   0  0  0  0  0  0
  -25.3742  -31.3683   26.1462 C   0  0  0  0  0  0
  -27.0307  -30.3040   24.6074 C   0  0  0  0  0  0
  -27.6048  -32.4307   25.7482 C   0  0  0  0  0  0
  -27.5579  -37.1812   24.8468 C   0  0  0  0  0  0
  -21.4147  -29.3032   22.3720 N   0  0  0  0  0  0
  -26.4291  -37.3791   23.9409 N   0  0  0  0  0  0
  -24.6710  -31.0767   22.0989 N   0  0  0  0  0  0
  -23.4193  -28.8187   23.3016 O   0  0  0  0  0  0
  -28.3469  -26.6167   20.1407 O   0  0  0  0  0  0
  -26.5591  -34.8923   22.4692 O   0  0  0  0  0  0
  -23.5350  -32.1418   23.7483 O   0  0  0  0  0  0
  -31.3035  -19.6160   21.4972 C   0  0  0  0  0  0
  -31.8681  -17.2462   21.3674 C   0  0  0  0  0  0
  -29.9307  -19.3191   21.3496 C   0  0  0  0  0  0
  -30.5028  -16.9034   21.2021 C   0  0  0  0  0  0
  -32.2620  -18.5892   21.5045 C   0  0  0  0  0  0
  -29.5414  -17.9512   21.2011 C   0  0  0  0  0  0
  -28.9564  -20.4322   21.4709 C   0  0  0  0  0  0
  -28.8916  -24.2129   20.7122 C   0  0  0  0  0  0
  -28.6018  -23.2359   23.0492 C   0  0  0  0  0  0
  -28.1699  -25.5354   21.0832 C   0  0  0  0  0  0
  -28.4816  -22.9505   21.5306 C   0  0  2  0  0  0
  -30.0549  -15.5365   21.0917 N   0  0  0  0  0  0
  -29.2560  -21.7229   21.1652 N   0  0  0  0  0  0
  -27.7490  -20.1969   21.9878 N   0  3  0  0  0  0
  -29.7532  -24.1748   19.8279 O   0  0  0  0  0  0
  -33.5713  -18.8957   21.6686 F   0  0  0  0  0  0
  -28.2304  -17.6165   21.0914 F   0  0  0  0  0  0
  -31.4613  -12.3969   19.1288 H   0  0  0  0  0  0
  -30.3046  -11.3126   19.8437 H   0  0  0  0  0  0
  -29.7368  -11.7726   17.4364 H   0  0  0  0  0  0
  -29.6608  -13.4858   17.7643 H   0  0  0  0  0  0
  -27.8300  -11.3083   18.8286 H   0  0  0  0  0  0
  -27.3638  -12.6267   17.7884 H   0  0  0  0  0  0
  -27.6921  -14.2581   19.5558 H   0  0  0  0  0  0
  -28.6801  -12.0041   21.3701 H   0  0  0  0  0  0
  -28.4652  -13.6599   21.8542 H   0  0  0  0  0  0
  -25.2763   -9.5690   22.4756 H   0  0  0  0  0  0
  -24.0002   -7.4640   22.7478 H   0  0  0  0  0  0
  -21.0841   -8.8766   19.8952 H   0  0  0  0  0  0
  -22.3693  -10.9668   19.6154 H   0  0  0  0  0  0
  -21.2006   -7.6151   23.9716 H   0  0  0  0  0  0
  -21.1478   -6.0524   25.9078 H   0  0  0  0  0  0
  -22.0599   -2.7612   23.2843 H   0  0  0  0  0  0
  -22.4091  -11.9881   22.4767 H   0  0  0  0  0  0
  -21.1106  -13.1260   22.2587 H   0  0  0  0  0  0
  -24.6617  -15.8438   20.5288 H   0  0  0  0  0  0
  -26.2863  -15.6384   20.1170 H   0  0  0  0  0  0
  -26.7120  -32.5532   23.1166 H   0  0  0  0  0  0
  -25.0063  -33.9778   25.0483 H   0  0  0  0  0  0
  -22.6941  -31.3072   21.4106 H   0  0  0  0  0  0
  -23.3744  -35.9642   23.3312 H   0  0  0  0  0  0
  -24.3580  -36.8905   22.2051 H   0  0  0  0  0  0
  -23.7236  -37.6519   23.6642 H   0  0  0  0  0  0
  -26.0474  -31.5966   20.5929 H   0  0  0  0  0  0
  -26.8244  -30.8879   21.9788 H   0  0  0  0  0  0
  -28.1064  -29.0902   21.1712 H   0  0  0  0  0  0
  -26.0600  -25.9651   19.0182 H   0  0  0  0  0  0
  -23.9796  -27.2983   19.0279 H   0  0  0  0  0  0
  -23.7211  -30.5983   19.4040 H   0  0  0  0  0  0
  -22.7391  -29.2424   19.8685 H   0  0  0  0  0  0
  -25.1286  -36.1975   25.0835 H   0  0  0  0  0  0
  -20.9967  -28.3229   24.1432 H   0  0  0  0  0  0
  -20.5673  -26.2268   23.3599 H   0  0  0  0  0  0
  -21.6631  -26.7447   22.1205 H   0  0  0  0  0  0
  -19.6898  -25.6309   21.1221 H   0  0  0  0  0  0
  -19.6680  -27.3220   20.6755 H   0  0  0  0  0  0
  -17.4194  -26.6682   21.4017 H   0  0  0  0  0  0
  -18.0314  -26.0069   22.9017 H   0  0  0  0  0  0
  -19.7926  -30.7261   24.2281 H   0  0  0  0  0  0
  -17.5008  -31.6265   24.5171 H   0  0  0  0  0  0
  -15.5345  -30.2994   23.7650 H   0  0  0  0  0  0
  -15.8658  -28.0832   22.7055 H   0  0  0  0  0  0
  -24.5921  -30.7024   25.7799 H   0  0  0  0  0  0
  -24.8924  -32.2828   26.4928 H   0  0  0  0  0  0
  -25.8102  -30.8843   27.0210 H   0  0  0  0  0  0
  -26.2848  -29.6799   24.1139 H   0  0  0  0  0  0
  -27.4106  -29.7269   25.4514 H   0  0  0  0  0  0
  -27.8667  -30.4375   23.9204 H   0  0  0  0  0  0
  -27.2677  -33.3604   26.2079 H   0  0  0  0  0  0
  -28.3854  -32.6870   25.0307 H   0  0  0  0  0  0
  -28.0724  -31.8416   26.5382 H   0  0  0  0  0  0
  -28.2607  -38.0102   24.7514 H   0  0  0  0  0  0
  -28.1065  -36.2632   24.6300 H   0  0  0  0  0  0
  -27.2295  -37.1473   25.8871 H   0  0  0  0  0  0
  -20.9307  -29.8756   21.6944 H   0  0  0  0  0  0
  -26.0179  -38.2869   24.1405 H   0  0  0  0  0  0
  -31.6427  -20.6307   21.6451 H   0  0  0  0  0  0
  -32.6395  -16.4943   21.4130 H   0  0  0  0  0  0
  -27.6482  -23.5787   23.4518 H   0  0  0  0  0  0
  -29.3456  -24.0020   23.2746 H   0  0  0  0  0  0
  -28.8873  -22.3536   23.6227 H   0  0  0  0  0  0
  -28.5416  -25.8720   22.0509 H   0  0  0  0  0  0
  -27.1143  -25.2995   21.2251 H   0  0  0  0  0  0
  -27.4347  -22.7452   21.3015 H   0  0  0  0  0  0
  -29.0882  -15.3700   21.3244 H   0  0  0  0  0  0
  -30.0938  -21.8948   20.6196 H   0  0  0  0  0  0
  -27.4652  -19.2383   22.1365 H   0  0  0  0  0  0
  -27.0829  -20.9362   22.1296 H   0  0  0  0  0  0
  1 25  1  0  0  0
  1 30  2  0  0  0
  1 82  1  0  0  0
  2  3  1  0  0  0
  2 25  1  0  0  0
  2 88  1  0  0  0
  2 89  1  0  0  0
  3  4  1  0  0  0
  3 90  1  0  0  0
  3 91  1  0  0  0
  4  5  1  0  0  0
  4 92  1  0  0  0
  4 93  1  0  0  0
  5  6  1  0  0  0
  5 26  1  0  0  0
  5 94  1  0  0  0
  6 25  1  0  0  0
  6 95  1  0  0  0
  6 96  1  0  0  0
  7  8  2  0  0  0
  7 26  1  0  0  0
  7 29  1  0  0  0
  8  9  1  0  0  0
  8 22  1  0  0  0
  9 10  1  0  0  0
  9 27  2  0  0  0
 10 11  2  0  0  0
 10 15  1  0  0  0
 11 12  1  0  0  0
 11 97  1  0  0  0
 12 13  2  0  0  0
 12 98  1  0  0  0
 13 14  1  0  0  0
 13 31  1  0  0  0
 14 15  2  0  0  0
 14 99  1  0  0  0
 15100  1  0  0  0
 16 17  2  0  0  0
 16 21  1  0  0  0
 16 31  1  0  0  0
 17 18  1  0  0  0
 17101  1  0  0  0
 18 19  2  0  0  0
 18102  1  0  0  0
 19 20  1  0  0  0
 19 24  1  0  0  0
 20 21  2  0  0  0
 20103  1  0  0  0
 21 23  1  0  0  0
 22 28  1  0  0  0
 22 32  2  0  0  0
 26 27  1  0  0  0
 28104  1  0  0  0
 28105  1  0  0  0
 29106  1  0  0  0
 29107  1  0  0  0
 33 34  1  0  0  0
 33 66  1  0  0  0
 33 70  2  0  0  0
 34 36  1  0  0  0
 34 59  1  0  0  0
 34108  1  0  0  0
 35 44  2  0  0  0
 35 45  1  0  0  0
 35 68  1  0  0  0
 36 56  1  0  0  0
 36109  1  0  0  0
 37 39  1  0  0  0
 37 47  1  0  0  0
 37 66  1  0  0  0
 37110  1  0  0  0
 38 43  2  0  0  0
 38 46  1  0  0  0
 38 47  1  0  0  0
 39 64  1  0  0  0
 39 67  2  0  0  0
 40 52  1  0  0  0
 40 53  2  0  0  0
 40 58  1  0  0  0
 41111  1  0  0  0
 41112  1  0  0  0
 41113  1  0  0  0
 41 48  1  0  0  0
 42 43  1  0  0  0
 42 66  1  0  0  0
 42114  1  0  0  0
 42115  1  0  0  0
 43 44  1  0  0  0
 44116  1  0  0  0
 45 46  2  0  0  0
 45117  1  0  0  0
 46118  1  0  0  0
 47119  1  0  0  0
 47120  1  0  0  0
 48 56  1  0  0  0
 48 65  1  0  0  0
 48121  1  0  0  0
 49 50  1  0  0  0
 49 53  1  0  0  0
 49 64  1  0  0  0
 49122  1  0  0  0
 50 51  1  0  0  0
 50123  1  0  0  0
 50124  1  0  0  0
 51 52  1  0  0  0
 51125  1  0  0  0
 51126  1  0  0  0
 52127  1  0  0  0
 52128  1  0  0  0
 53 54  1  0  0  0
 54 55  2  0  0  0
 54129  1  0  0  0
 55 57  1  0  0  0
 55130  1  0  0  0
 56 69  2  0  0  0
 57 58  2  0  0  0
 57131  1  0  0  0
 58132  1  0  0  0
 59 60  1  0  0  0
 59 61  1  0  0  0
 59 62  1  0  0  0
 60133  1  0  0  0
 60134  1  0  0  0
 60135  1  0  0  0
 61136  1  0  0  0
 61137  1  0  0  0
 61138  1  0  0  0
 62139  1  0  0  0
 62140  1  0  0  0
 62141  1  0  0  0
 63 65  1  0  0  0
 63142  1  0  0  0
 63143  1  0  0  0
 63144  1  0  0  0
 64145  1  0  0  0
 65146  1  0  0  0
 68 80  1  0  0  0
 71 73  2  0  0  0
 71 75  1  0  0  0
 71147  1  0  0  0
 72 74  1  0  0  0
 72 75  2  0  0  0
 72148  1  0  0  0
 73 76  1  0  0  0
 73 77  1  0  0  0
 74 76  2  0  0  0
 74 82  1  0  0  0
 75 86  1  0  0  0
 76 87  1  0  0  0
 77 83  1  0  0  0
 77 84  2  0  0  0
 78 80  1  0  0  0
 78 81  1  0  0  0
 78 85  2  0  0  0
 79149  1  0  0  0
 79150  1  0  0  0
 79151  1  0  0  0
 79 81  1  0  0  0
 80152  1  0  0  0
 80153  1  0  0  0
 81 83  1  0  0  0
 81154  1  0  0  0
 82155  1  0  0  0
 83156  1  0  0  0
 84157  1  0  0  0
 84158  1  0  0  0
M  CHG  1  84   1
M  ISO  4   1 100  68 101  80 101  82 100
M  END
> <chiral flag>
0

> <version>
0

> <s_m_source_file>
/data/baiqing/PycharmProjects/Reinvent-master-3.2/result/LINK_invent/BTK/process_docking_weight1_custom_product_contain_oxygen_bond_distance_aromatic_linkinvent_7_9_3/rearranged_h_0169.sdf

> <i_m_source_file_index>
64

> <r_mmod_Potential_Energy-OPLS-2005>
-334.577880859375

> <r_mmod_Stretch_Energy-OPLS-2005>
45.5238571166992

> <r_mmod_Bend_Energy-OPLS-2005>
98.3548583984375

> <r_mmod_Torsional_Energy-OPLS-2005>
238.191436767578

> <r_mmod_Improper_Torsional_Energy-OPLS-2005>
4.65830898284912

> <r_mmod_Van_der_Waal_Energy-OPLS-2005>
163.063812255859

> <r_mmod_Electrostatic_Energy-OPLS-2005>
-450.543273925781

> <r_mmod_Solvation_Energy-OPLS-2005>
-450.966247558594

> <b_mmod_Minimization_Converged-OPLS-2005>
0

> <r_mmod_RMS_Derivative-OPLS-2005>
0.698028564453125

$$$$
64
                    3D
 Structure written by MMmdl.
168176  0  0  1  0            999 V2000
  -30.7571  -14.4413   20.5702 C   0  0  0  0  0  0
  -30.3890  -12.2847   19.4322 C   0  0  0  0  0  0
  -29.4886  -12.5303   18.2058 C   0  0  0  0  0  0
  -28.0090  -12.3899   18.6006 C   0  0  0  0  0  0
  -27.6551  -13.2163   19.8666 C   0  0  2  0  0  0
  -28.6928  -13.0165   20.9994 C   0  0  0  0  0  0
  -25.2522  -13.8237   20.5583 C   0  0  0  0  0  0
  -24.1789  -13.0452   20.9111 C   0  0  0  0  0  0
  -24.6376  -11.6926   20.8678 C   0  0  0  0  0  0
  -23.9055  -10.4279   21.0387 C   0  0  0  0  0  0
  -24.3602   -9.4194   21.9188 C   0  0  0  0  0  0
  -23.6250   -8.2252   22.0829 C   0  0  0  0  0  0
  -22.4243   -8.0295   21.3606 C   0  0  0  0  0  0
  -21.9896   -9.0264   20.4672 C   0  0  0  0  0  0
  -22.7235  -10.2126   20.3034 C   0  0  0  0  0  0
  -21.6860   -6.0714   22.5276 C   0  0  0  0  0  0
  -21.4008   -6.5631   23.8200 C   0  0  0  0  0  0
  -21.3652   -5.6796   24.9171 C   0  0  0  0  0  0
  -21.6054   -4.3056   24.7211 C   0  0  0  0  0  0
  -21.8821   -3.8131   23.4339 C   0  0  0  0  0  0
  -21.9188   -4.6937   22.3396 C   0  0  0  0  0  0
  -22.7814  -13.5247   21.1758 C   0  0  0  0  0  0
  -22.1653   -4.2113   21.0964 F   0  0  0  0  0  0
  -21.5629   -3.4541   25.7727 F   0  0  0  0  0  0
  -30.0321  -13.2895   20.4540 N   0  0  0  0  0  0
  -26.2962  -12.9408   20.3259 N   0  0  0  0  0  0
  -25.9293  -11.6542   20.5672 N   0  0  0  0  0  0
  -22.0465  -12.8204   22.0312 N   0  0  0  0  0  0
  -25.4183  -15.1973   20.4029 N   0  0  0  0  0  0
  -31.8433  -14.5674   20.0001 O   0  0  0  0  0  0
  -21.6638   -6.8862   21.4251 O   0  0  0  0  0  0
  -22.3445  -14.5526   20.6636 O   0  0  0  0  0  0
  -24.6118  -31.8691   23.2109 C   0  0  0  0  0  0
  -25.8997  -32.4826   23.8430 C   0  0  1  0  0  0
  -27.2388  -27.4479   20.0700 C   0  0  0  0  0  0
  -25.5828  -33.8622   24.2307 N   0  0  0  0  0  0
  -23.3973  -30.4912   21.5566 C   0  0  2  0  0  0
  -24.8389  -28.9546   20.1215 C   0  0  0  0  0  0
  -22.7353  -29.4677   22.5074 C   0  0  0  0  0  0
  -18.0225  -28.1383   22.8519 C   0  0  0  0  0  0
  -24.1470  -36.7349   23.2643 C   0  0  0  0  0  0
  -25.9257  -30.8368   21.3602 C   0  0  0  0  0  0
  -26.0017  -29.4718   20.7073 C   0  0  0  0  0  0
  -27.2014  -28.7240   20.6816 C   0  0  0  0  0  0
  -26.0514  -26.9419   19.4910 C   0  0  0  0  0  0
  -24.8582  -27.6866   19.5155 C   0  0  0  0  0  0
  -23.5962  -29.8120   20.1775 C   0  0  0  0  0  0
  -25.4106  -36.3124   24.0308 C   0  0  1  0  0  0
  -20.5820  -28.3660   23.1383 C   0  0  2  0  0  0
  -20.6700  -26.9419   22.5447 C   0  0  0  0  0  0
  -19.5682  -26.6407   21.5232 C   0  0  0  0  0  0
  -18.1859  -26.7937   22.1641 C   0  0  0  0  0  0
  -19.1482  -28.8831   23.2928 C   0  0  0  0  0  0
  -18.9389  -30.1446   23.8931 C   0  0  0  0  0  0
  -17.6400  -30.6604   24.0574 C   0  0  0  0  0  0
  -25.9029  -34.9478   23.5118 C   0  0  0  0  0  0
  -16.5289  -29.9121   23.6337 C   0  0  0  0  0  0
  -16.7215  -28.6518   23.0373 C   0  0  0  0  0  0
  -26.4442  -31.6632   25.0771 C   0  0  0  0  0  0
  -25.3673  -31.3598   26.1482 C   0  0  0  0  0  0
  -27.0389  -30.3106   24.6164 C   0  0  0  0  0  0
  -27.5963  -32.4429   25.7568 C   0  0  0  0  0  0
  -27.5588  -37.1792   24.8439 C   0  0  0  0  0  0
  -21.4086  -29.3031   22.3799 N   0  0  0  0  0  0
  -26.4292  -37.3812   23.9403 N   0  0  0  0  0  0
  -24.6640  -31.0788   22.1007 N   0  0  0  0  0  0
  -23.4126  -28.8199   23.3112 O   0  0  0  0  0  0
  -28.4365  -26.7605   20.0642 O   0  0  0  0  0  0
  -26.5640  -34.8933   22.4708 O   0  0  0  0  0  0
  -23.5316  -32.1472   23.7489 O   0  0  0  0  0  0
  -29.6046  -19.1270   21.2022 C   0  0  0  0  0  0
  -30.5322  -20.6683   22.8515 C   0  0  0  0  0  0
  -30.4078  -18.0767   21.7162 C   0  0  0  0  0  0
  -31.3034  -18.3464   22.7925 C   0  0  0  0  0  0
  -29.6992  -20.4354   21.7407 C   0  0  0  0  0  0
  -31.3240  -19.6353   23.3846 C   0  0  0  0  0  0
  -30.5357  -16.8073   20.9679 C   0  0  0  0  0  0
  -30.2237  -15.5480   21.3656 C   0  0  0  0  0  0
  -34.6218  -16.3055   22.5849 C   0  0  0  0  0  0
  -28.1235  -24.3513   20.4720 C   0  0  0  0  0  0
  -27.8740  -21.7530   20.6640 C   0  0  0  0  0  0
  -35.3537  -15.7106   21.3898 C   0  0  0  0  0  0
  -32.3518  -17.3122   23.2137 C   0  0  0  0  0  0
  -27.5203  -23.0508   19.9017 C   0  0  0  0  0  0
  -33.6009  -17.4080   22.3147 C   0  0  0  0  0  0
  -28.5066  -25.4559   19.4680 C   0  0  0  0  0  0
  -32.1866  -19.9332   24.4428 N   0  0  0  0  0  0
  -29.1352  -21.5721   21.0969 N   0  0  0  0  0  0
  -34.8546  -15.9102   23.7289 O   0  0  0  0  0  0
  -28.2822  -24.5167   21.6878 O   0  0  0  0  0  0
  -26.9937  -20.9011   20.8239 O   0  0  0  0  0  0
  -31.4401  -12.3228   19.1393 H   0  0  0  0  0  0
  -30.2288  -11.2761   19.8216 H   0  0  0  0  0  0
  -29.7286  -11.8345   17.4039 H   0  0  0  0  0  0
  -29.6801  -13.5304   17.8140 H   0  0  0  0  0  0
  -27.7979  -11.3341   18.7645 H   0  0  0  0  0  0
  -27.3756  -12.6954   17.7652 H   0  0  0  0  0  0
  -27.6960  -14.2612   19.5631 H   0  0  0  0  0  0
  -28.6522  -11.9945   21.3794 H   0  0  0  0  0  0
  -28.4390  -13.6533   21.8477 H   0  0  0  0  0  0
  -25.2763   -9.5657   22.4754 H   0  0  0  0  0  0
  -23.9940   -7.4669   22.7597 H   0  0  0  0  0  0
  -21.0851   -8.8750   19.8967 H   0  0  0  0  0  0
  -22.3720  -10.9632   19.6109 H   0  0  0  0  0  0
  -21.2015   -7.6137   23.9674 H   0  0  0  0  0  0
  -21.1485   -6.0537   25.9085 H   0  0  0  0  0  0
  -22.0611   -2.7587   23.2845 H   0  0  0  0  0  0
  -22.4094  -11.9821   22.4609 H   0  0  0  0  0  0
  -21.1072  -13.1212   22.2538 H   0  0  0  0  0  0
  -24.6525  -15.8509   20.5357 H   0  0  0  0  0  0
  -26.2785  -15.6546   20.1268 H   0  0  0  0  0  0
  -26.7034  -32.5552   23.1214 H   0  0  0  0  0  0
  -24.9796  -33.9761   25.0328 H   0  0  0  0  0  0
  -22.6869  -31.3091   21.4159 H   0  0  0  0  0  0
  -23.3752  -35.9666   23.3234 H   0  0  0  0  0  0
  -24.3559  -36.9114   22.2089 H   0  0  0  0  0  0
  -23.7223  -37.6494   23.6774 H   0  0  0  0  0  0
  -26.0263  -31.5994   20.5878 H   0  0  0  0  0  0
  -26.8149  -30.8926   21.9756 H   0  0  0  0  0  0
  -28.1032  -29.1259   21.1267 H   0  0  0  0  0  0
  -26.0073  -25.9780   19.0102 H   0  0  0  0  0  0
  -23.9611  -27.2759   19.0710 H   0  0  0  0  0  0
  -23.6844  -30.5772   19.4069 H   0  0  0  0  0  0
  -22.7221  -29.2154   19.9069 H   0  0  0  0  0  0
  -25.1296  -36.1958   25.0802 H   0  0  0  0  0  0
  -20.9892  -28.3215   24.1514 H   0  0  0  0  0  0
  -20.5616  -26.2259   23.3601 H   0  0  0  0  0  0
  -21.6563  -26.7465   22.1259 H   0  0  0  0  0  0
  -19.6838  -25.6330   21.1233 H   0  0  0  0  0  0
  -19.6616  -27.3216   20.6777 H   0  0  0  0  0  0
  -17.4148  -26.6718   21.4021 H   0  0  0  0  0  0
  -18.0205  -26.0092   22.9041 H   0  0  0  0  0  0
  -19.7886  -30.7231   24.2337 H   0  0  0  0  0  0
  -17.4974  -31.6294   24.5193 H   0  0  0  0  0  0
  -15.5278  -30.3003   23.7672 H   0  0  0  0  0  0
  -15.8604  -28.0811   22.7101 H   0  0  0  0  0  0
  -24.5970  -30.6837   25.7744 H   0  0  0  0  0  0
  -24.8674  -32.2638   26.4909 H   0  0  0  0  0  0
  -25.8049  -30.8804   27.0230 H   0  0  0  0  0  0
  -26.2958  -29.6771   24.1281 H   0  0  0  0  0  0
  -27.4253  -29.7465   25.4656 H   0  0  0  0  0  0
  -27.8738  -30.4515   23.9307 H   0  0  0  0  0  0
  -27.2539  -33.3764   26.2046 H   0  0  0  0  0  0
  -28.3816  -32.6910   25.0415 H   0  0  0  0  0  0
  -28.0575  -31.8619   26.5574 H   0  0  0  0  0  0
  -28.2503  -38.0179   24.7644 H   0  0  0  0  0  0
  -28.1202  -36.2705   24.6153 H   0  0  0  0  0  0
  -27.2276  -37.1331   25.8822 H   0  0  0  0  0  0
  -20.9214  -29.8809   21.7082 H   0  0  0  0  0  0
  -26.0179  -38.2872   24.1480 H   0  0  0  0  0  0
  -28.9895  -18.9515   20.3271 H   0  0  0  0  0  0
  -30.6081  -21.6648   23.2630 H   0  0  0  0  0  0
  -31.0412  -16.9339   20.0207 H   0  0  0  0  0  0
  -29.6792  -15.3705   22.2795 H   0  0  0  0  0  0
  -35.1942  -16.3089   20.4915 H   0  0  0  0  0  0
  -34.9864  -14.7018   21.1997 H   0  0  0  0  0  0
  -36.4258  -15.6594   21.5865 H   0  0  0  0  0  0
  -31.9404  -16.3046   23.1892 H   0  0  0  0  0  0
  -32.6296  -17.4543   24.2586 H   0  0  0  0  0  0
  -27.8106  -22.9348   18.8576 H   0  0  0  0  0  0
  -26.4379  -23.1744   19.8985 H   0  0  0  0  0  0
  -33.3177  -17.3555   21.2640 H   0  0  0  0  0  0
  -34.0822  -18.3780   22.4541 H   0  0  0  0  0  0
  -27.9296  -25.3816   18.5480 H   0  0  0  0  0  0
  -29.5424  -25.2875   19.1750 H   0  0  0  0  0  0
  -32.4220  -20.9027   24.6237 H   0  0  0  0  0  0
  -32.9689  -19.3087   24.6004 H   0  0  0  0  0  0
  -29.7529  -22.3715   21.0152 H   0  0  0  0  0  0
  1 25  1  0  0  0
  1 30  2  0  0  0
  1 78  1  0  0  0
  2  3  1  0  0  0
  2 25  1  0  0  0
  2 92  1  0  0  0
  2 93  1  0  0  0
  3  4  1  0  0  0
  3 94  1  0  0  0
  3 95  1  0  0  0
  4  5  1  0  0  0
  4 96  1  0  0  0
  4 97  1  0  0  0
  5  6  1  0  0  0
  5 26  1  0  0  0
  5 98  1  0  0  0
  6 25  1  0  0  0
  6 99  1  0  0  0
  6100  1  0  0  0
  7  8  2  0  0  0
  7 26  1  0  0  0
  7 29  1  0  0  0
  8  9  1  0  0  0
  8 22  1  0  0  0
  9 10  1  0  0  0
  9 27  2  0  0  0
 10 11  2  0  0  0
 10 15  1  0  0  0
 11 12  1  0  0  0
 11101  1  0  0  0
 12 13  2  0  0  0
 12102  1  0  0  0
 13 14  1  0  0  0
 13 31  1  0  0  0
 14 15  2  0  0  0
 14103  1  0  0  0
 15104  1  0  0  0
 16 17  2  0  0  0
 16 21  1  0  0  0
 16 31  1  0  0  0
 17 18  1  0  0  0
 17105  1  0  0  0
 18 19  2  0  0  0
 18106  1  0  0  0
 19 20  1  0  0  0
 19 24  1  0  0  0
 20 21  2  0  0  0
 20107  1  0  0  0
 21 23  1  0  0  0
 22 28  1  0  0  0
 22 32  2  0  0  0
 26 27  1  0  0  0
 28108  1  0  0  0
 28109  1  0  0  0
 29110  1  0  0  0
 29111  1  0  0  0
 33 34  1  0  0  0
 33 66  1  0  0  0
 33 70  2  0  0  0
 34 36  1  0  0  0
 34 59  1  0  0  0
 34112  1  0  0  0
 35 44  2  0  0  0
 35 45  1  0  0  0
 35 68  1  0  0  0
 36 56  1  0  0  0
 36113  1  0  0  0
 37 39  1  0  0  0
 37 47  1  0  0  0
 37 66  1  0  0  0
 37114  1  0  0  0
 38 43  2  0  0  0
 38 46  1  0  0  0
 38 47  1  0  0  0
 39 64  1  0  0  0
 39 67  2  0  0  0
 40 52  1  0  0  0
 40 53  2  0  0  0
 40 58  1  0  0  0
 41115  1  0  0  0
 41116  1  0  0  0
 41117  1  0  0  0
 41 48  1  0  0  0
 42 43  1  0  0  0
 42 66  1  0  0  0
 42118  1  0  0  0
 42119  1  0  0  0
 43 44  1  0  0  0
 44120  1  0  0  0
 45 46  2  0  0  0
 45121  1  0  0  0
 46122  1  0  0  0
 47123  1  0  0  0
 47124  1  0  0  0
 48 56  1  0  0  0
 48 65  1  0  0  0
 48125  1  0  0  0
 49 50  1  0  0  0
 49 53  1  0  0  0
 49 64  1  0  0  0
 49126  1  0  0  0
 50 51  1  0  0  0
 50127  1  0  0  0
 50128  1  0  0  0
 51 52  1  0  0  0
 51129  1  0  0  0
 51130  1  0  0  0
 52131  1  0  0  0
 52132  1  0  0  0
 53 54  1  0  0  0
 54 55  2  0  0  0
 54133  1  0  0  0
 55 57  1  0  0  0
 55134  1  0  0  0
 56 69  2  0  0  0
 57 58  2  0  0  0
 57135  1  0  0  0
 58136  1  0  0  0
 59 60  1  0  0  0
 59 61  1  0  0  0
 59 62  1  0  0  0
 60137  1  0  0  0
 60138  1  0  0  0
 60139  1  0  0  0
 61140  1  0  0  0
 61141  1  0  0  0
 61142  1  0  0  0
 62143  1  0  0  0
 62144  1  0  0  0
 62145  1  0  0  0
 63 65  1  0  0  0
 63146  1  0  0  0
 63147  1  0  0  0
 63148  1  0  0  0
 64149  1  0  0  0
 65150  1  0  0  0
 68 86  1  0  0  0
 71 73  2  0  0  0
 71 75  1  0  0  0
 71151  1  0  0  0
 72 75  2  0  0  0
 72 76  1  0  0  0
 72152  1  0  0  0
 73 74  1  0  0  0
 73 77  1  0  0  0
 74 76  2  0  0  0
 74 83  1  0  0  0
 75 88  1  0  0  0
 76 87  1  0  0  0
 77 78  2  0  0  0
 77153  1  0  0  0
 78154  1  0  0  0
 79 82  1  0  0  0
 79 85  1  0  0  0
 79 89  2  0  0  0
 80 84  1  0  0  0
 80 86  1  0  0  0
 80 90  2  0  0  0
 81 84  1  0  0  0
 81 88  1  0  0  0
 81 91  2  0  0  0
 82155  1  0  0  0
 82156  1  0  0  0
 82157  1  0  0  0
 83 85  1  0  0  0
 83158  1  0  0  0
 83159  1  0  0  0
 84160  1  0  0  0
 84161  1  0  0  0
 85162  1  0  0  0
 85163  1  0  0  0
 86164  1  0  0  0
 86165  1  0  0  0
 87166  1  0  0  0
 87167  1  0  0  0
 88168  1  0  0  0
M  ISO  4   1 100  68 101  78 100  86 101
M  END
> <chiral flag>
0

> <version>
0

> <s_m_source_file>
/data/baiqing/PycharmProjects/Reinvent-master-3.2/result/LINK_invent/BTK/process_docking_weight1_custom_product_contain_oxygen_bond_distance_aromatic_linkinvent_7_9_3/rearranged_h_0169.sdf

> <i_m_source_file_index>
65

> <r_mmod_Potential_Energy-OPLS-2005>
-70.3099212646484

> <r_mmod_Stretch_Energy-OPLS-2005>
41.3033180236816

> <r_mmod_Bend_Energy-OPLS-2005>
122.089637756348

> <r_mmod_Torsional_Energy-OPLS-2005>
244.299423217773

> <r_mmod_Improper_Torsional_Energy-OPLS-2005>
11.1836376190186

> <r_mmod_Van_der_Waal_Energy-OPLS-2005>
160.25114440918

> <r_mmod_Electrostatic_Energy-OPLS-2005>
-402.036193847656

> <r_mmod_Solvation_Energy-OPLS-2005>
-259.748016357422

> <b_mmod_Minimization_Converged-OPLS-2005>
0

> <r_mmod_RMS_Derivative-OPLS-2005>
5.65311813354492

$$$$
65
                    3D
 Structure written by MMmdl.
167175  0  0  1  0            999 V2000
  -30.7050  -14.6005   20.2698 C   0  0  0  0  0  0
  -30.4079  -12.3325   19.3991 C   0  0  0  0  0  0
  -29.4642  -12.4195   18.1846 C   0  0  0  0  0  0
  -27.9959  -12.3144   18.6356 C   0  0  0  0  0  0
  -27.6464  -13.2028   19.8603 C   0  0  2  0  0  0
  -28.7314  -13.1453   20.9533 C   0  0  0  0  0  0
  -25.2604  -13.8163   20.5883 C   0  0  0  0  0  0
  -24.1830  -13.0464   20.9284 C   0  0  0  0  0  0
  -24.6383  -11.6911   20.8844 C   0  0  0  0  0  0
  -23.9066  -10.4305   21.0467 C   0  0  0  0  0  0
  -24.3614   -9.4214   21.9242 C   0  0  0  0  0  0
  -23.6292   -8.2252   22.0785 C   0  0  0  0  0  0
  -22.4277   -8.0296   21.3563 C   0  0  0  0  0  0
  -21.9922   -9.0281   20.4670 C   0  0  0  0  0  0
  -22.7254  -10.2163   20.3095 C   0  0  0  0  0  0
  -21.6855   -6.0758   22.5294 C   0  0  0  0  0  0
  -21.4017   -6.5671   23.8220 C   0  0  0  0  0  0
  -21.3647   -5.6828   24.9192 C   0  0  0  0  0  0
  -21.6015   -4.3075   24.7235 C   0  0  0  0  0  0
  -21.8836   -3.8172   23.4358 C   0  0  0  0  0  0
  -21.9205   -4.6993   22.3415 C   0  0  0  0  0  0
  -22.7843  -13.5276   21.1861 C   0  0  0  0  0  0
  -22.1676   -4.2180   21.0992 F   0  0  0  0  0  0
  -21.5612   -3.4551   25.7742 F   0  0  0  0  0  0
  -30.0122  -13.4248   20.2949 N   0  0  0  0  0  0
  -26.3036  -12.9308   20.3586 N   0  0  0  0  0  0
  -25.9326  -11.6474   20.5949 N   0  0  0  0  0  0
  -22.0460  -12.8255   22.0365 N   0  0  0  0  0  0
  -25.4280  -15.1909   20.4314 N   0  0  0  0  0  0
  -31.9180  -14.6074   20.4640 O   0  0  0  0  0  0
  -21.6648   -6.8891   21.4240 O   0  0  0  0  0  0
  -22.3538  -14.5567   20.6656 O   0  0  0  0  0  0
  -24.6199  -31.8681   23.2076 C   0  0  0  0  0  0
  -25.9086  -32.4806   23.8393 C   0  0  1  0  0  0
  -27.2213  -27.3996   20.0978 C   0  0  0  0  0  0
  -25.5931  -33.8606   24.2344 N   0  0  0  0  0  0
  -23.4077  -30.4943   21.5496 C   0  0  2  0  0  0
  -24.8524  -28.9578   20.1162 C   0  0  0  0  0  0
  -22.7423  -29.4688   22.4973 C   0  0  0  0  0  0
  -18.0300  -28.1359   22.8488 C   0  0  0  0  0  0
  -24.1494  -36.7305   23.2634 C   0  0  0  0  0  0
  -25.9439  -30.8228   21.3697 C   0  0  0  0  0  0
  -26.0189  -29.4590   20.7054 C   0  0  0  0  0  0
  -27.2131  -28.6932   20.6866 C   0  0  0  0  0  0
  -26.0397  -26.9337   19.4842 C   0  0  0  0  0  0
  -24.8584  -27.6951   19.5020 C   0  0  0  0  0  0
  -23.6169  -29.8283   20.1654 C   0  0  0  0  0  0
  -25.4122  -36.3097   24.0332 C   0  0  1  0  0  0
  -20.5899  -28.3678   23.1279 C   0  0  2  0  0  0
  -20.6823  -26.9415   22.5355 C   0  0  0  0  0  0
  -19.5788  -26.6438   21.5149 C   0  0  0  0  0  0
  -18.1960  -26.7943   22.1537 C   0  0  0  0  0  0
  -19.1561  -28.8817   23.2910 C   0  0  0  0  0  0
  -18.9475  -30.1397   23.8981 C   0  0  0  0  0  0
  -17.6475  -30.6530   24.0627 C   0  0  0  0  0  0
  -25.9064  -34.9464   23.5132 C   0  0  0  0  0  0
  -16.5368  -29.9065   23.6324 C   0  0  0  0  0  0
  -16.7275  -28.6479   23.0344 C   0  0  0  0  0  0
  -26.4512  -31.6595   25.0757 C   0  0  0  0  0  0
  -25.3744  -31.3742   26.1483 C   0  0  0  0  0  0
  -27.0369  -30.3013   24.6203 C   0  0  0  0  0  0
  -27.6069  -32.4337   25.7527 C   0  0  0  0  0  0
  -27.5593  -37.1805   24.8472 C   0  0  0  0  0  0
  -21.4139  -29.3104   22.3747 N   0  0  0  0  0  0
  -26.4307  -37.3781   23.9396 N   0  0  0  0  0  0
  -24.6760  -31.0757   22.0991 N   0  0  0  0  0  0
  -23.4211  -28.8226   23.3010 O   0  0  0  0  0  0
  -28.3278  -26.5652   20.1435 O   0  0  0  0  0  0
  -26.5617  -34.8935   22.4699 O   0  0  0  0  0  0
  -23.5389  -32.1458   23.7440 O   0  0  0  0  0  0
  -28.2150  -16.5504   18.6308 C   0  0  0  0  0  0
  -27.3218  -17.6205   18.5095 C   0  0  0  0  0  0
  -29.6497  -17.8860   20.0981 C   0  0  0  0  0  0
  -28.7502  -19.0077   19.9580 C   0  0  0  0  0  0
  -29.3555  -16.6270   19.4573 C   0  0  0  0  0  0
  -27.5736  -18.8253   19.1773 C   0  0  0  0  0  0
  -28.6986  -21.3887   20.0876 C   0  0  0  0  0  0
  -28.8313  -24.0565   20.3298 C   0  0  0  0  0  0
  -31.9884  -18.9197   20.1889 C   0  0  0  0  0  0
  -31.1326  -15.6526   18.1454 C   0  0  0  0  0  0
  -27.5753  -22.5040   23.2397 C   0  0  0  0  0  0
  -30.9382  -18.0591   20.9044 C   0  0  0  0  0  0
  -28.0551  -25.3104   20.8387 C   0  0  0  0  0  0
  -28.3178  -22.6708   20.8696 C   0  0  2  0  0  0
  -28.9419  -20.2468   20.6500 N   0  0  0  0  0  0
  -30.2654  -15.5085   19.3273 N   0  0  0  0  0  0
  -28.7056  -22.4977   22.2864 N   0  3  0  0  0  0
  -29.8049  -24.1921   19.5777 O   0  0  0  0  0  0
  -26.6514  -19.8151   19.0680 F   0  0  0  0  0  0
  -31.4481  -12.4137   19.0797 H   0  0  0  0  0  0
  -30.3166  -11.3643   19.8948 H   0  0  0  0  0  0
  -29.6899  -11.6232   17.4720 H   0  0  0  0  0  0
  -29.6134  -13.3556   17.6471 H   0  0  0  0  0  0
  -27.8127  -11.2696   18.8839 H   0  0  0  0  0  0
  -27.3307  -12.5424   17.8031 H   0  0  0  0  0  0
  -27.6321  -14.2196   19.5040 H   0  0  0  0  0  0
  -28.7581  -12.1610   21.4232 H   0  0  0  0  0  0
  -28.5394  -13.8677   21.7476 H   0  0  0  0  0  0
  -25.2756   -9.5704   22.4824 H   0  0  0  0  0  0
  -24.0013   -7.4651   22.7503 H   0  0  0  0  0  0
  -21.0870   -8.8807   19.8968 H   0  0  0  0  0  0
  -22.3732  -10.9714   19.6201 H   0  0  0  0  0  0
  -21.2006   -7.6177   23.9746 H   0  0  0  0  0  0
  -21.1435   -6.0546   25.9101 H   0  0  0  0  0  0
  -22.0609   -2.7632   23.2861 H   0  0  0  0  0  0
  -22.4046  -11.9884   22.4702 H   0  0  0  0  0  0
  -21.1078  -13.1247   22.2592 H   0  0  0  0  0  0
  -24.6497  -15.8325   20.5430 H   0  0  0  0  0  0
  -26.2915  -15.6468   20.1673 H   0  0  0  0  0  0
  -26.7160  -32.5527   23.1154 H   0  0  0  0  0  0
  -25.0019  -33.9738   25.0445 H   0  0  0  0  0  0
  -22.7072  -31.3192   21.4129 H   0  0  0  0  0  0
  -23.3753  -35.9636   23.3311 H   0  0  0  0  0  0
  -24.3581  -36.8918   22.2046 H   0  0  0  0  0  0
  -23.7266  -37.6519   23.6657 H   0  0  0  0  0  0
  -26.0783  -31.5979   20.6117 H   0  0  0  0  0  0
  -26.8204  -30.8606   22.0030 H   0  0  0  0  0  0
  -28.1098  -29.0783   21.1473 H   0  0  0  0  0  0
  -26.0216  -25.9645   19.0085 H   0  0  0  0  0  0
  -23.9608  -27.2962   19.0532 H   0  0  0  0  0  0
  -23.7334  -30.6091   19.4126 H   0  0  0  0  0  0
  -22.7384  -29.2520   19.8588 H   0  0  0  0  0  0
  -25.1302  -36.1952   25.0821 H   0  0  0  0  0  0
  -20.9978  -28.3279   24.1407 H   0  0  0  0  0  0
  -20.5709  -26.2290   23.3545 H   0  0  0  0  0  0
  -21.6702  -26.7427   22.1165 H   0  0  0  0  0  0
  -19.6937  -25.6382   21.1106 H   0  0  0  0  0  0
  -19.6660  -27.3331   20.6712 H   0  0  0  0  0  0
  -17.4258  -26.6846   21.3873 H   0  0  0  0  0  0
  -18.0248  -26.0021   22.8847 H   0  0  0  0  0  0
  -19.8003  -30.7122   24.2363 H   0  0  0  0  0  0
  -17.5009  -31.6195   24.5224 H   0  0  0  0  0  0
  -15.5352  -30.2991   23.7552 H   0  0  0  0  0  0
  -15.8642  -28.0837   22.7014 H   0  0  0  0  0  0
  -24.5858  -30.7178   25.7807 H   0  0  0  0  0  0
  -24.9006  -32.2921   26.4962 H   0  0  0  0  0  0
  -25.8028  -30.8851   27.0231 H   0  0  0  0  0  0
  -26.2956  -29.6745   24.1217 H   0  0  0  0  0  0
  -27.4076  -29.7292   25.4726 H   0  0  0  0  0  0
  -27.8832  -30.4328   23.9443 H   0  0  0  0  0  0
  -27.2658  -33.3598   26.2158 H   0  0  0  0  0  0
  -28.3832  -32.6949   25.0334 H   0  0  0  0  0  0
  -28.0784  -31.8435   26.5383 H   0  0  0  0  0  0
  -28.2619  -38.0092   24.7496 H   0  0  0  0  0  0
  -28.1074  -36.2620   24.6318 H   0  0  0  0  0  0
  -27.2304  -37.1498   25.8873 H   0  0  0  0  0  0
  -20.9306  -29.8828   21.6964 H   0  0  0  0  0  0
  -26.0204  -38.2868   24.1343 H   0  0  0  0  0  0
  -28.0268  -15.6683   18.0366 H   0  0  0  0  0  0
  -26.4456  -17.5249   17.8821 H   0  0  0  0  0  0
  -28.6384  -21.4987   18.9997 H   0  0  0  0  0  0
  -31.6474  -19.9452   20.0593 H   0  0  0  0  0  0
  -32.2339  -18.5252   19.2039 H   0  0  0  0  0  0
  -32.9119  -18.9585   20.7659 H   0  0  0  0  0  0
  -30.5911  -16.0693   17.2958 H   0  0  0  0  0  0
  -31.5334  -14.6922   17.8196 H   0  0  0  0  0  0
  -31.9774  -16.3046   18.3597 H   0  0  0  0  0  0
  -26.8031  -21.8054   22.9155 H   0  0  0  0  0  0
  -27.1284  -23.4936   23.3290 H   0  0  0  0  0  0
  -27.9039  -22.1876   24.2292 H   0  0  0  0  0  0
  -31.3876  -17.1007   21.1482 H   0  0  0  0  0  0
  -30.6953  -18.4914   21.8744 H   0  0  0  0  0  0
  -28.2780  -25.4608   21.8939 H   0  0  0  0  0  0
  -26.9958  -25.0555   20.8055 H   0  0  0  0  0  0
  -27.2308  -22.7129   20.8184 H   0  0  0  0  0  0
  -29.1168  -21.5752   22.3063 H   0  0  0  0  0  0
  -29.4186  -23.1536   22.5622 H   0  0  0  0  0  0
  1 25  1  0  0  0
  1 30  2  0  0  0
  1 86  1  0  0  0
  2  3  1  0  0  0
  2 25  1  0  0  0
  2 90  1  0  0  0
  2 91  1  0  0  0
  3  4  1  0  0  0
  3 92  1  0  0  0
  3 93  1  0  0  0
  4  5  1  0  0  0
  4 94  1  0  0  0
  4 95  1  0  0  0
  5  6  1  0  0  0
  5 26  1  0  0  0
  5 96  1  0  0  0
  6 25  1  0  0  0
  6 97  1  0  0  0
  6 98  1  0  0  0
  7  8  2  0  0  0
  7 26  1  0  0  0
  7 29  1  0  0  0
  8  9  1  0  0  0
  8 22  1  0  0  0
  9 10  1  0  0  0
  9 27  2  0  0  0
 10 11  2  0  0  0
 10 15  1  0  0  0
 11 12  1  0  0  0
 11 99  1  0  0  0
 12 13  2  0  0  0
 12100  1  0  0  0
 13 14  1  0  0  0
 13 31  1  0  0  0
 14 15  2  0  0  0
 14101  1  0  0  0
 15102  1  0  0  0
 16 17  2  0  0  0
 16 21  1  0  0  0
 16 31  1  0  0  0
 17 18  1  0  0  0
 17103  1  0  0  0
 18 19  2  0  0  0
 18104  1  0  0  0
 19 20  1  0  0  0
 19 24  1  0  0  0
 20 21  2  0  0  0
 20105  1  0  0  0
 21 23  1  0  0  0
 22 28  1  0  0  0
 22 32  2  0  0  0
 26 27  1  0  0  0
 28106  1  0  0  0
 28107  1  0  0  0
 29108  1  0  0  0
 29109  1  0  0  0
 33 34  1  0  0  0
 33 66  1  0  0  0
 33 70  2  0  0  0
 34 36  1  0  0  0
 34 59  1  0  0  0
 34110  1  0  0  0
 35 44  2  0  0  0
 35 45  1  0  0  0
 35 68  1  0  0  0
 36 56  1  0  0  0
 36111  1  0  0  0
 37 39  1  0  0  0
 37 47  1  0  0  0
 37 66  1  0  0  0
 37112  1  0  0  0
 38 43  2  0  0  0
 38 46  1  0  0  0
 38 47  1  0  0  0
 39 64  1  0  0  0
 39 67  2  0  0  0
 40 52  1  0  0  0
 40 53  2  0  0  0
 40 58  1  0  0  0
 41113  1  0  0  0
 41114  1  0  0  0
 41115  1  0  0  0
 41 48  1  0  0  0
 42 43  1  0  0  0
 42 66  1  0  0  0
 42116  1  0  0  0
 42117  1  0  0  0
 43 44  1  0  0  0
 44118  1  0  0  0
 45 46  2  0  0  0
 45119  1  0  0  0
 46120  1  0  0  0
 47121  1  0  0  0
 47122  1  0  0  0
 48 56  1  0  0  0
 48 65  1  0  0  0
 48123  1  0  0  0
 49 50  1  0  0  0
 49 53  1  0  0  0
 49 64  1  0  0  0
 49124  1  0  0  0
 50 51  1  0  0  0
 50125  1  0  0  0
 50126  1  0  0  0
 51 52  1  0  0  0
 51127  1  0  0  0
 51128  1  0  0  0
 52129  1  0  0  0
 52130  1  0  0  0
 53 54  1  0  0  0
 54 55  2  0  0  0
 54131  1  0  0  0
 55 57  1  0  0  0
 55132  1  0  0  0
 56 69  2  0  0  0
 57 58  2  0  0  0
 57133  1  0  0  0
 58134  1  0  0  0
 59 60  1  0  0  0
 59 61  1  0  0  0
 59 62  1  0  0  0
 60135  1  0  0  0
 60136  1  0  0  0
 60137  1  0  0  0
 61138  1  0  0  0
 61139  1  0  0  0
 61140  1  0  0  0
 62141  1  0  0  0
 62142  1  0  0  0
 62143  1  0  0  0
 63 65  1  0  0  0
 63144  1  0  0  0
 63145  1  0  0  0
 63146  1  0  0  0
 64147  1  0  0  0
 65148  1  0  0  0
 68 83  1  0  0  0
 71 72  2  0  0  0
 71 75  1  0  0  0
 71149  1  0  0  0
 72 76  1  0  0  0
 72150  1  0  0  0
 73 74  1  0  0  0
 73 75  2  0  0  0
 73 82  1  0  0  0
 74 76  2  0  0  0
 74 85  1  0  0  0
 75 86  1  0  0  0
 76 89  1  0  0  0
 77 84  1  0  0  0
 77 85  2  0  0  0
 77151  1  0  0  0
 78 83  1  0  0  0
 78 84  1  0  0  0
 78 88  2  0  0  0
 79 82  1  0  0  0
 79152  1  0  0  0
 79153  1  0  0  0
 79154  1  0  0  0
 80 86  1  0  0  0
 80155  1  0  0  0
 80156  1  0  0  0
 80157  1  0  0  0
 81 87  1  0  0  0
 81158  1  0  0  0
 81159  1  0  0  0
 81160  1  0  0  0
 82161  1  0  0  0
 82162  1  0  0  0
 83163  1  0  0  0
 83164  1  0  0  0
 84 87  1  0  0  0
 84165  1  0  0  0
 87166  1  0  0  0
 87167  1  0  0  0
M  CHG  1  87   1
M  ISO  4   1 100  68 101  83 101  86 100
M  END
> <chiral flag>
0

> <version>
0

> <s_m_source_file>
/data/baiqing/PycharmProjects/Reinvent-master-3.2/result/LINK_invent/BTK/process_docking_weight1_custom_product_contain_oxygen_bond_distance_aromatic_linkinvent_7_9_3/rearranged_h_0169.sdf

> <i_m_source_file_index>
66

> <r_mmod_Potential_Energy-OPLS-2005>
49.977466583252

> <r_mmod_Stretch_Energy-OPLS-2005>
65.4890747070312

> <r_mmod_Bend_Energy-OPLS-2005>
142.500549316406

> <r_mmod_Torsional_Energy-OPLS-2005>
388.439239501953

> <r_mmod_Improper_Torsional_Energy-OPLS-2005>
34.7871589660645

> <r_mmod_Van_der_Waal_Energy-OPLS-2005>
152.353454589844

> <r_mmod_Electrostatic_Energy-OPLS-2005>
-326.059936523438

> <r_mmod_Solvation_Energy-OPLS-2005>
-477.25244140625

> <b_mmod_Minimization_Converged-OPLS-2005>
0

> <r_mmod_RMS_Derivative-OPLS-2005>
5.55652189254761

$$$$
66
                    3D
 Structure written by MMmdl.
164172  0  0  1  0            999 V2000
  -31.5052  -14.4031   21.1514 C   0  0  0  0  0  0
  -30.6732  -14.2193   18.8100 C   0  0  0  0  0  0
  -29.2004  -14.2065   17.5601 C   0  0  0  0  0  0
  -27.3923  -14.3257   18.2477 C   0  0  0  0  0  0
  -27.1477  -14.4156   20.2195 C   0  0  2  0  0  0
  -28.7448  -14.4747   21.3565 C   0  0  0  0  0  0
  -24.8628  -14.0288   20.6134 C   0  0  0  0  0  0
  -23.9871  -13.0795   20.9567 C   0  0  0  0  0  0
  -24.6485  -11.8148   20.9042 C   0  0  0  0  0  0
  -23.9911  -10.4721   21.0231 C   0  0  0  0  0  0
  -24.4212   -9.4566   21.9134 C   0  0  0  0  0  0
  -23.6765   -8.2593   22.0758 C   0  0  0  0  0  0
  -22.4728   -8.0535   21.3537 C   0  0  0  0  0  0
  -22.0505   -9.0535   20.4560 C   0  0  0  0  0  0
  -22.8029  -10.2319   20.2909 C   0  0  0  0  0  0
  -21.7034   -6.0911   22.5254 C   0  0  0  0  0  0
  -21.4184   -6.5746   23.8208 C   0  0  0  0  0  0
  -21.3695   -5.6861   24.9129 C   0  0  0  0  0  0
  -21.5998   -4.3110   24.7153 C   0  0  0  0  0  0
  -21.8830   -3.8249   23.4259 C   0  0  0  0  0  0
  -21.9265   -4.7099   22.3349 C   0  0  0  0  0  0
  -22.5714  -13.4248   21.2124 C   0  0  0  0  0  0
  -22.1722   -4.2276   21.0935 F   0  0  0  0  0  0
  -21.5563   -3.4569   25.7666 F   0  0  0  0  0  0
  -30.3538  -14.4415   20.5594 N   0  0  0  0  0  0
  -26.0672  -13.4525   20.5587 N   0  0  0  0  0  0
  -25.9711  -12.0506   20.6836 N   0  0  0  0  0  0
  -21.9248  -12.6944   22.1015 N   0  0  0  0  0  0
  -24.6934  -15.3854   20.3393 N   0  0  0  0  0  0
  -32.4818  -14.0883   20.4943 O   0  0  0  0  0  0
  -21.6927   -6.9173   21.4267 O   0  0  0  0  0  0
  -22.0713  -14.4281   20.6999 O   0  0  0  0  0  0
  -24.7537  -31.7032   23.0925 C   0  0  0  0  0  0
  -25.9770  -32.3971   23.7696 C   0  0  1  0  0  0
  -27.0628  -25.9106   20.1518 C   0  0  0  0  0  0
  -25.6013  -33.7847   24.1476 N   0  0  0  0  0  0
  -23.5984  -30.2901   21.4696 C   0  0  2  0  0  0
  -25.0071  -28.4754   20.1092 C   0  0  0  0  0  0
  -22.8005  -29.3839   22.4503 C   0  0  0  0  0  0
  -18.0382  -28.1429   22.8431 C   0  0  0  0  0  0
  -24.1511  -36.6967   23.2671 C   0  0  0  0  0  0
  -26.1984  -30.1546   21.4674 C   0  0  0  0  0  0
  -26.2138  -28.6468   20.7949 C   0  0  0  0  0  0
  -27.2050  -27.4163   20.7622 C   0  0  0  0  0  0
  -25.8516  -26.1565   19.4113 C   0  0  0  0  0  0
  -24.9136  -27.2676   19.3920 C   0  0  0  0  0  0
  -23.8689  -29.5428   20.1237 C   0  0  0  0  0  0
  -25.4183  -36.2611   24.0215 C   0  0  1  0  0  0
  -20.6043  -28.3827   23.1024 C   0  0  2  0  0  0
  -20.6776  -26.9410   22.5426 C   0  0  0  0  0  0
  -19.5767  -26.6333   21.5228 C   0  0  0  0  0  0
  -18.1973  -26.7950   22.1614 C   0  0  0  0  0  0
  -19.1664  -28.8963   23.2697 C   0  0  0  0  0  0
  -18.9544  -30.1529   23.8780 C   0  0  0  0  0  0
  -17.6526  -30.6594   24.0544 C   0  0  0  0  0  0
  -25.9202  -34.9015   23.4754 C   0  0  0  0  0  0
  -16.5418  -29.9071   23.6349 C   0  0  0  0  0  0
  -16.7362  -28.6489   23.0385 C   0  0  0  0  0  0
  -26.4720  -31.6378   25.0654 C   0  0  0  0  0  0
  -25.3587  -31.3897   26.1126 C   0  0  0  0  0  0
  -27.0754  -30.2642   24.7119 C   0  0  0  0  0  0
  -27.6021  -32.4439   25.7470 C   0  0  0  0  0  0
  -27.5537  -37.1638   24.8458 C   0  0  0  0  0  0
  -21.4593  -29.2964   22.3281 N   0  0  0  0  0  0
  -26.4256  -37.3447   23.9373 N   0  0  0  0  0  0
  -24.8896  -30.7712   22.0599 N   0  0  0  0  0  0
  -23.4170  -28.7543   23.3123 O   0  0  0  0  0  0
  -27.8188  -24.3110   20.0858 O   0  0  0  0  0  0
  -26.5974  -34.8751   22.4460 O   0  0  0  0  0  0
  -23.6416  -32.0497   23.5436 O   0  0  0  0  0  0
  -32.7386  -17.0556   20.3185 C   0  0  0  0  0  0
  -33.3675  -16.5051   21.4557 C   0  0  0  0  0  0
  -30.9924  -17.8948   21.7859 C   0  0  0  0  0  0
  -31.6534  -17.2462   22.8642 C   0  0  0  0  0  0
  -31.4175  -17.5446   20.4593 C   0  0  0  0  0  0
  -32.4871  -16.1795   22.5160 C   0  0  0  0  0  0
  -28.1744  -17.6083   19.7679 C   0  0  0  0  0  0
  -28.8269  -16.0000   19.3836 C   0  0  0  0  0  0
  -29.8066  -16.8759   18.6087 C   0  0  0  0  0  0
  -29.9718  -18.9774   22.1017 C   0  0  0  0  0  0
  -31.4526  -17.5529   24.3385 C   0  0  0  0  0  0
  -28.8200  -13.0898   19.5250 C   0  0  0  0  0  0
  -28.2693  -19.8729   19.6007 C   0  0  0  0  0  0
  -27.6208  -22.1664   19.9953 C   0  0  0  0  0  0
  -30.7110  -17.6911   19.2409 N   0  0  0  0  0  0
  -31.6196  -15.0438   22.3275 N   0  0  0  0  0  0
  -29.7313  -17.0620   17.3913 O   0  0  0  0  0  0
  -31.4305  -14.9191   18.4519 H   0  0  0  0  0  0
  -31.2137  -13.2774   18.6628 H   0  0  0  0  0  0
  -29.2714  -13.2911   16.9636 H   0  0  0  0  0  0
  -29.3186  -14.9157   16.7496 H   0  0  0  0  0  0
  -26.7868  -13.5164   17.8367 H   0  0  0  0  0  0
  -26.9111  -15.2045   17.8118 H   0  0  0  0  0  0
  -26.8759  -15.4072   20.5317 H   0  0  0  0  0  0
  -28.6887  -13.6976   22.1151 H   0  0  0  0  0  0
  -28.6906  -15.3856   21.9513 H   0  0  0  0  0  0
  -25.3196   -9.6099   22.4921 H   0  0  0  0  0  0
  -24.0370   -7.5053   22.7634 H   0  0  0  0  0  0
  -21.1406   -8.9195   19.8877 H   0  0  0  0  0  0
  -22.4481  -10.9858   19.6023 H   0  0  0  0  0  0
  -21.2318   -7.6271   23.9749 H   0  0  0  0  0  0
  -21.1428   -6.0565   25.9005 H   0  0  0  0  0  0
  -22.0542   -2.7695   23.2728 H   0  0  0  0  0  0
  -22.3565  -11.8956   22.5474 H   0  0  0  0  0  0
  -20.9753  -12.9328   22.3451 H   0  0  0  0  0  0
  -23.7325  -15.7012   20.2357 H   0  0  0  0  0  0
  -25.3132  -15.8595   19.6926 H   0  0  0  0  0  0
  -26.7924  -32.4255   23.0443 H   0  0  0  0  0  0
  -24.9870  -33.8747   24.9441 H   0  0  0  0  0  0
  -22.9709  -31.1544   21.2353 H   0  0  0  0  0  0
  -23.3791  -35.9273   23.3203 H   0  0  0  0  0  0
  -24.3577  -36.8817   22.2116 H   0  0  0  0  0  0
  -23.7291  -37.6078   23.6919 H   0  0  0  0  0  0
  -26.5184  -30.8409   20.6810 H   0  0  0  0  0  0
  -27.0130  -30.1855   22.1745 H   0  0  0  0  0  0
  -28.1116  -27.5776   21.3288 H   0  0  0  0  0  0
  -25.5329  -25.3111   18.8203 H   0  0  0  0  0  0
  -24.0281  -27.1271   18.7905 H   0  0  0  0  0  0
  -24.1256  -30.2835   19.3642 H   0  0  0  0  0  0
  -22.9466  -29.0748   19.7690 H   0  0  0  0  0  0
  -25.1448  -36.1244   25.0702 H   0  0  0  0  0  0
  -21.0107  -28.3492   24.1153 H   0  0  0  0  0  0
  -20.5547  -26.2460   23.3756 H   0  0  0  0  0  0
  -21.6630  -26.7214   22.1310 H   0  0  0  0  0  0
  -19.6900  -25.6213   21.1332 H   0  0  0  0  0  0
  -19.6727  -27.3063   20.6704 H   0  0  0  0  0  0
  -17.4237  -26.6745   21.4006 H   0  0  0  0  0  0
  -18.0316  -26.0115   22.9010 H   0  0  0  0  0  0
  -19.8024  -30.7373   24.2102 H   0  0  0  0  0  0
  -17.5075  -31.6256   24.5150 H   0  0  0  0  0  0
  -15.5404  -30.2927   23.7727 H   0  0  0  0  0  0
  -15.8784  -28.0756   22.7171 H   0  0  0  0  0  0
  -24.5825  -30.7223   25.7367 H   0  0  0  0  0  0
  -24.8740  -32.3180   26.4136 H   0  0  0  0  0  0
  -25.7573  -30.9281   27.0162 H   0  0  0  0  0  0
  -26.3502  -29.5942   24.2492 H   0  0  0  0  0  0
  -27.4245  -29.7499   25.6074 H   0  0  0  0  0  0
  -27.9482  -30.3583   24.0665 H   0  0  0  0  0  0
  -27.2490  -33.3935   26.1477 H   0  0  0  0  0  0
  -28.4080  -32.6672   25.0480 H   0  0  0  0  0  0
  -28.0403  -31.8975   26.5822 H   0  0  0  0  0  0
  -28.2468  -37.9996   24.7474 H   0  0  0  0  0  0
  -28.1118  -36.2508   24.6329 H   0  0  0  0  0  0
  -27.2243  -37.1292   25.8856 H   0  0  0  0  0  0
  -21.0037  -29.8551   21.6204 H   0  0  0  0  0  0
  -26.0003  -38.2457   24.1364 H   0  0  0  0  0  0
  -33.1787  -16.9188   19.3401 H   0  0  0  0  0  0
  -34.2889  -15.9505   21.3234 H   0  0  0  0  0  0
  -27.3219  -17.4742   20.4169 H   0  0  0  0  0  0
  -28.9594  -18.6817   21.8628 H   0  0  0  0  0  0
  -29.9379  -19.2442   23.1587 H   0  0  0  0  0  0
  -30.2466  -19.8896   21.5786 H   0  0  0  0  0  0
  -32.1742  -16.9966   24.9437 H   0  0  0  0  0  0
  -31.6252  -18.6135   24.5429 H   0  0  0  0  0  0
  -30.4502  -17.2761   24.6765 H   0  0  0  0  0  0
  -27.9455  -12.4516   19.3720 H   0  0  0  0  0  0
  -29.2034  -12.4975   20.3718 H   0  0  0  0  0  0
  -29.3340  -12.3910   18.8495 H   0  0  0  0  0  0
  -28.1238  -19.8902   18.5216 H   0  0  0  0  0  0
  -29.3467  -19.9997   19.6709 H   0  0  0  0  0  0
  -26.6880  -22.1561   19.4300 H   0  0  0  0  0  0
  -27.3106  -22.0547   21.0333 H   0  0  0  0  0  0
  -31.1636  -18.3090   18.5811 H   0  0  0  0  0  0
  -30.7247  -15.1716   22.7727 H   0  0  0  0  0  0
  1 25  1  0  0  0
  1 30  2  0  0  0
  1 86  1  0  0  0
  2  3  1  0  0  0
  2 25  1  0  0  0
  2 88  1  0  0  0
  2 89  1  0  0  0
  3  4  1  0  0  0
  3 90  1  0  0  0
  3 91  1  0  0  0
  4  5  1  0  0  0
  4 92  1  0  0  0
  4 93  1  0  0  0
  5  6  1  0  0  0
  5 26  1  0  0  0
  5 94  1  0  0  0
  6 25  1  0  0  0
  6 95  1  0  0  0
  6 96  1  0  0  0
  7  8  2  0  0  0
  7 26  1  0  0  0
  7 29  1  0  0  0
  8  9  1  0  0  0
  8 22  1  0  0  0
  9 10  1  0  0  0
  9 27  2  0  0  0
 10 11  2  0  0  0
 10 15  1  0  0  0
 11 12  1  0  0  0
 11 97  1  0  0  0
 12 13  2  0  0  0
 12 98  1  0  0  0
 13 14  1  0  0  0
 13 31  1  0  0  0
 14 15  2  0  0  0
 14 99  1  0  0  0
 15100  1  0  0  0
 16 17  2  0  0  0
 16 21  1  0  0  0
 16 31  1  0  0  0
 17 18  1  0  0  0
 17101  1  0  0  0
 18 19  2  0  0  0
 18102  1  0  0  0
 19 20  1  0  0  0
 19 24  1  0  0  0
 20 21  2  0  0  0
 20103  1  0  0  0
 21 23  1  0  0  0
 22 28  1  0  0  0
 22 32  2  0  0  0
 26 27  1  0  0  0
 28104  1  0  0  0
 28105  1  0  0  0
 29106  1  0  0  0
 29107  1  0  0  0
 33 34  1  0  0  0
 33 66  1  0  0  0
 33 70  2  0  0  0
 34 36  1  0  0  0
 34 59  1  0  0  0
 34108  1  0  0  0
 35 44  2  0  0  0
 35 45  1  0  0  0
 35 68  1  0  0  0
 36 56  1  0  0  0
 36109  1  0  0  0
 37 39  1  0  0  0
 37 47  1  0  0  0
 37 66  1  0  0  0
 37110  1  0  0  0
 38 43  2  0  0  0
 38 46  1  0  0  0
 38 47  1  0  0  0
 39 64  1  0  0  0
 39 67  2  0  0  0
 40 52  1  0  0  0
 40 53  2  0  0  0
 40 58  1  0  0  0
 41111  1  0  0  0
 41112  1  0  0  0
 41113  1  0  0  0
 41 48  1  0  0  0
 42 43  1  0  0  0
 42 66  1  0  0  0
 42114  1  0  0  0
 42115  1  0  0  0
 43 44  1  0  0  0
 44116  1  0  0  0
 45 46  2  0  0  0
 45117  1  0  0  0
 46118  1  0  0  0
 47119  1  0  0  0
 47120  1  0  0  0
 48 56  1  0  0  0
 48 65  1  0  0  0
 48121  1  0  0  0
 49 50  1  0  0  0
 49 53  1  0  0  0
 49 64  1  0  0  0
 49122  1  0  0  0
 50 51  1  0  0  0
 50123  1  0  0  0
 50124  1  0  0  0
 51 52  1  0  0  0
 51125  1  0  0  0
 51126  1  0  0  0
 52127  1  0  0  0
 52128  1  0  0  0
 53 54  1  0  0  0
 54 55  2  0  0  0
 54129  1  0  0  0
 55 57  1  0  0  0
 55130  1  0  0  0
 56 69  2  0  0  0
 57 58  2  0  0  0
 57131  1  0  0  0
 58132  1  0  0  0
 59 60  1  0  0  0
 59 61  1  0  0  0
 59 62  1  0  0  0
 60133  1  0  0  0
 60134  1  0  0  0
 60135  1  0  0  0
 61136  1  0  0  0
 61137  1  0  0  0
 61138  1  0  0  0
 62139  1  0  0  0
 62140  1  0  0  0
 62141  1  0  0  0
 63 65  1  0  0  0
 63142  1  0  0  0
 63143  1  0  0  0
 63144  1  0  0  0
 64145  1  0  0  0
 65146  1  0  0  0
 68 84  1  0  0  0
 71 72  2  0  0  0
 71 75  1  0  0  0
 71147  1  0  0  0
 72 76  1  0  0  0
 72148  1  0  0  0
 73 74  1  0  0  0
 73 75  2  0  0  0
 73 80  1  0  0  0
 74 76  2  0  0  0
 74 81  1  0  0  0
 75 85  1  0  0  0
 76 86  1  0  0  0
 77 78  2  0  0  0
 77 83  1  0  0  0
 77149  1  0  0  0
 78 79  1  0  0  0
 78 82  1  0  0  0
 79 85  1  0  0  0
 79 87  2  0  0  0
 80150  1  0  0  0
 80151  1  0  0  0
 80152  1  0  0  0
 81153  1  0  0  0
 81154  1  0  0  0
 81155  1  0  0  0
 82156  1  0  0  0
 82157  1  0  0  0
 82158  1  0  0  0
 83 84  1  0  0  0
 83159  1  0  0  0
 83160  1  0  0  0
 84161  1  0  0  0
 84162  1  0  0  0
 85163  1  0  0  0
 86164  1  0  0  0
M  ISO  4   1 100  68 101  84 101  86 100
M  END
> <chiral flag>
0

> <version>
0

> <s_m_source_file>
/data/baiqing/PycharmProjects/Reinvent-master-3.2/result/LINK_invent/BTK/process_docking_weight1_custom_product_contain_oxygen_bond_distance_aromatic_linkinvent_7_9_3/rearranged_h_0169.sdf

> <i_m_source_file_index>
67

> <r_mmod_Potential_Energy-OPLS-2005>
13929.3525390625

> <r_mmod_Stretch_Energy-OPLS-2005>
7222.64794921875

> <r_mmod_Bend_Energy-OPLS-2005>
1396.8759765625

> <r_mmod_Torsional_Energy-OPLS-2005>
604.081726074219

> <r_mmod_Improper_Torsional_Energy-OPLS-2005>
48.2626113891602

> <r_mmod_Van_der_Waal_Energy-OPLS-2005>
1837.72131347656

> <r_mmod_Electrostatic_Energy-OPLS-2005>
-463.846405029297

> <r_mmod_Solvation_Energy-OPLS-2005>
-208.628799438477

> <b_mmod_Minimization_Converged-OPLS-2005>
0

> <r_mmod_RMS_Derivative-OPLS-2005>
9.2337474822998

$$$$
67
                    3D
 Structure written by MMmdl.
163171  0  0  1  0            999 V2000
  -30.6774  -14.4806   20.6867 C   0  0  0  0  0  0
  -30.4540  -12.3553   19.4091 C   0  0  0  0  0  0
  -29.5083  -12.5442   18.2038 C   0  0  0  0  0  0
  -28.0294  -12.3875   18.6147 C   0  0  0  0  0  0
  -27.6733  -13.1991   19.8852 C   0  0  2  0  0  0
  -28.7110  -12.9296   20.9964 C   0  0  0  0  0  0
  -25.2645  -13.8126   20.5694 C   0  0  0  0  0  0
  -24.1882  -13.0434   20.9173 C   0  0  0  0  0  0
  -24.6408  -11.6887   20.8715 C   0  0  0  0  0  0
  -23.9045  -10.4302   21.0412 C   0  0  0  0  0  0
  -24.3600   -9.4214   21.9183 C   0  0  0  0  0  0
  -23.6298   -8.2233   22.0736 C   0  0  0  0  0  0
  -22.4275   -8.0290   21.3536 C   0  0  0  0  0  0
  -21.9915   -9.0251   20.4620 C   0  0  0  0  0  0
  -22.7220  -10.2143   20.3051 C   0  0  0  0  0  0
  -21.6865   -6.0741   22.5271 C   0  0  0  0  0  0
  -21.4000   -6.5632   23.8207 C   0  0  0  0  0  0
  -21.3663   -5.6786   24.9166 C   0  0  0  0  0  0
  -21.6054   -4.3050   24.7223 C   0  0  0  0  0  0
  -21.8806   -3.8149   23.4336 C   0  0  0  0  0  0
  -21.9183   -4.6964   22.3395 C   0  0  0  0  0  0
  -22.7896  -13.5227   21.1864 C   0  0  0  0  0  0
  -22.1660   -4.2151   21.0982 F   0  0  0  0  0  0
  -21.5646   -3.4537   25.7737 F   0  0  0  0  0  0
  -30.0463  -13.2891   20.4720 N   0  0  0  0  0  0
  -26.3082  -12.9278   20.3391 N   0  0  0  0  0  0
  -25.9345  -11.6440   20.5745 N   0  0  0  0  0  0
  -22.0522  -12.8246   22.0406 N   0  0  0  0  0  0
  -25.4396  -15.1848   20.4086 N   0  0  0  0  0  0
  -31.7434  -14.7834   20.1362 O   0  0  0  0  0  0
  -21.6631   -6.8892   21.4246 O   0  0  0  0  0  0
  -22.3577  -14.5558   20.6736 O   0  0  0  0  0  0
  -24.6163  -31.8665   23.2051 C   0  0  0  0  0  0
  -25.9048  -32.4799   23.8356 C   0  0  1  0  0  0
  -27.2498  -27.4171   20.0815 C   0  0  0  0  0  0
  -25.5887  -33.8597   24.2295 N   0  0  0  0  0  0
  -23.4022  -30.4888   21.5486 C   0  0  2  0  0  0
  -24.8501  -28.9536   20.1038 C   0  0  0  0  0  0
  -22.7402  -29.4654   22.4990 C   0  0  0  0  0  0
  -18.0269  -28.1366   22.8505 C   0  0  0  0  0  0
  -24.1487  -36.7266   23.2635 C   0  0  0  0  0  0
  -25.9340  -30.8275   21.3602 C   0  0  0  0  0  0
  -26.0084  -29.4625   20.6998 C   0  0  0  0  0  0
  -27.2006  -28.7008   20.6860 C   0  0  0  0  0  0
  -26.0586  -26.9197   19.5060 C   0  0  0  0  0  0
  -24.8737  -27.6849   19.4988 C   0  0  0  0  0  0
  -23.6057  -29.8127   20.1641 C   0  0  0  0  0  0
  -25.4118  -36.3100   24.0337 C   0  0  1  0  0  0
  -20.5872  -28.3642   23.1339 C   0  0  2  0  0  0
  -20.6736  -26.9370   22.5438 C   0  0  0  0  0  0
  -19.5714  -26.6381   21.5223 C   0  0  0  0  0  0
  -18.1899  -26.7912   22.1631 C   0  0  0  0  0  0
  -19.1527  -28.8819   23.2909 C   0  0  0  0  0  0
  -18.9423  -30.1419   23.8922 C   0  0  0  0  0  0
  -17.6425  -30.6571   24.0563 C   0  0  0  0  0  0
  -25.9045  -34.9468   23.5128 C   0  0  0  0  0  0
  -16.5320  -29.9071   23.6338 C   0  0  0  0  0  0
  -16.7254  -28.6484   23.0380 C   0  0  0  0  0  0
  -26.4472  -31.6584   25.0678 C   0  0  0  0  0  0
  -25.3722  -31.3682   26.1398 C   0  0  0  0  0  0
  -27.0269  -30.3023   24.6038 C   0  0  0  0  0  0
  -27.6058  -32.4297   25.7426 C   0  0  0  0  0  0
  -27.5579  -37.1790   24.8481 C   0  0  0  0  0  0
  -21.4131  -29.3009   22.3731 N   0  0  0  0  0  0
  -26.4296  -37.3792   23.9419 N   0  0  0  0  0  0
  -24.6698  -31.0758   22.0959 N   0  0  0  0  0  0
  -23.4197  -28.8195   23.3013 O   0  0  0  0  0  0
  -28.4453  -26.7134   20.1904 O   0  0  0  0  0  0
  -26.5609  -34.8926   22.4693 O   0  0  0  0  0  0
  -23.5353  -32.1378   23.7461 O   0  0  0  0  0  0
  -30.8149  -17.6897   21.2712 C   0  0  0  0  0  0
  -29.4179  -16.9841   23.1398 C   0  0  0  0  0  0
  -30.8267  -19.0359   21.7734 C   0  0  0  0  0  0
  -30.1279  -16.6528   21.9632 C   0  0  0  0  0  0
  -29.4634  -18.2833   23.6727 C   0  0  0  0  0  0
  -30.1913  -19.2887   23.0135 C   0  0  0  0  0  0
  -30.7297  -23.7043   19.5668 C   0  0  0  0  0  0
  -32.1056  -19.8099   19.6650 C   0  0  0  0  0  0
  -28.1768  -25.2057   18.0897 C   0  0  0  0  0  0
  -29.4930  -24.4213   20.1745 C   0  0  0  0  0  0
  -30.6056  -21.5164   20.9218 C   0  0  0  0  0  0
  -31.5057  -20.2207   21.0318 C   0  0  1  0  0  0
  -28.9596  -25.6512   19.3399 C   0  0  1  0  0  0
  -30.0117  -15.2838   21.5470 N   0  0  0  0  0  0
  -31.1525  -22.4902   19.9716 N   0  0  0  0  0  0
  -31.3876  -24.2665   18.6924 O   0  0  0  0  0  0
  -28.8076  -18.5681   24.8246 F   0  0  0  0  0  0
  -30.2690  -20.5100   23.5947 F   0  0  0  0  0  0
  -31.4879  -12.5175   19.1004 H   0  0  0  0  0  0
  -30.4082  -11.3282   19.7762 H   0  0  0  0  0  0
  -29.7537  -11.8351   17.4106 H   0  0  0  0  0  0
  -29.6628  -13.5375   17.7801 H   0  0  0  0  0  0
  -27.8426  -11.3295   18.7987 H   0  0  0  0  0  0
  -27.3772  -12.6762   17.7901 H   0  0  0  0  0  0
  -27.7270  -14.2536   19.6146 H   0  0  0  0  0  0
  -28.7098  -11.8719   21.2664 H   0  0  0  0  0  0
  -28.4323  -13.4490   21.9152 H   0  0  0  0  0  0
  -25.2745   -9.5701   22.4749 H   0  0  0  0  0  0
  -24.0010   -7.4623   22.7473 H   0  0  0  0  0  0
  -21.0827   -8.8758   19.8958 H   0  0  0  0  0  0
  -22.3655  -10.9681   19.6162 H   0  0  0  0  0  0
  -21.1977   -7.6134   23.9710 H   0  0  0  0  0  0
  -21.1518   -6.0516   25.9075 H   0  0  0  0  0  0
  -22.0590   -2.7613   23.2824 H   0  0  0  0  0  0
  -22.4102  -11.9880   22.4775 H   0  0  0  0  0  0
  -21.1147  -13.1319   22.2624 H   0  0  0  0  0  0
  -24.6784  -15.8508   20.5122 H   0  0  0  0  0  0
  -26.2950  -15.6178   20.0846 H   0  0  0  0  0  0
  -26.7092  -32.5502   23.1089 H   0  0  0  0  0  0
  -25.0073  -33.9764   25.0459 H   0  0  0  0  0  0
  -22.6876  -31.3041   21.4126 H   0  0  0  0  0  0
  -23.3769  -35.9581   23.3337 H   0  0  0  0  0  0
  -24.3575  -36.8822   22.2041 H   0  0  0  0  0  0
  -23.7214  -37.6467   23.6616 H   0  0  0  0  0  0
  -26.0530  -31.5987   20.5983 H   0  0  0  0  0  0
  -26.8186  -30.8743   21.9837 H   0  0  0  0  0  0
  -28.0908  -29.0901   21.1607 H   0  0  0  0  0  0
  -26.0038  -25.9306   19.0903 H   0  0  0  0  0  0
  -23.9817  -27.2844   19.0394 H   0  0  0  0  0  0
  -23.6862  -30.5826   19.3966 H   0  0  0  0  0  0
  -22.7344  -29.2156   19.8831 H   0  0  0  0  0  0
  -25.1316  -36.1947   25.0830 H   0  0  0  0  0  0
  -20.9970  -28.3173   24.1465 H   0  0  0  0  0  0
  -20.5612  -26.2232   23.3614 H   0  0  0  0  0  0
  -21.6601  -26.7382   22.1237 H   0  0  0  0  0  0
  -19.6853  -25.6303   21.1219 H   0  0  0  0  0  0
  -19.6651  -27.3226   20.6781 H   0  0  0  0  0  0
  -17.4171  -26.6693   21.4030 H   0  0  0  0  0  0
  -18.0255  -26.0037   22.9009 H   0  0  0  0  0  0
  -19.7897  -30.7234   24.2308 H   0  0  0  0  0  0
  -17.4978  -31.6273   24.5121 H   0  0  0  0  0  0
  -15.5321  -30.2976   23.7641 H   0  0  0  0  0  0
  -15.8649  -28.0794   22.7122 H   0  0  0  0  0  0
  -24.5970  -30.6937   25.7723 H   0  0  0  0  0  0
  -24.8813  -32.2819   26.4765 H   0  0  0  0  0  0
  -25.8079  -30.8930   27.0194 H   0  0  0  0  0  0
  -26.2802  -29.6811   24.1057 H   0  0  0  0  0  0
  -27.3986  -29.7219   25.4493 H   0  0  0  0  0  0
  -27.8681  -30.4333   23.9214 H   0  0  0  0  0  0
  -27.2720  -33.3637   26.1963 H   0  0  0  0  0  0
  -28.3883  -32.6767   25.0235 H   0  0  0  0  0  0
  -28.0685  -31.8415   26.5349 H   0  0  0  0  0  0
  -28.2644  -38.0040   24.7523 H   0  0  0  0  0  0
  -28.1032  -36.2586   24.6356 H   0  0  0  0  0  0
  -27.2291  -37.1495   25.8878 H   0  0  0  0  0  0
  -20.9261  -29.8701   21.6944 H   0  0  0  0  0  0
  -26.0178  -38.2873   24.1401 H   0  0  0  0  0  0
  -31.3057  -17.4385   20.3421 H   0  0  0  0  0  0
  -28.8368  -16.2375   23.6630 H   0  0  0  0  0  0
  -32.7205  -20.5978   19.2281 H   0  0  0  0  0  0
  -31.3161  -19.5655   18.9534 H   0  0  0  0  0  0
  -32.7720  -18.9499   19.7516 H   0  0  0  0  0  0
  -28.8320  -24.6714   17.3994 H   0  0  0  0  0  0
  -27.7705  -26.0509   17.5321 H   0  0  0  0  0  0
  -27.3753  -24.5149   18.3504 H   0  0  0  0  0  0
  -28.6874  -23.7031   20.3443 H   0  0  0  0  0  0
  -29.8070  -24.7644   21.1618 H   0  0  0  0  0  0
  -30.5212  -22.0235   21.8860 H   0  0  0  0  0  0
  -29.5972  -21.2511   20.6044 H   0  0  0  0  0  0
  -32.3579  -20.5069   21.6531 H   0  0  0  0  0  0
  -29.8353  -26.1656   18.9439 H   0  0  0  0  0  0
  -29.2458  -14.7894   21.9771 H   0  0  0  0  0  0
  -31.9941  -22.1764   19.5089 H   0  0  0  0  0  0
  1 25  1  0  0  0
  1 30  2  0  0  0
  1 84  1  0  0  0
  2  3  1  0  0  0
  2 25  1  0  0  0
  2 89  1  0  0  0
  2 90  1  0  0  0
  3  4  1  0  0  0
  3 91  1  0  0  0
  3 92  1  0  0  0
  4  5  1  0  0  0
  4 93  1  0  0  0
  4 94  1  0  0  0
  5  6  1  0  0  0
  5 26  1  0  0  0
  5 95  1  0  0  0
  6 25  1  0  0  0
  6 96  1  0  0  0
  6 97  1  0  0  0
  7  8  2  0  0  0
  7 26  1  0  0  0
  7 29  1  0  0  0
  8  9  1  0  0  0
  8 22  1  0  0  0
  9 10  1  0  0  0
  9 27  2  0  0  0
 10 11  2  0  0  0
 10 15  1  0  0  0
 11 12  1  0  0  0
 11 98  1  0  0  0
 12 13  2  0  0  0
 12 99  1  0  0  0
 13 14  1  0  0  0
 13 31  1  0  0  0
 14 15  2  0  0  0
 14100  1  0  0  0
 15101  1  0  0  0
 16 17  2  0  0  0
 16 21  1  0  0  0
 16 31  1  0  0  0
 17 18  1  0  0  0
 17102  1  0  0  0
 18 19  2  0  0  0
 18103  1  0  0  0
 19 20  1  0  0  0
 19 24  1  0  0  0
 20 21  2  0  0  0
 20104  1  0  0  0
 21 23  1  0  0  0
 22 28  1  0  0  0
 22 32  2  0  0  0
 26 27  1  0  0  0
 28105  1  0  0  0
 28106  1  0  0  0
 29107  1  0  0  0
 29108  1  0  0  0
 33 34  1  0  0  0
 33 66  1  0  0  0
 33 70  2  0  0  0
 34 36  1  0  0  0
 34 59  1  0  0  0
 34109  1  0  0  0
 35 44  2  0  0  0
 35 45  1  0  0  0
 35 68  1  0  0  0
 36 56  1  0  0  0
 36110  1  0  0  0
 37 39  1  0  0  0
 37 47  1  0  0  0
 37 66  1  0  0  0
 37111  1  0  0  0
 38 43  2  0  0  0
 38 46  1  0  0  0
 38 47  1  0  0  0
 39 64  1  0  0  0
 39 67  2  0  0  0
 40 52  1  0  0  0
 40 53  2  0  0  0
 40 58  1  0  0  0
 41112  1  0  0  0
 41113  1  0  0  0
 41114  1  0  0  0
 41 48  1  0  0  0
 42 43  1  0  0  0
 42 66  1  0  0  0
 42115  1  0  0  0
 42116  1  0  0  0
 43 44  1  0  0  0
 44117  1  0  0  0
 45 46  2  0  0  0
 45118  1  0  0  0
 46119  1  0  0  0
 47120  1  0  0  0
 47121  1  0  0  0
 48 56  1  0  0  0
 48 65  1  0  0  0
 48122  1  0  0  0
 49 50  1  0  0  0
 49 53  1  0  0  0
 49 64  1  0  0  0
 49123  1  0  0  0
 50 51  1  0  0  0
 50124  1  0  0  0
 50125  1  0  0  0
 51 52  1  0  0  0
 51126  1  0  0  0
 51127  1  0  0  0
 52128  1  0  0  0
 52129  1  0  0  0
 53 54  1  0  0  0
 54 55  2  0  0  0
 54130  1  0  0  0
 55 57  1  0  0  0
 55131  1  0  0  0
 56 69  2  0  0  0
 57 58  2  0  0  0
 57132  1  0  0  0
 58133  1  0  0  0
 59 60  1  0  0  0
 59 61  1  0  0  0
 59 62  1  0  0  0
 60134  1  0  0  0
 60135  1  0  0  0
 60136  1  0  0  0
 61137  1  0  0  0
 61138  1  0  0  0
 61139  1  0  0  0
 62140  1  0  0  0
 62141  1  0  0  0
 62142  1  0  0  0
 63 65  1  0  0  0
 63143  1  0  0  0
 63144  1  0  0  0
 63145  1  0  0  0
 64146  1  0  0  0
 65147  1  0  0  0
 68 83  1  0  0  0
 71 73  2  0  0  0
 71 74  1  0  0  0
 71148  1  0  0  0
 72 74  2  0  0  0
 72 75  1  0  0  0
 72149  1  0  0  0
 73 76  1  0  0  0
 73 82  1  0  0  0
 74 84  1  0  0  0
 75 76  2  0  0  0
 75 87  1  0  0  0
 76 88  1  0  0  0
 77 80  1  0  0  0
 77 85  1  0  0  0
 77 86  2  0  0  0
 78150  1  0  0  0
 78151  1  0  0  0
 78152  1  0  0  0
 78 82  1  0  0  0
 79153  1  0  0  0
 79154  1  0  0  0
 79155  1  0  0  0
 79 83  1  0  0  0
 80 83  1  0  0  0
 80156  1  0  0  0
 80157  1  0  0  0
 81 82  1  0  0  0
 81 85  1  0  0  0
 81158  1  0  0  0
 81159  1  0  0  0
 82160  1  0  0  0
 83161  1  0  0  0
 84162  1  0  0  0
 85163  1  0  0  0
M  ISO  4   1 100  68 101  83 101  84 100
M  END
> <chiral flag>
0

> <version>
0

> <s_m_source_file>
/data/baiqing/PycharmProjects/Reinvent-master-3.2/result/LINK_invent/BTK/process_docking_weight1_custom_product_contain_oxygen_bond_distance_aromatic_linkinvent_7_9_3/rearranged_h_0169.sdf

> <i_m_source_file_index>
68

> <r_mmod_Potential_Energy-OPLS-2005>
0.0126264002174139

> <r_mmod_Stretch_Energy-OPLS-2005>
53.495662689209

> <r_mmod_Bend_Energy-OPLS-2005>
178.310775756836

> <r_mmod_Torsional_Energy-OPLS-2005>
224.888946533203

> <r_mmod_Improper_Torsional_Energy-OPLS-2005>
2.39696025848389

> <r_mmod_Van_der_Waal_Energy-OPLS-2005>
162.636016845703

> <r_mmod_Electrostatic_Energy-OPLS-2005>
-418.162963867188

> <r_mmod_Solvation_Energy-OPLS-2005>
-221.509887695312

> <b_mmod_Minimization_Converged-OPLS-2005>
0

> <r_mmod_RMS_Derivative-OPLS-2005>
4.63642644882202

$$$$
68
                    3D
 Structure written by MMmdl.
159167  0  0  1  0            999 V2000
  -30.7037  -14.5072   20.5691 C   0  0  0  0  0  0
  -30.4246  -12.3334   19.4233 C   0  0  0  0  0  0
  -29.4946  -12.5009   18.2054 C   0  0  0  0  0  0
  -28.0174  -12.3554   18.6207 C   0  0  0  0  0  0
  -27.6570  -13.2082   19.8668 C   0  0  2  0  0  0
  -28.7024  -13.0243   20.9902 C   0  0  0  0  0  0
  -25.2567  -13.8156   20.5659 C   0  0  0  0  0  0
  -24.1830  -13.0442   20.9176 C   0  0  0  0  0  0
  -24.6380  -11.6903   20.8726 C   0  0  0  0  0  0
  -23.9038  -10.4298   21.0400 C   0  0  0  0  0  0
  -24.3590   -9.4220   21.9182 C   0  0  0  0  0  0
  -23.6275   -8.2249   22.0759 C   0  0  0  0  0  0
  -22.4264   -8.0271   21.3540 C   0  0  0  0  0  0
  -21.9886   -9.0245   20.4649 C   0  0  0  0  0  0
  -22.7205  -10.2134   20.3058 C   0  0  0  0  0  0
  -21.6851   -6.0718   22.5269 C   0  0  0  0  0  0
  -21.4018   -6.5630   23.8201 C   0  0  0  0  0  0
  -21.3661   -5.6787   24.9165 C   0  0  0  0  0  0
  -21.6046   -4.3050   24.7220 C   0  0  0  0  0  0
  -21.8821   -3.8135   23.4345 C   0  0  0  0  0  0
  -21.9197   -4.6946   22.3393 C   0  0  0  0  0  0
  -22.7857  -13.5243   21.1831 C   0  0  0  0  0  0
  -22.1665   -4.2129   21.0975 F   0  0  0  0  0  0
  -21.5630   -3.4536   25.7734 F   0  0  0  0  0  0
  -30.0247  -13.3345   20.4252 N   0  0  0  0  0  0
  -26.3000  -12.9326   20.3330 N   0  0  0  0  0  0
  -25.9308  -11.6487   20.5753 N   0  0  0  0  0  0
  -22.0490  -12.8248   22.0384 N   0  0  0  0  0  0
  -25.4280  -15.1880   20.4049 N   0  0  0  0  0  0
  -31.8487  -14.6594   20.1352 O   0  0  0  0  0  0
  -21.6641   -6.8861   21.4228 O   0  0  0  0  0  0
  -22.3547  -14.5552   20.6679 O   0  0  0  0  0  0
  -24.6183  -31.8675   23.2099 C   0  0  0  0  0  0
  -25.9075  -32.4815   23.8385 C   0  0  1  0  0  0
  -27.2168  -27.4055   20.1049 C   0  0  0  0  0  0
  -25.5916  -33.8616   24.2321 N   0  0  0  0  0  0
  -23.4059  -30.4907   21.5539 C   0  0  2  0  0  0
  -24.8496  -28.9586   20.1089 C   0  0  0  0  0  0
  -22.7434  -29.4642   22.5011 C   0  0  0  0  0  0
  -18.0265  -28.1379   22.8489 C   0  0  0  0  0  0
  -24.1494  -36.7324   23.2631 C   0  0  0  0  0  0
  -25.9363  -30.8240   21.3643 C   0  0  0  0  0  0
  -26.0125  -29.4579   20.7098 C   0  0  0  0  0  0
  -27.2032  -28.6895   20.7036 C   0  0  0  0  0  0
  -26.0437  -26.9383   19.4741 C   0  0  0  0  0  0
  -24.8618  -27.7010   19.4830 C   0  0  0  0  0  0
  -23.6118  -29.8274   20.1656 C   0  0  0  0  0  0
  -25.4120  -36.3109   24.0323 C   0  0  1  0  0  0
  -20.5859  -28.3666   23.1331 C   0  0  2  0  0  0
  -20.6766  -26.9404   22.5423 C   0  0  0  0  0  0
  -19.5744  -26.6389   21.5220 C   0  0  0  0  0  0
  -18.1919  -26.7924   22.1618 C   0  0  0  0  0  0
  -19.1512  -28.8840   23.2902 C   0  0  0  0  0  0
  -18.9441  -30.1447   23.8911 C   0  0  0  0  0  0
  -17.6445  -30.6593   24.0559 C   0  0  0  0  0  0
  -25.9036  -34.9476   23.5119 C   0  0  0  0  0  0
  -16.5340  -29.9088   23.6321 C   0  0  0  0  0  0
  -16.7255  -28.6503   23.0345 C   0  0  0  0  0  0
  -26.4490  -31.6599   25.0721 C   0  0  0  0  0  0
  -25.3732  -31.3699   26.1453 C   0  0  0  0  0  0
  -27.0306  -30.3037   24.6081 C   0  0  0  0  0  0
  -27.6069  -32.4318   25.7482 C   0  0  0  0  0  0
  -27.5595  -37.1824   24.8458 C   0  0  0  0  0  0
  -21.4157  -29.3039   22.3756 N   0  0  0  0  0  0
  -26.4313  -37.3795   23.9389 N   0  0  0  0  0  0
  -24.6720  -31.0746   22.1021 N   0  0  0  0  0  0
  -23.4195  -28.8174   23.3053 O   0  0  0  0  0  0
  -28.3418  -26.6005   20.1360 O   0  0  0  0  0  0
  -26.5605  -34.8934   22.4683 O   0  0  0  0  0  0
  -23.5376  -32.1450   23.7483 O   0  0  0  0  0  0
  -29.6872  -18.0340   21.1050 C   0  0  0  0  0  0
  -31.6954  -17.0424   22.0433 C   0  0  0  0  0  0
  -31.3469  -19.4738   22.2215 C   0  0  0  0  0  0
  -30.4655  -16.8737   21.3739 C   0  0  0  0  0  0
  -30.1270  -19.3393   21.4798 C   0  0  0  0  0  0
  -32.1321  -18.3148   22.4526 C   0  0  0  0  0  0
  -28.5418  -22.7266   20.6182 C   0  0  0  0  0  0
  -29.6185  -21.5938   20.5080 C   0  0  0  0  0  0
  -28.5751  -25.5433   22.2814 C   0  0  0  0  0  0
  -28.9279  -24.1536   20.1364 C   0  0  0  0  0  0
  -28.1585  -25.3295   20.8164 C   0  0  2  0  0  0
  -31.8279  -20.8080   22.8248 C   0  0  0  0  0  0
  -29.2790  -20.4613   21.1671 N   0  0  0  0  0  0
  -29.9867  -15.5584   21.0374 N   0  0  0  0  0  0
  -27.4139  -22.4893   21.0691 O   0  0  0  0  0  0
  -30.6643  -21.7301   19.8655 O   0  0  0  0  0  0
  -33.3260  -18.3931   23.0914 F   0  0  0  0  0  0
  -30.8132  -21.5914   23.1949 F   0  0  0  0  0  0
  -32.5524  -20.6242   23.9296 F   0  0  0  0  0  0
  -32.5866  -21.4715   21.9533 F   0  0  0  0  0  0
  -31.4672  -12.4378   19.1175 H   0  0  0  0  0  0
  -30.3355  -11.3294   19.8416 H   0  0  0  0  0  0
  -29.7415  -11.7639   17.4400 H   0  0  0  0  0  0
  -29.6529  -13.4799   17.7504 H   0  0  0  0  0  0
  -27.8381  -11.3007   18.8301 H   0  0  0  0  0  0
  -27.3645  -12.6132   17.7859 H   0  0  0  0  0  0
  -27.6905  -14.2506   19.5489 H   0  0  0  0  0  0
  -28.6914  -11.9980   21.3602 H   0  0  0  0  0  0
  -28.4624  -13.6506   21.8508 H   0  0  0  0  0  0
  -25.2740   -9.5706   22.4751 H   0  0  0  0  0  0
  -23.9986   -7.4651   22.7494 H   0  0  0  0  0  0
  -21.0810   -8.8758   19.8959 H   0  0  0  0  0  0
  -22.3652  -10.9666   19.6166 H   0  0  0  0  0  0
  -21.2014   -7.6139   23.9692 H   0  0  0  0  0  0
  -21.1480   -6.0525   25.9069 H   0  0  0  0  0  0
  -22.0600   -2.7597   23.2851 H   0  0  0  0  0  0
  -22.4101  -11.9915   22.4790 H   0  0  0  0  0  0
  -21.1110  -13.1289   22.2589 H   0  0  0  0  0  0
  -24.6547  -15.8368   20.5006 H   0  0  0  0  0  0
  -26.2711  -15.6259   20.0565 H   0  0  0  0  0  0
  -26.7150  -32.5521   23.1149 H   0  0  0  0  0  0
  -25.0062  -33.9771   25.0461 H   0  0  0  0  0  0
  -22.6961  -31.3094   21.4204 H   0  0  0  0  0  0
  -23.3746  -35.9665   23.3294 H   0  0  0  0  0  0
  -24.3577  -36.8935   22.2041 H   0  0  0  0  0  0
  -23.7272  -37.6538   23.6657 H   0  0  0  0  0  0
  -26.0492  -31.5881   20.5941 H   0  0  0  0  0  0
  -26.8258  -30.8780   21.9802 H   0  0  0  0  0  0
  -28.0956  -29.0631   21.1853 H   0  0  0  0  0  0
  -26.0350  -25.9740   18.9830 H   0  0  0  0  0  0
  -23.9701  -27.3204   19.0034 H   0  0  0  0  0  0
  -23.7115  -30.6054   19.4069 H   0  0  0  0  0  0
  -22.7358  -29.2439   19.8753 H   0  0  0  0  0  0
  -25.1301  -36.1967   25.0815 H   0  0  0  0  0  0
  -20.9947  -28.3242   24.1456 H   0  0  0  0  0  0
  -20.5698  -26.2267   23.3609 H   0  0  0  0  0  0
  -21.6641  -26.7485   22.1206 H   0  0  0  0  0  0
  -19.6910  -25.6300   21.1258 H   0  0  0  0  0  0
  -19.6698  -27.3191   20.6744 H   0  0  0  0  0  0
  -17.4205  -26.6676   21.4013 H   0  0  0  0  0  0
  -18.0300  -26.0071   22.9009 H   0  0  0  0  0  0
  -19.7921  -30.7249   24.2310 H   0  0  0  0  0  0
  -17.5002  -31.6272   24.5156 H   0  0  0  0  0  0
  -15.5343  -30.2993   23.7643 H   0  0  0  0  0  0
  -15.8649  -28.0836   22.7054 H   0  0  0  0  0  0
  -24.5926  -30.7028   25.7770 H   0  0  0  0  0  0
  -24.8892  -32.2841   26.4902 H   0  0  0  0  0  0
  -25.8072  -30.8877   27.0217 H   0  0  0  0  0  0
  -26.2830  -29.6822   24.1141 H   0  0  0  0  0  0
  -27.4066  -29.7263   25.4536 H   0  0  0  0  0  0
  -27.8676  -30.4347   23.9215 H   0  0  0  0  0  0
  -27.2699  -33.3619   26.2079 H   0  0  0  0  0  0
  -28.3869  -32.6884   25.0297 H   0  0  0  0  0  0
  -28.0742  -31.8414   26.5375 H   0  0  0  0  0  0
  -28.2622  -38.0111   24.7509 H   0  0  0  0  0  0
  -28.1085  -36.2655   24.6294 H   0  0  0  0  0  0
  -27.2302  -37.1460   25.8852 H   0  0  0  0  0  0
  -20.9317  -29.8771   21.6987 H   0  0  0  0  0  0
  -26.0201  -38.2870   24.1384 H   0  0  0  0  0  0
  -28.7429  -17.9239   20.5893 H   0  0  0  0  0  0
  -32.3165  -16.1913   22.2825 H   0  0  0  0  0  0
  -29.6346  -25.7903   22.3585 H   0  0  0  0  0  0
  -28.0111  -26.3590   22.7360 H   0  0  0  0  0  0
  -28.3939  -24.6500   22.8814 H   0  0  0  0  0  0
  -28.7351  -24.1807   19.0645 H   0  0  0  0  0  0
  -30.0012  -24.2930   20.2610 H   0  0  0  0  0  0
  -27.1021  -25.0546   20.8344 H   0  0  0  0  0  0
  -28.3199  -20.4354   21.4926 H   0  0  0  0  0  0
  -28.9993  -15.3938   21.1596 H   0  0  0  0  0  0
  1 25  1  0  0  0
  1 30  2  0  0  0
  1 84  1  0  0  0
  2  3  1  0  0  0
  2 25  1  0  0  0
  2 91  1  0  0  0
  2 92  1  0  0  0
  3  4  1  0  0  0
  3 93  1  0  0  0
  3 94  1  0  0  0
  4  5  1  0  0  0
  4 95  1  0  0  0
  4 96  1  0  0  0
  5  6  1  0  0  0
  5 26  1  0  0  0
  5 97  1  0  0  0
  6 25  1  0  0  0
  6 98  1  0  0  0
  6 99  1  0  0  0
  7  8  2  0  0  0
  7 26  1  0  0  0
  7 29  1  0  0  0
  8  9  1  0  0  0
  8 22  1  0  0  0
  9 10  1  0  0  0
  9 27  2  0  0  0
 10 11  2  0  0  0
 10 15  1  0  0  0
 11 12  1  0  0  0
 11100  1  0  0  0
 12 13  2  0  0  0
 12101  1  0  0  0
 13 14  1  0  0  0
 13 31  1  0  0  0
 14 15  2  0  0  0
 14102  1  0  0  0
 15103  1  0  0  0
 16 17  2  0  0  0
 16 21  1  0  0  0
 16 31  1  0  0  0
 17 18  1  0  0  0
 17104  1  0  0  0
 18 19  2  0  0  0
 18105  1  0  0  0
 19 20  1  0  0  0
 19 24  1  0  0  0
 20 21  2  0  0  0
 20106  1  0  0  0
 21 23  1  0  0  0
 22 28  1  0  0  0
 22 32  2  0  0  0
 26 27  1  0  0  0
 28107  1  0  0  0
 28108  1  0  0  0
 29109  1  0  0  0
 29110  1  0  0  0
 33 34  1  0  0  0
 33 66  1  0  0  0
 33 70  2  0  0  0
 34 36  1  0  0  0
 34 59  1  0  0  0
 34111  1  0  0  0
 35 44  2  0  0  0
 35 45  1  0  0  0
 35 68  1  0  0  0
 36 56  1  0  0  0
 36112  1  0  0  0
 37 39  1  0  0  0
 37 47  1  0  0  0
 37 66  1  0  0  0
 37113  1  0  0  0
 38 43  2  0  0  0
 38 46  1  0  0  0
 38 47  1  0  0  0
 39 64  1  0  0  0
 39 67  2  0  0  0
 40 52  1  0  0  0
 40 53  2  0  0  0
 40 58  1  0  0  0
 41114  1  0  0  0
 41115  1  0  0  0
 41116  1  0  0  0
 41 48  1  0  0  0
 42 43  1  0  0  0
 42 66  1  0  0  0
 42117  1  0  0  0
 42118  1  0  0  0
 43 44  1  0  0  0
 44119  1  0  0  0
 45 46  2  0  0  0
 45120  1  0  0  0
 46121  1  0  0  0
 47122  1  0  0  0
 47123  1  0  0  0
 48 56  1  0  0  0
 48 65  1  0  0  0
 48124  1  0  0  0
 49 50  1  0  0  0
 49 53  1  0  0  0
 49 64  1  0  0  0
 49125  1  0  0  0
 50 51  1  0  0  0
 50126  1  0  0  0
 50127  1  0  0  0
 51 52  1  0  0  0
 51128  1  0  0  0
 51129  1  0  0  0
 52130  1  0  0  0
 52131  1  0  0  0
 53 54  1  0  0  0
 54 55  2  0  0  0
 54132  1  0  0  0
 55 57  1  0  0  0
 55133  1  0  0  0
 56 69  2  0  0  0
 57 58  2  0  0  0
 57134  1  0  0  0
 58135  1  0  0  0
 59 60  1  0  0  0
 59 61  1  0  0  0
 59 62  1  0  0  0
 60136  1  0  0  0
 60137  1  0  0  0
 60138  1  0  0  0
 61139  1  0  0  0
 61140  1  0  0  0
 61141  1  0  0  0
 62142  1  0  0  0
 62143  1  0  0  0
 62144  1  0  0  0
 63 65  1  0  0  0
 63145  1  0  0  0
 63146  1  0  0  0
 63147  1  0  0  0
 64148  1  0  0  0
 65149  1  0  0  0
 68 81  1  0  0  0
 71 74  2  0  0  0
 71 75  1  0  0  0
 71150  1  0  0  0
 72 74  1  0  0  0
 72 76  2  0  0  0
 72151  1  0  0  0
 73 75  2  0  0  0
 73 76  1  0  0  0
 73 82  1  0  0  0
 74 84  1  0  0  0
 75 83  1  0  0  0
 76 87  1  0  0  0
 77 78  1  0  0  0
 77 80  1  0  0  0
 77 85  2  0  0  0
 78 83  1  0  0  0
 78 86  2  0  0  0
 79152  1  0  0  0
 79153  1  0  0  0
 79154  1  0  0  0
 79 81  1  0  0  0
 80 81  1  0  0  0
 80155  1  0  0  0
 80156  1  0  0  0
 81157  1  0  0  0
 82 88  1  0  0  0
 82 89  1  0  0  0
 82 90  1  0  0  0
 83158  1  0  0  0
 84159  1  0  0  0
M  ISO  4   1 100  68 101  81 101  84 100
M  END
> <chiral flag>
0

> <version>
0

> <s_m_source_file>
/data/baiqing/PycharmProjects/Reinvent-master-3.2/result/LINK_invent/BTK/process_docking_weight1_custom_product_contain_oxygen_bond_distance_aromatic_linkinvent_7_9_3/rearranged_h_0169.sdf

> <i_m_source_file_index>
69

> <r_mmod_Potential_Energy-OPLS-2005>
77.7476425170898

> <r_mmod_Stretch_Energy-OPLS-2005>
50.5053558349609

> <r_mmod_Bend_Energy-OPLS-2005>
101.794898986816

> <r_mmod_Torsional_Energy-OPLS-2005>
263.365051269531

> <r_mmod_Improper_Torsional_Energy-OPLS-2005>
4.45153284072876

> <r_mmod_Van_der_Waal_Energy-OPLS-2005>
157.483734130859

> <r_mmod_Electrostatic_Energy-OPLS-2005>
-289.081665039062

> <r_mmod_Solvation_Energy-OPLS-2005>
-230.990905761719

> <b_mmod_Minimization_Converged-OPLS-2005>
0

> <r_mmod_RMS_Derivative-OPLS-2005>
1.9145575761795

$$$$
69
                    3D
 Structure written by MMmdl.
156164  0  0  1  0            999 V2000
  -30.6229  -14.7212   20.4715 C   0  0  0  0  0  0
  -30.4310  -12.4360   19.4871 C   0  0  0  0  0  0
  -29.5167  -12.4937   18.2433 C   0  0  0  0  0  0
  -28.0384  -12.3282   18.6434 C   0  0  0  0  0  0
  -27.6391  -13.2318   19.8422 C   0  0  2  0  0  0
  -28.6772  -13.1637   20.9846 C   0  0  0  0  0  0
  -25.2507  -13.8190   20.5649 C   0  0  0  0  0  0
  -24.1796  -13.0445   20.9184 C   0  0  0  0  0  0
  -24.6374  -11.6929   20.8720 C   0  0  0  0  0  0
  -23.9044  -10.4293   21.0387 C   0  0  0  0  0  0
  -24.3599   -9.4219   21.9172 C   0  0  0  0  0  0
  -23.6266   -8.2253   22.0749 C   0  0  0  0  0  0
  -22.4264   -8.0262   21.3532 C   0  0  0  0  0  0
  -21.9900   -9.0245   20.4654 C   0  0  0  0  0  0
  -22.7223  -10.2119   20.3051 C   0  0  0  0  0  0
  -21.6858   -6.0718   22.5285 C   0  0  0  0  0  0
  -21.4001   -6.5620   23.8212 C   0  0  0  0  0  0
  -21.3667   -5.6781   24.9180 C   0  0  0  0  0  0
  -21.6046   -4.3047   24.7241 C   0  0  0  0  0  0
  -21.8825   -3.8132   23.4366 C   0  0  0  0  0  0
  -21.9183   -4.6938   22.3411 C   0  0  0  0  0  0
  -22.7831  -13.5233   21.1834 C   0  0  0  0  0  0
  -22.1668   -4.2122   21.0992 F   0  0  0  0  0  0
  -21.5628   -3.4544   25.7760 F   0  0  0  0  0  0
  -29.9878  -13.5002   20.4204 N   0  0  0  0  0  0
  -26.2909  -12.9395   20.3217 N   0  0  0  0  0  0
  -25.9290  -11.6549   20.5695 N   0  0  0  0  0  0
  -22.0469  -12.8224   22.0422 N   0  0  0  0  0  0
  -25.4167  -15.1920   20.4112 N   0  0  0  0  0  0
  -31.8058  -14.7987   20.1283 O   0  0  0  0  0  0
  -21.6625   -6.8860   21.4246 O   0  0  0  0  0  0
  -22.3529  -14.5536   20.6688 O   0  0  0  0  0  0
  -24.6284  -31.8566   23.2006 C   0  0  0  0  0  0
  -25.9133  -32.4744   23.8352 C   0  0  1  0  0  0
  -27.2060  -27.2537   20.1438 C   0  0  0  0  0  0
  -25.5903  -33.8542   24.2249 N   0  0  0  0  0  0
  -23.4274  -30.4770   21.5422 C   0  0  2  0  0  0
  -24.8779  -28.9315   20.0996 C   0  0  0  0  0  0
  -22.7528  -29.4579   22.4905 C   0  0  0  0  0  0
  -18.0295  -28.1354   22.8473 C   0  0  0  0  0  0
  -24.1503  -36.7272   23.2647 C   0  0  0  0  0  0
  -25.9721  -30.7708   21.3829 C   0  0  0  0  0  0
  -26.0476  -29.3926   20.7182 C   0  0  0  0  0  0
  -27.2164  -28.5647   20.7291 C   0  0  0  0  0  0
  -26.0349  -26.8909   19.4388 C   0  0  0  0  0  0
  -24.8763  -27.6914   19.4447 C   0  0  0  0  0  0
  -23.6502  -29.8203   20.1552 C   0  0  0  0  0  0
  -25.4123  -36.3044   24.0340 C   0  0  1  0  0  0
  -20.5894  -28.3650   23.1269 C   0  0  2  0  0  0
  -20.6767  -26.9359   22.5407 C   0  0  0  0  0  0
  -19.5739  -26.6378   21.5197 C   0  0  0  0  0  0
  -18.1908  -26.7872   22.1635 C   0  0  0  0  0  0
  -19.1557  -28.8826   23.2842 C   0  0  0  0  0  0
  -18.9487  -30.1388   23.8897 C   0  0  0  0  0  0
  -17.6488  -30.6551   24.0537 C   0  0  0  0  0  0
  -25.9074  -34.9414   23.5119 C   0  0  0  0  0  0
  -16.5371  -29.9044   23.6311 C   0  0  0  0  0  0
  -16.7300  -28.6448   23.0355 C   0  0  0  0  0  0
  -26.4519  -31.6571   25.0740 C   0  0  0  0  0  0
  -25.3743  -31.3694   26.1456 C   0  0  0  0  0  0
  -27.0391  -30.3000   24.6230 C   0  0  0  0  0  0
  -27.6078  -32.4328   25.7508 C   0  0  0  0  0  0
  -27.5568  -37.1749   24.8468 C   0  0  0  0  0  0
  -21.4227  -29.3028   22.3686 N   0  0  0  0  0  0
  -26.4286  -37.3734   23.9421 N   0  0  0  0  0  0
  -24.6954  -31.0532   22.0983 N   0  0  0  0  0  0
  -23.4232  -28.8105   23.2982 O   0  0  0  0  0  0
  -28.2658  -26.3235   20.2845 O   0  0  0  0  0  0
  -26.5660  -34.8874   22.4681 O   0  0  0  0  0  0
  -23.5458  -32.1434   23.7291 O   0  0  0  0  0  0
  -29.6083  -18.4834   20.9274 C   0  0  0  0  0  0
  -30.8889  -17.4794   19.1196 C   0  0  0  0  0  0
  -29.8464  -19.8338   20.4174 C   0  0  0  0  0  0
  -30.1316  -17.2727   20.2976 C   0  0  0  0  0  0
  -31.1384  -18.7630   18.6062 C   0  0  0  0  0  0
  -30.6269  -19.9158   19.2346 C   0  0  0  0  0  0
  -29.4069  -21.1615   21.0657 C   0  0  0  0  0  0
  -26.7813  -24.4526   21.1468 C   0  0  0  0  0  0
  -29.1869  -23.8351   20.7794 C   0  0  0  0  0  0
  -28.0112  -24.8266   20.2832 C   0  0  2  0  0  0
  -29.3018  -21.2338   22.3977 N   0  0  0  0  0  0
  -29.8822  -15.8691   20.7386 N   0  0  0  0  0  0
  -29.1623  -22.3424   20.3778 N   0  3  0  0  0  0
  -31.8790  -18.8848   17.4745 F   0  0  0  0  0  0
  -30.8997  -21.1226   18.6771 F   0  0  0  0  0  0
  -31.4761  -12.5485   19.1863 H   0  0  0  0  0  0
  -30.3717  -11.4595   19.9679 H   0  0  0  0  0  0
  -29.7982  -11.7233   17.5248 H   0  0  0  0  0  0
  -29.6497  -13.4512   17.7387 H   0  0  0  0  0  0
  -27.8790  -11.2819   18.9042 H   0  0  0  0  0  0
  -27.3918  -12.5226   17.7885 H   0  0  0  0  0  0
  -27.6335  -14.2508   19.4555 H   0  0  0  0  0  0
  -28.6940  -12.1678   21.4311 H   0  0  0  0  0  0
  -28.4108  -13.8507   21.7895 H   0  0  0  0  0  0
  -25.2740   -9.5700   22.4760 H   0  0  0  0  0  0
  -23.9986   -7.4646   22.7497 H   0  0  0  0  0  0
  -21.0807   -8.8766   19.8962 H   0  0  0  0  0  0
  -22.3676  -10.9650   19.6160 H   0  0  0  0  0  0
  -21.1994   -7.6126   23.9710 H   0  0  0  0  0  0
  -21.1488   -6.0512   25.9083 H   0  0  0  0  0  0
  -22.0594   -2.7588   23.2888 H   0  0  0  0  0  0
  -22.4078  -11.9869   22.4741 H   0  0  0  0  0  0
  -21.1115  -13.1283   22.2649 H   0  0  0  0  0  0
  -24.6383  -15.8384   20.4958 H   0  0  0  0  0  0
  -26.2643  -15.6374   20.0832 H   0  0  0  0  0  0
  -26.7188  -32.5409   23.1078 H   0  0  0  0  0  0
  -24.9909  -33.9708   25.0295 H   0  0  0  0  0  0
  -22.7209  -31.2923   21.3934 H   0  0  0  0  0  0
  -23.3748  -35.9603   23.3316 H   0  0  0  0  0  0
  -24.3570  -36.8945   22.2058 H   0  0  0  0  0  0
  -23.7301  -37.6475   23.6710 H   0  0  0  0  0  0
  -26.1137  -31.5412   20.6213 H   0  0  0  0  0  0
  -26.8455  -30.8144   22.0220 H   0  0  0  0  0  0
  -28.1055  -28.8950   21.2455 H   0  0  0  0  0  0
  -25.9788  -25.9516   18.9086 H   0  0  0  0  0  0
  -23.9830  -27.3483   18.9391 H   0  0  0  0  0  0
  -23.7788  -30.6032   19.4075 H   0  0  0  0  0  0
  -22.7676  -29.2550   19.8496 H   0  0  0  0  0  0
  -25.1283  -36.1914   25.0835 H   0  0  0  0  0  0
  -20.9936  -28.3251   24.1421 H   0  0  0  0  0  0
  -20.5637  -26.2261   23.3635 H   0  0  0  0  0  0
  -21.6624  -26.7356   22.1192 H   0  0  0  0  0  0
  -19.6900  -25.6279   21.1237 H   0  0  0  0  0  0
  -19.6698  -27.3189   20.6700 H   0  0  0  0  0  0
  -17.4171  -26.6633   21.4039 H   0  0  0  0  0  0
  -18.0258  -26.0024   22.9051 H   0  0  0  0  0  0
  -19.7995  -30.7134   24.2351 H   0  0  0  0  0  0
  -17.5084  -31.6265   24.5061 H   0  0  0  0  0  0
  -15.5347  -30.2932   23.7653 H   0  0  0  0  0  0
  -15.8711  -28.0759   22.7081 H   0  0  0  0  0  0
  -24.5956  -30.7024   25.7763 H   0  0  0  0  0  0
  -24.8846  -32.2813   26.4874 H   0  0  0  0  0  0
  -25.8029  -30.8890   27.0277 H   0  0  0  0  0  0
  -26.2991  -29.6693   24.1284 H   0  0  0  0  0  0
  -27.4127  -29.7316   25.4770 H   0  0  0  0  0  0
  -27.8839  -30.4264   23.9450 H   0  0  0  0  0  0
  -27.2744  -33.3700   26.1968 H   0  0  0  0  0  0
  -28.3910  -32.6806   25.0333 H   0  0  0  0  0  0
  -28.0707  -31.8553   26.5531 H   0  0  0  0  0  0
  -28.2521  -38.0092   24.7472 H   0  0  0  0  0  0
  -28.1126  -36.2601   24.6321 H   0  0  0  0  0  0
  -27.2263  -37.1406   25.8864 H   0  0  0  0  0  0
  -20.9431  -29.8817   21.6935 H   0  0  0  0  0  0
  -26.0200  -38.2814   24.1412 H   0  0  0  0  0  0
  -29.0271  -18.3841   21.8319 H   0  0  0  0  0  0
  -31.2918  -16.6517   18.5559 H   0  0  0  0  0  0
  -26.7648  -23.3854   21.3709 H   0  0  0  0  0  0
  -25.8265  -24.6411   20.6594 H   0  0  0  0  0  0
  -26.7852  -24.9926   22.0954 H   0  0  0  0  0  0
  -29.2950  -23.9310   21.8602 H   0  0  0  0  0  0
  -30.1235  -24.2251   20.3859 H   0  0  0  0  0  0
  -27.8045  -24.5502   19.2485 H   0  0  0  0  0  0
  -29.6228  -20.4739   22.9793 H   0  0  0  0  0  0
  -28.9111  -22.0341   22.8708 H   0  0  0  0  0  0
  -28.9765  -15.6965   21.1504 H   0  0  0  0  0  0
  -29.2695  -22.2133   19.3781 H   0  0  0  0  0  0
  1 25  1  0  0  0
  1 30  2  0  0  0
  1 82  1  0  0  0
  2  3  1  0  0  0
  2 25  1  0  0  0
  2 86  1  0  0  0
  2 87  1  0  0  0
  3  4  1  0  0  0
  3 88  1  0  0  0
  3 89  1  0  0  0
  4  5  1  0  0  0
  4 90  1  0  0  0
  4 91  1  0  0  0
  5  6  1  0  0  0
  5 26  1  0  0  0
  5 92  1  0  0  0
  6 25  1  0  0  0
  6 93  1  0  0  0
  6 94  1  0  0  0
  7  8  2  0  0  0
  7 26  1  0  0  0
  7 29  1  0  0  0
  8  9  1  0  0  0
  8 22  1  0  0  0
  9 10  1  0  0  0
  9 27  2  0  0  0
 10 11  2  0  0  0
 10 15  1  0  0  0
 11 12  1  0  0  0
 11 95  1  0  0  0
 12 13  2  0  0  0
 12 96  1  0  0  0
 13 14  1  0  0  0
 13 31  1  0  0  0
 14 15  2  0  0  0
 14 97  1  0  0  0
 15 98  1  0  0  0
 16 17  2  0  0  0
 16 21  1  0  0  0
 16 31  1  0  0  0
 17 18  1  0  0  0
 17 99  1  0  0  0
 18 19  2  0  0  0
 18100  1  0  0  0
 19 20  1  0  0  0
 19 24  1  0  0  0
 20 21  2  0  0  0
 20101  1  0  0  0
 21 23  1  0  0  0
 22 28  1  0  0  0
 22 32  2  0  0  0
 26 27  1  0  0  0
 28102  1  0  0  0
 28103  1  0  0  0
 29104  1  0  0  0
 29105  1  0  0  0
 33 34  1  0  0  0
 33 66  1  0  0  0
 33 70  2  0  0  0
 34 36  1  0  0  0
 34 59  1  0  0  0
 34106  1  0  0  0
 35 44  2  0  0  0
 35 45  1  0  0  0
 35 68  1  0  0  0
 36 56  1  0  0  0
 36107  1  0  0  0
 37 39  1  0  0  0
 37 47  1  0  0  0
 37 66  1  0  0  0
 37108  1  0  0  0
 38 43  2  0  0  0
 38 46  1  0  0  0
 38 47  1  0  0  0
 39 64  1  0  0  0
 39 67  2  0  0  0
 40 52  1  0  0  0
 40 53  2  0  0  0
 40 58  1  0  0  0
 41109  1  0  0  0
 41110  1  0  0  0
 41111  1  0  0  0
 41 48  1  0  0  0
 42 43  1  0  0  0
 42 66  1  0  0  0
 42112  1  0  0  0
 42113  1  0  0  0
 43 44  1  0  0  0
 44114  1  0  0  0
 45 46  2  0  0  0
 45115  1  0  0  0
 46116  1  0  0  0
 47117  1  0  0  0
 47118  1  0  0  0
 48 56  1  0  0  0
 48 65  1  0  0  0
 48119  1  0  0  0
 49 50  1  0  0  0
 49 53  1  0  0  0
 49 64  1  0  0  0
 49120  1  0  0  0
 50 51  1  0  0  0
 50121  1  0  0  0
 50122  1  0  0  0
 51 52  1  0  0  0
 51123  1  0  0  0
 51124  1  0  0  0
 52125  1  0  0  0
 52126  1  0  0  0
 53 54  1  0  0  0
 54 55  2  0  0  0
 54127  1  0  0  0
 55 57  1  0  0  0
 55128  1  0  0  0
 56 69  2  0  0  0
 57 58  2  0  0  0
 57129  1  0  0  0
 58130  1  0  0  0
 59 60  1  0  0  0
 59 61  1  0  0  0
 59 62  1  0  0  0
 60131  1  0  0  0
 60132  1  0  0  0
 60133  1  0  0  0
 61134  1  0  0  0
 61135  1  0  0  0
 61136  1  0  0  0
 62137  1  0  0  0
 62138  1  0  0  0
 62139  1  0  0  0
 63 65  1  0  0  0
 63140  1  0  0  0
 63141  1  0  0  0
 63142  1  0  0  0
 64143  1  0  0  0
 65144  1  0  0  0
 68 80  1  0  0  0
 71 73  2  0  0  0
 71 74  1  0  0  0
 71145  1  0  0  0
 72 74  2  0  0  0
 72 75  1  0  0  0
 72146  1  0  0  0
 73 76  1  0  0  0
 73 77  1  0  0  0
 74 82  1  0  0  0
 75 76  2  0  0  0
 75 84  1  0  0  0
 76 85  1  0  0  0
 77 81  1  0  0  0
 77 83  2  0  0  0
 78147  1  0  0  0
 78148  1  0  0  0
 78149  1  0  0  0
 78 80  1  0  0  0
 79 80  1  0  0  0
 79 83  1  0  0  0
 79150  1  0  0  0
 79151  1  0  0  0
 80152  1  0  0  0
 81153  1  0  0  0
 81154  1  0  0  0
 82155  1  0  0  0
 83156  1  0  0  0
M  CHG  1  83   1
M  ISO  4   1 100  68 101  80 101  82 100
M  END
> <chiral flag>
0

> <version>
0

> <s_m_source_file>
/data/baiqing/PycharmProjects/Reinvent-master-3.2/result/LINK_invent/BTK/process_docking_weight1_custom_product_contain_oxygen_bond_distance_aromatic_linkinvent_7_9_3/rearranged_h_0169.sdf

> <i_m_source_file_index>
70

> <r_mmod_Potential_Energy-OPLS-2005>
-76.3800659179688

> <r_mmod_Stretch_Energy-OPLS-2005>
128.612945556641

> <r_mmod_Bend_Energy-OPLS-2005>
160.790084838867

> <r_mmod_Torsional_Energy-OPLS-2005>
241.288146972656

> <r_mmod_Improper_Torsional_Energy-OPLS-2005>
5.55633926391602

> <r_mmod_Van_der_Waal_Energy-OPLS-2005>
151.531539916992

> <r_mmod_Electrostatic_Energy-OPLS-2005>
-422.903839111328

> <r_mmod_Solvation_Energy-OPLS-2005>
-431.070343017578

> <b_mmod_Minimization_Converged-OPLS-2005>
0

> <r_mmod_RMS_Derivative-OPLS-2005>
6.23214197158813

$$$$
70
                    3D
 Structure written by MMmdl.
164172  0  0  1  0            999 V2000
  -30.7251  -14.4952   20.5699 C   0  0  0  0  0  0
  -30.4202  -12.3274   19.4336 C   0  0  0  0  0  0
  -29.4922  -12.5018   18.2144 C   0  0  0  0  0  0
  -28.0164  -12.3592   18.6313 C   0  0  0  0  0  0
  -27.6596  -13.2153   19.8765 C   0  0  2  0  0  0
  -28.7034  -13.0345   21.0020 C   0  0  0  0  0  0
  -25.2573  -13.8176   20.5680 C   0  0  0  0  0  0
  -24.1829  -13.0451   20.9172 C   0  0  0  0  0  0
  -24.6394  -11.6916   20.8745 C   0  0  0  0  0  0
  -23.9070  -10.4302   21.0411 C   0  0  0  0  0  0
  -24.3619   -9.4209   21.9191 C   0  0  0  0  0  0
  -23.6297   -8.2247   22.0759 C   0  0  0  0  0  0
  -22.4286   -8.0276   21.3552 C   0  0  0  0  0  0
  -21.9917   -9.0247   20.4660 C   0  0  0  0  0  0
  -22.7241  -10.2131   20.3065 C   0  0  0  0  0  0
  -21.6852   -6.0731   22.5284 C   0  0  0  0  0  0
  -21.4012   -6.5642   23.8213 C   0  0  0  0  0  0
  -21.3647   -5.6800   24.9176 C   0  0  0  0  0  0
  -21.6042   -4.3063   24.7239 C   0  0  0  0  0  0
  -21.8819   -3.8151   23.4355 C   0  0  0  0  0  0
  -21.9198   -4.6964   22.3407 C   0  0  0  0  0  0
  -22.7853  -13.5241   21.1844 C   0  0  0  0  0  0
  -22.1666   -4.2151   21.0987 F   0  0  0  0  0  0
  -21.5621   -3.4553   25.7749 F   0  0  0  0  0  0
  -30.0316  -13.3287   20.4418 N   0  0  0  0  0  0
  -26.3021  -12.9360   20.3394 N   0  0  0  0  0  0
  -25.9336  -11.6517   20.5806 N   0  0  0  0  0  0
  -22.0518  -12.8211   22.0400 N   0  0  0  0  0  0
  -25.4328  -15.1883   20.4051 N   0  0  0  0  0  0
  -31.8562  -14.6319   20.0957 O   0  0  0  0  0  0
  -21.6645   -6.8871   21.4243 O   0  0  0  0  0  0
  -22.3533  -14.5555   20.6719 O   0  0  0  0  0  0
  -24.6179  -31.8666   23.2110 C   0  0  0  0  0  0
  -25.9057  -32.4811   23.8408 C   0  0  1  0  0  0
  -27.2259  -27.4166   20.0999 C   0  0  0  0  0  0
  -25.5921  -33.8622   24.2341 N   0  0  0  0  0  0
  -23.4065  -30.4908   21.5519 C   0  0  2  0  0  0
  -24.8562  -28.9687   20.1018 C   0  0  0  0  0  0
  -22.7432  -29.4646   22.4996 C   0  0  0  0  0  0
  -18.0261  -28.1368   22.8476 C   0  0  0  0  0  0
  -24.1489  -36.7302   23.2645 C   0  0  0  0  0  0
  -25.9413  -30.8246   21.3722 C   0  0  0  0  0  0
  -26.0179  -29.4638   20.7099 C   0  0  0  0  0  0
  -27.2093  -28.6953   20.7081 C   0  0  0  0  0  0
  -26.0563  -26.9606   19.4506 C   0  0  0  0  0  0
  -24.8729  -27.7186   19.4637 C   0  0  0  0  0  0
  -23.6136  -29.8298   20.1638 C   0  0  0  0  0  0
  -25.4110  -36.3112   24.0356 C   0  0  1  0  0  0
  -20.5865  -28.3664   23.1312 C   0  0  2  0  0  0
  -20.6771  -26.9390   22.5434 C   0  0  0  0  0  0
  -19.5760  -26.6362   21.5217 C   0  0  0  0  0  0
  -18.1909  -26.7922   22.1579 C   0  0  0  0  0  0
  -19.1516  -28.8833   23.2883 C   0  0  0  0  0  0
  -18.9456  -30.1433   23.8907 C   0  0  0  0  0  0
  -17.6465  -30.6578   24.0564 C   0  0  0  0  0  0
  -25.9043  -34.9477   23.5144 C   0  0  0  0  0  0
  -16.5352  -29.9081   23.6333 C   0  0  0  0  0  0
  -16.7259  -28.6494   23.0363 C   0  0  0  0  0  0
  -26.4479  -31.6598   25.0739 C   0  0  0  0  0  0
  -25.3728  -31.3679   26.1465 C   0  0  0  0  0  0
  -27.0315  -30.3050   24.6100 C   0  0  0  0  0  0
  -27.6052  -32.4341   25.7484 C   0  0  0  0  0  0
  -27.5600  -37.1790   24.8457 C   0  0  0  0  0  0
  -21.4160  -29.3030   22.3726 N   0  0  0  0  0  0
  -26.4289  -37.3807   23.9438 N   0  0  0  0  0  0
  -24.6729  -31.0742   22.1023 N   0  0  0  0  0  0
  -23.4205  -28.8187   23.3036 O   0  0  0  0  0  0
  -28.3079  -26.5619   20.2044 O   0  0  0  0  0  0
  -26.5597  -34.8926   22.4695 O   0  0  0  0  0  0
  -23.5368  -32.1435   23.7485 O   0  0  0  0  0  0
  -32.2638  -18.6058   21.3638 C   0  0  0  0  0  0
  -31.3462  -19.6318   21.0674 C   0  0  0  0  0  0
  -31.8467  -17.2621   21.3904 C   0  0  0  0  0  0
  -29.9883  -19.3284   20.8245 C   0  0  0  0  0  0
  -30.5007  -16.9151   21.1182 C   0  0  0  0  0  0
  -29.5732  -17.9612   20.8641 C   0  0  0  0  0  0
  -29.0490  -20.4362   20.5262 C   0  0  0  0  0  0
  -28.8108  -24.1494   20.9195 C   0  0  0  0  0  0
  -26.6819  -21.2018   22.6589 C   0  0  0  0  0  0
  -25.9786  -23.5577   22.4731 C   0  0  0  0  0  0
  -27.9191  -25.4106   20.9966 C   0  0  0  0  0  0
  -28.1173  -22.7473   21.1508 C   0  0  2  0  0  0
  -27.2222  -22.6361   22.4513 C   0  0  0  0  0  0
  -30.0625  -15.5424   21.1109 N   0  0  0  0  0  0
  -29.1260  -21.6386   21.1494 N   0  0  0  0  0  0
  -28.0725  -20.2587   19.6350 N   0  3  0  0  0  0
  -30.0192  -24.2595   20.6876 O   0  0  0  0  0  0
  -28.2776  -17.6326   20.6286 F   0  0  0  0  0  0
  -28.2102  -23.0142   23.8925 Cl  0  0  0  0  0  0
  -31.4635  -12.4220   19.1238 H   0  0  0  0  0  0
  -30.3289  -11.3230   19.8490 H   0  0  0  0  0  0
  -29.7350  -11.7643   17.4477 H   0  0  0  0  0  0
  -29.6522  -13.4812   17.7605 H   0  0  0  0  0  0
  -27.8374  -11.3043   18.8418 H   0  0  0  0  0  0
  -27.3631  -12.6199   17.7987 H   0  0  0  0  0  0
  -27.6939  -14.2579   19.5592 H   0  0  0  0  0  0
  -28.6837  -12.0114   21.3796 H   0  0  0  0  0  0
  -28.4668  -13.6665   21.8587 H   0  0  0  0  0  0
  -25.2758   -9.5687   22.4772 H   0  0  0  0  0  0
  -24.0013   -7.4643   22.7482 H   0  0  0  0  0  0
  -21.0844   -8.8758   19.8972 H   0  0  0  0  0  0
  -22.3692  -10.9669   19.6183 H   0  0  0  0  0  0
  -21.1998   -7.6157   23.9716 H   0  0  0  0  0  0
  -21.1459   -6.0536   25.9075 H   0  0  0  0  0  0
  -22.0605   -2.7621   23.2867 H   0  0  0  0  0  0
  -22.4146  -11.9856   22.4728 H   0  0  0  0  0  0
  -21.1153  -13.1222   22.2677 H   0  0  0  0  0  0
  -24.6697  -15.8478   20.5013 H   0  0  0  0  0  0
  -26.2939  -15.6243   20.0999 H   0  0  0  0  0  0
  -26.7127  -32.5513   23.1177 H   0  0  0  0  0  0
  -25.0155  -33.9803   25.0534 H   0  0  0  0  0  0
  -22.6957  -31.3088   21.4127 H   0  0  0  0  0  0
  -23.3786  -35.9591   23.3269 H   0  0  0  0  0  0
  -24.3600  -36.8946   22.2065 H   0  0  0  0  0  0
  -23.7182  -37.6472   23.6680 H   0  0  0  0  0  0
  -26.0647  -31.5930   20.6084 H   0  0  0  0  0  0
  -26.8262  -30.8712   21.9947 H   0  0  0  0  0  0
  -28.0965  -29.0570   21.2090 H   0  0  0  0  0  0
  -26.0427  -25.9989   18.9576 H   0  0  0  0  0  0
  -23.9858  -27.3358   18.9787 H   0  0  0  0  0  0
  -23.7069  -30.6078   19.4054 H   0  0  0  0  0  0
  -22.7395  -29.2443   19.8720 H   0  0  0  0  0  0
  -25.1265  -36.1997   25.0849 H   0  0  0  0  0  0
  -20.9931  -28.3245   24.1445 H   0  0  0  0  0  0
  -20.5664  -26.2279   23.3634 H   0  0  0  0  0  0
  -21.6645  -26.7418   22.1236 H   0  0  0  0  0  0
  -19.6942  -25.6266   21.1267 H   0  0  0  0  0  0
  -19.6741  -27.3158   20.6738 H   0  0  0  0  0  0
  -17.4214  -26.6723   21.3934 H   0  0  0  0  0  0
  -18.0235  -26.0025   22.8916 H   0  0  0  0  0  0
  -19.7943  -30.7224   24.2295 H   0  0  0  0  0  0
  -17.5026  -31.6265   24.5133 H   0  0  0  0  0  0
  -15.5367  -30.2992   23.7662 H   0  0  0  0  0  0
  -15.8648  -28.0820   22.7103 H   0  0  0  0  0  0
  -24.6023  -30.6876   25.7824 H   0  0  0  0  0  0
  -24.8766  -32.2796   26.4806 H   0  0  0  0  0  0
  -25.8090  -30.8992   27.0293 H   0  0  0  0  0  0
  -26.2848  -29.6821   24.1163 H   0  0  0  0  0  0
  -27.4112  -29.7279   25.4544 H   0  0  0  0  0  0
  -27.8671  -30.4403   23.9229 H   0  0  0  0  0  0
  -27.2660  -33.3631   26.2083 H   0  0  0  0  0  0
  -28.3820  -32.6932   25.0274 H   0  0  0  0  0  0
  -28.0759  -31.8460   26.5368 H   0  0  0  0  0  0
  -28.2581  -38.0124   24.7580 H   0  0  0  0  0  0
  -28.1133  -36.2670   24.6177 H   0  0  0  0  0  0
  -27.2337  -37.1306   25.8857 H   0  0  0  0  0  0
  -20.9334  -29.8775   21.6963 H   0  0  0  0  0  0
  -26.0191  -38.2881   24.1472 H   0  0  0  0  0  0
  -33.2987  -18.8485   21.5609 H   0  0  0  0  0  0
  -31.7003  -20.6531   21.0240 H   0  0  0  0  0  0
  -32.5778  -16.5023   21.6190 H   0  0  0  0  0  0
  -26.0925  -20.8682   21.8036 H   0  0  0  0  0  0
  -26.0417  -21.1395   23.5399 H   0  0  0  0  0  0
  -27.4771  -20.4779   22.8261 H   0  0  0  0  0  0
  -25.4783  -23.5807   21.5040 H   0  0  0  0  0  0
  -26.2089  -24.5782   22.7698 H   0  0  0  0  0  0
  -25.2317  -23.2173   23.1913 H   0  0  0  0  0  0
  -27.8684  -25.7219   22.0390 H   0  0  0  0  0  0
  -26.9278  -25.0763   20.7076 H   0  0  0  0  0  0
  -27.4591  -22.5985   20.2948 H   0  0  0  0  0  0
  -29.1008  -15.3769   21.3662 H   0  0  0  0  0  0
  -29.9001  -21.7747   21.7863 H   0  0  0  0  0  0
  -27.9226  -19.3375   19.2513 H   0  0  0  0  0  0
  -27.4666  -21.0081   19.3505 H   0  0  0  0  0  0
  1 25  1  0  0  0
  1 30  2  0  0  0
  1 84  1  0  0  0
  2  3  1  0  0  0
  2 25  1  0  0  0
  2 90  1  0  0  0
  2 91  1  0  0  0
  3  4  1  0  0  0
  3 92  1  0  0  0
  3 93  1  0  0  0
  4  5  1  0  0  0
  4 94  1  0  0  0
  4 95  1  0  0  0
  5  6  1  0  0  0
  5 26  1  0  0  0
  5 96  1  0  0  0
  6 25  1  0  0  0
  6 97  1  0  0  0
  6 98  1  0  0  0
  7  8  2  0  0  0
  7 26  1  0  0  0
  7 29  1  0  0  0
  8  9  1  0  0  0
  8 22  1  0  0  0
  9 10  1  0  0  0
  9 27  2  0  0  0
 10 11  2  0  0  0
 10 15  1  0  0  0
 11 12  1  0  0  0
 11 99  1  0  0  0
 12 13  2  0  0  0
 12100  1  0  0  0
 13 14  1  0  0  0
 13 31  1  0  0  0
 14 15  2  0  0  0
 14101  1  0  0  0
 15102  1  0  0  0
 16 17  2  0  0  0
 16 21  1  0  0  0
 16 31  1  0  0  0
 17 18  1  0  0  0
 17103  1  0  0  0
 18 19  2  0  0  0
 18104  1  0  0  0
 19 20  1  0  0  0
 19 24  1  0  0  0
 20 21  2  0  0  0
 20105  1  0  0  0
 21 23  1  0  0  0
 22 28  1  0  0  0
 22 32  2  0  0  0
 26 27  1  0  0  0
 28106  1  0  0  0
 28107  1  0  0  0
 29108  1  0  0  0
 29109  1  0  0  0
 33 34  1  0  0  0
 33 66  1  0  0  0
 33 70  2  0  0  0
 34 36  1  0  0  0
 34 59  1  0  0  0
 34110  1  0  0  0
 35 44  2  0  0  0
 35 45  1  0  0  0
 35 68  1  0  0  0
 36 56  1  0  0  0
 36111  1  0  0  0
 37 39  1  0  0  0
 37 47  1  0  0  0
 37 66  1  0  0  0
 37112  1  0  0  0
 38 43  2  0  0  0
 38 46  1  0  0  0
 38 47  1  0  0  0
 39 64  1  0  0  0
 39 67  2  0  0  0
 40 52  1  0  0  0
 40 53  2  0  0  0
 40 58  1  0  0  0
 41113  1  0  0  0
 41114  1  0  0  0
 41115  1  0  0  0
 41 48  1  0  0  0
 42 43  1  0  0  0
 42 66  1  0  0  0
 42116  1  0  0  0
 42117  1  0  0  0
 43 44  1  0  0  0
 44118  1  0  0  0
 45 46  2  0  0  0
 45119  1  0  0  0
 46120  1  0  0  0
 47121  1  0  0  0
 47122  1  0  0  0
 48 56  1  0  0  0
 48 65  1  0  0  0
 48123  1  0  0  0
 49 50  1  0  0  0
 49 53  1  0  0  0
 49 64  1  0  0  0
 49124  1  0  0  0
 50 51  1  0  0  0
 50125  1  0  0  0
 50126  1  0  0  0
 51 52  1  0  0  0
 51127  1  0  0  0
 51128  1  0  0  0
 52129  1  0  0  0
 52130  1  0  0  0
 53 54  1  0  0  0
 54 55  2  0  0  0
 54131  1  0  0  0
 55 57  1  0  0  0
 55132  1  0  0  0
 56 69  2  0  0  0
 57 58  2  0  0  0
 57133  1  0  0  0
 58134  1  0  0  0
 59 60  1  0  0  0
 59 61  1  0  0  0
 59 62  1  0  0  0
 60135  1  0  0  0
 60136  1  0  0  0
 60137  1  0  0  0
 61138  1  0  0  0
 61139  1  0  0  0
 61140  1  0  0  0
 62141  1  0  0  0
 62142  1  0  0  0
 62143  1  0  0  0
 63 65  1  0  0  0
 63144  1  0  0  0
 63145  1  0  0  0
 63146  1  0  0  0
 64147  1  0  0  0
 65148  1  0  0  0
 68 81  1  0  0  0
 71 72  2  0  0  0
 71 73  1  0  0  0
 71149  1  0  0  0
 72 74  1  0  0  0
 72150  1  0  0  0
 73 75  2  0  0  0
 73151  1  0  0  0
 74 76  2  0  0  0
 74 77  1  0  0  0
 75 76  1  0  0  0
 75 84  1  0  0  0
 76 88  1  0  0  0
 77 85  1  0  0  0
 77 86  2  0  0  0
 78 81  1  0  0  0
 78 82  1  0  0  0
 78 87  2  0  0  0
 79152  1  0  0  0
 79153  1  0  0  0
 79154  1  0  0  0
 79 83  1  0  0  0
 80 83  1  0  0  0
 80155  1  0  0  0
 80156  1  0  0  0
 80157  1  0  0  0
 81158  1  0  0  0
 81159  1  0  0  0
 82 83  1  0  0  0
 82 85  1  0  0  0
 82160  1  0  0  0
 83 89  1  0  0  0
 84161  1  0  0  0
 85162  1  0  0  0
 86163  1  0  0  0
 86164  1  0  0  0
M  CHG  1  86   1
M  ISO  4   1 100  68 101  81 101  84 100
M  END
> <chiral flag>
0

> <version>
0

> <s_m_source_file>
/data/baiqing/PycharmProjects/Reinvent-master-3.2/result/LINK_invent/BTK/process_docking_weight1_custom_product_contain_oxygen_bond_distance_aromatic_linkinvent_7_9_3/rearranged_h_0169.sdf

> <i_m_source_file_index>
71

> <r_mmod_Potential_Energy-OPLS-2005>
-302.935516357422

> <r_mmod_Stretch_Energy-OPLS-2005>
51.6306190490723

> <r_mmod_Bend_Energy-OPLS-2005>
109.140159606934

> <r_mmod_Torsional_Energy-OPLS-2005>
257.687286376953

> <r_mmod_Improper_Torsional_Energy-OPLS-2005>
3.94453859329224

> <r_mmod_Van_der_Waal_Energy-OPLS-2005>
171.558242797852

> <r_mmod_Electrostatic_Energy-OPLS-2005>
-479.664489746094

> <r_mmod_Solvation_Energy-OPLS-2005>
-440.351501464844

> <b_mmod_Minimization_Converged-OPLS-2005>
0

> <r_mmod_RMS_Derivative-OPLS-2005>
2.68739247322083

$$$$
71
                    3D
 Structure written by MMmdl.
158166  0  0  1  0            999 V2000
  -30.7134  -14.4944   20.5630 C   0  0  0  0  0  0
  -30.4187  -12.3165   19.4389 C   0  0  0  0  0  0
  -29.5010  -12.5160   18.2148 C   0  0  0  0  0  0
  -28.0183  -12.3789   18.6157 C   0  0  0  0  0  0
  -27.6612  -13.2161   19.8747 C   0  0  2  0  0  0
  -28.7001  -13.0024   20.9967 C   0  0  0  0  0  0
  -25.2571  -13.8177   20.5687 C   0  0  0  0  0  0
  -24.1835  -13.0436   20.9179 C   0  0  0  0  0  0
  -24.6414  -11.6914   20.8729 C   0  0  0  0  0  0
  -23.9081  -10.4296   21.0388 C   0  0  0  0  0  0
  -24.3631   -9.4210   21.9163 C   0  0  0  0  0  0
  -23.6310   -8.2243   22.0739 C   0  0  0  0  0  0
  -22.4285   -8.0278   21.3543 C   0  0  0  0  0  0
  -21.9921   -9.0247   20.4635 C   0  0  0  0  0  0
  -22.7249  -10.2131   20.3039 C   0  0  0  0  0  0
  -21.6851   -6.0741   22.5283 C   0  0  0  0  0  0
  -21.4017   -6.5642   23.8217 C   0  0  0  0  0  0
  -21.3661   -5.6794   24.9178 C   0  0  0  0  0  0
  -21.6041   -4.3056   24.7221 C   0  0  0  0  0  0
  -21.8819   -3.8149   23.4346 C   0  0  0  0  0  0
  -21.9195   -4.6970   22.3406 C   0  0  0  0  0  0
  -22.7852  -13.5222   21.1843 C   0  0  0  0  0  0
  -22.1654   -4.2159   21.0978 F   0  0  0  0  0  0
  -21.5637   -3.4540   25.7728 F   0  0  0  0  0  0
  -30.0332  -13.3144   20.4545 N   0  0  0  0  0  0
  -26.3025  -12.9375   20.3363 N   0  0  0  0  0  0
  -25.9337  -11.6530   20.5749 N   0  0  0  0  0  0
  -22.0498  -12.8221   22.0412 N   0  0  0  0  0  0
  -25.4303  -15.1897   20.4112 N   0  0  0  0  0  0
  -31.8299  -14.6375   20.0553 O   0  0  0  0  0  0
  -21.6643   -6.8875   21.4242 O   0  0  0  0  0  0
  -22.3529  -14.5515   20.6673 O   0  0  0  0  0  0
  -24.6176  -31.8656   23.2104 C   0  0  0  0  0  0
  -25.9057  -32.4806   23.8397 C   0  0  1  0  0  0
  -27.2290  -27.4185   20.0931 C   0  0  0  0  0  0
  -25.5902  -33.8615   24.2321 N   0  0  0  0  0  0
  -23.4062  -30.4921   21.5501 C   0  0  2  0  0  0
  -24.8542  -28.9595   20.1096 C   0  0  0  0  0  0
  -22.7427  -29.4664   22.4979 C   0  0  0  0  0  0
  -18.0272  -28.1378   22.8484 C   0  0  0  0  0  0
  -24.1483  -36.7314   23.2638 C   0  0  0  0  0  0
  -25.9387  -30.8271   21.3666 C   0  0  0  0  0  0
  -26.0175  -29.4629   20.7076 C   0  0  0  0  0  0
  -27.2115  -28.6995   20.6971 C   0  0  0  0  0  0
  -26.0509  -26.9419   19.4779 C   0  0  0  0  0  0
  -24.8659  -27.6987   19.4905 C   0  0  0  0  0  0
  -23.6161  -29.8258   20.1644 C   0  0  0  0  0  0
  -25.4102  -36.3106   24.0336 C   0  0  1  0  0  0
  -20.5863  -28.3678   23.1304 C   0  0  2  0  0  0
  -20.6755  -26.9407   22.5418 C   0  0  0  0  0  0
  -19.5734  -26.6388   21.5210 C   0  0  0  0  0  0
  -18.1916  -26.7927   22.1621 C   0  0  0  0  0  0
  -19.1520  -28.8846   23.2894 C   0  0  0  0  0  0
  -18.9445  -30.1456   23.8906 C   0  0  0  0  0  0
  -17.6442  -30.6584   24.0558 C   0  0  0  0  0  0
  -25.9032  -34.9471   23.5121 C   0  0  0  0  0  0
  -16.5335  -29.9076   23.6327 C   0  0  0  0  0  0
  -16.7262  -28.6495   23.0343 C   0  0  0  0  0  0
  -26.4483  -31.6592   25.0729 C   0  0  0  0  0  0
  -25.3754  -31.3698   26.1478 C   0  0  0  0  0  0
  -27.0316  -30.3021   24.6136 C   0  0  0  0  0  0
  -27.6061  -32.4313   25.7496 C   0  0  0  0  0  0
  -27.5578  -37.1809   24.8461 C   0  0  0  0  0  0
  -21.4150  -29.3037   22.3716 N   0  0  0  0  0  0
  -26.4284  -37.3792   23.9410 N   0  0  0  0  0  0
  -24.6722  -31.0753   22.1010 N   0  0  0  0  0  0
  -23.4184  -28.8197   23.3025 O   0  0  0  0  0  0
  -28.3416  -26.6000   20.1251 O   0  0  0  0  0  0
  -26.5596  -34.8932   22.4686 O   0  0  0  0  0  0
  -23.5364  -32.1423   23.7490 O   0  0  0  0  0  0
  -28.8347  -19.2379   23.4416 C   0  0  0  0  0  0
  -29.2805  -18.0915   22.7698 C   0  0  0  0  0  0
  -28.8147  -20.4747   22.7839 C   0  0  0  0  0  0
  -29.7320  -18.1546   21.4332 C   0  0  0  0  0  0
  -29.6769  -19.4196   20.7499 C   0  0  0  0  0  0
  -29.2048  -20.5943   21.4289 C   0  0  0  0  0  0
  -30.2462  -16.8951   20.8089 C   0  0  0  0  0  0
  -30.0345  -15.6162   21.2248 C   0  0  0  0  0  0
  -28.1228  -25.3561   20.6961 C   0  0  0  0  0  0
  -28.7786  -24.2092   20.3916 C   0  0  0  0  0  0
  -28.3939  -22.9633   21.0801 C   0  0  0  0  0  0
  -29.0632  -18.9079   18.3290 C   0  0  0  0  0  0
  -30.1071  -19.5090   19.2827 C   0  0  0  0  0  0
  -29.1826  -21.8961   20.7978 N   0  0  0  0  0  0
  -27.4148  -22.8815   21.8276 O   0  0  0  0  0  0
  -29.7596  -24.2067   19.4761 O   0  0  0  0  0  0
  -31.4656  -12.3941   19.1417 H   0  0  0  0  0  0
  -30.3054  -11.3088   19.8398 H   0  0  0  0  0  0
  -29.7473  -11.7939   17.4353 H   0  0  0  0  0  0
  -29.6741  -13.5028   17.7817 H   0  0  0  0  0  0
  -27.8238  -11.3232   18.8040 H   0  0  0  0  0  0
  -27.3735  -12.6592   17.7815 H   0  0  0  0  0  0
  -27.7041  -14.2653   19.5834 H   0  0  0  0  0  0
  -28.6778  -11.9661   21.3335 H   0  0  0  0  0  0
  -28.4421  -13.5859   21.8780 H   0  0  0  0  0  0
  -25.2776   -9.5696   22.4734 H   0  0  0  0  0  0
  -24.0024   -7.4640   22.7458 H   0  0  0  0  0  0
  -21.0851   -8.8757   19.8948 H   0  0  0  0  0  0
  -22.3686  -10.9666   19.6150 H   0  0  0  0  0  0
  -21.2003   -7.6149   23.9729 H   0  0  0  0  0  0
  -21.1484   -6.0515   25.9080 H   0  0  0  0  0  0
  -22.0600   -2.7615   23.2837 H   0  0  0  0  0  0
  -22.4108  -11.9896   22.4843 H   0  0  0  0  0  0
  -21.1101  -13.1228   22.2569 H   0  0  0  0  0  0
  -24.6742  -15.8531   20.5341 H   0  0  0  0  0  0
  -26.2998  -15.6288   20.1345 H   0  0  0  0  0  0
  -26.7134  -32.5513   23.1173 H   0  0  0  0  0  0
  -25.0042  -33.9768   25.0455 H   0  0  0  0  0  0
  -22.6954  -31.3094   21.4109 H   0  0  0  0  0  0
  -23.3736  -35.9654   23.3306 H   0  0  0  0  0  0
  -24.3577  -36.8925   22.2050 H   0  0  0  0  0  0
  -23.7251  -37.6528   23.6650 H   0  0  0  0  0  0
  -26.0534  -31.5954   20.6000 H   0  0  0  0  0  0
  -26.8254  -30.8775   21.9872 H   0  0  0  0  0  0
  -28.1067  -29.0773   21.1710 H   0  0  0  0  0  0
  -26.0451  -25.9713   19.0028 H   0  0  0  0  0  0
  -23.9725  -27.3055   19.0253 H   0  0  0  0  0  0
  -23.7221  -30.5999   19.4043 H   0  0  0  0  0  0
  -22.7393  -29.2451   19.8696 H   0  0  0  0  0  0
  -25.1284  -36.1962   25.0829 H   0  0  0  0  0  0
  -20.9954  -28.3241   24.1420 H   0  0  0  0  0  0
  -20.5637  -26.2287   23.3611 H   0  0  0  0  0  0
  -21.6627  -26.7429   22.1215 H   0  0  0  0  0  0
  -19.6884  -25.6299   21.1232 H   0  0  0  0  0  0
  -19.6669  -27.3205   20.6745 H   0  0  0  0  0  0
  -17.4182  -26.6682   21.4025 H   0  0  0  0  0  0
  -18.0310  -26.0071   22.9021 H   0  0  0  0  0  0
  -19.7924  -30.7275   24.2269 H   0  0  0  0  0  0
  -17.4996  -31.6265   24.5160 H   0  0  0  0  0  0
  -15.5338  -30.2970   23.7665 H   0  0  0  0  0  0
  -15.8661  -28.0830   22.7035 H   0  0  0  0  0  0
  -24.5918  -30.7052   25.7821 H   0  0  0  0  0  0
  -24.8955  -32.2849   26.4958 H   0  0  0  0  0  0
  -25.8110  -30.8848   27.0222 H   0  0  0  0  0  0
  -26.2865  -29.6774   24.1185 H   0  0  0  0  0  0
  -27.4057  -29.7271   25.4624 H   0  0  0  0  0  0
  -27.8720  -30.4318   23.9307 H   0  0  0  0  0  0
  -27.2669  -33.3596   26.2110 H   0  0  0  0  0  0
  -28.3850  -32.6902   25.0306 H   0  0  0  0  0  0
  -28.0748  -31.8410   26.5384 H   0  0  0  0  0  0
  -28.2599  -38.0106   24.7508 H   0  0  0  0  0  0
  -28.1075  -36.2643   24.6277 H   0  0  0  0  0  0
  -27.2300  -37.1435   25.8865 H   0  0  0  0  0  0
  -20.9314  -29.8769   21.6941 H   0  0  0  0  0  0
  -26.0174  -38.2867   24.1422 H   0  0  0  0  0  0
  -28.5214  -19.1711   24.4733 H   0  0  0  0  0  0
  -29.3059  -17.1654   23.3239 H   0  0  0  0  0  0
  -28.4947  -21.3325   23.3566 H   0  0  0  0  0  0
  -30.8907  -17.0286   19.9523 H   0  0  0  0  0  0
  -29.3890  -15.4315   22.0659 H   0  0  0  0  0  0
  -27.3347  -25.3888   21.4399 H   0  0  0  0  0  0
  -29.3878  -18.9850   17.2907 H   0  0  0  0  0  0
  -28.1097  -19.4285   18.4161 H   0  0  0  0  0  0
  -28.8865  -17.8527   18.5377 H   0  0  0  0  0  0
  -31.0710  -19.0187   19.1483 H   0  0  0  0  0  0
  -30.2928  -20.5405   18.9868 H   0  0  0  0  0  0
  -29.8526  -22.0681   20.0609 H   0  0  0  0  0  0
  -29.8423  -25.0994   19.1641 H   0  0  0  0  0  0
  1 25  1  0  0  0
  1 30  2  0  0  0
  1 78  1  0  0  0
  2  3  1  0  0  0
  2 25  1  0  0  0
  2 87  1  0  0  0
  2 88  1  0  0  0
  3  4  1  0  0  0
  3 89  1  0  0  0
  3 90  1  0  0  0
  4  5  1  0  0  0
  4 91  1  0  0  0
  4 92  1  0  0  0
  5  6  1  0  0  0
  5 26  1  0  0  0
  5 93  1  0  0  0
  6 25  1  0  0  0
  6 94  1  0  0  0
  6 95  1  0  0  0
  7  8  2  0  0  0
  7 26  1  0  0  0
  7 29  1  0  0  0
  8  9  1  0  0  0
  8 22  1  0  0  0
  9 10  1  0  0  0
  9 27  2  0  0  0
 10 11  2  0  0  0
 10 15  1  0  0  0
 11 12  1  0  0  0
 11 96  1  0  0  0
 12 13  2  0  0  0
 12 97  1  0  0  0
 13 14  1  0  0  0
 13 31  1  0  0  0
 14 15  2  0  0  0
 14 98  1  0  0  0
 15 99  1  0  0  0
 16 17  2  0  0  0
 16 21  1  0  0  0
 16 31  1  0  0  0
 17 18  1  0  0  0
 17100  1  0  0  0
 18 19  2  0  0  0
 18101  1  0  0  0
 19 20  1  0  0  0
 19 24  1  0  0  0
 20 21  2  0  0  0
 20102  1  0  0  0
 21 23  1  0  0  0
 22 28  1  0  0  0
 22 32  2  0  0  0
 26 27  1  0  0  0
 28103  1  0  0  0
 28104  1  0  0  0
 29105  1  0  0  0
 29106  1  0  0  0
 33 34  1  0  0  0
 33 66  1  0  0  0
 33 70  2  0  0  0
 34 36  1  0  0  0
 34 59  1  0  0  0
 34107  1  0  0  0
 35 44  2  0  0  0
 35 45  1  0  0  0
 35 68  1  0  0  0
 36 56  1  0  0  0
 36108  1  0  0  0
 37 39  1  0  0  0
 37 47  1  0  0  0
 37 66  1  0  0  0
 37109  1  0  0  0
 38 43  2  0  0  0
 38 46  1  0  0  0
 38 47  1  0  0  0
 39 64  1  0  0  0
 39 67  2  0  0  0
 40 52  1  0  0  0
 40 53  2  0  0  0
 40 58  1  0  0  0
 41110  1  0  0  0
 41111  1  0  0  0
 41112  1  0  0  0
 41 48  1  0  0  0
 42 43  1  0  0  0
 42 66  1  0  0  0
 42113  1  0  0  0
 42114  1  0  0  0
 43 44  1  0  0  0
 44115  1  0  0  0
 45 46  2  0  0  0
 45116  1  0  0  0
 46117  1  0  0  0
 47118  1  0  0  0
 47119  1  0  0  0
 48 56  1  0  0  0
 48 65  1  0  0  0
 48120  1  0  0  0
 49 50  1  0  0  0
 49 53  1  0  0  0
 49 64  1  0  0  0
 49121  1  0  0  0
 50 51  1  0  0  0
 50122  1  0  0  0
 50123  1  0  0  0
 51 52  1  0  0  0
 51124  1  0  0  0
 51125  1  0  0  0
 52126  1  0  0  0
 52127  1  0  0  0
 53 54  1  0  0  0
 54 55  2  0  0  0
 54128  1  0  0  0
 55 57  1  0  0  0
 55129  1  0  0  0
 56 69  2  0  0  0
 57 58  2  0  0  0
 57130  1  0  0  0
 58131  1  0  0  0
 59 60  1  0  0  0
 59 61  1  0  0  0
 59 62  1  0  0  0
 60132  1  0  0  0
 60133  1  0  0  0
 60134  1  0  0  0
 61135  1  0  0  0
 61136  1  0  0  0
 61137  1  0  0  0
 62138  1  0  0  0
 62139  1  0  0  0
 62140  1  0  0  0
 63 65  1  0  0  0
 63141  1  0  0  0
 63142  1  0  0  0
 63143  1  0  0  0
 64144  1  0  0  0
 65145  1  0  0  0
 68 79  1  0  0  0
 71 72  2  0  0  0
 71 73  1  0  0  0
 71146  1  0  0  0
 72 74  1  0  0  0
 72147  1  0  0  0
 73 76  2  0  0  0
 73148  1  0  0  0
 74 75  2  0  0  0
 74 77  1  0  0  0
 75 76  1  0  0  0
 75 83  1  0  0  0
 76 84  1  0  0  0
 77 78  2  0  0  0
 77149  1  0  0  0
 78150  1  0  0  0
 79 80  2  0  0  0
 79151  1  0  0  0
 80 81  1  0  0  0
 80 86  1  0  0  0
 81 84  1  0  0  0
 81 85  2  0  0  0
 82 83  1  0  0  0
 82152  1  0  0  0
 82153  1  0  0  0
 82154  1  0  0  0
 83155  1  0  0  0
 83156  1  0  0  0
 84157  1  0  0  0
 86158  1  0  0  0
M  ISO  4   1 100  68 101  78 100  79 101
M  END
> <chiral flag>
0

> <version>
0

> <s_m_source_file>
/data/baiqing/PycharmProjects/Reinvent-master-3.2/result/LINK_invent/BTK/process_docking_weight1_custom_product_contain_oxygen_bond_distance_aromatic_linkinvent_7_9_3/rearranged_h_0169.sdf

> <i_m_source_file_index>
72

> <r_mmod_Potential_Energy-OPLS-2005>
-64.3224182128906

> <r_mmod_Stretch_Energy-OPLS-2005>
49.458869934082

> <r_mmod_Bend_Energy-OPLS-2005>
102.326637268066

> <r_mmod_Torsional_Energy-OPLS-2005>
193.433685302734

> <r_mmod_Improper_Torsional_Energy-OPLS-2005>
2.94288468360901

> <r_mmod_Van_der_Waal_Energy-OPLS-2005>
173.040466308594

> <r_mmod_Electrostatic_Energy-OPLS-2005>
-399.315612792969

> <r_mmod_Solvation_Energy-OPLS-2005>
-203.375213623047

> <b_mmod_Minimization_Converged-OPLS-2005>
0

> <r_mmod_RMS_Derivative-OPLS-2005>
1.98302316665649

$$$$
72
                    3D
 Structure written by MMmdl.
154162  0  0  1  0            999 V2000
  -30.7651  -14.4058   20.5952 C   0  0  0  0  0  0
  -30.4088  -12.2786   19.4056 C   0  0  0  0  0  0
  -29.4824  -12.4894   18.1958 C   0  0  0  0  0  0
  -28.0049  -12.3557   18.6127 C   0  0  0  0  0  0
  -27.6576  -13.1974   19.8693 C   0  0  2  0  0  0
  -28.7056  -12.9972   20.9863 C   0  0  0  0  0  0
  -25.2604  -13.8152   20.5700 C   0  0  0  0  0  0
  -24.1835  -13.0448   20.9179 C   0  0  0  0  0  0
  -24.6377  -11.6905   20.8769 C   0  0  0  0  0  0
  -23.9033  -10.4300   21.0403 C   0  0  0  0  0  0
  -24.3596   -9.4219   21.9179 C   0  0  0  0  0  0
  -23.6296   -8.2233   22.0735 C   0  0  0  0  0  0
  -22.4266   -8.0274   21.3538 C   0  0  0  0  0  0
  -21.9902   -9.0238   20.4637 C   0  0  0  0  0  0
  -22.7206  -10.2133   20.3052 C   0  0  0  0  0  0
  -21.6861   -6.0736   22.5261 C   0  0  0  0  0  0
  -21.4026   -6.5646   23.8199 C   0  0  0  0  0  0
  -21.3658   -5.6796   24.9163 C   0  0  0  0  0  0
  -21.6049   -4.3058   24.7212 C   0  0  0  0  0  0
  -21.8823   -3.8146   23.4332 C   0  0  0  0  0  0
  -21.9206   -4.6966   22.3390 C   0  0  0  0  0  0
  -22.7874  -13.5257   21.1879 C   0  0  0  0  0  0
  -22.1673   -4.2149   21.0973 F   0  0  0  0  0  0
  -21.5630   -3.4552   25.7731 F   0  0  0  0  0  0
  -30.0378  -13.2724   20.4176 N   0  0  0  0  0  0
  -26.3014  -12.9282   20.3383 N   0  0  0  0  0  0
  -25.9302  -11.6455   20.5805 N   0  0  0  0  0  0
  -22.0547  -12.8198   22.0426 N   0  0  0  0  0  0
  -25.4422  -15.1865   20.4134 N   0  0  0  0  0  0
  -31.8826  -14.5847   20.1056 O   0  0  0  0  0  0
  -21.6651   -6.8855   21.4207 O   0  0  0  0  0  0
  -22.3540  -14.5566   20.6753 O   0  0  0  0  0  0
  -24.6112  -31.8694   23.2145 C   0  0  0  0  0  0
  -25.9039  -32.4821   23.8414 C   0  0  1  0  0  0
  -27.2300  -27.4927   20.0562 C   0  0  0  0  0  0
  -25.5909  -33.8619   24.2341 N   0  0  0  0  0  0
  -23.3948  -30.4985   21.5534 C   0  0  2  0  0  0
  -24.8418  -28.9859   20.0994 C   0  0  0  0  0  0
  -22.7391  -29.4677   22.4991 C   0  0  0  0  0  0
  -18.0292  -28.1380   22.8545 C   0  0  0  0  0  0
  -24.1489  -36.7318   23.2633 C   0  0  0  0  0  0
  -25.9242  -30.8538   21.3628 C   0  0  0  0  0  0
  -26.0021  -29.4981   20.6962 C   0  0  0  0  0  0
  -27.2027  -28.7544   20.6815 C   0  0  0  0  0  0
  -26.0602  -26.9947   19.4390 C   0  0  0  0  0  0
  -24.8634  -27.7298   19.4712 C   0  0  0  0  0  0
  -23.5988  -29.8420   20.1628 C   0  0  0  0  0  0
  -25.4100  -36.3106   24.0333 C   0  0  1  0  0  0
  -20.5882  -28.3662   23.1375 C   0  0  2  0  0  0
  -20.6765  -26.9392   22.5423 C   0  0  0  0  0  0
  -19.5733  -26.6395   21.5225 C   0  0  0  0  0  0
  -18.1946  -26.7907   22.1702 C   0  0  0  0  0  0
  -19.1544  -28.8823   23.2955 C   0  0  0  0  0  0
  -18.9501  -30.1444   23.8930 C   0  0  0  0  0  0
  -17.6510  -30.6608   24.0589 C   0  0  0  0  0  0
  -25.9034  -34.9467   23.5125 C   0  0  0  0  0  0
  -16.5369  -29.9126   23.6356 C   0  0  0  0  0  0
  -16.7275  -28.6526   23.0415 C   0  0  0  0  0  0
  -26.4494  -31.6586   25.0722 C   0  0  0  0  0  0
  -25.3803  -31.3651   26.1499 C   0  0  0  0  0  0
  -27.0315  -30.3039   24.6054 C   0  0  0  0  0  0
  -27.6076  -32.4294   25.7493 C   0  0  0  0  0  0
  -27.5580  -37.1798   24.8460 C   0  0  0  0  0  0
  -21.4123  -29.3043   22.3776 N   0  0  0  0  0  0
  -26.4293  -37.3782   23.9406 N   0  0  0  0  0  0
  -24.6614  -31.0853   22.1016 N   0  0  0  0  0  0
  -23.4198  -28.8180   23.2993 O   0  0  0  0  0  0
  -28.3218  -26.6724   20.1589 O   0  0  0  0  0  0
  -26.5592  -34.8919   22.4687 O   0  0  0  0  0  0
  -23.5326  -32.1423   23.7594 O   0  0  0  0  0  0
  -28.3350  -17.6345   18.8682 C   0  0  0  0  0  0
  -27.9824  -18.6852   19.7423 C   0  0  0  0  0  0
  -29.0658  -16.5252   19.3438 C   0  0  0  0  0  0
  -29.0914  -17.5100   21.5671 C   0  0  0  0  0  0
  -28.3776  -18.6275   21.0991 C   0  0  0  0  0  0
  -29.4374  -16.4523   20.7088 C   0  0  0  0  0  0
  -27.9952  -25.5730   20.9079 C   0  0  0  0  0  0
  -27.5211  -21.0356   21.6780 C   0  0  0  0  0  0
  -28.2990  -24.2951   20.6211 C   0  0  0  0  0  0
  -27.6494  -23.2652   21.4243 C   0  0  0  0  0  0
  -28.0710  -19.7047   22.1301 C   0  0  0  0  0  0
  -28.2467  -22.0171   21.2980 N   0  0  0  0  0  0
  -30.1783  -15.3860   21.2837 N   0  0  0  0  0  0
  -26.6641  -23.5201   22.1282 O   0  0  0  0  0  0
  -29.1221  -23.9568   19.6162 O   0  0  0  0  0  0
  -31.4557  -12.3488   19.1082 H   0  0  0  0  0  0
  -30.2827  -11.2764   19.8161 H   0  0  0  0  0  0
  -29.7187  -11.7706   17.4133 H   0  0  0  0  0  0
  -29.6537  -13.4763   17.7677 H   0  0  0  0  0  0
  -27.8049  -11.3012   18.8067 H   0  0  0  0  0  0
  -27.3549  -12.6351   17.7838 H   0  0  0  0  0  0
  -27.6923  -14.2390   19.5662 H   0  0  0  0  0  0
  -28.6711  -11.9744   21.3649 H   0  0  0  0  0  0
  -28.4731  -13.6331   21.8407 H   0  0  0  0  0  0
  -25.2735   -9.5720   22.4764 H   0  0  0  0  0  0
  -24.0039   -7.4618   22.7441 H   0  0  0  0  0  0
  -21.0839   -8.8729   19.8938 H   0  0  0  0  0  0
  -22.3633  -10.9672   19.6174 H   0  0  0  0  0  0
  -21.2007   -7.6158   23.9694 H   0  0  0  0  0  0
  -21.1491   -6.0539   25.9068 H   0  0  0  0  0  0
  -22.0607   -2.7612   23.2835 H   0  0  0  0  0  0
  -22.4206  -11.9832   22.4726 H   0  0  0  0  0  0
  -21.1179  -13.1184   22.2730 H   0  0  0  0  0  0
  -24.6932  -15.8603   20.5345 H   0  0  0  0  0  0
  -26.3185  -15.6113   20.1331 H   0  0  0  0  0  0
  -26.7118  -32.5550   23.1197 H   0  0  0  0  0  0
  -25.0077  -33.9798   25.0501 H   0  0  0  0  0  0
  -22.6813  -31.3163   21.4234 H   0  0  0  0  0  0
  -23.3743  -35.9665   23.3302 H   0  0  0  0  0  0
  -24.3585  -36.8937   22.2047 H   0  0  0  0  0  0
  -23.7257  -37.6532   23.6654 H   0  0  0  0  0  0
  -26.0355  -31.6314   20.6066 H   0  0  0  0  0  0
  -26.8110  -30.8968   21.9804 H   0  0  0  0  0  0
  -28.0903  -29.1256   21.1761 H   0  0  0  0  0  0
  -26.0723  -26.0231   18.9620 H   0  0  0  0  0  0
  -23.9706  -27.3279   19.0104 H   0  0  0  0  0  0
  -23.7007  -30.6235   19.4082 H   0  0  0  0  0  0
  -22.7261  -29.2600   19.8651 H   0  0  0  0  0  0
  -25.1278  -36.1964   25.0825 H   0  0  0  0  0  0
  -20.9988  -28.3179   24.1450 H   0  0  0  0  0  0
  -20.5688  -26.2232   23.3584 H   0  0  0  0  0  0
  -21.6661  -26.7388   22.1292 H   0  0  0  0  0  0
  -19.6887  -25.6353   21.1144 H   0  0  0  0  0  0
  -19.6613  -27.3259   20.6775 H   0  0  0  0  0  0
  -17.4190  -26.6507   21.4167 H   0  0  0  0  0  0
  -18.0436  -26.0079   22.9157 H   0  0  0  0  0  0
  -19.7963  -30.7278   24.2273 H   0  0  0  0  0  0
  -17.5087  -31.6330   24.5122 H   0  0  0  0  0  0
  -15.5392  -30.3077   23.7739 H   0  0  0  0  0  0
  -15.8661  -28.0873   22.7116 H   0  0  0  0  0  0
  -24.5979  -30.6986   25.7857 H   0  0  0  0  0  0
  -24.9005  -32.2792   26.5005 H   0  0  0  0  0  0
  -25.8218  -30.8800   27.0211 H   0  0  0  0  0  0
  -26.2827  -29.6793   24.1163 H   0  0  0  0  0  0
  -27.4177  -29.7271   25.4463 H   0  0  0  0  0  0
  -27.8630  -30.4382   23.9126 H   0  0  0  0  0  0
  -27.2696  -33.3562   26.2135 H   0  0  0  0  0  0
  -28.3873  -32.6887   25.0321 H   0  0  0  0  0  0
  -28.0761  -31.8366   26.5366 H   0  0  0  0  0  0
  -28.2587  -38.0106   24.7508 H   0  0  0  0  0  0
  -28.1088  -36.2630   24.6281 H   0  0  0  0  0  0
  -27.2298  -37.1440   25.8867 H   0  0  0  0  0  0
  -20.9277  -29.8716   21.6980 H   0  0  0  0  0  0
  -26.0181  -38.2861   24.1422 H   0  0  0  0  0  0
  -28.0515  -17.6804   17.8237 H   0  0  0  0  0  0
  -27.4251  -19.5248   19.3537 H   0  0  0  0  0  0
  -29.3434  -15.7481   18.6464 H   0  0  0  0  0  0
  -29.3808  -17.4735   22.6099 H   0  0  0  0  0  0
  -27.3770  -25.8491   21.7570 H   0  0  0  0  0  0
  -26.4284  -21.0950   21.7770 H   0  0  0  0  0  0
  -28.9780  -19.9026   22.6989 H   0  0  0  0  0  0
  -27.3632  -19.2860   22.8444 H   0  0  0  0  0  0
  -30.7274  -15.6818   22.0775 H   0  0  0  0  0  0
  -29.1965  -23.0106   19.6512 H   0  0  0  0  0  0
  1 25  1  0  0  0
  1 30  2  0  0  0
  1 83  1  0  0  0
  2  3  1  0  0  0
  2 25  1  0  0  0
  2 86  1  0  0  0
  2 87  1  0  0  0
  3  4  1  0  0  0
  3 88  1  0  0  0
  3 89  1  0  0  0
  4  5  1  0  0  0
  4 90  1  0  0  0
  4 91  1  0  0  0
  5  6  1  0  0  0
  5 26  1  0  0  0
  5 92  1  0  0  0
  6 25  1  0  0  0
  6 93  1  0  0  0
  6 94  1  0  0  0
  7  8  2  0  0  0
  7 26  1  0  0  0
  7 29  1  0  0  0
  8  9  1  0  0  0
  8 22  1  0  0  0
  9 10  1  0  0  0
  9 27  2  0  0  0
 10 11  2  0  0  0
 10 15  1  0  0  0
 11 12  1  0  0  0
 11 95  1  0  0  0
 12 13  2  0  0  0
 12 96  1  0  0  0
 13 14  1  0  0  0
 13 31  1  0  0  0
 14 15  2  0  0  0
 14 97  1  0  0  0
 15 98  1  0  0  0
 16 17  2  0  0  0
 16 21  1  0  0  0
 16 31  1  0  0  0
 17 18  1  0  0  0
 17 99  1  0  0  0
 18 19  2  0  0  0
 18100  1  0  0  0
 19 20  1  0  0  0
 19 24  1  0  0  0
 20 21  2  0  0  0
 20101  1  0  0  0
 21 23  1  0  0  0
 22 28  1  0  0  0
 22 32  2  0  0  0
 26 27  1  0  0  0
 28102  1  0  0  0
 28103  1  0  0  0
 29104  1  0  0  0
 29105  1  0  0  0
 33 34  1  0  0  0
 33 66  1  0  0  0
 33 70  2  0  0  0
 34 36  1  0  0  0
 34 59  1  0  0  0
 34106  1  0  0  0
 35 44  2  0  0  0
 35 45  1  0  0  0
 35 68  1  0  0  0
 36 56  1  0  0  0
 36107  1  0  0  0
 37 39  1  0  0  0
 37 47  1  0  0  0
 37 66  1  0  0  0
 37108  1  0  0  0
 38 43  2  0  0  0
 38 46  1  0  0  0
 38 47  1  0  0  0
 39 64  1  0  0  0
 39 67  2  0  0  0
 40 52  1  0  0  0
 40 53  2  0  0  0
 40 58  1  0  0  0
 41109  1  0  0  0
 41110  1  0  0  0
 41111  1  0  0  0
 41 48  1  0  0  0
 42 43  1  0  0  0
 42 66  1  0  0  0
 42112  1  0  0  0
 42113  1  0  0  0
 43 44  1  0  0  0
 44114  1  0  0  0
 45 46  2  0  0  0
 45115  1  0  0  0
 46116  1  0  0  0
 47117  1  0  0  0
 47118  1  0  0  0
 48 56  1  0  0  0
 48 65  1  0  0  0
 48119  1  0  0  0
 49 50  1  0  0  0
 49 53  1  0  0  0
 49 64  1  0  0  0
 49120  1  0  0  0
 50 51  1  0  0  0
 50121  1  0  0  0
 50122  1  0  0  0
 51 52  1  0  0  0
 51123  1  0  0  0
 51124  1  0  0  0
 52125  1  0  0  0
 52126  1  0  0  0
 53 54  1  0  0  0
 54 55  2  0  0  0
 54127  1  0  0  0
 55 57  1  0  0  0
 55128  1  0  0  0
 56 69  2  0  0  0
 57 58  2  0  0  0
 57129  1  0  0  0
 58130  1  0  0  0
 59 60  1  0  0  0
 59 61  1  0  0  0
 59 62  1  0  0  0
 60131  1  0  0  0
 60132  1  0  0  0
 60133  1  0  0  0
 61134  1  0  0  0
 61135  1  0  0  0
 61136  1  0  0  0
 62137  1  0  0  0
 62138  1  0  0  0
 62139  1  0  0  0
 63 65  1  0  0  0
 63140  1  0  0  0
 63141  1  0  0  0
 63142  1  0  0  0
 64143  1  0  0  0
 65144  1  0  0  0
 68 77  1  0  0  0
 71 72  2  0  0  0
 71 73  1  0  0  0
 71145  1  0  0  0
 72 75  1  0  0  0
 72146  1  0  0  0
 73 76  2  0  0  0
 73147  1  0  0  0
 74 75  2  0  0  0
 74 76  1  0  0  0
 74148  1  0  0  0
 75 81  1  0  0  0
 76 83  1  0  0  0
 77 79  2  0  0  0
 77149  1  0  0  0
 78 81  1  0  0  0
 78 82  2  0  0  0
 78150  1  0  0  0
 79 80  1  0  0  0
 79 85  1  0  0  0
 80 82  1  0  0  0
 80 84  2  0  0  0
 81151  1  0  0  0
 81152  1  0  0  0
 83153  1  0  0  0
 85154  1  0  0  0
M  ISO  4   1 100  68 101  77 101  83 100
M  END
> <chiral flag>
0

> <version>
0

> <s_m_source_file>
/data/baiqing/PycharmProjects/Reinvent-master-3.2/result/LINK_invent/BTK/process_docking_weight1_custom_product_contain_oxygen_bond_distance_aromatic_linkinvent_7_9_3/rearranged_h_0169.sdf

> <i_m_source_file_index>
73

> <r_mmod_Potential_Energy-OPLS-2005>
8.39255142211914

> <r_mmod_Stretch_Energy-OPLS-2005>
32.7531700134277

> <r_mmod_Bend_Energy-OPLS-2005>
107.447959899902

> <r_mmod_Torsional_Energy-OPLS-2005>
284.923522949219

> <r_mmod_Improper_Torsional_Energy-OPLS-2005>
6.71206617355347

> <r_mmod_Van_der_Waal_Energy-OPLS-2005>
177.156204223633

> <r_mmod_Electrostatic_Energy-OPLS-2005>
-403.403991699219

> <r_mmod_Solvation_Energy-OPLS-2005>
-211.789657592773

> <b_mmod_Minimization_Converged-OPLS-2005>
0

> <r_mmod_RMS_Derivative-OPLS-2005>
5.31603527069092

$$$$
73
                    3D
 Structure written by MMmdl.
162170  0  0  1  0            999 V2000
  -30.6748  -14.5372   20.5267 C   0  0  0  0  0  0
  -30.4251  -12.3359   19.4338 C   0  0  0  0  0  0
  -29.4959  -12.4955   18.2116 C   0  0  0  0  0  0
  -28.0182  -12.3480   18.6263 C   0  0  0  0  0  0
  -27.6550  -13.2102   19.8647 C   0  0  2  0  0  0
  -28.6991  -13.0361   20.9914 C   0  0  0  0  0  0
  -25.2568  -13.8167   20.5674 C   0  0  0  0  0  0
  -24.1834  -13.0436   20.9186 C   0  0  0  0  0  0
  -24.6394  -11.6905   20.8747 C   0  0  0  0  0  0
  -23.9057  -10.4292   21.0421 C   0  0  0  0  0  0
  -24.3615   -9.4207   21.9189 C   0  0  0  0  0  0
  -23.6291   -8.2244   22.0762 C   0  0  0  0  0  0
  -22.4272   -8.0289   21.3549 C   0  0  0  0  0  0
  -21.9906   -9.0261   20.4646 C   0  0  0  0  0  0
  -22.7236  -10.2137   20.3060 C   0  0  0  0  0  0
  -21.6847   -6.0738   22.5276 C   0  0  0  0  0  0
  -21.4015   -6.5642   23.8211 C   0  0  0  0  0  0
  -21.3659   -5.6794   24.9173 C   0  0  0  0  0  0
  -21.6040   -4.3056   24.7224 C   0  0  0  0  0  0
  -21.8818   -3.8147   23.4345 C   0  0  0  0  0  0
  -21.9195   -4.6964   22.3402 C   0  0  0  0  0  0
  -22.7853  -13.5236   21.1843 C   0  0  0  0  0  0
  -22.1660   -4.2154   21.0978 F   0  0  0  0  0  0
  -21.5630   -3.4543   25.7736 F   0  0  0  0  0  0
  -30.0219  -13.3446   20.4258 N   0  0  0  0  0  0
  -26.2995  -12.9335   20.3327 N   0  0  0  0  0  0
  -25.9320  -11.6494   20.5768 N   0  0  0  0  0  0
  -22.0495  -12.8233   22.0401 N   0  0  0  0  0  0
  -25.4282  -15.1888   20.4077 N   0  0  0  0  0  0
  -31.8387  -14.6794   20.1401 O   0  0  0  0  0  0
  -21.6638   -6.8884   21.4241 O   0  0  0  0  0  0
  -22.3536  -14.5550   20.6702 O   0  0  0  0  0  0
  -24.6186  -31.8645   23.2070 C   0  0  0  0  0  0
  -25.9063  -32.4812   23.8383 C   0  0  1  0  0  0
  -27.2368  -27.4054   20.1113 C   0  0  0  0  0  0
  -25.5919  -33.8608   24.2327 N   0  0  0  0  0  0
  -23.4096  -30.4862   21.5479 C   0  0  2  0  0  0
  -24.8580  -28.9465   20.1145 C   0  0  0  0  0  0
  -22.7447  -29.4632   22.4984 C   0  0  0  0  0  0
  -18.0284  -28.1370   22.8487 C   0  0  0  0  0  0
  -24.1491  -36.7306   23.2641 C   0  0  0  0  0  0
  -25.9401  -30.8236   21.3622 C   0  0  0  0  0  0
  -26.0198  -29.4543   20.7115 C   0  0  0  0  0  0
  -27.2154  -28.6932   20.7031 C   0  0  0  0  0  0
  -26.0599  -26.9166   19.5085 C   0  0  0  0  0  0
  -24.8740  -27.6776   19.5080 C   0  0  0  0  0  0
  -23.6202  -29.8177   20.1625 C   0  0  0  0  0  0
  -25.4109  -36.3105   24.0349 C   0  0  1  0  0  0
  -20.5877  -28.3651   23.1319 C   0  0  2  0  0  0
  -20.6767  -26.9385   22.5423 C   0  0  0  0  0  0
  -19.5745  -26.6372   21.5223 C   0  0  0  0  0  0
  -18.1924  -26.7916   22.1626 C   0  0  0  0  0  0
  -19.1537  -28.8828   23.2895 C   0  0  0  0  0  0
  -18.9458  -30.1425   23.8911 C   0  0  0  0  0  0
  -17.6459  -30.6569   24.0555 C   0  0  0  0  0  0
  -25.9043  -34.9470   23.5130 C   0  0  0  0  0  0
  -16.5351  -29.9066   23.6321 C   0  0  0  0  0  0
  -16.7274  -28.6487   23.0346 C   0  0  0  0  0  0
  -26.4465  -31.6605   25.0728 C   0  0  0  0  0  0
  -25.3732  -31.3704   26.1483 C   0  0  0  0  0  0
  -27.0301  -30.3069   24.6089 C   0  0  0  0  0  0
  -27.6053  -32.4308   25.7479 C   0  0  0  0  0  0
  -27.5578  -37.1801   24.8462 C   0  0  0  0  0  0
  -21.4172  -29.3009   22.3729 N   0  0  0  0  0  0
  -26.4292  -37.3792   23.9414 N   0  0  0  0  0  0
  -24.6746  -31.0731   22.0973 N   0  0  0  0  0  0
  -23.4206  -28.8186   23.3048 O   0  0  0  0  0  0
  -28.3759  -26.6242   20.1001 O   0  0  0  0  0  0
  -26.5588  -34.8924   22.4680 O   0  0  0  0  0  0
  -23.5372  -32.1400   23.7448 O   0  0  0  0  0  0
  -31.4585  -17.5080   21.1653 C   0  0  0  0  0  0
  -31.4715  -18.9453   21.2923 C   0  0  0  0  0  0
  -30.2326  -16.9290   20.9485 C   0  0  0  0  0  0
  -30.2038  -19.4928   21.1401 C   0  0  0  0  0  0
  -29.0050  -22.9845   21.0333 C   0  0  0  0  0  0
  -28.6069  -24.0967   20.3479 C   0  0  0  0  0  0
  -29.2241  -21.6447   20.4604 C   0  0  0  0  0  0
  -34.0233  -18.8945   21.2788 C   0  0  0  0  0  0
  -32.7874  -20.0407   23.1166 C   0  0  0  0  0  0
  -32.8778  -21.0313   20.8047 C   0  0  0  0  0  0
  -28.3459  -25.4784   20.9887 C   0  0  0  0  0  0
  -32.7565  -19.7180   21.6107 C   0  0  0  0  0  0
  -29.8272  -20.7985   21.3274 N   0  0  0  0  0  0
  -29.8991  -15.5974   20.8702 N   0  0  0  0  0  0
  -28.9101  -21.3140   19.3131 O   0  0  0  0  0  0
  -28.3878  -24.1336   19.0224 O   0  0  0  0  0  0
  -29.0358  -18.2080   20.8270 S   0  0  0  0  0  0
  -31.4691  -12.4375   19.1318 H   0  0  0  0  0  0
  -30.3348  -11.3354   19.8585 H   0  0  0  0  0  0
  -29.7465  -11.7566   17.4488 H   0  0  0  0  0  0
  -29.6510  -13.4733   17.7514 H   0  0  0  0  0  0
  -27.8427  -11.2938   18.8462 H   0  0  0  0  0  0
  -27.3647  -12.5969   17.7896 H   0  0  0  0  0  0
  -27.6833  -14.2499   19.5381 H   0  0  0  0  0  0
  -28.6869  -12.0125   21.3695 H   0  0  0  0  0  0
  -28.4615  -13.6722   21.8457 H   0  0  0  0  0  0
  -25.2764   -9.5683   22.4760 H   0  0  0  0  0  0
  -24.0001   -7.4633   22.7485 H   0  0  0  0  0  0
  -21.0838   -8.8778   19.8950 H   0  0  0  0  0  0
  -22.3700  -10.9680   19.6171 H   0  0  0  0  0  0
  -21.2008   -7.6149   23.9715 H   0  0  0  0  0  0
  -21.1479   -6.0525   25.9075 H   0  0  0  0  0  0
  -22.0599   -2.7613   23.2842 H   0  0  0  0  0  0
  -22.4111  -11.9885   22.4776 H   0  0  0  0  0  0
  -21.1115  -13.1266   22.2627 H   0  0  0  0  0  0
  -24.6584  -15.8413   20.5116 H   0  0  0  0  0  0
  -26.2727  -15.6268   20.0620 H   0  0  0  0  0  0
  -26.7150  -32.5526   23.1164 H   0  0  0  0  0  0
  -25.0096  -33.9750   25.0489 H   0  0  0  0  0  0
  -22.7018  -31.3054   21.4075 H   0  0  0  0  0  0
  -23.3760  -35.9632   23.3305 H   0  0  0  0  0  0
  -24.3596  -36.8919   22.2056 H   0  0  0  0  0  0
  -23.7238  -37.6510   23.6649 H   0  0  0  0  0  0
  -26.0537  -31.5880   20.5915 H   0  0  0  0  0  0
  -26.8263  -30.8776   21.9823 H   0  0  0  0  0  0
  -28.1122  -29.0797   21.1677 H   0  0  0  0  0  0
  -26.0638  -25.9398   19.0462 H   0  0  0  0  0  0
  -23.9832  -27.2784   19.0434 H   0  0  0  0  0  0
  -23.7305  -30.5918   19.4014 H   0  0  0  0  0  0
  -22.7440  -29.2382   19.8668 H   0  0  0  0  0  0
  -25.1288  -36.1968   25.0848 H   0  0  0  0  0  0
  -20.9957  -28.3198   24.1444 H   0  0  0  0  0  0
  -20.5688  -26.2249   23.3602 H   0  0  0  0  0  0
  -21.6631  -26.7423   22.1209 H   0  0  0  0  0  0
  -19.6904  -25.6291   21.1229 H   0  0  0  0  0  0
  -19.6697  -27.3201   20.6775 H   0  0  0  0  0  0
  -17.4204  -26.6683   21.4022 H   0  0  0  0  0  0
  -18.0299  -26.0057   22.9017 H   0  0  0  0  0  0
  -19.7936  -30.7219   24.2309 H   0  0  0  0  0  0
  -17.5017  -31.6265   24.5129 H   0  0  0  0  0  0
  -15.5350  -30.2961   23.7637 H   0  0  0  0  0  0
  -15.8687  -28.0801   22.7053 H   0  0  0  0  0  0
  -24.5900  -30.7064   25.7816 H   0  0  0  0  0  0
  -24.8925  -32.2853   26.4957 H   0  0  0  0  0  0
  -25.8082  -30.8850   27.0232 H   0  0  0  0  0  0
  -26.2836  -29.6834   24.1156 H   0  0  0  0  0  0
  -27.4120  -29.7302   25.4524 H   0  0  0  0  0  0
  -27.8653  -30.4438   23.9214 H   0  0  0  0  0  0
  -27.2706  -33.3617   26.2058 H   0  0  0  0  0  0
  -28.3844  -32.6840   25.0281 H   0  0  0  0  0  0
  -28.0730  -31.8426   26.5381 H   0  0  0  0  0  0
  -28.2587  -38.0100   24.7513 H   0  0  0  0  0  0
  -28.1076  -36.2634   24.6281 H   0  0  0  0  0  0
  -27.2291  -37.1446   25.8860 H   0  0  0  0  0  0
  -20.9343  -29.8752   21.6962 H   0  0  0  0  0  0
  -26.0188  -38.2873   24.1413 H   0  0  0  0  0  0
  -32.3580  -16.9223   21.2746 H   0  0  0  0  0  0
  -29.1559  -23.1024   22.0973 H   0  0  0  0  0  0
  -34.1172  -18.0075   21.9052 H   0  0  0  0  0  0
  -34.9323  -19.4742   21.4421 H   0  0  0  0  0  0
  -34.0278  -18.5749   20.2360 H   0  0  0  0  0  0
  -32.7539  -19.1297   23.7169 H   0  0  0  0  0  0
  -31.9406  -20.6575   23.4176 H   0  0  0  0  0  0
  -33.6949  -20.5782   23.3936 H   0  0  0  0  0  0
  -32.7476  -20.8561   19.7366 H   0  0  0  0  0  0
  -33.8576  -21.4905   20.9402 H   0  0  0  0  0  0
  -32.1595  -21.7884   21.1113 H   0  0  0  0  0  0
  -29.1136  -25.6445   21.7452 H   0  0  0  0  0  0
  -27.4022  -25.4197   21.5356 H   0  0  0  0  0  0
  -30.1293  -21.2200   22.1938 H   0  0  0  0  0  0
  -28.9272  -15.3732   21.0246 H   0  0  0  0  0  0
  -28.5463  -23.2581   18.6829 H   0  0  0  0  0  0
  1 25  1  0  0  0
  1 30  2  0  0  0
  1 84  1  0  0  0
  2  3  1  0  0  0
  2 25  1  0  0  0
  2 88  1  0  0  0
  2 89  1  0  0  0
  3  4  1  0  0  0
  3 90  1  0  0  0
  3 91  1  0  0  0
  4  5  1  0  0  0
  4 92  1  0  0  0
  4 93  1  0  0  0
  5  6  1  0  0  0
  5 26  1  0  0  0
  5 94  1  0  0  0
  6 25  1  0  0  0
  6 95  1  0  0  0
  6 96  1  0  0  0
  7  8  2  0  0  0
  7 26  1  0  0  0
  7 29  1  0  0  0
  8  9  1  0  0  0
  8 22  1  0  0  0
  9 10  1  0  0  0
  9 27  2  0  0  0
 10 11  2  0  0  0
 10 15  1  0  0  0
 11 12  1  0  0  0
 11 97  1  0  0  0
 12 13  2  0  0  0
 12 98  1  0  0  0
 13 14  1  0  0  0
 13 31  1  0  0  0
 14 15  2  0  0  0
 14 99  1  0  0  0
 15100  1  0  0  0
 16 17  2  0  0  0
 16 21  1  0  0  0
 16 31  1  0  0  0
 17 18  1  0  0  0
 17101  1  0  0  0
 18 19  2  0  0  0
 18102  1  0  0  0
 19 20  1  0  0  0
 19 24  1  0  0  0
 20 21  2  0  0  0
 20103  1  0  0  0
 21 23  1  0  0  0
 22 28  1  0  0  0
 22 32  2  0  0  0
 26 27  1  0  0  0
 28104  1  0  0  0
 28105  1  0  0  0
 29106  1  0  0  0
 29107  1  0  0  0
 33 34  1  0  0  0
 33 66  1  0  0  0
 33 70  2  0  0  0
 34 36  1  0  0  0
 34 59  1  0  0  0
 34108  1  0  0  0
 35 44  2  0  0  0
 35 45  1  0  0  0
 35 68  1  0  0  0
 36 56  1  0  0  0
 36109  1  0  0  0
 37 39  1  0  0  0
 37 47  1  0  0  0
 37 66  1  0  0  0
 37110  1  0  0  0
 38 43  2  0  0  0
 38 46  1  0  0  0
 38 47  1  0  0  0
 39 64  1  0  0  0
 39 67  2  0  0  0
 40 52  1  0  0  0
 40 53  2  0  0  0
 40 58  1  0  0  0
 41111  1  0  0  0
 41112  1  0  0  0
 41113  1  0  0  0
 41 48  1  0  0  0
 42 43  1  0  0  0
 42 66  1  0  0  0
 42114  1  0  0  0
 42115  1  0  0  0
 43 44  1  0  0  0
 44116  1  0  0  0
 45 46  2  0  0  0
 45117  1  0  0  0
 46118  1  0  0  0
 47119  1  0  0  0
 47120  1  0  0  0
 48 56  1  0  0  0
 48 65  1  0  0  0
 48121  1  0  0  0
 49 50  1  0  0  0
 49 53  1  0  0  0
 49 64  1  0  0  0
 49122  1  0  0  0
 50 51  1  0  0  0
 50123  1  0  0  0
 50124  1  0  0  0
 51 52  1  0  0  0
 51125  1  0  0  0
 51126  1  0  0  0
 52127  1  0  0  0
 52128  1  0  0  0
 53 54  1  0  0  0
 54 55  2  0  0  0
 54129  1  0  0  0
 55 57  1  0  0  0
 55130  1  0  0  0
 56 69  2  0  0  0
 57 58  2  0  0  0
 57131  1  0  0  0
 58132  1  0  0  0
 59 60  1  0  0  0
 59 61  1  0  0  0
 59 62  1  0  0  0
 60133  1  0  0  0
 60134  1  0  0  0
 60135  1  0  0  0
 61136  1  0  0  0
 61137  1  0  0  0
 61138  1  0  0  0
 62139  1  0  0  0
 62140  1  0  0  0
 62141  1  0  0  0
 63 65  1  0  0  0
 63142  1  0  0  0
 63143  1  0  0  0
 63144  1  0  0  0
 64145  1  0  0  0
 65146  1  0  0  0
 68 81  1  0  0  0
 71 72  1  0  0  0
 71 73  2  0  0  0
 71147  1  0  0  0
 72 74  2  0  0  0
 72 82  1  0  0  0
 73 84  1  0  0  0
 73 87  1  0  0  0
 74 83  1  0  0  0
 74 87  1  0  0  0
 75 76  2  0  0  0
 75 77  1  0  0  0
 75148  1  0  0  0
 76 81  1  0  0  0
 76 86  1  0  0  0
 77 83  1  0  0  0
 77 85  2  0  0  0
 78149  1  0  0  0
 78150  1  0  0  0
 78151  1  0  0  0
 78 82  1  0  0  0
 79 82  1  0  0  0
 79152  1  0  0  0
 79153  1  0  0  0
 79154  1  0  0  0
 80 82  1  0  0  0
 80155  1  0  0  0
 80156  1  0  0  0
 80157  1  0  0  0
 81158  1  0  0  0
 81159  1  0  0  0
 83160  1  0  0  0
 84161  1  0  0  0
 86162  1  0  0  0
M  ISO  4   1 100  68 101  81 101  84 100
M  END
> <chiral flag>
0

> <version>
0

> <s_m_source_file>
/data/baiqing/PycharmProjects/Reinvent-master-3.2/result/LINK_invent/BTK/process_docking_weight1_custom_product_contain_oxygen_bond_distance_aromatic_linkinvent_7_9_3/rearranged_h_0169.sdf

> <i_m_source_file_index>
74

> <r_mmod_Potential_Energy-OPLS-2005>
-44.553840637207

> <r_mmod_Stretch_Energy-OPLS-2005>
47.1991539001465

> <r_mmod_Bend_Energy-OPLS-2005>
120.88402557373

> <r_mmod_Torsional_Energy-OPLS-2005>
249.230102539062

> <r_mmod_Improper_Torsional_Energy-OPLS-2005>
5.50579166412354

> <r_mmod_Van_der_Waal_Energy-OPLS-2005>
134.709533691406

> <r_mmod_Electrostatic_Energy-OPLS-2005>
-398.881164550781

> <r_mmod_Solvation_Energy-OPLS-2005>
-224.693450927734

> <b_mmod_Minimization_Converged-OPLS-2005>
0

> <r_mmod_RMS_Derivative-OPLS-2005>
1.67749536037445

$$$$
74
                    3D
 Structure written by MMmdl.
155163  0  0  1  0            999 V2000
  -30.6617  -14.5608   20.4489 C   0  0  0  0  0  0
  -30.4220  -12.3299   19.4470 C   0  0  0  0  0  0
  -29.5059  -12.4853   18.2152 C   0  0  0  0  0  0
  -28.0248  -12.3480   18.6211 C   0  0  0  0  0  0
  -27.6525  -13.2128   19.8560 C   0  0  2  0  0  0
  -28.6961  -13.0664   20.9858 C   0  0  0  0  0  0
  -25.2562  -13.8147   20.5661 C   0  0  0  0  0  0
  -24.1830  -13.0415   20.9155 C   0  0  0  0  0  0
  -24.6373  -11.6884   20.8693 C   0  0  0  0  0  0
  -23.9024  -10.4281   21.0367 C   0  0  0  0  0  0
  -24.3585   -9.4215   21.9155 C   0  0  0  0  0  0
  -23.6281   -8.2239   22.0738 C   0  0  0  0  0  0
  -22.4263   -8.0256   21.3529 C   0  0  0  0  0  0
  -21.9879   -9.0218   20.4635 C   0  0  0  0  0  0
  -22.7181  -10.2109   20.3035 C   0  0  0  0  0  0
  -21.6859   -6.0706   22.5273 C   0  0  0  0  0  0
  -21.4010   -6.5613   23.8196 C   0  0  0  0  0  0
  -21.3669   -5.6774   24.9167 C   0  0  0  0  0  0
  -21.6052   -4.3037   24.7214 C   0  0  0  0  0  0
  -21.8824   -3.8118   23.4340 C   0  0  0  0  0  0
  -21.9199   -4.6936   22.3395 C   0  0  0  0  0  0
  -22.7856  -13.5233   21.1830 C   0  0  0  0  0  0
  -22.1673   -4.2120   21.0966 F   0  0  0  0  0  0
  -21.5636   -3.4521   25.7734 F   0  0  0  0  0  0
  -30.0157  -13.3616   20.4149 N   0  0  0  0  0  0
  -26.2985  -12.9331   20.3259 N   0  0  0  0  0  0
  -25.9302  -11.6479   20.5679 N   0  0  0  0  0  0
  -22.0514  -12.8234   22.0408 N   0  0  0  0  0  0
  -25.4258  -15.1870   20.4090 N   0  0  0  0  0  0
  -31.8695  -14.6510   20.2198 O   0  0  0  0  0  0
  -21.6638   -6.8850   21.4236 O   0  0  0  0  0  0
  -22.3548  -14.5532   20.6672 O   0  0  0  0  0  0
  -24.6212  -31.8645   23.2079 C   0  0  0  0  0  0
  -25.9079  -32.4811   23.8393 C   0  0  1  0  0  0
  -27.2278  -27.3891   20.0821 C   0  0  0  0  0  0
  -25.5904  -33.8609   24.2317 N   0  0  0  0  0  0
  -23.4116  -30.4957   21.5464 C   0  0  2  0  0  0
  -24.8543  -28.9606   20.1088 C   0  0  0  0  0  0
  -22.7452  -29.4675   22.4906 C   0  0  0  0  0  0
  -18.0293  -28.1411   22.8472 C   0  0  0  0  0  0
  -24.1470  -36.7306   23.2645 C   0  0  0  0  0  0
  -25.9489  -30.8178   21.3692 C   0  0  0  0  0  0
  -26.0201  -29.4509   20.7092 C   0  0  0  0  0  0
  -27.2062  -28.6717   20.6924 C   0  0  0  0  0  0
  -26.0236  -26.9180   19.5025 C   0  0  0  0  0  0
  -24.8535  -27.6957   19.5042 C   0  0  0  0  0  0
  -23.6229  -29.8357   20.1590 C   0  0  0  0  0  0
  -25.4092  -36.3099   24.0337 C   0  0  1  0  0  0
  -20.5886  -28.3697   23.1283 C   0  0  2  0  0  0
  -20.6757  -26.9413   22.5415 C   0  0  0  0  0  0
  -19.5747  -26.6385   21.5202 C   0  0  0  0  0  0
  -18.1930  -26.7955   22.1614 C   0  0  0  0  0  0
  -19.1542  -28.8867   23.2885 C   0  0  0  0  0  0
  -18.9469  -30.1467   23.8901 C   0  0  0  0  0  0
  -17.6470  -30.6601   24.0571 C   0  0  0  0  0  0
  -25.9024  -34.9467   23.5124 C   0  0  0  0  0  0
  -16.5360  -29.9110   23.6318 C   0  0  0  0  0  0
  -16.7283  -28.6537   23.0325 C   0  0  0  0  0  0
  -26.4497  -31.6612   25.0743 C   0  0  0  0  0  0
  -25.3764  -31.3765   26.1505 C   0  0  0  0  0  0
  -27.0310  -30.3032   24.6165 C   0  0  0  0  0  0
  -27.6082  -32.4334   25.7496 C   0  0  0  0  0  0
  -27.5576  -37.1793   24.8458 C   0  0  0  0  0  0
  -21.4166  -29.3063   22.3668 N   0  0  0  0  0  0
  -26.4271  -37.3788   23.9421 N   0  0  0  0  0  0
  -24.6795  -31.0744   22.0989 N   0  0  0  0  0  0
  -23.4204  -28.8184   23.2939 O   0  0  0  0  0  0
  -28.3939  -26.6303   20.1189 O   0  0  0  0  0  0
  -26.5594  -34.8922   22.4688 O   0  0  0  0  0  0
  -23.5385  -32.1411   23.7436 O   0  0  0  0  0  0
  -30.5710  -19.4845   18.6528 C   0  0  0  0  0  0
  -31.1116  -18.3111   18.1079 C   0  0  0  0  0  0
  -29.4961  -18.1581   20.3984 C   0  0  0  0  0  0
  -29.7229  -19.4302   19.7803 C   0  0  0  0  0  0
  -30.0998  -16.9570   19.8958 C   0  0  0  0  0  0
  -30.8576  -17.0605   18.6958 C   0  0  0  0  0  0
  -29.2251  -24.2555   19.7718 C   0  0  0  0  0  0
  -28.6829  -23.0046   19.8935 C   0  0  0  0  0  0
  -29.5785  -21.8777   20.2530 C   0  0  0  0  0  0
  -27.2089  -22.7203   19.6155 C   0  0  0  0  0  0
  -28.5865  -25.5333   19.1923 C   0  0  0  0  0  0
  -29.0301  -20.6371   20.1609 N   0  0  0  0  0  0
  -29.8723  -15.6680   20.5294 N   0  0  0  0  0  0
  -30.7535  -22.0165   20.6057 O   0  0  0  0  0  0
  -31.3101  -15.9645   18.0412 F   0  0  0  0  0  0
  -31.4722  -12.4195   19.1577 H   0  0  0  0  0  0
  -30.3121  -11.3370   19.8852 H   0  0  0  0  0  0
  -29.7591  -11.7410   17.4601 H   0  0  0  0  0  0
  -29.6719  -13.4592   17.7499 H   0  0  0  0  0  0
  -27.8365  -11.2955   18.8354 H   0  0  0  0  0  0
  -27.3798  -12.6069   17.7804 H   0  0  0  0  0  0
  -27.6741  -14.2480   19.5157 H   0  0  0  0  0  0
  -28.6877  -12.0531   21.3902 H   0  0  0  0  0  0
  -28.4673  -13.7310   21.8212 H   0  0  0  0  0  0
  -25.2736   -9.5708   22.4711 H   0  0  0  0  0  0
  -24.0002   -7.4632   22.7444 H   0  0  0  0  0  0
  -21.0810   -8.8707   19.8946 H   0  0  0  0  0  0
  -22.3618  -10.9625   19.6128 H   0  0  0  0  0  0
  -21.2014   -7.6128   23.9683 H   0  0  0  0  0  0
  -21.1487   -6.0509   25.9065 H   0  0  0  0  0  0
  -22.0608   -2.7581   23.2832 H   0  0  0  0  0  0
  -22.4147  -11.9904   22.4796 H   0  0  0  0  0  0
  -21.1118  -13.1228   22.2584 H   0  0  0  0  0  0
  -24.6516  -15.8326   20.5195 H   0  0  0  0  0  0
  -26.2660  -15.6328   20.0660 H   0  0  0  0  0  0
  -26.7155  -32.5508   23.1160 H   0  0  0  0  0  0
  -25.0039  -33.9748   25.0453 H   0  0  0  0  0  0
  -22.7054  -31.3163   21.4071 H   0  0  0  0  0  0
  -23.3733  -35.9634   23.3280 H   0  0  0  0  0  0
  -24.3576  -36.8945   22.2064 H   0  0  0  0  0  0
  -23.7194  -37.6490   23.6681 H   0  0  0  0  0  0
  -26.0727  -31.5853   20.6036 H   0  0  0  0  0  0
  -26.8349  -30.8676   21.9916 H   0  0  0  0  0  0
  -28.1076  -29.0451   21.1588 H   0  0  0  0  0  0
  -25.9263  -25.9366   19.0696 H   0  0  0  0  0  0
  -23.9513  -27.3061   19.0531 H   0  0  0  0  0  0
  -23.7459  -30.6148   19.4056 H   0  0  0  0  0  0
  -22.7445  -29.2657   19.8508 H   0  0  0  0  0  0
  -25.1262  -36.1961   25.0828 H   0  0  0  0  0  0
  -21.0019  -28.3270   24.1388 H   0  0  0  0  0  0
  -20.5615  -26.2308   23.3615 H   0  0  0  0  0  0
  -21.6634  -26.7409   22.1241 H   0  0  0  0  0  0
  -19.6891  -25.6285   21.1252 H   0  0  0  0  0  0
  -19.6704  -27.3172   20.6714 H   0  0  0  0  0  0
  -17.4191  -26.6702   21.4022 H   0  0  0  0  0  0
  -18.0341  -26.0119   22.9039 H   0  0  0  0  0  0
  -19.7946  -30.7285   24.2269 H   0  0  0  0  0  0
  -17.5029  -31.6278   24.5185 H   0  0  0  0  0  0
  -15.5361  -30.3019   23.7636 H   0  0  0  0  0  0
  -15.8689  -28.0873   22.7004 H   0  0  0  0  0  0
  -24.5872  -30.7188   25.7853 H   0  0  0  0  0  0
  -24.9048  -32.2948   26.5012 H   0  0  0  0  0  0
  -25.8111  -30.8876   27.0231 H   0  0  0  0  0  0
  -26.2851  -29.6795   24.1227 H   0  0  0  0  0  0
  -27.4043  -29.7292   25.4655 H   0  0  0  0  0  0
  -27.8717  -30.4305   23.9341 H   0  0  0  0  0  0
  -27.2720  -33.3646   26.2068 H   0  0  0  0  0  0
  -28.3901  -32.6865   25.0326 H   0  0  0  0  0  0
  -28.0746  -31.8459   26.5412 H   0  0  0  0  0  0
  -28.2584  -38.0101   24.7516 H   0  0  0  0  0  0
  -28.1077  -36.2629   24.6256 H   0  0  0  0  0  0
  -27.2315  -37.1424   25.8868 H   0  0  0  0  0  0
  -20.9315  -29.8846   21.6946 H   0  0  0  0  0  0
  -26.0161  -38.2859   24.1447 H   0  0  0  0  0  0
  -30.7654  -20.4218   18.1499 H   0  0  0  0  0  0
  -31.7007  -18.3627   17.2038 H   0  0  0  0  0  0
  -28.8477  -18.1069   21.2607 H   0  0  0  0  0  0
  -30.2604  -24.4031   20.0458 H   0  0  0  0  0  0
  -26.6248  -23.6273   19.4644 H   0  0  0  0  0  0
  -26.7557  -22.2080   20.4658 H   0  0  0  0  0  0
  -27.0942  -22.0971   18.7276 H   0  0  0  0  0  0
  -27.7412  -25.2719   18.5679 H   0  0  0  0  0  0
  -29.3091  -25.9036   18.4645 H   0  0  0  0  0  0
  -28.0217  -20.6128   20.0866 H   0  0  0  0  0  0
  -28.9493  -15.5177   20.9039 H   0  0  0  0  0  0
  1 25  1  0  0  0
  1 30  2  0  0  0
  1 83  1  0  0  0
  2  3  1  0  0  0
  2 25  1  0  0  0
  2 86  1  0  0  0
  2 87  1  0  0  0
  3  4  1  0  0  0
  3 88  1  0  0  0
  3 89  1  0  0  0
  4  5  1  0  0  0
  4 90  1  0  0  0
  4 91  1  0  0  0
  5  6  1  0  0  0
  5 26  1  0  0  0
  5 92  1  0  0  0
  6 25  1  0  0  0
  6 93  1  0  0  0
  6 94  1  0  0  0
  7  8  2  0  0  0
  7 26  1  0  0  0
  7 29  1  0  0  0
  8  9  1  0  0  0
  8 22  1  0  0  0
  9 10  1  0  0  0
  9 27  2  0  0  0
 10 11  2  0  0  0
 10 15  1  0  0  0
 11 12  1  0  0  0
 11 95  1  0  0  0
 12 13  2  0  0  0
 12 96  1  0  0  0
 13 14  1  0  0  0
 13 31  1  0  0  0
 14 15  2  0  0  0
 14 97  1  0  0  0
 15 98  1  0  0  0
 16 17  2  0  0  0
 16 21  1  0  0  0
 16 31  1  0  0  0
 17 18  1  0  0  0
 17 99  1  0  0  0
 18 19  2  0  0  0
 18100  1  0  0  0
 19 20  1  0  0  0
 19 24  1  0  0  0
 20 21  2  0  0  0
 20101  1  0  0  0
 21 23  1  0  0  0
 22 28  1  0  0  0
 22 32  2  0  0  0
 26 27  1  0  0  0
 28102  1  0  0  0
 28103  1  0  0  0
 29104  1  0  0  0
 29105  1  0  0  0
 33 34  1  0  0  0
 33 66  1  0  0  0
 33 70  2  0  0  0
 34 36  1  0  0  0
 34 59  1  0  0  0
 34106  1  0  0  0
 35 44  2  0  0  0
 35 45  1  0  0  0
 35 68  1  0  0  0
 36 56  1  0  0  0
 36107  1  0  0  0
 37 39  1  0  0  0
 37 47  1  0  0  0
 37 66  1  0  0  0
 37108  1  0  0  0
 38 43  2  0  0  0
 38 46  1  0  0  0
 38 47  1  0  0  0
 39 64  1  0  0  0
 39 67  2  0  0  0
 40 52  1  0  0  0
 40 53  2  0  0  0
 40 58  1  0  0  0
 41109  1  0  0  0
 41110  1  0  0  0
 41111  1  0  0  0
 41 48  1  0  0  0
 42 43  1  0  0  0
 42 66  1  0  0  0
 42112  1  0  0  0
 42113  1  0  0  0
 43 44  1  0  0  0
 44114  1  0  0  0
 45 46  2  0  0  0
 45115  1  0  0  0
 46116  1  0  0  0
 47117  1  0  0  0
 47118  1  0  0  0
 48 56  1  0  0  0
 48 65  1  0  0  0
 48119  1  0  0  0
 49 50  1  0  0  0
 49 53  1  0  0  0
 49 64  1  0  0  0
 49120  1  0  0  0
 50 51  1  0  0  0
 50121  1  0  0  0
 50122  1  0  0  0
 51 52  1  0  0  0
 51123  1  0  0  0
 51124  1  0  0  0
 52125  1  0  0  0
 52126  1  0  0  0
 53 54  1  0  0  0
 54 55  2  0  0  0
 54127  1  0  0  0
 55 57  1  0  0  0
 55128  1  0  0  0
 56 69  2  0  0  0
 57 58  2  0  0  0
 57129  1  0  0  0
 58130  1  0  0  0
 59 60  1  0  0  0
 59 61  1  0  0  0
 59 62  1  0  0  0
 60131  1  0  0  0
 60132  1  0  0  0
 60133  1  0  0  0
 61134  1  0  0  0
 61135  1  0  0  0
 61136  1  0  0  0
 62137  1  0  0  0
 62138  1  0  0  0
 62139  1  0  0  0
 63 65  1  0  0  0
 63140  1  0  0  0
 63141  1  0  0  0
 63142  1  0  0  0
 64143  1  0  0  0
 65144  1  0  0  0
 68 81  1  0  0  0
 71 72  2  0  0  0
 71 74  1  0  0  0
 71145  1  0  0  0
 72 76  1  0  0  0
 72146  1  0  0  0
 73 74  2  0  0  0
 73 75  1  0  0  0
 73147  1  0  0  0
 74 82  1  0  0  0
 75 76  2  0  0  0
 75 83  1  0  0  0
 76 85  1  0  0  0
 77 78  2  0  0  0
 77 81  1  0  0  0
 77148  1  0  0  0
 78 79  1  0  0  0
 78 80  1  0  0  0
 79 82  1  0  0  0
 79 84  2  0  0  0
 80149  1  0  0  0
 80150  1  0  0  0
 80151  1  0  0  0
 81152  1  0  0  0
 81153  1  0  0  0
 82154  1  0  0  0
 83155  1  0  0  0
M  ISO  4   1 100  68 101  81 101  83 100
M  END
> <chiral flag>
0

> <version>
0

> <s_m_source_file>
/data/baiqing/PycharmProjects/Reinvent-master-3.2/result/LINK_invent/BTK/process_docking_weight1_custom_product_contain_oxygen_bond_distance_aromatic_linkinvent_7_9_3/rearranged_h_0169.sdf

> <i_m_source_file_index>
75

> <r_mmod_Potential_Energy-OPLS-2005>
-9.46570301055908

> <r_mmod_Stretch_Energy-OPLS-2005>
55.0899314880371

> <r_mmod_Bend_Energy-OPLS-2005>
115.007598876953

> <r_mmod_Torsional_Energy-OPLS-2005>
285.846984863281

> <r_mmod_Improper_Torsional_Energy-OPLS-2005>
7.98480463027954

> <r_mmod_Van_der_Waal_Energy-OPLS-2005>
168.53840637207

> <r_mmod_Electrostatic_Energy-OPLS-2005>
-435.838500976562

> <r_mmod_Solvation_Energy-OPLS-2005>
-237.722686767578

> <b_mmod_Minimization_Converged-OPLS-2005>
0

> <r_mmod_RMS_Derivative-OPLS-2005>
2.4056921005249

$$$$
75
                    3D
 Structure written by MMmdl.
163171  0  0  1  0            999 V2000
  -30.7088  -14.4881   20.4912 C   0  0  0  0  0  0
  -30.4230  -12.2955   19.4429 C   0  0  0  0  0  0
  -29.5060  -12.4792   18.2159 C   0  0  0  0  0  0
  -28.0241  -12.3570   18.6224 C   0  0  0  0  0  0
  -27.6608  -13.2123   19.8660 C   0  0  2  0  0  0
  -28.7032  -13.0391   20.9965 C   0  0  0  0  0  0
  -25.2607  -13.8166   20.5679 C   0  0  0  0  0  0
  -24.1853  -13.0448   20.9170 C   0  0  0  0  0  0
  -24.6397  -11.6916   20.8703 C   0  0  0  0  0  0
  -23.9049  -10.4290   21.0368 C   0  0  0  0  0  0
  -24.3591   -9.4213   21.9164 C   0  0  0  0  0  0
  -23.6276   -8.2246   22.0734 C   0  0  0  0  0  0
  -22.4250   -8.0264   21.3530 C   0  0  0  0  0  0
  -21.9883   -9.0241   20.4646 C   0  0  0  0  0  0
  -22.7207  -10.2130   20.3042 C   0  0  0  0  0  0
  -21.6859   -6.0715   22.5270 C   0  0  0  0  0  0
  -21.4018   -6.5620   23.8204 C   0  0  0  0  0  0
  -21.3671   -5.6780   24.9169 C   0  0  0  0  0  0
  -21.6040   -4.3035   24.7220 C   0  0  0  0  0  0
  -21.8825   -3.8132   23.4342 C   0  0  0  0  0  0
  -21.9204   -4.6951   22.3393 C   0  0  0  0  0  0
  -22.7879  -13.5263   21.1844 C   0  0  0  0  0  0
  -22.1662   -4.2136   21.0975 F   0  0  0  0  0  0
  -21.5632   -3.4524   25.7737 F   0  0  0  0  0  0
  -30.0351  -13.3088   20.4364 N   0  0  0  0  0  0
  -26.3030  -12.9338   20.3307 N   0  0  0  0  0  0
  -25.9323  -11.6507   20.5723 N   0  0  0  0  0  0
  -22.0500  -12.8273   22.0388 N   0  0  0  0  0  0
  -25.4376  -15.1865   20.4082 N   0  0  0  0  0  0
  -31.8950  -14.5902   20.1625 O   0  0  0  0  0  0
  -21.6626   -6.8852   21.4231 O   0  0  0  0  0  0
  -22.3575  -14.5576   20.6692 O   0  0  0  0  0  0
  -24.6143  -31.8676   23.2110 C   0  0  0  0  0  0
  -25.9038  -32.4822   23.8395 C   0  0  1  0  0  0
  -27.2372  -27.4464   20.0801 C   0  0  0  0  0  0
  -25.5898  -33.8624   24.2335 N   0  0  0  0  0  0
  -23.4020  -30.4909   21.5529 C   0  0  2  0  0  0
  -24.8468  -28.9610   20.1141 C   0  0  0  0  0  0
  -22.7413  -29.4639   22.5005 C   0  0  0  0  0  0
  -18.0271  -28.1366   22.8482 C   0  0  0  0  0  0
  -24.1493  -36.7316   23.2629 C   0  0  0  0  0  0
  -25.9305  -30.8352   21.3634 C   0  0  0  0  0  0
  -26.0078  -29.4735   20.7046 C   0  0  0  0  0  0
  -27.2054  -28.7244   20.6807 C   0  0  0  0  0  0
  -26.0542  -26.9467   19.4837 C   0  0  0  0  0  0
  -24.8633  -27.6965   19.5034 C   0  0  0  0  0  0
  -23.6088  -29.8260   20.1667 C   0  0  0  0  0  0
  -25.4110  -36.3112   24.0335 C   0  0  1  0  0  0
  -20.5860  -28.3646   23.1325 C   0  0  2  0  0  0
  -20.6772  -26.9391   22.5405 C   0  0  0  0  0  0
  -19.5755  -26.6385   21.5196 C   0  0  0  0  0  0
  -18.1926  -26.7919   22.1597 C   0  0  0  0  0  0
  -19.1520  -28.8829   23.2896 C   0  0  0  0  0  0
  -18.9441  -30.1438   23.8894 C   0  0  0  0  0  0
  -17.6442  -30.6570   24.0554 C   0  0  0  0  0  0
  -25.9031  -34.9477   23.5129 C   0  0  0  0  0  0
  -16.5331  -29.9061   23.6326 C   0  0  0  0  0  0
  -16.7257  -28.6481   23.0339 C   0  0  0  0  0  0
  -26.4492  -31.6594   25.0708 C   0  0  0  0  0  0
  -25.3791  -31.3713   26.1492 C   0  0  0  0  0  0
  -27.0272  -30.3021   24.6059 C   0  0  0  0  0  0
  -27.6116  -32.4288   25.7416 C   0  0  0  0  0  0
  -27.5597  -37.1785   24.8447 C   0  0  0  0  0  0
  -21.4143  -29.3013   22.3735 N   0  0  0  0  0  0
  -26.4296  -37.3793   23.9413 N   0  0  0  0  0  0
  -24.6671  -31.0776   22.1011 N   0  0  0  0  0  0
  -23.4191  -28.8168   23.3031 O   0  0  0  0  0  0
  -28.4184  -26.7347   20.0926 O   0  0  0  0  0  0
  -26.5587  -34.8922   22.4686 O   0  0  0  0  0  0
  -23.5332  -32.1429   23.7501 O   0  0  0  0  0  0
  -30.2853  -16.6784   18.5259 C   0  0  0  0  0  0
  -30.4924  -19.0901   18.3376 C   0  0  0  0  0  0
  -30.5022  -17.8114   17.7245 C   0  0  0  0  0  0
  -30.1157  -16.7959   19.9205 C   0  0  0  0  0  0
  -30.2950  -19.1555   19.7527 C   0  0  0  0  0  0
  -30.7607  -20.3317   17.5279 C   0  0  0  0  0  0
  -29.5131  -24.6243   20.6514 C   0  0  0  0  0  0
  -30.1291  -20.9471   21.5553 C   0  0  0  0  0  0
  -30.7923  -17.5835   16.2455 C   0  0  0  0  0  0
  -29.9567  -20.5550   16.2539 C   0  0  0  0  0  0
  -29.2221  -23.3576   21.4729 C   0  0  0  0  0  0
  -28.3126  -25.3100   19.9880 C   0  0  0  0  0  0
  -30.4467  -22.4397   21.7329 C   0  0  0  0  0  0
  -30.0854  -18.0251   20.4958 N   0  0  0  0  0  0
  -30.3718  -20.4611   20.3279 N   0  0  0  0  0  0
  -29.9558  -15.5932   20.6763 N   0  0  0  0  0  0
  -31.5429  -21.2147   17.8900 O   0  0  0  0  0  0
  -30.6576  -25.0761   20.5353 O   0  0  0  0  0  0
  -29.6866  -20.2963   22.5047 O   0  0  0  0  0  0
  -31.4706  -12.3789   19.1467 H   0  0  0  0  0  0
  -30.3095  -11.2961   19.8640 H   0  0  0  0  0  0
  -29.7461  -11.7344   17.4569 H   0  0  0  0  0  0
  -29.6882  -13.4507   17.7573 H   0  0  0  0  0  0
  -27.8301  -11.3041   18.8289 H   0  0  0  0  0  0
  -27.3836  -12.6290   17.7819 H   0  0  0  0  0  0
  -27.6964  -14.2530   19.5416 H   0  0  0  0  0  0
  -28.6731  -12.0235   21.3946 H   0  0  0  0  0  0
  -28.4800  -13.6977   21.8365 H   0  0  0  0  0  0
  -25.2720   -9.5709   22.4747 H   0  0  0  0  0  0
  -23.9995   -7.4630   22.7432 H   0  0  0  0  0  0
  -21.0820   -8.8755   19.8949 H   0  0  0  0  0  0
  -22.3636  -10.9659   19.6155 H   0  0  0  0  0  0
  -21.1999   -7.6124   23.9702 H   0  0  0  0  0  0
  -21.1493   -6.0500   25.9067 H   0  0  0  0  0  0
  -22.0604   -2.7594   23.2854 H   0  0  0  0  0  0
  -22.4057  -11.9933   22.4821 H   0  0  0  0  0  0
  -21.1118  -13.1336   22.2539 H   0  0  0  0  0  0
  -24.6818  -15.8529   20.5161 H   0  0  0  0  0  0
  -26.2908  -15.6160   20.0753 H   0  0  0  0  0  0
  -26.7094  -32.5530   23.1144 H   0  0  0  0  0  0
  -25.0097  -33.9792   25.0513 H   0  0  0  0  0  0
  -22.6902  -31.3070   21.4163 H   0  0  0  0  0  0
  -23.3764  -35.9637   23.3277 H   0  0  0  0  0  0
  -24.3604  -36.8945   22.2049 H   0  0  0  0  0  0
  -23.7235  -37.6512   23.6653 H   0  0  0  0  0  0
  -26.0445  -31.6070   20.6016 H   0  0  0  0  0  0
  -26.8175  -30.8829   21.9820 H   0  0  0  0  0  0
  -28.1067  -29.1159   21.1321 H   0  0  0  0  0  0
  -26.0321  -25.9853   18.9916 H   0  0  0  0  0  0
  -23.9682  -27.2989   19.0447 H   0  0  0  0  0  0
  -23.7154  -30.6014   19.4074 H   0  0  0  0  0  0
  -22.7334  -29.2442   19.8727 H   0  0  0  0  0  0
  -25.1278  -36.1979   25.0823 H   0  0  0  0  0  0
  -20.9939  -28.3192   24.1450 H   0  0  0  0  0  0
  -20.5706  -26.2224   23.3567 H   0  0  0  0  0  0
  -21.6642  -26.7456   22.1178 H   0  0  0  0  0  0
  -19.6922  -25.6303   21.1209 H   0  0  0  0  0  0
  -19.6707  -27.3211   20.6740 H   0  0  0  0  0  0
  -17.4205  -26.6675   21.3987 H   0  0  0  0  0  0
  -18.0318  -26.0050   22.8979 H   0  0  0  0  0  0
  -19.7917  -30.7265   24.2253 H   0  0  0  0  0  0
  -17.4991  -31.6259   24.5143 H   0  0  0  0  0  0
  -15.5330  -30.2952   23.7666 H   0  0  0  0  0  0
  -15.8658  -28.0804   22.7050 H   0  0  0  0  0  0
  -24.5857  -30.7191   25.7821 H   0  0  0  0  0  0
  -24.9125  -32.2887   26.5088 H   0  0  0  0  0  0
  -25.8154  -30.8728   27.0156 H   0  0  0  0  0  0
  -26.2742  -29.6778   24.1229 H   0  0  0  0  0  0
  -27.4153  -29.7276   25.4482 H   0  0  0  0  0  0
  -27.8563  -30.4314   23.9098 H   0  0  0  0  0  0
  -27.2779  -33.3565   26.2077 H   0  0  0  0  0  0
  -28.3851  -32.6882   25.0173 H   0  0  0  0  0  0
  -28.0876  -31.8365   26.5241 H   0  0  0  0  0  0
  -28.2585  -38.0112   24.7551 H   0  0  0  0  0  0
  -28.1119  -36.2651   24.6182 H   0  0  0  0  0  0
  -27.2327  -37.1339   25.8849 H   0  0  0  0  0  0
  -20.9301  -29.8719   21.6948 H   0  0  0  0  0  0
  -26.0193  -38.2864   24.1451 H   0  0  0  0  0  0
  -30.2963  -15.7053   18.0572 H   0  0  0  0  0  0
  -31.0190  -16.5379   16.0371 H   0  0  0  0  0  0
  -31.6594  -18.1597   15.9215 H   0  0  0  0  0  0
  -29.9341  -17.8590   15.6323 H   0  0  0  0  0  0
  -28.9604  -20.1247   16.3454 H   0  0  0  0  0  0
  -30.4619  -20.1125   15.3974 H   0  0  0  0  0  0
  -29.8504  -21.6207   16.0560 H   0  0  0  0  0  0
  -28.4288  -22.8054   20.9676 H   0  0  0  0  0  0
  -28.8034  -23.6747   22.4289 H   0  0  0  0  0  0
  -27.4061  -24.9441   20.4715 H   0  0  0  0  0  0
  -28.2744  -25.0177   18.9379 H   0  0  0  0  0  0
  -31.2862  -22.6861   21.0794 H   0  0  0  0  0  0
  -30.8120  -22.6086   22.7472 H   0  0  0  0  0  0
  -30.7142  -21.1566   19.6781 H   0  0  0  0  0  0
  -29.0610  -15.4661   21.1223 H   0  0  0  0  0  0
  1 25  1  0  0  0
  1 30  2  0  0  0
  1 86  1  0  0  0
  2  3  1  0  0  0
  2 25  1  0  0  0
  2 90  1  0  0  0
  2 91  1  0  0  0
  3  4  1  0  0  0
  3 92  1  0  0  0
  3 93  1  0  0  0
  4  5  1  0  0  0
  4 94  1  0  0  0
  4 95  1  0  0  0
  5  6  1  0  0  0
  5 26  1  0  0  0
  5 96  1  0  0  0
  6 25  1  0  0  0
  6 97  1  0  0  0
  6 98  1  0  0  0
  7  8  2  0  0  0
  7 26  1  0  0  0
  7 29  1  0  0  0
  8  9  1  0  0  0
  8 22  1  0  0  0
  9 10  1  0  0  0
  9 27  2  0  0  0
 10 11  2  0  0  0
 10 15  1  0  0  0
 11 12  1  0  0  0
 11 99  1  0  0  0
 12 13  2  0  0  0
 12100  1  0  0  0
 13 14  1  0  0  0
 13 31  1  0  0  0
 14 15  2  0  0  0
 14101  1  0  0  0
 15102  1  0  0  0
 16 17  2  0  0  0
 16 21  1  0  0  0
 16 31  1  0  0  0
 17 18  1  0  0  0
 17103  1  0  0  0
 18 19  2  0  0  0
 18104  1  0  0  0
 19 20  1  0  0  0
 19 24  1  0  0  0
 20 21  2  0  0  0
 20105  1  0  0  0
 21 23  1  0  0  0
 22 28  1  0  0  0
 22 32  2  0  0  0
 26 27  1  0  0  0
 28106  1  0  0  0
 28107  1  0  0  0
 29108  1  0  0  0
 29109  1  0  0  0
 33 34  1  0  0  0
 33 66  1  0  0  0
 33 70  2  0  0  0
 34 36  1  0  0  0
 34 59  1  0  0  0
 34110  1  0  0  0
 35 44  2  0  0  0
 35 45  1  0  0  0
 35 68  1  0  0  0
 36 56  1  0  0  0
 36111  1  0  0  0
 37 39  1  0  0  0
 37 47  1  0  0  0
 37 66  1  0  0  0
 37112  1  0  0  0
 38 43  2  0  0  0
 38 46  1  0  0  0
 38 47  1  0  0  0
 39 64  1  0  0  0
 39 67  2  0  0  0
 40 52  1  0  0  0
 40 53  2  0  0  0
 40 58  1  0  0  0
 41113  1  0  0  0
 41114  1  0  0  0
 41115  1  0  0  0
 41 48  1  0  0  0
 42 43  1  0  0  0
 42 66  1  0  0  0
 42116  1  0  0  0
 42117  1  0  0  0
 43 44  1  0  0  0
 44118  1  0  0  0
 45 46  2  0  0  0
 45119  1  0  0  0
 46120  1  0  0  0
 47121  1  0  0  0
 47122  1  0  0  0
 48 56  1  0  0  0
 48 65  1  0  0  0
 48123  1  0  0  0
 49 50  1  0  0  0
 49 53  1  0  0  0
 49 64  1  0  0  0
 49124  1  0  0  0
 50 51  1  0  0  0
 50125  1  0  0  0
 50126  1  0  0  0
 51 52  1  0  0  0
 51127  1  0  0  0
 51128  1  0  0  0
 52129  1  0  0  0
 52130  1  0  0  0
 53 54  1  0  0  0
 54 55  2  0  0  0
 54131  1  0  0  0
 55 57  1  0  0  0
 55132  1  0  0  0
 56 69  2  0  0  0
 57 58  2  0  0  0
 57133  1  0  0  0
 58134  1  0  0  0
 59 60  1  0  0  0
 59 61  1  0  0  0
 59 62  1  0  0  0
 60135  1  0  0  0
 60136  1  0  0  0
 60137  1  0  0  0
 61138  1  0  0  0
 61139  1  0  0  0
 61140  1  0  0  0
 62141  1  0  0  0
 62142  1  0  0  0
 62143  1  0  0  0
 63 65  1  0  0  0
 63144  1  0  0  0
 63145  1  0  0  0
 63146  1  0  0  0
 64147  1  0  0  0
 65148  1  0  0  0
 68 82  1  0  0  0
 71 73  2  0  0  0
 71 74  1  0  0  0
 71149  1  0  0  0
 72 73  1  0  0  0
 72 75  2  0  0  0
 72 76  1  0  0  0
 73 79  1  0  0  0
 74 84  2  0  0  0
 74 86  1  0  0  0
 75 84  1  0  0  0
 75 85  1  0  0  0
 76 80  1  0  0  0
 76 87  2  0  0  0
 77 81  1  0  0  0
 77 82  1  0  0  0
 77 88  2  0  0  0
 78 83  1  0  0  0
 78 85  1  0  0  0
 78 89  2  0  0  0
 79150  1  0  0  0
 79151  1  0  0  0
 79152  1  0  0  0
 80153  1  0  0  0
 80154  1  0  0  0
 80155  1  0  0  0
 81 83  1  0  0  0
 81156  1  0  0  0
 81157  1  0  0  0
 82158  1  0  0  0
 82159  1  0  0  0
 83160  1  0  0  0
 83161  1  0  0  0
 85162  1  0  0  0
 86163  1  0  0  0
M  ISO  4   1 100  68 101  82 101  86 100
M  END
> <chiral flag>
0

> <version>
0

> <s_m_source_file>
/data/baiqing/PycharmProjects/Reinvent-master-3.2/result/LINK_invent/BTK/process_docking_weight1_custom_product_contain_oxygen_bond_distance_aromatic_linkinvent_7_9_3/rearranged_h_0169.sdf

> <i_m_source_file_index>
76

> <r_mmod_Potential_Energy-OPLS-2005>
-152.232894897461

> <r_mmod_Stretch_Energy-OPLS-2005>
41.3031921386719

> <r_mmod_Bend_Energy-OPLS-2005>
110.839164733887

> <r_mmod_Torsional_Energy-OPLS-2005>
287.998779296875

> <r_mmod_Improper_Torsional_Energy-OPLS-2005>
7.80149698257446

> <r_mmod_Van_der_Waal_Energy-OPLS-2005>
171.060501098633

> <r_mmod_Electrostatic_Energy-OPLS-2005>
-509.89892578125

> <r_mmod_Solvation_Energy-OPLS-2005>
-280.12353515625

> <b_mmod_Minimization_Converged-OPLS-2005>
0

> <r_mmod_RMS_Derivative-OPLS-2005>
2.97988271713257

$$$$
76
                    3D
 Structure written by MMmdl.
165173  0  0  1  0            999 V2000
  -30.7093  -14.4337   20.5611 C   0  0  0  0  0  0
  -30.4159  -12.2771   19.4171 C   0  0  0  0  0  0
  -29.4904  -12.4932   18.2023 C   0  0  0  0  0  0
  -28.0100  -12.3687   18.6161 C   0  0  0  0  0  0
  -27.6635  -13.2032   19.8786 C   0  0  2  0  0  0
  -28.7046  -12.9723   20.9978 C   0  0  0  0  0  0
  -25.2591  -13.8170   20.5686 C   0  0  0  0  0  0
  -24.1828  -13.0453   20.9167 C   0  0  0  0  0  0
  -24.6383  -11.6913   20.8738 C   0  0  0  0  0  0
  -23.9057  -10.4302   21.0413 C   0  0  0  0  0  0
  -24.3604   -9.4215   21.9188 C   0  0  0  0  0  0
  -23.6281   -8.2249   22.0767 C   0  0  0  0  0  0
  -22.4258   -8.0285   21.3554 C   0  0  0  0  0  0
  -21.9890   -9.0269   20.4670 C   0  0  0  0  0  0
  -22.7220  -10.2149   20.3073 C   0  0  0  0  0  0
  -21.6854   -6.0731   22.5281 C   0  0  0  0  0  0
  -21.4019   -6.5631   23.8215 C   0  0  0  0  0  0
  -21.3660   -5.6785   24.9170 C   0  0  0  0  0  0
  -21.6031   -4.3045   24.7231 C   0  0  0  0  0  0
  -21.8811   -3.8144   23.4354 C   0  0  0  0  0  0
  -21.9191   -4.6955   22.3405 C   0  0  0  0  0  0
  -22.7849  -13.5256   21.1824 C   0  0  0  0  0  0
  -22.1653   -4.2139   21.0988 F   0  0  0  0  0  0
  -21.5637   -3.4533   25.7757 F   0  0  0  0  0  0
  -30.0369  -13.2603   20.4427 N   0  0  0  0  0  0
  -26.3026  -12.9331   20.3387 N   0  0  0  0  0  0
  -25.9309  -11.6497   20.5780 N   0  0  0  0  0  0
  -22.0468  -12.8272   22.0381 N   0  0  0  0  0  0
  -25.4320  -15.1883   20.4106 N   0  0  0  0  0  0
  -31.8270  -14.6197   20.0743 O   0  0  0  0  0  0
  -21.6629   -6.8880   21.4249 O   0  0  0  0  0  0
  -22.3541  -14.5553   20.6654 O   0  0  0  0  0  0
  -24.6138  -31.8686   23.2106 C   0  0  0  0  0  0
  -25.9031  -32.4828   23.8390 C   0  0  1  0  0  0
  -27.2326  -27.4308   20.0906 C   0  0  0  0  0  0
  -25.5885  -33.8623   24.2327 N   0  0  0  0  0  0
  -23.4006  -30.4946   21.5510 C   0  0  2  0  0  0
  -24.8464  -28.9635   20.1140 C   0  0  0  0  0  0
  -22.7405  -29.4668   22.4986 C   0  0  0  0  0  0
  -18.0267  -28.1385   22.8492 C   0  0  0  0  0  0
  -24.1487  -36.7309   23.2644 C   0  0  0  0  0  0
  -25.9320  -30.8322   21.3677 C   0  0  0  0  0  0
  -26.0053  -29.4675   20.7130 C   0  0  0  0  0  0
  -27.1943  -28.7042   20.7062 C   0  0  0  0  0  0
  -26.0454  -26.9387   19.4945 C   0  0  0  0  0  0
  -24.8609  -27.6976   19.5063 C   0  0  0  0  0  0
  -23.6101  -29.8312   20.1636 C   0  0  0  0  0  0
  -25.4106  -36.3119   24.0350 C   0  0  1  0  0  0
  -20.5859  -28.3666   23.1331 C   0  0  2  0  0  0
  -20.6758  -26.9399   22.5435 C   0  0  0  0  0  0
  -19.5735  -26.6391   21.5228 C   0  0  0  0  0  0
  -18.1910  -26.7929   22.1632 C   0  0  0  0  0  0
  -19.1518  -28.8838   23.2909 C   0  0  0  0  0  0
  -18.9452  -30.1444   23.8923 C   0  0  0  0  0  0
  -17.6458  -30.6590   24.0575 C   0  0  0  0  0  0
  -25.9035  -34.9483   23.5141 C   0  0  0  0  0  0
  -16.5348  -29.9103   23.6326 C   0  0  0  0  0  0
  -16.7261  -28.6523   23.0340 C   0  0  0  0  0  0
  -26.4459  -31.6600   25.0713 C   0  0  0  0  0  0
  -25.3741  -31.3694   26.1476 C   0  0  0  0  0  0
  -27.0279  -30.3042   24.6089 C   0  0  0  0  0  0
  -27.6050  -32.4310   25.7443 C   0  0  0  0  0  0
  -27.5583  -37.1811   24.8467 C   0  0  0  0  0  0
  -21.4132  -29.3038   22.3735 N   0  0  0  0  0  0
  -26.4294  -37.3804   23.9415 N   0  0  0  0  0  0
  -24.6666  -31.0791   22.1017 N   0  0  0  0  0  0
  -23.4185  -28.8213   23.3022 O   0  0  0  0  0  0
  -28.4196  -26.7229   20.1491 O   0  0  0  0  0  0
  -26.5605  -34.8936   22.4708 O   0  0  0  0  0  0
  -23.5327  -32.1453   23.7502 O   0  0  0  0  0  0
  -29.5361  -19.0916   21.6548 C   0  0  0  0  0  0
  -29.2306  -19.8143   23.9456 C   0  0  0  0  0  0
  -29.9645  -17.8132   22.0859 C   0  0  0  0  0  0
  -30.0532  -17.5371   23.4842 C   0  0  0  0  0  0
  -29.1986  -20.1116   22.5703 C   0  0  0  0  0  0
  -29.6583  -18.5500   24.4031 C   0  0  0  0  0  0
  -29.2562  -22.1388   21.1171 C   0  0  0  0  0  0
  -32.1027  -16.0272   23.8255 C   0  0  0  0  0  0
  -30.5871  -16.1961   24.0111 C   0  0  0  0  0  0
  -30.4096  -16.8500   20.9797 C   0  0  0  0  0  0
  -28.5993  -23.5109   20.8535 C   0  0  0  0  0  0
  -29.4593  -24.4884   20.0052 C   0  0  0  0  0  0
  -28.6660  -25.6038   19.2888 C   0  0  0  0  0  0
  -29.6928  -18.3378   25.7825 N   0  0  0  0  0  0
  -28.7918  -21.4180   22.1561 N   0  0  0  0  0  0
  -30.0087  -15.4470   21.0935 N   0  0  0  0  0  0
  -30.1723  -21.7453   20.3895 O   0  0  0  0  0  0
  -31.4630  -12.3574   19.1192 H   0  0  0  0  0  0
  -30.3021  -11.2651   19.8099 H   0  0  0  0  0  0
  -29.7169  -11.7630   17.4245 H   0  0  0  0  0  0
  -29.6714  -13.4746   17.7596 H   0  0  0  0  0  0
  -27.8072  -11.3151   18.8071 H   0  0  0  0  0  0
  -27.3617  -12.6550   17.7866 H   0  0  0  0  0  0
  -27.7158  -14.2523   19.5878 H   0  0  0  0  0  0
  -28.6685  -11.9375   21.3425 H   0  0  0  0  0  0
  -28.4753  -13.5755   21.8773 H   0  0  0  0  0  0
  -25.2763   -9.5678   22.4758 H   0  0  0  0  0  0
  -23.9995   -7.4630   22.7482 H   0  0  0  0  0  0
  -21.0821   -8.8798   19.8985 H   0  0  0  0  0  0
  -22.3695  -10.9684   19.6185 H   0  0  0  0  0  0
  -21.2014   -7.6144   23.9708 H   0  0  0  0  0  0
  -21.1483   -6.0523   25.9074 H   0  0  0  0  0  0
  -22.0593   -2.7607   23.2852 H   0  0  0  0  0  0
  -22.4064  -11.9966   22.4834 H   0  0  0  0  0  0
  -21.1101  -13.1353   22.2604 H   0  0  0  0  0  0
  -24.6688  -15.8462   20.5273 H   0  0  0  0  0  0
  -26.2844  -15.6276   20.0873 H   0  0  0  0  0  0
  -26.7097  -32.5525   23.1142 H   0  0  0  0  0  0
  -24.9995  -33.9780   25.0443 H   0  0  0  0  0  0
  -22.6886  -31.3106   21.4132 H   0  0  0  0  0  0
  -23.3755  -35.9636   23.3322 H   0  0  0  0  0  0
  -24.3587  -36.8909   22.2057 H   0  0  0  0  0  0
  -23.7238  -37.6520   23.6640 H   0  0  0  0  0  0
  -26.0527  -31.5997   20.6021 H   0  0  0  0  0  0
  -26.8165  -30.8792   21.9909 H   0  0  0  0  0  0
  -28.0869  -29.0888   21.1799 H   0  0  0  0  0  0
  -25.9783  -25.9661   19.0354 H   0  0  0  0  0  0
  -23.9649  -27.2983   19.0522 H   0  0  0  0  0  0
  -23.7242  -30.6085   19.4071 H   0  0  0  0  0  0
  -22.7337  -29.2554   19.8619 H   0  0  0  0  0  0
  -25.1285  -36.1987   25.0844 H   0  0  0  0  0  0
  -20.9949  -28.3238   24.1453 H   0  0  0  0  0  0
  -20.5661  -26.2275   23.3627 H   0  0  0  0  0  0
  -21.6633  -26.7441   22.1235 H   0  0  0  0  0  0
  -19.6897  -25.6307   21.1249 H   0  0  0  0  0  0
  -19.6679  -27.3217   20.6768 H   0  0  0  0  0  0
  -17.4186  -26.6691   21.4026 H   0  0  0  0  0  0
  -18.0290  -26.0070   22.9024 H   0  0  0  0  0  0
  -19.7929  -30.7247   24.2316 H   0  0  0  0  0  0
  -17.5019  -31.6276   24.5172 H   0  0  0  0  0  0
  -15.5352  -30.3019   23.7636 H   0  0  0  0  0  0
  -15.8660  -28.0862   22.7034 H   0  0  0  0  0  0
  -24.5887  -30.7080   25.7801 H   0  0  0  0  0  0
  -24.8964  -32.2850   26.4971 H   0  0  0  0  0  0
  -25.8110  -30.8810   27.0199 H   0  0  0  0  0  0
  -26.2817  -29.6800   24.1170 H   0  0  0  0  0  0
  -27.4079  -29.7275   25.4529 H   0  0  0  0  0  0
  -27.8633  -30.4348   23.9213 H   0  0  0  0  0  0
  -27.2683  -33.3588   26.2070 H   0  0  0  0  0  0
  -28.3801  -32.6919   25.0227 H   0  0  0  0  0  0
  -28.0784  -31.8415   26.5306 H   0  0  0  0  0  0
  -28.2624  -38.0086   24.7511 H   0  0  0  0  0  0
  -28.1060  -36.2633   24.6289 H   0  0  0  0  0  0
  -27.2311  -37.1463   25.8872 H   0  0  0  0  0  0
  -20.9289  -29.8764   21.6964 H   0  0  0  0  0  0
  -26.0190  -38.2885   24.1414 H   0  0  0  0  0  0
  -29.4866  -19.2958   20.5943 H   0  0  0  0  0  0
  -28.9495  -20.5763   24.6589 H   0  0  0  0  0  0
  -32.4331  -15.0661   24.2200 H   0  0  0  0  0  0
  -32.6499  -16.8061   24.3558 H   0  0  0  0  0  0
  -32.3992  -16.0648   22.7794 H   0  0  0  0  0  0
  -30.0462  -15.3701   23.5572 H   0  0  0  0  0  0
  -30.3677  -16.0678   25.0690 H   0  0  0  0  0  0
  -31.4918  -16.9539   20.8939 H   0  0  0  0  0  0
  -30.0151  -17.1961   20.0224 H   0  0  0  0  0  0
  -28.3239  -23.9834   21.7974 H   0  0  0  0  0  0
  -27.6648  -23.3086   20.3292 H   0  0  0  0  0  0
  -29.9727  -23.9309   19.2214 H   0  0  0  0  0  0
  -30.2478  -24.9240   20.6208 H   0  0  0  0  0  0
  -27.7981  -25.1563   18.8168 H   0  0  0  0  0  0
  -29.2742  -25.9877   18.4688 H   0  0  0  0  0  0
  -29.5212  -19.0853   26.4461 H   0  0  0  0  0  0
  -30.1082  -17.5015   26.1783 H   0  0  0  0  0  0
  -28.1293  -21.8891   22.7585 H   0  0  0  0  0  0
  -29.0893  -15.2469   21.4561 H   0  0  0  0  0  0
  1 25  1  0  0  0
  1 30  2  0  0  0
  1 86  1  0  0  0
  2  3  1  0  0  0
  2 25  1  0  0  0
  2 88  1  0  0  0
  2 89  1  0  0  0
  3  4  1  0  0  0
  3 90  1  0  0  0
  3 91  1  0  0  0
  4  5  1  0  0  0
  4 92  1  0  0  0
  4 93  1  0  0  0
  5  6  1  0  0  0
  5 26  1  0  0  0
  5 94  1  0  0  0
  6 25  1  0  0  0
  6 95  1  0  0  0
  6 96  1  0  0  0
  7  8  2  0  0  0
  7 26  1  0  0  0
  7 29  1  0  0  0
  8  9  1  0  0  0
  8 22  1  0  0  0
  9 10  1  0  0  0
  9 27  2  0  0  0
 10 11  2  0  0  0
 10 15  1  0  0  0
 11 12  1  0  0  0
 11 97  1  0  0  0
 12 13  2  0  0  0
 12 98  1  0  0  0
 13 14  1  0  0  0
 13 31  1  0  0  0
 14 15  2  0  0  0
 14 99  1  0  0  0
 15100  1  0  0  0
 16 17  2  0  0  0
 16 21  1  0  0  0
 16 31  1  0  0  0
 17 18  1  0  0  0
 17101  1  0  0  0
 18 19  2  0  0  0
 18102  1  0  0  0
 19 20  1  0  0  0
 19 24  1  0  0  0
 20 21  2  0  0  0
 20103  1  0  0  0
 21 23  1  0  0  0
 22 28  1  0  0  0
 22 32  2  0  0  0
 26 27  1  0  0  0
 28104  1  0  0  0
 28105  1  0  0  0
 29106  1  0  0  0
 29107  1  0  0  0
 33 34  1  0  0  0
 33 66  1  0  0  0
 33 70  2  0  0  0
 34 36  1  0  0  0
 34 59  1  0  0  0
 34108  1  0  0  0
 35 44  2  0  0  0
 35 45  1  0  0  0
 35 68  1  0  0  0
 36 56  1  0  0  0
 36109  1  0  0  0
 37 39  1  0  0  0
 37 47  1  0  0  0
 37 66  1  0  0  0
 37110  1  0  0  0
 38 43  2  0  0  0
 38 46  1  0  0  0
 38 47  1  0  0  0
 39 64  1  0  0  0
 39 67  2  0  0  0
 40 52  1  0  0  0
 40 53  2  0  0  0
 40 58  1  0  0  0
 41111  1  0  0  0
 41112  1  0  0  0
 41113  1  0  0  0
 41 48  1  0  0  0
 42 43  1  0  0  0
 42 66  1  0  0  0
 42114  1  0  0  0
 42115  1  0  0  0
 43 44  1  0  0  0
 44116  1  0  0  0
 45 46  2  0  0  0
 45117  1  0  0  0
 46118  1  0  0  0
 47119  1  0  0  0
 47120  1  0  0  0
 48 56  1  0  0  0
 48 65  1  0  0  0
 48121  1  0  0  0
 49 50  1  0  0  0
 49 53  1  0  0  0
 49 64  1  0  0  0
 49122  1  0  0  0
 50 51  1  0  0  0
 50123  1  0  0  0
 50124  1  0  0  0
 51 52  1  0  0  0
 51125  1  0  0  0
 51126  1  0  0  0
 52127  1  0  0  0
 52128  1  0  0  0
 53 54  1  0  0  0
 54 55  2  0  0  0
 54129  1  0  0  0
 55 57  1  0  0  0
 55130  1  0  0  0
 56 69  2  0  0  0
 57 58  2  0  0  0
 57131  1  0  0  0
 58132  1  0  0  0
 59 60  1  0  0  0
 59 61  1  0  0  0
 59 62  1  0  0  0
 60133  1  0  0  0
 60134  1  0  0  0
 60135  1  0  0  0
 61136  1  0  0  0
 61137  1  0  0  0
 61138  1  0  0  0
 62139  1  0  0  0
 62140  1  0  0  0
 62141  1  0  0  0
 63 65  1  0  0  0
 63142  1  0  0  0
 63143  1  0  0  0
 63144  1  0  0  0
 64145  1  0  0  0
 65146  1  0  0  0
 68 83  1  0  0  0
 71 73  2  0  0  0
 71 75  1  0  0  0
 71147  1  0  0  0
 72 75  2  0  0  0
 72 76  1  0  0  0
 72148  1  0  0  0
 73 74  1  0  0  0
 73 80  1  0  0  0
 74 76  2  0  0  0
 74 79  1  0  0  0
 75 85  1  0  0  0
 76 84  1  0  0  0
 77 81  1  0  0  0
 77 85  1  0  0  0
 77 87  2  0  0  0
 78 79  1  0  0  0
 78149  1  0  0  0
 78150  1  0  0  0
 78151  1  0  0  0
 79152  1  0  0  0
 79153  1  0  0  0
 80 86  1  0  0  0
 80154  1  0  0  0
 80155  1  0  0  0
 81 82  1  0  0  0
 81156  1  0  0  0
 81157  1  0  0  0
 82 83  1  0  0  0
 82158  1  0  0  0
 82159  1  0  0  0
 83160  1  0  0  0
 83161  1  0  0  0
 84162  1  0  0  0
 84163  1  0  0  0
 85164  1  0  0  0
 86165  1  0  0  0
M  ISO  4   1 100  68 101  83 101  86 100
M  END
> <chiral flag>
0

> <version>
0

> <s_m_source_file>
/data/baiqing/PycharmProjects/Reinvent-master-3.2/result/LINK_invent/BTK/process_docking_weight1_custom_product_contain_oxygen_bond_distance_aromatic_linkinvent_7_9_3/rearranged_h_0169.sdf

> <i_m_source_file_index>
77

> <r_mmod_Potential_Energy-OPLS-2005>
-163.55500793457

> <r_mmod_Stretch_Energy-OPLS-2005>
39.154972076416

> <r_mmod_Bend_Energy-OPLS-2005>
122.121047973633

> <r_mmod_Torsional_Energy-OPLS-2005>
218.425064086914

> <r_mmod_Improper_Torsional_Energy-OPLS-2005>
5.03626775741577

> <r_mmod_Van_der_Waal_Energy-OPLS-2005>
170.096633911133

> <r_mmod_Electrostatic_Energy-OPLS-2005>
-498.575439453125

> <r_mmod_Solvation_Energy-OPLS-2005>
-232.299407958984

> <b_mmod_Minimization_Converged-OPLS-2005>
0

> <r_mmod_RMS_Derivative-OPLS-2005>
2.54705238342285

$$$$
77
                    3D
 Structure written by MMmdl.
162170  0  0  1  0            999 V2000
  -30.6438  -14.5554   20.5202 C   0  0  0  0  0  0
  -30.4317  -12.3513   19.4138 C   0  0  0  0  0  0
  -29.4940  -12.4998   18.1979 C   0  0  0  0  0  0
  -28.0176  -12.3414   18.6160 C   0  0  0  0  0  0
  -27.6496  -13.2046   19.8531 C   0  0  2  0  0  0
  -28.6948  -13.0390   20.9766 C   0  0  0  0  0  0
  -25.2550  -13.8158   20.5676 C   0  0  0  0  0  0
  -24.1831  -13.0450   20.9201 C   0  0  0  0  0  0
  -24.6376  -11.6907   20.8746 C   0  0  0  0  0  0
  -23.9064  -10.4290   21.0445 C   0  0  0  0  0  0
  -24.3624   -9.4202   21.9202 C   0  0  0  0  0  0
  -23.6299   -8.2236   22.0770 C   0  0  0  0  0  0
  -22.4270   -8.0273   21.3554 C   0  0  0  0  0  0
  -21.9907   -9.0257   20.4657 C   0  0  0  0  0  0
  -22.7248  -10.2130   20.3077 C   0  0  0  0  0  0
  -21.6833   -6.0739   22.5289 C   0  0  0  0  0  0
  -21.4007   -6.5658   23.8229 C   0  0  0  0  0  0
  -21.3650   -5.6806   24.9191 C   0  0  0  0  0  0
  -21.6041   -4.3067   24.7235 C   0  0  0  0  0  0
  -21.8811   -3.8159   23.4361 C   0  0  0  0  0  0
  -21.9196   -4.6976   22.3417 C   0  0  0  0  0  0
  -22.7849  -13.5260   21.1864 C   0  0  0  0  0  0
  -22.1660   -4.2166   21.0996 F   0  0  0  0  0  0
  -21.5628   -3.4547   25.7746 F   0  0  0  0  0  0
  -30.0101  -13.3564   20.4018 N   0  0  0  0  0  0
  -26.2967  -12.9303   20.3268 N   0  0  0  0  0  0
  -25.9294  -11.6476   20.5737 N   0  0  0  0  0  0
  -22.0482  -12.8233   22.0389 N   0  0  0  0  0  0
  -25.4269  -15.1899   20.4100 N   0  0  0  0  0  0
  -31.8281  -14.7119   20.2069 O   0  0  0  0  0  0
  -21.6634   -6.8872   21.4236 O   0  0  0  0  0  0
  -22.3549  -14.5571   20.6709 O   0  0  0  0  0  0
  -24.6208  -31.8628   23.2031 C   0  0  0  0  0  0
  -25.9098  -32.4789   23.8329 C   0  0  1  0  0  0
  -27.2321  -27.3739   20.0670 C   0  0  0  0  0  0
  -25.5897  -33.8582   24.2277 N   0  0  0  0  0  0
  -23.4117  -30.4883   21.5463 C   0  0  2  0  0  0
  -24.8583  -28.9594   20.1070 C   0  0  0  0  0  0
  -22.7461  -29.4602   22.4923 C   0  0  0  0  0  0
  -18.0282  -28.1369   22.8556 C   0  0  0  0  0  0
  -24.1469  -36.7270   23.2634 C   0  0  0  0  0  0
  -25.9523  -30.8092   21.3701 C   0  0  0  0  0  0
  -26.0287  -29.4448   20.7028 C   0  0  0  0  0  0
  -27.2149  -28.6608   20.6796 C   0  0  0  0  0  0
  -26.0193  -26.9114   19.5104 C   0  0  0  0  0  0
  -24.8545  -27.6941   19.5076 C   0  0  0  0  0  0
  -23.6234  -29.8294   20.1587 C   0  0  0  0  0  0
  -25.4089  -36.3068   24.0331 C   0  0  1  0  0  0
  -20.5898  -28.3654   23.1323 C   0  0  2  0  0  0
  -20.6744  -26.9373   22.5439 C   0  0  0  0  0  0
  -19.5709  -26.6399   21.5237 C   0  0  0  0  0  0
  -18.1903  -26.7937   22.1661 C   0  0  0  0  0  0
  -19.1544  -28.8827   23.2944 C   0  0  0  0  0  0
  -18.9456  -30.1431   23.8932 C   0  0  0  0  0  0
  -17.6444  -30.6573   24.0577 C   0  0  0  0  0  0
  -25.9038  -34.9451   23.5102 C   0  0  0  0  0  0
  -16.5339  -29.9075   23.6347 C   0  0  0  0  0  0
  -16.7276  -28.6478   23.0407 C   0  0  0  0  0  0
  -26.4528  -31.6582   25.0677 C   0  0  0  0  0  0
  -25.3795  -31.3686   26.1420 C   0  0  0  0  0  0
  -27.0329  -30.2975   24.6125 C   0  0  0  0  0  0
  -27.6093  -32.4286   25.7478 C   0  0  0  0  0  0
  -27.5570  -37.1794   24.8476 C   0  0  0  0  0  0
  -21.4175  -29.2981   22.3651 N   0  0  0  0  0  0
  -26.4262  -37.3767   23.9437 N   0  0  0  0  0  0
  -24.6793  -31.0694   22.0947 N   0  0  0  0  0  0
  -23.4232  -28.8129   23.2957 O   0  0  0  0  0  0
  -28.3516  -26.5465   20.1749 O   0  0  0  0  0  0
  -26.5632  -34.8914   22.4680 O   0  0  0  0  0  0
  -23.5378  -32.1377   23.7387 O   0  0  0  0  0  0
  -31.1308  -18.3245   22.9336 C   0  0  0  0  0  0
  -30.9348  -17.0668   22.3379 C   0  0  0  0  0  0
  -29.5466  -18.1269   20.6310 C   0  0  0  0  0  0
  -30.5519  -19.4926   22.3935 C   0  0  0  0  0  0
  -30.1258  -16.9397   21.1907 C   0  0  0  0  0  0
  -29.7865  -19.4239   21.1948 C   0  0  0  0  0  0
  -28.9081  -23.0558   20.1183 C   0  0  0  0  0  0
  -29.8240  -21.7667   20.2695 C   0  0  0  0  0  0
  -30.7204  -20.7897   23.1745 C   0  0  0  0  0  0
  -27.9720  -25.1959   17.9725 C   0  0  0  0  0  0
  -29.9549  -26.5656   18.5195 C   0  0  0  0  0  0
  -29.6347  -24.3956   19.7645 C   0  0  0  0  0  0
  -28.8832  -25.6496   19.1401 C   0  0  0  0  0  0
  -29.1839  -20.6256   20.6497 N   0  0  0  0  0  0
  -29.8158  -15.6192   20.7042 N   0  0  0  0  0  0
  -27.6886  -23.0114   20.3205 O   0  0  0  0  0  0
  -31.0384  -21.8114   20.0430 O   0  0  0  0  0  0
  -31.4717  -12.4798   19.1077 H   0  0  0  0  0  0
  -30.3611  -11.3495   19.8383 H   0  0  0  0  0  0
  -29.7421  -11.7611   17.4350 H   0  0  0  0  0  0
  -29.6433  -13.4761   17.7333 H   0  0  0  0  0  0
  -27.8446  -11.2885   18.8339 H   0  0  0  0  0  0
  -27.3617  -12.5855   17.7805 H   0  0  0  0  0  0
  -27.6730  -14.2426   19.5218 H   0  0  0  0  0  0
  -28.6892  -12.0184   21.3603 H   0  0  0  0  0  0
  -28.4563  -13.6782   21.8290 H   0  0  0  0  0  0
  -25.2765   -9.5676   22.4789 H   0  0  0  0  0  0
  -24.0009   -7.4618   22.7484 H   0  0  0  0  0  0
  -21.0849   -8.8781   19.8964 H   0  0  0  0  0  0
  -22.3718  -10.9675   19.6195 H   0  0  0  0  0  0
  -21.1978   -7.6157   23.9731 H   0  0  0  0  0  0
  -21.1478   -6.0538   25.9094 H   0  0  0  0  0  0
  -22.0593   -2.7619   23.2861 H   0  0  0  0  0  0
  -22.4071  -11.9912   22.4791 H   0  0  0  0  0  0
  -21.1104  -13.1265   22.2621 H   0  0  0  0  0  0
  -24.6559  -15.8377   20.5254 H   0  0  0  0  0  0
  -26.2674  -15.6308   20.0616 H   0  0  0  0  0  0
  -26.7148  -32.5492   23.1064 H   0  0  0  0  0  0
  -24.9995  -33.9714   25.0387 H   0  0  0  0  0  0
  -22.7003  -31.3069   21.4057 H   0  0  0  0  0  0
  -23.3720  -35.9618   23.3302 H   0  0  0  0  0  0
  -24.3549  -36.8871   22.2043 H   0  0  0  0  0  0
  -23.7233  -37.6469   23.6658 H   0  0  0  0  0  0
  -26.0918  -31.5837   20.6152 H   0  0  0  0  0  0
  -26.8284  -30.8448   22.0066 H   0  0  0  0  0  0
  -28.1139  -29.0274   21.1582 H   0  0  0  0  0  0
  -25.9158  -25.9129   19.1271 H   0  0  0  0  0  0
  -23.9515  -27.2979   19.0669 H   0  0  0  0  0  0
  -23.7317  -30.6056   19.4000 H   0  0  0  0  0  0
  -22.7491  -29.2523   19.8566 H   0  0  0  0  0  0
  -25.1262  -36.1897   25.0820 H   0  0  0  0  0  0
  -21.0051  -28.3237   24.1433 H   0  0  0  0  0  0
  -20.5627  -26.2258   23.3642 H   0  0  0  0  0  0
  -21.6604  -26.7367   22.1217 H   0  0  0  0  0  0
  -19.6812  -25.6334   21.1203 H   0  0  0  0  0  0
  -19.6620  -27.3267   20.6810 H   0  0  0  0  0  0
  -17.4177  -26.6800   21.4036 H   0  0  0  0  0  0
  -18.0211  -26.0032   22.8989 H   0  0  0  0  0  0
  -19.7902  -30.7265   24.2333 H   0  0  0  0  0  0
  -17.4971  -31.6274   24.5147 H   0  0  0  0  0  0
  -15.5324  -30.2972   23.7605 H   0  0  0  0  0  0
  -15.8698  -28.0757   22.7159 H   0  0  0  0  0  0
  -24.6031  -30.6954   25.7755 H   0  0  0  0  0  0
  -24.8940  -32.2828   26.4823 H   0  0  0  0  0  0
  -25.8184  -30.8899   27.0188 H   0  0  0  0  0  0
  -26.2879  -29.6797   24.1091 H   0  0  0  0  0  0
  -27.3884  -29.7180   25.4667 H   0  0  0  0  0  0
  -27.8846  -30.4155   23.9426 H   0  0  0  0  0  0
  -27.2708  -33.3593   26.2043 H   0  0  0  0  0  0
  -28.3969  -32.6824   25.0365 H   0  0  0  0  0  0
  -28.0708  -31.8400   26.5411 H   0  0  0  0  0  0
  -28.2597  -38.0085   24.7503 H   0  0  0  0  0  0
  -28.1063  -36.2613   24.6319 H   0  0  0  0  0  0
  -27.2317  -37.1461   25.8890 H   0  0  0  0  0  0
  -20.9315  -29.8699   21.6876 H   0  0  0  0  0  0
  -26.0135  -38.2830   24.1461 H   0  0  0  0  0  0
  -31.7068  -18.3772   23.8469 H   0  0  0  0  0  0
  -31.3619  -16.1937   22.8122 H   0  0  0  0  0  0
  -28.9086  -18.0415   19.7625 H   0  0  0  0  0  0
  -29.7734  -21.3261   23.2547 H   0  0  0  0  0  0
  -31.4600  -21.4409   22.7068 H   0  0  0  0  0  0
  -31.0563  -20.5946   24.1936 H   0  0  0  0  0  0
  -27.4940  -26.0309   17.4591 H   0  0  0  0  0  0
  -27.2020  -24.4914   18.2757 H   0  0  0  0  0  0
  -28.5567  -24.6810   17.2115 H   0  0  0  0  0  0
  -29.5076  -27.4631   18.0875 H   0  0  0  0  0  0
  -30.5081  -26.0627   17.7264 H   0  0  0  0  0  0
  -30.6761  -26.8959   19.2694 H   0  0  0  0  0  0
  -30.4037  -24.0902   19.0566 H   0  0  0  0  0  0
  -30.1844  -24.7146   20.6487 H   0  0  0  0  0  0
  -28.1723  -20.6841   20.6510 H   0  0  0  0  0  0
  -28.8353  -15.4042   20.6148 H   0  0  0  0  0  0
  1 25  1  0  0  0
  1 30  2  0  0  0
  1 85  1  0  0  0
  2  3  1  0  0  0
  2 25  1  0  0  0
  2 88  1  0  0  0
  2 89  1  0  0  0
  3  4  1  0  0  0
  3 90  1  0  0  0
  3 91  1  0  0  0
  4  5  1  0  0  0
  4 92  1  0  0  0
  4 93  1  0  0  0
  5  6  1  0  0  0
  5 26  1  0  0  0
  5 94  1  0  0  0
  6 25  1  0  0  0
  6 95  1  0  0  0
  6 96  1  0  0  0
  7  8  2  0  0  0
  7 26  1  0  0  0
  7 29  1  0  0  0
  8  9  1  0  0  0
  8 22  1  0  0  0
  9 10  1  0  0  0
  9 27  2  0  0  0
 10 11  2  0  0  0
 10 15  1  0  0  0
 11 12  1  0  0  0
 11 97  1  0  0  0
 12 13  2  0  0  0
 12 98  1  0  0  0
 13 14  1  0  0  0
 13 31  1  0  0  0
 14 15  2  0  0  0
 14 99  1  0  0  0
 15100  1  0  0  0
 16 17  2  0  0  0
 16 21  1  0  0  0
 16 31  1  0  0  0
 17 18  1  0  0  0
 17101  1  0  0  0
 18 19  2  0  0  0
 18102  1  0  0  0
 19 20  1  0  0  0
 19 24  1  0  0  0
 20 21  2  0  0  0
 20103  1  0  0  0
 21 23  1  0  0  0
 22 28  1  0  0  0
 22 32  2  0  0  0
 26 27  1  0  0  0
 28104  1  0  0  0
 28105  1  0  0  0
 29106  1  0  0  0
 29107  1  0  0  0
 33 34  1  0  0  0
 33 66  1  0  0  0
 33 70  2  0  0  0
 34 36  1  0  0  0
 34 59  1  0  0  0
 34108  1  0  0  0
 35 44  2  0  0  0
 35 45  1  0  0  0
 35 68  1  0  0  0
 36 56  1  0  0  0
 36109  1  0  0  0
 37 39  1  0  0  0
 37 47  1  0  0  0
 37 66  1  0  0  0
 37110  1  0  0  0
 38 43  2  0  0  0
 38 46  1  0  0  0
 38 47  1  0  0  0
 39 64  1  0  0  0
 39 67  2  0  0  0
 40 52  1  0  0  0
 40 53  2  0  0  0
 40 58  1  0  0  0
 41111  1  0  0  0
 41112  1  0  0  0
 41113  1  0  0  0
 41 48  1  0  0  0
 42 43  1  0  0  0
 42 66  1  0  0  0
 42114  1  0  0  0
 42115  1  0  0  0
 43 44  1  0  0  0
 44116  1  0  0  0
 45 46  2  0  0  0
 45117  1  0  0  0
 46118  1  0  0  0
 47119  1  0  0  0
 47120  1  0  0  0
 48 56  1  0  0  0
 48 65  1  0  0  0
 48121  1  0  0  0
 49 50  1  0  0  0
 49 53  1  0  0  0
 49 64  1  0  0  0
 49122  1  0  0  0
 50 51  1  0  0  0
 50123  1  0  0  0
 50124  1  0  0  0
 51 52  1  0  0  0
 51125  1  0  0  0
 51126  1  0  0  0
 52127  1  0  0  0
 52128  1  0  0  0
 53 54  1  0  0  0
 54 55  2  0  0  0
 54129  1  0  0  0
 55 57  1  0  0  0
 55130  1  0  0  0
 56 69  2  0  0  0
 57 58  2  0  0  0
 57131  1  0  0  0
 58132  1  0  0  0
 59 60  1  0  0  0
 59 61  1  0  0  0
 59 62  1  0  0  0
 60133  1  0  0  0
 60134  1  0  0  0
 60135  1  0  0  0
 61136  1  0  0  0
 61137  1  0  0  0
 61138  1  0  0  0
 62139  1  0  0  0
 62140  1  0  0  0
 62141  1  0  0  0
 63 65  1  0  0  0
 63142  1  0  0  0
 63143  1  0  0  0
 63144  1  0  0  0
 64145  1  0  0  0
 65146  1  0  0  0
 68 83  1  0  0  0
 71 72  2  0  0  0
 71 74  1  0  0  0
 71147  1  0  0  0
 72 75  1  0  0  0
 72148  1  0  0  0
 73 75  2  0  0  0
 73 76  1  0  0  0
 73149  1  0  0  0
 74 76  2  0  0  0
 74 79  1  0  0  0
 75 85  1  0  0  0
 76 84  1  0  0  0
 77 78  1  0  0  0
 77 82  1  0  0  0
 77 86  2  0  0  0
 78 84  1  0  0  0
 78 87  2  0  0  0
 79150  1  0  0  0
 79151  1  0  0  0
 79152  1  0  0  0
 80153  1  0  0  0
 80154  1  0  0  0
 80155  1  0  0  0
 80 83  1  0  0  0
 81 83  1  0  0  0
 81156  1  0  0  0
 81157  1  0  0  0
 81158  1  0  0  0
 82 83  1  0  0  0
 82159  1  0  0  0
 82160  1  0  0  0
 84161  1  0  0  0
 85162  1  0  0  0
M  ISO  4   1 100  68 101  83 101  85 100
M  END
> <chiral flag>
0

> <version>
0

> <s_m_source_file>
/data/baiqing/PycharmProjects/Reinvent-master-3.2/result/LINK_invent/BTK/process_docking_weight1_custom_product_contain_oxygen_bond_distance_aromatic_linkinvent_7_9_3/rearranged_h_0169.sdf

> <i_m_source_file_index>
78

> <r_mmod_Potential_Energy-OPLS-2005>
71.4110794067383

> <r_mmod_Stretch_Energy-OPLS-2005>
64.8072280883789

> <r_mmod_Bend_Energy-OPLS-2005>
152.474456787109

> <r_mmod_Torsional_Energy-OPLS-2005>
262.554351806641

> <r_mmod_Improper_Torsional_Energy-OPLS-2005>
9.52633953094482

> <r_mmod_Van_der_Waal_Energy-OPLS-2005>
155.184707641602

> <r_mmod_Electrostatic_Energy-OPLS-2005>
-374.831085205078

> <r_mmod_Solvation_Energy-OPLS-2005>
-231.378280639648

> <b_mmod_Minimization_Converged-OPLS-2005>
0

> <r_mmod_RMS_Derivative-OPLS-2005>
3.85823369026184

$$$$
78
                    3D
 Structure written by MMmdl.
157166  0  0  1  0            999 V2000
  -30.6590  -14.6750   20.4647 C   0  0  0  0  0  0
  -30.4417  -12.3944   19.4740 C   0  0  0  0  0  0
  -29.5211  -12.5165   18.2369 C   0  0  0  0  0  0
  -28.0434  -12.3537   18.6434 C   0  0  0  0  0  0
  -27.6608  -13.2313   19.8642 C   0  0  2  0  0  0
  -28.7158  -13.1256   20.9962 C   0  0  0  0  0  0
  -25.2572  -13.8198   20.5749 C   0  0  0  0  0  0
  -24.1857  -13.0420   20.9208 C   0  0  0  0  0  0
  -24.6475  -11.6909   20.8730 C   0  0  0  0  0  0
  -23.9114  -10.4281   21.0361 C   0  0  0  0  0  0
  -24.3654   -9.4215   21.9160 C   0  0  0  0  0  0
  -23.6326   -8.2221   22.0708 C   0  0  0  0  0  0
  -22.4322   -8.0221   21.3487 C   0  0  0  0  0  0
  -21.9937   -9.0221   20.4592 C   0  0  0  0  0  0
  -22.7286  -10.2117   20.3038 C   0  0  0  0  0  0
  -21.6871   -6.0733   22.5296 C   0  0  0  0  0  0
  -21.4023   -6.5646   23.8218 C   0  0  0  0  0  0
  -21.3668   -5.6778   24.9173 C   0  0  0  0  0  0
  -21.6078   -4.3041   24.7246 C   0  0  0  0  0  0
  -21.8806   -3.8146   23.4344 C   0  0  0  0  0  0
  -21.9200   -4.6980   22.3428 C   0  0  0  0  0  0
  -22.7866  -13.5177   21.1855 C   0  0  0  0  0  0
  -22.1657   -4.2169   21.1013 F   0  0  0  0  0  0
  -21.5650   -3.4525   25.7770 F   0  0  0  0  0  0
  -30.0377  -13.4471   20.4325 N   0  0  0  0  0  0
  -26.3050  -12.9413   20.3381 N   0  0  0  0  0  0
  -25.9403  -11.6543   20.5797 N   0  0  0  0  0  0
  -22.0519  -12.8153   22.0420 N   0  0  0  0  0  0
  -25.4156  -15.1923   20.4207 N   0  0  0  0  0  0
  -31.8012  -14.8259   20.0224 O   0  0  0  0  0  0
  -21.6616   -6.8849   21.4258 O   0  0  0  0  0  0
  -22.3535  -14.5461   20.6694 O   0  0  0  0  0  0
  -24.6267  -31.8543   23.1939 C   0  0  0  0  0  0
  -25.9083  -32.4747   23.8308 C   0  0  1  0  0  0
  -27.2711  -27.3161   20.0818 C   0  0  0  0  0  0
  -25.5904  -33.8557   24.2249 N   0  0  0  0  0  0
  -23.4303  -30.4645   21.5357 C   0  0  2  0  0  0
  -24.8870  -28.9059   20.1089 C   0  0  0  0  0  0
  -22.7528  -29.4551   22.4919 C   0  0  0  0  0  0
  -18.0308  -28.1392   22.8499 C   0  0  0  0  0  0
  -24.1501  -36.7284   23.2638 C   0  0  0  0  0  0
  -25.9682  -30.7739   21.3738 C   0  0  0  0  0  0
  -26.0473  -29.3967   20.7180 C   0  0  0  0  0  0
  -27.2331  -28.6056   20.7051 C   0  0  0  0  0  0
  -26.0873  -26.8697   19.4564 C   0  0  0  0  0  0
  -24.9076  -27.6489   19.4766 C   0  0  0  0  0  0
  -23.6496  -29.7834   20.1558 C   0  0  0  0  0  0
  -25.4116  -36.3069   24.0331 C   0  0  1  0  0  0
  -20.5907  -28.3688   23.1298 C   0  0  2  0  0  0
  -20.6790  -26.9402   22.5415 C   0  0  0  0  0  0
  -19.5760  -26.6376   21.5224 C   0  0  0  0  0  0
  -18.1945  -26.7949   22.1629 C   0  0  0  0  0  0
  -19.1550  -28.8858   23.2894 C   0  0  0  0  0  0
  -18.9471  -30.1461   23.8893 C   0  0  0  0  0  0
  -17.6459  -30.6579   24.0565 C   0  0  0  0  0  0
  -25.9053  -34.9438   23.5088 C   0  0  0  0  0  0
  -16.5362  -29.9072   23.6329 C   0  0  0  0  0  0
  -16.7287  -28.6504   23.0347 C   0  0  0  0  0  0
  -26.4460  -31.6586   25.0700 C   0  0  0  0  0  0
  -25.3678  -31.3736   26.1412 C   0  0  0  0  0  0
  -27.0310  -30.3029   24.6158 C   0  0  0  0  0  0
  -27.6044  -32.4311   25.7440 C   0  0  0  0  0  0
  -27.5596  -37.1775   24.8436 C   0  0  0  0  0  0
  -21.4225  -29.3022   22.3673 N   0  0  0  0  0  0
  -26.4289  -37.3777   23.9423 N   0  0  0  0  0  0
  -24.6936  -31.0485   22.0910 N   0  0  0  0  0  0
  -23.4222  -28.8119   23.3019 O   0  0  0  0  0  0
  -28.4309  -26.5254   20.1355 O   0  0  0  0  0  0
  -26.5627  -34.8923   22.4672 O   0  0  0  0  0  0
  -23.5424  -32.1344   23.7220 O   0  0  0  0  0  0
  -29.4957  -19.2081   19.2824 C   0  0  0  0  0  0
  -29.4051  -19.4237   21.6644 C   0  0  0  0  0  0
  -29.8543  -17.8194   19.4196 C   0  0  0  0  0  0
  -29.7269  -18.0426   21.8047 C   0  0  0  0  0  0
  -29.2133  -20.0548   20.4052 C   0  0  0  0  0  0
  -29.9249  -17.1819   20.6941 C   0  0  0  0  0  0
  -28.5164  -23.5058   21.3442 C   0  0  0  0  0  0
  -28.5013  -21.4902   20.3813 C   0  0  1  0  0  0
  -28.1327  -23.8307   19.9306 C   0  0  1  0  0  0
  -27.8570  -22.1602   18.0547 C   0  0  0  0  0  0
  -28.6671  -25.2469   19.3996 C   0  0  0  0  0  0
  -28.7489  -22.2770   21.5890 N   0  0  0  0  0  0
  -29.9237  -15.7319   20.9372 N   0  0  0  0  0  0
  -28.6123  -22.5325   19.2843 N   0  3  2  0  0  0
  -31.4877  -12.4938   19.1753 H   0  0  0  0  0  0
  -30.3528  -11.4076   19.9322 H   0  0  0  0  0  0
  -29.7877  -11.7599   17.4980 H   0  0  0  0  0  0
  -29.6778  -13.4845   17.7615 H   0  0  0  0  0  0
  -27.8892  -11.3005   18.8815 H   0  0  0  0  0  0
  -27.3854  -12.5783   17.7997 H   0  0  0  0  0  0
  -27.6665  -14.2622   19.5098 H   0  0  0  0  0  0
  -28.7235  -12.1281   21.4314 H   0  0  0  0  0  0
  -28.4559  -13.8067   21.8105 H   0  0  0  0  0  0
  -25.2785   -9.5715   22.4757 H   0  0  0  0  0  0
  -24.0081   -7.4601   22.7419 H   0  0  0  0  0  0
  -21.0860   -8.8680   19.8938 H   0  0  0  0  0  0
  -22.3658  -10.9602   19.6149 H   0  0  0  0  0  0
  -21.1971   -7.6138   23.9760 H   0  0  0  0  0  0
  -21.1527   -6.0499   25.9099 H   0  0  0  0  0  0
  -22.0586   -2.7623   23.2857 H   0  0  0  0  0  0
  -22.4138  -11.9870   22.4909 H   0  0  0  0  0  0
  -21.1121  -13.1103   22.2526 H   0  0  0  0  0  0
  -24.6462  -15.8336   20.5677 H   0  0  0  0  0  0
  -26.2768  -15.6635   20.1647 H   0  0  0  0  0  0
  -26.7167  -32.5420   23.1065 H   0  0  0  0  0  0
  -25.0057  -33.9699   25.0399 H   0  0  0  0  0  0
  -22.7275  -31.2841   21.3780 H   0  0  0  0  0  0
  -23.3782  -35.9586   23.3222 H   0  0  0  0  0  0
  -24.3620  -36.8984   22.2062 H   0  0  0  0  0  0
  -23.7194  -37.6451   23.6707 H   0  0  0  0  0  0
  -26.1009  -31.5330   20.6042 H   0  0  0  0  0  0
  -26.8469  -30.8301   22.0041 H   0  0  0  0  0  0
  -28.1249  -28.9726   21.1981 H   0  0  0  0  0  0
  -26.0555  -25.9126   18.9614 H   0  0  0  0  0  0
  -24.0213  -27.2712   18.9882 H   0  0  0  0  0  0
  -23.7677  -30.5508   19.3889 H   0  0  0  0  0  0
  -22.7784  -29.2002   19.8558 H   0  0  0  0  0  0
  -25.1288  -36.1914   25.0823 H   0  0  0  0  0  0
  -21.0010  -28.3231   24.1415 H   0  0  0  0  0  0
  -20.5723  -26.2270   23.3598 H   0  0  0  0  0  0
  -21.6653  -26.7444   22.1166 H   0  0  0  0  0  0
  -19.6905  -25.6285   21.1253 H   0  0  0  0  0  0
  -19.6697  -27.3188   20.6762 H   0  0  0  0  0  0
  -17.4216  -26.6725   21.4021 H   0  0  0  0  0  0
  -18.0314  -26.0073   22.9009 H   0  0  0  0  0  0
  -19.7933  -30.7304   24.2256 H   0  0  0  0  0  0
  -17.4999  -31.6269   24.5139 H   0  0  0  0  0  0
  -15.5356  -30.2960   23.7649 H   0  0  0  0  0  0
  -15.8712  -28.0815   22.7050 H   0  0  0  0  0  0
  -24.5853  -30.7091   25.7719 H   0  0  0  0  0  0
  -24.8845  -32.2905   26.4825 H   0  0  0  0  0  0
  -25.7958  -30.8906   27.0208 H   0  0  0  0  0  0
  -26.2886  -29.6761   24.1205 H   0  0  0  0  0  0
  -27.4069  -29.7291   25.4640 H   0  0  0  0  0  0
  -27.8729  -30.4343   23.9348 H   0  0  0  0  0  0
  -27.2713  -33.3643   26.1996 H   0  0  0  0  0  0
  -28.3846  -32.6816   25.0235 H   0  0  0  0  0  0
  -28.0728  -31.8444   26.5353 H   0  0  0  0  0  0
  -28.2528  -38.0167   24.7638 H   0  0  0  0  0  0
  -28.1206  -36.2710   24.6079 H   0  0  0  0  0  0
  -27.2357  -37.1177   25.8851 H   0  0  0  0  0  0
  -20.9425  -29.8721   21.6860 H   0  0  0  0  0  0
  -26.0162  -38.2847   24.1512 H   0  0  0  0  0  0
  -29.3705  -19.5870   18.2795 H   0  0  0  0  0  0
  -29.1965  -19.9760   22.5694 H   0  0  0  0  0  0
  -30.0015  -17.2317   18.5224 H   0  0  0  0  0  0
  -29.7580  -17.6306   22.8043 H   0  0  0  0  0  0
  -28.5742  -24.3238   22.0690 H   0  0  0  0  0  0
  -27.4429  -21.2166   20.4023 H   0  0  0  0  0  0
  -27.0421  -23.8395   19.8908 H   0  0  0  0  0  0
  -28.3020  -21.3182   17.5272 H   0  0  0  0  0  0
  -27.7979  -22.9753   17.3330 H   0  0  0  0  0  0
  -26.8304  -21.8791   18.3084 H   0  0  0  0  0  0
  -28.3867  -25.3822   18.3521 H   0  0  0  0  0  0
  -29.7545  -25.1634   19.3668 H   0  0  0  0  0  0
  -29.1648  -15.4313   21.5286 H   0  0  0  0  0  0
  -29.5981  -22.6131   19.0602 H   0  0  0  0  0  0
  1 25  1  0  0  0
  1 30  2  0  0  0
  1 83  1  0  0  0
  2  3  1  0  0  0
  2 25  1  0  0  0
  2 85  1  0  0  0
  2 86  1  0  0  0
  3  4  1  0  0  0
  3 87  1  0  0  0
  3 88  1  0  0  0
  4  5  1  0  0  0
  4 89  1  0  0  0
  4 90  1  0  0  0
  5  6  1  0  0  0
  5 26  1  0  0  0
  5 91  1  0  0  0
  6 25  1  0  0  0
  6 92  1  0  0  0
  6 93  1  0  0  0
  7  8  2  0  0  0
  7 26  1  0  0  0
  7 29  1  0  0  0
  8  9  1  0  0  0
  8 22  1  0  0  0
  9 10  1  0  0  0
  9 27  2  0  0  0
 10 11  2  0  0  0
 10 15  1  0  0  0
 11 12  1  0  0  0
 11 94  1  0  0  0
 12 13  2  0  0  0
 12 95  1  0  0  0
 13 14  1  0  0  0
 13 31  1  0  0  0
 14 15  2  0  0  0
 14 96  1  0  0  0
 15 97  1  0  0  0
 16 17  2  0  0  0
 16 21  1  0  0  0
 16 31  1  0  0  0
 17 18  1  0  0  0
 17 98  1  0  0  0
 18 19  2  0  0  0
 18 99  1  0  0  0
 19 20  1  0  0  0
 19 24  1  0  0  0
 20 21  2  0  0  0
 20100  1  0  0  0
 21 23  1  0  0  0
 22 28  1  0  0  0
 22 32  2  0  0  0
 26 27  1  0  0  0
 28101  1  0  0  0
 28102  1  0  0  0
 29103  1  0  0  0
 29104  1  0  0  0
 33 34  1  0  0  0
 33 66  1  0  0  0
 33 70  2  0  0  0
 34 36  1  0  0  0
 34 59  1  0  0  0
 34105  1  0  0  0
 35 44  2  0  0  0
 35 45  1  0  0  0
 35 68  1  0  0  0
 36 56  1  0  0  0
 36106  1  0  0  0
 37 39  1  0  0  0
 37 47  1  0  0  0
 37 66  1  0  0  0
 37107  1  0  0  0
 38 43  2  0  0  0
 38 46  1  0  0  0
 38 47  1  0  0  0
 39 64  1  0  0  0
 39 67  2  0  0  0
 40 52  1  0  0  0
 40 53  2  0  0  0
 40 58  1  0  0  0
 41108  1  0  0  0
 41109  1  0  0  0
 41110  1  0  0  0
 41 48  1  0  0  0
 42 43  1  0  0  0
 42 66  1  0  0  0
 42111  1  0  0  0
 42112  1  0  0  0
 43 44  1  0  0  0
 44113  1  0  0  0
 45 46  2  0  0  0
 45114  1  0  0  0
 46115  1  0  0  0
 47116  1  0  0  0
 47117  1  0  0  0
 48 56  1  0  0  0
 48 65  1  0  0  0
 48118  1  0  0  0
 49 50  1  0  0  0
 49 53  1  0  0  0
 49 64  1  0  0  0
 49119  1  0  0  0
 50 51  1  0  0  0
 50120  1  0  0  0
 50121  1  0  0  0
 51 52  1  0  0  0
 51122  1  0  0  0
 51123  1  0  0  0
 52124  1  0  0  0
 52125  1  0  0  0
 53 54  1  0  0  0
 54 55  2  0  0  0
 54126  1  0  0  0
 55 57  1  0  0  0
 55127  1  0  0  0
 56 69  2  0  0  0
 57 58  2  0  0  0
 57128  1  0  0  0
 58129  1  0  0  0
 59 60  1  0  0  0
 59 61  1  0  0  0
 59 62  1  0  0  0
 60130  1  0  0  0
 60131  1  0  0  0
 60132  1  0  0  0
 61133  1  0  0  0
 61134  1  0  0  0
 61135  1  0  0  0
 62136  1  0  0  0
 62137  1  0  0  0
 62138  1  0  0  0
 63 65  1  0  0  0
 63139  1  0  0  0
 63140  1  0  0  0
 63141  1  0  0  0
 64142  1  0  0  0
 65143  1  0  0  0
 68 81  1  0  0  0
 71 73  2  0  0  0
 71 75  1  0  0  0
 71144  1  0  0  0
 72 74  1  0  0  0
 72 75  2  0  0  0
 72145  1  0  0  0
 73 76  1  0  0  0
 73146  1  0  0  0
 74 76  2  0  0  0
 74147  1  0  0  0
 75 78  1  0  0  0
 76 83  1  0  0  0
 77 79  1  0  0  0
 77 82  2  0  0  0
 77148  1  0  0  0
 78 82  1  0  0  0
 78 84  1  0  0  0
 78149  1  0  0  0
 79 81  1  0  0  0
 79 84  1  0  0  0
 79150  1  0  0  0
 80151  1  0  0  0
 80152  1  0  0  0
 80153  1  0  0  0
 80 84  1  0  0  0
 81154  1  0  0  0
 81155  1  0  0  0
 83156  1  0  0  0
 84157  1  0  0  0
M  CHG  1  84   1
M  ISO  4   1 100  68 101  81 101  83 100
M  END
> <chiral flag>
0

> <version>
0

> <s_m_source_file>
/data/baiqing/PycharmProjects/Reinvent-master-3.2/result/LINK_invent/BTK/process_docking_weight1_custom_product_contain_oxygen_bond_distance_aromatic_linkinvent_7_9_3/rearranged_h_0169.sdf

> <i_m_source_file_index>
79

> <r_mmod_Potential_Energy-OPLS-2005>
3.35581731796265

> <r_mmod_Stretch_Energy-OPLS-2005>
97.1233749389648

> <r_mmod_Bend_Energy-OPLS-2005>
227.611083984375

> <r_mmod_Torsional_Energy-OPLS-2005>
246.111297607422

> <r_mmod_Improper_Torsional_Energy-OPLS-2005>
5.56831836700439

> <r_mmod_Van_der_Waal_Energy-OPLS-2005>
131.604248046875

> <r_mmod_Electrostatic_Energy-OPLS-2005>
-301.694763183594

> <r_mmod_Solvation_Energy-OPLS-2005>
-457.929626464844

> <b_mmod_Minimization_Converged-OPLS-2005>
0

> <r_mmod_RMS_Derivative-OPLS-2005>
7.85264158248901

$$$$
79
                    3D
 Structure written by MMmdl.
160169  0  0  1  0            999 V2000
  -30.6849  -14.5435   20.4659 C   0  0  0  0  0  0
  -30.4178  -12.3200   19.4499 C   0  0  0  0  0  0
  -29.5046  -12.4913   18.2181 C   0  0  0  0  0  0
  -28.0244  -12.3473   18.6252 C   0  0  0  0  0  0
  -27.6536  -13.2181   19.8572 C   0  0  2  0  0  0
  -28.6955  -13.0728   20.9911 C   0  0  0  0  0  0
  -25.2555  -13.8192   20.5661 C   0  0  0  0  0  0
  -24.1826  -13.0455   20.9170 C   0  0  0  0  0  0
  -24.6401  -11.6918   20.8718 C   0  0  0  0  0  0
  -23.9066  -10.4307   21.0387 C   0  0  0  0  0  0
  -24.3633   -9.4231   21.9175 C   0  0  0  0  0  0
  -23.6306   -8.2267   22.0758 C   0  0  0  0  0  0
  -22.4281   -8.0289   21.3552 C   0  0  0  0  0  0
  -21.9911   -9.0256   20.4655 C   0  0  0  0  0  0
  -22.7244  -10.2137   20.3047 C   0  0  0  0  0  0
  -21.6866   -6.0730   22.5282 C   0  0  0  0  0  0
  -21.4013   -6.5642   23.8215 C   0  0  0  0  0  0
  -21.3654   -5.6797   24.9179 C   0  0  0  0  0  0
  -21.6036   -4.3050   24.7229 C   0  0  0  0  0  0
  -21.8816   -3.8144   23.4357 C   0  0  0  0  0  0
  -21.9203   -4.6962   22.3415 C   0  0  0  0  0  0
  -22.7849  -13.5253   21.1836 C   0  0  0  0  0  0
  -22.1668   -4.2137   21.0998 F   0  0  0  0  0  0
  -21.5631   -3.4533   25.7739 F   0  0  0  0  0  0
  -30.0226  -13.3522   20.4255 N   0  0  0  0  0  0
  -26.2989  -12.9382   20.3265 N   0  0  0  0  0  0
  -25.9323  -11.6552   20.5732 N   0  0  0  0  0  0
  -22.0486  -12.8229   22.0381 N   0  0  0  0  0  0
  -25.4300  -15.1911   20.4083 N   0  0  0  0  0  0
  -31.8719  -14.6349   20.1485 O   0  0  0  0  0  0
  -21.6661   -6.8872   21.4240 O   0  0  0  0  0  0
  -22.3549  -14.5582   20.6718 O   0  0  0  0  0  0
  -24.6201  -31.8660   23.2107 C   0  0  0  0  0  0
  -25.9095  -32.4804   23.8403 C   0  0  1  0  0  0
  -27.1884  -27.3747   20.0991 C   0  0  0  0  0  0
  -25.5958  -33.8603   24.2360 N   0  0  0  0  0  0
  -23.4068  -30.4945   21.5547 C   0  0  2  0  0  0
  -24.8469  -28.9691   20.1007 C   0  0  0  0  0  0
  -22.7431  -29.4641   22.4983 C   0  0  0  0  0  0
  -18.0263  -28.1372   22.8496 C   0  0  0  0  0  0
  -24.1483  -36.7267   23.2633 C   0  0  0  0  0  0
  -25.9435  -30.8116   21.3723 C   0  0  0  0  0  0
  -26.0135  -29.4461   20.7132 C   0  0  0  0  0  0
  -27.1939  -28.6542   20.7143 C   0  0  0  0  0  0
  -26.0170  -26.9492   19.4372 C   0  0  0  0  0  0
  -24.8482  -27.7263   19.4496 C   0  0  0  0  0  0
  -23.6131  -29.8405   20.1629 C   0  0  0  0  0  0
  -25.4094  -36.3088   24.0360 C   0  0  1  0  0  0
  -20.5856  -28.3639   23.1332 C   0  0  2  0  0  0
  -20.6743  -26.9381   22.5415 C   0  0  0  0  0  0
  -19.5740  -26.6384   21.5209 C   0  0  0  0  0  0
  -18.1916  -26.7934   22.1608 C   0  0  0  0  0  0
  -19.1509  -28.8822   23.2919 C   0  0  0  0  0  0
  -18.9435  -30.1433   23.8923 C   0  0  0  0  0  0
  -17.6432  -30.6576   24.0546 C   0  0  0  0  0  0
  -25.9038  -34.9468   23.5141 C   0  0  0  0  0  0
  -16.5323  -29.9053   23.6352 C   0  0  0  0  0  0
  -16.7245  -28.6475   23.0366 C   0  0  0  0  0  0
  -26.4516  -31.6560   25.0714 C   0  0  0  0  0  0
  -25.3808  -31.3651   26.1488 C   0  0  0  0  0  0
  -27.0283  -30.2993   24.6058 C   0  0  0  0  0  0
  -27.6176  -32.4205   25.7417 C   0  0  0  0  0  0
  -27.5594  -37.1758   24.8453 C   0  0  0  0  0  0
  -21.4148  -29.3012   22.3742 N   0  0  0  0  0  0
  -26.4260  -37.3794   23.9467 N   0  0  0  0  0  0
  -24.6763  -31.0712   22.1039 N   0  0  0  0  0  0
  -23.4207  -28.8181   23.3014 O   0  0  0  0  0  0
  -28.2581  -26.4980   20.1739 O   0  0  0  0  0  0
  -26.5540  -34.8936   22.4659 O   0  0  0  0  0  0
  -23.5383  -32.1438   23.7486 O   0  0  0  0  0  0
  -30.9450  -18.2372   18.0874 C   0  0  0  0  0  0
  -30.4660  -19.4287   18.6546 C   0  0  0  0  0  0
  -30.7610  -17.0128   18.7475 C   0  0  0  0  0  0
  -29.6065  -18.1667   20.5581 C   0  0  0  0  0  0
  -29.7776  -19.4257   19.8905 C   0  0  0  0  0  0
  -30.1121  -16.9445   20.0059 C   0  0  0  0  0  0
  -28.6337  -23.9599   20.4441 C   0  0  0  0  0  0
  -30.1020  -23.8877   20.8199 C   0  0  0  0  0  0
  -28.6772  -21.7570   19.4218 C   0  0  0  0  0  0
  -30.3984  -22.7142   21.7848 C   0  0  0  0  0  0
  -29.3146  -20.7855   20.4932 C   0  0  2  0  0  0
  -27.9149  -25.2632   20.8834 C   0  0  0  0  0  0
  -27.9982  -22.9748   19.9155 N   0  0  0  0  0  0
  -29.9307  -15.6613   20.6595 N   0  0  0  0  0  0
  -30.5112  -21.3818   21.1355 N   0  3  0  0  0  0
  -31.4675  -12.3931   19.1582 H   0  0  0  0  0  0
  -30.2987  -11.3219   19.8767 H   0  0  0  0  0  0
  -29.7581  -11.7530   17.4555 H   0  0  0  0  0  0
  -29.6725  -13.4701   17.7635 H   0  0  0  0  0  0
  -27.8451  -11.2942   18.8457 H   0  0  0  0  0  0
  -27.3775  -12.5919   17.7823 H   0  0  0  0  0  0
  -27.6773  -14.2526   19.5173 H   0  0  0  0  0  0
  -28.6705  -12.0650   21.4094 H   0  0  0  0  0  0
  -28.4631  -13.7498   21.8166 H   0  0  0  0  0  0
  -25.2779   -9.5718   22.4732 H   0  0  0  0  0  0
  -24.0019   -7.4660   22.7469 H   0  0  0  0  0  0
  -21.0846   -8.8765   19.8953 H   0  0  0  0  0  0
  -22.3701  -10.9664   19.6136 H   0  0  0  0  0  0
  -21.1990   -7.6146   23.9713 H   0  0  0  0  0  0
  -21.1474   -6.0526   25.9081 H   0  0  0  0  0  0
  -22.0594   -2.7596   23.2863 H   0  0  0  0  0  0
  -22.4091  -11.9873   22.4749 H   0  0  0  0  0  0
  -21.1110  -13.1270   22.2608 H   0  0  0  0  0  0
  -24.6595  -15.8449   20.4978 H   0  0  0  0  0  0
  -26.2834  -15.6239   20.0774 H   0  0  0  0  0  0
  -26.7144  -32.5493   23.1140 H   0  0  0  0  0  0
  -25.0206  -33.9764   25.0572 H   0  0  0  0  0  0
  -22.6986  -31.3140   21.4220 H   0  0  0  0  0  0
  -23.3800  -35.9539   23.3226 H   0  0  0  0  0  0
  -24.3620  -36.8920   22.2065 H   0  0  0  0  0  0
  -23.7170  -37.6431   23.6667 H   0  0  0  0  0  0
  -26.0593  -31.5705   20.5983 H   0  0  0  0  0  0
  -26.8332  -30.8647   21.9877 H   0  0  0  0  0  0
  -28.0855  -28.9967   21.2226 H   0  0  0  0  0  0
  -25.9927  -25.9947   18.9289 H   0  0  0  0  0  0
  -23.9563  -27.3700   18.9509 H   0  0  0  0  0  0
  -23.7209  -30.6232   19.4117 H   0  0  0  0  0  0
  -22.7360  -29.2648   19.8645 H   0  0  0  0  0  0
  -25.1260  -36.1916   25.0847 H   0  0  0  0  0  0
  -20.9928  -28.3157   24.1465 H   0  0  0  0  0  0
  -20.5643  -26.2228   23.3578 H   0  0  0  0  0  0
  -21.6606  -26.7428   22.1207 H   0  0  0  0  0  0
  -19.6884  -25.6299   21.1238 H   0  0  0  0  0  0
  -19.6719  -27.3189   20.6749 H   0  0  0  0  0  0
  -17.4199  -26.6698   21.3998 H   0  0  0  0  0  0
  -18.0305  -26.0059   22.8974 H   0  0  0  0  0  0
  -19.7899  -30.7236   24.2317 H   0  0  0  0  0  0
  -17.4983  -31.6286   24.5081 H   0  0  0  0  0  0
  -15.5315  -30.2939   23.7719 H   0  0  0  0  0  0
  -15.8644  -28.0790   22.7102 H   0  0  0  0  0  0
  -24.5955  -30.7030   25.7811 H   0  0  0  0  0  0
  -24.9019  -32.2777   26.5042 H   0  0  0  0  0  0
  -25.8172  -30.8730   27.0188 H   0  0  0  0  0  0
  -26.2741  -29.6754   24.1243 H   0  0  0  0  0  0
  -27.4173  -29.7246   25.4465 H   0  0  0  0  0  0
  -27.8565  -30.4272   23.9087 H   0  0  0  0  0  0
  -27.2963  -33.3617   26.1879 H   0  0  0  0  0  0
  -28.4045  -32.6527   25.0226 H   0  0  0  0  0  0
  -28.0765  -31.8339   26.5387 H   0  0  0  0  0  0
  -28.2517  -38.0149   24.7650 H   0  0  0  0  0  0
  -28.1180  -36.2697   24.6063 H   0  0  0  0  0  0
  -27.2362  -37.1114   25.8857 H   0  0  0  0  0  0
  -20.9291  -29.8727   21.6973 H   0  0  0  0  0  0
  -26.0141  -38.2843   24.1565 H   0  0  0  0  0  0
  -31.4638  -18.2628   17.1366 H   0  0  0  0  0  0
  -30.6533  -20.3466   18.1166 H   0  0  0  0  0  0
  -31.1367  -16.1258   18.2593 H   0  0  0  0  0  0
  -29.0976  -18.1419   21.5112 H   0  0  0  0  0  0
  -30.3762  -24.8221   21.3122 H   0  0  0  0  0  0
  -30.7163  -23.8371   19.9198 H   0  0  0  0  0  0
  -27.9291  -21.1772   18.8735 H   0  0  0  0  0  0
  -29.4103  -22.0369   18.6637 H   0  0  0  0  0  0
  -29.6629  -22.6779   22.5914 H   0  0  0  0  0  0
  -31.3552  -22.9069   22.2711 H   0  0  0  0  0  0
  -28.5655  -20.5768   21.2607 H   0  0  0  0  0  0
  -28.1379  -25.4299   21.9370 H   0  0  0  0  0  0
  -26.8446  -25.0522   20.8741 H   0  0  0  0  0  0
  -29.0448  -15.5140   21.1161 H   0  0  0  0  0  0
  -30.8089  -20.7343   21.8484 H   0  0  0  0  0  0
  -31.2525  -21.4125   20.4571 H   0  0  0  0  0  0
  1 25  1  0  0  0
  1 30  2  0  0  0
  1 84  1  0  0  0
  2  3  1  0  0  0
  2 25  1  0  0  0
  2 86  1  0  0  0
  2 87  1  0  0  0
  3  4  1  0  0  0
  3 88  1  0  0  0
  3 89  1  0  0  0
  4  5  1  0  0  0
  4 90  1  0  0  0
  4 91  1  0  0  0
  5  6  1  0  0  0
  5 26  1  0  0  0
  5 92  1  0  0  0
  6 25  1  0  0  0
  6 93  1  0  0  0
  6 94  1  0  0  0
  7  8  2  0  0  0
  7 26  1  0  0  0
  7 29  1  0  0  0
  8  9  1  0  0  0
  8 22  1  0  0  0
  9 10  1  0  0  0
  9 27  2  0  0  0
 10 11  2  0  0  0
 10 15  1  0  0  0
 11 12  1  0  0  0
 11 95  1  0  0  0
 12 13  2  0  0  0
 12 96  1  0  0  0
 13 14  1  0  0  0
 13 31  1  0  0  0
 14 15  2  0  0  0
 14 97  1  0  0  0
 15 98  1  0  0  0
 16 17  2  0  0  0
 16 21  1  0  0  0
 16 31  1  0  0  0
 17 18  1  0  0  0
 17 99  1  0  0  0
 18 19  2  0  0  0
 18100  1  0  0  0
 19 20  1  0  0  0
 19 24  1  0  0  0
 20 21  2  0  0  0
 20101  1  0  0  0
 21 23  1  0  0  0
 22 28  1  0  0  0
 22 32  2  0  0  0
 26 27  1  0  0  0
 28102  1  0  0  0
 28103  1  0  0  0
 29104  1  0  0  0
 29105  1  0  0  0
 33 34  1  0  0  0
 33 66  1  0  0  0
 33 70  2  0  0  0
 34 36  1  0  0  0
 34 59  1  0  0  0
 34106  1  0  0  0
 35 44  2  0  0  0
 35 45  1  0  0  0
 35 68  1  0  0  0
 36 56  1  0  0  0
 36107  1  0  0  0
 37 39  1  0  0  0
 37 47  1  0  0  0
 37 66  1  0  0  0
 37108  1  0  0  0
 38 43  2  0  0  0
 38 46  1  0  0  0
 38 47  1  0  0  0
 39 64  1  0  0  0
 39 67  2  0  0  0
 40 52  1  0  0  0
 40 53  2  0  0  0
 40 58  1  0  0  0
 41109  1  0  0  0
 41110  1  0  0  0
 41111  1  0  0  0
 41 48  1  0  0  0
 42 43  1  0  0  0
 42 66  1  0  0  0
 42112  1  0  0  0
 42113  1  0  0  0
 43 44  1  0  0  0
 44114  1  0  0  0
 45 46  2  0  0  0
 45115  1  0  0  0
 46116  1  0  0  0
 47117  1  0  0  0
 47118  1  0  0  0
 48 56  1  0  0  0
 48 65  1  0  0  0
 48119  1  0  0  0
 49 50  1  0  0  0
 49 53  1  0  0  0
 49 64  1  0  0  0
 49120  1  0  0  0
 50 51  1  0  0  0
 50121  1  0  0  0
 50122  1  0  0  0
 51 52  1  0  0  0
 51123  1  0  0  0
 51124  1  0  0  0
 52125  1  0  0  0
 52126  1  0  0  0
 53 54  1  0  0  0
 54 55  2  0  0  0
 54127  1  0  0  0
 55 57  1  0  0  0
 55128  1  0  0  0
 56 69  2  0  0  0
 57 58  2  0  0  0
 57129  1  0  0  0
 58130  1  0  0  0
 59 60  1  0  0  0
 59 61  1  0  0  0
 59 62  1  0  0  0
 60131  1  0  0  0
 60132  1  0  0  0
 60133  1  0  0  0
 61134  1  0  0  0
 61135  1  0  0  0
 61136  1  0  0  0
 62137  1  0  0  0
 62138  1  0  0  0
 62139  1  0  0  0
 63 65  1  0  0  0
 63140  1  0  0  0
 63141  1  0  0  0
 63142  1  0  0  0
 64143  1  0  0  0
 65144  1  0  0  0
 68 82  1  0  0  0
 71 72  2  0  0  0
 71 73  1  0  0  0
 71145  1  0  0  0
 72 75  1  0  0  0
 72146  1  0  0  0
 73 76  2  0  0  0
 73147  1  0  0  0
 74 75  2  0  0  0
 74 76  1  0  0  0
 74148  1  0  0  0
 75 81  1  0  0  0
 76 84  1  0  0  0
 77 78  1  0  0  0
 77 82  1  0  0  0
 77 83  2  0  0  0
 78 80  1  0  0  0
 78149  1  0  0  0
 78150  1  0  0  0
 79 81  1  0  0  0
 79 83  1  0  0  0
 79151  1  0  0  0
 79152  1  0  0  0
 80 85  1  0  0  0
 80153  1  0  0  0
 80154  1  0  0  0
 81 85  1  0  0  0
 81155  1  0  0  0
 82156  1  0  0  0
 82157  1  0  0  0
 84158  1  0  0  0
 85159  1  0  0  0
 85160  1  0  0  0
M  CHG  1  85   1
M  ISO  4   1 100  68 101  82 101  84 100
M  END
> <chiral flag>
0

> <version>
0

> <s_m_source_file>
/data/baiqing/PycharmProjects/Reinvent-master-3.2/result/LINK_invent/BTK/process_docking_weight1_custom_product_contain_oxygen_bond_distance_aromatic_linkinvent_7_9_3/rearranged_h_0169.sdf

> <i_m_source_file_index>
80

> <r_mmod_Potential_Energy-OPLS-2005>
-151.806930541992

> <r_mmod_Stretch_Energy-OPLS-2005>
59.5546035766602

> <r_mmod_Bend_Energy-OPLS-2005>
119.55933380127

> <r_mmod_Torsional_Energy-OPLS-2005>
257.774993896484

> <r_mmod_Improper_Torsional_Energy-OPLS-2005>
6.89188766479492

> <r_mmod_Van_der_Waal_Energy-OPLS-2005>
157.827011108398

> <r_mmod_Electrostatic_Energy-OPLS-2005>
-305.564331054688

> <r_mmod_Solvation_Energy-OPLS-2005>
-485.319458007812

> <b_mmod_Minimization_Converged-OPLS-2005>
0

> <r_mmod_RMS_Derivative-OPLS-2005>
3.70799231529236

$$$$
80
                    3D
 Structure written by MMmdl.
163171  0  0  1  0            999 V2000
  -30.6694  -14.5197   20.5138 C   0  0  0  0  0  0
  -30.4281  -12.3155   19.4417 C   0  0  0  0  0  0
  -29.5008  -12.4759   18.2167 C   0  0  0  0  0  0
  -28.0196  -12.3496   18.6248 C   0  0  0  0  0  0
  -27.6590  -13.2066   19.8675 C   0  0  2  0  0  0
  -28.7008  -13.0178   20.9952 C   0  0  0  0  0  0
  -25.2594  -13.8170   20.5668 C   0  0  0  0  0  0
  -24.1837  -13.0449   20.9167 C   0  0  0  0  0  0
  -24.6387  -11.6909   20.8718 C   0  0  0  0  0  0
  -23.9050  -10.4295   21.0392 C   0  0  0  0  0  0
  -24.3601   -9.4208   21.9171 C   0  0  0  0  0  0
  -23.6278   -8.2244   22.0750 C   0  0  0  0  0  0
  -22.4262   -8.0285   21.3544 C   0  0  0  0  0  0
  -21.9879   -9.0256   20.4654 C   0  0  0  0  0  0
  -22.7212  -10.2135   20.3055 C   0  0  0  0  0  0
  -21.6852   -6.0727   22.5270 C   0  0  0  0  0  0
  -21.4018   -6.5630   23.8204 C   0  0  0  0  0  0
  -21.3658   -5.6786   24.9166 C   0  0  0  0  0  0
  -21.6042   -4.3048   24.7220 C   0  0  0  0  0  0
  -21.8824   -3.8140   23.4342 C   0  0  0  0  0  0
  -21.9192   -4.6950   22.3398 C   0  0  0  0  0  0
  -22.7867  -13.5252   21.1830 C   0  0  0  0  0  0
  -22.1665   -4.2136   21.0970 F   0  0  0  0  0  0
  -21.5618   -3.4532   25.7737 F   0  0  0  0  0  0
  -30.0293  -13.3200   20.4415 N   0  0  0  0  0  0
  -26.3013  -12.9331   20.3323 N   0  0  0  0  0  0
  -25.9317  -11.6494   20.5744 N   0  0  0  0  0  0
  -22.0495  -12.8258   22.0393 N   0  0  0  0  0  0
  -25.4356  -15.1890   20.4073 N   0  0  0  0  0  0
  -31.8212  -14.6852   20.1017 O   0  0  0  0  0  0
  -21.6644   -6.8871   21.4236 O   0  0  0  0  0  0
  -22.3546  -14.5555   20.6678 O   0  0  0  0  0  0
  -24.6166  -31.8664   23.2067 C   0  0  0  0  0  0
  -25.9048  -32.4816   23.8369 C   0  0  1  0  0  0
  -27.2350  -27.4157   20.1133 C   0  0  0  0  0  0
  -25.5897  -33.8607   24.2308 N   0  0  0  0  0  0
  -23.4064  -30.4866   21.5482 C   0  0  2  0  0  0
  -24.8548  -28.9463   20.1185 C   0  0  0  0  0  0
  -22.7427  -29.4646   22.4991 C   0  0  0  0  0  0
  -18.0277  -28.1384   22.8490 C   0  0  0  0  0  0
  -24.1488  -36.7313   23.2633 C   0  0  0  0  0  0
  -25.9347  -30.8285   21.3603 C   0  0  0  0  0  0
  -26.0152  -29.4581   20.7143 C   0  0  0  0  0  0
  -27.2115  -28.7003   20.7074 C   0  0  0  0  0  0
  -26.0609  -26.9190   19.5129 C   0  0  0  0  0  0
  -24.8729  -27.6761   19.5142 C   0  0  0  0  0  0
  -23.6163  -29.8141   20.1644 C   0  0  0  0  0  0
  -25.4102  -36.3102   24.0336 C   0  0  1  0  0  0
  -20.5866  -28.3667   23.1323 C   0  0  2  0  0  0
  -20.6766  -26.9401   22.5428 C   0  0  0  0  0  0
  -19.5747  -26.6384   21.5221 C   0  0  0  0  0  0
  -18.1922  -26.7933   22.1621 C   0  0  0  0  0  0
  -19.1525  -28.8844   23.2902 C   0  0  0  0  0  0
  -18.9449  -30.1450   23.8914 C   0  0  0  0  0  0
  -17.6451  -30.6584   24.0570 C   0  0  0  0  0  0
  -25.9035  -34.9471   23.5123 C   0  0  0  0  0  0
  -16.5348  -29.9085   23.6326 C   0  0  0  0  0  0
  -16.7266  -28.6505   23.0346 C   0  0  0  0  0  0
  -26.4472  -31.6599   25.0704 C   0  0  0  0  0  0
  -25.3743  -31.3725   26.1461 C   0  0  0  0  0  0
  -27.0290  -30.3039   24.6073 C   0  0  0  0  0  0
  -27.6063  -32.4315   25.7453 C   0  0  0  0  0  0
  -27.5583  -37.1800   24.8450 C   0  0  0  0  0  0
  -21.4154  -29.3026   22.3728 N   0  0  0  0  0  0
  -26.4285  -37.3792   23.9412 N   0  0  0  0  0  0
  -24.6710  -31.0746   22.0978 N   0  0  0  0  0  0
  -23.4192  -28.8197   23.3044 O   0  0  0  0  0  0
  -28.3812  -26.6503   20.0851 O   0  0  0  0  0  0
  -26.5606  -34.8931   22.4689 O   0  0  0  0  0  0
  -23.5357  -32.1420   23.7459 O   0  0  0  0  0  0
  -29.9768  -19.4098   19.0101 C   0  0  0  0  0  0
  -30.0083  -18.2325   18.2416 C   0  0  0  0  0  0
  -29.8867  -19.3516   20.4193 C   0  0  0  0  0  0
  -29.9414  -16.8676   20.2753 C   0  0  0  0  0  0
  -29.9791  -16.9730   18.8617 C   0  0  0  0  0  0
  -29.8670  -18.0644   21.0459 C   0  0  0  0  0  0
  -29.9046  -20.6356   21.1739 C   0  0  0  0  0  0
  -31.9152  -23.7849   22.2038 C   0  0  0  0  0  0
  -28.6486  -24.1856   20.4355 C   0  0  0  0  0  0
  -33.2406  -24.5237   22.0972 C   0  0  0  0  0  0
  -31.0686  -23.6913   20.9335 C   0  0  0  0  0  0
  -28.4311  -25.5892   21.0646 C   0  0  0  0  0  0
  -29.6095  -23.1980   21.1555 C   0  0  2  0  0  0
  -29.9175  -15.5716   20.9028 N   0  0  0  0  0  0
  -29.4425  -21.7989   20.6438 N   0  0  0  0  0  0
  -30.4683  -20.6903   22.3828 N   0  3  0  0  0  0
  -31.5665  -23.2405   23.2550 O   0  0  0  0  0  0
  -28.0671  -23.8665   19.3937 O   0  0  0  0  0  0
  -29.9578  -15.8685   18.0783 F   0  0  0  0  0  0
  -29.8133  -17.9675   22.3986 F   0  0  0  0  0  0
  -31.4728  -12.4166   19.1393 H   0  0  0  0  0  0
  -30.3378  -11.3140   19.8650 H   0  0  0  0  0  0
  -29.7403  -11.7226   17.4651 H   0  0  0  0  0  0
  -29.6734  -13.4415   17.7407 H   0  0  0  0  0  0
  -27.8283  -11.2962   18.8341 H   0  0  0  0  0  0
  -27.3763  -12.6143   17.7850 H   0  0  0  0  0  0
  -27.6945  -14.2473   19.5458 H   0  0  0  0  0  0
  -28.6826  -11.9897   21.3604 H   0  0  0  0  0  0
  -28.4628  -13.6414   21.8575 H   0  0  0  0  0  0
  -25.2744   -9.5675   22.4739 H   0  0  0  0  0  0
  -23.9990   -7.4631   22.7466 H   0  0  0  0  0  0
  -21.0800   -8.8771   19.8966 H   0  0  0  0  0  0
  -22.3664  -10.9667   19.6160 H   0  0  0  0  0  0
  -21.2028   -7.6143   23.9704 H   0  0  0  0  0  0
  -21.1466   -6.0517   25.9063 H   0  0  0  0  0  0
  -22.0605   -2.7600   23.2856 H   0  0  0  0  0  0
  -22.4093  -11.9917   22.4788 H   0  0  0  0  0  0
  -21.1114  -13.1300   22.2586 H   0  0  0  0  0  0
  -24.6725  -15.8490   20.5152 H   0  0  0  0  0  0
  -26.2848  -15.6187   20.0659 H   0  0  0  0  0  0
  -26.7124  -32.5533   23.1142 H   0  0  0  0  0  0
  -25.0049  -33.9763   25.0457 H   0  0  0  0  0  0
  -22.6956  -31.3025   21.4056 H   0  0  0  0  0  0
  -23.3743  -35.9651   23.3294 H   0  0  0  0  0  0
  -24.3588  -36.8929   22.2047 H   0  0  0  0  0  0
  -23.7249  -37.6521   23.6652 H   0  0  0  0  0  0
  -26.0414  -31.5898   20.5864 H   0  0  0  0  0  0
  -26.8246  -30.8907   21.9742 H   0  0  0  0  0  0
  -28.1092  -29.0917   21.1653 H   0  0  0  0  0  0
  -26.0669  -25.9436   19.0461 H   0  0  0  0  0  0
  -23.9813  -27.2749   19.0518 H   0  0  0  0  0  0
  -23.7247  -30.5855   19.4011 H   0  0  0  0  0  0
  -22.7402  -29.2328   19.8708 H   0  0  0  0  0  0
  -25.1280  -36.1965   25.0828 H   0  0  0  0  0  0
  -20.9954  -28.3240   24.1448 H   0  0  0  0  0  0
  -20.5666  -26.2277   23.3618 H   0  0  0  0  0  0
  -21.6645  -26.7440   22.1233 H   0  0  0  0  0  0
  -19.6908  -25.6301   21.1240 H   0  0  0  0  0  0
  -19.6689  -27.3208   20.6763 H   0  0  0  0  0  0
  -17.4201  -26.6694   21.4014 H   0  0  0  0  0  0
  -18.0297  -26.0069   22.9005 H   0  0  0  0  0  0
  -19.7926  -30.7259   24.2293 H   0  0  0  0  0  0
  -17.5006  -31.6264   24.5167 H   0  0  0  0  0  0
  -15.5349  -30.2989   23.7636 H   0  0  0  0  0  0
  -15.8671  -28.0828   22.7053 H   0  0  0  0  0  0
  -24.5909  -30.7071   25.7815 H   0  0  0  0  0  0
  -24.8944  -32.2889   26.4906 H   0  0  0  0  0  0
  -25.8100  -30.8901   27.0220 H   0  0  0  0  0  0
  -26.2821  -29.6808   24.1137 H   0  0  0  0  0  0
  -27.4070  -29.7271   25.4525 H   0  0  0  0  0  0
  -27.8655  -30.4355   23.9208 H   0  0  0  0  0  0
  -27.2693  -33.3596   26.2081 H   0  0  0  0  0  0
  -28.3836  -32.6901   25.0253 H   0  0  0  0  0  0
  -28.0771  -31.8409   26.5323 H   0  0  0  0  0  0
  -28.2597  -38.0105   24.7521 H   0  0  0  0  0  0
  -28.1090  -36.2645   24.6238 H   0  0  0  0  0  0
  -27.2317  -37.1408   25.8857 H   0  0  0  0  0  0
  -20.9325  -29.8737   21.6937 H   0  0  0  0  0  0
  -26.0176  -38.2865   24.1434 H   0  0  0  0  0  0
  -30.0307  -20.3577   18.4935 H   0  0  0  0  0  0
  -30.0588  -18.2905   17.1645 H   0  0  0  0  0  0
  -33.1497  -25.3786   21.4268 H   0  0  0  0  0  0
  -34.0060  -23.8556   21.7018 H   0  0  0  0  0  0
  -33.5622  -24.8829   23.0740 H   0  0  0  0  0  0
  -31.5874  -23.0225   20.2466 H   0  0  0  0  0  0
  -31.0871  -24.6708   20.4530 H   0  0  0  0  0  0
  -29.2482  -25.7979   21.7556 H   0  0  0  0  0  0
  -27.5181  -25.5653   21.6620 H   0  0  0  0  0  0
  -29.3460  -23.2104   22.2144 H   0  0  0  0  0  0
  -29.0847  -15.3575   21.4273 H   0  0  0  0  0  0
  -28.8985  -21.7369   19.7890 H   0  0  0  0  0  0
  -30.7099  -19.8219   22.8409 H   0  0  0  0  0  0
  -30.6645  -21.5674   22.8513 H   0  0  0  0  0  0
  1 25  1  0  0  0
  1 30  2  0  0  0
  1 84  1  0  0  0
  2  3  1  0  0  0
  2 25  1  0  0  0
  2 91  1  0  0  0
  2 92  1  0  0  0
  3  4  1  0  0  0
  3 93  1  0  0  0
  3 94  1  0  0  0
  4  5  1  0  0  0
  4 95  1  0  0  0
  4 96  1  0  0  0
  5  6  1  0  0  0
  5 26  1  0  0  0
  5 97  1  0  0  0
  6 25  1  0  0  0
  6 98  1  0  0  0
  6 99  1  0  0  0
  7  8  2  0  0  0
  7 26  1  0  0  0
  7 29  1  0  0  0
  8  9  1  0  0  0
  8 22  1  0  0  0
  9 10  1  0  0  0
  9 27  2  0  0  0
 10 11  2  0  0  0
 10 15  1  0  0  0
 11 12  1  0  0  0
 11100  1  0  0  0
 12 13  2  0  0  0
 12101  1  0  0  0
 13 14  1  0  0  0
 13 31  1  0  0  0
 14 15  2  0  0  0
 14102  1  0  0  0
 15103  1  0  0  0
 16 17  2  0  0  0
 16 21  1  0  0  0
 16 31  1  0  0  0
 17 18  1  0  0  0
 17104  1  0  0  0
 18 19  2  0  0  0
 18105  1  0  0  0
 19 20  1  0  0  0
 19 24  1  0  0  0
 20 21  2  0  0  0
 20106  1  0  0  0
 21 23  1  0  0  0
 22 28  1  0  0  0
 22 32  2  0  0  0
 26 27  1  0  0  0
 28107  1  0  0  0
 28108  1  0  0  0
 29109  1  0  0  0
 29110  1  0  0  0
 33 34  1  0  0  0
 33 66  1  0  0  0
 33 70  2  0  0  0
 34 36  1  0  0  0
 34 59  1  0  0  0
 34111  1  0  0  0
 35 44  2  0  0  0
 35 45  1  0  0  0
 35 68  1  0  0  0
 36 56  1  0  0  0
 36112  1  0  0  0
 37 39  1  0  0  0
 37 47  1  0  0  0
 37 66  1  0  0  0
 37113  1  0  0  0
 38 43  2  0  0  0
 38 46  1  0  0  0
 38 47  1  0  0  0
 39 64  1  0  0  0
 39 67  2  0  0  0
 40 52  1  0  0  0
 40 53  2  0  0  0
 40 58  1  0  0  0
 41114  1  0  0  0
 41115  1  0  0  0
 41116  1  0  0  0
 41 48  1  0  0  0
 42 43  1  0  0  0
 42 66  1  0  0  0
 42117  1  0  0  0
 42118  1  0  0  0
 43 44  1  0  0  0
 44119  1  0  0  0
 45 46  2  0  0  0
 45120  1  0  0  0
 46121  1  0  0  0
 47122  1  0  0  0
 47123  1  0  0  0
 48 56  1  0  0  0
 48 65  1  0  0  0
 48124  1  0  0  0
 49 50  1  0  0  0
 49 53  1  0  0  0
 49 64  1  0  0  0
 49125  1  0  0  0
 50 51  1  0  0  0
 50126  1  0  0  0
 50127  1  0  0  0
 51 52  1  0  0  0
 51128  1  0  0  0
 51129  1  0  0  0
 52130  1  0  0  0
 52131  1  0  0  0
 53 54  1  0  0  0
 54 55  2  0  0  0
 54132  1  0  0  0
 55 57  1  0  0  0
 55133  1  0  0  0
 56 69  2  0  0  0
 57 58  2  0  0  0
 57134  1  0  0  0
 58135  1  0  0  0
 59 60  1  0  0  0
 59 61  1  0  0  0
 59 62  1  0  0  0
 60136  1  0  0  0
 60137  1  0  0  0
 60138  1  0  0  0
 61139  1  0  0  0
 61140  1  0  0  0
 61141  1  0  0  0
 62142  1  0  0  0
 62143  1  0  0  0
 62144  1  0  0  0
 63 65  1  0  0  0
 63145  1  0  0  0
 63146  1  0  0  0
 63147  1  0  0  0
 64148  1  0  0  0
 65149  1  0  0  0
 68 82  1  0  0  0
 71 72  2  0  0  0
 71 73  1  0  0  0
 71150  1  0  0  0
 72 75  1  0  0  0
 72151  1  0  0  0
 73 76  2  0  0  0
 73 77  1  0  0  0
 74 75  2  0  0  0
 74 76  1  0  0  0
 74 84  1  0  0  0
 75 89  1  0  0  0
 76 90  1  0  0  0
 77 85  1  0  0  0
 77 86  2  0  0  0
 78 80  1  0  0  0
 78 81  1  0  0  0
 78 87  2  0  0  0
 79 82  1  0  0  0
 79 83  1  0  0  0
 79 88  2  0  0  0
 80152  1  0  0  0
 80153  1  0  0  0
 80154  1  0  0  0
 81155  1  0  0  0
 81156  1  0  0  0
 81 83  1  0  0  0
 82157  1  0  0  0
 82158  1  0  0  0
 83 85  1  0  0  0
 83159  1  0  0  0
 84160  1  0  0  0
 85161  1  0  0  0
 86162  1  0  0  0
 86163  1  0  0  0
M  CHG  1  86   1
M  ISO  4   1 100  68 101  82 101  84 100
M  END
> <chiral flag>
0

> <version>
0

> <s_m_source_file>
/data/baiqing/PycharmProjects/Reinvent-master-3.2/result/LINK_invent/BTK/process_docking_weight1_custom_product_contain_oxygen_bond_distance_aromatic_linkinvent_7_9_3/rearranged_h_0169.sdf

> <i_m_source_file_index>
81

> <r_mmod_Potential_Energy-OPLS-2005>
-368.001708984375

> <r_mmod_Stretch_Energy-OPLS-2005>
46.5840034484863

> <r_mmod_Bend_Energy-OPLS-2005>
95.0942001342773

> <r_mmod_Torsional_Energy-OPLS-2005>
272.164398193359

> <r_mmod_Improper_Torsional_Energy-OPLS-2005>
6.16658401489258

> <r_mmod_Van_der_Waal_Energy-OPLS-2005>
153.532135009766

> <r_mmod_Electrostatic_Energy-OPLS-2005>
-516.947570800781

> <r_mmod_Solvation_Energy-OPLS-2005>
-442.92236328125

> <b_mmod_Minimization_Converged-OPLS-2005>
0

> <r_mmod_RMS_Derivative-OPLS-2005>
1.89229917526245

$$$$
81
                    3D
 Structure written by MMmdl.
160168  0  0  1  0            999 V2000
  -30.6845  -14.5086   20.5516 C   0  0  0  0  0  0
  -30.4241  -12.3207   19.4323 C   0  0  0  0  0  0
  -29.5005  -12.4948   18.2077 C   0  0  0  0  0  0
  -28.0196  -12.3533   18.6177 C   0  0  0  0  0  0
  -27.6552  -13.2084   19.8614 C   0  0  2  0  0  0
  -28.6970  -13.0179   20.9871 C   0  0  0  0  0  0
  -25.2580  -13.8166   20.5664 C   0  0  0  0  0  0
  -24.1842  -13.0443   20.9191 C   0  0  0  0  0  0
  -24.6387  -11.6908   20.8745 C   0  0  0  0  0  0
  -23.9057  -10.4302   21.0436 C   0  0  0  0  0  0
  -24.3611   -9.4207   21.9203 C   0  0  0  0  0  0
  -23.6287   -8.2242   22.0762 C   0  0  0  0  0  0
  -22.4265   -8.0290   21.3555 C   0  0  0  0  0  0
  -21.9899   -9.0264   20.4657 C   0  0  0  0  0  0
  -22.7232  -10.2145   20.3078 C   0  0  0  0  0  0
  -21.6844   -6.0748   22.5296 C   0  0  0  0  0  0
  -21.4012   -6.5647   23.8231 C   0  0  0  0  0  0
  -21.3656   -5.6797   24.9186 C   0  0  0  0  0  0
  -21.6045   -4.3062   24.7230 C   0  0  0  0  0  0
  -21.8811   -3.8152   23.4345 C   0  0  0  0  0  0
  -21.9184   -4.6976   22.3406 C   0  0  0  0  0  0
  -22.7865  -13.5245   21.1845 C   0  0  0  0  0  0
  -22.1657   -4.2164   21.0983 F   0  0  0  0  0  0
  -21.5617   -3.4547   25.7742 F   0  0  0  0  0  0
  -30.0233  -13.3245   20.4291 N   0  0  0  0  0  0
  -26.2993  -12.9326   20.3291 N   0  0  0  0  0  0
  -25.9306  -11.6486   20.5741 N   0  0  0  0  0  0
  -22.0491  -12.8275   22.0417 N   0  0  0  0  0  0
  -25.4289  -15.1887   20.4063 N   0  0  0  0  0  0
  -31.8398  -14.6709   20.1493 O   0  0  0  0  0  0
  -21.6622   -6.8892   21.4261 O   0  0  0  0  0  0
  -22.3562  -14.5544   20.6672 O   0  0  0  0  0  0
  -24.6192  -31.8659   23.2111 C   0  0  0  0  0  0
  -25.9078  -32.4808   23.8401 C   0  0  1  0  0  0
  -27.2348  -27.4036   20.0880 C   0  0  0  0  0  0
  -25.5935  -33.8610   24.2337 N   0  0  0  0  0  0
  -23.4074  -30.4937   21.5511 C   0  0  2  0  0  0
  -24.8516  -28.9555   20.1161 C   0  0  0  0  0  0
  -22.7434  -29.4659   22.4969 C   0  0  0  0  0  0
  -18.0276  -28.1389   22.8479 C   0  0  0  0  0  0
  -24.1479  -36.7283   23.2642 C   0  0  0  0  0  0
  -25.9422  -30.8194   21.3729 C   0  0  0  0  0  0
  -26.0147  -29.4544   20.7125 C   0  0  0  0  0  0
  -27.2041  -28.6854   20.6961 C   0  0  0  0  0  0
  -26.0391  -26.9169   19.5088 C   0  0  0  0  0  0
  -24.8597  -27.6863   19.5157 C   0  0  0  0  0  0
  -23.6193  -29.8325   20.1637 C   0  0  0  0  0  0
  -25.4104  -36.3101   24.0341 C   0  0  1  0  0  0
  -20.5868  -28.3662   23.1301 C   0  0  2  0  0  0
  -20.6764  -26.9395   22.5416 C   0  0  0  0  0  0
  -19.5746  -26.6384   21.5215 C   0  0  0  0  0  0
  -18.1919  -26.7935   22.1622 C   0  0  0  0  0  0
  -19.1527  -28.8848   23.2880 C   0  0  0  0  0  0
  -18.9458  -30.1451   23.8891 C   0  0  0  0  0  0
  -17.6457  -30.6587   24.0564 C   0  0  0  0  0  0
  -25.9041  -34.9469   23.5134 C   0  0  0  0  0  0
  -16.5345  -29.9080   23.6343 C   0  0  0  0  0  0
  -16.7262  -28.6509   23.0346 C   0  0  0  0  0  0
  -26.4508  -31.6607   25.0744 C   0  0  0  0  0  0
  -25.3788  -31.3713   26.1506 C   0  0  0  0  0  0
  -27.0352  -30.3043   24.6155 C   0  0  0  0  0  0
  -27.6069  -32.4353   25.7492 C   0  0  0  0  0  0
  -27.5578  -37.1804   24.8474 C   0  0  0  0  0  0
  -21.4157  -29.3022   22.3706 N   0  0  0  0  0  0
  -26.4287  -37.3788   23.9420 N   0  0  0  0  0  0
  -24.6738  -31.0742   22.1023 N   0  0  0  0  0  0
  -23.4203  -28.8206   23.3022 O   0  0  0  0  0  0
  -28.4187  -26.6771   20.1100 O   0  0  0  0  0  0
  -26.5580  -34.8920   22.4679 O   0  0  0  0  0  0
  -23.5377  -32.1420   23.7496 O   0  0  0  0  0  0
  -31.0793  -19.6624   21.2430 C   0  0  0  0  0  0
  -31.4498  -17.3110   21.8088 C   0  0  0  0  0  0
  -29.9672  -19.3191   20.4444 C   0  0  0  0  0  0
  -30.3326  -16.9304   21.0313 C   0  0  0  0  0  0
  -31.8107  -18.6664   21.9180 C   0  0  0  0  0  0
  -29.5870  -17.9439   20.3636 C   0  0  0  0  0  0
  -29.3191  -20.3854   19.6401 C   0  0  0  0  0  0
  -27.0446  -22.5804   19.0038 C   0  0  0  0  0  0
  -28.6880  -24.1690   20.1176 C   0  0  0  0  0  0
  -26.5599  -23.0598   17.6421 C   0  0  0  0  0  0
  -28.5746  -25.4872   19.2973 C   0  0  0  0  0  0
  -28.5264  -22.8213   19.3499 C   0  0  1  0  0  0
  -29.9313  -15.5543   20.9583 N   0  0  0  0  0  0
  -29.0958  -21.6479   20.0988 N   0  0  0  0  0  0
  -29.0094  -20.1148   18.3686 N   0  3  0  0  0  0
  -26.2627  -21.9989   19.7599 O   0  0  0  0  0  0
  -28.9361  -24.1998   21.3292 O   0  0  0  0  0  0
  -32.8806  -19.0205   22.6703 F   0  0  0  0  0  0
  -28.5230  -17.5769   19.6062 F   0  0  0  0  0  0
  -31.4717  -12.4179   19.1411 H   0  0  0  0  0  0
  -30.3193  -11.3182   19.8496 H   0  0  0  0  0  0
  -29.7477  -11.7598   17.4395 H   0  0  0  0  0  0
  -29.6661  -13.4741   17.7563 H   0  0  0  0  0  0
  -27.8387  -11.2996   18.8302 H   0  0  0  0  0  0
  -27.3686  -12.6111   17.7809 H   0  0  0  0  0  0
  -27.6862  -14.2502   19.5418 H   0  0  0  0  0  0
  -28.6790  -11.9884   21.3487 H   0  0  0  0  0  0
  -28.4587  -13.6407   21.8510 H   0  0  0  0  0  0
  -25.2768   -9.5671   22.4761 H   0  0  0  0  0  0
  -24.0002   -7.4626   22.7464 H   0  0  0  0  0  0
  -21.0829   -8.8778   19.8964 H   0  0  0  0  0  0
  -22.3698  -10.9676   19.6174 H   0  0  0  0  0  0
  -21.2021   -7.6159   23.9742 H   0  0  0  0  0  0
  -21.1482   -6.0528   25.9092 H   0  0  0  0  0  0
  -22.0590   -2.7615   23.2844 H   0  0  0  0  0  0
  -22.4066  -11.9936   22.4841 H   0  0  0  0  0  0
  -21.1115  -13.1340   22.2592 H   0  0  0  0  0  0
  -24.6580  -15.8396   20.5094 H   0  0  0  0  0  0
  -26.2674  -15.6281   20.0487 H   0  0  0  0  0  0
  -26.7150  -32.5497   23.1152 H   0  0  0  0  0  0
  -25.0168  -33.9773   25.0544 H   0  0  0  0  0  0
  -22.6947  -31.3102   21.4134 H   0  0  0  0  0  0
  -23.3754  -35.9605   23.3325 H   0  0  0  0  0  0
  -24.3583  -36.8886   22.2061 H   0  0  0  0  0  0
  -23.7226  -37.6486   23.6639 H   0  0  0  0  0  0
  -26.0741  -31.5928   20.6150 H   0  0  0  0  0  0
  -26.8226  -30.8581   22.0023 H   0  0  0  0  0  0
  -28.1023  -29.0714   21.1559 H   0  0  0  0  0  0
  -25.9742  -25.9365   19.0640 H   0  0  0  0  0  0
  -23.9584  -27.2913   19.0667 H   0  0  0  0  0  0
  -23.7423  -30.6135   19.4116 H   0  0  0  0  0  0
  -22.7388  -29.2660   19.8577 H   0  0  0  0  0  0
  -25.1292  -36.1951   25.0835 H   0  0  0  0  0  0
  -20.9951  -28.3236   24.1424 H   0  0  0  0  0  0
  -20.5678  -26.2268   23.3601 H   0  0  0  0  0  0
  -21.6627  -26.7447   22.1197 H   0  0  0  0  0  0
  -19.6898  -25.6297   21.1242 H   0  0  0  0  0  0
  -19.6694  -27.3197   20.6746 H   0  0  0  0  0  0
  -17.4192  -26.6687   21.4019 H   0  0  0  0  0  0
  -18.0299  -26.0073   22.9017 H   0  0  0  0  0  0
  -19.7929  -30.7274   24.2254 H   0  0  0  0  0  0
  -17.5013  -31.6272   24.5158 H   0  0  0  0  0  0
  -15.5346  -30.2988   23.7677 H   0  0  0  0  0  0
  -15.8656  -28.0845   22.7050 H   0  0  0  0  0  0
  -24.5930  -30.7086   25.7867 H   0  0  0  0  0  0
  -24.9018  -32.2872   26.5000 H   0  0  0  0  0  0
  -25.8174  -30.8860   27.0237 H   0  0  0  0  0  0
  -26.2915  -29.6770   24.1228 H   0  0  0  0  0  0
  -27.4141  -29.7305   25.4626 H   0  0  0  0  0  0
  -27.8738  -30.4353   23.9310 H   0  0  0  0  0  0
  -27.2667  -33.3633   26.2089 H   0  0  0  0  0  0
  -28.3848  -32.6969   25.0309 H   0  0  0  0  0  0
  -28.0762  -31.8485   26.5396 H   0  0  0  0  0  0
  -28.2613  -38.0082   24.7514 H   0  0  0  0  0  0
  -28.1062  -36.2630   24.6305 H   0  0  0  0  0  0
  -27.2301  -37.1459   25.8875 H   0  0  0  0  0  0
  -20.9319  -29.8730   21.6914 H   0  0  0  0  0  0
  -26.0176  -38.2863   24.1427 H   0  0  0  0  0  0
  -31.4102  -20.6880   21.3168 H   0  0  0  0  0  0
  -32.0308  -16.5672   22.3345 H   0  0  0  0  0  0
  -25.7568  -23.7863   17.7579 H   0  0  0  0  0  0
  -26.1840  -22.2177   17.0621 H   0  0  0  0  0  0
  -27.3686  -23.5239   17.0774 H   0  0  0  0  0  0
  -27.8264  -25.3960   18.5154 H   0  0  0  0  0  0
  -29.5178  -25.5982   18.7634 H   0  0  0  0  0  0
  -29.0916  -22.9120   18.4215 H   0  0  0  0  0  0
  -28.9492  -15.3641   21.0843 H   0  0  0  0  0  0
  -29.2606  -21.8252   21.0820 H   0  0  0  0  0  0
  -29.0454  -19.1527   18.0639 H   0  0  0  0  0  0
  -28.7832  -20.8223   17.6938 H   0  0  0  0  0  0
  1 25  1  0  0  0
  1 30  2  0  0  0
  1 83  1  0  0  0
  2  3  1  0  0  0
  2 25  1  0  0  0
  2 90  1  0  0  0
  2 91  1  0  0  0
  3  4  1  0  0  0
  3 92  1  0  0  0
  3 93  1  0  0  0
  4  5  1  0  0  0
  4 94  1  0  0  0
  4 95  1  0  0  0
  5  6  1  0  0  0
  5 26  1  0  0  0
  5 96  1  0  0  0
  6 25  1  0  0  0
  6 97  1  0  0  0
  6 98  1  0  0  0
  7  8  2  0  0  0
  7 26  1  0  0  0
  7 29  1  0  0  0
  8  9  1  0  0  0
  8 22  1  0  0  0
  9 10  1  0  0  0
  9 27  2  0  0  0
 10 11  2  0  0  0
 10 15  1  0  0  0
 11 12  1  0  0  0
 11 99  1  0  0  0
 12 13  2  0  0  0
 12100  1  0  0  0
 13 14  1  0  0  0
 13 31  1  0  0  0
 14 15  2  0  0  0
 14101  1  0  0  0
 15102  1  0  0  0
 16 17  2  0  0  0
 16 21  1  0  0  0
 16 31  1  0  0  0
 17 18  1  0  0  0
 17103  1  0  0  0
 18 19  2  0  0  0
 18104  1  0  0  0
 19 20  1  0  0  0
 19 24  1  0  0  0
 20 21  2  0  0  0
 20105  1  0  0  0
 21 23  1  0  0  0
 22 28  1  0  0  0
 22 32  2  0  0  0
 26 27  1  0  0  0
 28106  1  0  0  0
 28107  1  0  0  0
 29108  1  0  0  0
 29109  1  0  0  0
 33 34  1  0  0  0
 33 66  1  0  0  0
 33 70  2  0  0  0
 34 36  1  0  0  0
 34 59  1  0  0  0
 34110  1  0  0  0
 35 44  2  0  0  0
 35 45  1  0  0  0
 35 68  1  0  0  0
 36 56  1  0  0  0
 36111  1  0  0  0
 37 39  1  0  0  0
 37 47  1  0  0  0
 37 66  1  0  0  0
 37112  1  0  0  0
 38 43  2  0  0  0
 38 46  1  0  0  0
 38 47  1  0  0  0
 39 64  1  0  0  0
 39 67  2  0  0  0
 40 52  1  0  0  0
 40 53  2  0  0  0
 40 58  1  0  0  0
 41113  1  0  0  0
 41114  1  0  0  0
 41115  1  0  0  0
 41 48  1  0  0  0
 42 43  1  0  0  0
 42 66  1  0  0  0
 42116  1  0  0  0
 42117  1  0  0  0
 43 44  1  0  0  0
 44118  1  0  0  0
 45 46  2  0  0  0
 45119  1  0  0  0
 46120  1  0  0  0
 47121  1  0  0  0
 47122  1  0  0  0
 48 56  1  0  0  0
 48 65  1  0  0  0
 48123  1  0  0  0
 49 50  1  0  0  0
 49 53  1  0  0  0
 49 64  1  0  0  0
 49124  1  0  0  0
 50 51  1  0  0  0
 50125  1  0  0  0
 50126  1  0  0  0
 51 52  1  0  0  0
 51127  1  0  0  0
 51128  1  0  0  0
 52129  1  0  0  0
 52130  1  0  0  0
 53 54  1  0  0  0
 54 55  2  0  0  0
 54131  1  0  0  0
 55 57  1  0  0  0
 55132  1  0  0  0
 56 69  2  0  0  0
 57 58  2  0  0  0
 57133  1  0  0  0
 58134  1  0  0  0
 59 60  1  0  0  0
 59 61  1  0  0  0
 59 62  1  0  0  0
 60135  1  0  0  0
 60136  1  0  0  0
 60137  1  0  0  0
 61138  1  0  0  0
 61139  1  0  0  0
 61140  1  0  0  0
 62141  1  0  0  0
 62142  1  0  0  0
 62143  1  0  0  0
 63 65  1  0  0  0
 63144  1  0  0  0
 63145  1  0  0  0
 63146  1  0  0  0
 64147  1  0  0  0
 65148  1  0  0  0
 68 81  1  0  0  0
 71 73  2  0  0  0
 71 75  1  0  0  0
 71149  1  0  0  0
 72 74  1  0  0  0
 72 75  2  0  0  0
 72150  1  0  0  0
 73 76  1  0  0  0
 73 77  1  0  0  0
 74 76  2  0  0  0
 74 83  1  0  0  0
 75 88  1  0  0  0
 76 89  1  0  0  0
 77 84  1  0  0  0
 77 85  2  0  0  0
 78 80  1  0  0  0
 78 82  1  0  0  0
 78 86  2  0  0  0
 79 81  1  0  0  0
 79 82  1  0  0  0
 79 87  2  0  0  0
 80151  1  0  0  0
 80152  1  0  0  0
 80153  1  0  0  0
 81154  1  0  0  0
 81155  1  0  0  0
 82 84  1  0  0  0
 82156  1  0  0  0
 83157  1  0  0  0
 84158  1  0  0  0
 85159  1  0  0  0
 85160  1  0  0  0
M  CHG  1  85   1
M  ISO  4   1 100  68 101  81 101  83 100
M  END
> <chiral flag>
0

> <version>
0

> <s_m_source_file>
/data/baiqing/PycharmProjects/Reinvent-master-3.2/result/LINK_invent/BTK/process_docking_weight1_custom_product_contain_oxygen_bond_distance_aromatic_linkinvent_7_9_3/rearranged_h_0169.sdf

> <i_m_source_file_index>
82

> <r_mmod_Potential_Energy-OPLS-2005>
-481.987762451172

> <r_mmod_Stretch_Energy-OPLS-2005>
47.5418128967285

> <r_mmod_Bend_Energy-OPLS-2005>
106.011138916016

> <r_mmod_Torsional_Energy-OPLS-2005>
234.343795776367

> <r_mmod_Improper_Torsional_Energy-OPLS-2005>
5.69678211212158

> <r_mmod_Van_der_Waal_Energy-OPLS-2005>
152.407501220703

> <r_mmod_Electrostatic_Energy-OPLS-2005>
-566.8671875

> <r_mmod_Solvation_Energy-OPLS-2005>
-479.951873779297

> <b_mmod_Minimization_Converged-OPLS-2005>
0

> <r_mmod_RMS_Derivative-OPLS-2005>
2.33707547187805

$$$$
82
                    3D
 Structure written by MMmdl.
163172  0  0  1  0            999 V2000
  -30.5900  -14.7174   20.4819 C   0  0  0  0  0  0
  -30.4341  -12.4316   19.4912 C   0  0  0  0  0  0
  -29.5223  -12.5242   18.2458 C   0  0  0  0  0  0
  -28.0391  -12.3625   18.6374 C   0  0  0  0  0  0
  -27.6482  -13.2340   19.8622 C   0  0  2  0  0  0
  -28.6834  -13.1209   21.0029 C   0  0  0  0  0  0
  -25.2507  -13.8214   20.5683 C   0  0  0  0  0  0
  -24.1778  -13.0458   20.9159 C   0  0  0  0  0  0
  -24.6355  -11.6943   20.8695 C   0  0  0  0  0  0
  -23.9048  -10.4314   21.0386 C   0  0  0  0  0  0
  -24.3614   -9.4238   21.9172 C   0  0  0  0  0  0
  -23.6294   -8.2269   22.0750 C   0  0  0  0  0  0
  -22.4278   -8.0281   21.3557 C   0  0  0  0  0  0
  -21.9891   -9.0253   20.4655 C   0  0  0  0  0  0
  -22.7217  -10.2131   20.3057 C   0  0  0  0  0  0
  -21.6847   -6.0735   22.5274 C   0  0  0  0  0  0
  -21.4013   -6.5640   23.8204 C   0  0  0  0  0  0
  -21.3672   -5.6788   24.9170 C   0  0  0  0  0  0
  -21.6047   -4.3052   24.7215 C   0  0  0  0  0  0
  -21.8823   -3.8146   23.4335 C   0  0  0  0  0  0
  -21.9189   -4.6967   22.3399 C   0  0  0  0  0  0
  -22.7798  -13.5244   21.1846 C   0  0  0  0  0  0
  -22.1661   -4.2160   21.0971 F   0  0  0  0  0  0
  -21.5656   -3.4535   25.7737 F   0  0  0  0  0  0
  -29.9969  -13.4743   20.4482 N   0  0  0  0  0  0
  -26.2946  -12.9422   20.3275 N   0  0  0  0  0  0
  -25.9297  -11.6561   20.5692 N   0  0  0  0  0  0
  -22.0454  -12.8225   22.0394 N   0  0  0  0  0  0
  -25.4232  -15.1924   20.4175 N   0  0  0  0  0  0
  -31.7400  -14.8644   20.0562 O   0  0  0  0  0  0
  -21.6659   -6.8864   21.4226 O   0  0  0  0  0  0
  -22.3456  -14.5557   20.6714 O   0  0  0  0  0  0
  -24.6321  -31.8560   23.2007 C   0  0  0  0  0  0
  -25.9156  -32.4745   23.8343 C   0  0  1  0  0  0
  -27.2018  -27.2538   20.1232 C   0  0  0  0  0  0
  -25.5948  -33.8552   24.2256 N   0  0  0  0  0  0
  -23.4277  -30.4846   21.5435 C   0  0  2  0  0  0
  -24.8712  -28.9401   20.1076 C   0  0  0  0  0  0
  -22.7508  -29.4613   22.4882 C   0  0  0  0  0  0
  -18.0294  -28.1398   22.8469 C   0  0  0  0  0  0
  -24.1497  -36.7275   23.2631 C   0  0  0  0  0  0
  -25.9777  -30.7650   21.3895 C   0  0  0  0  0  0
  -26.0465  -29.3931   20.7216 C   0  0  0  0  0  0
  -27.2155  -28.5621   20.7186 C   0  0  0  0  0  0
  -26.0001  -26.8805   19.4749 C   0  0  0  0  0  0
  -24.8546  -27.6928   19.4742 C   0  0  0  0  0  0
  -23.6462  -29.8295   20.1570 C   0  0  0  0  0  0
  -25.4120  -36.3048   24.0311 C   0  0  1  0  0  0
  -20.5904  -28.3711   23.1251 C   0  0  2  0  0  0
  -20.6791  -26.9423   22.5411 C   0  0  0  0  0  0
  -19.5769  -26.6379   21.5215 C   0  0  0  0  0  0
  -18.1942  -26.7937   22.1613 C   0  0  0  0  0  0
  -19.1551  -28.8866   23.2855 C   0  0  0  0  0  0
  -18.9471  -30.1468   23.8873 C   0  0  0  0  0  0
  -17.6472  -30.6587   24.0561 C   0  0  0  0  0  0
  -25.9057  -34.9431   23.5066 C   0  0  0  0  0  0
  -16.5362  -29.9078   23.6352 C   0  0  0  0  0  0
  -16.7281  -28.6512   23.0337 C   0  0  0  0  0  0
  -26.4511  -31.6580   25.0751 C   0  0  0  0  0  0
  -25.3711  -31.3774   26.1461 C   0  0  0  0  0  0
  -27.0382  -30.2970   24.6327 C   0  0  0  0  0  0
  -27.6047  -32.4337   25.7532 C   0  0  0  0  0  0
  -27.5593  -37.1773   24.8438 C   0  0  0  0  0  0
  -21.4211  -29.3048   22.3623 N   0  0  0  0  0  0
  -26.4273  -37.3769   23.9419 N   0  0  0  0  0  0
  -24.6974  -31.0532   22.0989 N   0  0  0  0  0  0
  -23.4199  -28.8141   23.2974 O   0  0  0  0  0  0
  -28.2734  -26.3262   20.1838 O   0  0  0  0  0  0
  -26.5613  -34.8906   22.4630 O   0  0  0  0  0  0
  -23.5475  -32.1382   23.7300 O   0  0  0  0  0  0
  -29.7618  -18.4689   20.7890 C   0  0  0  0  0  0
  -28.9456  -17.1312   19.0463 C   0  0  0  0  0  0
  -29.5817  -17.1001   20.2581 C   0  0  0  0  0  0
  -29.3426  -19.5147   19.9312 C   0  0  0  0  0  0
  -29.0049  -23.6998   20.2902 C   0  0  0  0  0  0
  -31.4689  -21.9328   18.3410 C   0  0  0  0  0  0
  -28.5442  -22.1912   20.5045 C   0  0  0  0  0  0
  -29.5224  -21.1038   19.8485 C   0  0  1  0  0  0
  -31.0009  -21.6555   19.8087 C   0  0  1  0  0  0
  -31.4201  -20.7762   17.3439 C   0  0  0  0  0  0
  -33.4780  -21.2029   20.5661 C   0  0  0  0  0  0
  -27.9340  -24.8602   20.0338 C   0  0  0  0  0  0
  -32.0201  -20.7000   20.4932 C   0  0  0  0  0  0
  -30.2522  -23.9518   20.2799 N   0  0  0  0  0  0
  -29.8401  -15.7997   20.9168 N   0  0  0  0  0  0
  -31.8834  -23.0361   17.9714 O   0  0  0  0  0  0
  -31.1016  -22.8515   20.6387 O   0  0  0  0  0  0
  -28.5833  -18.7654   18.5347 S   0  0  0  0  0  0
  -31.4809  -12.5432   19.2058 H   0  0  0  0  0  0
  -30.3600  -11.4440   19.9494 H   0  0  0  0  0  0
  -29.8017  -11.7653   17.5140 H   0  0  0  0  0  0
  -29.6715  -13.4886   17.7576 H   0  0  0  0  0  0
  -27.8612  -11.3091   18.8550 H   0  0  0  0  0  0
  -27.4008  -12.6071   17.7878 H   0  0  0  0  0  0
  -27.6584  -14.2667   19.5125 H   0  0  0  0  0  0
  -28.6976  -12.1088   21.4140 H   0  0  0  0  0  0
  -28.4133  -13.7716   21.8322 H   0  0  0  0  0  0
  -25.2768   -9.5752   22.4710 H   0  0  0  0  0  0
  -24.0048   -7.4662   22.7452 H   0  0  0  0  0  0
  -21.0849   -8.8753   19.8935 H   0  0  0  0  0  0
  -22.3681  -10.9659   19.6149 H   0  0  0  0  0  0
  -21.1998   -7.6144   23.9708 H   0  0  0  0  0  0
  -21.1494   -6.0521   25.9069 H   0  0  0  0  0  0
  -22.0586   -2.7609   23.2826 H   0  0  0  0  0  0
  -22.4085  -11.9912   22.4803 H   0  0  0  0  0  0
  -21.1061  -13.1214   22.2627 H   0  0  0  0  0  0
  -24.6632  -15.8518   20.5483 H   0  0  0  0  0  0
  -26.2884  -15.6343   20.1331 H   0  0  0  0  0  0
  -26.7225  -32.5396   23.1093 H   0  0  0  0  0  0
  -25.0101  -33.9702   25.0397 H   0  0  0  0  0  0
  -22.7226  -31.3064   21.4030 H   0  0  0  0  0  0
  -23.3774  -35.9587   23.3240 H   0  0  0  0  0  0
  -24.3610  -36.8965   22.2061 H   0  0  0  0  0  0
  -23.7241  -37.6444   23.6715 H   0  0  0  0  0  0
  -26.1332  -31.5356   20.6332 H   0  0  0  0  0  0
  -26.8458  -30.7962   22.0365 H   0  0  0  0  0  0
  -28.1122  -28.8974   21.2198 H   0  0  0  0  0  0
  -25.8977  -25.9350   18.9674 H   0  0  0  0  0  0
  -23.9547  -27.3448   18.9838 H   0  0  0  0  0  0
  -23.7734  -30.6086   19.4043 H   0  0  0  0  0  0
  -22.7649  -29.2652   19.8504 H   0  0  0  0  0  0
  -25.1303  -36.1856   25.0797 H   0  0  0  0  0  0
  -20.9989  -28.3314   24.1374 H   0  0  0  0  0  0
  -20.5712  -26.2316   23.3620 H   0  0  0  0  0  0
  -21.6662  -26.7472   22.1206 H   0  0  0  0  0  0
  -19.6935  -25.6279   21.1269 H   0  0  0  0  0  0
  -19.6711  -27.3175   20.6730 H   0  0  0  0  0  0
  -17.4218  -26.6679   21.4007 H   0  0  0  0  0  0
  -18.0335  -26.0093   22.9021 H   0  0  0  0  0  0
  -19.7939  -30.7306   24.2221 H   0  0  0  0  0  0
  -17.5021  -31.6269   24.5155 H   0  0  0  0  0  0
  -15.5363  -30.2970   23.7699 H   0  0  0  0  0  0
  -15.8677  -28.0842   22.7039 H   0  0  0  0  0  0
  -24.5855  -30.7160   25.7789 H   0  0  0  0  0  0
  -24.8947  -32.2975   26.4862 H   0  0  0  0  0  0
  -25.7990  -30.8950   27.0258 H   0  0  0  0  0  0
  -26.3013  -29.6687   24.1313 H   0  0  0  0  0  0
  -27.3960  -29.7277   25.4919 H   0  0  0  0  0  0
  -27.8940  -30.4194   23.9681 H   0  0  0  0  0  0
  -27.2623  -33.3625   26.2118 H   0  0  0  0  0  0
  -28.3862  -32.6917   25.0368 H   0  0  0  0  0  0
  -28.0729  -31.8469   26.5454 H   0  0  0  0  0  0
  -28.2518  -38.0156   24.7594 H   0  0  0  0  0  0
  -28.1170  -36.2691   24.6103 H   0  0  0  0  0  0
  -27.2335  -37.1238   25.8838 H   0  0  0  0  0  0
  -20.9372  -29.8749   21.6829 H   0  0  0  0  0  0
  -26.0129  -38.2812   24.1485 H   0  0  0  0  0  0
  -30.2461  -18.6316   21.7419 H   0  0  0  0  0  0
  -28.6343  -16.3054   18.4182 H   0  0  0  0  0  0
  -27.5356  -22.0761   20.1062 H   0  0  0  0  0  0
  -28.4702  -22.0167   21.5761 H   0  0  0  0  0  0
  -29.1824  -21.2782   18.8276 H   0  0  0  0  0  0
  -31.6286  -19.8279   17.8378 H   0  0  0  0  0  0
  -32.1596  -20.9174   16.5573 H   0  0  0  0  0  0
  -30.4351  -20.7122   16.8806 H   0  0  0  0  0  0
  -34.1194  -20.4645   21.0464 H   0  0  0  0  0  0
  -33.5597  -22.1225   21.1448 H   0  0  0  0  0  0
  -33.8955  -21.3929   19.5781 H   0  0  0  0  0  0
  -27.0769  -24.6421   20.6733 H   0  0  0  0  0  0
  -27.6021  -24.7012   19.0086 H   0  0  0  0  0  0
  -32.0346  -19.7317   19.9933 H   0  0  0  0  0  0
  -31.6865  -20.5025   21.5118 H   0  0  0  0  0  0
  -29.0679  -15.4939   21.4915 H   0  0  0  0  0  0
  1 25  1  0  0  0
  1 30  2  0  0  0
  1 85  1  0  0  0
  2  3  1  0  0  0
  2 25  1  0  0  0
  2 89  1  0  0  0
  2 90  1  0  0  0
  3  4  1  0  0  0
  3 91  1  0  0  0
  3 92  1  0  0  0
  4  5  1  0  0  0
  4 93  1  0  0  0
  4 94  1  0  0  0
  5  6  1  0  0  0
  5 26  1  0  0  0
  5 95  1  0  0  0
  6 25  1  0  0  0
  6 96  1  0  0  0
  6 97  1  0  0  0
  7  8  2  0  0  0
  7 26  1  0  0  0
  7 29  1  0  0  0
  8  9  1  0  0  0
  8 22  1  0  0  0
  9 10  1  0  0  0
  9 27  2  0  0  0
 10 11  2  0  0  0
 10 15  1  0  0  0
 11 12  1  0  0  0
 11 98  1  0  0  0
 12 13  2  0  0  0
 12 99  1  0  0  0
 13 14  1  0  0  0
 13 31  1  0  0  0
 14 15  2  0  0  0
 14100  1  0  0  0
 15101  1  0  0  0
 16 17  2  0  0  0
 16 21  1  0  0  0
 16 31  1  0  0  0
 17 18  1  0  0  0
 17102  1  0  0  0
 18 19  2  0  0  0
 18103  1  0  0  0
 19 20  1  0  0  0
 19 24  1  0  0  0
 20 21  2  0  0  0
 20104  1  0  0  0
 21 23  1  0  0  0
 22 28  1  0  0  0
 22 32  2  0  0  0
 26 27  1  0  0  0
 28105  1  0  0  0
 28106  1  0  0  0
 29107  1  0  0  0
 29108  1  0  0  0
 33 34  1  0  0  0
 33 66  1  0  0  0
 33 70  2  0  0  0
 34 36  1  0  0  0
 34 59  1  0  0  0
 34109  1  0  0  0
 35 44  2  0  0  0
 35 45  1  0  0  0
 35 68  1  0  0  0
 36 56  1  0  0  0
 36110  1  0  0  0
 37 39  1  0  0  0
 37 47  1  0  0  0
 37 66  1  0  0  0
 37111  1  0  0  0
 38 43  2  0  0  0
 38 46  1  0  0  0
 38 47  1  0  0  0
 39 64  1  0  0  0
 39 67  2  0  0  0
 40 52  1  0  0  0
 40 53  2  0  0  0
 40 58  1  0  0  0
 41112  1  0  0  0
 41113  1  0  0  0
 41114  1  0  0  0
 41 48  1  0  0  0
 42 43  1  0  0  0
 42 66  1  0  0  0
 42115  1  0  0  0
 42116  1  0  0  0
 43 44  1  0  0  0
 44117  1  0  0  0
 45 46  2  0  0  0
 45118  1  0  0  0
 46119  1  0  0  0
 47120  1  0  0  0
 47121  1  0  0  0
 48 56  1  0  0  0
 48 65  1  0  0  0
 48122  1  0  0  0
 49 50  1  0  0  0
 49 53  1  0  0  0
 49 64  1  0  0  0
 49123  1  0  0  0
 50 51  1  0  0  0
 50124  1  0  0  0
 50125  1  0  0  0
 51 52  1  0  0  0
 51126  1  0  0  0
 51127  1  0  0  0
 52128  1  0  0  0
 52129  1  0  0  0
 53 54  1  0  0  0
 54 55  2  0  0  0
 54130  1  0  0  0
 55 57  1  0  0  0
 55131  1  0  0  0
 56 69  2  0  0  0
 57 58  2  0  0  0
 57132  1  0  0  0
 58133  1  0  0  0
 59 60  1  0  0  0
 59 61  1  0  0  0
 59 62  1  0  0  0
 60134  1  0  0  0
 60135  1  0  0  0
 60136  1  0  0  0
 61137  1  0  0  0
 61138  1  0  0  0
 61139  1  0  0  0
 62140  1  0  0  0
 62141  1  0  0  0
 62142  1  0  0  0
 63 65  1  0  0  0
 63143  1  0  0  0
 63144  1  0  0  0
 63145  1  0  0  0
 64146  1  0  0  0
 65147  1  0  0  0
 68 82  1  0  0  0
 71 73  1  0  0  0
 71 74  2  0  0  0
 71148  1  0  0  0
 72 73  2  0  0  0
 72 88  1  0  0  0
 72149  1  0  0  0
 73 85  1  0  0  0
 74 88  1  0  0  0
 74 78  1  0  0  0
 75 77  1  0  0  0
 75 82  1  0  0  0
 75 84  2  0  0  0
 76 80  1  0  0  0
 76 86  2  0  0  0
 76 79  1  0  0  0
 77 78  1  0  0  0
 77150  1  0  0  0
 77151  1  0  0  0
 78 79  1  0  0  0
 78152  1  0  0  0
 79 83  1  0  0  0
 79 87  1  0  0  0
 80153  1  0  0  0
 80154  1  0  0  0
 80155  1  0  0  0
 81 83  1  0  0  0
 81156  1  0  0  0
 81157  1  0  0  0
 81158  1  0  0  0
 82159  1  0  0  0
 82160  1  0  0  0
 83161  1  0  0  0
 83162  1  0  0  0
 84 87  1  0  0  0
 85163  1  0  0  0
M  ISO  4   1 100  68 101  82 101  85 100
M  END
> <chiral flag>
0

> <version>
0

> <s_m_source_file>
/data/baiqing/PycharmProjects/Reinvent-master-3.2/result/LINK_invent/BTK/process_docking_weight1_custom_product_contain_oxygen_bond_distance_aromatic_linkinvent_7_9_3/rearranged_h_0169.sdf

> <i_m_source_file_index>
83

> <r_mmod_Potential_Energy-OPLS-2005>
339.659423828125

> <r_mmod_Stretch_Energy-OPLS-2005>
133.351837158203

> <r_mmod_Bend_Energy-OPLS-2005>
212.555267333984

> <r_mmod_Torsional_Energy-OPLS-2005>
266.242980957031

> <r_mmod_Improper_Torsional_Energy-OPLS-2005>
6.46389293670654

> <r_mmod_Van_der_Waal_Energy-OPLS-2005>
139.772552490234

> <r_mmod_Electrostatic_Energy-OPLS-2005>
-242.024490356445

> <r_mmod_Solvation_Energy-OPLS-2005>
-260.292510986328

> <b_mmod_Minimization_Converged-OPLS-2005>
0

> <r_mmod_RMS_Derivative-OPLS-2005>
3.3116934299469

$$$$
83
                    3D
 Structure written by MMmdl.
163171  0  0  1  0            999 V2000
  -30.6763  -14.5027   20.5011 C   0  0  0  0  0  0
  -30.4197  -12.3116   19.4244 C   0  0  0  0  0  0
  -29.4968  -12.5005   18.2013 C   0  0  0  0  0  0
  -28.0171  -12.3578   18.6101 C   0  0  0  0  0  0
  -27.6534  -13.2099   19.8547 C   0  0  2  0  0  0
  -28.6946  -13.0156   20.9816 C   0  0  0  0  0  0
  -25.2558  -13.8151   20.5609 C   0  0  0  0  0  0
  -24.1834  -13.0430   20.9153 C   0  0  0  0  0  0
  -24.6377  -11.6903   20.8701 C   0  0  0  0  0  0
  -23.9017  -10.4294   21.0386 C   0  0  0  0  0  0
  -24.3580   -9.4210   21.9152 C   0  0  0  0  0  0
  -23.6277   -8.2229   22.0718 C   0  0  0  0  0  0
  -22.4248   -8.0249   21.3527 C   0  0  0  0  0  0
  -21.9876   -9.0225   20.4633 C   0  0  0  0  0  0
  -22.7187  -10.2115   20.3042 C   0  0  0  0  0  0
  -21.6844   -6.0704   22.5273 C   0  0  0  0  0  0
  -21.3996   -6.5613   23.8206 C   0  0  0  0  0  0
  -21.3671   -5.6773   24.9181 C   0  0  0  0  0  0
  -21.6062   -4.3034   24.7226 C   0  0  0  0  0  0
  -21.8833   -3.8120   23.4352 C   0  0  0  0  0  0
  -21.9185   -4.6939   22.3402 C   0  0  0  0  0  0
  -22.7865  -13.5235   21.1836 C   0  0  0  0  0  0
  -22.1679   -4.2125   21.0982 F   0  0  0  0  0  0
  -21.5624   -3.4530   25.7751 F   0  0  0  0  0  0
  -30.0270  -13.3091   20.4328 N   0  0  0  0  0  0
  -26.2971  -12.9319   20.3203 N   0  0  0  0  0  0
  -25.9292  -11.6476   20.5654 N   0  0  0  0  0  0
  -22.0492  -12.8240   22.0398 N   0  0  0  0  0  0
  -25.4295  -15.1874   20.4019 N   0  0  0  0  0  0
  -31.8392  -14.6495   20.1117 O   0  0  0  0  0  0
  -21.6621   -6.8843   21.4232 O   0  0  0  0  0  0
  -22.3573  -14.5546   20.6692 O   0  0  0  0  0  0
  -24.6165  -31.8681   23.2062 C   0  0  0  0  0  0
  -25.9049  -32.4814   23.8364 C   0  0  1  0  0  0
  -27.2379  -27.4143   20.1099 C   0  0  0  0  0  0
  -25.5907  -33.8595   24.2308 N   0  0  0  0  0  0
  -23.4063  -30.4902   21.5469 C   0  0  2  0  0  0
  -24.8550  -28.9451   20.1196 C   0  0  0  0  0  0
  -22.7429  -29.4665   22.4974 C   0  0  0  0  0  0
  -18.0284  -28.1374   22.8500 C   0  0  0  0  0  0
  -24.1503  -36.7294   23.2642 C   0  0  0  0  0  0
  -25.9370  -30.8259   21.3628 C   0  0  0  0  0  0
  -26.0148  -29.4568   20.7155 C   0  0  0  0  0  0
  -27.2126  -28.6996   20.7034 C   0  0  0  0  0  0
  -26.0631  -26.9202   19.5068 C   0  0  0  0  0  0
  -24.8736  -27.6757   19.5136 C   0  0  0  0  0  0
  -23.6175  -29.8157   20.1632 C   0  0  0  0  0  0
  -25.4117  -36.3091   24.0351 C   0  0  1  0  0  0
  -20.5887  -28.3653   23.1323 C   0  0  2  0  0  0
  -20.6771  -26.9369   22.5469 C   0  0  0  0  0  0
  -19.5766  -26.6378   21.5244 C   0  0  0  0  0  0
  -18.1921  -26.7932   22.1612 C   0  0  0  0  0  0
  -19.1534  -28.8836   23.2912 C   0  0  0  0  0  0
  -18.9469  -30.1452   23.8908 C   0  0  0  0  0  0
  -17.6469  -30.6566   24.0581 C   0  0  0  0  0  0
  -25.9044  -34.9471   23.5125 C   0  0  0  0  0  0
  -16.5354  -29.9076   23.6333 C   0  0  0  0  0  0
  -16.7286  -28.6502   23.0338 C   0  0  0  0  0  0
  -26.4495  -31.6594   25.0684 C   0  0  0  0  0  0
  -25.3780  -31.3774   26.1468 C   0  0  0  0  0  0
  -27.0277  -30.3012   24.6074 C   0  0  0  0  0  0
  -27.6114  -32.4303   25.7386 C   0  0  0  0  0  0
  -27.5601  -37.1795   24.8453 C   0  0  0  0  0  0
  -21.4163  -29.3025   22.3728 N   0  0  0  0  0  0
  -26.4303  -37.3780   23.9414 N   0  0  0  0  0  0
  -24.6709  -31.0768   22.0958 N   0  0  0  0  0  0
  -23.4206  -28.8209   23.3011 O   0  0  0  0  0  0
  -28.3925  -26.6582   20.0759 O   0  0  0  0  0  0
  -26.5595  -34.8940   22.4677 O   0  0  0  0  0  0
  -23.5350  -32.1436   23.7453 O   0  0  0  0  0  0
  -30.2733  -19.3454   18.7927 C   0  0  0  0  0  0
  -30.2507  -16.9097   18.7411 C   0  0  0  0  0  0
  -30.0256  -19.3411   20.1845 C   0  0  0  0  0  0
  -30.0331  -16.8562   20.1399 C   0  0  0  0  0  0
  -30.3783  -18.1422   18.0758 C   0  0  0  0  0  0
  -29.8999  -18.0824   20.8519 C   0  0  0  0  0  0
  -30.0114  -20.6497   20.8858 C   0  0  0  0  0  0
  -31.9761  -24.5229   21.2856 C   0  0  0  0  0  0
  -28.6886  -24.1705   20.1789 C   0  0  0  0  0  0
  -33.3982  -24.9193   20.9128 C   0  0  0  0  0  0
  -31.1828  -23.7098   20.2560 C   0  0  0  0  0  0
  -28.3996  -25.4958   20.9345 C   0  0  0  0  0  0
  -29.7847  -23.2124   20.7349 C   0  0  2  0  0  0
  -29.9200  -15.5811   20.8012 N   0  0  0  0  0  0
  -29.5708  -21.7928   20.2967 N   0  0  0  0  0  0
  -30.5295  -20.7521   22.1138 N   0  3  0  0  0  0
  -31.4979  -24.8437   22.3745 O   0  0  0  0  0  0
  -28.0451  -23.8786   19.1655 O   0  0  0  0  0  0
  -30.6263  -18.1698   16.7441 F   0  0  0  0  0  0
  -29.6906  -18.0410   22.1911 F   0  0  0  0  0  0
  -31.4661  -12.4011   19.1254 H   0  0  0  0  0  0
  -30.3084  -11.3034   19.8276 H   0  0  0  0  0  0
  -29.7443  -11.7711   17.4287 H   0  0  0  0  0  0
  -29.6648  -13.4810   17.7519 H   0  0  0  0  0  0
  -27.8325  -11.3043   18.8175 H   0  0  0  0  0  0
  -27.3659  -12.6146   17.7727 H   0  0  0  0  0  0
  -27.6896  -14.2517   19.5356 H   0  0  0  0  0  0
  -28.6677  -11.9861   21.3421 H   0  0  0  0  0  0
  -28.4574  -13.6415   21.8429 H   0  0  0  0  0  0
  -25.2739   -9.5708   22.4683 H   0  0  0  0  0  0
  -24.0015   -7.4630   22.7436 H   0  0  0  0  0  0
  -21.0785   -8.8734   19.8976 H   0  0  0  0  0  0
  -22.3619  -10.9628   19.6137 H   0  0  0  0  0  0
  -21.1981   -7.6114   23.9705 H   0  0  0  0  0  0
  -21.1482   -6.0494   25.9081 H   0  0  0  0  0  0
  -22.0599   -2.7575   23.2851 H   0  0  0  0  0  0
  -22.4101  -11.9939   22.4849 H   0  0  0  0  0  0
  -21.1105  -13.1276   22.2560 H   0  0  0  0  0  0
  -24.6569  -15.8365   20.4884 H   0  0  0  0  0  0
  -26.2652  -15.6126   20.0218 H   0  0  0  0  0  0
  -26.7100  -32.5543   23.1110 H   0  0  0  0  0  0
  -25.0113  -33.9730   25.0493 H   0  0  0  0  0  0
  -22.6992  -31.3104   21.4033 H   0  0  0  0  0  0
  -23.3772  -35.9616   23.3305 H   0  0  0  0  0  0
  -24.3609  -36.8909   22.2056 H   0  0  0  0  0  0
  -23.7254  -37.6504   23.6646 H   0  0  0  0  0  0
  -26.0568  -31.5885   20.5922 H   0  0  0  0  0  0
  -26.8210  -30.8768   21.9870 H   0  0  0  0  0  0
  -28.1106  -29.0919   21.1609 H   0  0  0  0  0  0
  -26.0708  -25.9498   19.0295 H   0  0  0  0  0  0
  -23.9781  -27.2804   19.0527 H   0  0  0  0  0  0
  -23.7344  -30.5858   19.3991 H   0  0  0  0  0  0
  -22.7404  -29.2393   19.8657 H   0  0  0  0  0  0
  -25.1302  -36.1945   25.0848 H   0  0  0  0  0  0
  -21.0002  -28.3219   24.1441 H   0  0  0  0  0  0
  -20.5642  -26.2268   23.3672 H   0  0  0  0  0  0
  -21.6650  -26.7400   22.1296 H   0  0  0  0  0  0
  -19.6921  -25.6304   21.1249 H   0  0  0  0  0  0
  -19.6704  -27.3222   20.6799 H   0  0  0  0  0  0
  -17.4239  -26.6772   21.3940 H   0  0  0  0  0  0
  -18.0228  -26.0037   22.8960 H   0  0  0  0  0  0
  -19.7942  -30.7279   24.2245 H   0  0  0  0  0  0
  -17.5019  -31.6232   24.5209 H   0  0  0  0  0  0
  -15.5346  -30.2977   23.7649 H   0  0  0  0  0  0
  -15.8700  -28.0839   22.6998 H   0  0  0  0  0  0
  -24.5904  -30.7152   25.7863 H   0  0  0  0  0  0
  -24.9025  -32.2969   26.4902 H   0  0  0  0  0  0
  -25.8149  -30.8968   27.0231 H   0  0  0  0  0  0
  -26.2770  -29.6757   24.1232 H   0  0  0  0  0  0
  -27.4135  -29.7276   25.4513 H   0  0  0  0  0  0
  -27.8598  -30.4297   23.9142 H   0  0  0  0  0  0
  -27.2776  -33.3600   26.2012 H   0  0  0  0  0  0
  -28.3862  -32.6881   25.0146 H   0  0  0  0  0  0
  -28.0864  -31.8407   26.5243 H   0  0  0  0  0  0
  -28.2657  -38.0067   24.7481 H   0  0  0  0  0  0
  -28.1071  -36.2606   24.6270 H   0  0  0  0  0  0
  -27.2349  -37.1452   25.8873 H   0  0  0  0  0  0
  -20.9324  -29.8731   21.6938 H   0  0  0  0  0  0
  -26.0199  -38.2870   24.1394 H   0  0  0  0  0  0
  -30.4171  -20.2720   18.2574 H   0  0  0  0  0  0
  -30.3341  -16.0073   18.1549 H   0  0  0  0  0  0
  -33.3905  -25.7224   20.1758 H   0  0  0  0  0  0
  -33.9337  -24.0695   20.4881 H   0  0  0  0  0  0
  -33.9420  -25.2638   21.7925 H   0  0  0  0  0  0
  -31.8028  -22.8693   19.9438 H   0  0  0  0  0  0
  -31.0796  -24.3415   19.3700 H   0  0  0  0  0  0
  -29.1597  -25.6407   21.7005 H   0  0  0  0  0  0
  -27.4462  -25.3955   21.4532 H   0  0  0  0  0  0
  -29.7260  -23.2345   21.8239 H   0  0  0  0  0  0
  -29.0657  -15.4133   21.3122 H   0  0  0  0  0  0
  -29.0285  -21.6966   19.4444 H   0  0  0  0  0  0
  -30.7865  -19.9091   22.6042 H   0  0  0  0  0  0
  -30.5287  -21.6237   22.6179 H   0  0  0  0  0  0
  1 25  1  0  0  0
  1 30  2  0  0  0
  1 84  1  0  0  0
  2  3  1  0  0  0
  2 25  1  0  0  0
  2 91  1  0  0  0
  2 92  1  0  0  0
  3  4  1  0  0  0
  3 93  1  0  0  0
  3 94  1  0  0  0
  4  5  1  0  0  0
  4 95  1  0  0  0
  4 96  1  0  0  0
  5  6  1  0  0  0
  5 26  1  0  0  0
  5 97  1  0  0  0
  6 25  1  0  0  0
  6 98  1  0  0  0
  6 99  1  0  0  0
  7  8  2  0  0  0
  7 26  1  0  0  0
  7 29  1  0  0  0
  8  9  1  0  0  0
  8 22  1  0  0  0
  9 10  1  0  0  0
  9 27  2  0  0  0
 10 11  2  0  0  0
 10 15  1  0  0  0
 11 12  1  0  0  0
 11100  1  0  0  0
 12 13  2  0  0  0
 12101  1  0  0  0
 13 14  1  0  0  0
 13 31  1  0  0  0
 14 15  2  0  0  0
 14102  1  0  0  0
 15103  1  0  0  0
 16 17  2  0  0  0
 16 21  1  0  0  0
 16 31  1  0  0  0
 17 18  1  0  0  0
 17104  1  0  0  0
 18 19  2  0  0  0
 18105  1  0  0  0
 19 20  1  0  0  0
 19 24  1  0  0  0
 20 21  2  0  0  0
 20106  1  0  0  0
 21 23  1  0  0  0
 22 28  1  0  0  0
 22 32  2  0  0  0
 26 27  1  0  0  0
 28107  1  0  0  0
 28108  1  0  0  0
 29109  1  0  0  0
 29110  1  0  0  0
 33 34  1  0  0  0
 33 66  1  0  0  0
 33 70  2  0  0  0
 34 36  1  0  0  0
 34 59  1  0  0  0
 34111  1  0  0  0
 35 44  2  0  0  0
 35 45  1  0  0  0
 35 68  1  0  0  0
 36 56  1  0  0  0
 36112  1  0  0  0
 37 39  1  0  0  0
 37 47  1  0  0  0
 37 66  1  0  0  0
 37113  1  0  0  0
 38 43  2  0  0  0
 38 46  1  0  0  0
 38 47  1  0  0  0
 39 64  1  0  0  0
 39 67  2  0  0  0
 40 52  1  0  0  0
 40 53  2  0  0  0
 40 58  1  0  0  0
 41114  1  0  0  0
 41115  1  0  0  0
 41116  1  0  0  0
 41 48  1  0  0  0
 42 43  1  0  0  0
 42 66  1  0  0  0
 42117  1  0  0  0
 42118  1  0  0  0
 43 44  1  0  0  0
 44119  1  0  0  0
 45 46  2  0  0  0
 45120  1  0  0  0
 46121  1  0  0  0
 47122  1  0  0  0
 47123  1  0  0  0
 48 56  1  0  0  0
 48 65  1  0  0  0
 48124  1  0  0  0
 49 50  1  0  0  0
 49 53  1  0  0  0
 49 64  1  0  0  0
 49125  1  0  0  0
 50 51  1  0  0  0
 50126  1  0  0  0
 50127  1  0  0  0
 51 52  1  0  0  0
 51128  1  0  0  0
 51129  1  0  0  0
 52130  1  0  0  0
 52131  1  0  0  0
 53 54  1  0  0  0
 54 55  2  0  0  0
 54132  1  0  0  0
 55 57  1  0  0  0
 55133  1  0  0  0
 56 69  2  0  0  0
 57 58  2  0  0  0
 57134  1  0  0  0
 58135  1  0  0  0
 59 60  1  0  0  0
 59 61  1  0  0  0
 59 62  1  0  0  0
 60136  1  0  0  0
 60137  1  0  0  0
 60138  1  0  0  0
 61139  1  0  0  0
 61140  1  0  0  0
 61141  1  0  0  0
 62142  1  0  0  0
 62143  1  0  0  0
 62144  1  0  0  0
 63 65  1  0  0  0
 63145  1  0  0  0
 63146  1  0  0  0
 63147  1  0  0  0
 64148  1  0  0  0
 65149  1  0  0  0
 68 82  1  0  0  0
 71 73  2  0  0  0
 71 75  1  0  0  0
 71150  1  0  0  0
 72 74  1  0  0  0
 72 75  2  0  0  0
 72151  1  0  0  0
 73 76  1  0  0  0
 73 77  1  0  0  0
 74 76  2  0  0  0
 74 84  1  0  0  0
 75 89  1  0  0  0
 76 90  1  0  0  0
 77 85  1  0  0  0
 77 86  2  0  0  0
 78 80  1  0  0  0
 78 81  1  0  0  0
 78 87  2  0  0  0
 79 82  1  0  0  0
 79 83  1  0  0  0
 79 88  2  0  0  0
 80152  1  0  0  0
 80153  1  0  0  0
 80154  1  0  0  0
 81155  1  0  0  0
 81156  1  0  0  0
 81 83  1  0  0  0
 82157  1  0  0  0
 82158  1  0  0  0
 83 85  1  0  0  0
 83159  1  0  0  0
 84160  1  0  0  0
 85161  1  0  0  0
 86162  1  0  0  0
 86163  1  0  0  0
M  CHG  1  86   1
M  ISO  4   1 100  68 101  82 101  84 100
M  END
> <chiral flag>
0

> <version>
0

> <s_m_source_file>
/data/baiqing/PycharmProjects/Reinvent-master-3.2/result/LINK_invent/BTK/process_docking_weight1_custom_product_contain_oxygen_bond_distance_aromatic_linkinvent_7_9_3/rearranged_h_0169.sdf

> <i_m_source_file_index>
84

> <r_mmod_Potential_Energy-OPLS-2005>
-373.646118164062

> <r_mmod_Stretch_Energy-OPLS-2005>
46.7276268005371

> <r_mmod_Bend_Energy-OPLS-2005>
95.5381698608398

> <r_mmod_Torsional_Energy-OPLS-2005>
271.854217529297

> <r_mmod_Improper_Torsional_Energy-OPLS-2005>
7.5932412147522

> <r_mmod_Van_der_Waal_Energy-OPLS-2005>
147.309677124023

> <r_mmod_Electrostatic_Energy-OPLS-2005>
-501.8994140625

> <r_mmod_Solvation_Energy-OPLS-2005>
-458.539703369141

> <b_mmod_Minimization_Converged-OPLS-2005>
0

> <r_mmod_RMS_Derivative-OPLS-2005>
3.92597341537476

$$$$
84
                    3D
 Structure written by MMmdl.
167175  0  0  1  0            999 V2000
  -30.6788  -14.5595   20.5280 C   0  0  0  0  0  0
  -30.4222  -12.3472   19.4480 C   0  0  0  0  0  0
  -29.5010  -12.4966   18.2197 C   0  0  0  0  0  0
  -28.0229  -12.3489   18.6296 C   0  0  0  0  0  0
  -27.6535  -13.2145   19.8640 C   0  0  2  0  0  0
  -28.6953  -13.0584   20.9952 C   0  0  0  0  0  0
  -25.2561  -13.8175   20.5674 C   0  0  0  0  0  0
  -24.1827  -13.0441   20.9181 C   0  0  0  0  0  0
  -24.6392  -11.6912   20.8737 C   0  0  0  0  0  0
  -23.9059  -10.4295   21.0406 C   0  0  0  0  0  0
  -24.3611   -9.4212   21.9184 C   0  0  0  0  0  0
  -23.6287   -8.2250   22.0759 C   0  0  0  0  0  0
  -22.4274   -8.0285   21.3544 C   0  0  0  0  0  0
  -21.9908   -9.0256   20.4646 C   0  0  0  0  0  0
  -22.7234  -10.2134   20.3053 C   0  0  0  0  0  0
  -21.6850   -6.0734   22.5276 C   0  0  0  0  0  0
  -21.4018   -6.5638   23.8212 C   0  0  0  0  0  0
  -21.3660   -5.6789   24.9170 C   0  0  0  0  0  0
  -21.6042   -4.3053   24.7224 C   0  0  0  0  0  0
  -21.8817   -3.8143   23.4347 C   0  0  0  0  0  0
  -21.9197   -4.6960   22.3399 C   0  0  0  0  0  0
  -22.7851  -13.5237   21.1835 C   0  0  0  0  0  0
  -22.1658   -4.2145   21.0981 F   0  0  0  0  0  0
  -21.5627   -3.4542   25.7737 F   0  0  0  0  0  0
  -30.0166  -13.3692   20.4307 N   0  0  0  0  0  0
  -26.2988  -12.9352   20.3315 N   0  0  0  0  0  0
  -25.9318  -11.6506   20.5752 N   0  0  0  0  0  0
  -22.0487  -12.8239   22.0392 N   0  0  0  0  0  0
  -25.4286  -15.1898   20.4071 N   0  0  0  0  0  0
  -31.8338  -14.6796   20.1102 O   0  0  0  0  0  0
  -21.6643   -6.8880   21.4241 O   0  0  0  0  0  0
  -22.3541  -14.5544   20.6681 O   0  0  0  0  0  0
  -24.6193  -31.8637   23.2067 C   0  0  0  0  0  0
  -25.9077  -32.4801   23.8367 C   0  0  1  0  0  0
  -27.2323  -27.3906   20.1081 C   0  0  0  0  0  0
  -25.5933  -33.8598   24.2312 N   0  0  0  0  0  0
  -23.4099  -30.4852   21.5477 C   0  0  2  0  0  0
  -24.8583  -28.9419   20.1186 C   0  0  0  0  0  0
  -22.7435  -29.4631   22.4978 C   0  0  0  0  0  0
  -18.0266  -28.1380   22.8481 C   0  0  0  0  0  0
  -24.1489  -36.7299   23.2642 C   0  0  0  0  0  0
  -25.9423  -30.8169   21.3644 C   0  0  0  0  0  0
  -26.0220  -29.4460   20.7153 C   0  0  0  0  0  0
  -27.2151  -28.6783   20.7045 C   0  0  0  0  0  0
  -26.0539  -26.9091   19.5059 C   0  0  0  0  0  0
  -24.8711  -27.6735   19.5107 C   0  0  0  0  0  0
  -23.6226  -29.8144   20.1645 C   0  0  0  0  0  0
  -25.4113  -36.3095   24.0338 C   0  0  1  0  0  0
  -20.5867  -28.3658   23.1310 C   0  0  2  0  0  0
  -20.6758  -26.9395   22.5413 C   0  0  0  0  0  0
  -19.5741  -26.6375   21.5209 C   0  0  0  0  0  0
  -18.1914  -26.7923   22.1611 C   0  0  0  0  0  0
  -19.1524  -28.8836   23.2882 C   0  0  0  0  0  0
  -18.9453  -30.1439   23.8892 C   0  0  0  0  0  0
  -17.6465  -30.6586   24.0554 C   0  0  0  0  0  0
  -25.9043  -34.9463   23.5117 C   0  0  0  0  0  0
  -16.5347  -29.9087   23.6338 C   0  0  0  0  0  0
  -16.7257  -28.6506   23.0352 C   0  0  0  0  0  0
  -26.4489  -31.6600   25.0716 C   0  0  0  0  0  0
  -25.3752  -31.3719   26.1464 C   0  0  0  0  0  0
  -27.0333  -30.3050   24.6105 C   0  0  0  0  0  0
  -27.6049  -32.4324   25.7500 C   0  0  0  0  0  0
  -27.5572  -37.1802   24.8466 C   0  0  0  0  0  0
  -21.4157  -29.3028   22.3728 N   0  0  0  0  0  0
  -26.4292  -37.3785   23.9412 N   0  0  0  0  0  0
  -24.6759  -31.0701   22.0980 N   0  0  0  0  0  0
  -23.4184  -28.8174   23.3034 O   0  0  0  0  0  0
  -28.3672  -26.6003   20.0732 O   0  0  0  0  0  0
  -26.5587  -34.8923   22.4667 O   0  0  0  0  0  0
  -23.5380  -32.1385   23.7455 O   0  0  0  0  0  0
  -31.5404  -18.9625   21.2426 C   0  0  0  0  0  0
  -31.5058  -17.5355   21.2996 C   0  0  0  0  0  0
  -30.3510  -19.5492   20.8959 C   0  0  0  0  0  0
  -30.2938  -16.9699   20.9611 C   0  0  0  0  0  0
  -30.0870  -21.0242   20.7340 C   0  0  0  0  0  0
  -28.4126  -24.0745   20.4939 C   0  0  0  0  0  0
  -28.0222  -20.8249   23.9171 C   0  0  0  0  0  0
  -28.5449  -23.1648   24.6858 C   0  0  0  0  0  0
  -26.1832  -22.3642   24.6004 C   0  0  0  0  0  0
  -28.4092  -25.5365   21.0602 C   0  0  0  0  0  0
  -27.3643  -22.8267   22.4419 C   0  0  0  0  0  0
  -28.6333  -22.9129   21.5404 C   0  0  1  0  0  0
  -27.5504  -22.2921   23.8923 C   0  0  0  0  0  0
  -32.6518  -16.8356   21.6871 N   0  0  0  0  0  0
  -29.9408  -15.6356   20.9211 N   0  0  0  0  0  0
  -28.8701  -21.5447   20.9860 N   0  0  0  0  0  0
  -31.0438  -21.7707   20.5187 O   0  0  0  0  0  0
  -28.2287  -23.8680   19.2889 O   0  0  0  0  0  0
  -29.1442  -18.2886   20.6280 S   0  0  0  0  0  0
  -31.4683  -12.4427   19.1499 H   0  0  0  0  0  0
  -30.3278  -11.3503   19.8815 H   0  0  0  0  0  0
  -29.7556  -11.7511   17.4651 H   0  0  0  0  0  0
  -29.6590  -13.4707   17.7542 H   0  0  0  0  0  0
  -27.8473  -11.2957   18.8516 H   0  0  0  0  0  0
  -27.3728  -12.5929   17.7887 H   0  0  0  0  0  0
  -27.6775  -14.2515   19.5294 H   0  0  0  0  0  0
  -28.6886  -12.0391   21.3841 H   0  0  0  0  0  0
  -28.4510  -13.7011   21.8422 H   0  0  0  0  0  0
  -25.2754   -9.5693   22.4759 H   0  0  0  0  0  0
  -23.9993   -7.4648   22.7487 H   0  0  0  0  0  0
  -21.0838   -8.8771   19.8955 H   0  0  0  0  0  0
  -22.3690  -10.9672   19.6161 H   0  0  0  0  0  0
  -21.2010   -7.6147   23.9711 H   0  0  0  0  0  0
  -21.1481   -6.0523   25.9073 H   0  0  0  0  0  0
  -22.0596   -2.7609   23.2848 H   0  0  0  0  0  0
  -22.4087  -11.9889   22.4774 H   0  0  0  0  0  0
  -21.1108  -13.1278   22.2586 H   0  0  0  0  0  0
  -24.6596  -15.8435   20.5061 H   0  0  0  0  0  0
  -26.2725  -15.6259   20.0576 H   0  0  0  0  0  0
  -26.7155  -32.5506   23.1130 H   0  0  0  0  0  0
  -25.0155  -33.9752   25.0508 H   0  0  0  0  0  0
  -22.7018  -31.3035   21.4044 H   0  0  0  0  0  0
  -23.3753  -35.9628   23.3309 H   0  0  0  0  0  0
  -24.3580  -36.8909   22.2053 H   0  0  0  0  0  0
  -23.7241  -37.6506   23.6652 H   0  0  0  0  0  0
  -26.0555  -31.5807   20.5939 H   0  0  0  0  0  0
  -26.8295  -30.8739   21.9832 H   0  0  0  0  0  0
  -28.1154  -29.0650   21.1617 H   0  0  0  0  0  0
  -26.0540  -25.9372   19.0324 H   0  0  0  0  0  0
  -23.9771  -27.2788   19.0477 H   0  0  0  0  0  0
  -23.7337  -30.5852   19.4012 H   0  0  0  0  0  0
  -22.7456  -29.2354   19.8696 H   0  0  0  0  0  0
  -25.1287  -36.1948   25.0830 H   0  0  0  0  0  0
  -20.9924  -28.3211   24.1445 H   0  0  0  0  0  0
  -20.5665  -26.2265   23.3594 H   0  0  0  0  0  0
  -21.6627  -26.7439   22.1209 H   0  0  0  0  0  0
  -19.6911  -25.6284   21.1246 H   0  0  0  0  0  0
  -19.6703  -27.3173   20.6735 H   0  0  0  0  0  0
  -17.4191  -26.6681   21.4004 H   0  0  0  0  0  0
  -18.0293  -26.0061   22.8997 H   0  0  0  0  0  0
  -19.7941  -30.7238   24.2264 H   0  0  0  0  0  0
  -17.5034  -31.6282   24.5131 H   0  0  0  0  0  0
  -15.5356  -30.2991   23.7677 H   0  0  0  0  0  0
  -15.8653  -28.0832   22.7078 H   0  0  0  0  0  0
  -24.5936  -30.7051   25.7813 H   0  0  0  0  0  0
  -24.8939  -32.2882   26.4889 H   0  0  0  0  0  0
  -25.8105  -30.8916   27.0239 H   0  0  0  0  0  0
  -26.2882  -29.6806   24.1165 H   0  0  0  0  0  0
  -27.4123  -29.7290   25.4559 H   0  0  0  0  0  0
  -27.8703  -30.4389   23.9251 H   0  0  0  0  0  0
  -27.2658  -33.3626   26.2070 H   0  0  0  0  0  0
  -28.3872  -32.6877   25.0342 H   0  0  0  0  0  0
  -28.0699  -31.8456   26.5431 H   0  0  0  0  0  0
  -28.2585  -38.0097   24.7501 H   0  0  0  0  0  0
  -28.1063  -36.2626   24.6302 H   0  0  0  0  0  0
  -27.2283  -37.1460   25.8866 H   0  0  0  0  0  0
  -20.9318  -29.8773   21.6976 H   0  0  0  0  0  0
  -26.0175  -38.2859   24.1416 H   0  0  0  0  0  0
  -32.4341  -19.5268   21.4660 H   0  0  0  0  0  0
  -28.0150  -20.4224   24.9308 H   0  0  0  0  0  0
  -29.0429  -20.7197   23.5496 H   0  0  0  0  0  0
  -27.3800  -20.1867   23.3093 H   0  0  0  0  0  0
  -28.5445  -22.9048   25.7450 H   0  0  0  0  0  0
  -28.2968  -24.2247   24.6131 H   0  0  0  0  0  0
  -29.5706  -23.0419   24.3384 H   0  0  0  0  0  0
  -26.2383  -21.9837   25.6207 H   0  0  0  0  0  0
  -25.4294  -21.7761   24.0756 H   0  0  0  0  0  0
  -25.8154  -23.3899   24.6601 H   0  0  0  0  0  0
  -29.3175  -25.6663   21.6478 H   0  0  0  0  0  0
  -27.5795  -25.6557   21.7572 H   0  0  0  0  0  0
  -26.6016  -22.2379   21.9286 H   0  0  0  0  0  0
  -26.9080  -23.8106   22.5417 H   0  0  0  0  0  0
  -29.4954  -23.2008   22.1409 H   0  0  0  0  0  0
  -33.5312  -17.3258   21.5674 H   0  0  0  0  0  0
  -32.6897  -15.9105   21.2544 H   0  0  0  0  0  0
  -28.9702  -15.4352   21.1038 H   0  0  0  0  0  0
  -28.1139  -20.8868   21.1018 H   0  0  0  0  0  0
  1 25  1  0  0  0
  1 30  2  0  0  0
  1 85  1  0  0  0
  2  3  1  0  0  0
  2 25  1  0  0  0
  2 90  1  0  0  0
  2 91  1  0  0  0
  3  4  1  0  0  0
  3 92  1  0  0  0
  3 93  1  0  0  0
  4  5  1  0  0  0
  4 94  1  0  0  0
  4 95  1  0  0  0
  5  6  1  0  0  0
  5 26  1  0  0  0
  5 96  1  0  0  0
  6 25  1  0  0  0
  6 97  1  0  0  0
  6 98  1  0  0  0
  7  8  2  0  0  0
  7 26  1  0  0  0
  7 29  1  0  0  0
  8  9  1  0  0  0
  8 22  1  0  0  0
  9 10  1  0  0  0
  9 27  2  0  0  0
 10 11  2  0  0  0
 10 15  1  0  0  0
 11 12  1  0  0  0
 11 99  1  0  0  0
 12 13  2  0  0  0
 12100  1  0  0  0
 13 14  1  0  0  0
 13 31  1  0  0  0
 14 15  2  0  0  0
 14101  1  0  0  0
 15102  1  0  0  0
 16 17  2  0  0  0
 16 21  1  0  0  0
 16 31  1  0  0  0
 17 18  1  0  0  0
 17103  1  0  0  0
 18 19  2  0  0  0
 18104  1  0  0  0
 19 20  1  0  0  0
 19 24  1  0  0  0
 20 21  2  0  0  0
 20105  1  0  0  0
 21 23  1  0  0  0
 22 28  1  0  0  0
 22 32  2  0  0  0
 26 27  1  0  0  0
 28106  1  0  0  0
 28107  1  0  0  0
 29108  1  0  0  0
 29109  1  0  0  0
 33 34  1  0  0  0
 33 66  1  0  0  0
 33 70  2  0  0  0
 34 36  1  0  0  0
 34 59  1  0  0  0
 34110  1  0  0  0
 35 44  2  0  0  0
 35 45  1  0  0  0
 35 68  1  0  0  0
 36 56  1  0  0  0
 36111  1  0  0  0
 37 39  1  0  0  0
 37 47  1  0  0  0
 37 66  1  0  0  0
 37112  1  0  0  0
 38 43  2  0  0  0
 38 46  1  0  0  0
 38 47  1  0  0  0
 39 64  1  0  0  0
 39 67  2  0  0  0
 40 52  1  0  0  0
 40 53  2  0  0  0
 40 58  1  0  0  0
 41113  1  0  0  0
 41114  1  0  0  0
 41115  1  0  0  0
 41 48  1  0  0  0
 42 43  1  0  0  0
 42 66  1  0  0  0
 42116  1  0  0  0
 42117  1  0  0  0
 43 44  1  0  0  0
 44118  1  0  0  0
 45 46  2  0  0  0
 45119  1  0  0  0
 46120  1  0  0  0
 47121  1  0  0  0
 47122  1  0  0  0
 48 56  1  0  0  0
 48 65  1  0  0  0
 48123  1  0  0  0
 49 50  1  0  0  0
 49 53  1  0  0  0
 49 64  1  0  0  0
 49124  1  0  0  0
 50 51  1  0  0  0
 50125  1  0  0  0
 50126  1  0  0  0
 51 52  1  0  0  0
 51127  1  0  0  0
 51128  1  0  0  0
 52129  1  0  0  0
 52130  1  0  0  0
 53 54  1  0  0  0
 54 55  2  0  0  0
 54131  1  0  0  0
 55 57  1  0  0  0
 55132  1  0  0  0
 56 69  2  0  0  0
 57 58  2  0  0  0
 57133  1  0  0  0
 58134  1  0  0  0
 59 60  1  0  0  0
 59 61  1  0  0  0
 59 62  1  0  0  0
 60135  1  0  0  0
 60136  1  0  0  0
 60137  1  0  0  0
 61138  1  0  0  0
 61139  1  0  0  0
 61140  1  0  0  0
 62141  1  0  0  0
 62142  1  0  0  0
 62143  1  0  0  0
 63 65  1  0  0  0
 63144  1  0  0  0
 63145  1  0  0  0
 63146  1  0  0  0
 64147  1  0  0  0
 65148  1  0  0  0
 68 80  1  0  0  0
 71 72  1  0  0  0
 71 73  2  0  0  0
 71149  1  0  0  0
 72 74  2  0  0  0
 72 84  1  0  0  0
 73 75  1  0  0  0
 73 89  1  0  0  0
 74 85  1  0  0  0
 74 89  1  0  0  0
 75 86  1  0  0  0
 75 87  2  0  0  0
 76 80  1  0  0  0
 76 82  1  0  0  0
 76 88  2  0  0  0
 77150  1  0  0  0
 77151  1  0  0  0
 77152  1  0  0  0
 77 83  1  0  0  0
 78 83  1  0  0  0
 78153  1  0  0  0
 78154  1  0  0  0
 78155  1  0  0  0
 79 83  1  0  0  0
 79156  1  0  0  0
 79157  1  0  0  0
 79158  1  0  0  0
 80159  1  0  0  0
 80160  1  0  0  0
 81 83  1  0  0  0
 81161  1  0  0  0
 81162  1  0  0  0
 81 82  1  0  0  0
 82 86  1  0  0  0
 82163  1  0  0  0
 84164  1  0  0  0
 84165  1  0  0  0
 85166  1  0  0  0
 86167  1  0  0  0
M  ISO  4   1 100  68 101  80 101  85 100
M  END
> <chiral flag>
0

> <version>
0

> <s_m_source_file>
/data/baiqing/PycharmProjects/Reinvent-master-3.2/result/LINK_invent/BTK/process_docking_weight1_custom_product_contain_oxygen_bond_distance_aromatic_linkinvent_7_9_3/rearranged_h_0169.sdf

> <i_m_source_file_index>
85

> <r_mmod_Potential_Energy-OPLS-2005>
-165.043472290039

> <r_mmod_Stretch_Energy-OPLS-2005>
54.7400207519531

> <r_mmod_Bend_Energy-OPLS-2005>
129.371047973633

> <r_mmod_Torsional_Energy-OPLS-2005>
288.702331542969

> <r_mmod_Improper_Torsional_Energy-OPLS-2005>
12.7324819564819

> <r_mmod_Van_der_Waal_Energy-OPLS-2005>
128.617523193359

> <r_mmod_Electrostatic_Energy-OPLS-2005>
-557.943420410156

> <r_mmod_Solvation_Energy-OPLS-2005>
-245.781784057617

> <b_mmod_Minimization_Converged-OPLS-2005>
0

> <r_mmod_RMS_Derivative-OPLS-2005>
1.34829878807068

$$$$
85
                    3D
 Structure written by MMmdl.
168177  0  0  1  0            999 V2000
  -30.6900  -14.6495   20.5119 C   0  0  0  0  0  0
  -30.4220  -12.4018   19.4527 C   0  0  0  0  0  0
  -29.4984  -12.4717   18.2179 C   0  0  0  0  0  0
  -28.0199  -12.3357   18.6354 C   0  0  0  0  0  0
  -27.6391  -13.2230   19.8508 C   0  0  2  0  0  0
  -28.6893  -13.1362   20.9793 C   0  0  0  0  0  0
  -25.2483  -13.8176   20.5644 C   0  0  0  0  0  0
  -24.1769  -13.0436   20.9173 C   0  0  0  0  0  0
  -24.6349  -11.6912   20.8737 C   0  0  0  0  0  0
  -23.9034  -10.4284   21.0390 C   0  0  0  0  0  0
  -24.3592   -9.4214   21.9180 C   0  0  0  0  0  0
  -23.6297   -8.2222   22.0734 C   0  0  0  0  0  0
  -22.4291   -8.0236   21.3513 C   0  0  0  0  0  0
  -21.9912   -9.0214   20.4631 C   0  0  0  0  0  0
  -22.7201  -10.2117   20.3056 C   0  0  0  0  0  0
  -21.6836   -6.0735   22.5284 C   0  0  0  0  0  0
  -21.3996   -6.5637   23.8219 C   0  0  0  0  0  0
  -21.3645   -5.6782   24.9178 C   0  0  0  0  0  0
  -21.6049   -4.3051   24.7223 C   0  0  0  0  0  0
  -21.8811   -3.8147   23.4337 C   0  0  0  0  0  0
  -21.9173   -4.6964   22.3399 C   0  0  0  0  0  0
  -22.7797  -13.5241   21.1799 C   0  0  0  0  0  0
  -22.1644   -4.2152   21.0973 F   0  0  0  0  0  0
  -21.5671   -3.4527   25.7737 F   0  0  0  0  0  0
  -29.9976  -13.4636   20.3945 N   0  0  0  0  0  0
  -26.2911  -12.9360   20.3301 N   0  0  0  0  0  0
  -25.9285  -11.6519   20.5779 N   0  0  0  0  0  0
  -22.0400  -12.8282   22.0374 N   0  0  0  0  0  0
  -25.4165  -15.1895   20.4026 N   0  0  0  0  0  0
  -31.8717  -14.7114   20.1477 O   0  0  0  0  0  0
  -21.6643   -6.8852   21.4230 O   0  0  0  0  0  0
  -22.3511  -14.5545   20.6632 O   0  0  0  0  0  0
  -24.6264  -31.8584   23.2036 C   0  0  0  0  0  0
  -25.9127  -32.4768   23.8347 C   0  0  1  0  0  0
  -27.2350  -27.3287   20.1073 C   0  0  0  0  0  0
  -25.5949  -33.8563   24.2284 N   0  0  0  0  0  0
  -23.4181  -30.4842   21.5457 C   0  0  2  0  0  0
  -24.8650  -28.9405   20.1093 C   0  0  0  0  0  0
  -22.7454  -29.4633   22.4942 C   0  0  0  0  0  0
  -18.0278  -28.1383   22.8492 C   0  0  0  0  0  0
  -24.1494  -36.7272   23.2639 C   0  0  0  0  0  0
  -25.9567  -30.7948   21.3719 C   0  0  0  0  0  0
  -26.0316  -29.4225   20.7144 C   0  0  0  0  0  0
  -27.2114  -28.6241   20.7104 C   0  0  0  0  0  0
  -26.0360  -26.8906   19.4941 C   0  0  0  0  0  0
  -24.8689  -27.6794   19.4961 C   0  0  0  0  0  0
  -23.6315  -29.8181   20.1603 C   0  0  0  0  0  0
  -25.4119  -36.3066   24.0331 C   0  0  1  0  0  0
  -20.5881  -28.3677   23.1297 C   0  0  2  0  0  0
  -20.6773  -26.9406   22.5415 C   0  0  0  0  0  0
  -19.5753  -26.6385   21.5213 C   0  0  0  0  0  0
  -18.1931  -26.7931   22.1620 C   0  0  0  0  0  0
  -19.1530  -28.8847   23.2892 C   0  0  0  0  0  0
  -18.9457  -30.1459   23.8891 C   0  0  0  0  0  0
  -17.6454  -30.6587   24.0563 C   0  0  0  0  0  0
  -25.9048  -34.9433   23.5099 C   0  0  0  0  0  0
  -16.5344  -29.9087   23.6345 C   0  0  0  0  0  0
  -16.7265  -28.6514   23.0355 C   0  0  0  0  0  0
  -26.4530  -31.6560   25.0694 C   0  0  0  0  0  0
  -25.3787  -31.3672   26.1437 C   0  0  0  0  0  0
  -27.0369  -30.2991   24.6121 C   0  0  0  0  0  0
  -27.6092  -32.4282   25.7462 C   0  0  0  0  0  0
  -27.5578  -37.1790   24.8467 C   0  0  0  0  0  0
  -21.4166  -29.3037   22.3681 N   0  0  0  0  0  0
  -26.4288  -37.3767   23.9415 N   0  0  0  0  0  0
  -24.6863  -31.0617   22.0978 N   0  0  0  0  0  0
  -23.4177  -28.8180   23.3027 O   0  0  0  0  0  0
  -28.3828  -26.5231   20.1899 O   0  0  0  0  0  0
  -26.5597  -34.8906   22.4647 O   0  0  0  0  0  0
  -23.5447  -32.1369   23.7393 O   0  0  0  0  0  0
  -28.5697  -18.8064   18.1751 C   0  0  0  0  0  0
  -29.1168  -16.5064   18.6786 C   0  0  0  0  0  0
  -28.6259  -17.4634   17.7811 C   0  0  0  0  0  0
  -29.0078  -19.2225   19.4522 C   0  0  0  0  0  0
  -29.5657  -16.8709   19.9733 C   0  0  0  0  0  0
  -30.2116  -21.6032   19.3171 C   0  0  0  0  0  0
  -29.8352  -23.0868   18.9934 C   0  0  0  0  0  0
  -28.3365  -21.4500   20.9430 C   0  0  0  0  0  0
  -28.9619  -20.7883   19.6904 C   0  0  2  0  0  0
  -27.9512  -22.9711   20.6787 C   0  0  2  0  0  0
  -29.0970  -23.9097   20.1105 C   0  0  1  0  0  0
  -27.2522  -23.5768   21.9092 C   0  0  0  0  0  0
  -30.1319  -24.2715   21.1961 C   0  0  0  0  0  0
  -28.5570  -25.2675   19.4320 C   0  0  0  0  0  0
  -29.5001  -18.2362   20.2969 N   0  3  0  0  0  0
  -28.2114  -17.0865   16.5024 N   0  0  0  0  0  0
  -30.0231  -15.7994   20.8714 N   0  0  0  0  0  0
  -31.4644  -12.5006   19.1442 H   0  0  0  0  0  0
  -30.3466  -11.4209   19.9256 H   0  0  0  0  0  0
  -29.7513  -11.6782   17.5130 H   0  0  0  0  0  0
  -29.6592  -13.4063   17.6815 H   0  0  0  0  0  0
  -27.8483  -11.2883   18.8811 H   0  0  0  0  0  0
  -27.3661  -12.5592   17.7910 H   0  0  0  0  0  0
  -27.6283  -14.2470   19.4881 H   0  0  0  0  0  0
  -28.7060  -12.1332   21.4094 H   0  0  0  0  0  0
  -28.4300  -13.8144   21.7946 H   0  0  0  0  0  0
  -25.2681   -9.5736   22.4825 H   0  0  0  0  0  0
  -23.9995   -7.4630   22.7472 H   0  0  0  0  0  0
  -21.0831   -8.8725   19.8967 H   0  0  0  0  0  0
  -22.3584  -10.9684   19.6231 H   0  0  0  0  0  0
  -21.1994   -7.6145   23.9724 H   0  0  0  0  0  0
  -21.1473   -6.0505   25.9081 H   0  0  0  0  0  0
  -22.0614   -2.7612   23.2827 H   0  0  0  0  0  0
  -22.4011  -12.0018   22.4901 H   0  0  0  0  0  0
  -21.1035  -13.1400   22.2559 H   0  0  0  0  0  0
  -24.6398  -15.8342   20.4972 H   0  0  0  0  0  0
  -26.2630  -15.6421   20.0868 H   0  0  0  0  0  0
  -26.7171  -32.5463   23.1080 H   0  0  0  0  0  0
  -25.0161  -33.9697   25.0479 H   0  0  0  0  0  0
  -22.7144  -31.3066   21.4051 H   0  0  0  0  0  0
  -23.3762  -35.9595   23.3293 H   0  0  0  0  0  0
  -24.3598  -36.8900   22.2054 H   0  0  0  0  0  0
  -23.7236  -37.6470   23.6660 H   0  0  0  0  0  0
  -26.0822  -31.5610   20.6066 H   0  0  0  0  0  0
  -26.8388  -30.8453   21.9969 H   0  0  0  0  0  0
  -28.1043  -28.9899   21.2000 H   0  0  0  0  0  0
  -25.9408  -25.9211   19.0340 H   0  0  0  0  0  0
  -23.9699  -27.2989   19.0299 H   0  0  0  0  0  0
  -23.7447  -30.5937   19.4029 H   0  0  0  0  0  0
  -22.7544  -29.2436   19.8594 H   0  0  0  0  0  0
  -25.1305  -36.1909   25.0823 H   0  0  0  0  0  0
  -20.9969  -28.3248   24.1416 H   0  0  0  0  0  0
  -20.5701  -26.2267   23.3605 H   0  0  0  0  0  0
  -21.6646  -26.7460   22.1195 H   0  0  0  0  0  0
  -19.6916  -25.6301   21.1244 H   0  0  0  0  0  0
  -19.6708  -27.3198   20.6749 H   0  0  0  0  0  0
  -17.4211  -26.6676   21.4017 H   0  0  0  0  0  0
  -18.0333  -26.0074   22.9016 H   0  0  0  0  0  0
  -19.7929  -30.7284   24.2234 H   0  0  0  0  0  0
  -17.5013  -31.6272   24.5157 H   0  0  0  0  0  0
  -15.5354  -30.2984   23.7671 H   0  0  0  0  0  0
  -15.8663  -28.0835   22.7054 H   0  0  0  0  0  0
  -24.5990  -30.6984   25.7782 H   0  0  0  0  0  0
  -24.8955  -32.2819   26.4866 H   0  0  0  0  0  0
  -25.8156  -30.8871   27.0198 H   0  0  0  0  0  0
  -26.2911  -29.6731   24.1208 H   0  0  0  0  0  0
  -27.4153  -29.7263   25.4599 H   0  0  0  0  0  0
  -27.8749  -30.4293   23.9269 H   0  0  0  0  0  0
  -27.2710  -33.3592   26.2015 H   0  0  0  0  0  0
  -28.3907  -32.6806   25.0283 H   0  0  0  0  0  0
  -28.0739  -31.8411   26.5397 H   0  0  0  0  0  0
  -28.2583  -38.0102   24.7537 H   0  0  0  0  0  0
  -28.1085  -36.2632   24.6265 H   0  0  0  0  0  0
  -27.2297  -37.1403   25.8870 H   0  0  0  0  0  0
  -20.9332  -29.8735   21.6886 H   0  0  0  0  0  0
  -26.0169  -38.2835   24.1442 H   0  0  0  0  0  0
  -28.2058  -19.5367   17.4655 H   0  0  0  0  0  0
  -29.1525  -15.4824   18.3476 H   0  0  0  0  0  0
  -30.9572  -21.5460   20.1110 H   0  0  0  0  0  0
  -30.6728  -21.1652   18.4312 H   0  0  0  0  0  0
  -29.2040  -23.0734   18.1028 H   0  0  0  0  0  0
  -30.7374  -23.6165   18.6821 H   0  0  0  0  0  0
  -29.0183  -21.3643   21.7902 H   0  0  0  0  0  0
  -27.4371  -20.8977   21.2179 H   0  0  0  0  0  0
  -28.2317  -21.0807   18.9356 H   0  0  0  0  0  0
  -27.1861  -22.9426   19.9004 H   0  0  0  0  0  0
  -27.9034  -23.5792   22.7827 H   0  0  0  0  0  0
  -26.3558  -23.0141   22.1723 H   0  0  0  0  0  0
  -26.9426  -24.6057   21.7211 H   0  0  0  0  0  0
  -30.5110  -23.3908   21.7133 H   0  0  0  0  0  0
  -29.7076  -24.9351   21.9501 H   0  0  0  0  0  0
  -30.9907  -24.7896   20.7658 H   0  0  0  0  0  0
  -27.7121  -25.0093   18.8045 H   0  0  0  0  0  0
  -29.3109  -25.5619   18.7010 H   0  0  0  0  0  0
  -29.8383  -18.5379   21.2175 H   0  0  0  0  0  0
  -27.6207  -17.7272   15.9845 H   0  0  0  0  0  0
  -27.9601  -16.1169   16.3488 H   0  0  0  0  0  0
  -30.3479  -16.1265   21.7645 H   0  0  0  0  0  0
  1 25  1  0  0  0
  1 30  2  0  0  0
  1 87  1  0  0  0
  2  3  1  0  0  0
  2 25  1  0  0  0
  2 88  1  0  0  0
  2 89  1  0  0  0
  3  4  1  0  0  0
  3 90  1  0  0  0
  3 91  1  0  0  0
  4  5  1  0  0  0
  4 92  1  0  0  0
  4 93  1  0  0  0
  5  6  1  0  0  0
  5 26  1  0  0  0
  5 94  1  0  0  0
  6 25  1  0  0  0
  6 95  1  0  0  0
  6 96  1  0  0  0
  7  8  2  0  0  0
  7 26  1  0  0  0
  7 29  1  0  0  0
  8  9  1  0  0  0
  8 22  1  0  0  0
  9 10  1  0  0  0
  9 27  2  0  0  0
 10 11  2  0  0  0
 10 15  1  0  0  0
 11 12  1  0  0  0
 11 97  1  0  0  0
 12 13  2  0  0  0
 12 98  1  0  0  0
 13 14  1  0  0  0
 13 31  1  0  0  0
 14 15  2  0  0  0
 14 99  1  0  0  0
 15100  1  0  0  0
 16 17  2  0  0  0
 16 21  1  0  0  0
 16 31  1  0  0  0
 17 18  1  0  0  0
 17101  1  0  0  0
 18 19  2  0  0  0
 18102  1  0  0  0
 19 20  1  0  0  0
 19 24  1  0  0  0
 20 21  2  0  0  0
 20103  1  0  0  0
 21 23  1  0  0  0
 22 28  1  0  0  0
 22 32  2  0  0  0
 26 27  1  0  0  0
 28104  1  0  0  0
 28105  1  0  0  0
 29106  1  0  0  0
 29107  1  0  0  0
 33 34  1  0  0  0
 33 66  1  0  0  0
 33 70  2  0  0  0
 34 36  1  0  0  0
 34 59  1  0  0  0
 34108  1  0  0  0
 35 44  2  0  0  0
 35 45  1  0  0  0
 35 68  1  0  0  0
 36 56  1  0  0  0
 36109  1  0  0  0
 37 39  1  0  0  0
 37 47  1  0  0  0
 37 66  1  0  0  0
 37110  1  0  0  0
 38 43  2  0  0  0
 38 46  1  0  0  0
 38 47  1  0  0  0
 39 64  1  0  0  0
 39 67  2  0  0  0
 40 52  1  0  0  0
 40 53  2  0  0  0
 40 58  1  0  0  0
 41111  1  0  0  0
 41112  1  0  0  0
 41113  1  0  0  0
 41 48  1  0  0  0
 42 43  1  0  0  0
 42 66  1  0  0  0
 42114  1  0  0  0
 42115  1  0  0  0
 43 44  1  0  0  0
 44116  1  0  0  0
 45 46  2  0  0  0
 45117  1  0  0  0
 46118  1  0  0  0
 47119  1  0  0  0
 47120  1  0  0  0
 48 56  1  0  0  0
 48 65  1  0  0  0
 48121  1  0  0  0
 49 50  1  0  0  0
 49 53  1  0  0  0
 49 64  1  0  0  0
 49122  1  0  0  0
 50 51  1  0  0  0
 50123  1  0  0  0
 50124  1  0  0  0
 51 52  1  0  0  0
 51125  1  0  0  0
 51126  1  0  0  0
 52127  1  0  0  0
 52128  1  0  0  0
 53 54  1  0  0  0
 54 55  2  0  0  0
 54129  1  0  0  0
 55 57  1  0  0  0
 55130  1  0  0  0
 56 69  2  0  0  0
 57 58  2  0  0  0
 57131  1  0  0  0
 58132  1  0  0  0
 59 60  1  0  0  0
 59 61  1  0  0  0
 59 62  1  0  0  0
 60133  1  0  0  0
 60134  1  0  0  0
 60135  1  0  0  0
 61136  1  0  0  0
 61137  1  0  0  0
 61138  1  0  0  0
 62139  1  0  0  0
 62140  1  0  0  0
 62141  1  0  0  0
 63 65  1  0  0  0
 63142  1  0  0  0
 63143  1  0  0  0
 63144  1  0  0  0
 64145  1  0  0  0
 65146  1  0  0  0
 68 84  1  0  0  0
 71 73  2  0  0  0
 71 74  1  0  0  0
 71147  1  0  0  0
 72 73  1  0  0  0
 72 75  2  0  0  0
 72148  1  0  0  0
 73 86  1  0  0  0
 74 85  2  0  0  0
 74 79  1  0  0  0
 75 85  1  0  0  0
 75 87  1  0  0  0
 76 77  1  0  0  0
 76 79  1  0  0  0
 76149  1  0  0  0
 76150  1  0  0  0
 77 81  1  0  0  0
 77151  1  0  0  0
 77152  1  0  0  0
 78 79  1  0  0  0
 78 80  1  0  0  0
 78153  1  0  0  0
 78154  1  0  0  0
 79155  1  0  0  0
 80 81  1  0  0  0
 80 82  1  0  0  0
 80156  1  0  0  0
 81 83  1  0  0  0
 81 84  1  0  0  0
 82157  1  0  0  0
 82158  1  0  0  0
 82159  1  0  0  0
 83160  1  0  0  0
 83161  1  0  0  0
 83162  1  0  0  0
 84163  1  0  0  0
 84164  1  0  0  0
 85165  1  0  0  0
 86166  1  0  0  0
 86167  1  0  0  0
 87168  1  0  0  0
M  CHG  1  85   1
M  ISO  4   1 100  68 101  84 101  87 100
M  END
> <chiral flag>
0

> <version>
0

> <s_m_source_file>
/data/baiqing/PycharmProjects/Reinvent-master-3.2/result/LINK_invent/BTK/process_docking_weight1_custom_product_contain_oxygen_bond_distance_aromatic_linkinvent_7_9_3/rearranged_h_0169.sdf

> <i_m_source_file_index>
86

> <r_mmod_Potential_Energy-OPLS-2005>
179.550003051758

> <r_mmod_Stretch_Energy-OPLS-2005>
95.8429412841797

> <r_mmod_Bend_Energy-OPLS-2005>
201.385513305664

> <r_mmod_Torsional_Energy-OPLS-2005>
298.416656494141

> <r_mmod_Improper_Torsional_Energy-OPLS-2005>
9.78531169891357

> <r_mmod_Van_der_Waal_Energy-OPLS-2005>
142.965209960938

> <r_mmod_Electrostatic_Energy-OPLS-2005>
-193.961059570312

> <r_mmod_Solvation_Energy-OPLS-2005>
-424.400421142578

> <b_mmod_Minimization_Converged-OPLS-2005>
0

> <r_mmod_RMS_Derivative-OPLS-2005>
2.7434253692627

$$$$
86
                    3D
 Structure written by MMmdl.
156164  0  0  1  0            999 V2000
  -30.5842  -14.8101   20.4528 C   0  0  0  0  0  0
  -30.4410  -12.4993   19.4752 C   0  0  0  0  0  0
  -29.5129  -12.5122   18.2393 C   0  0  0  0  0  0
  -28.0414  -12.3247   18.6580 C   0  0  0  0  0  0
  -27.6392  -13.2355   19.8476 C   0  0  2  0  0  0
  -28.6862  -13.1935   20.9815 C   0  0  0  0  0  0
  -25.2498  -13.8198   20.5706 C   0  0  0  0  0  0
  -24.1795  -13.0439   20.9220 C   0  0  0  0  0  0
  -24.6392  -11.6920   20.8757 C   0  0  0  0  0  0
  -23.9076  -10.4292   21.0416 C   0  0  0  0  0  0
  -24.3628   -9.4202   21.9189 C   0  0  0  0  0  0
  -23.6297   -8.2240   22.0751 C   0  0  0  0  0  0
  -22.4280   -8.0281   21.3543 C   0  0  0  0  0  0
  -21.9920   -9.0258   20.4649 C   0  0  0  0  0  0
  -22.7252  -10.2134   20.3062 C   0  0  0  0  0  0
  -21.6849   -6.0733   22.5277 C   0  0  0  0  0  0
  -21.4010   -6.5638   23.8211 C   0  0  0  0  0  0
  -21.3662   -5.6793   24.9174 C   0  0  0  0  0  0
  -21.6046   -4.3057   24.7224 C   0  0  0  0  0  0
  -21.8823   -3.8147   23.4346 C   0  0  0  0  0  0
  -21.9190   -4.6961   22.3399 C   0  0  0  0  0  0
  -22.7818  -13.5213   21.1882 C   0  0  0  0  0  0
  -22.1662   -4.2149   21.0976 F   0  0  0  0  0  0
  -21.5631   -3.4540   25.7736 F   0  0  0  0  0  0
  -29.9786  -13.5691   20.3932 N   0  0  0  0  0  0
  -26.2931  -12.9416   20.3290 N   0  0  0  0  0  0
  -25.9324  -11.6558   20.5766 N   0  0  0  0  0  0
  -22.0473  -12.8193   22.0436 N   0  0  0  0  0  0
  -25.4177  -15.1925   20.4106 N   0  0  0  0  0  0
  -31.7825  -14.9052   20.1667 O   0  0  0  0  0  0
  -21.6641   -6.8880   21.4242 O   0  0  0  0  0  0
  -22.3502  -14.5519   20.6726 O   0  0  0  0  0  0
  -24.6342  -31.8524   23.1946 C   0  0  0  0  0  0
  -25.9144  -32.4743   23.8313 C   0  0  1  0  0  0
  -27.2218  -27.2233   20.1447 C   0  0  0  0  0  0
  -25.5920  -33.8546   24.2236 N   0  0  0  0  0  0
  -23.4333  -30.4726   21.5384 C   0  0  2  0  0  0
  -24.8842  -28.9095   20.1127 C   0  0  0  0  0  0
  -22.7510  -29.4587   22.4896 C   0  0  0  0  0  0
  -18.0302  -28.1391   22.8504 C   0  0  0  0  0  0
  -24.1487  -36.7270   23.2642 C   0  0  0  0  0  0
  -25.9828  -30.7500   21.3835 C   0  0  0  0  0  0
  -26.0557  -29.3674   20.7300 C   0  0  0  0  0  0
  -27.2271  -28.5369   20.7373 C   0  0  0  0  0  0
  -26.0319  -26.8465   19.4860 C   0  0  0  0  0  0
  -24.8786  -27.6580   19.4782 C   0  0  0  0  0  0
  -23.6569  -29.8021   20.1569 C   0  0  0  0  0  0
  -25.4119  -36.3054   24.0324 C   0  0  1  0  0  0
  -20.5908  -28.3698   23.1277 C   0  0  2  0  0  0
  -20.6785  -26.9416   22.5412 C   0  0  0  0  0  0
  -19.5755  -26.6385   21.5218 C   0  0  0  0  0  0
  -18.1941  -26.7939   22.1630 C   0  0  0  0  0  0
  -19.1558  -28.8861   23.2888 C   0  0  0  0  0  0
  -18.9480  -30.1470   23.8896 C   0  0  0  0  0  0
  -17.6477  -30.6595   24.0572 C   0  0  0  0  0  0
  -25.9061  -34.9429   23.5085 C   0  0  0  0  0  0
  -16.5367  -29.9089   23.6346 C   0  0  0  0  0  0
  -16.7289  -28.6505   23.0373 C   0  0  0  0  0  0
  -26.4503  -31.6583   25.0718 C   0  0  0  0  0  0
  -25.3710  -31.3763   26.1428 C   0  0  0  0  0  0
  -27.0356  -30.2996   24.6225 C   0  0  0  0  0  0
  -27.6038  -32.4345   25.7494 C   0  0  0  0  0  0
  -27.5578  -37.1799   24.8477 C   0  0  0  0  0  0
  -21.4212  -29.3041   22.3648 N   0  0  0  0  0  0
  -26.4294  -37.3753   23.9414 N   0  0  0  0  0  0
  -24.7023  -31.0445   22.0946 N   0  0  0  0  0  0
  -23.4192  -28.8143   23.3020 O   0  0  0  0  0  0
  -28.3039  -26.2992   20.1716 O   0  0  0  0  0  0
  -26.5638  -34.8908   22.4662 O   0  0  0  0  0  0
  -23.5479  -32.1354   23.7216 O   0  0  0  0  0  0
  -31.2224  -18.0120   20.7426 C   0  0  0  0  0  0
  -31.1924  -19.4722   20.6956 C   0  0  0  0  0  0
  -30.0310  -17.3396   20.5837 C   0  0  0  0  0  0
  -29.9445  -20.0591   20.4793 C   0  0  0  0  0  0
  -28.0796  -24.8866   20.3644 C   0  0  0  0  0  0
  -28.9785  -23.8263   20.2168 C   0  0  0  0  0  0
  -28.6564  -22.3481   20.4524 C   0  0  0  0  0  0
  -33.0978  -19.9733   22.2826 C   0  0  0  0  0  0
  -32.4736  -20.2577   20.9033 C   0  0  1  0  0  0
  -29.7180  -21.4582   20.3283 N   0  0  0  0  0  0
  -29.7740  -15.9427   20.6077 N   0  0  0  0  0  0
  -33.4252  -20.0028   19.8087 N   0  3  0  0  0  0
  -27.5334  -21.9369   20.7486 O   0  0  0  0  0  0
  -30.2310  -24.1225   19.8370 O   0  0  0  0  0  0
  -28.8018  -18.6605   20.3921 S   0  0  0  0  0  0
  -31.4775  -12.6435   19.1647 H   0  0  0  0  0  0
  -30.4092  -11.5296   19.9740 H   0  0  0  0  0  0
  -29.8041  -11.7275   17.5394 H   0  0  0  0  0  0
  -29.6241  -13.4573   17.7048 H   0  0  0  0  0  0
  -27.9096  -11.2784   18.9349 H   0  0  0  0  0  0
  -27.3798  -12.4974   17.8084 H   0  0  0  0  0  0
  -27.6238  -14.2517   19.4520 H   0  0  0  0  0  0
  -28.7400  -12.1994   21.4274 H   0  0  0  0  0  0
  -28.4116  -13.8765   21.7873 H   0  0  0  0  0  0
  -25.2777   -9.5668   22.4764 H   0  0  0  0  0  0
  -24.0004   -7.4627   22.7464 H   0  0  0  0  0  0
  -21.0856   -8.8787   19.8952 H   0  0  0  0  0  0
  -22.3723  -10.9676   19.6170 H   0  0  0  0  0  0
  -21.2004   -7.6148   23.9713 H   0  0  0  0  0  0
  -21.1481   -6.0522   25.9077 H   0  0  0  0  0  0
  -22.0598   -2.7608   23.2845 H   0  0  0  0  0  0
  -22.4094  -11.9844   22.4806 H   0  0  0  0  0  0
  -21.1095  -13.1211   22.2670 H   0  0  0  0  0  0
  -24.6469  -15.8427   20.5175 H   0  0  0  0  0  0
  -26.2552  -15.6329   20.0535 H   0  0  0  0  0  0
  -26.7210  -32.5389   23.1047 H   0  0  0  0  0  0
  -25.0072  -33.9683   25.0385 H   0  0  0  0  0  0
  -22.7315  -31.2962   21.3878 H   0  0  0  0  0  0
  -23.3745  -35.9610   23.3321 H   0  0  0  0  0  0
  -24.3565  -36.8862   22.2050 H   0  0  0  0  0  0
  -23.7241  -37.6478   23.6661 H   0  0  0  0  0  0
  -26.1275  -31.5073   20.6115 H   0  0  0  0  0  0
  -26.8580  -30.8005   22.0207 H   0  0  0  0  0  0
  -28.1229  -28.8829   21.2339 H   0  0  0  0  0  0
  -25.9785  -25.8881   18.9903 H   0  0  0  0  0  0
  -23.9856  -27.3041   18.9818 H   0  0  0  0  0  0
  -23.7903  -30.5769   19.4009 H   0  0  0  0  0  0
  -22.7739  -29.2383   19.8494 H   0  0  0  0  0  0
  -25.1307  -36.1888   25.0816 H   0  0  0  0  0  0
  -21.0022  -28.3270   24.1394 H   0  0  0  0  0  0
  -20.5686  -26.2311   23.3618 H   0  0  0  0  0  0
  -21.6656  -26.7439   22.1210 H   0  0  0  0  0  0
  -19.6912  -25.6288   21.1268 H   0  0  0  0  0  0
  -19.6691  -27.3191   20.6749 H   0  0  0  0  0  0
  -17.4212  -26.6712   21.4026 H   0  0  0  0  0  0
  -18.0335  -26.0073   22.9022 H   0  0  0  0  0  0
  -19.7951  -30.7310   24.2245 H   0  0  0  0  0  0
  -17.5024  -31.6282   24.5173 H   0  0  0  0  0  0
  -15.5369  -30.2997   23.7659 H   0  0  0  0  0  0
  -15.8690  -28.0821   22.7093 H   0  0  0  0  0  0
  -24.5877  -30.7111   25.7771 H   0  0  0  0  0  0
  -24.8911  -32.2949   26.4818 H   0  0  0  0  0  0
  -25.8005  -30.8965   27.0229 H   0  0  0  0  0  0
  -26.2956  -29.6733   24.1226 H   0  0  0  0  0  0
  -27.4013  -29.7261   25.4753 H   0  0  0  0  0  0
  -27.8846  -30.4277   23.9504 H   0  0  0  0  0  0
  -27.2631  -33.3659   26.2039 H   0  0  0  0  0  0
  -28.3868  -32.6876   25.0333 H   0  0  0  0  0  0
  -28.0692  -31.8490   26.5433 H   0  0  0  0  0  0
  -28.2615  -38.0075   24.7496 H   0  0  0  0  0  0
  -28.1043  -36.2602   24.6341 H   0  0  0  0  0  0
  -27.2297  -37.1508   25.8878 H   0  0  0  0  0  0
  -20.9395  -29.8746   21.6842 H   0  0  0  0  0  0
  -26.0157  -38.2825   24.1389 H   0  0  0  0  0  0
  -32.1562  -17.4952   20.9114 H   0  0  0  0  0  0
  -27.0615  -24.6886   20.6750 H   0  0  0  0  0  0
  -32.3904  -20.2051   23.0792 H   0  0  0  0  0  0
  -33.9838  -20.5851   22.4525 H   0  0  0  0  0  0
  -33.3895  -18.9297   22.3969 H   0  0  0  0  0  0
  -32.2661  -21.3279   20.8746 H   0  0  0  0  0  0
  -30.5437  -22.0005   20.1132 H   0  0  0  0  0  0
  -28.7989  -15.7046   20.7077 H   0  0  0  0  0  0
  -33.7015  -19.0389   19.7802 H   0  0  0  0  0  0
  -34.2483  -20.5660   19.9227 H   0  0  0  0  0  0
  -33.0088  -20.2406   18.9266 H   0  0  0  0  0  0
  -30.2671  -25.0637   19.7163 H   0  0  0  0  0  0
  1 25  1  0  0  0
  1 30  2  0  0  0
  1 81  1  0  0  0
  2  3  1  0  0  0
  2 25  1  0  0  0
  2 86  1  0  0  0
  2 87  1  0  0  0
  3  4  1  0  0  0
  3 88  1  0  0  0
  3 89  1  0  0  0
  4  5  1  0  0  0
  4 90  1  0  0  0
  4 91  1  0  0  0
  5  6  1  0  0  0
  5 26  1  0  0  0
  5 92  1  0  0  0
  6 25  1  0  0  0
  6 93  1  0  0  0
  6 94  1  0  0  0
  7  8  2  0  0  0
  7 26  1  0  0  0
  7 29  1  0  0  0
  8  9  1  0  0  0
  8 22  1  0  0  0
  9 10  1  0  0  0
  9 27  2  0  0  0
 10 11  2  0  0  0
 10 15  1  0  0  0
 11 12  1  0  0  0
 11 95  1  0  0  0
 12 13  2  0  0  0
 12 96  1  0  0  0
 13 14  1  0  0  0
 13 31  1  0  0  0
 14 15  2  0  0  0
 14 97  1  0  0  0
 15 98  1  0  0  0
 16 17  2  0  0  0
 16 21  1  0  0  0
 16 31  1  0  0  0
 17 18  1  0  0  0
 17 99  1  0  0  0
 18 19  2  0  0  0
 18100  1  0  0  0
 19 20  1  0  0  0
 19 24  1  0  0  0
 20 21  2  0  0  0
 20101  1  0  0  0
 21 23  1  0  0  0
 22 28  1  0  0  0
 22 32  2  0  0  0
 26 27  1  0  0  0
 28102  1  0  0  0
 28103  1  0  0  0
 29104  1  0  0  0
 29105  1  0  0  0
 33 34  1  0  0  0
 33 66  1  0  0  0
 33 70  2  0  0  0
 34 36  1  0  0  0
 34 59  1  0  0  0
 34106  1  0  0  0
 35 44  2  0  0  0
 35 45  1  0  0  0
 35 68  1  0  0  0
 36 56  1  0  0  0
 36107  1  0  0  0
 37 39  1  0  0  0
 37 47  1  0  0  0
 37 66  1  0  0  0
 37108  1  0  0  0
 38 43  2  0  0  0
 38 46  1  0  0  0
 38 47  1  0  0  0
 39 64  1  0  0  0
 39 67  2  0  0  0
 40 52  1  0  0  0
 40 53  2  0  0  0
 40 58  1  0  0  0
 41109  1  0  0  0
 41110  1  0  0  0
 41111  1  0  0  0
 41 48  1  0  0  0
 42 43  1  0  0  0
 42 66  1  0  0  0
 42112  1  0  0  0
 42113  1  0  0  0
 43 44  1  0  0  0
 44114  1  0  0  0
 45 46  2  0  0  0
 45115  1  0  0  0
 46116  1  0  0  0
 47117  1  0  0  0
 47118  1  0  0  0
 48 56  1  0  0  0
 48 65  1  0  0  0
 48119  1  0  0  0
 49 50  1  0  0  0
 49 53  1  0  0  0
 49 64  1  0  0  0
 49120  1  0  0  0
 50 51  1  0  0  0
 50121  1  0  0  0
 50122  1  0  0  0
 51 52  1  0  0  0
 51123  1  0  0  0
 51124  1  0  0  0
 52125  1  0  0  0
 52126  1  0  0  0
 53 54  1  0  0  0
 54 55  2  0  0  0
 54127  1  0  0  0
 55 57  1  0  0  0
 55128  1  0  0  0
 56 69  2  0  0  0
 57 58  2  0  0  0
 57129  1  0  0  0
 58130  1  0  0  0
 59 60  1  0  0  0
 59 61  1  0  0  0
 59 62  1  0  0  0
 60131  1  0  0  0
 60132  1  0  0  0
 60133  1  0  0  0
 61134  1  0  0  0
 61135  1  0  0  0
 61136  1  0  0  0
 62137  1  0  0  0
 62138  1  0  0  0
 62139  1  0  0  0
 63 65  1  0  0  0
 63140  1  0  0  0
 63141  1  0  0  0
 63142  1  0  0  0
 64143  1  0  0  0
 65144  1  0  0  0
 68 75  1  0  0  0
 71 72  1  0  0  0
 71 73  2  0  0  0
 71145  1  0  0  0
 72 74  2  0  0  0
 72 79  1  0  0  0
 73 81  1  0  0  0
 73 85  1  0  0  0
 74 80  1  0  0  0
 74 85  1  0  0  0
 75 76  2  0  0  0
 75146  1  0  0  0
 76 77  1  0  0  0
 76 84  1  0  0  0
 77 80  1  0  0  0
 77 83  2  0  0  0
 78147  1  0  0  0
 78148  1  0  0  0
 78149  1  0  0  0
 78 79  1  0  0  0
 79 82  1  0  0  0
 79150  1  0  0  0
 80151  1  0  0  0
 81152  1  0  0  0
 82153  1  0  0  0
 82154  1  0  0  0
 82155  1  0  0  0
 84156  1  0  0  0
M  CHG  1  82   1
M  ISO  4   1 100  68 101  75 101  81 100
M  END
> <chiral flag>
0

> <version>
0

> <s_m_source_file>
/data/baiqing/PycharmProjects/Reinvent-master-3.2/result/LINK_invent/BTK/process_docking_weight1_custom_product_contain_oxygen_bond_distance_aromatic_linkinvent_7_9_3/rearranged_h_0169.sdf

> <i_m_source_file_index>
87

> <r_mmod_Potential_Energy-OPLS-2005>
-161.307830810547

> <r_mmod_Stretch_Energy-OPLS-2005>
135.167999267578

> <r_mmod_Bend_Energy-OPLS-2005>
193.447906494141

> <r_mmod_Torsional_Energy-OPLS-2005>
198.375991821289

> <r_mmod_Improper_Torsional_Energy-OPLS-2005>
5.22258996963501

> <r_mmod_Van_der_Waal_Energy-OPLS-2005>
116.613296508789

> <r_mmod_Electrostatic_Energy-OPLS-2005>
-391.613372802734

> <r_mmod_Solvation_Energy-OPLS-2005>
-532.059326171875

> <b_mmod_Minimization_Converged-OPLS-2005>
0

> <r_mmod_RMS_Derivative-OPLS-2005>
1.56391620635986

$$$$
87
                    3D
 Structure written by MMmdl.
155163  0  0  1  0            999 V2000
  -30.7306  -14.4223   20.6207 C   0  0  0  0  0  0
  -30.4242  -12.2904   19.4055 C   0  0  0  0  0  0
  -29.4934  -12.5033   18.1940 C   0  0  0  0  0  0
  -28.0128  -12.3738   18.6063 C   0  0  0  0  0  0
  -27.6667  -13.1996   19.8739 C   0  0  2  0  0  0
  -28.7082  -12.9527   20.9888 C   0  0  0  0  0  0
  -25.2617  -13.8139   20.5652 C   0  0  0  0  0  0
  -24.1860  -13.0428   20.9138 C   0  0  0  0  0  0
  -24.6399  -11.6887   20.8696 C   0  0  0  0  0  0
  -23.9040  -10.4288   21.0374 C   0  0  0  0  0  0
  -24.3597   -9.4214   21.9166 C   0  0  0  0  0  0
  -23.6275   -8.2256   22.0766 C   0  0  0  0  0  0
  -22.4264   -8.0282   21.3551 C   0  0  0  0  0  0
  -21.9876   -9.0249   20.4657 C   0  0  0  0  0  0
  -22.7199  -10.2125   20.3041 C   0  0  0  0  0  0
  -21.6849   -6.0729   22.5273 C   0  0  0  0  0  0
  -21.4015   -6.5628   23.8202 C   0  0  0  0  0  0
  -21.3647   -5.6786   24.9161 C   0  0  0  0  0  0
  -21.6031   -4.3048   24.7212 C   0  0  0  0  0  0
  -21.8812   -3.8140   23.4334 C   0  0  0  0  0  0
  -21.9198   -4.6963   22.3396 C   0  0  0  0  0  0
  -22.7888  -13.5248   21.1811 C   0  0  0  0  0  0
  -22.1658   -4.2149   21.0974 F   0  0  0  0  0  0
  -21.5626   -3.4535   25.7722 F   0  0  0  0  0  0
  -30.0438  -13.2612   20.4444 N   0  0  0  0  0  0
  -26.3051  -12.9300   20.3343 N   0  0  0  0  0  0
  -25.9321  -11.6460   20.5720 N   0  0  0  0  0  0
  -22.0515  -12.8263   22.0366 N   0  0  0  0  0  0
  -25.4328  -15.1859   20.4078 N   0  0  0  0  0  0
  -31.8221  -14.6427   20.0908 O   0  0  0  0  0  0
  -21.6634   -6.8871   21.4238 O   0  0  0  0  0  0
  -22.3585  -14.5568   20.6671 O   0  0  0  0  0  0
  -24.6112  -31.8680   23.2079 C   0  0  0  0  0  0
  -25.9013  -32.4822   23.8367 C   0  0  1  0  0  0
  -27.2466  -27.4518   20.0915 C   0  0  0  0  0  0
  -25.5885  -33.8619   24.2309 N   0  0  0  0  0  0
  -23.3989  -30.4894   21.5477 C   0  0  2  0  0  0
  -24.8463  -28.9536   20.1131 C   0  0  0  0  0  0
  -22.7383  -29.4666   22.4996 C   0  0  0  0  0  0
  -18.0281  -28.1381   22.8505 C   0  0  0  0  0  0
  -24.1498  -36.7333   23.2636 C   0  0  0  0  0  0
  -25.9241  -30.8371   21.3574 C   0  0  0  0  0  0
  -26.0019  -29.4714   20.7096 C   0  0  0  0  0  0
  -27.2001  -28.7263   20.6966 C   0  0  0  0  0  0
  -26.0705  -26.9427   19.4894 C   0  0  0  0  0  0
  -24.8753  -27.6877   19.5018 C   0  0  0  0  0  0
  -23.6047  -29.8155   20.1636 C   0  0  0  0  0  0
  -25.4112  -36.3114   24.0337 C   0  0  1  0  0  0
  -20.5866  -28.3659   23.1336 C   0  0  2  0  0  0
  -20.6787  -26.9393   22.5441 C   0  0  0  0  0  0
  -19.5766  -26.6378   21.5238 C   0  0  0  0  0  0
  -18.1929  -26.7950   22.1610 C   0  0  0  0  0  0
  -19.1528  -28.8837   23.2927 C   0  0  0  0  0  0
  -18.9453  -30.1448   23.8937 C   0  0  0  0  0  0
  -17.6451  -30.6592   24.0565 C   0  0  0  0  0  0
  -25.9023  -34.9479   23.5120 C   0  0  0  0  0  0
  -16.5346  -29.9088   23.6335 C   0  0  0  0  0  0
  -16.7269  -28.6504   23.0365 C   0  0  0  0  0  0
  -26.4444  -31.6592   25.0687 C   0  0  0  0  0  0
  -25.3721  -31.3693   26.1444 C   0  0  0  0  0  0
  -27.0236  -30.3034   24.6023 C   0  0  0  0  0  0
  -27.6012  -32.4310   25.7464 C   0  0  0  0  0  0
  -27.5608  -37.1805   24.8444 C   0  0  0  0  0  0
  -21.4114  -29.3020   22.3728 N   0  0  0  0  0  0
  -26.4305  -37.3796   23.9411 N   0  0  0  0  0  0
  -24.6633  -31.0795   22.0968 N   0  0  0  0  0  0
  -23.4162  -28.8231   23.3051 O   0  0  0  0  0  0
  -28.4463  -26.7713   20.1122 O   0  0  0  0  0  0
  -26.5581  -34.8929   22.4679 O   0  0  0  0  0  0
  -23.5309  -32.1422   23.7487 O   0  0  0  0  0  0
  -31.8148  -17.1518   21.6743 C   0  0  0  0  0  0
  -29.4605  -17.6787   21.7918 C   0  0  0  0  0  0
  -30.4697  -16.7146   21.5874 C   0  0  0  0  0  0
  -32.0765  -18.5135   21.9275 C   0  0  0  0  0  0
  -30.9903  -19.3960   22.0794 C   0  0  0  0  0  0
  -30.7656  -23.1837   22.0165 C   0  0  0  0  0  0
  -29.7452  -24.7405   20.2665 C   0  0  0  0  0  0
  -29.7711  -24.3181   21.7439 C   0  0  0  0  0  0
  -30.2671  -21.7409   21.8612 C   0  0  0  0  0  0
  -28.4533  -25.3891   19.7569 C   0  0  0  0  0  0
  -29.7041  -18.9892   22.0229 N   0  0  0  0  0  0
  -30.0850  -15.3592   21.3381 N   0  0  0  0  0  0
  -31.2429  -20.7498   22.3140 N   0  0  0  0  0  0
  -31.9237  -23.4184   22.3851 O   0  0  0  0  0  0
  -30.7219  -24.6156   19.5182 O   0  0  0  0  0  0
  -33.3502  -18.9688   22.0270 F   0  0  0  0  0  0
  -31.4696  -12.3821   19.1049 H   0  0  0  0  0  0
  -30.3191  -11.2753   19.7914 H   0  0  0  0  0  0
  -29.7225  -11.7777   17.4125 H   0  0  0  0  0  0
  -29.6744  -13.4864   17.7555 H   0  0  0  0  0  0
  -27.8116  -11.3170   18.7877 H   0  0  0  0  0  0
  -27.3670  -12.6651   17.7779 H   0  0  0  0  0  0
  -27.7193  -14.2519   19.5960 H   0  0  0  0  0  0
  -28.6791  -11.9086   21.3048 H   0  0  0  0  0  0
  -28.4663  -13.5279   21.8830 H   0  0  0  0  0  0
  -25.2745   -9.5691   22.4738 H   0  0  0  0  0  0
  -23.9966   -7.4651   22.7499 H   0  0  0  0  0  0
  -21.0799   -8.8768   19.8979 H   0  0  0  0  0  0
  -22.3652  -10.9666   19.6152 H   0  0  0  0  0  0
  -21.2012   -7.6141   23.9696 H   0  0  0  0  0  0
  -21.1462   -6.0523   25.9059 H   0  0  0  0  0  0
  -22.0604   -2.7606   23.2836 H   0  0  0  0  0  0
  -22.4130  -11.9932   22.4772 H   0  0  0  0  0  0
  -21.1146  -13.1325   22.2556 H   0  0  0  0  0  0
  -24.6656  -15.8392   20.5211 H   0  0  0  0  0  0
  -26.2814  -15.6293   20.0791 H   0  0  0  0  0  0
  -26.7083  -32.5524   23.1126 H   0  0  0  0  0  0
  -25.0051  -33.9782   25.0464 H   0  0  0  0  0  0
  -22.6884  -31.3061   21.4064 H   0  0  0  0  0  0
  -23.3767  -35.9656   23.3243 H   0  0  0  0  0  0
  -24.3612  -36.8998   22.2062 H   0  0  0  0  0  0
  -23.7230  -37.6515   23.6680 H   0  0  0  0  0  0
  -26.0312  -31.5990   20.5840 H   0  0  0  0  0  0
  -26.8148  -30.8940   21.9712 H   0  0  0  0  0  0
  -28.0945  -29.1258   21.1541 H   0  0  0  0  0  0
  -26.0581  -25.9810   18.9965 H   0  0  0  0  0  0
  -23.9886  -27.2837   19.0328 H   0  0  0  0  0  0
  -23.6997  -30.5860   19.3978 H   0  0  0  0  0  0
  -22.7310  -29.2268   19.8772 H   0  0  0  0  0  0
  -25.1290  -36.1979   25.0833 H   0  0  0  0  0  0
  -20.9981  -28.3238   24.1443 H   0  0  0  0  0  0
  -20.5728  -26.2250   23.3621 H   0  0  0  0  0  0
  -21.6655  -26.7460   22.1198 H   0  0  0  0  0  0
  -19.6916  -25.6283   21.1274 H   0  0  0  0  0  0
  -19.6748  -27.3197   20.6774 H   0  0  0  0  0  0
  -17.4227  -26.6751   21.3974 H   0  0  0  0  0  0
  -18.0269  -26.0073   22.8974 H   0  0  0  0  0  0
  -19.7920  -30.7269   24.2322 H   0  0  0  0  0  0
  -17.4995  -31.6288   24.5132 H   0  0  0  0  0  0
  -15.5347  -30.2993   23.7650 H   0  0  0  0  0  0
  -15.8671  -28.0827   22.7071 H   0  0  0  0  0  0
  -24.5949  -30.6959   25.7815 H   0  0  0  0  0  0
  -24.8848  -32.2835   26.4845 H   0  0  0  0  0  0
  -25.8103  -30.8941   27.0227 H   0  0  0  0  0  0
  -26.2737  -29.6846   24.1081 H   0  0  0  0  0  0
  -27.4008  -29.7225   25.4447 H   0  0  0  0  0  0
  -27.8581  -30.4353   23.9132 H   0  0  0  0  0  0
  -27.2604  -33.3579   26.2095 H   0  0  0  0  0  0
  -28.3804  -32.6925   25.0292 H   0  0  0  0  0  0
  -28.0696  -31.8401   26.5344 H   0  0  0  0  0  0
  -28.2568  -38.0161   24.7559 H   0  0  0  0  0  0
  -28.1167  -36.2691   24.6179 H   0  0  0  0  0  0
  -27.2332  -37.1338   25.8847 H   0  0  0  0  0  0
  -20.9266  -29.8689   21.6906 H   0  0  0  0  0  0
  -26.0194  -38.2868   24.1446 H   0  0  0  0  0  0
  -32.6455  -16.4734   21.5626 H   0  0  0  0  0  0
  -28.4185  -17.3974   21.7511 H   0  0  0  0  0  0
  -30.0347  -25.1846   22.3495 H   0  0  0  0  0  0
  -28.7750  -24.0040   22.0548 H   0  0  0  0  0  0
  -30.0278  -21.5663   20.8122 H   0  0  0  0  0  0
  -29.3447  -21.6268   22.4308 H   0  0  0  0  0  0
  -27.6027  -24.8611   20.1875 H   0  0  0  0  0  0
  -28.3986  -25.2874   18.6725 H   0  0  0  0  0  0
  -29.1488  -15.0984   21.6120 H   0  0  0  0  0  0
  -32.2174  -21.0304   22.2422 H   0  0  0  0  0  0
  1 25  1  0  0  0
  1 30  2  0  0  0
  1 82  1  0  0  0
  2  3  1  0  0  0
  2 25  1  0  0  0
  2 87  1  0  0  0
  2 88  1  0  0  0
  3  4  1  0  0  0
  3 89  1  0  0  0
  3 90  1  0  0  0
  4  5  1  0  0  0
  4 91  1  0  0  0
  4 92  1  0  0  0
  5  6  1  0  0  0
  5 26  1  0  0  0
  5 93  1  0  0  0
  6 25  1  0  0  0
  6 94  1  0  0  0
  6 95  1  0  0  0
  7  8  2  0  0  0
  7 26  1  0  0  0
  7 29  1  0  0  0
  8  9  1  0  0  0
  8 22  1  0  0  0
  9 10  1  0  0  0
  9 27  2  0  0  0
 10 11  2  0  0  0
 10 15  1  0  0  0
 11 12  1  0  0  0
 11 96  1  0  0  0
 12 13  2  0  0  0
 12 97  1  0  0  0
 13 14  1  0  0  0
 13 31  1  0  0  0
 14 15  2  0  0  0
 14 98  1  0  0  0
 15 99  1  0  0  0
 16 17  2  0  0  0
 16 21  1  0  0  0
 16 31  1  0  0  0
 17 18  1  0  0  0
 17100  1  0  0  0
 18 19  2  0  0  0
 18101  1  0  0  0
 19 20  1  0  0  0
 19 24  1  0  0  0
 20 21  2  0  0  0
 20102  1  0  0  0
 21 23  1  0  0  0
 22 28  1  0  0  0
 22 32  2  0  0  0
 26 27  1  0  0  0
 28103  1  0  0  0
 28104  1  0  0  0
 29105  1  0  0  0
 29106  1  0  0  0
 33 34  1  0  0  0
 33 66  1  0  0  0
 33 70  2  0  0  0
 34 36  1  0  0  0
 34 59  1  0  0  0
 34107  1  0  0  0
 35 44  2  0  0  0
 35 45  1  0  0  0
 35 68  1  0  0  0
 36 56  1  0  0  0
 36108  1  0  0  0
 37 39  1  0  0  0
 37 47  1  0  0  0
 37 66  1  0  0  0
 37109  1  0  0  0
 38 43  2  0  0  0
 38 46  1  0  0  0
 38 47  1  0  0  0
 39 64  1  0  0  0
 39 67  2  0  0  0
 40 52  1  0  0  0
 40 53  2  0  0  0
 40 58  1  0  0  0
 41110  1  0  0  0
 41111  1  0  0  0
 41112  1  0  0  0
 41 48  1  0  0  0
 42 43  1  0  0  0
 42 66  1  0  0  0
 42113  1  0  0  0
 42114  1  0  0  0
 43 44  1  0  0  0
 44115  1  0  0  0
 45 46  2  0  0  0
 45116  1  0  0  0
 46117  1  0  0  0
 47118  1  0  0  0
 47119  1  0  0  0
 48 56  1  0  0  0
 48 65  1  0  0  0
 48120  1  0  0  0
 49 50  1  0  0  0
 49 53  1  0  0  0
 49 64  1  0  0  0
 49121  1  0  0  0
 50 51  1  0  0  0
 50122  1  0  0  0
 50123  1  0  0  0
 51 52  1  0  0  0
 51124  1  0  0  0
 51125  1  0  0  0
 52126  1  0  0  0
 52127  1  0  0  0
 53 54  1  0  0  0
 54 55  2  0  0  0
 54128  1  0  0  0
 55 57  1  0  0  0
 55129  1  0  0  0
 56 69  2  0  0  0
 57 58  2  0  0  0
 57130  1  0  0  0
 58131  1  0  0  0
 59 60  1  0  0  0
 59 61  1  0  0  0
 59 62  1  0  0  0
 60132  1  0  0  0
 60133  1  0  0  0
 60134  1  0  0  0
 61135  1  0  0  0
 61136  1  0  0  0
 61137  1  0  0  0
 62138  1  0  0  0
 62139  1  0  0  0
 62140  1  0  0  0
 63 65  1  0  0  0
 63141  1  0  0  0
 63142  1  0  0  0
 63143  1  0  0  0
 64144  1  0  0  0
 65145  1  0  0  0
 68 80  1  0  0  0
 71 73  2  0  0  0
 71 74  1  0  0  0
 71146  1  0  0  0
 72 73  1  0  0  0
 72 81  2  0  0  0
 72147  1  0  0  0
 73 82  1  0  0  0
 74 75  2  0  0  0
 74 86  1  0  0  0
 75 81  1  0  0  0
 75 83  1  0  0  0
 76 78  1  0  0  0
 76 79  1  0  0  0
 76 84  2  0  0  0
 77 78  1  0  0  0
 77 80  1  0  0  0
 77 85  2  0  0  0
 78148  1  0  0  0
 78149  1  0  0  0
 79 83  1  0  0  0
 79150  1  0  0  0
 79151  1  0  0  0
 80152  1  0  0  0
 80153  1  0  0  0
 82154  1  0  0  0
 83155  1  0  0  0
M  ISO  4   1 100  68 101  80 101  82 100
M  END
> <chiral flag>
0

> <version>
0

> <s_m_source_file>
/data/baiqing/PycharmProjects/Reinvent-master-3.2/result/LINK_invent/BTK/process_docking_weight1_custom_product_contain_oxygen_bond_distance_aromatic_linkinvent_7_9_3/rearranged_h_0169.sdf

> <i_m_source_file_index>
88

> <r_mmod_Potential_Energy-OPLS-2005>
-336.223419189453

> <r_mmod_Stretch_Energy-OPLS-2005>
34.6488380432129

> <r_mmod_Bend_Energy-OPLS-2005>
101.035354614258

> <r_mmod_Torsional_Energy-OPLS-2005>
218.369125366211

> <r_mmod_Improper_Torsional_Energy-OPLS-2005>
5.81860971450806

> <r_mmod_Van_der_Waal_Energy-OPLS-2005>
164.724502563477

> <r_mmod_Electrostatic_Energy-OPLS-2005>
-613.658386230469

> <r_mmod_Solvation_Energy-OPLS-2005>
-256.705657958984

> <b_mmod_Minimization_Converged-OPLS-2005>
0

> <r_mmod_RMS_Derivative-OPLS-2005>
2.57499361038208

$$$$
88
                    3D
 Structure written by MMmdl.
165174  0  0  1  0            999 V2000
  -30.5842  -14.7606   20.4578 C   0  0  0  0  0  0
  -30.4411  -12.4723   19.4504 C   0  0  0  0  0  0
  -29.5049  -12.5014   18.2225 C   0  0  0  0  0  0
  -28.0333  -12.3160   18.6474 C   0  0  0  0  0  0
  -27.6356  -13.2232   19.8409 C   0  0  2  0  0  0
  -28.6869  -13.1699   20.9690 C   0  0  0  0  0  0
  -25.2500  -13.8164   20.5720 C   0  0  0  0  0  0
  -24.1782  -13.0424   20.9216 C   0  0  0  0  0  0
  -24.6361  -11.6907   20.8739 C   0  0  0  0  0  0
  -23.9035  -10.4287   21.0392 C   0  0  0  0  0  0
  -24.3594   -9.4207   21.9163 C   0  0  0  0  0  0
  -23.6278   -8.2244   22.0739 C   0  0  0  0  0  0
  -22.4257   -8.0279   21.3530 C   0  0  0  0  0  0
  -21.9879   -9.0248   20.4628 C   0  0  0  0  0  0
  -22.7210  -10.2121   20.3044 C   0  0  0  0  0  0
  -21.6857   -6.0720   22.5260 C   0  0  0  0  0  0
  -21.4015   -6.5612   23.8196 C   0  0  0  0  0  0
  -21.3674   -5.6767   24.9160 C   0  0  0  0  0  0
  -21.6052   -4.3031   24.7212 C   0  0  0  0  0  0
  -21.8826   -3.8121   23.4331 C   0  0  0  0  0  0
  -21.9193   -4.6943   22.3386 C   0  0  0  0  0  0
  -22.7815  -13.5232   21.1874 C   0  0  0  0  0  0
  -22.1667   -4.2131   21.0970 F   0  0  0  0  0  0
  -21.5640   -3.4524   25.7728 F   0  0  0  0  0  0
  -29.9783  -13.5310   20.3687 N   0  0  0  0  0  0
  -26.2911  -12.9347   20.3261 N   0  0  0  0  0  0
  -25.9276  -11.6501   20.5729 N   0  0  0  0  0  0
  -22.0461  -12.8228   22.0428 N   0  0  0  0  0  0
  -25.4160  -15.1898   20.4185 N   0  0  0  0  0  0
  -31.8007  -14.8751   20.2864 O   0  0  0  0  0  0
  -21.6633   -6.8865   21.4225 O   0  0  0  0  0  0
  -22.3510  -14.5556   20.6733 O   0  0  0  0  0  0
  -24.6338  -31.8568   23.1991 C   0  0  0  0  0  0
  -25.9162  -32.4772   23.8337 C   0  0  1  0  0  0
  -27.2122  -27.2482   20.1207 C   0  0  0  0  0  0
  -25.5960  -33.8573   24.2265 N   0  0  0  0  0  0
  -23.4303  -30.4831   21.5426 C   0  0  2  0  0  0
  -24.8774  -28.9329   20.1100 C   0  0  0  0  0  0
  -22.7526  -29.4622   22.4898 C   0  0  0  0  0  0
  -18.0303  -28.1440   22.8490 C   0  0  0  0  0  0
  -24.1478  -36.7264   23.2632 C   0  0  0  0  0  0
  -25.9796  -30.7684   21.3797 C   0  0  0  0  0  0
  -26.0527  -29.3893   20.7206 C   0  0  0  0  0  0
  -27.2246  -28.5600   20.7137 C   0  0  0  0  0  0
  -26.0097  -26.8734   19.4755 C   0  0  0  0  0  0
  -24.8627  -27.6856   19.4756 C   0  0  0  0  0  0
  -23.6510  -29.8239   20.1573 C   0  0  0  0  0  0
  -25.4113  -36.3068   24.0315 C   0  0  1  0  0  0
  -20.5915  -28.3740   23.1270 C   0  0  2  0  0  0
  -20.6785  -26.9456   22.5421 C   0  0  0  0  0  0
  -19.5747  -26.6417   21.5231 C   0  0  0  0  0  0
  -18.1927  -26.7983   22.1638 C   0  0  0  0  0  0
  -19.1563  -28.8906   23.2877 C   0  0  0  0  0  0
  -18.9485  -30.1497   23.8909 C   0  0  0  0  0  0
  -17.6480  -30.6620   24.0581 C   0  0  0  0  0  0
  -25.9057  -34.9445   23.5086 C   0  0  0  0  0  0
  -16.5374  -29.9124   23.6338 C   0  0  0  0  0  0
  -16.7287  -28.6555   23.0345 C   0  0  0  0  0  0
  -26.4521  -31.6601   25.0731 C   0  0  0  0  0  0
  -25.3733  -31.3800   26.1458 C   0  0  0  0  0  0
  -27.0360  -30.3010   24.6232 C   0  0  0  0  0  0
  -27.6072  -32.4336   25.7504 C   0  0  0  0  0  0
  -27.5569  -37.1793   24.8462 C   0  0  0  0  0  0
  -21.4236  -29.3079   22.3651 N   0  0  0  0  0  0
  -26.4274  -37.3778   23.9419 N   0  0  0  0  0  0
  -24.7007  -31.0537   22.0970 N   0  0  0  0  0  0
  -23.4228  -28.8137   23.2972 O   0  0  0  0  0  0
  -28.2832  -26.3172   20.1778 O   0  0  0  0  0  0
  -26.5618  -34.8913   22.4646 O   0  0  0  0  0  0
  -23.5481  -32.1403   23.7271 O   0  0  0  0  0  0
  -29.6653  -18.5021   20.3265 C   0  0  0  0  0  0
  -29.5900  -17.2144   22.3608 C   0  0  0  0  0  0
  -29.7507  -17.1971   20.9678 C   0  0  0  0  0  0
  -29.4050  -19.7311   21.0708 C   0  0  0  0  0  0
  -29.2139  -19.5342   22.4760 C   0  0  0  0  0  0
  -29.0069  -23.6960   20.2821 C   0  0  0  0  0  0
  -28.5162  -22.1413   20.5249 C   0  0  0  0  0  0
  -27.7217  -21.7228   26.0291 C   0  0  0  0  0  0
  -29.2036  -21.8833   25.6488 C   0  0  0  0  0  0
  -26.8390  -21.6274   24.7760 C   0  0  0  0  0  0
  -29.6817  -20.7445   24.7218 C   0  0  0  0  0  0
  -27.3101  -20.4922   23.8537 C   0  0  0  0  0  0
  -28.7963  -20.6425   23.4587 C   0  0  0  0  0  0
  -27.9154  -24.8508   20.0715 C   0  0  0  0  0  0
  -29.3104  -18.3224   23.0715 N   0  0  0  0  0  0
  -29.4481  -21.1099   20.4867 N   0  0  0  0  0  0
  -29.7560  -15.8635   20.3204 N   0  0  0  0  0  0
  -30.2120  -23.9774   20.2677 O   0  0  0  0  0  0
  -27.3270  -21.9011   20.7439 O   0  0  0  0  0  0
  -31.4769  -12.6244   19.1420 H   0  0  0  0  0  0
  -30.4089  -11.5012   19.9453 H   0  0  0  0  0  0
  -29.7861  -11.7235   17.5118 H   0  0  0  0  0  0
  -29.6173  -13.4517   17.6982 H   0  0  0  0  0  0
  -27.9018  -11.2703   18.9259 H   0  0  0  0  0  0
  -27.3692  -12.4909   17.8002 H   0  0  0  0  0  0
  -27.6188  -14.2385   19.4467 H   0  0  0  0  0  0
  -28.7346  -12.1745   21.4131 H   0  0  0  0  0  0
  -28.4255  -13.8583   21.7751 H   0  0  0  0  0  0
  -25.2725   -9.5696   22.4756 H   0  0  0  0  0  0
  -23.9984   -7.4631   22.7463 H   0  0  0  0  0  0
  -21.0804   -8.8757   19.8943 H   0  0  0  0  0  0
  -22.3643  -10.9658   19.6178 H   0  0  0  0  0  0
  -21.1998   -7.6117   23.9691 H   0  0  0  0  0  0
  -21.1501   -6.0494   25.9063 H   0  0  0  0  0  0
  -22.0591   -2.7585   23.2829 H   0  0  0  0  0  0
  -22.4035  -11.9875   22.4818 H   0  0  0  0  0  0
  -21.1093  -13.1272   22.2666 H   0  0  0  0  0  0
  -24.6427  -15.8345   20.5348 H   0  0  0  0  0  0
  -26.2618  -15.6455   20.1045 H   0  0  0  0  0  0
  -26.7233  -32.5443   23.1079 H   0  0  0  0  0  0
  -25.0157  -33.9713   25.0447 H   0  0  0  0  0  0
  -22.7261  -31.3061   21.3989 H   0  0  0  0  0  0
  -23.3747  -35.9583   23.3284 H   0  0  0  0  0  0
  -24.3561  -36.8902   22.2047 H   0  0  0  0  0  0
  -23.7219  -37.6452   23.6673 H   0  0  0  0  0  0
  -26.1158  -31.5295   20.6095 H   0  0  0  0  0  0
  -26.8576  -30.8220   22.0122 H   0  0  0  0  0  0
  -28.1243  -28.9014   21.2063 H   0  0  0  0  0  0
  -25.9094  -25.9262   18.9683 H   0  0  0  0  0  0
  -23.9635  -27.3373   18.9868 H   0  0  0  0  0  0
  -23.7862  -30.6024   19.4052 H   0  0  0  0  0  0
  -22.7674  -29.2661   19.8415 H   0  0  0  0  0  0
  -25.1288  -36.1890   25.0801 H   0  0  0  0  0  0
  -21.0024  -28.3344   24.1382 H   0  0  0  0  0  0
  -20.5715  -26.2356   23.3632 H   0  0  0  0  0  0
  -21.6649  -26.7494   22.1199 H   0  0  0  0  0  0
  -19.6891  -25.6323   21.1257 H   0  0  0  0  0  0
  -19.6661  -27.3231   20.6758 H   0  0  0  0  0  0
  -17.4197  -26.6756   21.4033 H   0  0  0  0  0  0
  -18.0301  -26.0141   22.9048 H   0  0  0  0  0  0
  -19.7961  -30.7325   24.2281 H   0  0  0  0  0  0
  -17.5035  -31.6288   24.5207 H   0  0  0  0  0  0
  -15.5381  -30.3024   23.7668 H   0  0  0  0  0  0
  -15.8688  -28.0872   22.7045 H   0  0  0  0  0  0
  -24.5881  -30.7173   25.7812 H   0  0  0  0  0  0
  -24.8969  -32.3003   26.4852 H   0  0  0  0  0  0
  -25.8045  -30.9005   27.0257 H   0  0  0  0  0  0
  -26.2962  -29.6766   24.1229 H   0  0  0  0  0  0
  -27.4008  -29.7275   25.4761 H   0  0  0  0  0  0
  -27.8840  -30.4269   23.9497 H   0  0  0  0  0  0
  -27.2693  -33.3659   26.2042 H   0  0  0  0  0  0
  -28.3915  -32.6872   25.0356 H   0  0  0  0  0  0
  -28.0705  -31.8492   26.5465 H   0  0  0  0  0  0
  -28.2590  -38.0087   24.7514 H   0  0  0  0  0  0
  -28.1056  -36.2623   24.6270 H   0  0  0  0  0  0
  -27.2288  -37.1426   25.8863 H   0  0  0  0  0  0
  -20.9435  -29.8817   21.6855 H   0  0  0  0  0  0
  -26.0130  -38.2828   24.1472 H   0  0  0  0  0  0
  -29.7772  -18.5576   19.2534 H   0  0  0  0  0  0
  -29.5944  -16.2920   22.9226 H   0  0  0  0  0  0
  -27.3984  -22.5647   26.6440 H   0  0  0  0  0  0
  -27.5935  -20.8303   26.6439 H   0  0  0  0  0  0
  -29.8122  -21.9098   26.5541 H   0  0  0  0  0  0
  -29.3465  -22.8479   25.1577 H   0  0  0  0  0  0
  -26.8595  -22.5745   24.2346 H   0  0  0  0  0  0
  -25.8007  -21.4616   25.0673 H   0  0  0  0  0  0
  -29.6645  -19.8031   25.2715 H   0  0  0  0  0  0
  -30.7199  -20.9170   24.4359 H   0  0  0  0  0  0
  -26.6886  -20.4705   22.9580 H   0  0  0  0  0  0
  -27.1590  -19.5348   24.3537 H   0  0  0  0  0  0
  -28.9192  -21.6089   22.9879 H   0  0  0  0  0  0
  -27.0994  -24.6510   20.7682 H   0  0  0  0  0  0
  -27.5224  -24.6723   19.0710 H   0  0  0  0  0  0
  -30.3439  -21.3967   20.1121 H   0  0  0  0  0  0
  -28.8397  -15.5824   20.0056 H   0  0  0  0  0  0
  1 25  1  0  0  0
  1 30  2  0  0  0
  1 87  1  0  0  0
  2  3  1  0  0  0
  2 25  1  0  0  0
  2 90  1  0  0  0
  2 91  1  0  0  0
  3  4  1  0  0  0
  3 92  1  0  0  0
  3 93  1  0  0  0
  4  5  1  0  0  0
  4 94  1  0  0  0
  4 95  1  0  0  0
  5  6  1  0  0  0
  5 26  1  0  0  0
  5 96  1  0  0  0
  6 25  1  0  0  0
  6 97  1  0  0  0
  6 98  1  0  0  0
  7  8  2  0  0  0
  7 26  1  0  0  0
  7 29  1  0  0  0
  8  9  1  0  0  0
  8 22  1  0  0  0
  9 10  1  0  0  0
  9 27  2  0  0  0
 10 11  2  0  0  0
 10 15  1  0  0  0
 11 12  1  0  0  0
 11 99  1  0  0  0
 12 13  2  0  0  0
 12100  1  0  0  0
 13 14  1  0  0  0
 13 31  1  0  0  0
 14 15  2  0  0  0
 14101  1  0  0  0
 15102  1  0  0  0
 16 17  2  0  0  0
 16 21  1  0  0  0
 16 31  1  0  0  0
 17 18  1  0  0  0
 17103  1  0  0  0
 18 19  2  0  0  0
 18104  1  0  0  0
 19 20  1  0  0  0
 19 24  1  0  0  0
 20 21  2  0  0  0
 20105  1  0  0  0
 21 23  1  0  0  0
 22 28  1  0  0  0
 22 32  2  0  0  0
 26 27  1  0  0  0
 28106  1  0  0  0
 28107  1  0  0  0
 29108  1  0  0  0
 29109  1  0  0  0
 33 34  1  0  0  0
 33 66  1  0  0  0
 33 70  2  0  0  0
 34 36  1  0  0  0
 34 59  1  0  0  0
 34110  1  0  0  0
 35 44  2  0  0  0
 35 45  1  0  0  0
 35 68  1  0  0  0
 36 56  1  0  0  0
 36111  1  0  0  0
 37 39  1  0  0  0
 37 47  1  0  0  0
 37 66  1  0  0  0
 37112  1  0  0  0
 38 43  2  0  0  0
 38 46  1  0  0  0
 38 47  1  0  0  0
 39 64  1  0  0  0
 39 67  2  0  0  0
 40 52  1  0  0  0
 40 53  2  0  0  0
 40 58  1  0  0  0
 41113  1  0  0  0
 41114  1  0  0  0
 41115  1  0  0  0
 41 48  1  0  0  0
 42 43  1  0  0  0
 42 66  1  0  0  0
 42116  1  0  0  0
 42117  1  0  0  0
 43 44  1  0  0  0
 44118  1  0  0  0
 45 46  2  0  0  0
 45119  1  0  0  0
 46120  1  0  0  0
 47121  1  0  0  0
 47122  1  0  0  0
 48 56  1  0  0  0
 48 65  1  0  0  0
 48123  1  0  0  0
 49 50  1  0  0  0
 49 53  1  0  0  0
 49 64  1  0  0  0
 49124  1  0  0  0
 50 51  1  0  0  0
 50125  1  0  0  0
 50126  1  0  0  0
 51 52  1  0  0  0
 51127  1  0  0  0
 51128  1  0  0  0
 52129  1  0  0  0
 52130  1  0  0  0
 53 54  1  0  0  0
 54 55  2  0  0  0
 54131  1  0  0  0
 55 57  1  0  0  0
 55132  1  0  0  0
 56 69  2  0  0  0
 57 58  2  0  0  0
 57133  1  0  0  0
 58134  1  0  0  0
 59 60  1  0  0  0
 59 61  1  0  0  0
 59 62  1  0  0  0
 60135  1  0  0  0
 60136  1  0  0  0
 60137  1  0  0  0
 61138  1  0  0  0
 61139  1  0  0  0
 61140  1  0  0  0
 62141  1  0  0  0
 62142  1  0  0  0
 62143  1  0  0  0
 63 65  1  0  0  0
 63144  1  0  0  0
 63145  1  0  0  0
 63146  1  0  0  0
 64147  1  0  0  0
 65148  1  0  0  0
 68 84  1  0  0  0
 71 73  2  0  0  0
 71 74  1  0  0  0
 71149  1  0  0  0
 72 73  1  0  0  0
 72 85  2  0  0  0
 72150  1  0  0  0
 73 87  1  0  0  0
 74 75  2  0  0  0
 74 86  1  0  0  0
 75 85  1  0  0  0
 75 83  1  0  0  0
 76 77  1  0  0  0
 76 84  1  0  0  0
 76 88  2  0  0  0
 77 86  1  0  0  0
 77 89  2  0  0  0
 78 79  1  0  0  0
 78 80  1  0  0  0
 78151  1  0  0  0
 78152  1  0  0  0
 79 81  1  0  0  0
 79153  1  0  0  0
 79154  1  0  0  0
 80 82  1  0  0  0
 80155  1  0  0  0
 80156  1  0  0  0
 81 83  1  0  0  0
 81157  1  0  0  0
 81158  1  0  0  0
 82 83  1  0  0  0
 82159  1  0  0  0
 82160  1  0  0  0
 83161  1  0  0  0
 84162  1  0  0  0
 84163  1  0  0  0
 86164  1  0  0  0
 87165  1  0  0  0
M  ISO  4   1 100  68 101  84 101  87 100
M  END
> <chiral flag>
0

> <version>
0

> <s_m_source_file>
/data/baiqing/PycharmProjects/Reinvent-master-3.2/result/LINK_invent/BTK/process_docking_weight1_custom_product_contain_oxygen_bond_distance_aromatic_linkinvent_7_9_3/rearranged_h_0169.sdf

> <i_m_source_file_index>
89

> <r_mmod_Potential_Energy-OPLS-2005>
184.246398925781

> <r_mmod_Stretch_Energy-OPLS-2005>
136.118148803711

> <r_mmod_Bend_Energy-OPLS-2005>
170.880661010742

> <r_mmod_Torsional_Energy-OPLS-2005>
306.939422607422

> <r_mmod_Improper_Torsional_Energy-OPLS-2005>
15.2020883560181

> <r_mmod_Van_der_Waal_Energy-OPLS-2005>
142.110885620117

> <r_mmod_Electrostatic_Energy-OPLS-2005>
-444.575561523438

> <r_mmod_Solvation_Energy-OPLS-2005>
-244.555862426758

> <b_mmod_Minimization_Converged-OPLS-2005>
0

> <r_mmod_RMS_Derivative-OPLS-2005>
2.95036816596985

$$$$
89
                    3D
 Structure written by MMmdl.
158166  0  0  1  0            999 V2000
  -30.6770  -14.5233   20.5484 C   0  0  0  0  0  0
  -30.4284  -12.3312   19.4318 C   0  0  0  0  0  0
  -29.4979  -12.5007   18.2121 C   0  0  0  0  0  0
  -28.0199  -12.3526   18.6256 C   0  0  0  0  0  0
  -27.6581  -13.2074   19.8694 C   0  0  2  0  0  0
  -28.7010  -13.0166   20.9942 C   0  0  0  0  0  0
  -25.2581  -13.8160   20.5673 C   0  0  0  0  0  0
  -24.1836  -13.0438   20.9183 C   0  0  0  0  0  0
  -24.6391  -11.6903   20.8741 C   0  0  0  0  0  0
  -23.9055  -10.4292   21.0409 C   0  0  0  0  0  0
  -24.3609   -9.4209   21.9189 C   0  0  0  0  0  0
  -23.6288   -8.2242   22.0757 C   0  0  0  0  0  0
  -22.4272   -8.0279   21.3544 C   0  0  0  0  0  0
  -21.9904   -9.0253   20.4648 C   0  0  0  0  0  0
  -22.7227  -10.2135   20.3058 C   0  0  0  0  0  0
  -21.6852   -6.0734   22.5280 C   0  0  0  0  0  0
  -21.4013   -6.5639   23.8213 C   0  0  0  0  0  0
  -21.3659   -5.6793   24.9176 C   0  0  0  0  0  0
  -21.6042   -4.3055   24.7229 C   0  0  0  0  0  0
  -21.8819   -3.8145   23.4351 C   0  0  0  0  0  0
  -21.9192   -4.6961   22.3405 C   0  0  0  0  0  0
  -22.7860  -13.5239   21.1843 C   0  0  0  0  0  0
  -22.1661   -4.2144   21.0983 F   0  0  0  0  0  0
  -21.5628   -3.4540   25.7744 F   0  0  0  0  0  0
  -30.0270  -13.3302   20.4366 N   0  0  0  0  0  0
  -26.3008  -12.9326   20.3341 N   0  0  0  0  0  0
  -25.9316  -11.6487   20.5763 N   0  0  0  0  0  0
  -22.0494  -12.8238   22.0400 N   0  0  0  0  0  0
  -25.4305  -15.1881   20.4074 N   0  0  0  0  0  0
  -31.8276  -14.6858   20.1305 O   0  0  0  0  0  0
  -21.6636   -6.8877   21.4241 O   0  0  0  0  0  0
  -22.3553  -14.5547   20.6692 O   0  0  0  0  0  0
  -24.6172  -31.8657   23.2085 C   0  0  0  0  0  0
  -25.9053  -32.4813   23.8390 C   0  0  1  0  0  0
  -27.2311  -27.4079   20.1083 C   0  0  0  0  0  0
  -25.5900  -33.8610   24.2322 N   0  0  0  0  0  0
  -23.4089  -30.4878   21.5487 C   0  0  2  0  0  0
  -24.8593  -28.9517   20.1144 C   0  0  0  0  0  0
  -22.7438  -29.4636   22.4974 C   0  0  0  0  0  0
  -18.0275  -28.1377   22.8481 C   0  0  0  0  0  0
  -24.1489  -36.7312   23.2640 C   0  0  0  0  0  0
  -25.9404  -30.8221   21.3685 C   0  0  0  0  0  0
  -26.0203  -29.4530   20.7197 C   0  0  0  0  0  0
  -27.2133  -28.6864   20.7201 C   0  0  0  0  0  0
  -26.0606  -26.9334   19.4851 C   0  0  0  0  0  0
  -24.8743  -27.6907   19.4941 C   0  0  0  0  0  0
  -23.6216  -29.8212   20.1631 C   0  0  0  0  0  0
  -25.4111  -36.3106   24.0335 C   0  0  1  0  0  0
  -20.5868  -28.3664   23.1304 C   0  0  2  0  0  0
  -20.6767  -26.9398   22.5408 C   0  0  0  0  0  0
  -19.5747  -26.6377   21.5207 C   0  0  0  0  0  0
  -18.1923  -26.7922   22.1615 C   0  0  0  0  0  0
  -19.1528  -28.8838   23.2887 C   0  0  0  0  0  0
  -18.9459  -30.1445   23.8900 C   0  0  0  0  0  0
  -17.6460  -30.6585   24.0560 C   0  0  0  0  0  0
  -25.9034  -34.9468   23.5128 C   0  0  0  0  0  0
  -16.5350  -29.9086   23.6325 C   0  0  0  0  0  0
  -16.7264  -28.6505   23.0340 C   0  0  0  0  0  0
  -26.4471  -31.6593   25.0725 C   0  0  0  0  0  0
  -25.3730  -31.3706   26.1471 C   0  0  0  0  0  0
  -27.0307  -30.3034   24.6103 C   0  0  0  0  0  0
  -27.6047  -32.4313   25.7486 C   0  0  0  0  0  0
  -27.5582  -37.1813   24.8464 C   0  0  0  0  0  0
  -21.4161  -29.3024   22.3715 N   0  0  0  0  0  0
  -26.4298  -37.3789   23.9404 N   0  0  0  0  0  0
  -24.6733  -31.0733   22.1002 N   0  0  0  0  0  0
  -23.4193  -28.8182   23.3031 O   0  0  0  0  0  0
  -28.3415  -26.5844   20.0847 O   0  0  0  0  0  0
  -26.5598  -34.8925   22.4690 O   0  0  0  0  0  0
  -23.5355  -32.1418   23.7460 O   0  0  0  0  0  0
  -31.3959  -17.5641   20.9833 C   0  0  0  0  0  0
  -31.3097  -19.0001   20.9334 C   0  0  0  0  0  0
  -30.1891  -16.9072   20.9443 C   0  0  0  0  0  0
  -30.0163  -19.4896   20.8493 C   0  0  0  0  0  0
  -29.0673  -23.1918   20.6017 C   0  0  0  0  0  0
  -30.0854  -21.9956   20.7305 C   0  0  0  0  0  0
  -27.3814  -25.4031   22.1106 C   0  0  0  0  0  0
  -33.8331  -19.2528   20.9657 C   0  0  0  0  0  0
  -29.5984  -24.5987   21.0075 C   0  0  0  0  0  0
  -28.6201  -25.8011   21.2729 C   0  0  1  0  0  0
  -32.4773  -19.7825   20.9719 N   0  0  0  0  0  0
  -29.5012  -20.7682   20.7620 N   0  0  0  0  0  0
  -29.9152  -15.5602   20.9787 N   0  0  0  0  0  0
  -27.9175  -23.0184   20.1803 O   0  0  0  0  0  0
  -31.2992  -22.2130   20.7963 O   0  0  0  0  0  0
  -28.9115  -18.1129   20.8704 S   0  0  0  0  0  0
  -31.4715  -12.4387   19.1286 H   0  0  0  0  0  0
  -30.3409  -11.3257   19.8465 H   0  0  0  0  0  0
  -29.7457  -11.7664   17.4445 H   0  0  0  0  0  0
  -29.6557  -13.4809   17.7596 H   0  0  0  0  0  0
  -27.8417  -11.2976   18.8381 H   0  0  0  0  0  0
  -27.3666  -12.6065   17.7899 H   0  0  0  0  0  0
  -27.6922  -14.2493   19.5517 H   0  0  0  0  0  0
  -28.6878  -11.9868   21.3539 H   0  0  0  0  0  0
  -28.4596  -13.6326   21.8616 H   0  0  0  0  0  0
  -25.2755   -9.5683   22.4764 H   0  0  0  0  0  0
  -23.9995   -7.4633   22.7477 H   0  0  0  0  0  0
  -21.0834   -8.8772   19.8957 H   0  0  0  0  0  0
  -22.3687  -10.9674   19.6167 H   0  0  0  0  0  0
  -21.2006   -7.6148   23.9714 H   0  0  0  0  0  0
  -21.1480   -6.0526   25.9079 H   0  0  0  0  0  0
  -22.0599   -2.7606   23.2854 H   0  0  0  0  0  0
  -22.4101  -11.9893   22.4786 H   0  0  0  0  0  0
  -21.1115  -13.1274   22.2601 H   0  0  0  0  0  0
  -24.6608  -15.8408   20.5079 H   0  0  0  0  0  0
  -26.2761  -15.6253   20.0639 H   0  0  0  0  0  0
  -26.7131  -32.5525   23.1159 H   0  0  0  0  0  0
  -25.0055  -33.9763   25.0471 H   0  0  0  0  0  0
  -22.6990  -31.3052   21.4076 H   0  0  0  0  0  0
  -23.3742  -35.9654   23.3312 H   0  0  0  0  0  0
  -24.3589  -36.8915   22.2054 H   0  0  0  0  0  0
  -23.7247  -37.6522   23.6650 H   0  0  0  0  0  0
  -26.0532  -31.5853   20.5973 H   0  0  0  0  0  0
  -26.8277  -30.8794   21.9869 H   0  0  0  0  0  0
  -28.1091  -29.0647   21.1932 H   0  0  0  0  0  0
  -26.0653  -25.9614   19.0120 H   0  0  0  0  0  0
  -23.9837  -27.2985   19.0231 H   0  0  0  0  0  0
  -23.7345  -30.5972   19.4051 H   0  0  0  0  0  0
  -22.7455  -29.2433   19.8641 H   0  0  0  0  0  0
  -25.1286  -36.1979   25.0826 H   0  0  0  0  0  0
  -20.9950  -28.3234   24.1424 H   0  0  0  0  0  0
  -20.5677  -26.2273   23.3599 H   0  0  0  0  0  0
  -21.6641  -26.7442   22.1204 H   0  0  0  0  0  0
  -19.6911  -25.6289   21.1231 H   0  0  0  0  0  0
  -19.6692  -27.3198   20.6749 H   0  0  0  0  0  0
  -17.4194  -26.6664   21.4017 H   0  0  0  0  0  0
  -18.0324  -26.0069   22.9018 H   0  0  0  0  0  0
  -19.7943  -30.7248   24.2278 H   0  0  0  0  0  0
  -17.5024  -31.6269   24.5158 H   0  0  0  0  0  0
  -15.5353  -30.2988   23.7654 H   0  0  0  0  0  0
  -15.8663  -28.0833   22.7042 H   0  0  0  0  0  0
  -24.5894  -30.7065   25.7807 H   0  0  0  0  0  0
  -24.8929  -32.2866   26.4927 H   0  0  0  0  0  0
  -25.8073  -30.8866   27.0228 H   0  0  0  0  0  0
  -26.2850  -29.6787   24.1172 H   0  0  0  0  0  0
  -27.4096  -29.7280   25.4559 H   0  0  0  0  0  0
  -27.8679  -30.4352   23.9242 H   0  0  0  0  0  0
  -27.2663  -33.3605   26.2083 H   0  0  0  0  0  0
  -28.3848  -32.6883   25.0308 H   0  0  0  0  0  0
  -28.0724  -31.8423   26.5388 H   0  0  0  0  0  0
  -28.2604  -38.0108   24.7508 H   0  0  0  0  0  0
  -28.1072  -36.2637   24.6295 H   0  0  0  0  0  0
  -27.2299  -37.1471   25.8868 H   0  0  0  0  0  0
  -20.9335  -29.8759   21.6940 H   0  0  0  0  0  0
  -26.0187  -38.2864   24.1410 H   0  0  0  0  0  0
  -32.3455  -17.0546   21.0522 H   0  0  0  0  0  0
  -27.6699  -24.7891   22.9639 H   0  0  0  0  0  0
  -26.6531  -24.8398   21.5276 H   0  0  0  0  0  0
  -26.8703  -26.2775   22.5149 H   0  0  0  0  0  0
  -34.5572  -20.0681   20.9346 H   0  0  0  0  0  0
  -34.0016  -18.6211   20.0924 H   0  0  0  0  0  0
  -34.0289  -18.6641   21.8633 H   0  0  0  0  0  0
  -30.3458  -24.8976   20.2730 H   0  0  0  0  0  0
  -30.1579  -24.4325   21.9282 H   0  0  0  0  0  0
  -29.1842  -26.4874   21.9064 H   0  0  0  0  0  0
  -32.3356  -20.7982   20.9106 H   0  0  0  0  0  0
  -28.4931  -20.8264   20.6928 H   0  0  0  0  0  0
  -28.9676  -15.3063   21.2140 H   0  0  0  0  0  0
  1 25  1  0  0  0
  1 30  2  0  0  0
  1 83  1  0  0  0
  2  3  1  0  0  0
  2 25  1  0  0  0
  2 87  1  0  0  0
  2 88  1  0  0  0
  3  4  1  0  0  0
  3 89  1  0  0  0
  3 90  1  0  0  0
  4  5  1  0  0  0
  4 91  1  0  0  0
  4 92  1  0  0  0
  5  6  1  0  0  0
  5 26  1  0  0  0
  5 93  1  0  0  0
  6 25  1  0  0  0
  6 94  1  0  0  0
  6 95  1  0  0  0
  7  8  2  0  0  0
  7 26  1  0  0  0
  7 29  1  0  0  0
  8  9  1  0  0  0
  8 22  1  0  0  0
  9 10  1  0  0  0
  9 27  2  0  0  0
 10 11  2  0  0  0
 10 15  1  0  0  0
 11 12  1  0  0  0
 11 96  1  0  0  0
 12 13  2  0  0  0
 12 97  1  0  0  0
 13 14  1  0  0  0
 13 31  1  0  0  0
 14 15  2  0  0  0
 14 98  1  0  0  0
 15 99  1  0  0  0
 16 17  2  0  0  0
 16 21  1  0  0  0
 16 31  1  0  0  0
 17 18  1  0  0  0
 17100  1  0  0  0
 18 19  2  0  0  0
 18101  1  0  0  0
 19 20  1  0  0  0
 19 24  1  0  0  0
 20 21  2  0  0  0
 20102  1  0  0  0
 21 23  1  0  0  0
 22 28  1  0  0  0
 22 32  2  0  0  0
 26 27  1  0  0  0
 28103  1  0  0  0
 28104  1  0  0  0
 29105  1  0  0  0
 29106  1  0  0  0
 33 34  1  0  0  0
 33 66  1  0  0  0
 33 70  2  0  0  0
 34 36  1  0  0  0
 34 59  1  0  0  0
 34107  1  0  0  0
 35 44  2  0  0  0
 35 45  1  0  0  0
 35 68  1  0  0  0
 36 56  1  0  0  0
 36108  1  0  0  0
 37 39  1  0  0  0
 37 47  1  0  0  0
 37 66  1  0  0  0
 37109  1  0  0  0
 38 43  2  0  0  0
 38 46  1  0  0  0
 38 47  1  0  0  0
 39 64  1  0  0  0
 39 67  2  0  0  0
 40 52  1  0  0  0
 40 53  2  0  0  0
 40 58  1  0  0  0
 41110  1  0  0  0
 41111  1  0  0  0
 41112  1  0  0  0
 41 48  1  0  0  0
 42 43  1  0  0  0
 42 66  1  0  0  0
 42113  1  0  0  0
 42114  1  0  0  0
 43 44  1  0  0  0
 44115  1  0  0  0
 45 46  2  0  0  0
 45116  1  0  0  0
 46117  1  0  0  0
 47118  1  0  0  0
 47119  1  0  0  0
 48 56  1  0  0  0
 48 65  1  0  0  0
 48120  1  0  0  0
 49 50  1  0  0  0
 49 53  1  0  0  0
 49 64  1  0  0  0
 49121  1  0  0  0
 50 51  1  0  0  0
 50122  1  0  0  0
 50123  1  0  0  0
 51 52  1  0  0  0
 51124  1  0  0  0
 51125  1  0  0  0
 52126  1  0  0  0
 52127  1  0  0  0
 53 54  1  0  0  0
 54 55  2  0  0  0
 54128  1  0  0  0
 55 57  1  0  0  0
 55129  1  0  0  0
 56 69  2  0  0  0
 57 58  2  0  0  0
 57130  1  0  0  0
 58131  1  0  0  0
 59 60  1  0  0  0
 59 61  1  0  0  0
 59 62  1  0  0  0
 60132  1  0  0  0
 60133  1  0  0  0
 60134  1  0  0  0
 61135  1  0  0  0
 61136  1  0  0  0
 61137  1  0  0  0
 62138  1  0  0  0
 62139  1  0  0  0
 62140  1  0  0  0
 63 65  1  0  0  0
 63141  1  0  0  0
 63142  1  0  0  0
 63143  1  0  0  0
 64144  1  0  0  0
 65145  1  0  0  0
 68 80  1  0  0  0
 71 72  1  0  0  0
 71 73  2  0  0  0
 71146  1  0  0  0
 72 74  2  0  0  0
 72 81  1  0  0  0
 73 83  1  0  0  0
 73 86  1  0  0  0
 74 82  1  0  0  0
 74 86  1  0  0  0
 75 76  1  0  0  0
 75 79  1  0  0  0
 75 84  2  0  0  0
 76 82  1  0  0  0
 76 85  2  0  0  0
 77147  1  0  0  0
 77148  1  0  0  0
 77149  1  0  0  0
 77 80  1  0  0  0
 78 81  1  0  0  0
 78150  1  0  0  0
 78151  1  0  0  0
 78152  1  0  0  0
 79 80  1  0  0  0
 79153  1  0  0  0
 79154  1  0  0  0
 80155  1  0  0  0
 81156  1  0  0  0
 82157  1  0  0  0
 83158  1  0  0  0
M  ISO  4   1 100  68 101  80 101  83 100
M  END
> <chiral flag>
0

> <version>
0

> <s_m_source_file>
/data/baiqing/PycharmProjects/Reinvent-master-3.2/result/LINK_invent/BTK/process_docking_weight1_custom_product_contain_oxygen_bond_distance_aromatic_linkinvent_7_9_3/rearranged_h_0169.sdf

> <i_m_source_file_index>
90

> <r_mmod_Potential_Energy-OPLS-2005>
-50.2924957275391

> <r_mmod_Stretch_Energy-OPLS-2005>
48.9294471740723

> <r_mmod_Bend_Energy-OPLS-2005>
142.281814575195

> <r_mmod_Torsional_Energy-OPLS-2005>
230.480590820312

> <r_mmod_Improper_Torsional_Energy-OPLS-2005>
4.39884757995605

> <r_mmod_Van_der_Waal_Energy-OPLS-2005>
138.733261108398

> <r_mmod_Electrostatic_Energy-OPLS-2005>
-401.548614501953

> <r_mmod_Solvation_Energy-OPLS-2005>
-233.789993286133

> <b_mmod_Minimization_Converged-OPLS-2005>
0

> <r_mmod_RMS_Derivative-OPLS-2005>
0.774736046791077

$$$$
90
                    3D
 Structure written by MMmdl.
164173  0  0  1  0            999 V2000
  -30.6381  -14.5412   20.5633 C   0  0  0  0  0  0
  -30.4441  -12.3476   19.4219 C   0  0  0  0  0  0
  -29.5030  -12.5133   18.2079 C   0  0  0  0  0  0
  -28.0240  -12.3588   18.6206 C   0  0  0  0  0  0
  -27.6629  -13.1991   19.8733 C   0  0  2  0  0  0
  -28.7071  -12.9755   20.9910 C   0  0  0  0  0  0
  -25.2610  -13.8135   20.5669 C   0  0  0  0  0  0
  -24.1853  -13.0426   20.9178 C   0  0  0  0  0  0
  -24.6391  -11.6887   20.8730 C   0  0  0  0  0  0
  -23.9053  -10.4283   21.0402 C   0  0  0  0  0  0
  -24.3608   -9.4201   21.9179 C   0  0  0  0  0  0
  -23.6285   -8.2239   22.0756 C   0  0  0  0  0  0
  -22.4268   -8.0275   21.3545 C   0  0  0  0  0  0
  -21.9900   -9.0246   20.4647 C   0  0  0  0  0  0
  -22.7227  -10.2127   20.3052 C   0  0  0  0  0  0
  -21.6849   -6.0732   22.5280 C   0  0  0  0  0  0
  -21.4009   -6.5637   23.8213 C   0  0  0  0  0  0
  -21.3661   -5.6792   24.9174 C   0  0  0  0  0  0
  -21.6046   -4.3055   24.7226 C   0  0  0  0  0  0
  -21.8818   -3.8146   23.4347 C   0  0  0  0  0  0
  -21.9192   -4.6961   22.3402 C   0  0  0  0  0  0
  -22.7878  -13.5238   21.1840 C   0  0  0  0  0  0
  -22.1661   -4.2147   21.0979 F   0  0  0  0  0  0
  -21.5633   -3.4539   25.7740 F   0  0  0  0  0  0
  -30.0321  -13.3238   20.4436 N   0  0  0  0  0  0
  -26.3031  -12.9283   20.3343 N   0  0  0  0  0  0
  -25.9315  -11.6453   20.5750 N   0  0  0  0  0  0
  -22.0513  -12.8236   22.0396 N   0  0  0  0  0  0
  -25.4346  -15.1853   20.4067 N   0  0  0  0  0  0
  -31.7668  -14.7745   20.1217 O   0  0  0  0  0  0
  -21.6632   -6.8873   21.4241 O   0  0  0  0  0  0
  -22.3574  -14.5550   20.6691 O   0  0  0  0  0  0
  -24.6203  -31.8653   23.2079 C   0  0  0  0  0  0
  -25.9076  -32.4805   23.8391 C   0  0  1  0  0  0
  -27.2279  -27.3832   20.1041 C   0  0  0  0  0  0
  -25.5912  -33.8604   24.2318 N   0  0  0  0  0  0
  -23.4112  -30.4896   21.5497 C   0  0  2  0  0  0
  -24.8577  -28.9546   20.1131 C   0  0  0  0  0  0
  -22.7443  -29.4647   22.4966 C   0  0  0  0  0  0
  -18.0276  -28.1371   22.8482 C   0  0  0  0  0  0
  -24.1488  -36.7310   23.2637 C   0  0  0  0  0  0
  -25.9469  -30.8150   21.3702 C   0  0  0  0  0  0
  -26.0236  -29.4475   20.7129 C   0  0  0  0  0  0
  -27.2140  -28.6729   20.7000 C   0  0  0  0  0  0
  -26.0431  -26.9301   19.4794 C   0  0  0  0  0  0
  -24.8658  -27.6979   19.4892 C   0  0  0  0  0  0
  -23.6228  -29.8266   20.1635 C   0  0  0  0  0  0
  -25.4104  -36.3103   24.0340 C   0  0  1  0  0  0
  -20.5870  -28.3671   23.1294 C   0  0  2  0  0  0
  -20.6764  -26.9399   22.5407 C   0  0  0  0  0  0
  -19.5744  -26.6379   21.5200 C   0  0  0  0  0  0
  -18.1922  -26.7915   22.1618 C   0  0  0  0  0  0
  -19.1526  -28.8838   23.2882 C   0  0  0  0  0  0
  -18.9456  -30.1440   23.8902 C   0  0  0  0  0  0
  -17.6457  -30.6577   24.0560 C   0  0  0  0  0  0
  -25.9038  -34.9464   23.5125 C   0  0  0  0  0  0
  -16.5347  -29.9081   23.6321 C   0  0  0  0  0  0
  -16.7263  -28.6494   23.0348 C   0  0  0  0  0  0
  -26.4481  -31.6595   25.0737 C   0  0  0  0  0  0
  -25.3732  -31.3712   26.1474 C   0  0  0  0  0  0
  -27.0318  -30.3032   24.6140 C   0  0  0  0  0  0
  -27.6050  -32.4324   25.7501 C   0  0  0  0  0  0
  -27.5575  -37.1805   24.8463 C   0  0  0  0  0  0
  -21.4163  -29.3042   22.3710 N   0  0  0  0  0  0
  -26.4290  -37.3787   23.9406 N   0  0  0  0  0  0
  -24.6781  -31.0713   22.1003 N   0  0  0  0  0  0
  -23.4193  -28.8179   23.3018 O   0  0  0  0  0  0
  -28.3602  -26.5765   20.1267 O   0  0  0  0  0  0
  -26.5604  -34.8919   22.4688 O   0  0  0  0  0  0
  -23.5381  -32.1427   23.7434 O   0  0  0  0  0  0
  -28.8957  -17.6211   21.8479 C   0  0  0  0  0  0
  -30.9962  -17.7403   20.6856 C   0  0  0  0  0  0
  -29.9397  -16.9371   21.1851 C   0  0  0  0  0  0
  -28.9917  -19.0068   22.0984 C   0  0  0  0  0  0
  -30.1414  -19.7038   21.6662 C   0  0  0  0  0  0
  -29.3201  -24.2265   20.3071 C   0  0  0  0  0  0
  -32.3040  -21.9361   23.9967 C   0  0  0  0  0  0
  -32.6501  -22.9976   22.9685 C   0  0  0  0  0  0
  -31.7640  -20.7421   23.2254 C   0  0  0  0  0  0
  -31.3846  -23.4213   22.2154 C   0  0  0  0  0  0
  -30.5166  -21.0539   22.3481 C   0  0  1  0  0  0
  -29.2859  -22.8456   21.0496 C   0  0  0  0  0  0
  -28.1120  -25.1853   20.5009 C   0  0  0  0  0  0
  -31.0888  -19.0853   20.9060 N   0  0  0  0  0  0
  -29.8320  -15.4999   21.0812 N   0  0  0  0  0  0
  -30.6315  -22.3220   21.5093 N   0  3  1  0  0  0
  -30.2496  -24.5213   19.5467 O   0  0  0  0  0  0
  -28.0351  -19.6270   22.8310 F   0  0  0  0  0  0
  -31.4828  -12.4850   19.1171 H   0  0  0  0  0  0
  -30.3820  -11.3339   19.8218 H   0  0  0  0  0  0
  -29.7524  -11.7839   17.4363 H   0  0  0  0  0  0
  -29.6554  -13.4957   17.7581 H   0  0  0  0  0  0
  -27.8461  -11.3021   18.8233 H   0  0  0  0  0  0
  -27.3707  -12.6217   17.7879 H   0  0  0  0  0  0
  -27.7048  -14.2461   19.5724 H   0  0  0  0  0  0
  -28.7038  -11.9310   21.3072 H   0  0  0  0  0  0
  -28.4554  -13.5445   21.8871 H   0  0  0  0  0  0
  -25.2751   -9.5682   22.4750 H   0  0  0  0  0  0
  -23.9996   -7.4634   22.7477 H   0  0  0  0  0  0
  -21.0831   -8.8759   19.8954 H   0  0  0  0  0  0
  -22.3680  -10.9662   19.6162 H   0  0  0  0  0  0
  -21.1995   -7.6143   23.9714 H   0  0  0  0  0  0
  -21.1488   -6.0522   25.9079 H   0  0  0  0  0  0
  -22.0598   -2.7608   23.2846 H   0  0  0  0  0  0
  -22.4115  -11.9886   22.4773 H   0  0  0  0  0  0
  -21.1134  -13.1274   22.2602 H   0  0  0  0  0  0
  -24.6614  -15.8354   20.4964 H   0  0  0  0  0  0
  -26.2728  -15.6173   20.0401 H   0  0  0  0  0  0
  -26.7147  -32.5513   23.1154 H   0  0  0  0  0  0
  -25.0064  -33.9767   25.0462 H   0  0  0  0  0  0
  -22.7019  -31.3082   21.4111 H   0  0  0  0  0  0
  -23.3746  -35.9647   23.3313 H   0  0  0  0  0  0
  -24.3584  -36.8925   22.2050 H   0  0  0  0  0  0
  -23.7252  -37.6520   23.6651 H   0  0  0  0  0  0
  -26.0667  -31.5803   20.6024 H   0  0  0  0  0  0
  -26.8320  -30.8668   21.9927 H   0  0  0  0  0  0
  -28.1114  -29.0477   21.1722 H   0  0  0  0  0  0
  -26.0090  -25.9809   18.9663 H   0  0  0  0  0  0
  -23.9748  -27.3177   19.0082 H   0  0  0  0  0  0
  -23.7347  -30.6043   19.4073 H   0  0  0  0  0  0
  -22.7464  -29.2507   19.8627 H   0  0  0  0  0  0
  -25.1281  -36.1967   25.0836 H   0  0  0  0  0  0
  -20.9953  -28.3234   24.1417 H   0  0  0  0  0  0
  -20.5655  -26.2278   23.3598 H   0  0  0  0  0  0
  -21.6636  -26.7431   22.1209 H   0  0  0  0  0  0
  -19.6904  -25.6294   21.1229 H   0  0  0  0  0  0
  -19.6682  -27.3190   20.6729 H   0  0  0  0  0  0
  -17.4188  -26.6656   21.4021 H   0  0  0  0  0  0
  -18.0331  -26.0047   22.9007 H   0  0  0  0  0  0
  -19.7933  -30.7246   24.2280 H   0  0  0  0  0  0
  -17.5016  -31.6260   24.5160 H   0  0  0  0  0  0
  -15.5348  -30.2989   23.7642 H   0  0  0  0  0  0
  -15.8659  -28.0819   22.7062 H   0  0  0  0  0  0
  -24.5908  -30.7062   25.7806 H   0  0  0  0  0  0
  -24.8913  -32.2868   26.4912 H   0  0  0  0  0  0
  -25.8066  -30.8882   27.0241 H   0  0  0  0  0  0
  -26.2872  -29.6799   24.1176 H   0  0  0  0  0  0
  -27.4062  -29.7271   25.4614 H   0  0  0  0  0  0
  -27.8722  -30.4354   23.9322 H   0  0  0  0  0  0
  -27.2668  -33.3625   26.2082 H   0  0  0  0  0  0
  -28.3848  -32.6890   25.0318 H   0  0  0  0  0  0
  -28.0730  -31.8448   26.5411 H   0  0  0  0  0  0
  -28.2589  -38.0099   24.7508 H   0  0  0  0  0  0
  -28.1077  -36.2636   24.6297 H   0  0  0  0  0  0
  -27.2301  -37.1474   25.8867 H   0  0  0  0  0  0
  -20.9324  -29.8795   21.6954 H   0  0  0  0  0  0
  -26.0182  -38.2870   24.1397 H   0  0  0  0  0  0
  -28.0438  -17.0764   22.2279 H   0  0  0  0  0  0
  -31.8133  -17.3081   20.1292 H   0  0  0  0  0  0
  -31.5671  -22.3072   24.7110 H   0  0  0  0  0  0
  -33.1890  -21.6526   24.5678 H   0  0  0  0  0  0
  -33.4076  -22.6325   22.2728 H   0  0  0  0  0  0
  -33.0849  -23.8648   23.4678 H   0  0  0  0  0  0
  -31.5210  -19.9431   23.9281 H   0  0  0  0  0  0
  -32.5722  -20.3515   22.6055 H   0  0  0  0  0  0
  -31.7055  -24.1909   21.5149 H   0  0  0  0  0  0
  -30.7181  -23.9121   22.9276 H   0  0  0  0  0  0
  -29.7267  -21.2742   23.0672 H   0  0  0  0  0  0
  -28.8191  -22.1139   20.3905 H   0  0  0  0  0  0
  -28.6283  -22.9512   21.9130 H   0  0  0  0  0  0
  -27.8103  -25.1573   21.5479 H   0  0  0  0  0  0
  -27.2961  -24.7508   19.9284 H   0  0  0  0  0  0
  -28.9628  -15.1143   21.4196 H   0  0  0  0  0  0
  -31.1632  -22.0747   20.6876 H   0  0  0  0  0  0
  1 25  1  0  0  0
  1 30  2  0  0  0
  1 85  1  0  0  0
  2  3  1  0  0  0
  2 25  1  0  0  0
  2 89  1  0  0  0
  2 90  1  0  0  0
  3  4  1  0  0  0
  3 91  1  0  0  0
  3 92  1  0  0  0
  4  5  1  0  0  0
  4 93  1  0  0  0
  4 94  1  0  0  0
  5  6  1  0  0  0
  5 26  1  0  0  0
  5 95  1  0  0  0
  6 25  1  0  0  0
  6 96  1  0  0  0
  6 97  1  0  0  0
  7  8  2  0  0  0
  7 26  1  0  0  0
  7 29  1  0  0  0
  8  9  1  0  0  0
  8 22  1  0  0  0
  9 10  1  0  0  0
  9 27  2  0  0  0
 10 11  2  0  0  0
 10 15  1  0  0  0
 11 12  1  0  0  0
 11 98  1  0  0  0
 12 13  2  0  0  0
 12 99  1  0  0  0
 13 14  1  0  0  0
 13 31  1  0  0  0
 14 15  2  0  0  0
 14100  1  0  0  0
 15101  1  0  0  0
 16 17  2  0  0  0
 16 21  1  0  0  0
 16 31  1  0  0  0
 17 18  1  0  0  0
 17102  1  0  0  0
 18 19  2  0  0  0
 18103  1  0  0  0
 19 20  1  0  0  0
 19 24  1  0  0  0
 20 21  2  0  0  0
 20104  1  0  0  0
 21 23  1  0  0  0
 22 28  1  0  0  0
 22 32  2  0  0  0
 26 27  1  0  0  0
 28105  1  0  0  0
 28106  1  0  0  0
 29107  1  0  0  0
 29108  1  0  0  0
 33 34  1  0  0  0
 33 66  1  0  0  0
 33 70  2  0  0  0
 34 36  1  0  0  0
 34 59  1  0  0  0
 34109  1  0  0  0
 35 44  2  0  0  0
 35 45  1  0  0  0
 35 68  1  0  0  0
 36 56  1  0  0  0
 36110  1  0  0  0
 37 39  1  0  0  0
 37 47  1  0  0  0
 37 66  1  0  0  0
 37111  1  0  0  0
 38 43  2  0  0  0
 38 46  1  0  0  0
 38 47  1  0  0  0
 39 64  1  0  0  0
 39 67  2  0  0  0
 40 52  1  0  0  0
 40 53  2  0  0  0
 40 58  1  0  0  0
 41112  1  0  0  0
 41113  1  0  0  0
 41114  1  0  0  0
 41 48  1  0  0  0
 42 43  1  0  0  0
 42 66  1  0  0  0
 42115  1  0  0  0
 42116  1  0  0  0
 43 44  1  0  0  0
 44117  1  0  0  0
 45 46  2  0  0  0
 45118  1  0  0  0
 46119  1  0  0  0
 47120  1  0  0  0
 47121  1  0  0  0
 48 56  1  0  0  0
 48 65  1  0  0  0
 48122  1  0  0  0
 49 50  1  0  0  0
 49 53  1  0  0  0
 49 64  1  0  0  0
 49123  1  0  0  0
 50 51  1  0  0  0
 50124  1  0  0  0
 50125  1  0  0  0
 51 52  1  0  0  0
 51126  1  0  0  0
 51127  1  0  0  0
 52128  1  0  0  0
 52129  1  0  0  0
 53 54  1  0  0  0
 54 55  2  0  0  0
 54130  1  0  0  0
 55 57  1  0  0  0
 55131  1  0  0  0
 56 69  2  0  0  0
 57 58  2  0  0  0
 57132  1  0  0  0
 58133  1  0  0  0
 59 60  1  0  0  0
 59 61  1  0  0  0
 59 62  1  0  0  0
 60134  1  0  0  0
 60135  1  0  0  0
 60136  1  0  0  0
 61137  1  0  0  0
 61138  1  0  0  0
 61139  1  0  0  0
 62140  1  0  0  0
 62141  1  0  0  0
 62142  1  0  0  0
 63 65  1  0  0  0
 63143  1  0  0  0
 63144  1  0  0  0
 63145  1  0  0  0
 64146  1  0  0  0
 65147  1  0  0  0
 68 83  1  0  0  0
 71 73  2  0  0  0
 71 74  1  0  0  0
 71148  1  0  0  0
 72 73  1  0  0  0
 72 84  2  0  0  0
 72149  1  0  0  0
 73 85  1  0  0  0
 74 75  2  0  0  0
 74 88  1  0  0  0
 75 84  1  0  0  0
 75 81  1  0  0  0
 76 82  1  0  0  0
 76 83  1  0  0  0
 76 87  2  0  0  0
 77 78  1  0  0  0
 77 79  1  0  0  0
 77150  1  0  0  0
 77151  1  0  0  0
 78 80  1  0  0  0
 78152  1  0  0  0
 78153  1  0  0  0
 79 81  1  0  0  0
 79154  1  0  0  0
 79155  1  0  0  0
 80 86  1  0  0  0
 80156  1  0  0  0
 80157  1  0  0  0
 81 86  1  0  0  0
 81158  1  0  0  0
 82159  1  0  0  0
 82160  1  0  0  0
 82 86  1  0  0  0
 83161  1  0  0  0
 83162  1  0  0  0
 85163  1  0  0  0
 86164  1  0  0  0
M  CHG  1  86   1
M  ISO  4   1 100  68 101  83 101  85 100
M  END
> <chiral flag>
0

> <version>
0

> <s_m_source_file>
/data/baiqing/PycharmProjects/Reinvent-master-3.2/result/LINK_invent/BTK/process_docking_weight1_custom_product_contain_oxygen_bond_distance_aromatic_linkinvent_7_9_3/rearranged_h_0169.sdf

> <i_m_source_file_index>
91

> <r_mmod_Potential_Energy-OPLS-2005>
-275.446746826172

> <r_mmod_Stretch_Energy-OPLS-2005>
61.9212913513184

> <r_mmod_Bend_Energy-OPLS-2005>
140.042404174805

> <r_mmod_Torsional_Energy-OPLS-2005>
265.920745849609

> <r_mmod_Improper_Torsional_Energy-OPLS-2005>
6.34402418136597

> <r_mmod_Van_der_Waal_Energy-OPLS-2005>
168.110214233398

> <r_mmod_Electrostatic_Energy-OPLS-2005>
-486.334167480469

> <r_mmod_Solvation_Energy-OPLS-2005>
-455.701110839844

> <b_mmod_Minimization_Converged-OPLS-2005>
0

> <r_mmod_RMS_Derivative-OPLS-2005>
0.925915420055389

$$$$
91
                    3D
 Structure written by MMmdl.
160168  0  0  1  0            999 V2000
  -30.6910  -14.4778   20.5148 C   0  0  0  0  0  0
  -30.4106  -12.2868   19.4374 C   0  0  0  0  0  0
  -29.4929  -12.4852   18.2129 C   0  0  0  0  0  0
  -28.0088  -12.3636   18.6161 C   0  0  0  0  0  0
  -27.6590  -13.2066   19.8718 C   0  0  2  0  0  0
  -28.6988  -13.0049   20.9965 C   0  0  0  0  0  0
  -25.2575  -13.8192   20.5691 C   0  0  0  0  0  0
  -24.1821  -13.0468   20.9184 C   0  0  0  0  0  0
  -24.6367  -11.6926   20.8759 C   0  0  0  0  0  0
  -23.9016  -10.4320   21.0429 C   0  0  0  0  0  0
  -24.3555   -9.4223   21.9204 C   0  0  0  0  0  0
  -23.6258   -8.2243   22.0757 C   0  0  0  0  0  0
  -22.4252   -8.0283   21.3538 C   0  0  0  0  0  0
  -21.9882   -9.0259   20.4652 C   0  0  0  0  0  0
  -22.7191  -10.2155   20.3074 C   0  0  0  0  0  0
  -21.6853   -6.0738   22.5275 C   0  0  0  0  0  0
  -21.4031   -6.5636   23.8214 C   0  0  0  0  0  0
  -21.3653   -5.6777   24.9176 C   0  0  0  0  0  0
  -21.6053   -4.3044   24.7225 C   0  0  0  0  0  0
  -21.8826   -3.8136   23.4337 C   0  0  0  0  0  0
  -21.9198   -4.6963   22.3398 C   0  0  0  0  0  0
  -22.7843  -13.5266   21.1824 C   0  0  0  0  0  0
  -22.1633   -4.2154   21.0976 F   0  0  0  0  0  0
  -21.5614   -3.4514   25.7719 F   0  0  0  0  0  0
  -30.0328  -13.2887   20.4445 N   0  0  0  0  0  0
  -26.3000  -12.9342   20.3353 N   0  0  0  0  0  0
  -25.9296  -11.6513   20.5784 N   0  0  0  0  0  0
  -22.0440  -12.8309   22.0395 N   0  0  0  0  0  0
  -25.4320  -15.1917   20.4111 N   0  0  0  0  0  0
  -31.8449  -14.6281   20.1001 O   0  0  0  0  0  0
  -21.6618   -6.8885   21.4242 O   0  0  0  0  0  0
  -22.3544  -14.5558   20.6630 O   0  0  0  0  0  0
  -24.6183  -31.8674   23.2153 C   0  0  0  0  0  0
  -25.9076  -32.4826   23.8437 C   0  0  1  0  0  0
  -27.2185  -27.4108   20.0767 C   0  0  0  0  0  0
  -25.5947  -33.8631   24.2352 N   0  0  0  0  0  0
  -23.4047  -30.4961   21.5586 C   0  0  2  0  0  0
  -24.8466  -28.9735   20.1098 C   0  0  0  0  0  0
  -22.7437  -29.4640   22.5008 C   0  0  0  0  0  0
  -18.0273  -28.1395   22.8482 C   0  0  0  0  0  0
  -24.1463  -36.7284   23.2636 C   0  0  0  0  0  0
  -25.9410  -30.8198   21.3800 C   0  0  0  0  0  0
  -26.0108  -29.4570   20.7176 C   0  0  0  0  0  0
  -27.1963  -28.6810   20.7064 C   0  0  0  0  0  0
  -26.0310  -26.9734   19.4317 C   0  0  0  0  0  0
  -24.8523  -27.7316   19.4642 C   0  0  0  0  0  0
  -23.6124  -29.8443   20.1673 C   0  0  0  0  0  0
  -25.4095  -36.3111   24.0339 C   0  0  1  0  0  0
  -20.5848  -28.3639   23.1327 C   0  0  2  0  0  0
  -20.6761  -26.9391   22.5398 C   0  0  0  0  0  0
  -19.5737  -26.6392   21.5199 C   0  0  0  0  0  0
  -18.1913  -26.7963   22.1563 C   0  0  0  0  0  0
  -19.1525  -28.8827   23.2916 C   0  0  0  0  0  0
  -18.9452  -30.1413   23.8977 C   0  0  0  0  0  0
  -17.6462  -30.6565   24.0658 C   0  0  0  0  0  0
  -25.9033  -34.9484   23.5128 C   0  0  0  0  0  0
  -16.5361  -29.9088   23.6374 C   0  0  0  0  0  0
  -16.7253  -28.6509   23.0362 C   0  0  0  0  0  0
  -26.4518  -31.6609   25.0767 C   0  0  0  0  0  0
  -25.3791  -31.3727   26.1512 C   0  0  0  0  0  0
  -27.0364  -30.3055   24.6170 C   0  0  0  0  0  0
  -27.6090  -32.4338   25.7530 C   0  0  0  0  0  0
  -27.5565  -37.1806   24.8472 C   0  0  0  0  0  0
  -21.4146  -29.3034   22.3777 N   0  0  0  0  0  0
  -26.4274  -37.3802   23.9427 N   0  0  0  0  0  0
  -24.6726  -31.0755   22.1083 N   0  0  0  0  0  0
  -23.4216  -28.8138   23.3003 O   0  0  0  0  0  0
  -28.3664  -26.6270   20.1095 O   0  0  0  0  0  0
  -26.5552  -34.8921   22.4670 O   0  0  0  0  0  0
  -23.5373  -32.1463   23.7523 O   0  0  0  0  0  0
  -30.3087  -16.9967   18.9239 C   0  0  0  0  0  0
  -30.2129  -18.2526   18.3035 C   0  0  0  0  0  0
  -29.5161  -17.9732   21.0032 C   0  0  0  0  0  0
  -29.4198  -19.2636   20.3982 C   0  0  0  0  0  0
  -29.9572  -16.8346   20.2843 C   0  0  0  0  0  0
  -29.7509  -19.3743   19.0165 C   0  0  0  0  0  0
  -29.1545  -24.2442   20.3674 C   0  0  0  0  0  0
  -29.0440  -20.3550   22.7345 C   0  0  0  0  0  0
  -28.5028  -22.9127   20.7865 C   0  0  0  0  0  0
  -28.2071  -25.2506   19.6862 C   0  0  0  0  0  0
  -28.8901  -20.4811   21.2049 C   0  0  1  0  0  0
  -29.6135  -20.5698   18.3044 N   0  0  0  0  0  0
  -29.9515  -15.5371   20.9024 N   0  0  0  0  0  0
  -29.4597  -21.7769   20.7455 N   0  3  0  0  0  0
  -30.3504  -24.4833   20.5713 O   0  0  0  0  0  0
  -31.4589  -12.3602   19.1428 H   0  0  0  0  0  0
  -30.2846  -11.2816   19.8445 H   0  0  0  0  0  0
  -29.7316  -11.7462   17.4462 H   0  0  0  0  0  0
  -29.6774  -13.4651   17.7719 H   0  0  0  0  0  0
  -27.8076  -11.3078   18.8009 H   0  0  0  0  0  0
  -27.3592  -12.6437   17.7856 H   0  0  0  0  0  0
  -27.7026  -14.2515   19.5638 H   0  0  0  0  0  0
  -28.6637  -11.9772   21.3582 H   0  0  0  0  0  0
  -28.4679  -13.6333   21.8582 H   0  0  0  0  0  0
  -25.2690   -9.5688   22.4792 H   0  0  0  0  0  0
  -23.9995   -7.4634   22.7471 H   0  0  0  0  0  0
  -21.0816   -8.8747   19.8942 H   0  0  0  0  0  0
  -22.3643  -10.9677   19.6175 H   0  0  0  0  0  0
  -21.2003   -7.6138   23.9727 H   0  0  0  0  0  0
  -21.1472   -6.0487   25.9081 H   0  0  0  0  0  0
  -22.0616   -2.7601   23.2828 H   0  0  0  0  0  0
  -22.3970  -11.9960   22.4817 H   0  0  0  0  0  0
  -21.1076  -13.1399   22.2567 H   0  0  0  0  0  0
  -24.6714  -15.8552   20.5148 H   0  0  0  0  0  0
  -26.2837  -15.6214   20.0748 H   0  0  0  0  0  0
  -26.7149  -32.5534   23.1204 H   0  0  0  0  0  0
  -25.0269  -33.9820   25.0605 H   0  0  0  0  0  0
  -22.6914  -31.3121   21.4294 H   0  0  0  0  0  0
  -23.3746  -35.9591   23.3312 H   0  0  0  0  0  0
  -24.3555  -36.8879   22.2045 H   0  0  0  0  0  0
  -23.7176  -37.6483   23.6629 H   0  0  0  0  0  0
  -26.0667  -31.5884   20.6153 H   0  0  0  0  0  0
  -26.8245  -30.8591   22.0049 H   0  0  0  0  0  0
  -28.0890  -29.0490   21.1932 H   0  0  0  0  0  0
  -25.9757  -26.0532   18.8710 H   0  0  0  0  0  0
  -23.9631  -27.3667   18.9678 H   0  0  0  0  0  0
  -23.7270  -30.6267   19.4165 H   0  0  0  0  0  0
  -22.7327  -29.2717   19.8682 H   0  0  0  0  0  0
  -25.1266  -36.1989   25.0829 H   0  0  0  0  0  0
  -20.9931  -28.3167   24.1431 H   0  0  0  0  0  0
  -20.5651  -26.2250   23.3571 H   0  0  0  0  0  0
  -21.6624  -26.7449   22.1174 H   0  0  0  0  0  0
  -19.6868  -25.6299   21.1211 H   0  0  0  0  0  0
  -19.6722  -27.3198   20.6720 H   0  0  0  0  0  0
  -17.4209  -26.6737   21.3945 H   0  0  0  0  0  0
  -18.0202  -26.0090   22.8905 H   0  0  0  0  0  0
  -19.7926  -30.7188   24.2422 H   0  0  0  0  0  0
  -17.5046  -31.6220   24.5319 H   0  0  0  0  0  0
  -15.5372  -30.3001   23.7703 H   0  0  0  0  0  0
  -15.8661  -28.0836   22.7040 H   0  0  0  0  0  0
  -24.5965  -30.7060   25.7884 H   0  0  0  0  0  0
  -24.8989  -32.2881   26.4967 H   0  0  0  0  0  0
  -25.8156  -30.8922   27.0268 H   0  0  0  0  0  0
  -26.2931  -29.6822   24.1190 H   0  0  0  0  0  0
  -27.4093  -29.7295   25.4644 H   0  0  0  0  0  0
  -27.8780  -30.4385   23.9369 H   0  0  0  0  0  0
  -27.2716  -33.3636   26.2111 H   0  0  0  0  0  0
  -28.3905  -32.6896   25.0369 H   0  0  0  0  0  0
  -28.0748  -31.8469   26.5445 H   0  0  0  0  0  0
  -28.2610  -38.0087   24.7548 H   0  0  0  0  0  0
  -28.1038  -36.2626   24.6273 H   0  0  0  0  0  0
  -27.2285  -37.1435   25.8877 H   0  0  0  0  0  0
  -20.9283  -29.8923   21.7176 H   0  0  0  0  0  0
  -26.0153  -38.2869   24.1481 H   0  0  0  0  0  0
  -30.6238  -16.1562   18.3210 H   0  0  0  0  0  0
  -30.4666  -18.3348   17.2547 H   0  0  0  0  0  0
  -29.2321  -17.8348   22.0340 H   0  0  0  0  0  0
  -28.4607  -19.5281   23.1397 H   0  0  0  0  0  0
  -28.6797  -21.2490   23.2415 H   0  0  0  0  0  0
  -30.0852  -20.2104   23.0255 H   0  0  0  0  0  0
  -27.6595  -22.6961   20.1302 H   0  0  0  0  0  0
  -28.1077  -23.0373   21.7942 H   0  0  0  0  0  0
  -27.2121  -24.8795   19.9288 H   0  0  0  0  0  0
  -28.3263  -25.1883   18.6030 H   0  0  0  0  0  0
  -27.8216  -20.4977   20.9828 H   0  0  0  0  0  0
  -30.1600  -20.5641   17.4463 H   0  0  0  0  0  0
  -28.6603  -20.7122   17.9791 H   0  0  0  0  0  0
  -29.1392  -15.3128   21.4581 H   0  0  0  0  0  0
  -30.3203  -22.0065   21.2146 H   0  0  0  0  0  0
  -29.6811  -21.5877   19.7657 H   0  0  0  0  0  0
  1 25  1  0  0  0
  1 30  2  0  0  0
  1 83  1  0  0  0
  2  3  1  0  0  0
  2 25  1  0  0  0
  2 86  1  0  0  0
  2 87  1  0  0  0
  3  4  1  0  0  0
  3 88  1  0  0  0
  3 89  1  0  0  0
  4  5  1  0  0  0
  4 90  1  0  0  0
  4 91  1  0  0  0
  5  6  1  0  0  0
  5 26  1  0  0  0
  5 92  1  0  0  0
  6 25  1  0  0  0
  6 93  1  0  0  0
  6 94  1  0  0  0
  7  8  2  0  0  0
  7 26  1  0  0  0
  7 29  1  0  0  0
  8  9  1  0  0  0
  8 22  1  0  0  0
  9 10  1  0  0  0
  9 27  2  0  0  0
 10 11  2  0  0  0
 10 15  1  0  0  0
 11 12  1  0  0  0
 11 95  1  0  0  0
 12 13  2  0  0  0
 12 96  1  0  0  0
 13 14  1  0  0  0
 13 31  1  0  0  0
 14 15  2  0  0  0
 14 97  1  0  0  0
 15 98  1  0  0  0
 16 17  2  0  0  0
 16 21  1  0  0  0
 16 31  1  0  0  0
 17 18  1  0  0  0
 17 99  1  0  0  0
 18 19  2  0  0  0
 18100  1  0  0  0
 19 20  1  0  0  0
 19 24  1  0  0  0
 20 21  2  0  0  0
 20101  1  0  0  0
 21 23  1  0  0  0
 22 28  1  0  0  0
 22 32  2  0  0  0
 26 27  1  0  0  0
 28102  1  0  0  0
 28103  1  0  0  0
 29104  1  0  0  0
 29105  1  0  0  0
 33 34  1  0  0  0
 33 66  1  0  0  0
 33 70  2  0  0  0
 34 36  1  0  0  0
 34 59  1  0  0  0
 34106  1  0  0  0
 35 44  2  0  0  0
 35 45  1  0  0  0
 35 68  1  0  0  0
 36 56  1  0  0  0
 36107  1  0  0  0
 37 39  1  0  0  0
 37 47  1  0  0  0
 37 66  1  0  0  0
 37108  1  0  0  0
 38 43  2  0  0  0
 38 46  1  0  0  0
 38 47  1  0  0  0
 39 64  1  0  0  0
 39 67  2  0  0  0
 40 52  1  0  0  0
 40 53  2  0  0  0
 40 58  1  0  0  0
 41109  1  0  0  0
 41110  1  0  0  0
 41111  1  0  0  0
 41 48  1  0  0  0
 42 43  1  0  0  0
 42 66  1  0  0  0
 42112  1  0  0  0
 42113  1  0  0  0
 43 44  1  0  0  0
 44114  1  0  0  0
 45 46  2  0  0  0
 45115  1  0  0  0
 46116  1  0  0  0
 47117  1  0  0  0
 47118  1  0  0  0
 48 56  1  0  0  0
 48 65  1  0  0  0
 48119  1  0  0  0
 49 50  1  0  0  0
 49 53  1  0  0  0
 49 64  1  0  0  0
 49120  1  0  0  0
 50 51  1  0  0  0
 50121  1  0  0  0
 50122  1  0  0  0
 51 52  1  0  0  0
 51123  1  0  0  0
 51124  1  0  0  0
 52125  1  0  0  0
 52126  1  0  0  0
 53 54  1  0  0  0
 54 55  2  0  0  0
 54127  1  0  0  0
 55 57  1  0  0  0
 55128  1  0  0  0
 56 69  2  0  0  0
 57 58  2  0  0  0
 57129  1  0  0  0
 58130  1  0  0  0
 59 60  1  0  0  0
 59 61  1  0  0  0
 59 62  1  0  0  0
 60131  1  0  0  0
 60132  1  0  0  0
 60133  1  0  0  0
 61134  1  0  0  0
 61135  1  0  0  0
 61136  1  0  0  0
 62137  1  0  0  0
 62138  1  0  0  0
 62139  1  0  0  0
 63 65  1  0  0  0
 63140  1  0  0  0
 63141  1  0  0  0
 63142  1  0  0  0
 64143  1  0  0  0
 65144  1  0  0  0
 68 80  1  0  0  0
 71 72  2  0  0  0
 71 75  1  0  0  0
 71145  1  0  0  0
 72 76  1  0  0  0
 72146  1  0  0  0
 73 74  1  0  0  0
 73 75  2  0  0  0
 73147  1  0  0  0
 74 76  2  0  0  0
 74 81  1  0  0  0
 75 83  1  0  0  0
 76 82  1  0  0  0
 77 79  1  0  0  0
 77 80  1  0  0  0
 77 85  2  0  0  0
 78148  1  0  0  0
 78149  1  0  0  0
 78150  1  0  0  0
 78 81  1  0  0  0
 79 84  1  0  0  0
 79151  1  0  0  0
 79152  1  0  0  0
 80153  1  0  0  0
 80154  1  0  0  0
 81 84  1  0  0  0
 81155  1  0  0  0
 82156  1  0  0  0
 82157  1  0  0  0
 83158  1  0  0  0
 84159  1  0  0  0
 84160  1  0  0  0
M  CHG  1  84   1
M  ISO  4   1 100  68 101  80 101  83 100
M  END
> <chiral flag>
0

> <version>
0

> <s_m_source_file>
/data/baiqing/PycharmProjects/Reinvent-master-3.2/result/LINK_invent/BTK/process_docking_weight1_custom_product_contain_oxygen_bond_distance_aromatic_linkinvent_7_9_3/rearranged_h_0169.sdf

> <i_m_source_file_index>
92

> <r_mmod_Potential_Energy-OPLS-2005>
-327.986755371094

> <r_mmod_Stretch_Energy-OPLS-2005>
44.1837615966797

> <r_mmod_Bend_Energy-OPLS-2005>
105.250617980957

> <r_mmod_Torsional_Energy-OPLS-2005>
259.157165527344

> <r_mmod_Improper_Torsional_Energy-OPLS-2005>
12.24001121521

> <r_mmod_Van_der_Waal_Energy-OPLS-2005>
179.612335205078

> <r_mmod_Electrostatic_Energy-OPLS-2005>
-469.120666503906

> <r_mmod_Solvation_Energy-OPLS-2005>
-478.485321044922

> <b_mmod_Minimization_Converged-OPLS-2005>
0

> <r_mmod_RMS_Derivative-OPLS-2005>
3.35536170005798

$$$$
92
                    3D
 Structure written by MMmdl.
155163  0  0  1  0            999 V2000
  -30.7376  -14.3994   20.6548 C   0  0  0  0  0  0
  -30.4217  -12.2964   19.3988 C   0  0  0  0  0  0
  -29.4865  -12.5197   18.1944 C   0  0  0  0  0  0
  -28.0098  -12.3769   18.6111 C   0  0  0  0  0  0
  -27.6656  -13.2011   19.8799 C   0  0  2  0  0  0
  -28.7046  -12.9427   20.9931 C   0  0  0  0  0  0
  -25.2605  -13.8154   20.5677 C   0  0  0  0  0  0
  -24.1845  -13.0437   20.9164 C   0  0  0  0  0  0
  -24.6391  -11.6902   20.8726 C   0  0  0  0  0  0
  -23.9056  -10.4291   21.0402 C   0  0  0  0  0  0
  -24.3610   -9.4209   21.9182 C   0  0  0  0  0  0
  -23.6287   -8.2244   22.0754 C   0  0  0  0  0  0
  -22.4270   -8.0281   21.3544 C   0  0  0  0  0  0
  -21.9903   -9.0253   20.4646 C   0  0  0  0  0  0
  -22.7230  -10.2133   20.3052 C   0  0  0  0  0  0
  -21.6852   -6.0734   22.5279 C   0  0  0  0  0  0
  -21.4013   -6.5638   23.8212 C   0  0  0  0  0  0
  -21.3658   -5.6791   24.9174 C   0  0  0  0  0  0
  -21.6045   -4.3055   24.7226 C   0  0  0  0  0  0
  -21.8820   -3.8146   23.4347 C   0  0  0  0  0  0
  -21.9192   -4.6962   22.3402 C   0  0  0  0  0  0
  -22.7869  -13.5241   21.1833 C   0  0  0  0  0  0
  -22.1662   -4.2147   21.0980 F   0  0  0  0  0  0
  -21.5629   -3.4539   25.7739 F   0  0  0  0  0  0
  -30.0425  -13.2491   20.4523 N   0  0  0  0  0  0
  -26.3042  -12.9313   20.3382 N   0  0  0  0  0  0
  -25.9315  -11.6476   20.5759 N   0  0  0  0  0  0
  -22.0509  -12.8235   22.0391 N   0  0  0  0  0  0
  -25.4342  -15.1871   20.4096 N   0  0  0  0  0  0
  -31.7987  -14.6599   20.0774 O   0  0  0  0  0  0
  -21.6636   -6.8877   21.4241 O   0  0  0  0  0  0
  -22.3557  -14.5551   20.6689 O   0  0  0  0  0  0
  -24.6123  -31.8696   23.2117 C   0  0  0  0  0  0
  -25.9026  -32.4832   23.8406 C   0  0  1  0  0  0
  -27.2361  -27.4576   20.0927 C   0  0  0  0  0  0
  -25.5891  -33.8629   24.2339 N   0  0  0  0  0  0
  -23.3992  -30.4926   21.5519 C   0  0  2  0  0  0
  -24.8460  -28.9583   20.1183 C   0  0  0  0  0  0
  -22.7395  -29.4666   22.5005 C   0  0  0  0  0  0
  -18.0268  -28.1374   22.8495 C   0  0  0  0  0  0
  -24.1485  -36.7321   23.2639 C   0  0  0  0  0  0
  -25.9253  -30.8414   21.3613 C   0  0  0  0  0  0
  -26.0043  -29.4757   20.7128 C   0  0  0  0  0  0
  -27.2041  -28.7314   20.6985 C   0  0  0  0  0  0
  -26.0630  -26.9470   19.4958 C   0  0  0  0  0  0
  -24.8680  -27.6909   19.5095 C   0  0  0  0  0  0
  -23.6069  -29.8230   20.1670 C   0  0  0  0  0  0
  -25.4105  -36.3119   24.0341 C   0  0  1  0  0  0
  -20.5856  -28.3656   23.1327 C   0  0  2  0  0  0
  -20.6759  -26.9397   22.5419 C   0  0  0  0  0  0
  -19.5740  -26.6387   21.5211 C   0  0  0  0  0  0
  -18.1917  -26.7922   22.1621 C   0  0  0  0  0  0
  -19.1517  -28.8832   23.2909 C   0  0  0  0  0  0
  -18.9447  -30.1439   23.8917 C   0  0  0  0  0  0
  -17.6450  -30.6582   24.0568 C   0  0  0  0  0  0
  -25.9029  -34.9482   23.5137 C   0  0  0  0  0  0
  -16.5341  -29.9087   23.6324 C   0  0  0  0  0  0
  -16.7259  -28.6503   23.0347 C   0  0  0  0  0  0
  -26.4464  -31.6600   25.0721 C   0  0  0  0  0  0
  -25.3741  -31.3691   26.1477 C   0  0  0  0  0  0
  -27.0291  -30.3051   24.6069 C   0  0  0  0  0  0
  -27.6048  -32.4311   25.7480 C   0  0  0  0  0  0
  -27.5579  -37.1816   24.8467 C   0  0  0  0  0  0
  -21.4127  -29.3030   22.3741 N   0  0  0  0  0  0
  -26.4296  -37.3798   23.9406 N   0  0  0  0  0  0
  -24.6638  -31.0815   22.1007 N   0  0  0  0  0  0
  -23.4177  -28.8209   23.3041 O   0  0  0  0  0  0
  -28.4053  -26.7368   20.0574 O   0  0  0  0  0  0
  -26.5589  -34.8929   22.4696 O   0  0  0  0  0  0
  -23.5322  -32.1437   23.7527 O   0  0  0  0  0  0
  -30.4360  -17.6956   21.2581 C   0  0  0  0  0  0
  -31.7866  -18.9283   22.8724 C   0  0  0  0  0  0
  -31.5206  -16.5162   23.1060 C   0  0  0  0  0  0
  -30.9646  -18.9288   21.7242 C   0  0  0  0  0  0
  -30.7231  -16.4907   21.9436 C   0  0  0  0  0  0
  -32.0577  -17.7328   23.5639 C   0  0  0  0  0  0
  -28.3489  -25.4347   20.4881 C   0  0  0  0  0  0
  -29.1540  -24.4775   19.9910 C   0  0  0  0  0  0
  -29.0855  -23.0756   20.4778 C   0  0  0  0  0  0
  -29.7715  -20.5845   20.2560 C   0  0  0  0  0  0
  -29.8807  -22.0105   19.6910 C   0  0  0  0  0  0
  -30.7620  -20.1846   21.0769 N   0  0  0  0  0  0
  -30.1677  -15.2614   21.5104 N   0  0  0  0  0  0
  -28.4146  -22.7634   21.4689 O   0  0  0  0  0  0
  -28.8255  -19.8651   19.9213 O   0  0  0  0  0  0
  -30.0469  -24.7708   19.0347 O   0  0  0  0  0  0
  -32.8361  -17.7541   24.6723 F   0  0  0  0  0  0
  -31.4642  -12.4035   19.0934 H   0  0  0  0  0  0
  -30.3272  -11.2752   19.7714 H   0  0  0  0  0  0
  -29.7200  -11.8095   17.3998 H   0  0  0  0  0  0
  -29.6555  -13.5131   17.7760 H   0  0  0  0  0  0
  -27.8172  -11.3190   18.7941 H   0  0  0  0  0  0
  -27.3564  -12.6652   17.7870 H   0  0  0  0  0  0
  -27.7232  -14.2548   19.6059 H   0  0  0  0  0  0
  -28.6736  -11.8960   21.2993 H   0  0  0  0  0  0
  -28.4531  -13.5068   21.8916 H   0  0  0  0  0  0
  -25.2757   -9.5686   22.4755 H   0  0  0  0  0  0
  -23.9997   -7.4637   22.7475 H   0  0  0  0  0  0
  -21.0834   -8.8772   19.8952 H   0  0  0  0  0  0
  -22.3690  -10.9671   19.6160 H   0  0  0  0  0  0
  -21.2001   -7.6146   23.9714 H   0  0  0  0  0  0
  -21.1482   -6.0522   25.9078 H   0  0  0  0  0  0
  -22.0598   -2.7608   23.2848 H   0  0  0  0  0  0
  -22.4114  -11.9885   22.4767 H   0  0  0  0  0  0
  -21.1133  -13.1272   22.2607 H   0  0  0  0  0  0
  -24.6722  -15.8470   20.5213 H   0  0  0  0  0  0
  -26.2956  -15.6254   20.1069 H   0  0  0  0  0  0
  -26.7099  -32.5556   23.1177 H   0  0  0  0  0  0
  -25.0049  -33.9796   25.0490 H   0  0  0  0  0  0
  -22.6870  -31.3086   21.4130 H   0  0  0  0  0  0
  -23.3740  -35.9663   23.3322 H   0  0  0  0  0  0
  -24.3579  -36.8910   22.2049 H   0  0  0  0  0  0
  -23.7247  -37.6538   23.6634 H   0  0  0  0  0  0
  -26.0317  -31.6061   20.5905 H   0  0  0  0  0  0
  -26.8157  -30.8987   21.9756 H   0  0  0  0  0  0
  -28.1028  -29.1279   21.1500 H   0  0  0  0  0  0
  -26.0758  -25.9791   19.0146 H   0  0  0  0  0  0
  -23.9777  -27.2870   19.0473 H   0  0  0  0  0  0
  -23.7134  -30.5967   19.4058 H   0  0  0  0  0  0
  -22.7316  -29.2409   19.8729 H   0  0  0  0  0  0
  -25.1282  -36.1992   25.0835 H   0  0  0  0  0  0
  -20.9947  -28.3217   24.1448 H   0  0  0  0  0  0
  -20.5661  -26.2263   23.3601 H   0  0  0  0  0  0
  -21.6632  -26.7443   22.1213 H   0  0  0  0  0  0
  -19.6903  -25.6302   21.1229 H   0  0  0  0  0  0
  -19.6682  -27.3208   20.6750 H   0  0  0  0  0  0
  -17.4189  -26.6675   21.4020 H   0  0  0  0  0  0
  -18.0317  -26.0055   22.9009 H   0  0  0  0  0  0
  -19.7923  -30.7250   24.2295 H   0  0  0  0  0  0
  -17.5007  -31.6264   24.5166 H   0  0  0  0  0  0
  -15.5344  -30.2998   23.7635 H   0  0  0  0  0  0
  -15.8657  -28.0831   22.7050 H   0  0  0  0  0  0
  -24.5918  -30.7032   25.7816 H   0  0  0  0  0  0
  -24.8926  -32.2838   26.4943 H   0  0  0  0  0  0
  -25.8108  -30.8852   27.0223 H   0  0  0  0  0  0
  -26.2824  -29.6817   24.1137 H   0  0  0  0  0  0
  -27.4093  -29.7278   25.4507 H   0  0  0  0  0  0
  -27.8643  -30.4385   23.9189 H   0  0  0  0  0  0
  -27.2676  -33.3598   26.2094 H   0  0  0  0  0  0
  -28.3839  -32.6889   25.0293 H   0  0  0  0  0  0
  -28.0737  -31.8410   26.5364 H   0  0  0  0  0  0
  -28.2613  -38.0098   24.7499 H   0  0  0  0  0  0
  -28.1059  -36.2630   24.6311 H   0  0  0  0  0  0
  -27.2297  -37.1493   25.8870 H   0  0  0  0  0  0
  -20.9282  -29.8755   21.6969 H   0  0  0  0  0  0
  -26.0190  -38.2882   24.1395 H   0  0  0  0  0  0
  -29.8217  -17.6565   20.3705 H   0  0  0  0  0  0
  -32.2127  -19.8497   23.2424 H   0  0  0  0  0  0
  -31.7318  -15.6064   23.6489 H   0  0  0  0  0  0
  -27.6040  -25.2697   21.2573 H   0  0  0  0  0  0
  -30.9286  -22.3084   19.6511 H   0  0  0  0  0  0
  -29.5230  -22.0058   18.6615 H   0  0  0  0  0  0
  -31.4339  -20.9033   21.3107 H   0  0  0  0  0  0
  -29.3013  -14.9664   21.9357 H   0  0  0  0  0  0
  -29.9533  -25.6976   18.8531 H   0  0  0  0  0  0
  1 25  1  0  0  0
  1 30  2  0  0  0
  1 83  1  0  0  0
  2  3  1  0  0  0
  2 25  1  0  0  0
  2 88  1  0  0  0
  2 89  1  0  0  0
  3  4  1  0  0  0
  3 90  1  0  0  0
  3 91  1  0  0  0
  4  5  1  0  0  0
  4 92  1  0  0  0
  4 93  1  0  0  0
  5  6  1  0  0  0
  5 26  1  0  0  0
  5 94  1  0  0  0
  6 25  1  0  0  0
  6 95  1  0  0  0
  6 96  1  0  0  0
  7  8  2  0  0  0
  7 26  1  0  0  0
  7 29  1  0  0  0
  8  9  1  0  0  0
  8 22  1  0  0  0
  9 10  1  0  0  0
  9 27  2  0  0  0
 10 11  2  0  0  0
 10 15  1  0  0  0
 11 12  1  0  0  0
 11 97  1  0  0  0
 12 13  2  0  0  0
 12 98  1  0  0  0
 13 14  1  0  0  0
 13 31  1  0  0  0
 14 15  2  0  0  0
 14 99  1  0  0  0
 15100  1  0  0  0
 16 17  2  0  0  0
 16 21  1  0  0  0
 16 31  1  0  0  0
 17 18  1  0  0  0
 17101  1  0  0  0
 18 19  2  0  0  0
 18102  1  0  0  0
 19 20  1  0  0  0
 19 24  1  0  0  0
 20 21  2  0  0  0
 20103  1  0  0  0
 21 23  1  0  0  0
 22 28  1  0  0  0
 22 32  2  0  0  0
 26 27  1  0  0  0
 28104  1  0  0  0
 28105  1  0  0  0
 29106  1  0  0  0
 29107  1  0  0  0
 33 34  1  0  0  0
 33 66  1  0  0  0
 33 70  2  0  0  0
 34 36  1  0  0  0
 34 59  1  0  0  0
 34108  1  0  0  0
 35 44  2  0  0  0
 35 45  1  0  0  0
 35 68  1  0  0  0
 36 56  1  0  0  0
 36109  1  0  0  0
 37 39  1  0  0  0
 37 47  1  0  0  0
 37 66  1  0  0  0
 37110  1  0  0  0
 38 43  2  0  0  0
 38 46  1  0  0  0
 38 47  1  0  0  0
 39 64  1  0  0  0
 39 67  2  0  0  0
 40 52  1  0  0  0
 40 53  2  0  0  0
 40 58  1  0  0  0
 41111  1  0  0  0
 41112  1  0  0  0
 41113  1  0  0  0
 41 48  1  0  0  0
 42 43  1  0  0  0
 42 66  1  0  0  0
 42114  1  0  0  0
 42115  1  0  0  0
 43 44  1  0  0  0
 44116  1  0  0  0
 45 46  2  0  0  0
 45117  1  0  0  0
 46118  1  0  0  0
 47119  1  0  0  0
 47120  1  0  0  0
 48 56  1  0  0  0
 48 65  1  0  0  0
 48121  1  0  0  0
 49 50  1  0  0  0
 49 53  1  0  0  0
 49 64  1  0  0  0
 49122  1  0  0  0
 50 51  1  0  0  0
 50123  1  0  0  0
 50124  1  0  0  0
 51 52  1  0  0  0
 51125  1  0  0  0
 51126  1  0  0  0
 52127  1  0  0  0
 52128  1  0  0  0
 53 54  1  0  0  0
 54 55  2  0  0  0
 54129  1  0  0  0
 55 57  1  0  0  0
 55130  1  0  0  0
 56 69  2  0  0  0
 57 58  2  0  0  0
 57131  1  0  0  0
 58132  1  0  0  0
 59 60  1  0  0  0
 59 61  1  0  0  0
 59 62  1  0  0  0
 60133  1  0  0  0
 60134  1  0  0  0
 60135  1  0  0  0
 61136  1  0  0  0
 61137  1  0  0  0
 61138  1  0  0  0
 62139  1  0  0  0
 62140  1  0  0  0
 62141  1  0  0  0
 63 65  1  0  0  0
 63142  1  0  0  0
 63143  1  0  0  0
 63144  1  0  0  0
 64145  1  0  0  0
 65146  1  0  0  0
 68 77  1  0  0  0
 71 74  2  0  0  0
 71 75  1  0  0  0
 71147  1  0  0  0
 72 74  1  0  0  0
 72 76  2  0  0  0
 72148  1  0  0  0
 73 75  2  0  0  0
 73 76  1  0  0  0
 73149  1  0  0  0
 74 82  1  0  0  0
 75 83  1  0  0  0
 76 87  1  0  0  0
 77 78  2  0  0  0
 77150  1  0  0  0
 78 79  1  0  0  0
 78 86  1  0  0  0
 79 81  1  0  0  0
 79 84  2  0  0  0
 80 81  1  0  0  0
 80 82  1  0  0  0
 80 85  2  0  0  0
 81151  1  0  0  0
 81152  1  0  0  0
 82153  1  0  0  0
 83154  1  0  0  0
 86155  1  0  0  0
M  ISO  4   1 100  68 101  77 101  83 100
M  END
> <chiral flag>
0

> <version>
0

> <s_m_source_file>
/data/baiqing/PycharmProjects/Reinvent-master-3.2/result/LINK_invent/BTK/process_docking_weight1_custom_product_contain_oxygen_bond_distance_aromatic_linkinvent_7_9_3/rearranged_h_0169.sdf

> <i_m_source_file_index>
93

> <r_mmod_Potential_Energy-OPLS-2005>
-71.9838027954102

> <r_mmod_Stretch_Energy-OPLS-2005>
34.5553207397461

> <r_mmod_Bend_Energy-OPLS-2005>
96.7717666625977

> <r_mmod_Torsional_Energy-OPLS-2005>
238.231750488281

> <r_mmod_Improper_Torsional_Energy-OPLS-2005>
2.12233591079712

> <r_mmod_Van_der_Waal_Energy-OPLS-2005>
160.332977294922

> <r_mmod_Electrostatic_Energy-OPLS-2005>
-370.310455322266

> <r_mmod_Solvation_Energy-OPLS-2005>
-240.816741943359

> <b_mmod_Minimization_Converged-OPLS-2005>
0

> <r_mmod_RMS_Derivative-OPLS-2005>
0.193937718868256

$$$$
93
                    3D
 Structure written by MMmdl.
161169  0  0  1  0            999 V2000
  -30.7367  -14.4948   20.5561 C   0  0  0  0  0  0
  -30.4132  -12.3188   19.4358 C   0  0  0  0  0  0
  -29.4925  -12.5001   18.2129 C   0  0  0  0  0  0
  -28.0157  -12.3609   18.6274 C   0  0  0  0  0  0
  -27.6575  -13.2188   19.8711 C   0  0  2  0  0  0
  -28.7032  -13.0475   20.9981 C   0  0  0  0  0  0
  -25.2563  -13.8191   20.5698 C   0  0  0  0  0  0
  -24.1830  -13.0447   20.9186 C   0  0  0  0  0  0
  -24.6402  -11.6921   20.8744 C   0  0  0  0  0  0
  -23.9073  -10.4297   21.0403 C   0  0  0  0  0  0
  -24.3619   -9.4212   21.9184 C   0  0  0  0  0  0
  -23.6294   -8.2246   22.0753 C   0  0  0  0  0  0
  -22.4277   -8.0280   21.3545 C   0  0  0  0  0  0
  -21.9918   -9.0257   20.4647 C   0  0  0  0  0  0
  -22.7246  -10.2136   20.3056 C   0  0  0  0  0  0
  -21.6853   -6.0738   22.5279 C   0  0  0  0  0  0
  -21.4015   -6.5640   23.8214 C   0  0  0  0  0  0
  -21.3660   -5.6794   24.9175 C   0  0  0  0  0  0
  -21.6041   -4.3058   24.7225 C   0  0  0  0  0  0
  -21.8820   -3.8148   23.4349 C   0  0  0  0  0  0
  -21.9191   -4.6964   22.3403 C   0  0  0  0  0  0
  -22.7848  -13.5228   21.1848 C   0  0  0  0  0  0
  -22.1660   -4.2149   21.0981 F   0  0  0  0  0  0
  -21.5626   -3.4539   25.7740 F   0  0  0  0  0  0
  -30.0315  -13.3342   20.4339 N   0  0  0  0  0  0
  -26.3013  -12.9386   20.3380 N   0  0  0  0  0  0
  -25.9336  -11.6533   20.5791 N   0  0  0  0  0  0
  -22.0491  -12.8215   22.0402 N   0  0  0  0  0  0
  -25.4271  -15.1912   20.4109 N   0  0  0  0  0  0
  -31.8667  -14.6161   20.0795 O   0  0  0  0  0  0
  -21.6641   -6.8879   21.4242 O   0  0  0  0  0  0
  -22.3534  -14.5536   20.6698 O   0  0  0  0  0  0
  -24.6173  -31.8679   23.2099 C   0  0  0  0  0  0
  -25.9055  -32.4823   23.8399 C   0  0  1  0  0  0
  -27.2230  -27.4005   20.0957 C   0  0  0  0  0  0
  -25.5920  -33.8621   24.2331 N   0  0  0  0  0  0
  -23.4060  -30.4936   21.5519 C   0  0  2  0  0  0
  -24.8501  -28.9662   20.1093 C   0  0  0  0  0  0
  -22.7427  -29.4655   22.4972 C   0  0  0  0  0  0
  -18.0275  -28.1371   22.8466 C   0  0  0  0  0  0
  -24.1494  -36.7302   23.2639 C   0  0  0  0  0  0
  -25.9403  -30.8237   21.3689 C   0  0  0  0  0  0
  -26.0159  -29.4589   20.7090 C   0  0  0  0  0  0
  -27.2056  -28.6861   20.6970 C   0  0  0  0  0  0
  -26.0342  -26.9477   19.4697 C   0  0  0  0  0  0
  -24.8572  -27.7120   19.4838 C   0  0  0  0  0  0
  -23.6145  -29.8356   20.1637 C   0  0  0  0  0  0
  -25.4115  -36.3103   24.0336 C   0  0  1  0  0  0
  -20.5867  -28.3654   23.1301 C   0  0  2  0  0  0
  -20.6766  -26.9393   22.5400 C   0  0  0  0  0  0
  -19.5749  -26.6381   21.5192 C   0  0  0  0  0  0
  -18.1923  -26.7916   22.1610 C   0  0  0  0  0  0
  -19.1524  -28.8829   23.2876 C   0  0  0  0  0  0
  -18.9458  -30.1433   23.8889 C   0  0  0  0  0  0
  -17.6466  -30.6572   24.0557 C   0  0  0  0  0  0
  -25.9051  -34.9472   23.5125 C   0  0  0  0  0  0
  -16.5353  -29.9074   23.6329 C   0  0  0  0  0  0
  -16.7262  -28.6492   23.0341 C   0  0  0  0  0  0
  -26.4477  -31.6598   25.0724 C   0  0  0  0  0  0
  -25.3745  -31.3697   26.1470 C   0  0  0  0  0  0
  -27.0313  -30.3045   24.6091 C   0  0  0  0  0  0
  -27.6050  -32.4312   25.7497 C   0  0  0  0  0  0
  -27.5579  -37.1808   24.8468 C   0  0  0  0  0  0
  -21.4151  -29.3029   22.3722 N   0  0  0  0  0  0
  -26.4300  -37.3786   23.9405 N   0  0  0  0  0  0
  -24.6732  -31.0754   22.1017 N   0  0  0  0  0  0
  -23.4196  -28.8180   23.3002 O   0  0  0  0  0  0
  -28.3575  -26.5990   20.1471 O   0  0  0  0  0  0
  -26.5600  -34.8921   22.4682 O   0  0  0  0  0  0
  -23.5358  -32.1452   23.7472 O   0  0  0  0  0  0
  -31.4751  -19.6002   21.4911 C   0  0  0  0  0  0
  -31.9494  -17.2077   21.4051 C   0  0  0  0  0  0
  -30.0973  -19.3598   21.2874 C   0  0  0  0  0  0
  -30.5790  -16.9154   21.1946 C   0  0  0  0  0  0
  -32.3904  -18.5357   21.5434 C   0  0  0  0  0  0
  -29.6619  -18.0018   21.1432 C   0  0  0  0  0  0
  -29.1596  -20.5175   21.3094 C   0  0  0  0  0  0
  -29.2092  -24.2440   20.5466 C   0  0  0  0  0  0
  -28.2045  -22.5124   23.9336 C   0  0  0  0  0  0
  -28.0922  -25.1767   20.0244 C   0  0  0  0  0  0
  -28.7556  -23.0520   21.4445 C   0  0  2  0  0  0
  -28.8339  -23.4910   22.9320 C   0  0  2  0  0  0
  -30.0878  -15.5608   21.0797 N   0  0  0  0  0  0
  -29.5630  -21.8121   21.2063 N   0  0  0  0  0  0
  -27.8558  -20.3073   21.4999 N   0  3  0  0  0  0
  -30.3876  -24.4231   20.2229 O   0  0  0  0  0  0
  -33.7052  -18.7927   21.7437 F   0  0  0  0  0  0
  -28.3460  -17.7111   20.9759 F   0  0  0  0  0  0
  -30.1042  -23.6934   23.2901 F   0  0  0  0  0  0
  -31.4597  -12.3917   19.1337 H   0  0  0  0  0  0
  -30.2987  -11.3187   19.8569 H   0  0  0  0  0  0
  -29.7355  -11.7646   17.4448 H   0  0  0  0  0  0
  -29.6601  -13.4802   17.7634 H   0  0  0  0  0  0
  -27.8319  -11.3074   18.8397 H   0  0  0  0  0  0
  -27.3642  -12.6184   17.7917 H   0  0  0  0  0  0
  -27.6880  -14.2604   19.5489 H   0  0  0  0  0  0
  -28.6816  -12.0286   21.3871 H   0  0  0  0  0  0
  -28.4685  -13.6925   21.8461 H   0  0  0  0  0  0
  -25.2762   -9.5683   22.4764 H   0  0  0  0  0  0
  -23.9998   -7.4639   22.7475 H   0  0  0  0  0  0
  -21.0849   -8.8777   19.8953 H   0  0  0  0  0  0
  -22.3705  -10.9672   19.6165 H   0  0  0  0  0  0
  -21.2012   -7.6149   23.9717 H   0  0  0  0  0  0
  -21.1481   -6.0525   25.9077 H   0  0  0  0  0  0
  -22.0597   -2.7611   23.2850 H   0  0  0  0  0  0
  -22.4102  -11.9862   22.4770 H   0  0  0  0  0  0
  -21.1110  -13.1239   22.2609 H   0  0  0  0  0  0
  -24.6602  -15.8454   20.5199 H   0  0  0  0  0  0
  -26.2814  -15.6351   20.0984 H   0  0  0  0  0  0
  -26.7124  -32.5524   23.1158 H   0  0  0  0  0  0
  -25.0099  -33.9799   25.0495 H   0  0  0  0  0  0
  -22.6958  -31.3118   21.4162 H   0  0  0  0  0  0
  -23.3755  -35.9638   23.3316 H   0  0  0  0  0  0
  -24.3591  -36.8907   22.2052 H   0  0  0  0  0  0
  -23.7247  -37.6513   23.6647 H   0  0  0  0  0  0
  -26.0593  -31.5922   20.6039 H   0  0  0  0  0  0
  -26.8268  -30.8725   21.9896 H   0  0  0  0  0  0
  -28.1002  -29.0587   21.1761 H   0  0  0  0  0  0
  -25.9828  -25.9960   18.9619 H   0  0  0  0  0  0
  -23.9652  -27.3307   19.0054 H   0  0  0  0  0  0
  -23.7226  -30.6158   19.4089 H   0  0  0  0  0  0
  -22.7372  -29.2593   19.8647 H   0  0  0  0  0  0
  -25.1289  -36.1974   25.0831 H   0  0  0  0  0  0
  -20.9943  -28.3207   24.1429 H   0  0  0  0  0  0
  -20.5663  -26.2264   23.3586 H   0  0  0  0  0  0
  -21.6635  -26.7440   22.1202 H   0  0  0  0  0  0
  -19.6929  -25.6296   21.1215 H   0  0  0  0  0  0
  -19.6694  -27.3194   20.6728 H   0  0  0  0  0  0
  -17.4196  -26.6644   21.4009 H   0  0  0  0  0  0
  -18.0326  -26.0060   22.9012 H   0  0  0  0  0  0
  -19.7945  -30.7223   24.2271 H   0  0  0  0  0  0
  -17.5034  -31.6264   24.5141 H   0  0  0  0  0  0
  -15.5354  -30.2976   23.7664 H   0  0  0  0  0  0
  -15.8664  -28.0818   22.7057 H   0  0  0  0  0  0
  -24.5929  -30.7036   25.7804 H   0  0  0  0  0  0
  -24.8926  -32.2849   26.4915 H   0  0  0  0  0  0
  -25.8101  -30.8874   27.0228 H   0  0  0  0  0  0
  -26.2857  -29.6813   24.1143 H   0  0  0  0  0  0
  -27.4101  -29.7266   25.4530 H   0  0  0  0  0  0
  -27.8683  -30.4382   23.9233 H   0  0  0  0  0  0
  -27.2674  -33.3611   26.2079 H   0  0  0  0  0  0
  -28.3861  -32.6869   25.0327 H   0  0  0  0  0  0
  -28.0712  -31.8432   26.5416 H   0  0  0  0  0  0
  -28.2592  -38.0107   24.7503 H   0  0  0  0  0  0
  -28.1076  -36.2635   24.6307 H   0  0  0  0  0  0
  -27.2292  -37.1462   25.8870 H   0  0  0  0  0  0
  -20.9313  -29.8785   21.6977 H   0  0  0  0  0  0
  -26.0188  -38.2866   24.1409 H   0  0  0  0  0  0
  -31.8578  -20.5999   21.6316 H   0  0  0  0  0  0
  -32.6888  -16.4261   21.4812 H   0  0  0  0  0  0
  -27.1675  -22.2936   23.6782 H   0  0  0  0  0  0
  -28.2124  -22.9344   24.9383 H   0  0  0  0  0  0
  -28.7521  -21.5714   23.9800 H   0  0  0  0  0  0
  -27.1826  -24.9237   20.5703 H   0  0  0  0  0  0
  -27.9234  -24.9321   18.9747 H   0  0  0  0  0  0
  -27.7140  -22.8431   21.1996 H   0  0  0  0  0  0
  -28.3408  -24.4583   23.0513 H   0  0  0  0  0  0
  -29.1153  -15.4221   21.3065 H   0  0  0  0  0  0
  -30.5334  -21.9880   20.9789 H   0  0  0  0  0  0
  -27.5300  -19.3493   21.5120 H   0  0  0  0  0  0
  -27.1841  -21.0535   21.5059 H   0  0  0  0  0  0
  1 25  1  0  0  0
  1 30  2  0  0  0
  1 83  1  0  0  0
  2  3  1  0  0  0
  2 25  1  0  0  0
  2 90  1  0  0  0
  2 91  1  0  0  0
  3  4  1  0  0  0
  3 92  1  0  0  0
  3 93  1  0  0  0
  4  5  1  0  0  0
  4 94  1  0  0  0
  4 95  1  0  0  0
  5  6  1  0  0  0
  5 26  1  0  0  0
  5 96  1  0  0  0
  6 25  1  0  0  0
  6 97  1  0  0  0
  6 98  1  0  0  0
  7  8  2  0  0  0
  7 26  1  0  0  0
  7 29  1  0  0  0
  8  9  1  0  0  0
  8 22  1  0  0  0
  9 10  1  0  0  0
  9 27  2  0  0  0
 10 11  2  0  0  0
 10 15  1  0  0  0
 11 12  1  0  0  0
 11 99  1  0  0  0
 12 13  2  0  0  0
 12100  1  0  0  0
 13 14  1  0  0  0
 13 31  1  0  0  0
 14 15  2  0  0  0
 14101  1  0  0  0
 15102  1  0  0  0
 16 17  2  0  0  0
 16 21  1  0  0  0
 16 31  1  0  0  0
 17 18  1  0  0  0
 17103  1  0  0  0
 18 19  2  0  0  0
 18104  1  0  0  0
 19 20  1  0  0  0
 19 24  1  0  0  0
 20 21  2  0  0  0
 20105  1  0  0  0
 21 23  1  0  0  0
 22 28  1  0  0  0
 22 32  2  0  0  0
 26 27  1  0  0  0
 28106  1  0  0  0
 28107  1  0  0  0
 29108  1  0  0  0
 29109  1  0  0  0
 33 34  1  0  0  0
 33 66  1  0  0  0
 33 70  2  0  0  0
 34 36  1  0  0  0
 34 59  1  0  0  0
 34110  1  0  0  0
 35 44  2  0  0  0
 35 45  1  0  0  0
 35 68  1  0  0  0
 36 56  1  0  0  0
 36111  1  0  0  0
 37 39  1  0  0  0
 37 47  1  0  0  0
 37 66  1  0  0  0
 37112  1  0  0  0
 38 43  2  0  0  0
 38 46  1  0  0  0
 38 47  1  0  0  0
 39 64  1  0  0  0
 39 67  2  0  0  0
 40 52  1  0  0  0
 40 53  2  0  0  0
 40 58  1  0  0  0
 41113  1  0  0  0
 41114  1  0  0  0
 41115  1  0  0  0
 41 48  1  0  0  0
 42 43  1  0  0  0
 42 66  1  0  0  0
 42116  1  0  0  0
 42117  1  0  0  0
 43 44  1  0  0  0
 44118  1  0  0  0
 45 46  2  0  0  0
 45119  1  0  0  0
 46120  1  0  0  0
 47121  1  0  0  0
 47122  1  0  0  0
 48 56  1  0  0  0
 48 65  1  0  0  0
 48123  1  0  0  0
 49 50  1  0  0  0
 49 53  1  0  0  0
 49 64  1  0  0  0
 49124  1  0  0  0
 50 51  1  0  0  0
 50125  1  0  0  0
 50126  1  0  0  0
 51 52  1  0  0  0
 51127  1  0  0  0
 51128  1  0  0  0
 52129  1  0  0  0
 52130  1  0  0  0
 53 54  1  0  0  0
 54 55  2  0  0  0
 54131  1  0  0  0
 55 57  1  0  0  0
 55132  1  0  0  0
 56 69  2  0  0  0
 57 58  2  0  0  0
 57133  1  0  0  0
 58134  1  0  0  0
 59 60  1  0  0  0
 59 61  1  0  0  0
 59 62  1  0  0  0
 60135  1  0  0  0
 60136  1  0  0  0
 60137  1  0  0  0
 61138  1  0  0  0
 61139  1  0  0  0
 61140  1  0  0  0
 62141  1  0  0  0
 62142  1  0  0  0
 62143  1  0  0  0
 63 65  1  0  0  0
 63144  1  0  0  0
 63145  1  0  0  0
 63146  1  0  0  0
 64147  1  0  0  0
 65148  1  0  0  0
 68 80  1  0  0  0
 71 73  2  0  0  0
 71 75  1  0  0  0
 71149  1  0  0  0
 72 74  1  0  0  0
 72 75  2  0  0  0
 72150  1  0  0  0
 73 76  1  0  0  0
 73 77  1  0  0  0
 74 76  2  0  0  0
 74 83  1  0  0  0
 75 87  1  0  0  0
 76 88  1  0  0  0
 77 84  1  0  0  0
 77 85  2  0  0  0
 78 80  1  0  0  0
 78 81  1  0  0  0
 78 86  2  0  0  0
 79151  1  0  0  0
 79152  1  0  0  0
 79153  1  0  0  0
 79 82  1  0  0  0
 80154  1  0  0  0
 80155  1  0  0  0
 81 82  1  0  0  0
 81 84  1  0  0  0
 81156  1  0  0  0
 82 89  1  0  0  0
 82157  1  0  0  0
 83158  1  0  0  0
 84159  1  0  0  0
 85160  1  0  0  0
 85161  1  0  0  0
M  CHG  1  85   1
M  ISO  4   1 100  68 101  80 101  83 100
M  END
> <chiral flag>
0

> <version>
0

> <s_m_source_file>
/data/baiqing/PycharmProjects/Reinvent-master-3.2/result/LINK_invent/BTK/process_docking_weight1_custom_product_contain_oxygen_bond_distance_aromatic_linkinvent_7_9_3/rearranged_h_0169.sdf

> <i_m_source_file_index>
94

> <r_mmod_Potential_Energy-OPLS-2005>
-390.725250244141

> <r_mmod_Stretch_Energy-OPLS-2005>
49.4231910705566

> <r_mmod_Bend_Energy-OPLS-2005>
102.186561584473

> <r_mmod_Torsional_Energy-OPLS-2005>
222.460815429688

> <r_mmod_Improper_Torsional_Energy-OPLS-2005>
4.28285026550293

> <r_mmod_Van_der_Waal_Energy-OPLS-2005>
170.155868530273

> <r_mmod_Electrostatic_Energy-OPLS-2005>
-499.829711914062

> <r_mmod_Solvation_Energy-OPLS-2005>
-460.063171386719

> <b_mmod_Minimization_Converged-OPLS-2005>
0

> <r_mmod_RMS_Derivative-OPLS-2005>
1.23375344276428

$$$$
94
                    3D
 Structure written by MMmdl.
156164  0  0  1  0            999 V2000
  -30.6513  -14.5894   20.4972 C   0  0  0  0  0  0
  -30.4300  -12.3573   19.4618 C   0  0  0  0  0  0
  -29.5078  -12.4950   18.2312 C   0  0  0  0  0  0
  -28.0319  -12.3344   18.6436 C   0  0  0  0  0  0
  -27.6556  -13.2128   19.8666 C   0  0  2  0  0  0
  -28.6940  -13.0700   21.0024 C   0  0  0  0  0  0
  -25.2569  -13.8162   20.5685 C   0  0  0  0  0  0
  -24.1832  -13.0445   20.9184 C   0  0  0  0  0  0
  -24.6392  -11.6910   20.8737 C   0  0  0  0  0  0
  -23.9062  -10.4297   21.0403 C   0  0  0  0  0  0
  -24.3611   -9.4214   21.9188 C   0  0  0  0  0  0
  -23.6288   -8.2248   22.0759 C   0  0  0  0  0  0
  -22.4277   -8.0280   21.3545 C   0  0  0  0  0  0
  -21.9908   -9.0250   20.4649 C   0  0  0  0  0  0
  -22.7233  -10.2130   20.3053 C   0  0  0  0  0  0
  -21.6856   -6.0732   22.5285 C   0  0  0  0  0  0
  -21.4016   -6.5637   23.8216 C   0  0  0  0  0  0
  -21.3655   -5.6791   24.9177 C   0  0  0  0  0  0
  -21.6041   -4.3053   24.7230 C   0  0  0  0  0  0
  -21.8820   -3.8144   23.4352 C   0  0  0  0  0  0
  -21.9195   -4.6959   22.3408 C   0  0  0  0  0  0
  -22.7857  -13.5240   21.1851 C   0  0  0  0  0  0
  -22.1664   -4.2144   21.0984 F   0  0  0  0  0  0
  -21.5623   -3.4537   25.7741 F   0  0  0  0  0  0
  -30.0172  -13.3804   20.4437 N   0  0  0  0  0  0
  -26.2999  -12.9344   20.3330 N   0  0  0  0  0  0
  -25.9320  -11.6504   20.5768 N   0  0  0  0  0  0
  -22.0487  -12.8223   22.0382 N   0  0  0  0  0  0
  -25.4301  -15.1886   20.4110 N   0  0  0  0  0  0
  -31.8210  -14.7147   20.1211 O   0  0  0  0  0  0
  -21.6643   -6.8875   21.4245 O   0  0  0  0  0  0
  -22.3549  -14.5556   20.6713 O   0  0  0  0  0  0
  -24.6213  -31.8615   23.2036 C   0  0  0  0  0  0
  -25.9078  -32.4797   23.8364 C   0  0  1  0  0  0
  -27.2262  -27.3579   20.1121 C   0  0  0  0  0  0
  -25.5914  -33.8594   24.2314 N   0  0  0  0  0  0
  -23.4145  -30.4855   21.5431 C   0  0  2  0  0  0
  -24.8636  -28.9491   20.1047 C   0  0  0  0  0  0
  -22.7448  -29.4628   22.4917 C   0  0  0  0  0  0
  -18.0280  -28.1384   22.8481 C   0  0  0  0  0  0
  -24.1476  -36.7289   23.2644 C   0  0  0  0  0  0
  -25.9489  -30.8097   21.3650 C   0  0  0  0  0  0
  -26.0276  -29.4372   20.7114 C   0  0  0  0  0  0
  -27.2111  -28.6477   20.7160 C   0  0  0  0  0  0
  -26.0390  -26.9086   19.4892 C   0  0  0  0  0  0
  -24.8687  -27.6897   19.4851 C   0  0  0  0  0  0
  -23.6278  -29.8217   20.1568 C   0  0  0  0  0  0
  -25.4107  -36.3101   24.0338 C   0  0  1  0  0  0
  -20.5870  -28.3681   23.1277 C   0  0  2  0  0  0
  -20.6756  -26.9405   22.5399 C   0  0  0  0  0  0
  -19.5743  -26.6385   21.5189 C   0  0  0  0  0  0
  -18.1928  -26.7931   22.1607 C   0  0  0  0  0  0
  -19.1530  -28.8850   23.2880 C   0  0  0  0  0  0
  -18.9457  -30.1450   23.8900 C   0  0  0  0  0  0
  -17.6460  -30.6586   24.0566 C   0  0  0  0  0  0
  -25.9027  -34.9464   23.5121 C   0  0  0  0  0  0
  -16.5349  -29.9088   23.6331 C   0  0  0  0  0  0
  -16.7267  -28.6504   23.0349 C   0  0  0  0  0  0
  -26.4508  -31.6576   25.0692 C   0  0  0  0  0  0
  -25.3773  -31.3675   26.1428 C   0  0  0  0  0  0
  -27.0347  -30.3025   24.6060 C   0  0  0  0  0  0
  -27.6080  -32.4291   25.7466 C   0  0  0  0  0  0
  -27.5557  -37.1831   24.8485 C   0  0  0  0  0  0
  -21.4158  -29.3047   22.3674 N   0  0  0  0  0  0
  -26.4302  -37.3774   23.9386 N   0  0  0  0  0  0
  -24.6804  -31.0659   22.0970 N   0  0  0  0  0  0
  -23.4191  -28.8146   23.2967 O   0  0  0  0  0  0
  -28.3302  -26.5105   20.2040 O   0  0  0  0  0  0
  -26.5567  -34.8924   22.4667 O   0  0  0  0  0  0
  -23.5379  -32.1379   23.7383 O   0  0  0  0  0  0
  -30.5909  -18.4859   18.3790 C   0  0  0  0  0  0
  -30.0331  -19.6016   19.0272 C   0  0  0  0  0  0
  -30.5556  -17.2138   18.9746 C   0  0  0  0  0  0
  -29.4153  -19.4804   20.2942 C   0  0  0  0  0  0
  -29.9744  -17.0195   20.2493 C   0  0  0  0  0  0
  -29.4077  -18.1690   20.9000 C   0  0  0  0  0  0
  -28.5483  -25.5698   19.2073 C   0  0  0  0  0  0
  -28.7221  -24.2082   19.2653 C   0  0  0  0  0  0
  -28.6934  -23.3329   20.4661 C   0  0  0  0  0  0
  -27.2928  -20.5173   21.2962 C   0  0  0  0  0  0
  -28.7764  -20.7567   20.9538 C   0  0  2  0  0  0
  -29.8930  -15.6787   20.8180 N   0  0  0  0  0  0
  -28.8640  -22.0157   20.1465 N   0  0  0  0  0  0
  -28.5148  -23.7091   21.6254 O   0  0  0  0  0  0
  -28.9334  -23.5881   18.0889 O   0  0  0  0  0  0
  -28.8513  -17.9970   22.1236 F   0  0  0  0  0  0
  -31.4740  -12.4630   19.1611 H   0  0  0  0  0  0
  -30.3476  -11.3603   19.8979 H   0  0  0  0  0  0
  -29.7694  -11.7504   17.4786 H   0  0  0  0  0  0
  -29.6556  -13.4691   17.7621 H   0  0  0  0  0  0
  -27.8741  -11.2821   18.8850 H   0  0  0  0  0  0
  -27.3750  -12.5522   17.8011 H   0  0  0  0  0  0
  -27.6782  -14.2468   19.5219 H   0  0  0  0  0  0
  -28.6895  -12.0561   21.4054 H   0  0  0  0  0  0
  -28.4479  -13.7262   21.8386 H   0  0  0  0  0  0
  -25.2755   -9.5690   22.4767 H   0  0  0  0  0  0
  -23.9997   -7.4637   22.7482 H   0  0  0  0  0  0
  -21.0841   -8.8768   19.8951 H   0  0  0  0  0  0
  -22.3696  -10.9667   19.6155 H   0  0  0  0  0  0
  -21.2011   -7.6149   23.9718 H   0  0  0  0  0  0
  -21.1471   -6.0522   25.9079 H   0  0  0  0  0  0
  -22.0601   -2.7609   23.2857 H   0  0  0  0  0  0
  -22.4084  -11.9852   22.4734 H   0  0  0  0  0  0
  -21.1108  -13.1258   22.2597 H   0  0  0  0  0  0
  -24.6661  -15.8453   20.5270 H   0  0  0  0  0  0
  -26.2841  -15.6289   20.0929 H   0  0  0  0  0  0
  -26.7133  -32.5510   23.1110 H   0  0  0  0  0  0
  -25.0170  -33.9751   25.0534 H   0  0  0  0  0  0
  -22.7088  -31.3060   21.4010 H   0  0  0  0  0  0
  -23.3710  -35.9659   23.3410 H   0  0  0  0  0  0
  -24.3556  -36.8777   22.2036 H   0  0  0  0  0  0
  -23.7269  -37.6546   23.6578 H   0  0  0  0  0  0
  -26.0587  -31.5749   20.5940 H   0  0  0  0  0  0
  -26.8366  -30.8710   21.9828 H   0  0  0  0  0  0
  -28.1015  -29.0078   21.2130 H   0  0  0  0  0  0
  -25.9943  -25.9315   19.0296 H   0  0  0  0  0  0
  -23.9723  -27.3095   19.0152 H   0  0  0  0  0  0
  -23.7418  -30.5974   19.3992 H   0  0  0  0  0  0
  -22.7522  -29.2433   19.8564 H   0  0  0  0  0  0
  -25.1294  -36.1988   25.0835 H   0  0  0  0  0  0
  -20.9970  -28.3232   24.1390 H   0  0  0  0  0  0
  -20.5628  -26.2279   23.3589 H   0  0  0  0  0  0
  -21.6628  -26.7417   22.1210 H   0  0  0  0  0  0
  -19.6900  -25.6294   21.1220 H   0  0  0  0  0  0
  -19.6691  -27.3191   20.6717 H   0  0  0  0  0  0
  -17.4187  -26.6669   21.4016 H   0  0  0  0  0  0
  -18.0348  -26.0079   22.9009 H   0  0  0  0  0  0
  -19.7937  -30.7260   24.2262 H   0  0  0  0  0  0
  -17.5024  -31.6270   24.5162 H   0  0  0  0  0  0
  -15.5353  -30.2998   23.7652 H   0  0  0  0  0  0
  -15.8662  -28.0830   22.7059 H   0  0  0  0  0  0
  -24.5981  -30.6978   25.7763 H   0  0  0  0  0  0
  -24.8927  -32.2822   26.4851 H   0  0  0  0  0  0
  -25.8136  -30.8875   27.0197 H   0  0  0  0  0  0
  -26.2891  -29.6773   24.1124 H   0  0  0  0  0  0
  -27.4143  -29.7268   25.4512 H   0  0  0  0  0  0
  -27.8717  -30.4351   23.9200 H   0  0  0  0  0  0
  -27.2715  -33.3605   26.2032 H   0  0  0  0  0  0
  -28.3912  -32.6805   25.0301 H   0  0  0  0  0  0
  -28.0720  -31.8407   26.5390 H   0  0  0  0  0  0
  -28.2649  -38.0045   24.7406 H   0  0  0  0  0  0
  -28.0967  -36.2570   24.6481 H   0  0  0  0  0  0
  -27.2254  -37.1687   25.8885 H   0  0  0  0  0  0
  -20.9302  -29.8834   21.6960 H   0  0  0  0  0  0
  -26.0189  -38.2864   24.1323 H   0  0  0  0  0  0
  -31.0425  -18.6043   17.4034 H   0  0  0  0  0  0
  -30.0902  -20.5532   18.5198 H   0  0  0  0  0  0
  -30.9714  -16.3868   18.4179 H   0  0  0  0  0  0
  -28.5809  -26.0796   18.2536 H   0  0  0  0  0  0
  -27.1582  -19.6675   21.9621 H   0  0  0  0  0  0
  -26.7063  -20.3247   20.3977 H   0  0  0  0  0  0
  -26.8546  -21.3784   21.8022 H   0  0  0  0  0  0
  -29.3184  -20.9268   21.8862 H   0  0  0  0  0  0
  -29.0551  -15.4872   21.3463 H   0  0  0  0  0  0
  -29.0099  -21.8901   19.1534 H   0  0  0  0  0  0
  -28.9271  -24.2485   17.4092 H   0  0  0  0  0  0
  1 25  1  0  0  0
  1 30  2  0  0  0
  1 82  1  0  0  0
  2  3  1  0  0  0
  2 25  1  0  0  0
  2 87  1  0  0  0
  2 88  1  0  0  0
  3  4  1  0  0  0
  3 89  1  0  0  0
  3 90  1  0  0  0
  4  5  1  0  0  0
  4 91  1  0  0  0
  4 92  1  0  0  0
  5  6  1  0  0  0
  5 26  1  0  0  0
  5 93  1  0  0  0
  6 25  1  0  0  0
  6 94  1  0  0  0
  6 95  1  0  0  0
  7  8  2  0  0  0
  7 26  1  0  0  0
  7 29  1  0  0  0
  8  9  1  0  0  0
  8 22  1  0  0  0
  9 10  1  0  0  0
  9 27  2  0  0  0
 10 11  2  0  0  0
 10 15  1  0  0  0
 11 12  1  0  0  0
 11 96  1  0  0  0
 12 13  2  0  0  0
 12 97  1  0  0  0
 13 14  1  0  0  0
 13 31  1  0  0  0
 14 15  2  0  0  0
 14 98  1  0  0  0
 15 99  1  0  0  0
 16 17  2  0  0  0
 16 21  1  0  0  0
 16 31  1  0  0  0
 17 18  1  0  0  0
 17100  1  0  0  0
 18 19  2  0  0  0
 18101  1  0  0  0
 19 20  1  0  0  0
 19 24  1  0  0  0
 20 21  2  0  0  0
 20102  1  0  0  0
 21 23  1  0  0  0
 22 28  1  0  0  0
 22 32  2  0  0  0
 26 27  1  0  0  0
 28103  1  0  0  0
 28104  1  0  0  0
 29105  1  0  0  0
 29106  1  0  0  0
 33 34  1  0  0  0
 33 66  1  0  0  0
 33 70  2  0  0  0
 34 36  1  0  0  0
 34 59  1  0  0  0
 34107  1  0  0  0
 35 44  2  0  0  0
 35 45  1  0  0  0
 35 68  1  0  0  0
 36 56  1  0  0  0
 36108  1  0  0  0
 37 39  1  0  0  0
 37 47  1  0  0  0
 37 66  1  0  0  0
 37109  1  0  0  0
 38 43  2  0  0  0
 38 46  1  0  0  0
 38 47  1  0  0  0
 39 64  1  0  0  0
 39 67  2  0  0  0
 40 52  1  0  0  0
 40 53  2  0  0  0
 40 58  1  0  0  0
 41110  1  0  0  0
 41111  1  0  0  0
 41112  1  0  0  0
 41 48  1  0  0  0
 42 43  1  0  0  0
 42 66  1  0  0  0
 42113  1  0  0  0
 42114  1  0  0  0
 43 44  1  0  0  0
 44115  1  0  0  0
 45 46  2  0  0  0
 45116  1  0  0  0
 46117  1  0  0  0
 47118  1  0  0  0
 47119  1  0  0  0
 48 56  1  0  0  0
 48 65  1  0  0  0
 48120  1  0  0  0
 49 50  1  0  0  0
 49 53  1  0  0  0
 49 64  1  0  0  0
 49121  1  0  0  0
 50 51  1  0  0  0
 50122  1  0  0  0
 50123  1  0  0  0
 51 52  1  0  0  0
 51124  1  0  0  0
 51125  1  0  0  0
 52126  1  0  0  0
 52127  1  0  0  0
 53 54  1  0  0  0
 54 55  2  0  0  0
 54128  1  0  0  0
 55 57  1  0  0  0
 55129  1  0  0  0
 56 69  2  0  0  0
 57 58  2  0  0  0
 57130  1  0  0  0
 58131  1  0  0  0
 59 60  1  0  0  0
 59 61  1  0  0  0
 59 62  1  0  0  0
 60132  1  0  0  0
 60133  1  0  0  0
 60134  1  0  0  0
 61135  1  0  0  0
 61136  1  0  0  0
 61137  1  0  0  0
 62138  1  0  0  0
 62139  1  0  0  0
 62140  1  0  0  0
 63 65  1  0  0  0
 63141  1  0  0  0
 63142  1  0  0  0
 63143  1  0  0  0
 64144  1  0  0  0
 65145  1  0  0  0
 68 77  1  0  0  0
 71 72  2  0  0  0
 71 73  1  0  0  0
 71146  1  0  0  0
 72 74  1  0  0  0
 72147  1  0  0  0
 73 75  2  0  0  0
 73148  1  0  0  0
 74 76  2  0  0  0
 74 81  1  0  0  0
 75 76  1  0  0  0
 75 82  1  0  0  0
 76 86  1  0  0  0
 77 78  2  0  0  0
 77149  1  0  0  0
 78 79  1  0  0  0
 78 85  1  0  0  0
 79 83  1  0  0  0
 79 84  2  0  0  0
 80150  1  0  0  0
 80151  1  0  0  0
 80152  1  0  0  0
 80 81  1  0  0  0
 81 83  1  0  0  0
 81153  1  0  0  0
 82154  1  0  0  0
 83155  1  0  0  0
 85156  1  0  0  0
M  ISO  4   1 100  68 101  77 101  82 100
M  END
> <chiral flag>
0

> <version>
0

> <s_m_source_file>
/data/baiqing/PycharmProjects/Reinvent-master-3.2/result/LINK_invent/BTK/process_docking_weight1_custom_product_contain_oxygen_bond_distance_aromatic_linkinvent_7_9_3/rearranged_h_0169.sdf

> <i_m_source_file_index>
95

> <r_mmod_Potential_Energy-OPLS-2005>
-72.3320999145508

> <r_mmod_Stretch_Energy-OPLS-2005>
66.1201629638672

> <r_mmod_Bend_Energy-OPLS-2005>
130.797225952148

> <r_mmod_Torsional_Energy-OPLS-2005>
215.614852905273

> <r_mmod_Improper_Torsional_Energy-OPLS-2005>
4.86884021759033

> <r_mmod_Van_der_Waal_Energy-OPLS-2005>
157.863723754883

> <r_mmod_Electrostatic_Energy-OPLS-2005>
-453.209533691406

> <r_mmod_Solvation_Energy-OPLS-2005>
-232.301712036133

> <b_mmod_Minimization_Converged-OPLS-2005>
0

> <r_mmod_RMS_Derivative-OPLS-2005>
1.84398460388184

$$$$
95
                    3D
 Structure written by MMmdl.
170178  0  0  1  0            999 V2000
  -30.7078  -14.4921   20.5147 C   0  0  0  0  0  0
  -30.4075  -12.3013   19.4479 C   0  0  0  0  0  0
  -29.4934  -12.4933   18.2196 C   0  0  0  0  0  0
  -28.0152  -12.3607   18.6288 C   0  0  0  0  0  0
  -27.6559  -13.2172   19.8719 C   0  0  2  0  0  0
  -28.6959  -13.0452   21.0024 C   0  0  0  0  0  0
  -25.2583  -13.8190   20.5718 C   0  0  0  0  0  0
  -24.1835  -13.0456   20.9190 C   0  0  0  0  0  0
  -24.6401  -11.6921   20.8764 C   0  0  0  0  0  0
  -23.9064  -10.4310   21.0430 C   0  0  0  0  0  0
  -24.3597   -9.4231   21.9226 C   0  0  0  0  0  0
  -23.6286   -8.2267   22.0788 C   0  0  0  0  0  0
  -22.4281   -8.0302   21.3544 C   0  0  0  0  0  0
  -21.9931   -9.0266   20.4620 C   0  0  0  0  0  0
  -22.7266  -10.2139   20.3037 C   0  0  0  0  0  0
  -21.6852   -6.0745   22.5267 C   0  0  0  0  0  0
  -21.4006   -6.5630   23.8205 C   0  0  0  0  0  0
  -21.3660   -5.6785   24.9163 C   0  0  0  0  0  0
  -21.6041   -4.3050   24.7211 C   0  0  0  0  0  0
  -21.8816   -3.8147   23.4326 C   0  0  0  0  0  0
  -21.9191   -4.6978   22.3389 C   0  0  0  0  0  0
  -22.7847  -13.5238   21.1800 C   0  0  0  0  0  0
  -22.1692   -4.2168   21.0977 F   0  0  0  0  0  0
  -21.5624   -3.4522   25.7711 F   0  0  0  0  0  0
  -30.0255  -13.3192   20.4397 N   0  0  0  0  0  0
  -26.3019  -12.9381   20.3395 N   0  0  0  0  0  0
  -25.9338  -11.6532   20.5810 N   0  0  0  0  0  0
  -22.0455  -12.8237   22.0321 N   0  0  0  0  0  0
  -25.4287  -15.1906   20.4118 N   0  0  0  0  0  0
  -31.8837  -14.5852   20.1542 O   0  0  0  0  0  0
  -21.6653   -6.8903   21.4243 O   0  0  0  0  0  0
  -22.3506  -14.5515   20.6604 O   0  0  0  0  0  0
  -24.6178  -31.8676   23.2128 C   0  0  0  0  0  0
  -25.9070  -32.4813   23.8418 C   0  0  1  0  0  0
  -27.2095  -27.3926   20.0900 C   0  0  0  0  0  0
  -25.5910  -33.8612   24.2333 N   0  0  0  0  0  0
  -23.4072  -30.4962   21.5551 C   0  0  2  0  0  0
  -24.8470  -28.9715   20.1095 C   0  0  0  0  0  0
  -22.7425  -29.4659   22.4984 C   0  0  0  0  0  0
  -18.0271  -28.1385   22.8486 C   0  0  0  0  0  0
  -24.1490  -36.7320   23.2638 C   0  0  0  0  0  0
  -25.9434  -30.8183   21.3772 C   0  0  0  0  0  0
  -26.0123  -29.4535   20.7186 C   0  0  0  0  0  0
  -27.1933  -28.6674   20.7134 C   0  0  0  0  0  0
  -26.0273  -26.9655   19.4347 C   0  0  0  0  0  0
  -24.8513  -27.7297   19.4656 C   0  0  0  0  0  0
  -23.6146  -29.8434   20.1662 C   0  0  0  0  0  0
  -25.4112  -36.3108   24.0340 C   0  0  1  0  0  0
  -20.5871  -28.3665   23.1316 C   0  0  2  0  0  0
  -20.6774  -26.9404   22.5419 C   0  0  0  0  0  0
  -19.5759  -26.6388   21.5226 C   0  0  0  0  0  0
  -18.1925  -26.7928   22.1633 C   0  0  0  0  0  0
  -19.1523  -28.8847   23.2881 C   0  0  0  0  0  0
  -18.9442  -30.1442   23.8908 C   0  0  0  0  0  0
  -17.6442  -30.6583   24.0566 C   0  0  0  0  0  0
  -25.9041  -34.9471   23.5134 C   0  0  0  0  0  0
  -16.5338  -29.9092   23.6319 C   0  0  0  0  0  0
  -16.7254  -28.6514   23.0339 C   0  0  0  0  0  0
  -26.4474  -31.6598   25.0765 C   0  0  0  0  0  0
  -25.3719  -31.3735   26.1506 C   0  0  0  0  0  0
  -27.0301  -30.3020   24.6188 C   0  0  0  0  0  0
  -27.6062  -32.4312   25.7513 C   0  0  0  0  0  0
  -27.5578  -37.1812   24.8456 C   0  0  0  0  0  0
  -21.4152  -29.3024   22.3726 N   0  0  0  0  0  0
  -26.4289  -37.3797   23.9400 N   0  0  0  0  0  0
  -24.6747  -31.0757   22.1057 N   0  0  0  0  0  0
  -23.4194  -28.8196   23.3019 O   0  0  0  0  0  0
  -28.3524  -26.6036   20.1382 O   0  0  0  0  0  0
  -26.5605  -34.8920   22.4695 O   0  0  0  0  0  0
  -23.5349  -32.1447   23.7484 O   0  0  0  0  0  0
  -30.4897  -19.6186   19.4331 C   0  0  0  0  0  0
  -31.1466  -17.2741   19.3611 C   0  0  0  0  0  0
  -29.5341  -19.3363   20.4317 C   0  0  0  0  0  0
  -30.2057  -16.9456   20.3726 C   0  0  0  0  0  0
  -31.2859  -18.5936   18.9020 C   0  0  0  0  0  0
  -29.4004  -17.9938   20.8970 C   0  0  0  0  0  0
  -28.6439  -20.4342   20.8626 C   0  0  0  0  0  0
  -28.9558  -24.2292   20.7115 C   0  0  0  0  0  0
  -25.6219  -21.9601   23.5778 C   0  0  0  0  0  0
  -25.3135  -23.5124   21.6562 C   0  0  0  0  0  0
  -25.9746  -24.4066   23.8851 C   0  0  0  0  0  0
  -28.2218  -25.2036   19.7662 C   0  0  0  0  0  0
  -27.7084  -23.0608   22.6303 C   0  0  0  0  0  0
  -28.2024  -22.9357   21.1502 C   0  0  2  0  0  0
  -26.1746  -23.2324   22.9069 C   0  0  0  0  0  0
  -29.9798  -15.5903   20.8219 N   0  0  0  0  0  0
  -29.0533  -21.7258   20.9479 N   0  0  0  0  0  0
  -27.3601  -20.1788   21.1198 N   0  3  0  0  0  0
  -30.1179  -24.4524   21.0640 O   0  0  0  0  0  0
  -32.1743  -18.8743   17.9187 F   0  0  0  0  0  0
  -28.4558  -17.6786   21.8174 F   0  0  0  0  0  0
  -31.4576  -12.3664   19.1550 H   0  0  0  0  0  0
  -30.2816  -11.3038   19.8723 H   0  0  0  0  0  0
  -29.7359  -11.7579   17.4513 H   0  0  0  0  0  0
  -29.6690  -13.4726   17.7733 H   0  0  0  0  0  0
  -27.8291  -11.3078   18.8423 H   0  0  0  0  0  0
  -27.3645  -12.6255   17.7956 H   0  0  0  0  0  0
  -27.6831  -14.2573   19.5455 H   0  0  0  0  0  0
  -28.6653  -12.0285   21.4004 H   0  0  0  0  0  0
  -28.4688  -13.6999   21.8438 H   0  0  0  0  0  0
  -25.2743   -9.5713   22.4794 H   0  0  0  0  0  0
  -23.9977   -7.4667   22.7542 H   0  0  0  0  0  0
  -21.0868   -8.8748   19.8920 H   0  0  0  0  0  0
  -22.3726  -10.9653   19.6103 H   0  0  0  0  0  0
  -21.2012   -7.6140   23.9699 H   0  0  0  0  0  0
  -21.1484   -6.0515   25.9058 H   0  0  0  0  0  0
  -22.0605   -2.7604   23.2806 H   0  0  0  0  0  0
  -22.4070  -11.9975   22.4821 H   0  0  0  0  0  0
  -21.1010  -13.1190   22.2387 H   0  0  0  0  0  0
  -24.6624  -15.8449   20.5266 H   0  0  0  0  0  0
  -26.2824  -15.6327   20.0957 H   0  0  0  0  0  0
  -26.7155  -32.5506   23.1182 H   0  0  0  0  0  0
  -25.0040  -33.9775   25.0462 H   0  0  0  0  0  0
  -22.6964  -31.3133   21.4203 H   0  0  0  0  0  0
  -23.3739  -35.9661   23.3311 H   0  0  0  0  0  0
  -24.3581  -36.8923   22.2044 H   0  0  0  0  0  0
  -23.7252  -37.6538   23.6643 H   0  0  0  0  0  0
  -26.0665  -31.5876   20.6134 H   0  0  0  0  0  0
  -26.8293  -30.8614   21.9990 H   0  0  0  0  0  0
  -28.0889  -29.0296   21.1983 H   0  0  0  0  0  0
  -25.9634  -26.0488   18.8714 H   0  0  0  0  0  0
  -23.9602  -27.3677   18.9699 H   0  0  0  0  0  0
  -23.7274  -30.6248   19.4139 H   0  0  0  0  0  0
  -22.7353  -29.2702   19.8672 H   0  0  0  0  0  0
  -25.1274  -36.1982   25.0833 H   0  0  0  0  0  0
  -20.9922  -28.3233   24.1454 H   0  0  0  0  0  0
  -20.5677  -26.2277   23.3602 H   0  0  0  0  0  0
  -21.6641  -26.7443   22.1216 H   0  0  0  0  0  0
  -19.6916  -25.6303   21.1250 H   0  0  0  0  0  0
  -19.6708  -27.3207   20.6771 H   0  0  0  0  0  0
  -17.4182  -26.6648   21.4037 H   0  0  0  0  0  0
  -18.0316  -26.0080   22.9044 H   0  0  0  0  0  0
  -19.7913  -30.7240   24.2306 H   0  0  0  0  0  0
  -17.5007  -31.6270   24.5152 H   0  0  0  0  0  0
  -15.5340  -30.3002   23.7647 H   0  0  0  0  0  0
  -15.8658  -28.0850   22.7051 H   0  0  0  0  0  0
  -24.5894  -30.7074   25.7853 H   0  0  0  0  0  0
  -24.8904  -32.2898   26.4917 H   0  0  0  0  0  0
  -25.8052  -30.8930   27.0282 H   0  0  0  0  0  0
  -26.2880  -29.6798   24.1181 H   0  0  0  0  0  0
  -27.3962  -29.7240   25.4681 H   0  0  0  0  0  0
  -27.8760  -30.4312   23.9445 H   0  0  0  0  0  0
  -27.2711  -33.3602   26.2126 H   0  0  0  0  0  0
  -28.3859  -32.6878   25.0336 H   0  0  0  0  0  0
  -28.0760  -31.8415   26.5389 H   0  0  0  0  0  0
  -28.2593  -38.0109   24.7488 H   0  0  0  0  0  0
  -28.1076  -36.2634   24.6292 H   0  0  0  0  0  0
  -27.2295  -37.1474   25.8860 H   0  0  0  0  0  0
  -20.9311  -29.8752   21.6954 H   0  0  0  0  0  0
  -26.0180  -38.2873   24.1396 H   0  0  0  0  0  0
  -30.5935  -20.6147   19.0329 H   0  0  0  0  0  0
  -31.7664  -16.5365   18.8798 H   0  0  0  0  0  0
  -24.5691  -22.0729   23.8379 H   0  0  0  0  0  0
  -26.1549  -21.7246   24.4996 H   0  0  0  0  0  0
  -25.6893  -21.0867   22.9305 H   0  0  0  0  0  0
  -24.2675  -23.6596   21.9284 H   0  0  0  0  0  0
  -25.3219  -22.6849   20.9472 H   0  0  0  0  0  0
  -25.6211  -24.4160   21.1363 H   0  0  0  0  0  0
  -24.9186  -24.5697   24.1080 H   0  0  0  0  0  0
  -26.3644  -25.3392   23.4752 H   0  0  0  0  0  0
  -26.4823  -24.2255   24.8330 H   0  0  0  0  0  0
  -27.1985  -24.8481   19.7592 H   0  0  0  0  0  0
  -28.6081  -25.0668   18.7567 H   0  0  0  0  0  0
  -28.2365  -23.8975   23.0947 H   0  0  0  0  0  0
  -28.0804  -22.2161   23.2128 H   0  0  0  0  0  0
  -27.3643  -22.8075   20.4690 H   0  0  0  0  0  0
  -29.0886  -15.4238   21.2648 H   0  0  0  0  0  0
  -30.0482  -21.9049   20.8757 H   0  0  0  0  0  0
  -27.0467  -19.2190   21.1318 H   0  0  0  0  0  0
  -26.7464  -20.9016   21.4533 H   0  0  0  0  0  0
  1 25  1  0  0  0
  1 30  2  0  0  0
  1 86  1  0  0  0
  2  3  1  0  0  0
  2 25  1  0  0  0
  2 92  1  0  0  0
  2 93  1  0  0  0
  3  4  1  0  0  0
  3 94  1  0  0  0
  3 95  1  0  0  0
  4  5  1  0  0  0
  4 96  1  0  0  0
  4 97  1  0  0  0
  5  6  1  0  0  0
  5 26  1  0  0  0
  5 98  1  0  0  0
  6 25  1  0  0  0
  6 99  1  0  0  0
  6100  1  0  0  0
  7  8  2  0  0  0
  7 26  1  0  0  0
  7 29  1  0  0  0
  8  9  1  0  0  0
  8 22  1  0  0  0
  9 10  1  0  0  0
  9 27  2  0  0  0
 10 11  2  0  0  0
 10 15  1  0  0  0
 11 12  1  0  0  0
 11101  1  0  0  0
 12 13  2  0  0  0
 12102  1  0  0  0
 13 14  1  0  0  0
 13 31  1  0  0  0
 14 15  2  0  0  0
 14103  1  0  0  0
 15104  1  0  0  0
 16 17  2  0  0  0
 16 21  1  0  0  0
 16 31  1  0  0  0
 17 18  1  0  0  0
 17105  1  0  0  0
 18 19  2  0  0  0
 18106  1  0  0  0
 19 20  1  0  0  0
 19 24  1  0  0  0
 20 21  2  0  0  0
 20107  1  0  0  0
 21 23  1  0  0  0
 22 28  1  0  0  0
 22 32  2  0  0  0
 26 27  1  0  0  0
 28108  1  0  0  0
 28109  1  0  0  0
 29110  1  0  0  0
 29111  1  0  0  0
 33 34  1  0  0  0
 33 66  1  0  0  0
 33 70  2  0  0  0
 34 36  1  0  0  0
 34 59  1  0  0  0
 34112  1  0  0  0
 35 44  2  0  0  0
 35 45  1  0  0  0
 35 68  1  0  0  0
 36 56  1  0  0  0
 36113  1  0  0  0
 37 39  1  0  0  0
 37 47  1  0  0  0
 37 66  1  0  0  0
 37114  1  0  0  0
 38 43  2  0  0  0
 38 46  1  0  0  0
 38 47  1  0  0  0
 39 64  1  0  0  0
 39 67  2  0  0  0
 40 52  1  0  0  0
 40 53  2  0  0  0
 40 58  1  0  0  0
 41115  1  0  0  0
 41116  1  0  0  0
 41117  1  0  0  0
 41 48  1  0  0  0
 42 43  1  0  0  0
 42 66  1  0  0  0
 42118  1  0  0  0
 42119  1  0  0  0
 43 44  1  0  0  0
 44120  1  0  0  0
 45 46  2  0  0  0
 45121  1  0  0  0
 46122  1  0  0  0
 47123  1  0  0  0
 47124  1  0  0  0
 48 56  1  0  0  0
 48 65  1  0  0  0
 48125  1  0  0  0
 49 50  1  0  0  0
 49 53  1  0  0  0
 49 64  1  0  0  0
 49126  1  0  0  0
 50 51  1  0  0  0
 50127  1  0  0  0
 50128  1  0  0  0
 51 52  1  0  0  0
 51129  1  0  0  0
 51130  1  0  0  0
 52131  1  0  0  0
 52132  1  0  0  0
 53 54  1  0  0  0
 54 55  2  0  0  0
 54133  1  0  0  0
 55 57  1  0  0  0
 55134  1  0  0  0
 56 69  2  0  0  0
 57 58  2  0  0  0
 57135  1  0  0  0
 58136  1  0  0  0
 59 60  1  0  0  0
 59 61  1  0  0  0
 59 62  1  0  0  0
 60137  1  0  0  0
 60138  1  0  0  0
 60139  1  0  0  0
 61140  1  0  0  0
 61141  1  0  0  0
 61142  1  0  0  0
 62143  1  0  0  0
 62144  1  0  0  0
 62145  1  0  0  0
 63 65  1  0  0  0
 63146  1  0  0  0
 63147  1  0  0  0
 63148  1  0  0  0
 64149  1  0  0  0
 65150  1  0  0  0
 68 82  1  0  0  0
 71 73  2  0  0  0
 71 75  1  0  0  0
 71151  1  0  0  0
 72 74  1  0  0  0
 72 75  2  0  0  0
 72152  1  0  0  0
 73 76  1  0  0  0
 73 77  1  0  0  0
 74 76  2  0  0  0
 74 86  1  0  0  0
 75 90  1  0  0  0
 76 91  1  0  0  0
 77 87  1  0  0  0
 77 88  2  0  0  0
 78 82  1  0  0  0
 78 84  1  0  0  0
 78 89  2  0  0  0
 79153  1  0  0  0
 79154  1  0  0  0
 79155  1  0  0  0
 79 85  1  0  0  0
 80 85  1  0  0  0
 80156  1  0  0  0
 80157  1  0  0  0
 80158  1  0  0  0
 81 85  1  0  0  0
 81159  1  0  0  0
 81160  1  0  0  0
 81161  1  0  0  0
 82162  1  0  0  0
 82163  1  0  0  0
 83 85  1  0  0  0
 83164  1  0  0  0
 83165  1  0  0  0
 83 84  1  0  0  0
 84 87  1  0  0  0
 84166  1  0  0  0
 86167  1  0  0  0
 87168  1  0  0  0
 88169  1  0  0  0
 88170  1  0  0  0
M  CHG  1  88   1
M  ISO  4   1 100  68 101  82 101  86 100
M  END
> <chiral flag>
0

> <version>
0

> <s_m_source_file>
/data/baiqing/PycharmProjects/Reinvent-master-3.2/result/LINK_invent/BTK/process_docking_weight1_custom_product_contain_oxygen_bond_distance_aromatic_linkinvent_7_9_3/rearranged_h_0169.sdf

> <i_m_source_file_index>
96

> <r_mmod_Potential_Energy-OPLS-2005>
-280.034393310547

> <r_mmod_Stretch_Energy-OPLS-2005>
49.0662117004395

> <r_mmod_Bend_Energy-OPLS-2005>
117.172798156738

> <r_mmod_Torsional_Energy-OPLS-2005>
252.440078735352

> <r_mmod_Improper_Torsional_Energy-OPLS-2005>
5.82983446121216

> <r_mmod_Van_der_Waal_Energy-OPLS-2005>
171.133941650391

> <r_mmod_Electrostatic_Energy-OPLS-2005>
-452.601379394531

> <r_mmod_Solvation_Energy-OPLS-2005>
-447.563323974609

> <b_mmod_Minimization_Converged-OPLS-2005>
0

> <r_mmod_RMS_Derivative-OPLS-2005>
3.76908755302429

$$$$
96
                    3D
 Structure written by MMmdl.
156164  0  0  1  0            999 V2000
  -30.6708  -14.4877   20.6530 C   0  0  0  0  0  0
  -30.4442  -12.3424   19.4106 C   0  0  0  0  0  0
  -29.5025  -12.5394   18.2038 C   0  0  0  0  0  0
  -28.0260  -12.3764   18.6161 C   0  0  0  0  0  0
  -27.6719  -13.1995   19.8808 C   0  0  2  0  0  0
  -28.7093  -12.9391   20.9950 C   0  0  0  0  0  0
  -25.2632  -13.8137   20.5671 C   0  0  0  0  0  0
  -24.1867  -13.0440   20.9164 C   0  0  0  0  0  0
  -24.6406  -11.6898   20.8721 C   0  0  0  0  0  0
  -23.9060  -10.4295   21.0392 C   0  0  0  0  0  0
  -24.3608   -9.4215   21.9171 C   0  0  0  0  0  0
  -23.6287   -8.2255   22.0751 C   0  0  0  0  0  0
  -22.4271   -8.0290   21.3546 C   0  0  0  0  0  0
  -21.9902   -9.0267   20.4649 C   0  0  0  0  0  0
  -22.7228  -10.2146   20.3051 C   0  0  0  0  0  0
  -21.6859   -6.0733   22.5275 C   0  0  0  0  0  0
  -21.4014   -6.5636   23.8212 C   0  0  0  0  0  0
  -21.3658   -5.6784   24.9170 C   0  0  0  0  0  0
  -21.6046   -4.3050   24.7212 C   0  0  0  0  0  0
  -21.8820   -3.8145   23.4332 C   0  0  0  0  0  0
  -21.9194   -4.6963   22.3395 C   0  0  0  0  0  0
  -22.7893  -13.5248   21.1835 C   0  0  0  0  0  0
  -22.1665   -4.2153   21.0965 F   0  0  0  0  0  0
  -21.5628   -3.4528   25.7722 F   0  0  0  0  0  0
  -30.0478  -13.2846   20.4735 N   0  0  0  0  0  0
  -26.3077  -12.9304   20.3359 N   0  0  0  0  0  0
  -25.9329  -11.6464   20.5734 N   0  0  0  0  0  0
  -22.0519  -12.8272   22.0390 N   0  0  0  0  0  0
  -25.4345  -15.1861   20.4050 N   0  0  0  0  0  0
  -31.6901  -14.8165   20.0386 O   0  0  0  0  0  0
  -21.6644   -6.8882   21.4246 O   0  0  0  0  0  0
  -22.3593  -14.5553   20.6671 O   0  0  0  0  0  0
  -24.6199  -31.8642   23.2076 C   0  0  0  0  0  0
  -25.9070  -32.4808   23.8384 C   0  0  1  0  0  0
  -27.2370  -27.3716   20.1009 C   0  0  0  0  0  0
  -25.5901  -33.8606   24.2310 N   0  0  0  0  0  0
  -23.4110  -30.4888   21.5487 C   0  0  2  0  0  0
  -24.8577  -28.9474   20.1167 C   0  0  0  0  0  0
  -22.7428  -29.4657   22.4961 C   0  0  0  0  0  0
  -18.0282  -28.1374   22.8491 C   0  0  0  0  0  0
  -24.1485  -36.7294   23.2640 C   0  0  0  0  0  0
  -25.9478  -30.8096   21.3733 C   0  0  0  0  0  0
  -26.0223  -29.4412   20.7147 C   0  0  0  0  0  0
  -27.2092  -28.6618   20.7019 C   0  0  0  0  0  0
  -26.0433  -26.9118   19.4938 C   0  0  0  0  0  0
  -24.8659  -27.6839   19.5062 C   0  0  0  0  0  0
  -23.6232  -29.8209   20.1652 C   0  0  0  0  0  0
  -25.4111  -36.3100   24.0338 C   0  0  1  0  0  0
  -20.5873  -28.3681   23.1290 C   0  0  2  0  0  0
  -20.6775  -26.9405   22.5416 C   0  0  0  0  0  0
  -19.5754  -26.6372   21.5213 C   0  0  0  0  0  0
  -18.1931  -26.7921   22.1622 C   0  0  0  0  0  0
  -19.1532  -28.8844   23.2888 C   0  0  0  0  0  0
  -18.9463  -30.1446   23.8902 C   0  0  0  0  0  0
  -17.6466  -30.6588   24.0562 C   0  0  0  0  0  0
  -25.9039  -34.9468   23.5126 C   0  0  0  0  0  0
  -16.5354  -29.9086   23.6333 C   0  0  0  0  0  0
  -16.7269  -28.6498   23.0359 C   0  0  0  0  0  0
  -26.4473  -31.6608   25.0735 C   0  0  0  0  0  0
  -25.3720  -31.3746   26.1473 C   0  0  0  0  0  0
  -27.0313  -30.3030   24.6184 C   0  0  0  0  0  0
  -27.6045  -32.4336   25.7487 C   0  0  0  0  0  0
  -27.5581  -37.1803   24.8469 C   0  0  0  0  0  0
  -21.4151  -29.3039   22.3683 N   0  0  0  0  0  0
  -26.4298  -37.3788   23.9408 N   0  0  0  0  0  0
  -24.6778  -31.0696   22.1003 N   0  0  0  0  0  0
  -23.4168  -28.8203   23.3034 O   0  0  0  0  0  0
  -28.4103  -26.6158   20.1474 O   0  0  0  0  0  0
  -26.5608  -34.8926   22.4692 O   0  0  0  0  0  0
  -23.5374  -32.1424   23.7427 O   0  0  0  0  0  0
  -28.3596  -16.6682   22.3661 C   0  0  0  0  0  0
  -28.2144  -19.0520   21.8824 C   0  0  0  0  0  0
  -30.0730  -17.7378   20.9976 C   0  0  0  0  0  0
  -27.6800  -17.8970   22.4834 C   0  0  0  0  0  0
  -29.5526  -16.5577   21.6212 C   0  0  0  0  0  0
  -29.4131  -19.0072   21.1387 C   0  0  0  0  0  0
  -29.1276  -22.6724   20.1256 C   0  0  0  0  0  0
  -29.0001  -24.1816   20.6133 C   0  0  0  0  0  0
  -29.6744  -21.5731   21.0961 C   0  0  0  0  0  0
  -28.4871  -25.2542   19.6026 C   0  0  0  0  0  0
  -26.3700  -18.0040   23.2496 C   0  0  0  0  0  0
  -30.1419  -15.2405   21.6422 N   0  0  0  0  0  0
  -29.9044  -20.1998   20.5373 N   0  0  0  0  0  0
  -28.7850  -22.3585   18.9780 O   0  0  0  0  0  0
  -29.3124  -24.4990   21.7693 O   0  0  0  0  0  0
  -25.9909  -16.8386   23.7765 F   0  0  0  0  0  0
  -26.5038  -18.8887   24.2374 F   0  0  0  0  0  0
  -25.4077  -18.4285   22.4298 F   0  0  0  0  0  0
  -31.4841  -12.4832   19.1098 H   0  0  0  0  0  0
  -30.3799  -11.3159   19.7763 H   0  0  0  0  0  0
  -29.7500  -11.8312   17.4119 H   0  0  0  0  0  0
  -29.6552  -13.5341   17.7807 H   0  0  0  0  0  0
  -27.8462  -11.3173   18.8041 H   0  0  0  0  0  0
  -27.3706  -12.6551   17.7897 H   0  0  0  0  0  0
  -27.7296  -14.2528   19.6067 H   0  0  0  0  0  0
  -28.6928  -11.8861   21.2780 H   0  0  0  0  0  0
  -28.4337  -13.4761   21.9025 H   0  0  0  0  0  0
  -25.2758   -9.5690   22.4743 H   0  0  0  0  0  0
  -24.0000   -7.4646   22.7466 H   0  0  0  0  0  0
  -21.0829   -8.8778   19.8961 H   0  0  0  0  0  0
  -22.3680  -10.9680   19.6159 H   0  0  0  0  0  0
  -21.2009   -7.6147   23.9720 H   0  0  0  0  0  0
  -21.1484   -6.0502   25.9075 H   0  0  0  0  0  0
  -22.0604   -2.7608   23.2814 H   0  0  0  0  0  0
  -22.4128  -11.9939   22.4806 H   0  0  0  0  0  0
  -21.1145  -13.1331   22.2591 H   0  0  0  0  0  0
  -24.6616  -15.8340   20.5111 H   0  0  0  0  0  0
  -26.2761  -15.6241   20.0540 H   0  0  0  0  0  0
  -26.7132  -32.5504   23.1130 H   0  0  0  0  0  0
  -25.0049  -33.9763   25.0454 H   0  0  0  0  0  0
  -22.7033  -31.3090   21.4071 H   0  0  0  0  0  0
  -23.3754  -35.9623   23.3329 H   0  0  0  0  0  0
  -24.3572  -36.8882   22.2050 H   0  0  0  0  0  0
  -23.7235  -37.6504   23.6639 H   0  0  0  0  0  0
  -26.0768  -31.5793   20.6115 H   0  0  0  0  0  0
  -26.8285  -30.8535   22.0028 H   0  0  0  0  0  0
  -28.1067  -29.0416   21.1702 H   0  0  0  0  0  0
  -25.9690  -25.9548   19.0062 H   0  0  0  0  0  0
  -23.9673  -27.2954   19.0462 H   0  0  0  0  0  0
  -23.7355  -30.5959   19.4058 H   0  0  0  0  0  0
  -22.7463  -29.2423   19.8683 H   0  0  0  0  0  0
  -25.1291  -36.1964   25.0833 H   0  0  0  0  0  0
  -20.9974  -28.3267   24.1406 H   0  0  0  0  0  0
  -20.5673  -26.2292   23.3617 H   0  0  0  0  0  0
  -21.6650  -26.7443   22.1219 H   0  0  0  0  0  0
  -19.6922  -25.6280   21.1254 H   0  0  0  0  0  0
  -19.6699  -27.3173   20.6738 H   0  0  0  0  0  0
  -17.4204  -26.6669   21.4021 H   0  0  0  0  0  0
  -18.0331  -26.0059   22.9013 H   0  0  0  0  0  0
  -19.7939  -30.7255   24.2273 H   0  0  0  0  0  0
  -17.5028  -31.6274   24.5153 H   0  0  0  0  0  0
  -15.5355  -30.2995   23.7657 H   0  0  0  0  0  0
  -15.8664  -28.0818   22.7080 H   0  0  0  0  0  0
  -24.5888  -30.7091   25.7815 H   0  0  0  0  0  0
  -24.8909  -32.2915   26.4894 H   0  0  0  0  0  0
  -25.8049  -30.8933   27.0253 H   0  0  0  0  0  0
  -26.2887  -29.6783   24.1199 H   0  0  0  0  0  0
  -27.3998  -29.7278   25.4692 H   0  0  0  0  0  0
  -27.8764  -30.4311   23.9413 H   0  0  0  0  0  0
  -27.2664  -33.3636   26.2072 H   0  0  0  0  0  0
  -28.3839  -32.6901   25.0299 H   0  0  0  0  0  0
  -28.0733  -31.8461   26.5392 H   0  0  0  0  0  0
  -28.2620  -38.0078   24.7502 H   0  0  0  0  0  0
  -28.1051  -36.2612   24.6316 H   0  0  0  0  0  0
  -27.2294  -37.1484   25.8871 H   0  0  0  0  0  0
  -20.9314  -29.8735   21.6882 H   0  0  0  0  0  0
  -26.0188  -38.2871   24.1396 H   0  0  0  0  0  0
  -27.9432  -15.7992   22.8554 H   0  0  0  0  0  0
  -27.6603  -19.9717   21.9913 H   0  0  0  0  0  0
  -30.9905  -17.6684   20.4306 H   0  0  0  0  0  0
  -29.0311  -21.5614   21.9749 H   0  0  0  0  0  0
  -30.6395  -21.9372   21.4520 H   0  0  0  0  0  0
  -27.5663  -24.8761   19.1716 H   0  0  0  0  0  0
  -29.2067  -25.2756   18.7848 H   0  0  0  0  0  0
  -29.6481  -14.6231   22.2686 H   0  0  0  0  0  0
  -30.6722  -20.1217   19.8751 H   0  0  0  0  0  0
  1 25  1  0  0  0
  1 30  2  0  0  0
  1 82  1  0  0  0
  2  3  1  0  0  0
  2 25  1  0  0  0
  2 89  1  0  0  0
  2 90  1  0  0  0
  3  4  1  0  0  0
  3 91  1  0  0  0
  3 92  1  0  0  0
  4  5  1  0  0  0
  4 93  1  0  0  0
  4 94  1  0  0  0
  5  6  1  0  0  0
  5 26  1  0  0  0
  5 95  1  0  0  0
  6 25  1  0  0  0
  6 96  1  0  0  0
  6 97  1  0  0  0
  7  8  2  0  0  0
  7 26  1  0  0  0
  7 29  1  0  0  0
  8  9  1  0  0  0
  8 22  1  0  0  0
  9 10  1  0  0  0
  9 27  2  0  0  0
 10 11  2  0  0  0
 10 15  1  0  0  0
 11 12  1  0  0  0
 11 98  1  0  0  0
 12 13  2  0  0  0
 12 99  1  0  0  0
 13 14  1  0  0  0
 13 31  1  0  0  0
 14 15  2  0  0  0
 14100  1  0  0  0
 15101  1  0  0  0
 16 17  2  0  0  0
 16 21  1  0  0  0
 16 31  1  0  0  0
 17 18  1  0  0  0
 17102  1  0  0  0
 18 19  2  0  0  0
 18103  1  0  0  0
 19 20  1  0  0  0
 19 24  1  0  0  0
 20 21  2  0  0  0
 20104  1  0  0  0
 21 23  1  0  0  0
 22 28  1  0  0  0
 22 32  2  0  0  0
 26 27  1  0  0  0
 28105  1  0  0  0
 28106  1  0  0  0
 29107  1  0  0  0
 29108  1  0  0  0
 33 34  1  0  0  0
 33 66  1  0  0  0
 33 70  2  0  0  0
 34 36  1  0  0  0
 34 59  1  0  0  0
 34109  1  0  0  0
 35 44  2  0  0  0
 35 45  1  0  0  0
 35 68  1  0  0  0
 36 56  1  0  0  0
 36110  1  0  0  0
 37 39  1  0  0  0
 37 47  1  0  0  0
 37 66  1  0  0  0
 37111  1  0  0  0
 38 43  2  0  0  0
 38 46  1  0  0  0
 38 47  1  0  0  0
 39 64  1  0  0  0
 39 67  2  0  0  0
 40 52  1  0  0  0
 40 53  2  0  0  0
 40 58  1  0  0  0
 41112  1  0  0  0
 41113  1  0  0  0
 41114  1  0  0  0
 41 48  1  0  0  0
 42 43  1  0  0  0
 42 66  1  0  0  0
 42115  1  0  0  0
 42116  1  0  0  0
 43 44  1  0  0  0
 44117  1  0  0  0
 45 46  2  0  0  0
 45118  1  0  0  0
 46119  1  0  0  0
 47120  1  0  0  0
 47121  1  0  0  0
 48 56  1  0  0  0
 48 65  1  0  0  0
 48122  1  0  0  0
 49 50  1  0  0  0
 49 53  1  0  0  0
 49 64  1  0  0  0
 49123  1  0  0  0
 50 51  1  0  0  0
 50124  1  0  0  0
 50125  1  0  0  0
 51 52  1  0  0  0
 51126  1  0  0  0
 51127  1  0  0  0
 52128  1  0  0  0
 52129  1  0  0  0
 53 54  1  0  0  0
 54 55  2  0  0  0
 54130  1  0  0  0
 55 57  1  0  0  0
 55131  1  0  0  0
 56 69  2  0  0  0
 57 58  2  0  0  0
 57132  1  0  0  0
 58133  1  0  0  0
 59 60  1  0  0  0
 59 61  1  0  0  0
 59 62  1  0  0  0
 60134  1  0  0  0
 60135  1  0  0  0
 60136  1  0  0  0
 61137  1  0  0  0
 61138  1  0  0  0
 61139  1  0  0  0
 62140  1  0  0  0
 62141  1  0  0  0
 62142  1  0  0  0
 63 65  1  0  0  0
 63143  1  0  0  0
 63144  1  0  0  0
 63145  1  0  0  0
 64146  1  0  0  0
 65147  1  0  0  0
 68 80  1  0  0  0
 71 74  2  0  0  0
 71 75  1  0  0  0
 71148  1  0  0  0
 72 74  1  0  0  0
 72 76  2  0  0  0
 72149  1  0  0  0
 73 75  2  0  0  0
 73 76  1  0  0  0
 73150  1  0  0  0
 74 81  1  0  0  0
 75 82  1  0  0  0
 76 83  1  0  0  0
 77 78  1  0  0  0
 77 79  1  0  0  0
 77 84  2  0  0  0
 78 80  1  0  0  0
 78 85  2  0  0  0
 79 83  1  0  0  0
 79151  1  0  0  0
 79152  1  0  0  0
 80153  1  0  0  0
 80154  1  0  0  0
 81 86  1  0  0  0
 81 87  1  0  0  0
 81 88  1  0  0  0
 82155  1  0  0  0
 83156  1  0  0  0
M  ISO  4   1 100  68 101  80 101  82 100
M  END
> <chiral flag>
0

> <version>
0

> <s_m_source_file>
/data/baiqing/PycharmProjects/Reinvent-master-3.2/result/LINK_invent/BTK/process_docking_weight1_custom_product_contain_oxygen_bond_distance_aromatic_linkinvent_7_9_3/rearranged_h_0169.sdf

> <i_m_source_file_index>
97

> <r_mmod_Potential_Energy-OPLS-2005>
114.931198120117

> <r_mmod_Stretch_Energy-OPLS-2005>
63.4223518371582

> <r_mmod_Bend_Energy-OPLS-2005>
145.598602294922

> <r_mmod_Torsional_Energy-OPLS-2005>
216.165618896484

> <r_mmod_Improper_Torsional_Energy-OPLS-2005>
7.11228799819946

> <r_mmod_Van_der_Waal_Energy-OPLS-2005>
142.205230712891

> <r_mmod_Electrostatic_Energy-OPLS-2005>
-235.794311523438

> <r_mmod_Solvation_Energy-OPLS-2005>
-245.091384887695

> <b_mmod_Minimization_Converged-OPLS-2005>
0

> <r_mmod_RMS_Derivative-OPLS-2005>
2.2028968334198

$$$$
