0
                    3D
 Structure written by MMmdl.
163171  0  0  1  0            999 V2000
  -30.6740  -14.4985   20.5478 C   0  0  0  0  0  0
  -30.4278  -12.3132   19.4264 C   0  0  0  0  0  0
  -29.5015  -12.5106   18.2081 C   0  0  0  0  0  0
  -28.0180  -12.3853   18.6136 C   0  0  0  0  0  0
  -27.6630  -13.2087   19.8811 C   0  0  2  0  0  0
  -28.7073  -12.9833   20.9989 C   0  0  0  0  0  0
  -25.2589  -13.8155   20.5694 C   0  0  0  0  0  0
  -24.1845  -13.0431   20.9169 C   0  0  0  0  0  0
  -24.6409  -11.6902   20.8732 C   0  0  0  0  0  0
  -23.9076  -10.4291   21.0402 C   0  0  0  0  0  0
  -24.3623   -9.4210   21.9183 C   0  0  0  0  0  0
  -23.6293   -8.2249   22.0761 C   0  0  0  0  0  0
  -22.4280   -8.0286   21.3551 C   0  0  0  0  0  0
  -21.9921   -9.0256   20.4646 C   0  0  0  0  0  0
  -22.7247  -10.2128   20.3051 C   0  0  0  0  0  0
  -21.6854   -6.0746   22.5288 C   0  0  0  0  0  0
  -21.4015   -6.5649   23.8220 C   0  0  0  0  0  0
  -21.3663   -5.6796   24.9180 C   0  0  0  0  0  0
  -21.6048   -4.3062   24.7228 C   0  0  0  0  0  0
  -21.8815   -3.8155   23.4345 C   0  0  0  0  0  0
  -21.9189   -4.6973   22.3403 C   0  0  0  0  0  0
  -22.7868  -13.5224   21.1819 C   0  0  0  0  0  0
  -22.1656   -4.2168   21.0975 F   0  0  0  0  0  0
  -21.5630   -3.4540   25.7734 F   0  0  0  0  0  0
  -30.0369  -13.2978   20.4471 N   0  0  0  0  0  0
  -26.3036  -12.9333   20.3397 N   0  0  0  0  0  0
  -25.9340  -11.6490   20.5784 N   0  0  0  0  0  0
  -22.0496  -12.8234   22.0377 N   0  0  0  0  0  0
  -25.4288  -15.1883   20.4116 N   0  0  0  0  0  0
  -31.8170  -14.6881   20.1267 O   0  0  0  0  0  0
  -21.6643   -6.8885   21.4249 O   0  0  0  0  0  0
  -22.3560  -14.5535   20.6663 O   0  0  0  0  0  0
  -24.6158  -31.8665   23.2092 C   0  0  0  0  0  0
  -25.9040  -32.4818   23.8408 C   0  0  1  0  0  0
  -27.2366  -27.4246   20.1017 C   0  0  0  0  0  0
  -25.5887  -33.8617   24.2340 N   0  0  0  0  0  0
  -23.4068  -30.4881   21.5476 C   0  0  2  0  0  0
  -24.8577  -28.9524   20.1142 C   0  0  0  0  0  0
  -22.7420  -29.4645   22.4974 C   0  0  0  0  0  0
  -18.0267  -28.1389   22.8487 C   0  0  0  0  0  0
  -24.1468  -36.7307   23.2645 C   0  0  0  0  0  0
  -25.9347  -30.8286   21.3644 C   0  0  0  0  0  0
  -26.0163  -29.4589   20.7181 C   0  0  0  0  0  0
  -27.2108  -28.6989   20.7181 C   0  0  0  0  0  0
  -26.0690  -26.9380   19.4840 C   0  0  0  0  0  0
  -24.8781  -27.6897   19.4942 C   0  0  0  0  0  0
  -23.6195  -29.8205   20.1618 C   0  0  0  0  0  0
  -25.4092  -36.3116   24.0353 C   0  0  1  0  0  0
  -20.5854  -28.3675   23.1313 C   0  0  2  0  0  0
  -20.6762  -26.9410   22.5420 C   0  0  0  0  0  0
  -19.5739  -26.6391   21.5219 C   0  0  0  0  0  0
  -18.1915  -26.7931   22.1624 C   0  0  0  0  0  0
  -19.1517  -28.8851   23.2899 C   0  0  0  0  0  0
  -18.9454  -30.1451   23.8916 C   0  0  0  0  0  0
  -17.6459  -30.6597   24.0562 C   0  0  0  0  0  0
  -25.9026  -34.9479   23.5147 C   0  0  0  0  0  0
  -16.5346  -29.9103   23.6320 C   0  0  0  0  0  0
  -16.7259  -28.6517   23.0345 C   0  0  0  0  0  0
  -26.4479  -31.6586   25.0721 C   0  0  0  0  0  0
  -25.3744  -31.3642   26.1463 C   0  0  0  0  0  0
  -27.0336  -30.3049   24.6055 C   0  0  0  0  0  0
  -27.6069  -32.4289   25.7480 C   0  0  0  0  0  0
  -27.5581  -37.1800   24.8470 C   0  0  0  0  0  0
  -21.4140  -29.3037   22.3714 N   0  0  0  0  0  0
  -26.4281  -37.3805   23.9434 N   0  0  0  0  0  0
  -24.6707  -31.0751   22.1000 N   0  0  0  0  0  0
  -23.4172  -28.8189   23.3036 O   0  0  0  0  0  0
  -28.3567  -26.6231   20.0954 O   0  0  0  0  0  0
  -26.5590  -34.8924   22.4711 O   0  0  0  0  0  0
  -23.5349  -32.1423   23.7482 O   0  0  0  0  0  0
  -30.0827  -17.7516   21.9353 C   0  0  0  0  0  0
  -29.8271  -17.5327   19.5180 C   0  0  0  0  0  0
  -29.7756  -18.9608   19.4187 C   0  0  0  0  0  0
  -29.9958  -16.9188   20.7985 C   0  0  0  0  0  0
  -29.8370  -19.7836   20.5741 C   0  0  0  0  0  0
  -30.0089  -19.1573   21.8348 C   0  0  0  0  0  0
  -29.5663  -19.6580   18.0767 C   0  0  0  0  0  0
  -30.8490  -16.4447   17.4068 C   0  0  0  0  0  0
  -29.5932  -16.6795   18.2648 C   0  0  0  0  0  0
  -29.2765  -24.5109   21.1605 C   0  0  0  0  0  0
  -28.4193  -23.2691   20.7781 C   0  0  0  0  0  0
  -28.5197  -25.8661   21.3046 C   0  0  0  0  0  0
  -28.9196  -21.8980   21.3351 C   0  0  0  0  0  0
  -29.9087  -15.5017   21.0303 N   0  0  0  0  0  0
  -29.7324  -21.1636   20.4087 O   0  0  0  0  0  0
  -30.1111  -19.8924   22.9687 F   0  0  0  0  0  0
  -31.4744  -12.4134   19.1314 H   0  0  0  0  0  0
  -30.3227  -11.3020   19.8227 H   0  0  0  0  0  0
  -29.7366  -11.7802   17.4323 H   0  0  0  0  0  0
  -29.6830  -13.4903   17.7641 H   0  0  0  0  0  0
  -27.8079  -11.3294   18.7842 H   0  0  0  0  0  0
  -27.3791  -12.6891   17.7844 H   0  0  0  0  0  0
  -27.7017  -14.2604   19.5997 H   0  0  0  0  0  0
  -28.6872  -11.9450   21.3331 H   0  0  0  0  0  0
  -28.4730  -13.5763   21.8849 H   0  0  0  0  0  0
  -25.2766   -9.5695   22.4760 H   0  0  0  0  0  0
  -24.0007   -7.4652   22.7494 H   0  0  0  0  0  0
  -21.0858   -8.8768   19.8951 H   0  0  0  0  0  0
  -22.3709  -10.9667   19.6164 H   0  0  0  0  0  0
  -21.2004   -7.6158   23.9731 H   0  0  0  0  0  0
  -21.1495   -6.0527   25.9083 H   0  0  0  0  0  0
  -22.0590   -2.7623   23.2841 H   0  0  0  0  0  0
  -22.4102  -11.9887   22.4762 H   0  0  0  0  0  0
  -21.1119  -13.1277   22.2574 H   0  0  0  0  0  0
  -24.6579  -15.8381   20.5160 H   0  0  0  0  0  0
  -26.2812  -15.6349   20.0988 H   0  0  0  0  0  0
  -26.7114  -32.5533   23.1180 H   0  0  0  0  0  0
  -25.0065  -33.9781   25.0500 H   0  0  0  0  0  0
  -22.6960  -31.3051   21.4048 H   0  0  0  0  0  0
  -23.3746  -35.9623   23.3289 H   0  0  0  0  0  0
  -24.3585  -36.8946   22.2069 H   0  0  0  0  0  0
  -23.7192  -37.6490   23.6674 H   0  0  0  0  0  0
  -26.0393  -31.5887   20.5887 H   0  0  0  0  0  0
  -26.8260  -30.8925   21.9769 H   0  0  0  0  0  0
  -28.1040  -29.0816   21.1936 H   0  0  0  0  0  0
  -26.0800  -25.9677   19.0070 H   0  0  0  0  0  0
  -23.9898  -27.2962   19.0184 H   0  0  0  0  0  0
  -23.7322  -30.5951   19.4023 H   0  0  0  0  0  0
  -22.7434  -29.2429   19.8621 H   0  0  0  0  0  0
  -25.1257  -36.1994   25.0845 H   0  0  0  0  0  0
  -20.9944  -28.3249   24.1436 H   0  0  0  0  0  0
  -20.5681  -26.2290   23.3607 H   0  0  0  0  0  0
  -21.6640  -26.7470   22.1211 H   0  0  0  0  0  0
  -19.6906  -25.6301   21.1251 H   0  0  0  0  0  0
  -19.6680  -27.3206   20.6746 H   0  0  0  0  0  0
  -17.4186  -26.6676   21.4020 H   0  0  0  0  0  0
  -18.0314  -26.0074   22.9023 H   0  0  0  0  0  0
  -19.7936  -30.7253   24.2302 H   0  0  0  0  0  0
  -17.5021  -31.6279   24.5155 H   0  0  0  0  0  0
  -15.5353  -30.3020   23.7637 H   0  0  0  0  0  0
  -15.8653  -28.0853   22.7050 H   0  0  0  0  0  0
  -24.5947  -30.6961   25.7776 H   0  0  0  0  0  0
  -24.8887  -32.2762   26.4932 H   0  0  0  0  0  0
  -25.8114  -30.8797   27.0204 H   0  0  0  0  0  0
  -26.2872  -29.6761   24.1183 H   0  0  0  0  0  0
  -27.4227  -29.7323   25.4487 H   0  0  0  0  0  0
  -27.8642  -30.4401   23.9128 H   0  0  0  0  0  0
  -27.2728  -33.3604   26.2057 H   0  0  0  0  0  0
  -28.3889  -32.6812   25.0307 H   0  0  0  0  0  0
  -28.0709  -31.8383   26.5388 H   0  0  0  0  0  0
  -28.2577  -38.0118   24.7589 H   0  0  0  0  0  0
  -28.1106  -36.2667   24.6217 H   0  0  0  0  0  0
  -27.2312  -37.1354   25.8870 H   0  0  0  0  0  0
  -20.9311  -29.8777   21.6939 H   0  0  0  0  0  0
  -26.0166  -38.2875   24.1477 H   0  0  0  0  0  0
  -30.1860  -17.3114   22.9160 H   0  0  0  0  0  0
  -29.9669  -19.1032   17.2334 H   0  0  0  0  0  0
  -30.0579  -20.6301   18.0521 H   0  0  0  0  0  0
  -28.5015  -19.8159   17.9030 H   0  0  0  0  0  0
  -30.5997  -15.8503   16.5270 H   0  0  0  0  0  0
  -31.6219  -15.9071   17.9512 H   0  0  0  0  0  0
  -31.2952  -17.3726   17.0540 H   0  0  0  0  0  0
  -28.8175  -17.1432   17.6549 H   0  0  0  0  0  0
  -29.1597  -15.7217   18.5373 H   0  0  0  0  0  0
  -30.1297  -24.6111   20.4895 H   0  0  0  0  0  0
  -29.7057  -24.3099   22.1427 H   0  0  0  0  0  0
  -28.2842  -23.2168   19.6975 H   0  0  0  0  0  0
  -27.4169  -23.4238   21.1794 H   0  0  0  0  0  0
  -29.0863  -26.5029   21.9860 H   0  0  0  0  0  0
  -27.5612  -25.6930   21.8000 H   0  0  0  0  0  0
  -28.0458  -21.2889   21.5740 H   0  0  0  0  0  0
  -29.4531  -22.0525   22.2730 H   0  0  0  0  0  0
  -29.0744  -15.1915   21.5048 H   0  0  0  0  0  0
  1 25  1  0  0  0
  1 30  2  0  0  0
  1 84  1  0  0  0
  2  3  1  0  0  0
  2 25  1  0  0  0
  2 87  1  0  0  0
  2 88  1  0  0  0
  3  4  1  0  0  0
  3 89  1  0  0  0
  3 90  1  0  0  0
  4  5  1  0  0  0
  4 91  1  0  0  0
  4 92  1  0  0  0
  5  6  1  0  0  0
  5 26  1  0  0  0
  5 93  1  0  0  0
  6 25  1  0  0  0
  6 94  1  0  0  0
  6 95  1  0  0  0
  7  8  2  0  0  0
  7 26  1  0  0  0
  7 29  1  0  0  0
  8  9  1  0  0  0
  8 22  1  0  0  0
  9 10  1  0  0  0
  9 27  2  0  0  0
 10 11  2  0  0  0
 10 15  1  0  0  0
 11 12  1  0  0  0
 11 96  1  0  0  0
 12 13  2  0  0  0
 12 97  1  0  0  0
 13 14  1  0  0  0
 13 31  1  0  0  0
 14 15  2  0  0  0
 14 98  1  0  0  0
 15 99  1  0  0  0
 16 17  2  0  0  0
 16 21  1  0  0  0
 16 31  1  0  0  0
 17 18  1  0  0  0
 17100  1  0  0  0
 18 19  2  0  0  0
 18101  1  0  0  0
 19 20  1  0  0  0
 19 24  1  0  0  0
 20 21  2  0  0  0
 20102  1  0  0  0
 21 23  1  0  0  0
 22 28  1  0  0  0
 22 32  2  0  0  0
 26 27  1  0  0  0
 28103  1  0  0  0
 28104  1  0  0  0
 29105  1  0  0  0
 29106  1  0  0  0
 33 34  1  0  0  0
 33 66  1  0  0  0
 33 70  2  0  0  0
 34 36  1  0  0  0
 34 59  1  0  0  0
 34107  1  0  0  0
 35 44  2  0  0  0
 35 45  1  0  0  0
 35 68  1  0  0  0
 36 56  1  0  0  0
 36108  1  0  0  0
 37 39  1  0  0  0
 37 47  1  0  0  0
 37 66  1  0  0  0
 37109  1  0  0  0
 38 43  2  0  0  0
 38 46  1  0  0  0
 38 47  1  0  0  0
 39 64  1  0  0  0
 39 67  2  0  0  0
 40 52  1  0  0  0
 40 53  2  0  0  0
 40 58  1  0  0  0
 41110  1  0  0  0
 41111  1  0  0  0
 41112  1  0  0  0
 41 48  1  0  0  0
 42 43  1  0  0  0
 42 66  1  0  0  0
 42113  1  0  0  0
 42114  1  0  0  0
 43 44  1  0  0  0
 44115  1  0  0  0
 45 46  2  0  0  0
 45116  1  0  0  0
 46117  1  0  0  0
 47118  1  0  0  0
 47119  1  0  0  0
 48 56  1  0  0  0
 48 65  1  0  0  0
 48120  1  0  0  0
 49 50  1  0  0  0
 49 53  1  0  0  0
 49 64  1  0  0  0
 49121  1  0  0  0
 50 51  1  0  0  0
 50122  1  0  0  0
 50123  1  0  0  0
 51 52  1  0  0  0
 51124  1  0  0  0
 51125  1  0  0  0
 52126  1  0  0  0
 52127  1  0  0  0
 53 54  1  0  0  0
 54 55  2  0  0  0
 54128  1  0  0  0
 55 57  1  0  0  0
 55129  1  0  0  0
 56 69  2  0  0  0
 57 58  2  0  0  0
 57130  1  0  0  0
 58131  1  0  0  0
 59 60  1  0  0  0
 59 61  1  0  0  0
 59 62  1  0  0  0
 60132  1  0  0  0
 60133  1  0  0  0
 60134  1  0  0  0
 61135  1  0  0  0
 61136  1  0  0  0
 61137  1  0  0  0
 62138  1  0  0  0
 62139  1  0  0  0
 62140  1  0  0  0
 63 65  1  0  0  0
 63141  1  0  0  0
 63142  1  0  0  0
 63143  1  0  0  0
 64144  1  0  0  0
 65145  1  0  0  0
 68 82  1  0  0  0
 71 74  2  0  0  0
 71 76  1  0  0  0
 71146  1  0  0  0
 72 73  2  0  0  0
 72 74  1  0  0  0
 72 79  1  0  0  0
 73 75  1  0  0  0
 73 77  1  0  0  0
 74 84  1  0  0  0
 75 76  2  0  0  0
 75 85  1  0  0  0
 76 86  1  0  0  0
 77147  1  0  0  0
 77148  1  0  0  0
 77149  1  0  0  0
 78 79  1  0  0  0
 78150  1  0  0  0
 78151  1  0  0  0
 78152  1  0  0  0
 79153  1  0  0  0
 79154  1  0  0  0
 80 81  1  0  0  0
 80 82  1  0  0  0
 80155  1  0  0  0
 80156  1  0  0  0
 81 83  1  0  0  0
 81157  1  0  0  0
 81158  1  0  0  0
 82159  1  0  0  0
 82160  1  0  0  0
 83 85  1  0  0  0
 83161  1  0  0  0
 83162  1  0  0  0
 84163  1  0  0  0
M  ISO  4   1 100  68 101  82 101  84 100
M  END
> <chiral flag>
0

> <version>
0

> <s_m_source_file>
/data/baiqing/PycharmProjects/Reinvent-master-3.2/result/LINK_invent/BTK/process_docking_weight1_custom_product_contain_oxygen_bond_distance_aromatic_linkinvent_7_9_3/rearranged_h_0122.sdf

> <i_m_source_file_index>
1

> <r_mmod_Potential_Energy-OPLS-2005>
43.8408699035645

> <r_mmod_Stretch_Energy-OPLS-2005>
46.0496482849121

> <r_mmod_Bend_Energy-OPLS-2005>
109.103546142578

> <r_mmod_Torsional_Energy-OPLS-2005>
294.291168212891

> <r_mmod_Improper_Torsional_Energy-OPLS-2005>
4.38965082168579

> <r_mmod_Van_der_Waal_Energy-OPLS-2005>
148.488876342773

> <r_mmod_Electrostatic_Energy-OPLS-2005>
-371.945037841797

> <r_mmod_Solvation_Energy-OPLS-2005>
-202.300506591797

> <b_mmod_Minimization_Converged-OPLS-2005>
0

> <r_mmod_RMS_Derivative-OPLS-2005>
1.82395732402802

$$$$
1
                    3D
 Structure written by MMmdl.
158166  0  0  1  0            999 V2000
  -30.7429  -14.4161   20.5257 C   0  0  0  0  0  0
  -30.3962  -12.2540   19.4343 C   0  0  0  0  0  0
  -29.4882  -12.4812   18.2091 C   0  0  0  0  0  0
  -28.0056  -12.3706   18.6144 C   0  0  0  0  0  0
  -27.6560  -13.2167   19.8692 C   0  0  2  0  0  0
  -28.6958  -13.0195   20.9949 C   0  0  0  0  0  0
  -25.2554  -13.8191   20.5700 C   0  0  0  0  0  0
  -24.1819  -13.0445   20.9165 C   0  0  0  0  0  0
  -24.6394  -11.6918   20.8740 C   0  0  0  0  0  0
  -23.9068  -10.4299   21.0409 C   0  0  0  0  0  0
  -24.3619   -9.4217   21.9186 C   0  0  0  0  0  0
  -23.6290   -8.2256   22.0762 C   0  0  0  0  0  0
  -22.4277   -8.0288   21.3544 C   0  0  0  0  0  0
  -21.9914   -9.0263   20.4646 C   0  0  0  0  0  0
  -22.7244  -10.2141   20.3058 C   0  0  0  0  0  0
  -21.6862   -6.0729   22.5278 C   0  0  0  0  0  0
  -21.4018   -6.5631   23.8207 C   0  0  0  0  0  0
  -21.3658   -5.6790   24.9171 C   0  0  0  0  0  0
  -21.6046   -4.3050   24.7229 C   0  0  0  0  0  0
  -21.8819   -3.8140   23.4350 C   0  0  0  0  0  0
  -21.9199   -4.6956   22.3405 C   0  0  0  0  0  0
  -22.7838  -13.5227   21.1831 C   0  0  0  0  0  0
  -22.1669   -4.2144   21.0981 F   0  0  0  0  0  0
  -21.5636   -3.4531   25.7739 F   0  0  0  0  0  0
  -30.0333  -13.2624   20.4411 N   0  0  0  0  0  0
  -26.2997  -12.9387   20.3361 N   0  0  0  0  0  0
  -25.9325  -11.6534   20.5785 N   0  0  0  0  0  0
  -22.0485  -12.8227   22.0397 N   0  0  0  0  0  0
  -25.4269  -15.1913   20.4137 N   0  0  0  0  0  0
  -31.9007  -14.5130   20.1137 O   0  0  0  0  0  0
  -21.6647   -6.8876   21.4238 O   0  0  0  0  0  0
  -22.3519  -14.5529   20.6678 O   0  0  0  0  0  0
  -24.6117  -31.8708   23.2118 C   0  0  0  0  0  0
  -25.9025  -32.4832   23.8408 C   0  0  1  0  0  0
  -27.2290  -27.4607   20.0955 C   0  0  0  0  0  0
  -25.5892  -33.8633   24.2340 N   0  0  0  0  0  0
  -23.3978  -30.4939   21.5532 C   0  0  2  0  0  0
  -24.8424  -28.9623   20.1155 C   0  0  0  0  0  0
  -22.7396  -29.4666   22.5013 C   0  0  0  0  0  0
  -18.0272  -28.1366   22.8503 C   0  0  0  0  0  0
  -24.1484  -36.7320   23.2639 C   0  0  0  0  0  0
  -25.9231  -30.8444   21.3597 C   0  0  0  0  0  0
  -26.0008  -29.4807   20.7077 C   0  0  0  0  0  0
  -27.2001  -28.7379   20.6919 C   0  0  0  0  0  0
  -26.0572  -26.9490   19.4976 C   0  0  0  0  0  0
  -24.8637  -27.6949   19.5069 C   0  0  0  0  0  0
  -23.6031  -29.8258   20.1673 C   0  0  0  0  0  0
  -25.4104  -36.3123   24.0343 C   0  0  1  0  0  0
  -20.5860  -28.3647   23.1331 C   0  0  2  0  0  0
  -20.6762  -26.9387   22.5418 C   0  0  0  0  0  0
  -19.5737  -26.6380   21.5219 C   0  0  0  0  0  0
  -18.1915  -26.7918   22.1627 C   0  0  0  0  0  0
  -19.1520  -28.8826   23.2915 C   0  0  0  0  0  0
  -18.9452  -30.1438   23.8918 C   0  0  0  0  0  0
  -17.6453  -30.6580   24.0569 C   0  0  0  0  0  0
  -25.9034  -34.9486   23.5141 C   0  0  0  0  0  0
  -16.5342  -29.9077   23.6324 C   0  0  0  0  0  0
  -16.7263  -28.6489   23.0351 C   0  0  0  0  0  0
  -26.4454  -31.6598   25.0720 C   0  0  0  0  0  0
  -25.3731  -31.3681   26.1473 C   0  0  0  0  0  0
  -27.0277  -30.3053   24.6051 C   0  0  0  0  0  0
  -27.6034  -32.4303   25.7483 C   0  0  0  0  0  0
  -27.5582  -37.1816   24.8465 C   0  0  0  0  0  0
  -21.4128  -29.3023   22.3749 N   0  0  0  0  0  0
  -26.4293  -37.3801   23.9408 N   0  0  0  0  0  0
  -24.6626  -31.0832   22.1003 N   0  0  0  0  0  0
  -23.4184  -28.8222   23.3053 O   0  0  0  0  0  0
  -28.3920  -26.7327   20.1065 O   0  0  0  0  0  0
  -26.5594  -34.8931   22.4700 O   0  0  0  0  0  0
  -23.5316  -32.1443   23.7533 O   0  0  0  0  0  0
  -28.7301  -18.4198   18.7528 C   0  0  0  0  0  0
  -29.7004  -18.7166   20.9625 C   0  0  0  0  0  0
  -29.3555  -17.8722   19.8880 C   0  0  0  0  0  0
  -28.5584  -19.8127   18.6347 C   0  0  0  0  0  0
  -29.5669  -20.1184   20.8425 C   0  0  0  0  0  0
  -29.0111  -20.6745   19.6584 C   0  0  0  0  0  0
  -29.7803  -16.4696   19.8499 C   0  0  0  0  0  0
  -30.0150  -15.6226   20.8736 C   0  0  0  0  0  0
  -28.3964  -24.3159   19.6757 C   0  0  0  0  0  0
  -27.9496  -20.3871   17.3682 C   0  0  0  0  0  0
  -30.1324  -20.9876   21.9520 C   0  0  0  0  0  0
  -28.2676  -25.4383   20.7108 C   0  0  0  0  0  0
  -28.2471  -22.8813   20.1967 C   0  0  0  0  0  0
  -28.6127  -24.5543   18.4802 O   0  0  0  0  0  0
  -29.0324  -22.0197   19.3809 O   0  0  0  0  0  0
  -31.4469  -12.2978   19.1417 H   0  0  0  0  0  0
  -30.2440  -11.2516   19.8396 H   0  0  0  0  0  0
  -29.7143  -11.7509   17.4309 H   0  0  0  0  0  0
  -29.6855  -13.4628   17.7744 H   0  0  0  0  0  0
  -27.7969  -11.3180   18.8079 H   0  0  0  0  0  0
  -27.3646  -12.6578   17.7795 H   0  0  0  0  0  0
  -27.6943  -14.2620   19.5638 H   0  0  0  0  0  0
  -28.6459  -12.0022   21.3858 H   0  0  0  0  0  0
  -28.4820  -13.6759   21.8394 H   0  0  0  0  0  0
  -25.2770   -9.5695   22.4751 H   0  0  0  0  0  0
  -23.9989   -7.4661   22.7506 H   0  0  0  0  0  0
  -21.0841   -8.8797   19.8955 H   0  0  0  0  0  0
  -22.3711  -10.9686   19.6167 H   0  0  0  0  0  0
  -21.1998   -7.6138   23.9697 H   0  0  0  0  0  0
  -21.1486   -6.0525   25.9070 H   0  0  0  0  0  0
  -22.0593   -2.7596   23.2860 H   0  0  0  0  0  0
  -22.4098  -11.9876   22.4771 H   0  0  0  0  0  0
  -21.1111  -13.1275   22.2622 H   0  0  0  0  0  0
  -24.6657  -15.8514   20.5303 H   0  0  0  0  0  0
  -26.2945  -15.6321   20.1349 H   0  0  0  0  0  0
  -26.7097  -32.5553   23.1180 H   0  0  0  0  0  0
  -25.0058  -33.9803   25.0493 H   0  0  0  0  0  0
  -22.6847  -31.3101   21.4165 H   0  0  0  0  0  0
  -23.3743  -35.9658   23.3318 H   0  0  0  0  0  0
  -24.3577  -36.8915   22.2050 H   0  0  0  0  0  0
  -23.7240  -37.6533   23.6635 H   0  0  0  0  0  0
  -26.0295  -31.6101   20.5904 H   0  0  0  0  0  0
  -26.8134  -30.8993   21.9740 H   0  0  0  0  0  0
  -28.0961  -29.1337   21.1497 H   0  0  0  0  0  0
  -26.0632  -25.9807   19.0184 H   0  0  0  0  0  0
  -23.9733  -27.2914   19.0443 H   0  0  0  0  0  0
  -23.7080  -30.6010   19.4072 H   0  0  0  0  0  0
  -22.7271  -29.2441   19.8738 H   0  0  0  0  0  0
  -25.1283  -36.1996   25.0835 H   0  0  0  0  0  0
  -20.9954  -28.3202   24.1455 H   0  0  0  0  0  0
  -20.5672  -26.2256   23.3601 H   0  0  0  0  0  0
  -21.6630  -26.7441   22.1207 H   0  0  0  0  0  0
  -19.6896  -25.6297   21.1229 H   0  0  0  0  0  0
  -19.6677  -27.3209   20.6764 H   0  0  0  0  0  0
  -17.4194  -26.6691   21.4015 H   0  0  0  0  0  0
  -18.0304  -26.0046   22.9004 H   0  0  0  0  0  0
  -19.7924  -30.7249   24.2288 H   0  0  0  0  0  0
  -17.5006  -31.6263   24.5161 H   0  0  0  0  0  0
  -15.5340  -30.2988   23.7633 H   0  0  0  0  0  0
  -15.8667  -28.0818   22.7052 H   0  0  0  0  0  0
  -24.5918  -30.7008   25.7812 H   0  0  0  0  0  0
  -24.8905  -32.2827   26.4933 H   0  0  0  0  0  0
  -25.8104  -30.8850   27.0224 H   0  0  0  0  0  0
  -26.2804  -29.6826   24.1114 H   0  0  0  0  0  0
  -27.4086  -29.7264   25.4476 H   0  0  0  0  0  0
  -27.8622  -30.4394   23.9163 H   0  0  0  0  0  0
  -27.2658  -33.3593   26.2090 H   0  0  0  0  0  0
  -28.3833  -32.6875   25.0304 H   0  0  0  0  0  0
  -28.0709  -31.8405   26.5377 H   0  0  0  0  0  0
  -28.2606  -38.0109   24.7523 H   0  0  0  0  0  0
  -28.1078  -36.2646   24.6282 H   0  0  0  0  0  0
  -27.2306  -37.1460   25.8870 H   0  0  0  0  0  0
  -20.9284  -29.8745   21.6976 H   0  0  0  0  0  0
  -26.0192  -38.2882   24.1406 H   0  0  0  0  0  0
  -28.4534  -17.7748   17.9300 H   0  0  0  0  0  0
  -30.1876  -18.3003   21.8333 H   0  0  0  0  0  0
  -30.0229  -16.1264   18.8514 H   0  0  0  0  0  0
  -29.7627  -15.8517   21.8986 H   0  0  0  0  0  0
  -27.5363  -19.6057   16.7298 H   0  0  0  0  0  0
  -28.7029  -20.9286   16.7954 H   0  0  0  0  0  0
  -27.1441  -21.0797   17.6130 H   0  0  0  0  0  0
  -30.8689  -20.4411   22.5417 H   0  0  0  0  0  0
  -29.3423  -21.3112   22.6296 H   0  0  0  0  0  0
  -30.6343  -21.8667   21.5463 H   0  0  0  0  0  0
  -29.0639  -25.3211   21.4456 H   0  0  0  0  0  0
  -27.3258  -25.3296   21.2514 H   0  0  0  0  0  0
  -27.1987  -22.5872   20.1523 H   0  0  0  0  0  0
  -28.5545  -22.8527   21.2385 H   0  0  0  0  0  0
  1 25  1  0  0  0
  1 30  2  0  0  0
  1 78  1  0  0  0
  2  3  1  0  0  0
  2 25  1  0  0  0
  2 86  1  0  0  0
  2 87  1  0  0  0
  3  4  1  0  0  0
  3 88  1  0  0  0
  3 89  1  0  0  0
  4  5  1  0  0  0
  4 90  1  0  0  0
  4 91  1  0  0  0
  5  6  1  0  0  0
  5 26  1  0  0  0
  5 92  1  0  0  0
  6 25  1  0  0  0
  6 93  1  0  0  0
  6 94  1  0  0  0
  7  8  2  0  0  0
  7 26  1  0  0  0
  7 29  1  0  0  0
  8  9  1  0  0  0
  8 22  1  0  0  0
  9 10  1  0  0  0
  9 27  2  0  0  0
 10 11  2  0  0  0
 10 15  1  0  0  0
 11 12  1  0  0  0
 11 95  1  0  0  0
 12 13  2  0  0  0
 12 96  1  0  0  0
 13 14  1  0  0  0
 13 31  1  0  0  0
 14 15  2  0  0  0
 14 97  1  0  0  0
 15 98  1  0  0  0
 16 17  2  0  0  0
 16 21  1  0  0  0
 16 31  1  0  0  0
 17 18  1  0  0  0
 17 99  1  0  0  0
 18 19  2  0  0  0
 18100  1  0  0  0
 19 20  1  0  0  0
 19 24  1  0  0  0
 20 21  2  0  0  0
 20101  1  0  0  0
 21 23  1  0  0  0
 22 28  1  0  0  0
 22 32  2  0  0  0
 26 27  1  0  0  0
 28102  1  0  0  0
 28103  1  0  0  0
 29104  1  0  0  0
 29105  1  0  0  0
 33 34  1  0  0  0
 33 66  1  0  0  0
 33 70  2  0  0  0
 34 36  1  0  0  0
 34 59  1  0  0  0
 34106  1  0  0  0
 35 44  2  0  0  0
 35 45  1  0  0  0
 35 68  1  0  0  0
 36 56  1  0  0  0
 36107  1  0  0  0
 37 39  1  0  0  0
 37 47  1  0  0  0
 37 66  1  0  0  0
 37108  1  0  0  0
 38 43  2  0  0  0
 38 46  1  0  0  0
 38 47  1  0  0  0
 39 64  1  0  0  0
 39 67  2  0  0  0
 40 52  1  0  0  0
 40 53  2  0  0  0
 40 58  1  0  0  0
 41109  1  0  0  0
 41110  1  0  0  0
 41111  1  0  0  0
 41 48  1  0  0  0
 42 43  1  0  0  0
 42 66  1  0  0  0
 42112  1  0  0  0
 42113  1  0  0  0
 43 44  1  0  0  0
 44114  1  0  0  0
 45 46  2  0  0  0
 45115  1  0  0  0
 46116  1  0  0  0
 47117  1  0  0  0
 47118  1  0  0  0
 48 56  1  0  0  0
 48 65  1  0  0  0
 48119  1  0  0  0
 49 50  1  0  0  0
 49 53  1  0  0  0
 49 64  1  0  0  0
 49120  1  0  0  0
 50 51  1  0  0  0
 50121  1  0  0  0
 50122  1  0  0  0
 51 52  1  0  0  0
 51123  1  0  0  0
 51124  1  0  0  0
 52125  1  0  0  0
 52126  1  0  0  0
 53 54  1  0  0  0
 54 55  2  0  0  0
 54127  1  0  0  0
 55 57  1  0  0  0
 55128  1  0  0  0
 56 69  2  0  0  0
 57 58  2  0  0  0
 57129  1  0  0  0
 58130  1  0  0  0
 59 60  1  0  0  0
 59 61  1  0  0  0
 59 62  1  0  0  0
 60131  1  0  0  0
 60132  1  0  0  0
 60133  1  0  0  0
 61134  1  0  0  0
 61135  1  0  0  0
 61136  1  0  0  0
 62137  1  0  0  0
 62138  1  0  0  0
 62139  1  0  0  0
 63 65  1  0  0  0
 63140  1  0  0  0
 63141  1  0  0  0
 63142  1  0  0  0
 64143  1  0  0  0
 65144  1  0  0  0
 68 82  1  0  0  0
 71 73  2  0  0  0
 71 74  1  0  0  0
 71145  1  0  0  0
 72 73  1  0  0  0
 72 75  2  0  0  0
 72146  1  0  0  0
 73 77  1  0  0  0
 74 76  2  0  0  0
 74 80  1  0  0  0
 75 76  1  0  0  0
 75 81  1  0  0  0
 76 85  1  0  0  0
 77 78  2  0  0  0
 77147  1  0  0  0
 78148  1  0  0  0
 79 82  1  0  0  0
 79 83  1  0  0  0
 79 84  2  0  0  0
 80149  1  0  0  0
 80150  1  0  0  0
 80151  1  0  0  0
 81152  1  0  0  0
 81153  1  0  0  0
 81154  1  0  0  0
 82155  1  0  0  0
 82156  1  0  0  0
 83 85  1  0  0  0
 83157  1  0  0  0
 83158  1  0  0  0
M  ISO  4   1 100  68 101  78 100  82 101
M  END
> <chiral flag>
0

> <version>
0

> <s_m_source_file>
/data/baiqing/PycharmProjects/Reinvent-master-3.2/result/LINK_invent/BTK/process_docking_weight1_custom_product_contain_oxygen_bond_distance_aromatic_linkinvent_7_9_3/rearranged_h_0122.sdf

> <i_m_source_file_index>
2

> <r_mmod_Potential_Energy-OPLS-2005>
27.3053932189941

> <r_mmod_Stretch_Energy-OPLS-2005>
32.0100975036621

> <r_mmod_Bend_Energy-OPLS-2005>
98.3357086181641

> <r_mmod_Torsional_Energy-OPLS-2005>
267.454620361328

> <r_mmod_Improper_Torsional_Energy-OPLS-2005>
9.69005680084229

> <r_mmod_Van_der_Waal_Energy-OPLS-2005>
149.638580322266

> <r_mmod_Electrostatic_Energy-OPLS-2005>
-322.540863037109

> <r_mmod_Solvation_Energy-OPLS-2005>
-222.24494934082

> <b_mmod_Minimization_Converged-OPLS-2005>
0

> <r_mmod_RMS_Derivative-OPLS-2005>
1.22333967685699

$$$$
2
                    3D
 Structure written by MMmdl.
155163  0  0  1  0            999 V2000
  -30.7553  -14.3579   20.6348 C   0  0  0  0  0  0
  -30.4110  -12.2661   19.3851 C   0  0  0  0  0  0
  -29.4768  -12.5087   18.1837 C   0  0  0  0  0  0
  -28.0009  -12.3742   18.6002 C   0  0  0  0  0  0
  -27.6649  -13.1961   19.8738 C   0  0  2  0  0  0
  -28.7049  -12.9352   20.9861 C   0  0  0  0  0  0
  -25.2599  -13.8145   20.5608 C   0  0  0  0  0  0
  -24.1841  -13.0446   20.9126 C   0  0  0  0  0  0
  -24.6392  -11.6892   20.8705 C   0  0  0  0  0  0
  -23.9065  -10.4288   21.0383 C   0  0  0  0  0  0
  -24.3607   -9.4212   21.9177 C   0  0  0  0  0  0
  -23.6281   -8.2250   22.0768 C   0  0  0  0  0  0
  -22.4267   -8.0277   21.3555 C   0  0  0  0  0  0
  -21.9906   -9.0240   20.4637 C   0  0  0  0  0  0
  -22.7239  -10.2117   20.3040 C   0  0  0  0  0  0
  -21.6864   -6.0717   22.5280 C   0  0  0  0  0  0
  -21.4016   -6.5635   23.8199 C   0  0  0  0  0  0
  -21.3662   -5.6786   24.9163 C   0  0  0  0  0  0
  -21.6034   -4.3053   24.7222 C   0  0  0  0  0  0
  -21.8833   -3.8146   23.4358 C   0  0  0  0  0  0
  -21.9193   -4.6949   22.3402 C   0  0  0  0  0  0
  -22.7871  -13.5235   21.1808 C   0  0  0  0  0  0
  -22.1660   -4.2134   21.0981 F   0  0  0  0  0  0
  -21.5635   -3.4547   25.7747 F   0  0  0  0  0  0
  -30.0466  -13.2182   20.4425 N   0  0  0  0  0  0
  -26.3038  -12.9287   20.3351 N   0  0  0  0  0  0
  -25.9320  -11.6462   20.5767 N   0  0  0  0  0  0
  -22.0514  -12.8192   22.0331 N   0  0  0  0  0  0
  -25.4297  -15.1859   20.3933 N   0  0  0  0  0  0
  -31.8156  -14.6006   20.0498 O   0  0  0  0  0  0
  -21.6655   -6.8864   21.4242 O   0  0  0  0  0  0
  -22.3544  -14.5565   20.6700 O   0  0  0  0  0  0
  -24.6106  -31.8700   23.2085 C   0  0  0  0  0  0
  -25.9036  -32.4823   23.8355 C   0  0  1  0  0  0
  -27.2251  -27.4455   20.0959 C   0  0  0  0  0  0
  -25.5920  -33.8620   24.2287 N   0  0  0  0  0  0
  -23.3945  -30.4892   21.5499 C   0  0  2  0  0  0
  -24.8417  -28.9529   20.1186 C   0  0  0  0  0  0
  -22.7376  -29.4665   22.5045 C   0  0  0  0  0  0
  -18.0251  -28.1403   22.8474 C   0  0  0  0  0  0
  -24.1491  -36.7281   23.2626 C   0  0  0  0  0  0
  -25.9183  -30.8359   21.3606 C   0  0  0  0  0  0
  -25.9994  -29.4654   20.7196 C   0  0  0  0  0  0
  -27.1938  -28.7150   20.7179 C   0  0  0  0  0  0
  -26.0602  -26.9472   19.4840 C   0  0  0  0  0  0
  -24.8640  -27.6881   19.5052 C   0  0  0  0  0  0
  -23.5997  -29.8119   20.1679 C   0  0  0  0  0  0
  -25.4113  -36.3083   24.0320 C   0  0  1  0  0  0
  -20.5830  -28.3670   23.1362 C   0  0  2  0  0  0
  -20.6737  -26.9420   22.5444 C   0  0  0  0  0  0
  -19.5739  -26.6395   21.5231 C   0  0  0  0  0  0
  -18.1873  -26.7971   22.1556 C   0  0  0  0  0  0
  -19.1495  -28.8844   23.2921 C   0  0  0  0  0  0
  -18.9446  -30.1449   23.8949 C   0  0  0  0  0  0
  -17.6452  -30.6601   24.0594 C   0  0  0  0  0  0
  -25.9060  -34.9464   23.5082 C   0  0  0  0  0  0
  -16.5342  -29.9109   23.6363 C   0  0  0  0  0  0
  -16.7246  -28.6534   23.0366 C   0  0  0  0  0  0
  -26.4465  -31.6606   25.0691 C   0  0  0  0  0  0
  -25.3674  -31.3704   26.1389 C   0  0  0  0  0  0
  -27.0397  -30.3090   24.6066 C   0  0  0  0  0  0
  -27.5975  -32.4371   25.7488 C   0  0  0  0  0  0
  -27.5572  -37.1779   24.8443 C   0  0  0  0  0  0
  -21.4100  -29.3031   22.3793 N   0  0  0  0  0  0
  -26.4288  -37.3770   23.9406 N   0  0  0  0  0  0
  -24.6585  -31.0799   22.0980 N   0  0  0  0  0  0
  -23.4166  -28.8239   23.3100 O   0  0  0  0  0  0
  -28.3589  -26.6753   20.0384 O   0  0  0  0  0  0
  -26.5609  -34.8907   22.4647 O   0  0  0  0  0  0
  -23.5313  -32.1478   23.7483 O   0  0  0  0  0  0
  -31.8870  -16.9534   21.9346 C   0  0  0  0  0  0
  -32.2176  -18.3113   22.0722 C   0  0  0  0  0  0
  -29.5893  -17.5769   21.3984 C   0  0  0  0  0  0
  -29.9413  -18.9468   21.4308 C   0  0  0  0  0  0
  -30.5662  -16.5844   21.6100 C   0  0  0  0  0  0
  -31.2512  -19.3064   21.8388 C   0  0  0  0  0  0
  -28.8176  -23.7152   20.6724 C   0  0  0  0  0  0
  -29.0340  -22.4634   21.1405 C   0  0  0  0  0  0
  -28.9134  -19.9538   21.0382 C   0  0  0  0  0  0
  -28.4662  -24.7964   21.6190 C   0  0  0  0  0  0
  -29.3855  -21.2299   20.3185 C   0  0  0  0  0  0
  -28.8750  -26.2482   21.3004 C   0  0  0  0  0  0
  -30.1986  -15.2267   21.4905 N   0  0  0  0  0  0
  -27.7014  -19.7698   21.1877 O   0  0  0  0  0  0
  -27.8809  -24.5609   22.6825 O   0  0  0  0  0  0
  -31.6060  -20.6004   22.0256 F   0  0  0  0  0  0
  -31.4545  -12.3526   19.0779 H   0  0  0  0  0  0
  -30.3019  -11.2438   19.7517 H   0  0  0  0  0  0
  -29.7009  -11.8010   17.3835 H   0  0  0  0  0  0
  -29.6491  -13.5035   17.7721 H   0  0  0  0  0  0
  -27.8005  -11.3164   18.7668 H   0  0  0  0  0  0
  -27.3528  -12.6816   17.7784 H   0  0  0  0  0  0
  -27.7188  -14.2496   19.5989 H   0  0  0  0  0  0
  -28.6651  -11.8930   21.3059 H   0  0  0  0  0  0
  -28.4581  -13.5141   21.8754 H   0  0  0  0  0  0
  -25.2750   -9.5710   22.4750 H   0  0  0  0  0  0
  -24.0000   -7.4650   22.7493 H   0  0  0  0  0  0
  -21.0863   -8.8718   19.8923 H   0  0  0  0  0  0
  -22.3692  -10.9635   19.6133 H   0  0  0  0  0  0
  -21.2009   -7.6142   23.9704 H   0  0  0  0  0  0
  -21.1470   -6.0521   25.9052 H   0  0  0  0  0  0
  -22.0614   -2.7611   23.2861 H   0  0  0  0  0  0
  -22.4106  -11.9785   22.4616 H   0  0  0  0  0  0
  -21.1129  -13.1191   22.2550 H   0  0  0  0  0  0
  -24.6565  -15.8380   20.4645 H   0  0  0  0  0  0
  -26.2768  -15.6202   20.0509 H   0  0  0  0  0  0
  -26.7108  -32.5557   23.1116 H   0  0  0  0  0  0
  -25.0094  -33.9789   25.0448 H   0  0  0  0  0  0
  -22.6792  -31.3004   21.4004 H   0  0  0  0  0  0
  -23.3764  -35.9598   23.3290 H   0  0  0  0  0  0
  -24.3583  -36.8945   22.2047 H   0  0  0  0  0  0
  -23.7237  -37.6467   23.6667 H   0  0  0  0  0  0
  -26.0159  -31.5946   20.5825 H   0  0  0  0  0  0
  -26.8092  -30.9009   21.9722 H   0  0  0  0  0  0
  -28.0877  -29.1116   21.1797 H   0  0  0  0  0  0
  -26.0798  -25.9791   19.0037 H   0  0  0  0  0  0
  -23.9704  -27.2832   19.0511 H   0  0  0  0  0  0
  -23.6864  -30.5754   19.3949 H   0  0  0  0  0  0
  -22.7260  -29.2194   19.8872 H   0  0  0  0  0  0
  -25.1285  -36.1899   25.0809 H   0  0  0  0  0  0
  -20.9895  -28.3264   24.1492 H   0  0  0  0  0  0
  -20.5656  -26.2300   23.3633 H   0  0  0  0  0  0
  -21.6623  -26.7477   22.1205 H   0  0  0  0  0  0
  -19.6930  -25.6314   21.1235 H   0  0  0  0  0  0
  -19.6727  -27.3223   20.6796 H   0  0  0  0  0  0
  -17.4182  -26.6827   21.3912 H   0  0  0  0  0  0
  -18.0202  -26.0071   22.8887 H   0  0  0  0  0  0
  -19.7930  -30.7241   24.2330 H   0  0  0  0  0  0
  -17.5009  -31.6282   24.5188 H   0  0  0  0  0  0
  -15.5347  -30.3010   23.7706 H   0  0  0  0  0  0
  -15.8643  -28.0876   22.7072 H   0  0  0  0  0  0
  -24.5952  -30.6942   25.7723 H   0  0  0  0  0  0
  -24.8704  -32.2843   26.4647 H   0  0  0  0  0  0
  -25.7951  -30.9026   27.0261 H   0  0  0  0  0  0
  -26.3027  -29.6824   24.1043 H   0  0  0  0  0  0
  -27.4191  -29.7346   25.4526 H   0  0  0  0  0  0
  -27.8798  -30.4504   23.9263 H   0  0  0  0  0  0
  -27.2502  -33.3638   26.2061 H   0  0  0  0  0  0
  -28.3777  -32.7034   25.0344 H   0  0  0  0  0  0
  -28.0648  -31.8525   26.5412 H   0  0  0  0  0  0
  -28.2533  -38.0119   24.7513 H   0  0  0  0  0  0
  -28.1107  -36.2645   24.6206 H   0  0  0  0  0  0
  -27.2284  -37.1379   25.8839 H   0  0  0  0  0  0
  -20.9250  -29.8724   21.7003 H   0  0  0  0  0  0
  -26.0171  -38.2843   24.1434 H   0  0  0  0  0  0
  -32.6502  -16.2028   22.0817 H   0  0  0  0  0  0
  -33.2242  -18.5936   22.3444 H   0  0  0  0  0  0
  -28.5777  -17.2845   21.1494 H   0  0  0  0  0  0
  -28.8833  -23.9715   19.6199 H   0  0  0  0  0  0
  -28.9700  -22.2818   22.2092 H   0  0  0  0  0  0
  -30.4626  -21.1873   20.1515 H   0  0  0  0  0  0
  -28.9189  -21.2784   19.3335 H   0  0  0  0  0  0
  -29.9641  -26.3010   21.2784 H   0  0  0  0  0  0
  -28.5401  -26.8992   22.1104 H   0  0  0  0  0  0
  -29.2963  -14.9545   21.8528 H   0  0  0  0  0  0
  1 25  1  0  0  0
  1 30  2  0  0  0
  1 83  1  0  0  0
  2  3  1  0  0  0
  2 25  1  0  0  0
  2 87  1  0  0  0
  2 88  1  0  0  0
  3  4  1  0  0  0
  3 89  1  0  0  0
  3 90  1  0  0  0
  4  5  1  0  0  0
  4 91  1  0  0  0
  4 92  1  0  0  0
  5  6  1  0  0  0
  5 26  1  0  0  0
  5 93  1  0  0  0
  6 25  1  0  0  0
  6 94  1  0  0  0
  6 95  1  0  0  0
  7  8  2  0  0  0
  7 26  1  0  0  0
  7 29  1  0  0  0
  8  9  1  0  0  0
  8 22  1  0  0  0
  9 10  1  0  0  0
  9 27  2  0  0  0
 10 11  2  0  0  0
 10 15  1  0  0  0
 11 12  1  0  0  0
 11 96  1  0  0  0
 12 13  2  0  0  0
 12 97  1  0  0  0
 13 14  1  0  0  0
 13 31  1  0  0  0
 14 15  2  0  0  0
 14 98  1  0  0  0
 15 99  1  0  0  0
 16 17  2  0  0  0
 16 21  1  0  0  0
 16 31  1  0  0  0
 17 18  1  0  0  0
 17100  1  0  0  0
 18 19  2  0  0  0
 18101  1  0  0  0
 19 20  1  0  0  0
 19 24  1  0  0  0
 20 21  2  0  0  0
 20102  1  0  0  0
 21 23  1  0  0  0
 22 28  1  0  0  0
 22 32  2  0  0  0
 26 27  1  0  0  0
 28103  1  0  0  0
 28104  1  0  0  0
 29105  1  0  0  0
 29106  1  0  0  0
 33 34  1  0  0  0
 33 66  1  0  0  0
 33 70  2  0  0  0
 34 36  1  0  0  0
 34 59  1  0  0  0
 34107  1  0  0  0
 35 44  2  0  0  0
 35 45  1  0  0  0
 35 68  1  0  0  0
 36 56  1  0  0  0
 36108  1  0  0  0
 37 39  1  0  0  0
 37 47  1  0  0  0
 37 66  1  0  0  0
 37109  1  0  0  0
 38 43  2  0  0  0
 38 46  1  0  0  0
 38 47  1  0  0  0
 39 64  1  0  0  0
 39 67  2  0  0  0
 40 52  1  0  0  0
 40 53  2  0  0  0
 40 58  1  0  0  0
 41110  1  0  0  0
 41111  1  0  0  0
 41112  1  0  0  0
 41 48  1  0  0  0
 42 43  1  0  0  0
 42 66  1  0  0  0
 42113  1  0  0  0
 42114  1  0  0  0
 43 44  1  0  0  0
 44115  1  0  0  0
 45 46  2  0  0  0
 45116  1  0  0  0
 46117  1  0  0  0
 47118  1  0  0  0
 47119  1  0  0  0
 48 56  1  0  0  0
 48 65  1  0  0  0
 48120  1  0  0  0
 49 50  1  0  0  0
 49 53  1  0  0  0
 49 64  1  0  0  0
 49121  1  0  0  0
 50 51  1  0  0  0
 50122  1  0  0  0
 50123  1  0  0  0
 51 52  1  0  0  0
 51124  1  0  0  0
 51125  1  0  0  0
 52126  1  0  0  0
 52127  1  0  0  0
 53 54  1  0  0  0
 54 55  2  0  0  0
 54128  1  0  0  0
 55 57  1  0  0  0
 55129  1  0  0  0
 56 69  2  0  0  0
 57 58  2  0  0  0
 57130  1  0  0  0
 58131  1  0  0  0
 59 60  1  0  0  0
 59 61  1  0  0  0
 59 62  1  0  0  0
 60132  1  0  0  0
 60133  1  0  0  0
 60134  1  0  0  0
 61135  1  0  0  0
 61136  1  0  0  0
 61137  1  0  0  0
 62138  1  0  0  0
 62139  1  0  0  0
 62140  1  0  0  0
 63 65  1  0  0  0
 63141  1  0  0  0
 63142  1  0  0  0
 63143  1  0  0  0
 64144  1  0  0  0
 65145  1  0  0  0
 68 82  1  0  0  0
 71 72  2  0  0  0
 71 75  1  0  0  0
 71146  1  0  0  0
 72 76  1  0  0  0
 72147  1  0  0  0
 73 74  1  0  0  0
 73 75  2  0  0  0
 73148  1  0  0  0
 74 76  2  0  0  0
 74 79  1  0  0  0
 75 83  1  0  0  0
 76 86  1  0  0  0
 77 78  2  0  0  0
 77 80  1  0  0  0
 77149  1  0  0  0
 78 81  1  0  0  0
 78150  1  0  0  0
 79 81  1  0  0  0
 79 84  2  0  0  0
 80 82  1  0  0  0
 80 85  2  0  0  0
 81151  1  0  0  0
 81152  1  0  0  0
 82153  1  0  0  0
 82154  1  0  0  0
 83155  1  0  0  0
M  ISO  4   1 100  68 101  82 101  83 100
M  END
> <chiral flag>
0

> <version>
0

> <s_m_source_file>
/data/baiqing/PycharmProjects/Reinvent-master-3.2/result/LINK_invent/BTK/process_docking_weight1_custom_product_contain_oxygen_bond_distance_aromatic_linkinvent_7_9_3/rearranged_h_0122.sdf

> <i_m_source_file_index>
3

> <r_mmod_Potential_Energy-OPLS-2005>
-17.0631942749023

> <r_mmod_Stretch_Energy-OPLS-2005>
32.9792747497559

> <r_mmod_Bend_Energy-OPLS-2005>
85.783332824707

> <r_mmod_Torsional_Energy-OPLS-2005>
284.966430664062

> <r_mmod_Improper_Torsional_Energy-OPLS-2005>
3.6232283115387

> <r_mmod_Van_der_Waal_Energy-OPLS-2005>
158.323654174805

> <r_mmod_Electrostatic_Energy-OPLS-2005>
-367.135620117188

> <r_mmod_Solvation_Energy-OPLS-2005>
-223.649688720703

> <b_mmod_Minimization_Converged-OPLS-2005>
0

> <r_mmod_RMS_Derivative-OPLS-2005>
5.18700695037842

$$$$
3
                    3D
 Structure written by MMmdl.
161169  0  0  1  0            999 V2000
  -30.6660  -14.5338   20.5323 C   0  0  0  0  0  0
  -30.4238  -12.3107   19.4784 C   0  0  0  0  0  0
  -29.5130  -12.4699   18.2428 C   0  0  0  0  0  0
  -28.0324  -12.3204   18.6430 C   0  0  0  0  0  0
  -27.6537  -13.1989   19.8648 C   0  0  2  0  0  0
  -28.6839  -13.0415   21.0067 C   0  0  0  0  0  0
  -25.2582  -13.8161   20.5642 C   0  0  0  0  0  0
  -24.1840  -13.0468   20.9125 C   0  0  0  0  0  0
  -24.6356  -11.6910   20.8680 C   0  0  0  0  0  0
  -23.9038  -10.4298   21.0342 C   0  0  0  0  0  0
  -24.3610   -9.4241   21.9139 C   0  0  0  0  0  0
  -23.6294   -8.2285   22.0757 C   0  0  0  0  0  0
  -22.4276   -8.0291   21.3545 C   0  0  0  0  0  0
  -21.9896   -9.0249   20.4629 C   0  0  0  0  0  0
  -22.7208  -10.2128   20.3007 C   0  0  0  0  0  0
  -21.6868   -6.0749   22.5287 C   0  0  0  0  0  0
  -21.4013   -6.5653   23.8210 C   0  0  0  0  0  0
  -21.3646   -5.6805   24.9165 C   0  0  0  0  0  0
  -21.6045   -4.3072   24.7216 C   0  0  0  0  0  0
  -21.8825   -3.8163   23.4332 C   0  0  0  0  0  0
  -21.9204   -4.6979   22.3388 C   0  0  0  0  0  0
  -22.7888  -13.5272   21.1809 C   0  0  0  0  0  0
  -22.1680   -4.2172   21.0967 F   0  0  0  0  0  0
  -21.5613   -3.4539   25.7707 F   0  0  0  0  0  0
  -30.0217  -13.3322   20.4634 N   0  0  0  0  0  0
  -26.2973  -12.9300   20.3279 N   0  0  0  0  0  0
  -25.9277  -11.6469   20.5720 N   0  0  0  0  0  0
  -22.0523  -12.8263   22.0332 N   0  0  0  0  0  0
  -25.4398  -15.1905   20.4191 N   0  0  0  0  0  0
  -31.8033  -14.7020   20.0816 O   0  0  0  0  0  0
  -21.6660   -6.8886   21.4244 O   0  0  0  0  0  0
  -22.3568  -14.5574   20.6652 O   0  0  0  0  0  0
  -24.6184  -31.8637   23.2070 C   0  0  0  0  0  0
  -25.9062  -32.4775   23.8397 C   0  0  1  0  0  0
  -27.2508  -27.4004   20.1128 C   0  0  0  0  0  0
  -25.5912  -33.8584   24.2311 N   0  0  0  0  0  0
  -23.4106  -30.4830   21.5459 C   0  0  2  0  0  0
  -24.8593  -28.9363   20.1158 C   0  0  0  0  0  0
  -22.7421  -29.4639   22.4966 C   0  0  0  0  0  0
  -18.0273  -28.1383   22.8521 C   0  0  0  0  0  0
  -24.1468  -36.7273   23.2652 C   0  0  0  0  0  0
  -25.9406  -30.8081   21.3753 C   0  0  0  0  0  0
  -26.0136  -29.4407   20.7241 C   0  0  0  0  0  0
  -27.2026  -28.6775   20.7237 C   0  0  0  0  0  0
  -26.0811  -26.9185   19.4818 C   0  0  0  0  0  0
  -24.8900  -27.6770   19.4890 C   0  0  0  0  0  0
  -23.6243  -29.8108   20.1618 C   0  0  0  0  0  0
  -25.4101  -36.3087   24.0346 C   0  0  1  0  0  0
  -20.5868  -28.3672   23.1317 C   0  0  2  0  0  0
  -20.6756  -26.9408   22.5417 C   0  0  0  0  0  0
  -19.5724  -26.6403   21.5213 C   0  0  0  0  0  0
  -18.1913  -26.7929   22.1641 C   0  0  0  0  0  0
  -19.1531  -28.8840   23.2905 C   0  0  0  0  0  0
  -18.9447  -30.1432   23.8926 C   0  0  0  0  0  0
  -17.6453  -30.6575   24.0592 C   0  0  0  0  0  0
  -25.9043  -34.9455   23.5123 C   0  0  0  0  0  0
  -16.5338  -29.9090   23.6338 C   0  0  0  0  0  0
  -16.7256  -28.6499   23.0370 C   0  0  0  0  0  0
  -26.4485  -31.6579   25.0758 C   0  0  0  0  0  0
  -25.3748  -31.3665   26.1500 C   0  0  0  0  0  0
  -27.0344  -30.3017   24.6188 C   0  0  0  0  0  0
  -27.6059  -32.4312   25.7506 C   0  0  0  0  0  0
  -27.5574  -37.1762   24.8485 C   0  0  0  0  0  0
  -21.4141  -29.3051   22.3714 N   0  0  0  0  0  0
  -26.4272  -37.3789   23.9460 N   0  0  0  0  0  0
  -24.6734  -31.0710   22.0987 N   0  0  0  0  0  0
  -23.4155  -28.8189   23.3049 O   0  0  0  0  0  0
  -28.4461  -26.7000   20.1770 O   0  0  0  0  0  0
  -26.5609  -34.8920   22.4687 O   0  0  0  0  0  0
  -23.5363  -32.1427   23.7413 O   0  0  0  0  0  0
  -29.1179  -16.6634   18.9484 C   0  0  0  0  0  0
  -29.8621  -18.0886   20.7640 C   0  0  0  0  0  0
  -28.7631  -17.7908   18.1724 C   0  0  0  0  0  0
  -29.0272  -19.0946   18.6905 C   0  0  0  0  0  0
  -29.6783  -16.7816   20.2346 C   0  0  0  0  0  0
  -29.5452  -19.2547   20.0073 C   0  0  0  0  0  0
  -27.8544  -16.3938   16.2593 C   0  0  0  0  0  0
  -28.1313  -17.5736   16.8460 C   0  0  0  0  0  0
  -28.8324  -20.3339   17.8247 C   0  0  0  0  0  0
  -28.4219  -24.1722   20.5856 C   0  0  0  0  0  0
  -29.2397  -22.9052   20.1608 C   0  0  0  0  0  0
  -28.6281  -25.3822   19.6182 C   0  0  0  0  0  0
  -28.8391  -21.5084   20.7465 C   0  0  0  0  0  0
  -29.9373  -15.5831   20.9890 N   0  0  0  0  0  0
  -29.8624  -20.5058   20.5348 O   0  0  0  0  0  0
  -31.4736  -12.4010   19.1910 H   0  0  0  0  0  0
  -30.3182  -11.3144   19.9125 H   0  0  0  0  0  0
  -29.7772  -11.7265   17.4882 H   0  0  0  0  0  0
  -29.6798  -13.4474   17.7907 H   0  0  0  0  0  0
  -27.8671  -11.2710   18.8903 H   0  0  0  0  0  0
  -27.3840  -12.5380   17.7951 H   0  0  0  0  0  0
  -27.6696  -14.2279   19.5191 H   0  0  0  0  0  0
  -28.6598  -12.0259   21.4076 H   0  0  0  0  0  0
  -28.4266  -13.6946   21.8415 H   0  0  0  0  0  0
  -25.2745   -9.5811   22.4688 H   0  0  0  0  0  0
  -24.0012   -7.4736   22.7512 H   0  0  0  0  0  0
  -21.0826   -8.8748   19.8928 H   0  0  0  0  0  0
  -22.3650  -10.9651   19.6099 H   0  0  0  0  0  0
  -21.2027   -7.6162   23.9726 H   0  0  0  0  0  0
  -21.1431   -6.0519   25.9066 H   0  0  0  0  0  0
  -22.0618   -2.7628   23.2820 H   0  0  0  0  0  0
  -22.4133  -11.9917   22.4699 H   0  0  0  0  0  0
  -21.1134  -13.1264   22.2492 H   0  0  0  0  0  0
  -24.6792  -15.8497   20.5405 H   0  0  0  0  0  0
  -26.3062  -15.6348   20.1449 H   0  0  0  0  0  0
  -26.7134  -32.5460   23.1146 H   0  0  0  0  0  0
  -25.0122  -33.9760   25.0496 H   0  0  0  0  0  0
  -22.7055  -31.3023   21.4005 H   0  0  0  0  0  0
  -23.3765  -35.9567   23.3296 H   0  0  0  0  0  0
  -24.3543  -36.8918   22.2071 H   0  0  0  0  0  0
  -23.7169  -37.6440   23.6695 H   0  0  0  0  0  0
  -26.0804  -31.5685   20.6062 H   0  0  0  0  0  0
  -26.8170  -30.8471   22.0097 H   0  0  0  0  0  0
  -28.0895  -29.0665   21.2029 H   0  0  0  0  0  0
  -26.0726  -25.9639   18.9813 H   0  0  0  0  0  0
  -24.0078  -27.2847   19.0019 H   0  0  0  0  0  0
  -23.7466  -30.5839   19.4031 H   0  0  0  0  0  0
  -22.7478  -29.2363   19.8566 H   0  0  0  0  0  0
  -25.1250  -36.1943   25.0831 H   0  0  0  0  0  0
  -20.9944  -28.3239   24.1436 H   0  0  0  0  0  0
  -20.5668  -26.2276   23.3600 H   0  0  0  0  0  0
  -21.6629  -26.7473   22.1211 H   0  0  0  0  0  0
  -19.6901  -25.6328   21.1211 H   0  0  0  0  0  0
  -19.6639  -27.3235   20.6761 H   0  0  0  0  0  0
  -17.4182  -26.6692   21.4045 H   0  0  0  0  0  0
  -18.0310  -26.0044   22.9008 H   0  0  0  0  0  0
  -19.7914  -30.7240   24.2329 H   0  0  0  0  0  0
  -17.5003  -31.6267   24.5186 H   0  0  0  0  0  0
  -15.5344  -30.3004   23.7634 H   0  0  0  0  0  0
  -15.8655  -28.0805   22.7108 H   0  0  0  0  0  0
  -24.5947  -30.6968   25.7841 H   0  0  0  0  0  0
  -24.8909  -32.2799   26.4968 H   0  0  0  0  0  0
  -25.8120  -30.8846   27.0251 H   0  0  0  0  0  0
  -26.2908  -29.6724   24.1274 H   0  0  0  0  0  0
  -27.4128  -29.7294   25.4666 H   0  0  0  0  0  0
  -27.8737  -30.4326   23.9354 H   0  0  0  0  0  0
  -27.2688  -33.3597   26.2119 H   0  0  0  0  0  0
  -28.3844  -32.6877   25.0311 H   0  0  0  0  0  0
  -28.0759  -31.8423   26.5391 H   0  0  0  0  0  0
  -28.2577  -38.0077   24.7610 H   0  0  0  0  0  0
  -28.1085  -36.2616   24.6232 H   0  0  0  0  0  0
  -27.2294  -37.1322   25.8882 H   0  0  0  0  0  0
  -20.9287  -29.8797   21.6954 H   0  0  0  0  0  0
  -26.0152  -38.2846   24.1525 H   0  0  0  0  0  0
  -28.9603  -15.6754   18.5505 H   0  0  0  0  0  0
  -30.2708  -18.2035   21.7582 H   0  0  0  0  0  0
  -27.3786  -16.3816   15.2884 H   0  0  0  0  0  0
  -28.0713  -15.4301   16.6947 H   0  0  0  0  0  0
  -27.8408  -18.4422   16.2771 H   0  0  0  0  0  0
  -28.8771  -20.1375   16.7587 H   0  0  0  0  0  0
  -29.6494  -21.0305   17.9945 H   0  0  0  0  0  0
  -27.8865  -20.8260   18.0477 H   0  0  0  0  0  0
  -28.7312  -24.4570   21.5922 H   0  0  0  0  0  0
  -27.3573  -23.9470   20.6463 H   0  0  0  0  0  0
  -30.2867  -23.0956   20.4021 H   0  0  0  0  0  0
  -29.2054  -22.8498   19.0789 H   0  0  0  0  0  0
  -28.0712  -25.2371   18.6938 H   0  0  0  0  0  0
  -29.6743  -25.3773   19.3090 H   0  0  0  0  0  0
  -27.8720  -21.1853   20.3630 H   0  0  0  0  0  0
  -28.7125  -21.5987   21.8266 H   0  0  0  0  0  0
  -29.1529  -15.2961   21.5548 H   0  0  0  0  0  0
  1 25  1  0  0  0
  1 30  2  0  0  0
  1 84  1  0  0  0
  2  3  1  0  0  0
  2 25  1  0  0  0
  2 86  1  0  0  0
  2 87  1  0  0  0
  3  4  1  0  0  0
  3 88  1  0  0  0
  3 89  1  0  0  0
  4  5  1  0  0  0
  4 90  1  0  0  0
  4 91  1  0  0  0
  5  6  1  0  0  0
  5 26  1  0  0  0
  5 92  1  0  0  0
  6 25  1  0  0  0
  6 93  1  0  0  0
  6 94  1  0  0  0
  7  8  2  0  0  0
  7 26  1  0  0  0
  7 29  1  0  0  0
  8  9  1  0  0  0
  8 22  1  0  0  0
  9 10  1  0  0  0
  9 27  2  0  0  0
 10 11  2  0  0  0
 10 15  1  0  0  0
 11 12  1  0  0  0
 11 95  1  0  0  0
 12 13  2  0  0  0
 12 96  1  0  0  0
 13 14  1  0  0  0
 13 31  1  0  0  0
 14 15  2  0  0  0
 14 97  1  0  0  0
 15 98  1  0  0  0
 16 17  2  0  0  0
 16 21  1  0  0  0
 16 31  1  0  0  0
 17 18  1  0  0  0
 17 99  1  0  0  0
 18 19  2  0  0  0
 18100  1  0  0  0
 19 20  1  0  0  0
 19 24  1  0  0  0
 20 21  2  0  0  0
 20101  1  0  0  0
 21 23  1  0  0  0
 22 28  1  0  0  0
 22 32  2  0  0  0
 26 27  1  0  0  0
 28102  1  0  0  0
 28103  1  0  0  0
 29104  1  0  0  0
 29105  1  0  0  0
 33 34  1  0  0  0
 33 66  1  0  0  0
 33 70  2  0  0  0
 34 36  1  0  0  0
 34 59  1  0  0  0
 34106  1  0  0  0
 35 44  2  0  0  0
 35 45  1  0  0  0
 35 68  1  0  0  0
 36 56  1  0  0  0
 36107  1  0  0  0
 37 39  1  0  0  0
 37 47  1  0  0  0
 37 66  1  0  0  0
 37108  1  0  0  0
 38 43  2  0  0  0
 38 46  1  0  0  0
 38 47  1  0  0  0
 39 64  1  0  0  0
 39 67  2  0  0  0
 40 52  1  0  0  0
 40 53  2  0  0  0
 40 58  1  0  0  0
 41109  1  0  0  0
 41110  1  0  0  0
 41111  1  0  0  0
 41 48  1  0  0  0
 42 43  1  0  0  0
 42 66  1  0  0  0
 42112  1  0  0  0
 42113  1  0  0  0
 43 44  1  0  0  0
 44114  1  0  0  0
 45 46  2  0  0  0
 45115  1  0  0  0
 46116  1  0  0  0
 47117  1  0  0  0
 47118  1  0  0  0
 48 56  1  0  0  0
 48 65  1  0  0  0
 48119  1  0  0  0
 49 50  1  0  0  0
 49 53  1  0  0  0
 49 64  1  0  0  0
 49120  1  0  0  0
 50 51  1  0  0  0
 50121  1  0  0  0
 50122  1  0  0  0
 51 52  1  0  0  0
 51123  1  0  0  0
 51124  1  0  0  0
 52125  1  0  0  0
 52126  1  0  0  0
 53 54  1  0  0  0
 54 55  2  0  0  0
 54127  1  0  0  0
 55 57  1  0  0  0
 55128  1  0  0  0
 56 69  2  0  0  0
 57 58  2  0  0  0
 57129  1  0  0  0
 58130  1  0  0  0
 59 60  1  0  0  0
 59 61  1  0  0  0
 59 62  1  0  0  0
 60131  1  0  0  0
 60132  1  0  0  0
 60133  1  0  0  0
 61134  1  0  0  0
 61135  1  0  0  0
 61136  1  0  0  0
 62137  1  0  0  0
 62138  1  0  0  0
 62139  1  0  0  0
 63 65  1  0  0  0
 63140  1  0  0  0
 63141  1  0  0  0
 63142  1  0  0  0
 64143  1  0  0  0
 65144  1  0  0  0
 68 82  1  0  0  0
 71 73  2  0  0  0
 71 75  1  0  0  0
 71145  1  0  0  0
 72 75  2  0  0  0
 72 76  1  0  0  0
 72146  1  0  0  0
 73 74  1  0  0  0
 73 78  1  0  0  0
 74 76  2  0  0  0
 74 79  1  0  0  0
 75 84  1  0  0  0
 76 85  1  0  0  0
 77 78  2  0  0  0
 77147  1  0  0  0
 77148  1  0  0  0
 78149  1  0  0  0
 79150  1  0  0  0
 79151  1  0  0  0
 79152  1  0  0  0
 80 81  1  0  0  0
 80 82  1  0  0  0
 80153  1  0  0  0
 80154  1  0  0  0
 81 83  1  0  0  0
 81155  1  0  0  0
 81156  1  0  0  0
 82157  1  0  0  0
 82158  1  0  0  0
 83 85  1  0  0  0
 83159  1  0  0  0
 83160  1  0  0  0
 84161  1  0  0  0
M  ISO  4   1 100  68 101  82 101  84 100
M  END
> <chiral flag>
0

> <version>
0

> <s_m_source_file>
/data/baiqing/PycharmProjects/Reinvent-master-3.2/result/LINK_invent/BTK/process_docking_weight1_custom_product_contain_oxygen_bond_distance_aromatic_linkinvent_7_9_3/rearranged_h_0122.sdf

> <i_m_source_file_index>
4

> <r_mmod_Potential_Energy-OPLS-2005>
55.0823822021484

> <r_mmod_Stretch_Energy-OPLS-2005>
50.5322113037109

> <r_mmod_Bend_Energy-OPLS-2005>
132.092926025391

> <r_mmod_Torsional_Energy-OPLS-2005>
274.376617431641

> <r_mmod_Improper_Torsional_Energy-OPLS-2005>
6.97715663909912

> <r_mmod_Van_der_Waal_Energy-OPLS-2005>
150.932540893555

> <r_mmod_Electrostatic_Energy-OPLS-2005>
-370.874237060547

> <r_mmod_Solvation_Energy-OPLS-2005>
-212.367004394531

> <b_mmod_Minimization_Converged-OPLS-2005>
0

> <r_mmod_RMS_Derivative-OPLS-2005>
4.32093954086304

$$$$
4
                    3D
 Structure written by MMmdl.
160168  0  0  1  0            999 V2000
  -30.6798  -14.5555   20.5231 C   0  0  0  0  0  0
  -30.4440  -12.3409   19.4647 C   0  0  0  0  0  0
  -29.5184  -12.4724   18.2363 C   0  0  0  0  0  0
  -28.0376  -12.3238   18.6429 C   0  0  0  0  0  0
  -27.6535  -13.2041   19.8593 C   0  0  2  0  0  0
  -28.6969  -13.0580   20.9938 C   0  0  0  0  0  0
  -25.2501  -13.8138   20.5532 C   0  0  0  0  0  0
  -24.1792  -13.0451   20.9146 C   0  0  0  0  0  0
  -24.6364  -11.6902   20.8802 C   0  0  0  0  0  0
  -23.9041  -10.4310   21.0448 C   0  0  0  0  0  0
  -24.3613   -9.4223   21.9227 C   0  0  0  0  0  0
  -23.6289   -8.2258   22.0768 C   0  0  0  0  0  0
  -22.4293   -8.0315   21.3540 C   0  0  0  0  0  0
  -21.9915   -9.0287   20.4662 C   0  0  0  0  0  0
  -22.7208  -10.2162   20.3077 C   0  0  0  0  0  0
  -21.6872   -6.0746   22.5291 C   0  0  0  0  0  0
  -21.4007   -6.5632   23.8229 C   0  0  0  0  0  0
  -21.3642   -5.6783   24.9179 C   0  0  0  0  0  0
  -21.6054   -4.3042   24.7234 C   0  0  0  0  0  0
  -21.8813   -3.8146   23.4354 C   0  0  0  0  0  0
  -21.9181   -4.6978   22.3407 C   0  0  0  0  0  0
  -22.7815  -13.5274   21.1844 C   0  0  0  0  0  0
  -22.1655   -4.2150   21.0990 F   0  0  0  0  0  0
  -21.5630   -3.4535   25.7740 F   0  0  0  0  0  0
  -30.0275  -13.3602   20.4400 N   0  0  0  0  0  0
  -26.2963  -12.9322   20.3268 N   0  0  0  0  0  0
  -25.9292  -11.6505   20.5796 N   0  0  0  0  0  0
  -22.0442  -12.8308   22.0413 N   0  0  0  0  0  0
  -25.4141  -15.1849   20.3715 N   0  0  0  0  0  0
  -31.8584  -14.6774   20.1770 O   0  0  0  0  0  0
  -21.6633   -6.8919   21.4258 O   0  0  0  0  0  0
  -22.3513  -14.5576   20.6653 O   0  0  0  0  0  0
  -24.6138  -31.8684   23.2094 C   0  0  0  0  0  0
  -25.9035  -32.4832   23.8401 C   0  0  1  0  0  0
  -27.2300  -27.4232   20.1245 C   0  0  0  0  0  0
  -25.5896  -33.8620   24.2336 N   0  0  0  0  0  0
  -23.4020  -30.4926   21.5491 C   0  0  2  0  0  0
  -24.8512  -28.9569   20.1112 C   0  0  0  0  0  0
  -22.7406  -29.4668   22.4978 C   0  0  0  0  0  0
  -18.0275  -28.1366   22.8493 C   0  0  0  0  0  0
  -24.1481  -36.7316   23.2641 C   0  0  0  0  0  0
  -25.9295  -30.8358   21.3611 C   0  0  0  0  0  0
  -26.0103  -29.4683   20.7092 C   0  0  0  0  0  0
  -27.2047  -28.7105   20.7077 C   0  0  0  0  0  0
  -26.0587  -26.9304   19.5126 C   0  0  0  0  0  0
  -24.8718  -27.6889   19.5036 C   0  0  0  0  0  0
  -23.6109  -29.8241   20.1632 C   0  0  0  0  0  0
  -25.4102  -36.3113   24.0341 C   0  0  1  0  0  0
  -20.5868  -28.3658   23.1311 C   0  0  2  0  0  0
  -20.6768  -26.9395   22.5415 C   0  0  0  0  0  0
  -19.5753  -26.6371   21.5215 C   0  0  0  0  0  0
  -18.1922  -26.7914   22.1622 C   0  0  0  0  0  0
  -19.1525  -28.8835   23.2902 C   0  0  0  0  0  0
  -18.9450  -30.1438   23.8914 C   0  0  0  0  0  0
  -17.6455  -30.6581   24.0559 C   0  0  0  0  0  0
  -25.9036  -34.9484   23.5143 C   0  0  0  0  0  0
  -16.5342  -29.9085   23.6319 C   0  0  0  0  0  0
  -16.7261  -28.6492   23.0349 C   0  0  0  0  0  0
  -26.4465  -31.6595   25.0717 C   0  0  0  0  0  0
  -25.3740  -31.3687   26.1475 C   0  0  0  0  0  0
  -27.0287  -30.3035   24.6076 C   0  0  0  0  0  0
  -27.6043  -32.4304   25.7480 C   0  0  0  0  0  0
  -27.5577  -37.1812   24.8467 C   0  0  0  0  0  0
  -21.4141  -29.3034   22.3718 N   0  0  0  0  0  0
  -26.4287  -37.3795   23.9412 N   0  0  0  0  0  0
  -24.6671  -31.0793   22.0988 N   0  0  0  0  0  0
  -23.4171  -28.8214   23.3032 O   0  0  0  0  0  0
  -28.3732  -26.6525   20.1461 O   0  0  0  0  0  0
  -26.5592  -34.8928   22.4697 O   0  0  0  0  0  0
  -23.5342  -32.1427   23.7507 O   0  0  0  0  0  0
  -27.0587  -19.0624   21.2629 C   0  0  0  0  0  0
  -29.7747  -19.4088   20.7541 C   0  0  0  0  0  0
  -27.4876  -20.2510   20.6348 C   0  0  0  0  0  0
  -29.3258  -18.1434   21.2293 C   0  0  0  0  0  0
  -27.9601  -18.0376   21.6163 C   0  0  0  0  0  0
  -28.8821  -20.4983   20.5355 C   0  0  0  0  0  0
  -25.1738  -21.0604   19.9821 C   0  0  0  0  0  0
  -26.5114  -21.1906   20.0324 C   0  0  0  0  0  0
  -30.2332  -16.9518   21.1546 C   0  0  0  0  0  0
  -29.8187  -15.7264   20.7329 C   0  0  0  0  0  0
  -27.4194  -16.8794   22.4430 C   0  0  0  0  0  0
  -28.9066  -24.2109   20.1463 C   0  0  0  0  0  0
  -28.2707  -25.4172   20.8936 C   0  0  0  0  0  0
  -28.9630  -22.8820   20.9594 C   0  0  0  0  0  0
  -29.3712  -21.7432   20.1543 O   0  0  0  0  0  0
  -31.4856  -12.4623   19.1591 H   0  0  0  0  0  0
  -30.3832  -11.3440   19.9049 H   0  0  0  0  0  0
  -29.7839  -11.7148   17.4974 H   0  0  0  0  0  0
  -29.6803  -13.4411   17.7600 H   0  0  0  0  0  0
  -27.8737  -11.2701   18.8831 H   0  0  0  0  0  0
  -27.3852  -12.5500   17.8033 H   0  0  0  0  0  0
  -27.6623  -14.2257   19.4867 H   0  0  0  0  0  0
  -28.6840  -12.0439   21.3951 H   0  0  0  0  0  0
  -28.4548  -13.7020   21.8390 H   0  0  0  0  0  0
  -25.2776   -9.5693   22.4775 H   0  0  0  0  0  0
  -24.0012   -7.4639   22.7466 H   0  0  0  0  0  0
  -21.0851   -8.8815   19.8967 H   0  0  0  0  0  0
  -22.3707  -10.9710   19.6183 H   0  0  0  0  0  0
  -21.1999   -7.6146   23.9727 H   0  0  0  0  0  0
  -21.1470   -6.0514   25.9081 H   0  0  0  0  0  0
  -22.0603   -2.7615   23.2850 H   0  0  0  0  0  0
  -22.4066  -11.9967   22.4779 H   0  0  0  0  0  0
  -21.1073  -13.1352   22.2642 H   0  0  0  0  0  0
  -24.6597  -15.8467   20.5127 H   0  0  0  0  0  0
  -26.2616  -15.6296   20.0468 H   0  0  0  0  0  0
  -26.7102  -32.5538   23.1177 H   0  0  0  0  0  0
  -25.0047  -33.9783   25.0481 H   0  0  0  0  0  0
  -22.6896  -31.3088   21.4122 H   0  0  0  0  0  0
  -23.3741  -35.9651   23.3311 H   0  0  0  0  0  0
  -24.3579  -36.8918   22.2055 H   0  0  0  0  0  0
  -23.7237  -37.6525   23.6644 H   0  0  0  0  0  0
  -26.0385  -31.6023   20.5919 H   0  0  0  0  0  0
  -26.8187  -30.8929   21.9766 H   0  0  0  0  0  0
  -28.0985  -29.1018   21.1721 H   0  0  0  0  0  0
  -26.0626  -25.9563   19.0443 H   0  0  0  0  0  0
  -23.9815  -27.2942   19.0338 H   0  0  0  0  0  0
  -23.7163  -30.6012   19.4050 H   0  0  0  0  0  0
  -22.7338  -29.2461   19.8698 H   0  0  0  0  0  0
  -25.1279  -36.1984   25.0831 H   0  0  0  0  0  0
  -20.9960  -28.3236   24.1434 H   0  0  0  0  0  0
  -20.5674  -26.2276   23.3609 H   0  0  0  0  0  0
  -21.6636  -26.7446   22.1214 H   0  0  0  0  0  0
  -19.6915  -25.6287   21.1241 H   0  0  0  0  0  0
  -19.6690  -27.3183   20.6749 H   0  0  0  0  0  0
  -17.4199  -26.6673   21.4010 H   0  0  0  0  0  0
  -18.0320  -26.0046   22.9009 H   0  0  0  0  0  0
  -19.7931  -30.7242   24.2286 H   0  0  0  0  0  0
  -17.5015  -31.6266   24.5155 H   0  0  0  0  0  0
  -15.5348  -30.2992   23.7633 H   0  0  0  0  0  0
  -15.8660  -28.0818   22.7058 H   0  0  0  0  0  0
  -24.5927  -30.7020   25.7818 H   0  0  0  0  0  0
  -24.8923  -32.2836   26.4927 H   0  0  0  0  0  0
  -25.8111  -30.8863   27.0226 H   0  0  0  0  0  0
  -26.2826  -29.6811   24.1127 H   0  0  0  0  0  0
  -27.4062  -29.7253   25.4521 H   0  0  0  0  0  0
  -27.8658  -30.4357   23.9215 H   0  0  0  0  0  0
  -27.2672  -33.3600   26.2074 H   0  0  0  0  0  0
  -28.3849  -32.6864   25.0303 H   0  0  0  0  0  0
  -28.0717  -31.8413   26.5385 H   0  0  0  0  0  0
  -28.2604  -38.0097   24.7503 H   0  0  0  0  0  0
  -28.1058  -36.2634   24.6301 H   0  0  0  0  0  0
  -27.2298  -37.1476   25.8868 H   0  0  0  0  0  0
  -20.9286  -29.8748   21.6947 H   0  0  0  0  0  0
  -26.0186  -38.2871   24.1394 H   0  0  0  0  0  0
  -26.0080  -18.9105   21.4673 H   0  0  0  0  0  0
  -30.8210  -19.5455   20.5172 H   0  0  0  0  0  0
  -24.5627  -21.8112   19.5020 H   0  0  0  0  0  0
  -24.6453  -20.2182   20.3987 H   0  0  0  0  0  0
  -26.9226  -22.0666   19.5533 H   0  0  0  0  0  0
  -31.2721  -17.0913   21.4282 H   0  0  0  0  0  0
  -28.7872  -15.6469   20.4572 H   0  0  0  0  0  0
  -28.0370  -16.7188   23.3222 H   0  0  0  0  0  0
  -27.3661  -15.9464   21.8976 H   0  0  0  0  0  0
  -26.4065  -17.0819   22.7980 H   0  0  0  0  0  0
  -29.9204  -24.4745   19.8433 H   0  0  0  0  0  0
  -28.3450  -24.0448   19.2283 H   0  0  0  0  0  0
  -28.7822  -25.5632   21.8484 H   0  0  0  0  0  0
  -27.2368  -25.1752   21.1567 H   0  0  0  0  0  0
  -28.0042  -22.7345   21.4557 H   0  0  0  0  0  0
  -29.6792  -22.9775   21.7754 H   0  0  0  0  0  0
  1 25  1  0  0  0
  1 30  2  0  0  0
  1 80  1  0  0  0
  2  3  1  0  0  0
  2 25  1  0  0  0
  2 86  1  0  0  0
  2 87  1  0  0  0
  3  4  1  0  0  0
  3 88  1  0  0  0
  3 89  1  0  0  0
  4  5  1  0  0  0
  4 90  1  0  0  0
  4 91  1  0  0  0
  5  6  1  0  0  0
  5 26  1  0  0  0
  5 92  1  0  0  0
  6 25  1  0  0  0
  6 93  1  0  0  0
  6 94  1  0  0  0
  7  8  2  0  0  0
  7 26  1  0  0  0
  7 29  1  0  0  0
  8  9  1  0  0  0
  8 22  1  0  0  0
  9 10  1  0  0  0
  9 27  2  0  0  0
 10 11  2  0  0  0
 10 15  1  0  0  0
 11 12  1  0  0  0
 11 95  1  0  0  0
 12 13  2  0  0  0
 12 96  1  0  0  0
 13 14  1  0  0  0
 13 31  1  0  0  0
 14 15  2  0  0  0
 14 97  1  0  0  0
 15 98  1  0  0  0
 16 17  2  0  0  0
 16 21  1  0  0  0
 16 31  1  0  0  0
 17 18  1  0  0  0
 17 99  1  0  0  0
 18 19  2  0  0  0
 18100  1  0  0  0
 19 20  1  0  0  0
 19 24  1  0  0  0
 20 21  2  0  0  0
 20101  1  0  0  0
 21 23  1  0  0  0
 22 28  1  0  0  0
 22 32  2  0  0  0
 26 27  1  0  0  0
 28102  1  0  0  0
 28103  1  0  0  0
 29104  1  0  0  0
 29105  1  0  0  0
 33 34  1  0  0  0
 33 66  1  0  0  0
 33 70  2  0  0  0
 34 36  1  0  0  0
 34 59  1  0  0  0
 34106  1  0  0  0
 35 44  2  0  0  0
 35 45  1  0  0  0
 35 68  1  0  0  0
 36 56  1  0  0  0
 36107  1  0  0  0
 37 39  1  0  0  0
 37 47  1  0  0  0
 37 66  1  0  0  0
 37108  1  0  0  0
 38 43  2  0  0  0
 38 46  1  0  0  0
 38 47  1  0  0  0
 39 64  1  0  0  0
 39 67  2  0  0  0
 40 52  1  0  0  0
 40 53  2  0  0  0
 40 58  1  0  0  0
 41109  1  0  0  0
 41110  1  0  0  0
 41111  1  0  0  0
 41 48  1  0  0  0
 42 43  1  0  0  0
 42 66  1  0  0  0
 42112  1  0  0  0
 42113  1  0  0  0
 43 44  1  0  0  0
 44114  1  0  0  0
 45 46  2  0  0  0
 45115  1  0  0  0
 46116  1  0  0  0
 47117  1  0  0  0
 47118  1  0  0  0
 48 56  1  0  0  0
 48 65  1  0  0  0
 48119  1  0  0  0
 49 50  1  0  0  0
 49 53  1  0  0  0
 49 64  1  0  0  0
 49120  1  0  0  0
 50 51  1  0  0  0
 50121  1  0  0  0
 50122  1  0  0  0
 51 52  1  0  0  0
 51123  1  0  0  0
 51124  1  0  0  0
 52125  1  0  0  0
 52126  1  0  0  0
 53 54  1  0  0  0
 54 55  2  0  0  0
 54127  1  0  0  0
 55 57  1  0  0  0
 55128  1  0  0  0
 56 69  2  0  0  0
 57 58  2  0  0  0
 57129  1  0  0  0
 58130  1  0  0  0
 59 60  1  0  0  0
 59 61  1  0  0  0
 59 62  1  0  0  0
 60131  1  0  0  0
 60132  1  0  0  0
 60133  1  0  0  0
 61134  1  0  0  0
 61135  1  0  0  0
 61136  1  0  0  0
 62137  1  0  0  0
 62138  1  0  0  0
 62139  1  0  0  0
 63 65  1  0  0  0
 63140  1  0  0  0
 63141  1  0  0  0
 63142  1  0  0  0
 64143  1  0  0  0
 65144  1  0  0  0
 68 83  1  0  0  0
 71 73  2  0  0  0
 71 75  1  0  0  0
 71145  1  0  0  0
 72 74  1  0  0  0
 72 76  2  0  0  0
 72146  1  0  0  0
 73 76  1  0  0  0
 73 78  1  0  0  0
 74 75  2  0  0  0
 74 79  1  0  0  0
 75 81  1  0  0  0
 76 85  1  0  0  0
 77 78  2  0  0  0
 77147  1  0  0  0
 77148  1  0  0  0
 78149  1  0  0  0
 79 80  2  0  0  0
 79150  1  0  0  0
 80151  1  0  0  0
 81152  1  0  0  0
 81153  1  0  0  0
 81154  1  0  0  0
 82 83  1  0  0  0
 82 84  1  0  0  0
 82155  1  0  0  0
 82156  1  0  0  0
 83157  1  0  0  0
 83158  1  0  0  0
 84 85  1  0  0  0
 84159  1  0  0  0
 84160  1  0  0  0
M  ISO  4   1 100  68 101  80 100  83 101
M  END
> <chiral flag>
0

> <version>
0

> <s_m_source_file>
/data/baiqing/PycharmProjects/Reinvent-master-3.2/result/LINK_invent/BTK/process_docking_weight1_custom_product_contain_oxygen_bond_distance_aromatic_linkinvent_7_9_3/rearranged_h_0122.sdf

> <i_m_source_file_index>
5

> <r_mmod_Potential_Energy-OPLS-2005>
74.4357299804688

> <r_mmod_Stretch_Energy-OPLS-2005>
47.6920967102051

> <r_mmod_Bend_Energy-OPLS-2005>
101.362098693848

> <r_mmod_Torsional_Energy-OPLS-2005>
272.810791015625

> <r_mmod_Improper_Torsional_Energy-OPLS-2005>
9.07057857513428

> <r_mmod_Van_der_Waal_Energy-OPLS-2005>
160.624694824219

> <r_mmod_Electrostatic_Energy-OPLS-2005>
-350.434051513672

> <r_mmod_Solvation_Energy-OPLS-2005>
-191.733062744141

> <b_mmod_Minimization_Converged-OPLS-2005>
0

> <r_mmod_RMS_Derivative-OPLS-2005>
6.3782753944397

$$$$
5
                    3D
 Structure written by MMmdl.
156164  0  0  1  0            999 V2000
  -30.6509  -14.6329   20.4446 C   0  0  0  0  0  0
  -30.4197  -12.3742   19.4680 C   0  0  0  0  0  0
  -29.5099  -12.5042   18.2273 C   0  0  0  0  0  0
  -28.0296  -12.3446   18.6294 C   0  0  0  0  0  0
  -27.6451  -13.2242   19.8494 C   0  0  2  0  0  0
  -28.6858  -13.1142   20.9846 C   0  0  0  0  0  0
  -25.2532  -13.8175   20.5678 C   0  0  0  0  0  0
  -24.1813  -13.0428   20.9188 C   0  0  0  0  0  0
  -24.6391  -11.6907   20.8723 C   0  0  0  0  0  0
  -23.9068  -10.4288   21.0402 C   0  0  0  0  0  0
  -24.3618   -9.4211   21.9184 C   0  0  0  0  0  0
  -23.6296   -8.2242   22.0753 C   0  0  0  0  0  0
  -22.4278   -8.0285   21.3550 C   0  0  0  0  0  0
  -21.9909   -9.0254   20.4646 C   0  0  0  0  0  0
  -22.7239  -10.2128   20.3052 C   0  0  0  0  0  0
  -21.6851   -6.0736   22.5284 C   0  0  0  0  0  0
  -21.4002   -6.5642   23.8218 C   0  0  0  0  0  0
  -21.3656   -5.6795   24.9179 C   0  0  0  0  0  0
  -21.6047   -4.3056   24.7230 C   0  0  0  0  0  0
  -21.8823   -3.8148   23.4351 C   0  0  0  0  0  0
  -21.9190   -4.6967   22.3407 C   0  0  0  0  0  0
  -22.7840  -13.5222   21.1864 C   0  0  0  0  0  0
  -22.1663   -4.2154   21.0986 F   0  0  0  0  0  0
  -21.5634   -3.4539   25.7739 F   0  0  0  0  0  0
  -30.0055  -13.4237   20.4213 N   0  0  0  0  0  0
  -26.2946  -12.9372   20.3246 N   0  0  0  0  0  0
  -25.9315  -11.6515   20.5703 N   0  0  0  0  0  0
  -22.0478  -12.8215   22.0419 N   0  0  0  0  0  0
  -25.4243  -15.1897   20.4135 N   0  0  0  0  0  0
  -31.8475  -14.6901   20.1484 O   0  0  0  0  0  0
  -21.6636   -6.8885   21.4248 O   0  0  0  0  0  0
  -22.3528  -14.5531   20.6721 O   0  0  0  0  0  0
  -24.6266  -31.8614   23.2068 C   0  0  0  0  0  0
  -25.9126  -32.4775   23.8383 C   0  0  1  0  0  0
  -27.2156  -27.3396   20.0864 C   0  0  0  0  0  0
  -25.5946  -33.8575   24.2306 N   0  0  0  0  0  0
  -23.4163  -30.4899   21.5500 C   0  0  2  0  0  0
  -24.8550  -28.9520   20.1117 C   0  0  0  0  0  0
  -22.7477  -29.4639   22.4960 C   0  0  0  0  0  0
  -18.0283  -28.1387   22.8483 C   0  0  0  0  0  0
  -24.1473  -36.7267   23.2649 C   0  0  0  0  0  0
  -25.9582  -30.7975   21.3741 C   0  0  0  0  0  0
  -26.0267  -29.4296   20.7100 C   0  0  0  0  0  0
  -27.2073  -28.6333   20.6913 C   0  0  0  0  0  0
  -26.0036  -26.8989   19.5002 C   0  0  0  0  0  0
  -24.8432  -27.6900   19.5052 C   0  0  0  0  0  0
  -23.6259  -29.8310   20.1632 C   0  0  0  0  0  0
  -25.4104  -36.3073   24.0338 C   0  0  1  0  0  0
  -20.5884  -28.3678   23.1295 C   0  0  2  0  0  0
  -20.6758  -26.9404   22.5412 C   0  0  0  0  0  0
  -19.5740  -26.6384   21.5207 C   0  0  0  0  0  0
  -18.1921  -26.7936   22.1616 C   0  0  0  0  0  0
  -19.1536  -28.8853   23.2881 C   0  0  0  0  0  0
  -18.9457  -30.1453   23.8898 C   0  0  0  0  0  0
  -17.6455  -30.6584   24.0564 C   0  0  0  0  0  0
  -25.9044  -34.9443   23.5115 C   0  0  0  0  0  0
  -16.5348  -29.9080   23.6333 C   0  0  0  0  0  0
  -16.7268  -28.6501   23.0351 C   0  0  0  0  0  0
  -26.4510  -31.6589   25.0753 C   0  0  0  0  0  0
  -25.3746  -31.3711   26.1479 C   0  0  0  0  0  0
  -27.0348  -30.3016   24.6204 C   0  0  0  0  0  0
  -27.6084  -32.4313   25.7516 C   0  0  0  0  0  0
  -27.5561  -37.1800   24.8481 C   0  0  0  0  0  0
  -21.4193  -29.3033   22.3696 N   0  0  0  0  0  0
  -26.4282  -37.3767   23.9409 N   0  0  0  0  0  0
  -24.6859  -31.0660   22.0996 N   0  0  0  0  0  0
  -23.4217  -28.8173   23.3017 O   0  0  0  0  0  0
  -28.3611  -26.5337   20.1329 O   0  0  0  0  0  0
  -26.5600  -34.8914   22.4671 O   0  0  0  0  0  0
  -23.5435  -32.1400   23.7411 O   0  0  0  0  0  0
  -30.5605  -19.5736   20.8298 C   0  0  0  0  0  0
  -28.2264  -20.2914   19.5427 C   0  0  0  0  0  0
  -29.7847  -18.5168   20.2876 C   0  0  0  0  0  0
  -29.0339  -21.3558   20.0238 C   0  0  0  0  0  0
  -28.5734  -18.9127   19.6508 C   0  0  0  0  0  0
  -30.2155  -20.9548   20.7125 C   0  0  0  0  0  0
  -30.3645  -17.1132   20.3477 C   0  0  0  0  0  0
  -28.5841  -22.7680   19.6726 C   0  0  0  0  0  0
  -29.8255  -15.8720   20.5800 C   0  0  0  0  0  0
  -29.0370  -24.0268   19.9665 C   0  0  0  0  0  0
  -27.6436  -17.9170   18.9783 C   0  0  0  0  0  0
  -31.1777  -21.9703   21.2991 C   0  0  0  0  0  0
  -28.4900  -25.3270   19.3057 C   0  0  0  0  0  0
  -31.4692  -12.4564   19.1812 H   0  0  0  0  0  0
  -30.3129  -11.3875   19.9204 H   0  0  0  0  0  0
  -29.7812  -11.7570   17.4806 H   0  0  0  0  0  0
  -29.6631  -13.4765   17.7566 H   0  0  0  0  0  0
  -27.8649  -11.2933   18.8649 H   0  0  0  0  0  0
  -27.3816  -12.5701   17.7817 H   0  0  0  0  0  0
  -27.6502  -14.2526   19.4901 H   0  0  0  0  0  0
  -28.6876  -12.1094   21.4101 H   0  0  0  0  0  0
  -28.4383  -13.7850   21.8086 H   0  0  0  0  0  0
  -25.2761   -9.5696   22.4753 H   0  0  0  0  0  0
  -24.0018   -7.4629   22.7457 H   0  0  0  0  0  0
  -21.0847   -8.8767   19.8944 H   0  0  0  0  0  0
  -22.3709  -10.9660   19.6152 H   0  0  0  0  0  0
  -21.1984   -7.6146   23.9723 H   0  0  0  0  0  0
  -21.1474   -6.0520   25.9085 H   0  0  0  0  0  0
  -22.0601   -2.7612   23.2841 H   0  0  0  0  0  0
  -22.4068  -11.9871   22.4815 H   0  0  0  0  0  0
  -21.1095  -13.1260   22.2604 H   0  0  0  0  0  0
  -24.6593  -15.8454   20.5333 H   0  0  0  0  0  0
  -26.2861  -15.6299   20.1221 H   0  0  0  0  0  0
  -26.7201  -32.5434   23.1137 H   0  0  0  0  0  0
  -25.0106  -33.9714   25.0462 H   0  0  0  0  0  0
  -22.7081  -31.3094   21.4129 H   0  0  0  0  0  0
  -23.3731  -35.9610   23.3368 H   0  0  0  0  0  0
  -24.3544  -36.8818   22.2050 H   0  0  0  0  0  0
  -23.7240  -37.6497   23.6620 H   0  0  0  0  0  0
  -26.0953  -31.5661   20.6119 H   0  0  0  0  0  0
  -26.8370  -30.8350   22.0067 H   0  0  0  0  0  0
  -28.1101  -29.0021   21.1575 H   0  0  0  0  0  0
  -25.8768  -25.9260   19.0577 H   0  0  0  0  0  0
  -23.9354  -27.3102   19.0562 H   0  0  0  0  0  0
  -23.7457  -30.6081   19.4073 H   0  0  0  0  0  0
  -22.7449  -29.2607   19.8621 H   0  0  0  0  0  0
  -25.1287  -36.1930   25.0834 H   0  0  0  0  0  0
  -20.9969  -28.3235   24.1419 H   0  0  0  0  0  0
  -20.5639  -26.2291   23.3607 H   0  0  0  0  0  0
  -21.6627  -26.7411   22.1223 H   0  0  0  0  0  0
  -19.6890  -25.6292   21.1239 H   0  0  0  0  0  0
  -19.6692  -27.3189   20.6732 H   0  0  0  0  0  0
  -17.4196  -26.6700   21.4011 H   0  0  0  0  0  0
  -18.0309  -26.0074   22.9009 H   0  0  0  0  0  0
  -19.7930  -30.7264   24.2281 H   0  0  0  0  0  0
  -17.5007  -31.6261   24.5168 H   0  0  0  0  0  0
  -15.5343  -30.2972   23.7662 H   0  0  0  0  0  0
  -15.8674  -28.0809   22.7068 H   0  0  0  0  0  0
  -24.5930  -30.7055   25.7800 H   0  0  0  0  0  0
  -24.8923  -32.2861   26.4923 H   0  0  0  0  0  0
  -25.8073  -30.8878   27.0246 H   0  0  0  0  0  0
  -26.2910  -29.6766   24.1248 H   0  0  0  0  0  0
  -27.4064  -29.7277   25.4704 H   0  0  0  0  0  0
  -27.8776  -30.4302   23.9411 H   0  0  0  0  0  0
  -27.2721  -33.3619   26.2099 H   0  0  0  0  0  0
  -28.3893  -32.6861   25.0339 H   0  0  0  0  0  0
  -28.0763  -31.8434   26.5424 H   0  0  0  0  0  0
  -28.2632  -38.0042   24.7453 H   0  0  0  0  0  0
  -28.0991  -36.2567   24.6393 H   0  0  0  0  0  0
  -27.2268  -37.1565   25.8885 H   0  0  0  0  0  0
  -20.9384  -29.8763   21.6909 H   0  0  0  0  0  0
  -26.0163  -38.2850   24.1378 H   0  0  0  0  0  0
  -31.4879  -19.3126   21.3195 H   0  0  0  0  0  0
  -27.3162  -20.5430   19.0154 H   0  0  0  0  0  0
  -31.4186  -17.1209   20.1043 H   0  0  0  0  0  0
  -27.7393  -22.7677   18.9970 H   0  0  0  0  0  0
  -28.7817  -15.8069   20.8401 H   0  0  0  0  0  0
  -29.8609  -24.1719   20.6443 H   0  0  0  0  0  0
  -27.3180  -18.3095   18.0136 H   0  0  0  0  0  0
  -26.7531  -17.7622   19.5876 H   0  0  0  0  0  0
  -28.1128  -16.9551   18.7827 H   0  0  0  0  0  0
  -32.0422  -21.4857   21.7546 H   0  0  0  0  0  0
  -30.6866  -22.5602   22.0736 H   0  0  0  0  0  0
  -31.5525  -22.6359   20.5213 H   0  0  0  0  0  0
  -27.6103  -25.0507   18.7365 H   0  0  0  0  0  0
  -29.2135  -25.5915   18.5339 H   0  0  0  0  0  0
  1 25  1  0  0  0
  1 30  2  0  0  0
  1 79  1  0  0  0
  2  3  1  0  0  0
  2 25  1  0  0  0
  2 84  1  0  0  0
  2 85  1  0  0  0
  3  4  1  0  0  0
  3 86  1  0  0  0
  3 87  1  0  0  0
  4  5  1  0  0  0
  4 88  1  0  0  0
  4 89  1  0  0  0
  5  6  1  0  0  0
  5 26  1  0  0  0
  5 90  1  0  0  0
  6 25  1  0  0  0
  6 91  1  0  0  0
  6 92  1  0  0  0
  7  8  2  0  0  0
  7 26  1  0  0  0
  7 29  1  0  0  0
  8  9  1  0  0  0
  8 22  1  0  0  0
  9 10  1  0  0  0
  9 27  2  0  0  0
 10 11  2  0  0  0
 10 15  1  0  0  0
 11 12  1  0  0  0
 11 93  1  0  0  0
 12 13  2  0  0  0
 12 94  1  0  0  0
 13 14  1  0  0  0
 13 31  1  0  0  0
 14 15  2  0  0  0
 14 95  1  0  0  0
 15 96  1  0  0  0
 16 17  2  0  0  0
 16 21  1  0  0  0
 16 31  1  0  0  0
 17 18  1  0  0  0
 17 97  1  0  0  0
 18 19  2  0  0  0
 18 98  1  0  0  0
 19 20  1  0  0  0
 19 24  1  0  0  0
 20 21  2  0  0  0
 20 99  1  0  0  0
 21 23  1  0  0  0
 22 28  1  0  0  0
 22 32  2  0  0  0
 26 27  1  0  0  0
 28100  1  0  0  0
 28101  1  0  0  0
 29102  1  0  0  0
 29103  1  0  0  0
 33 34  1  0  0  0
 33 66  1  0  0  0
 33 70  2  0  0  0
 34 36  1  0  0  0
 34 59  1  0  0  0
 34104  1  0  0  0
 35 44  2  0  0  0
 35 45  1  0  0  0
 35 68  1  0  0  0
 36 56  1  0  0  0
 36105  1  0  0  0
 37 39  1  0  0  0
 37 47  1  0  0  0
 37 66  1  0  0  0
 37106  1  0  0  0
 38 43  2  0  0  0
 38 46  1  0  0  0
 38 47  1  0  0  0
 39 64  1  0  0  0
 39 67  2  0  0  0
 40 52  1  0  0  0
 40 53  2  0  0  0
 40 58  1  0  0  0
 41107  1  0  0  0
 41108  1  0  0  0
 41109  1  0  0  0
 41 48  1  0  0  0
 42 43  1  0  0  0
 42 66  1  0  0  0
 42110  1  0  0  0
 42111  1  0  0  0
 43 44  1  0  0  0
 44112  1  0  0  0
 45 46  2  0  0  0
 45113  1  0  0  0
 46114  1  0  0  0
 47115  1  0  0  0
 47116  1  0  0  0
 48 56  1  0  0  0
 48 65  1  0  0  0
 48117  1  0  0  0
 49 50  1  0  0  0
 49 53  1  0  0  0
 49 64  1  0  0  0
 49118  1  0  0  0
 50 51  1  0  0  0
 50119  1  0  0  0
 50120  1  0  0  0
 51 52  1  0  0  0
 51121  1  0  0  0
 51122  1  0  0  0
 52123  1  0  0  0
 52124  1  0  0  0
 53 54  1  0  0  0
 54 55  2  0  0  0
 54125  1  0  0  0
 55 57  1  0  0  0
 55126  1  0  0  0
 56 69  2  0  0  0
 57 58  2  0  0  0
 57127  1  0  0  0
 58128  1  0  0  0
 59 60  1  0  0  0
 59 61  1  0  0  0
 59 62  1  0  0  0
 60129  1  0  0  0
 60130  1  0  0  0
 60131  1  0  0  0
 61132  1  0  0  0
 61133  1  0  0  0
 61134  1  0  0  0
 62135  1  0  0  0
 62136  1  0  0  0
 62137  1  0  0  0
 63 65  1  0  0  0
 63138  1  0  0  0
 63139  1  0  0  0
 63140  1  0  0  0
 64141  1  0  0  0
 65142  1  0  0  0
 68 83  1  0  0  0
 71 73  2  0  0  0
 71 76  1  0  0  0
 71143  1  0  0  0
 72 74  1  0  0  0
 72 75  2  0  0  0
 72144  1  0  0  0
 73 75  1  0  0  0
 73 77  1  0  0  0
 74 76  2  0  0  0
 74 78  1  0  0  0
 75 81  1  0  0  0
 76 82  1  0  0  0
 77 79  2  0  0  0
 77145  1  0  0  0
 78 80  2  0  0  0
 78146  1  0  0  0
 79147  1  0  0  0
 80 83  1  0  0  0
 80148  1  0  0  0
 81149  1  0  0  0
 81150  1  0  0  0
 81151  1  0  0  0
 82152  1  0  0  0
 82153  1  0  0  0
 82154  1  0  0  0
 83155  1  0  0  0
 83156  1  0  0  0
M  ISO  4   1 100  68 101  79 100  83 101
M  END
> <chiral flag>
0

> <version>
0

> <s_m_source_file>
/data/baiqing/PycharmProjects/Reinvent-master-3.2/result/LINK_invent/BTK/process_docking_weight1_custom_product_contain_oxygen_bond_distance_aromatic_linkinvent_7_9_3/rearranged_h_0122.sdf

> <i_m_source_file_index>
6

> <r_mmod_Potential_Energy-OPLS-2005>
89.7803802490234

> <r_mmod_Stretch_Energy-OPLS-2005>
69.9175186157227

> <r_mmod_Bend_Energy-OPLS-2005>
154.088119506836

> <r_mmod_Torsional_Energy-OPLS-2005>
198.221313476562

> <r_mmod_Improper_Torsional_Energy-OPLS-2005>
7.34690237045288

> <r_mmod_Van_der_Waal_Energy-OPLS-2005>
156.210586547852

> <r_mmod_Electrostatic_Energy-OPLS-2005>
-347.525177001953

> <r_mmod_Solvation_Energy-OPLS-2005>
-193.953826904297

> <b_mmod_Minimization_Converged-OPLS-2005>
0

> <r_mmod_RMS_Derivative-OPLS-2005>
1.79101991653442

$$$$
6
                    3D
 Structure written by MMmdl.
165173  0  0  1  0            999 V2000
  -30.7761  -14.4566   20.5189 C   0  0  0  0  0  0
  -30.3869  -12.2821   19.4506 C   0  0  0  0  0  0
  -29.4931  -12.4909   18.2144 C   0  0  0  0  0  0
  -28.0115  -12.3682   18.6148 C   0  0  0  0  0  0
  -27.6521  -13.2266   19.8604 C   0  0  2  0  0  0
  -28.6931  -13.0788   20.9927 C   0  0  0  0  0  0
  -25.2552  -13.8208   20.5695 C   0  0  0  0  0  0
  -24.1826  -13.0453   20.9192 C   0  0  0  0  0  0
  -24.6411  -11.6927   20.8735 C   0  0  0  0  0  0
  -23.9088  -10.4304   21.0392 C   0  0  0  0  0  0
  -24.3636   -9.4219   21.9168 C   0  0  0  0  0  0
  -23.6308   -8.2252   22.0745 C   0  0  0  0  0  0
  -22.4290   -8.0288   21.3542 C   0  0  0  0  0  0
  -21.9931   -9.0260   20.4638 C   0  0  0  0  0  0
  -22.7260  -10.2141   20.3040 C   0  0  0  0  0  0
  -21.6858   -6.0740   22.5283 C   0  0  0  0  0  0
  -21.4010   -6.5644   23.8213 C   0  0  0  0  0  0
  -21.3663   -5.6793   24.9177 C   0  0  0  0  0  0
  -21.6049   -4.3055   24.7222 C   0  0  0  0  0  0
  -21.8818   -3.8151   23.4340 C   0  0  0  0  0  0
  -21.9196   -4.6969   22.3405 C   0  0  0  0  0  0
  -22.7845  -13.5238   21.1842 C   0  0  0  0  0  0
  -22.1657   -4.2150   21.0982 F   0  0  0  0  0  0
  -21.5641   -3.4541   25.7740 F   0  0  0  0  0  0
  -30.0237  -13.3249   20.4283 N   0  0  0  0  0  0
  -26.2988  -12.9414   20.3319 N   0  0  0  0  0  0
  -25.9346  -11.6557   20.5745 N   0  0  0  0  0  0
  -22.0483  -12.8226   22.0394 N   0  0  0  0  0  0
  -25.4272  -15.1924   20.4126 N   0  0  0  0  0  0
  -31.9338  -14.4613   20.0930 O   0  0  0  0  0  0
  -21.6654   -6.8884   21.4245 O   0  0  0  0  0  0
  -22.3527  -14.5536   20.6685 O   0  0  0  0  0  0
  -24.6158  -31.8687   23.2139 C   0  0  0  0  0  0
  -25.9063  -32.4825   23.8426 C   0  0  1  0  0  0
  -27.2199  -27.4402   20.1023 C   0  0  0  0  0  0
  -25.5933  -33.8627   24.2368 N   0  0  0  0  0  0
  -23.4014  -30.4938   21.5538 C   0  0  2  0  0  0
  -24.8446  -28.9595   20.1164 C   0  0  0  0  0  0
  -22.7410  -29.4674   22.5020 C   0  0  0  0  0  0
  -18.0273  -28.1360   22.8493 C   0  0  0  0  0  0
  -24.1478  -36.7313   23.2645 C   0  0  0  0  0  0
  -25.9287  -30.8360   21.3649 C   0  0  0  0  0  0
  -26.0041  -29.4696   20.7160 C   0  0  0  0  0  0
  -27.1998  -28.7161   20.7087 C   0  0  0  0  0  0
  -26.0534  -26.9438   19.4920 C   0  0  0  0  0  0
  -24.8635  -27.6949   19.5009 C   0  0  0  0  0  0
  -23.6075  -29.8266   20.1674 C   0  0  0  0  0  0
  -25.4099  -36.3120   24.0350 C   0  0  1  0  0  0
  -20.5867  -28.3641   23.1323 C   0  0  2  0  0  0
  -20.6762  -26.9383   22.5417 C   0  0  0  0  0  0
  -19.5737  -26.6372   21.5221 C   0  0  0  0  0  0
  -18.1914  -26.7911   22.1628 C   0  0  0  0  0  0
  -19.1523  -28.8821   23.2899 C   0  0  0  0  0  0
  -18.9456  -30.1439   23.8893 C   0  0  0  0  0  0
  -17.6459  -30.6571   24.0556 C   0  0  0  0  0  0
  -25.9030  -34.9483   23.5146 C   0  0  0  0  0  0
  -16.5348  -29.9070   23.6323 C   0  0  0  0  0  0
  -16.7268  -28.6486   23.0347 C   0  0  0  0  0  0
  -26.4490  -31.6590   25.0748 C   0  0  0  0  0  0
  -25.3774  -31.3653   26.1511 C   0  0  0  0  0  0
  -27.0348  -30.3051   24.6108 C   0  0  0  0  0  0
  -27.6075  -32.4307   25.7501 C   0  0  0  0  0  0
  -27.5579  -37.1820   24.8475 C   0  0  0  0  0  0
  -21.4146  -29.3019   22.3743 N   0  0  0  0  0  0
  -26.4285  -37.3805   23.9420 N   0  0  0  0  0  0
  -24.6668  -31.0799   22.1028 N   0  0  0  0  0  0
  -23.4183  -28.8226   23.3070 O   0  0  0  0  0  0
  -28.3513  -26.6638   20.0771 O   0  0  0  0  0  0
  -26.5574  -34.8930   22.4697 O   0  0  0  0  0  0
  -23.5359  -32.1436   23.7548 O   0  0  0  0  0  0
  -32.0312  -18.8803   21.7287 C   0  0  0  0  0  0
  -29.7212  -18.9957   20.9935 C   0  0  0  0  0  0
  -30.8528  -18.2149   21.3379 C   0  0  0  0  0  0
  -32.1532  -20.2763   21.6566 C   0  0  0  0  0  0
  -31.0552  -21.0531   21.2128 C   0  0  0  0  0  0
  -29.8050  -20.4172   20.9493 C   0  0  0  0  0  0
  -30.9985  -16.7472   21.1910 C   0  0  0  0  0  0
  -30.1453  -15.7357   20.8860 C   0  0  0  0  0  0
  -31.2543  -22.5385   20.9301 C   0  0  0  0  0  0
  -34.4584  -20.8489   20.7794 C   0  0  0  0  0  0
  -33.5138  -20.8753   21.9890 C   0  0  0  0  0  0
  -27.7557  -24.7394   21.5837 C   0  0  0  0  0  0
  -27.9993  -23.5214   20.6569 C   0  0  0  0  0  0
  -28.6362  -25.9884   21.3056 C   0  0  0  0  0  0
  -28.2277  -22.1828   21.4129 C   0  0  0  0  0  0
  -28.6879  -21.1310   20.5486 O   0  0  0  0  0  0
  -31.4383  -12.2974   19.1609 H   0  0  0  0  0  0
  -30.2195  -11.2906   19.8761 H   0  0  0  0  0  0
  -29.7375  -11.7597   17.4435 H   0  0  0  0  0  0
  -29.6835  -13.4724   17.7760 H   0  0  0  0  0  0
  -27.8156  -11.3154   18.8170 H   0  0  0  0  0  0
  -27.3709  -12.6394   17.7753 H   0  0  0  0  0  0
  -27.6773  -14.2661   19.5341 H   0  0  0  0  0  0
  -28.6558  -12.0728   21.4147 H   0  0  0  0  0  0
  -28.4760  -13.7625   21.8143 H   0  0  0  0  0  0
  -25.2785   -9.5697   22.4746 H   0  0  0  0  0  0
  -24.0028   -7.4643   22.7466 H   0  0  0  0  0  0
  -21.0869   -8.8774   19.8939 H   0  0  0  0  0  0
  -22.3719  -10.9675   19.6151 H   0  0  0  0  0  0
  -21.1989   -7.6147   23.9724 H   0  0  0  0  0  0
  -21.1489   -6.0519   25.9082 H   0  0  0  0  0  0
  -22.0596   -2.7611   23.2850 H   0  0  0  0  0  0
  -22.4102  -11.9911   22.4825 H   0  0  0  0  0  0
  -21.1079  -13.1223   22.2543 H   0  0  0  0  0  0
  -24.6669  -15.8532   20.5277 H   0  0  0  0  0  0
  -26.2883  -15.6298   20.1092 H   0  0  0  0  0  0
  -26.7151  -32.5537   23.1209 H   0  0  0  0  0  0
  -25.0154  -33.9779   25.0562 H   0  0  0  0  0  0
  -22.6908  -31.3121   21.4170 H   0  0  0  0  0  0
  -23.3752  -35.9638   23.3309 H   0  0  0  0  0  0
  -24.3570  -36.8911   22.2057 H   0  0  0  0  0  0
  -23.7210  -37.6513   23.6649 H   0  0  0  0  0  0
  -26.0390  -31.6004   20.5943 H   0  0  0  0  0  0
  -26.8183  -30.8908   21.9806 H   0  0  0  0  0  0
  -28.1008  -29.1046   21.1625 H   0  0  0  0  0  0
  -26.0651  -25.9686   19.0251 H   0  0  0  0  0  0
  -23.9747  -27.2947   19.0326 H   0  0  0  0  0  0
  -23.7134  -30.6021   19.4081 H   0  0  0  0  0  0
  -22.7292  -29.2493   19.8720 H   0  0  0  0  0  0
  -25.1265  -36.2002   25.0844 H   0  0  0  0  0  0
  -20.9953  -28.3204   24.1448 H   0  0  0  0  0  0
  -20.5659  -26.2259   23.3605 H   0  0  0  0  0  0
  -21.6625  -26.7418   22.1204 H   0  0  0  0  0  0
  -19.6877  -25.6286   21.1235 H   0  0  0  0  0  0
  -19.6665  -27.3195   20.6764 H   0  0  0  0  0  0
  -17.4190  -26.6695   21.4023 H   0  0  0  0  0  0
  -18.0279  -26.0033   22.8996 H   0  0  0  0  0  0
  -19.7935  -30.7255   24.2244 H   0  0  0  0  0  0
  -17.5013  -31.6247   24.5162 H   0  0  0  0  0  0
  -15.5342  -30.2967   23.7636 H   0  0  0  0  0  0
  -15.8677  -28.0801   22.7054 H   0  0  0  0  0  0
  -24.5978  -30.6951   25.7865 H   0  0  0  0  0  0
  -24.8927  -32.2774   26.5007 H   0  0  0  0  0  0
  -25.8161  -30.8823   27.0252 H   0  0  0  0  0  0
  -26.2891  -29.6775   24.1217 H   0  0  0  0  0  0
  -27.4193  -29.7318   25.4552 H   0  0  0  0  0  0
  -27.8685  -30.4383   23.9213 H   0  0  0  0  0  0
  -27.2722  -33.3616   26.2085 H   0  0  0  0  0  0
  -28.3893  -32.6839   25.0329 H   0  0  0  0  0  0
  -28.0748  -31.8429   26.5410 H   0  0  0  0  0  0
  -28.2607  -38.0114   24.7531 H   0  0  0  0  0  0
  -28.1069  -36.2643   24.6297 H   0  0  0  0  0  0
  -27.2296  -37.1458   25.8880 H   0  0  0  0  0  0
  -20.9331  -29.8748   21.6957 H   0  0  0  0  0  0
  -26.0184  -38.2886   24.1441 H   0  0  0  0  0  0
  -32.9064  -18.3076   22.0058 H   0  0  0  0  0  0
  -28.8022  -18.5087   20.6993 H   0  0  0  0  0  0
  -32.0399  -16.4658   21.2851 H   0  0  0  0  0  0
  -29.0781  -15.8840   20.8242 H   0  0  0  0  0  0
  -32.2884  -22.7932   20.7082 H   0  0  0  0  0  0
  -30.9326  -23.1595   21.7658 H   0  0  0  0  0  0
  -30.7091  -22.8166   20.0330 H   0  0  0  0  0  0
  -35.4290  -21.2737   21.0333 H   0  0  0  0  0  0
  -34.0543  -21.4204   19.9431 H   0  0  0  0  0  0
  -34.6251  -19.8278   20.4311 H   0  0  0  0  0  0
  -33.9614  -20.3019   22.8022 H   0  0  0  0  0  0
  -33.4085  -21.8866   22.3834 H   0  0  0  0  0  0
  -27.9476  -24.4375   22.6145 H   0  0  0  0  0  0
  -26.6995  -25.0095   21.5668 H   0  0  0  0  0  0
  -28.8366  -23.7448   20.0033 H   0  0  0  0  0  0
  -27.1499  -23.4072   19.9827 H   0  0  0  0  0  0
  -29.6872  -25.6980   21.2935 H   0  0  0  0  0  0
  -28.5407  -26.6888   22.1359 H   0  0  0  0  0  0
  -27.2827  -21.8595   21.8526 H   0  0  0  0  0  0
  -28.8962  -22.3271   22.2625 H   0  0  0  0  0  0
  1 25  1  0  0  0
  1 30  2  0  0  0
  1 78  1  0  0  0
  2  3  1  0  0  0
  2 25  1  0  0  0
  2 87  1  0  0  0
  2 88  1  0  0  0
  3  4  1  0  0  0
  3 89  1  0  0  0
  3 90  1  0  0  0
  4  5  1  0  0  0
  4 91  1  0  0  0
  4 92  1  0  0  0
  5  6  1  0  0  0
  5 26  1  0  0  0
  5 93  1  0  0  0
  6 25  1  0  0  0
  6 94  1  0  0  0
  6 95  1  0  0  0
  7  8  2  0  0  0
  7 26  1  0  0  0
  7 29  1  0  0  0
  8  9  1  0  0  0
  8 22  1  0  0  0
  9 10  1  0  0  0
  9 27  2  0  0  0
 10 11  2  0  0  0
 10 15  1  0  0  0
 11 12  1  0  0  0
 11 96  1  0  0  0
 12 13  2  0  0  0
 12 97  1  0  0  0
 13 14  1  0  0  0
 13 31  1  0  0  0
 14 15  2  0  0  0
 14 98  1  0  0  0
 15 99  1  0  0  0
 16 17  2  0  0  0
 16 21  1  0  0  0
 16 31  1  0  0  0
 17 18  1  0  0  0
 17100  1  0  0  0
 18 19  2  0  0  0
 18101  1  0  0  0
 19 20  1  0  0  0
 19 24  1  0  0  0
 20 21  2  0  0  0
 20102  1  0  0  0
 21 23  1  0  0  0
 22 28  1  0  0  0
 22 32  2  0  0  0
 26 27  1  0  0  0
 28103  1  0  0  0
 28104  1  0  0  0
 29105  1  0  0  0
 29106  1  0  0  0
 33 34  1  0  0  0
 33 66  1  0  0  0
 33 70  2  0  0  0
 34 36  1  0  0  0
 34 59  1  0  0  0
 34107  1  0  0  0
 35 44  2  0  0  0
 35 45  1  0  0  0
 35 68  1  0  0  0
 36 56  1  0  0  0
 36108  1  0  0  0
 37 39  1  0  0  0
 37 47  1  0  0  0
 37 66  1  0  0  0
 37109  1  0  0  0
 38 43  2  0  0  0
 38 46  1  0  0  0
 38 47  1  0  0  0
 39 64  1  0  0  0
 39 67  2  0  0  0
 40 52  1  0  0  0
 40 53  2  0  0  0
 40 58  1  0  0  0
 41110  1  0  0  0
 41111  1  0  0  0
 41112  1  0  0  0
 41 48  1  0  0  0
 42 43  1  0  0  0
 42 66  1  0  0  0
 42113  1  0  0  0
 42114  1  0  0  0
 43 44  1  0  0  0
 44115  1  0  0  0
 45 46  2  0  0  0
 45116  1  0  0  0
 46117  1  0  0  0
 47118  1  0  0  0
 47119  1  0  0  0
 48 56  1  0  0  0
 48 65  1  0  0  0
 48120  1  0  0  0
 49 50  1  0  0  0
 49 53  1  0  0  0
 49 64  1  0  0  0
 49121  1  0  0  0
 50 51  1  0  0  0
 50122  1  0  0  0
 50123  1  0  0  0
 51 52  1  0  0  0
 51124  1  0  0  0
 51125  1  0  0  0
 52126  1  0  0  0
 52127  1  0  0  0
 53 54  1  0  0  0
 54 55  2  0  0  0
 54128  1  0  0  0
 55 57  1  0  0  0
 55129  1  0  0  0
 56 69  2  0  0  0
 57 58  2  0  0  0
 57130  1  0  0  0
 58131  1  0  0  0
 59 60  1  0  0  0
 59 61  1  0  0  0
 59 62  1  0  0  0
 60132  1  0  0  0
 60133  1  0  0  0
 60134  1  0  0  0
 61135  1  0  0  0
 61136  1  0  0  0
 61137  1  0  0  0
 62138  1  0  0  0
 62139  1  0  0  0
 62140  1  0  0  0
 63 65  1  0  0  0
 63141  1  0  0  0
 63142  1  0  0  0
 63143  1  0  0  0
 64144  1  0  0  0
 65145  1  0  0  0
 68 84  1  0  0  0
 71 73  2  0  0  0
 71 74  1  0  0  0
 71146  1  0  0  0
 72 73  1  0  0  0
 72 76  2  0  0  0
 72147  1  0  0  0
 73 77  1  0  0  0
 74 75  2  0  0  0
 74 81  1  0  0  0
 75 76  1  0  0  0
 75 79  1  0  0  0
 76 86  1  0  0  0
 77 78  2  0  0  0
 77148  1  0  0  0
 78149  1  0  0  0
 79150  1  0  0  0
 79151  1  0  0  0
 79152  1  0  0  0
 80 81  1  0  0  0
 80153  1  0  0  0
 80154  1  0  0  0
 80155  1  0  0  0
 81156  1  0  0  0
 81157  1  0  0  0
 82 83  1  0  0  0
 82 84  1  0  0  0
 82158  1  0  0  0
 82159  1  0  0  0
 83 85  1  0  0  0
 83160  1  0  0  0
 83161  1  0  0  0
 84162  1  0  0  0
 84163  1  0  0  0
 85 86  1  0  0  0
 85164  1  0  0  0
 85165  1  0  0  0
M  ISO  4   1 100  68 101  78 100  84 101
M  END
> <chiral flag>
0

> <version>
0

> <s_m_source_file>
/data/baiqing/PycharmProjects/Reinvent-master-3.2/result/LINK_invent/BTK/process_docking_weight1_custom_product_contain_oxygen_bond_distance_aromatic_linkinvent_7_9_3/rearranged_h_0122.sdf

> <i_m_source_file_index>
7

> <r_mmod_Potential_Energy-OPLS-2005>
54.1703910827637

> <r_mmod_Stretch_Energy-OPLS-2005>
40.5969314575195

> <r_mmod_Bend_Energy-OPLS-2005>
127.31420135498

> <r_mmod_Torsional_Energy-OPLS-2005>
251.541885375977

> <r_mmod_Improper_Torsional_Energy-OPLS-2005>
8.30165672302246

> <r_mmod_Van_der_Waal_Energy-OPLS-2005>
165.732238769531

> <r_mmod_Electrostatic_Energy-OPLS-2005>
-367.608825683594

> <r_mmod_Solvation_Energy-OPLS-2005>
-193.645477294922

> <b_mmod_Minimization_Converged-OPLS-2005>
0

> <r_mmod_RMS_Derivative-OPLS-2005>
1.86620628833771

$$$$
7
                    3D
 Structure written by MMmdl.
156164  0  0  1  0            999 V2000
  -30.7142  -14.4407   20.5732 C   0  0  0  0  0  0
  -30.4200  -12.2859   19.4182 C   0  0  0  0  0  0
  -29.4928  -12.5032   18.2046 C   0  0  0  0  0  0
  -28.0129  -12.3713   18.6158 C   0  0  0  0  0  0
  -27.6647  -13.2052   19.8782 C   0  0  2  0  0  0
  -28.7060  -12.9700   20.9968 C   0  0  0  0  0  0
  -25.2603  -13.8156   20.5686 C   0  0  0  0  0  0
  -24.1844  -13.0434   20.9171 C   0  0  0  0  0  0
  -24.6389  -11.6898   20.8716 C   0  0  0  0  0  0
  -23.9051  -10.4288   21.0386 C   0  0  0  0  0  0
  -24.3605   -9.4208   21.9171 C   0  0  0  0  0  0
  -23.6286   -8.2241   22.0741 C   0  0  0  0  0  0
  -22.4271   -8.0271   21.3539 C   0  0  0  0  0  0
  -21.9904   -9.0243   20.4638 C   0  0  0  0  0  0
  -22.7222  -10.2127   20.3039 C   0  0  0  0  0  0
  -21.6856   -6.0727   22.5276 C   0  0  0  0  0  0
  -21.4007   -6.5623   23.8208 C   0  0  0  0  0  0
  -21.3654   -5.6777   24.9171 C   0  0  0  0  0  0
  -21.6042   -4.3042   24.7220 C   0  0  0  0  0  0
  -21.8823   -3.8137   23.4340 C   0  0  0  0  0  0
  -21.9195   -4.6958   22.3397 C   0  0  0  0  0  0
  -22.7870  -13.5241   21.1839 C   0  0  0  0  0  0
  -22.1671   -4.2142   21.0975 F   0  0  0  0  0  0
  -21.5627   -3.4519   25.7731 F   0  0  0  0  0  0
  -30.0426  -13.2644   20.4497 N   0  0  0  0  0  0
  -26.3043  -12.9325   20.3381 N   0  0  0  0  0  0
  -25.9321  -11.6485   20.5765 N   0  0  0  0  0  0
  -22.0508  -12.8229   22.0391 N   0  0  0  0  0  0
  -25.4322  -15.1873   20.4112 N   0  0  0  0  0  0
  -31.8335  -14.6219   20.0858 O   0  0  0  0  0  0
  -21.6635   -6.8868   21.4240 O   0  0  0  0  0  0
  -22.3560  -14.5554   20.6688 O   0  0  0  0  0  0
  -24.6119  -31.8686   23.2116 C   0  0  0  0  0  0
  -25.9018  -32.4825   23.8408 C   0  0  1  0  0  0
  -27.2371  -27.4571   20.0927 C   0  0  0  0  0  0
  -25.5892  -33.8621   24.2338 N   0  0  0  0  0  0
  -23.4005  -30.4911   21.5501 C   0  0  2  0  0  0
  -24.8495  -28.9566   20.1169 C   0  0  0  0  0  0
  -22.7403  -29.4653   22.4993 C   0  0  0  0  0  0
  -18.0268  -28.1384   22.8487 C   0  0  0  0  0  0
  -24.1475  -36.7299   23.2640 C   0  0  0  0  0  0
  -25.9267  -30.8405   21.3624 C   0  0  0  0  0  0
  -26.0069  -29.4751   20.7123 C   0  0  0  0  0  0
  -27.2074  -28.7315   20.6987 C   0  0  0  0  0  0
  -26.0682  -26.9430   19.4981 C   0  0  0  0  0  0
  -24.8733  -27.6882   19.5081 C   0  0  0  0  0  0
  -23.6098  -29.8207   20.1655 C   0  0  0  0  0  0
  -25.4097  -36.3113   24.0348 C   0  0  1  0  0  0
  -20.5858  -28.3655   23.1333 C   0  0  2  0  0  0
  -20.6750  -26.9392   22.5435 C   0  0  0  0  0  0
  -19.5744  -26.6389   21.5213 C   0  0  0  0  0  0
  -18.1912  -26.7940   22.1602 C   0  0  0  0  0  0
  -19.1518  -28.8835   23.2908 C   0  0  0  0  0  0
  -18.9448  -30.1444   23.8914 C   0  0  0  0  0  0
  -17.6451  -30.6588   24.0562 C   0  0  0  0  0  0
  -25.9026  -34.9479   23.5139 C   0  0  0  0  0  0
  -16.5339  -29.9092   23.6330 C   0  0  0  0  0  0
  -16.7257  -28.6512   23.0344 C   0  0  0  0  0  0
  -26.4455  -31.6601   25.0726 C   0  0  0  0  0  0
  -25.3737  -31.3729   26.1493 C   0  0  0  0  0  0
  -27.0248  -30.3034   24.6085 C   0  0  0  0  0  0
  -27.6061  -32.4298   25.7463 C   0  0  0  0  0  0
  -27.5583  -37.1791   24.8458 C   0  0  0  0  0  0
  -21.4132  -29.3021   22.3737 N   0  0  0  0  0  0
  -26.4282  -37.3801   23.9429 N   0  0  0  0  0  0
  -24.6641  -31.0805   22.1002 N   0  0  0  0  0  0
  -23.4184  -28.8194   23.3024 O   0  0  0  0  0  0
  -28.3904  -26.7162   20.0591 O   0  0  0  0  0  0
  -26.5580  -34.8934   22.4696 O   0  0  0  0  0  0
  -23.5317  -32.1424   23.7524 O   0  0  0  0  0  0
  -29.6378  -19.0644   21.9394 C   0  0  0  0  0  0
  -29.5424  -17.6592   22.0187 C   0  0  0  0  0  0
  -30.9139  -17.4632   20.0278 C   0  0  0  0  0  0
  -30.3907  -19.6921   20.9196 C   0  0  0  0  0  0
  -31.0135  -18.8711   19.9446 C   0  0  0  0  0  0
  -30.1924  -16.8386   21.0748 C   0  0  0  0  0  0
  -30.5142  -21.1695   20.8697 C   0  0  0  0  0  0
  -29.6683  -22.0687   21.4121 C   0  0  0  0  0  0
  -28.9795  -24.3796   20.5167 C   0  0  0  0  0  0
  -31.7972  -19.4749   18.7891 C   0  0  0  0  0  0
  -29.9095  -23.5745   21.4349 C   0  0  0  0  0  0
  -28.4455  -25.7088   21.0748 C   0  0  0  0  0  0
  -30.0340  -15.4229   21.1941 N   0  0  0  0  0  0
  -28.6855  -23.9845   19.3837 O   0  0  0  0  0  0
  -31.4658  -12.3737   19.1165 H   0  0  0  0  0  0
  -30.3085  -11.2728   19.8067 H   0  0  0  0  0  0
  -29.7257  -11.7843   17.4179 H   0  0  0  0  0  0
  -29.6695  -13.4920   17.7771 H   0  0  0  0  0  0
  -27.8142  -11.3157   18.8055 H   0  0  0  0  0  0
  -27.3646  -12.6566   17.7862 H   0  0  0  0  0  0
  -27.7152  -14.2553   19.5898 H   0  0  0  0  0  0
  -28.6733  -11.9321   21.3309 H   0  0  0  0  0  0
  -28.4695  -13.5631   21.8813 H   0  0  0  0  0  0
  -25.2750   -9.5685   22.4743 H   0  0  0  0  0  0
  -23.9994   -7.4631   22.7459 H   0  0  0  0  0  0
  -21.0833   -8.8749   19.8953 H   0  0  0  0  0  0
  -22.3667  -10.9653   19.6137 H   0  0  0  0  0  0
  -21.1990   -7.6132   23.9705 H   0  0  0  0  0  0
  -21.1471   -6.0506   25.9076 H   0  0  0  0  0  0
  -22.0605   -2.7600   23.2831 H   0  0  0  0  0  0
  -22.4112  -11.9879   22.4765 H   0  0  0  0  0  0
  -21.1126  -13.1269   22.2598 H   0  0  0  0  0  0
  -24.6666  -15.8429   20.5232 H   0  0  0  0  0  0
  -26.2908  -15.6288   20.1057 H   0  0  0  0  0  0
  -26.7092  -32.5554   23.1180 H   0  0  0  0  0  0
  -25.0072  -33.9787   25.0504 H   0  0  0  0  0  0
  -22.6878  -31.3066   21.4103 H   0  0  0  0  0  0
  -23.3767  -35.9601   23.3281 H   0  0  0  0  0  0
  -24.3579  -36.8927   22.2062 H   0  0  0  0  0  0
  -23.7190  -37.6484   23.6656 H   0  0  0  0  0  0
  -26.0375  -31.6066   20.5940 H   0  0  0  0  0  0
  -26.8161  -30.8947   21.9789 H   0  0  0  0  0  0
  -28.1043  -29.1301   21.1520 H   0  0  0  0  0  0
  -26.0874  -25.9702   19.0264 H   0  0  0  0  0  0
  -23.9832  -27.2834   19.0458 H   0  0  0  0  0  0
  -23.7155  -30.5935   19.4027 H   0  0  0  0  0  0
  -22.7362  -29.2355   19.8729 H   0  0  0  0  0  0
  -25.1272  -36.1975   25.0837 H   0  0  0  0  0  0
  -20.9951  -28.3218   24.1455 H   0  0  0  0  0  0
  -20.5640  -26.2263   23.3621 H   0  0  0  0  0  0
  -21.6620  -26.7429   22.1238 H   0  0  0  0  0  0
  -19.6899  -25.6305   21.1236 H   0  0  0  0  0  0
  -19.6712  -27.3202   20.6751 H   0  0  0  0  0  0
  -17.4206  -26.6732   21.3972 H   0  0  0  0  0  0
  -18.0269  -26.0070   22.8978 H   0  0  0  0  0  0
  -19.7921  -30.7248   24.2295 H   0  0  0  0  0  0
  -17.5012  -31.6269   24.5164 H   0  0  0  0  0  0
  -15.5341  -30.2993   23.7656 H   0  0  0  0  0  0
  -15.8658  -28.0842   22.7044 H   0  0  0  0  0  0
  -24.5910  -30.7053   25.7869 H   0  0  0  0  0  0
  -24.8915  -32.2888   26.4921 H   0  0  0  0  0  0
  -25.8109  -30.8940   27.0262 H   0  0  0  0  0  0
  -26.2759  -29.6823   24.1153 H   0  0  0  0  0  0
  -27.4023  -29.7250   25.4527 H   0  0  0  0  0  0
  -27.8605  -30.4338   23.9207 H   0  0  0  0  0  0
  -27.2723  -33.3618   26.2038 H   0  0  0  0  0  0
  -28.3862  -32.6817   25.0266 H   0  0  0  0  0  0
  -28.0727  -31.8409   26.5370 H   0  0  0  0  0  0
  -28.2597  -38.0095   24.7530 H   0  0  0  0  0  0
  -28.1076  -36.2628   24.6225 H   0  0  0  0  0  0
  -27.2320  -37.1386   25.8867 H   0  0  0  0  0  0
  -20.9292  -29.8742   21.6958 H   0  0  0  0  0  0
  -26.0171  -38.2875   24.1468 H   0  0  0  0  0  0
  -29.1455  -19.6561   22.6969 H   0  0  0  0  0  0
  -28.9687  -17.2178   22.8215 H   0  0  0  0  0  0
  -31.3954  -16.8730   19.2622 H   0  0  0  0  0  0
  -31.4023  -21.5527   20.3864 H   0  0  0  0  0  0
  -28.7553  -21.7383   21.8860 H   0  0  0  0  0  0
  -32.0233  -18.7281   18.0273 H   0  0  0  0  0  0
  -32.7425  -19.8872   19.1420 H   0  0  0  0  0  0
  -31.2316  -20.2716   18.3050 H   0  0  0  0  0  0
  -30.9364  -23.7832   21.1371 H   0  0  0  0  0  0
  -29.8006  -23.9276   22.4600 H   0  0  0  0  0  0
  -29.0925  -26.0542   21.8811 H   0  0  0  0  0  0
  -27.4607  -25.5255   21.5077 H   0  0  0  0  0  0
  -29.2175  -15.1124   21.6973 H   0  0  0  0  0  0
  1 25  1  0  0  0
  1 30  2  0  0  0
  1 83  1  0  0  0
  2  3  1  0  0  0
  2 25  1  0  0  0
  2 85  1  0  0  0
  2 86  1  0  0  0
  3  4  1  0  0  0
  3 87  1  0  0  0
  3 88  1  0  0  0
  4  5  1  0  0  0
  4 89  1  0  0  0
  4 90  1  0  0  0
  5  6  1  0  0  0
  5 26  1  0  0  0
  5 91  1  0  0  0
  6 25  1  0  0  0
  6 92  1  0  0  0
  6 93  1  0  0  0
  7  8  2  0  0  0
  7 26  1  0  0  0
  7 29  1  0  0  0
  8  9  1  0  0  0
  8 22  1  0  0  0
  9 10  1  0  0  0
  9 27  2  0  0  0
 10 11  2  0  0  0
 10 15  1  0  0  0
 11 12  1  0  0  0
 11 94  1  0  0  0
 12 13  2  0  0  0
 12 95  1  0  0  0
 13 14  1  0  0  0
 13 31  1  0  0  0
 14 15  2  0  0  0
 14 96  1  0  0  0
 15 97  1  0  0  0
 16 17  2  0  0  0
 16 21  1  0  0  0
 16 31  1  0  0  0
 17 18  1  0  0  0
 17 98  1  0  0  0
 18 19  2  0  0  0
 18 99  1  0  0  0
 19 20  1  0  0  0
 19 24  1  0  0  0
 20 21  2  0  0  0
 20100  1  0  0  0
 21 23  1  0  0  0
 22 28  1  0  0  0
 22 32  2  0  0  0
 26 27  1  0  0  0
 28101  1  0  0  0
 28102  1  0  0  0
 29103  1  0  0  0
 29104  1  0  0  0
 33 34  1  0  0  0
 33 66  1  0  0  0
 33 70  2  0  0  0
 34 36  1  0  0  0
 34 59  1  0  0  0
 34105  1  0  0  0
 35 44  2  0  0  0
 35 45  1  0  0  0
 35 68  1  0  0  0
 36 56  1  0  0  0
 36106  1  0  0  0
 37 39  1  0  0  0
 37 47  1  0  0  0
 37 66  1  0  0  0
 37107  1  0  0  0
 38 43  2  0  0  0
 38 46  1  0  0  0
 38 47  1  0  0  0
 39 64  1  0  0  0
 39 67  2  0  0  0
 40 52  1  0  0  0
 40 53  2  0  0  0
 40 58  1  0  0  0
 41108  1  0  0  0
 41109  1  0  0  0
 41110  1  0  0  0
 41 48  1  0  0  0
 42 43  1  0  0  0
 42 66  1  0  0  0
 42111  1  0  0  0
 42112  1  0  0  0
 43 44  1  0  0  0
 44113  1  0  0  0
 45 46  2  0  0  0
 45114  1  0  0  0
 46115  1  0  0  0
 47116  1  0  0  0
 47117  1  0  0  0
 48 56  1  0  0  0
 48 65  1  0  0  0
 48118  1  0  0  0
 49 50  1  0  0  0
 49 53  1  0  0  0
 49 64  1  0  0  0
 49119  1  0  0  0
 50 51  1  0  0  0
 50120  1  0  0  0
 50121  1  0  0  0
 51 52  1  0  0  0
 51122  1  0  0  0
 51123  1  0  0  0
 52124  1  0  0  0
 52125  1  0  0  0
 53 54  1  0  0  0
 54 55  2  0  0  0
 54126  1  0  0  0
 55 57  1  0  0  0
 55127  1  0  0  0
 56 69  2  0  0  0
 57 58  2  0  0  0
 57128  1  0  0  0
 58129  1  0  0  0
 59 60  1  0  0  0
 59 61  1  0  0  0
 59 62  1  0  0  0
 60130  1  0  0  0
 60131  1  0  0  0
 60132  1  0  0  0
 61133  1  0  0  0
 61134  1  0  0  0
 61135  1  0  0  0
 62136  1  0  0  0
 62137  1  0  0  0
 62138  1  0  0  0
 63 65  1  0  0  0
 63139  1  0  0  0
 63140  1  0  0  0
 63141  1  0  0  0
 64142  1  0  0  0
 65143  1  0  0  0
 68 82  1  0  0  0
 71 72  2  0  0  0
 71 74  1  0  0  0
 71144  1  0  0  0
 72 76  1  0  0  0
 72145  1  0  0  0
 73 75  1  0  0  0
 73 76  2  0  0  0
 73146  1  0  0  0
 74 75  2  0  0  0
 74 77  1  0  0  0
 75 80  1  0  0  0
 76 83  1  0  0  0
 77 78  2  0  0  0
 77147  1  0  0  0
 78 81  1  0  0  0
 78148  1  0  0  0
 79 81  1  0  0  0
 79 82  1  0  0  0
 79 84  2  0  0  0
 80149  1  0  0  0
 80150  1  0  0  0
 80151  1  0  0  0
 81152  1  0  0  0
 81153  1  0  0  0
 82154  1  0  0  0
 82155  1  0  0  0
 83156  1  0  0  0
M  ISO  4   1 100  68 101  82 101  83 100
M  END
> <chiral flag>
0

> <version>
0

> <s_m_source_file>
/data/baiqing/PycharmProjects/Reinvent-master-3.2/result/LINK_invent/BTK/process_docking_weight1_custom_product_contain_oxygen_bond_distance_aromatic_linkinvent_7_9_3/rearranged_h_0122.sdf

> <i_m_source_file_index>
8

> <r_mmod_Potential_Energy-OPLS-2005>
-36.4604911804199

> <r_mmod_Stretch_Energy-OPLS-2005>
35.0620384216309

> <r_mmod_Bend_Energy-OPLS-2005>
91.1471252441406

> <r_mmod_Torsional_Energy-OPLS-2005>
243.594009399414

> <r_mmod_Improper_Torsional_Energy-OPLS-2005>
3.08827567100525

> <r_mmod_Van_der_Waal_Energy-OPLS-2005>
154.925064086914

> <r_mmod_Electrostatic_Energy-OPLS-2005>
-351.747985839844

> <r_mmod_Solvation_Energy-OPLS-2005>
-222.149353027344

> <b_mmod_Minimization_Converged-OPLS-2005>
0

> <r_mmod_RMS_Derivative-OPLS-2005>
1.26484453678131

$$$$
8
                    3D
 Structure written by MMmdl.
163172  0  0  1  0            999 V2000
  -30.6450  -14.7929   20.4297 C   0  0  0  0  0  0
  -30.4315  -12.4697   19.4765 C   0  0  0  0  0  0
  -29.5043  -12.3039   18.2496 C   0  0  0  0  0  0
  -28.0138  -12.2578   18.6444 C   0  0  0  0  0  0
  -27.6173  -13.2201   19.7996 C   0  0  2  0  0  0
  -28.6666  -13.2625   20.9238 C   0  0  0  0  0  0
  -25.2452  -13.8087   20.5747 C   0  0  0  0  0  0
  -24.1786  -13.0353   20.9328 C   0  0  0  0  0  0
  -24.6345  -11.6804   20.8807 C   0  0  0  0  0  0
  -23.9059  -10.4186   21.0433 C   0  0  0  0  0  0
  -24.3565   -9.4067   21.9207 C   0  0  0  0  0  0
  -23.6184   -8.2128   22.0777 C   0  0  0  0  0  0
  -22.4163   -8.0209   21.3561 C   0  0  0  0  0  0
  -21.9833   -9.0210   20.4664 C   0  0  0  0  0  0
  -22.7227  -10.2064   20.3080 C   0  0  0  0  0  0
  -21.6739   -6.0731   22.5338 C   0  0  0  0  0  0
  -21.3932   -6.5636   23.8294 C   0  0  0  0  0  0
  -21.3650   -5.6807   24.9248 C   0  0  0  0  0  0
  -21.6042   -4.3064   24.7304 C   0  0  0  0  0  0
  -21.8795   -3.8148   23.4425 C   0  0  0  0  0  0
  -21.9121   -4.6943   22.3473 C   0  0  0  0  0  0
  -22.7794  -13.5149   21.1972 C   0  0  0  0  0  0
  -22.1597   -4.2138   21.1030 F   0  0  0  0  0  0
  -21.5648   -3.4550   25.7818 F   0  0  0  0  0  0
  -29.9631  -13.5915   20.3307 N   0  0  0  0  0  0
  -26.2844  -12.9303   20.3183 N   0  0  0  0  0  0
  -25.9240  -11.6467   20.5720 N   0  0  0  0  0  0
  -22.0315  -12.8222   22.0472 N   0  0  0  0  0  0
  -25.4078  -15.1820   20.4153 N   0  0  0  0  0  0
  -31.8714  -14.7798   20.3211 O   0  0  0  0  0  0
  -21.6485   -6.8841   21.4285 O   0  0  0  0  0  0
  -22.3586  -14.5480   20.6786 O   0  0  0  0  0  0
  -24.6259  -31.8554   23.1974 C   0  0  0  0  0  0
  -25.9100  -32.4762   23.8363 C   0  0  1  0  0  0
  -27.2370  -27.2868   20.1494 C   0  0  0  0  0  0
  -25.5911  -33.8569   24.2291 N   0  0  0  0  0  0
  -23.4243  -30.4729   21.5414 C   0  0  2  0  0  0
  -24.8764  -28.9112   20.1217 C   0  0  0  0  0  0
  -22.7499  -29.4605   22.4988 C   0  0  0  0  0  0
  -18.0272  -28.1358   22.8476 C   0  0  0  0  0  0
  -24.1479  -36.7246   23.2654 C   0  0  0  0  0  0
  -25.9663  -30.7790   21.3724 C   0  0  0  0  0  0
  -26.0425  -29.3975   20.7255 C   0  0  0  0  0  0
  -27.2303  -28.6029   20.7132 C   0  0  0  0  0  0
  -26.0429  -26.8390   19.5483 C   0  0  0  0  0  0
  -24.8786  -27.6397   19.5207 C   0  0  0  0  0  0
  -23.6438  -29.7975   20.1614 C   0  0  0  0  0  0
  -25.4110  -36.3077   24.0348 C   0  0  1  0  0  0
  -20.5875  -28.3672   23.1276 C   0  0  2  0  0  0
  -20.6763  -26.9394   22.5425 C   0  0  0  0  0  0
  -19.5749  -26.6366   21.5204 C   0  0  0  0  0  0
  -18.1923  -26.7914   22.1610 C   0  0  0  0  0  0
  -19.1524  -28.8839   23.2863 C   0  0  0  0  0  0
  -18.9460  -30.1440   23.8897 C   0  0  0  0  0  0
  -17.6465  -30.6572   24.0543 C   0  0  0  0  0  0
  -25.9040  -34.9450   23.5123 C   0  0  0  0  0  0
  -16.5347  -29.9064   23.6327 C   0  0  0  0  0  0
  -16.7275  -28.6464   23.0381 C   0  0  0  0  0  0
  -26.4499  -31.6565   25.0719 C   0  0  0  0  0  0
  -25.3770  -31.3645   26.1452 C   0  0  0  0  0  0
  -27.0366  -30.3026   24.6122 C   0  0  0  0  0  0
  -27.6092  -32.4294   25.7454 C   0  0  0  0  0  0
  -27.5583  -37.1775   24.8490 C   0  0  0  0  0  0
  -21.4224  -29.3011   22.3681 N   0  0  0  0  0  0
  -26.4302  -37.3771   23.9424 N   0  0  0  0  0  0
  -24.6922  -31.0537   22.0929 N   0  0  0  0  0  0
  -23.4211  -28.8149   23.3088 O   0  0  0  0  0  0
  -28.3966  -26.5029   20.0308 O   0  0  0  0  0  0
  -26.5629  -34.8915   22.4705 O   0  0  0  0  0  0
  -23.5401  -32.1427   23.7239 O   0  0  0  0  0  0
  -29.0529  -17.7586   18.4392 C   0  0  0  0  0  0
  -29.0847  -18.8481   19.3164 C   0  0  0  0  0  0
  -30.0649  -17.3790   20.9972 C   0  0  0  0  0  0
  -29.9880  -16.1975   20.1377 C   0  0  0  0  0  0
  -29.5553  -16.4941   18.8089 C   0  0  0  0  0  0
  -29.6369  -18.7218   20.5978 C   0  0  0  0  0  0
  -29.8884  -20.9064   23.5127 C   0  0  0  0  0  0
  -28.7195  -21.5705   22.7554 C   0  0  0  0  0  0
  -30.6504  -20.0551   22.4909 C   0  0  0  0  0  0
  -28.8897  -21.1986   21.2677 C   0  0  1  0  0  0
  -29.7570  -15.5275   17.6629 C   0  0  0  0  0  0
  -29.4050  -22.5220   20.5047 C   0  0  0  0  0  0
  -28.3895  -23.7506   20.1788 C   0  0  0  0  0  0
  -28.6400  -25.2300   20.7713 C   0  0  0  0  0  0
  -29.7699  -19.9665   21.3342 N   0  0  0  0  0  0
  -31.4594  -12.6170   19.1360 H   0  0  0  0  0  0
  -30.4211  -11.5486   20.0575 H   0  0  0  0  0  0
  -29.7482  -11.3472   17.7888 H   0  0  0  0  0  0
  -29.7165  -13.0044   17.4511 H   0  0  0  0  0  0
  -27.8399  -11.2305   18.9703 H   0  0  0  0  0  0
  -27.3664  -12.3961   17.7755 H   0  0  0  0  0  0
  -27.5686  -14.2119   19.3522 H   0  0  0  0  0  0
  -28.7205  -12.3079   21.4488 H   0  0  0  0  0  0
  -28.3847  -14.0126   21.6624 H   0  0  0  0  0  0
  -25.2716   -9.5459   22.4797 H   0  0  0  0  0  0
  -23.9850   -7.4461   22.7471 H   0  0  0  0  0  0
  -21.0788   -8.8796   19.8905 H   0  0  0  0  0  0
  -22.3755  -10.9644   19.6184 H   0  0  0  0  0  0
  -21.1869   -7.6117   23.9842 H   0  0  0  0  0  0
  -21.1501   -6.0505   25.9203 H   0  0  0  0  0  0
  -22.0536   -2.7601   23.2990 H   0  0  0  0  0  0
  -22.3785  -11.9991   22.5198 H   0  0  0  0  0  0
  -21.0897  -13.1365   22.2342 H   0  0  0  0  0  0
  -24.6142  -15.8076   20.4839 H   0  0  0  0  0  0
  -26.2679  -15.6534   20.1716 H   0  0  0  0  0  0
  -26.7171  -32.5445   23.1121 H   0  0  0  0  0  0
  -25.0085  -33.9723   25.0443 H   0  0  0  0  0  0
  -22.7168  -31.2906   21.3917 H   0  0  0  0  0  0
  -23.3771  -35.9553   23.3348 H   0  0  0  0  0  0
  -24.3586  -36.8821   22.2070 H   0  0  0  0  0  0
  -23.7191  -37.6433   23.6651 H   0  0  0  0  0  0
  -26.1037  -31.5379   20.6012 H   0  0  0  0  0  0
  -26.8455  -30.8304   22.0075 H   0  0  0  0  0  0
  -28.1434  -28.9899   21.1477 H   0  0  0  0  0  0
  -26.0174  -25.8623   19.0842 H   0  0  0  0  0  0
  -23.9870  -27.2627   19.0407 H   0  0  0  0  0  0
  -23.7671  -30.5708   19.4025 H   0  0  0  0  0  0
  -22.7654  -29.2276   19.8577 H   0  0  0  0  0  0
  -25.1280  -36.1953   25.0845 H   0  0  0  0  0  0
  -20.9946  -28.3237   24.1398 H   0  0  0  0  0  0
  -20.5598  -26.2293   23.3629 H   0  0  0  0  0  0
  -21.6637  -26.7381   22.1245 H   0  0  0  0  0  0
  -19.6896  -25.6272   21.1229 H   0  0  0  0  0  0
  -19.6670  -27.3182   20.6744 H   0  0  0  0  0  0
  -17.4189  -26.6668   21.4012 H   0  0  0  0  0  0
  -18.0305  -26.0049   22.9005 H   0  0  0  0  0  0
  -19.7947  -30.7229   24.2288 H   0  0  0  0  0  0
  -17.5025  -31.6258   24.5125 H   0  0  0  0  0  0
  -15.5350  -30.2962   23.7642 H   0  0  0  0  0  0
  -15.8682  -28.0752   22.7152 H   0  0  0  0  0  0
  -24.5961  -30.6965   25.7774 H   0  0  0  0  0  0
  -24.8916  -32.2759   26.4940 H   0  0  0  0  0  0
  -25.8116  -30.8795   27.0197 H   0  0  0  0  0  0
  -26.2929  -29.6743   24.1195 H   0  0  0  0  0  0
  -27.4189  -29.7274   25.4553 H   0  0  0  0  0  0
  -27.8726  -30.4361   23.9270 H   0  0  0  0  0  0
  -27.2765  -33.3618   26.2011 H   0  0  0  0  0  0
  -28.3877  -32.6802   25.0249 H   0  0  0  0  0  0
  -28.0788  -31.8442   26.5355 H   0  0  0  0  0  0
  -28.2611  -38.0062   24.7534 H   0  0  0  0  0  0
  -28.1063  -36.2591   24.6321 H   0  0  0  0  0  0
  -27.2314  -37.1433   25.8900 H   0  0  0  0  0  0
  -20.9422  -29.8739   21.6875 H   0  0  0  0  0  0
  -26.0180  -38.2839   24.1452 H   0  0  0  0  0  0
  -28.7114  -17.9405   17.4264 H   0  0  0  0  0  0
  -28.7740  -19.8137   18.9419 H   0  0  0  0  0  0
  -30.5160  -17.2386   21.9703 H   0  0  0  0  0  0
  -29.5193  -20.2887   24.3316 H   0  0  0  0  0  0
  -30.5530  -21.6552   23.9483 H   0  0  0  0  0  0
  -28.7142  -22.6511   22.9310 H   0  0  0  0  0  0
  -27.7681  -21.1908   23.1262 H   0  0  0  0  0  0
  -30.9529  -19.0963   22.9147 H   0  0  0  0  0  0
  -31.5689  -20.5693   22.2004 H   0  0  0  0  0  0
  -27.9134  -20.9117   20.8650 H   0  0  0  0  0  0
  -29.9595  -16.0618   16.7375 H   0  0  0  0  0  0
  -28.8571  -14.9320   17.5292 H   0  0  0  0  0  0
  -30.6386  -14.9014   17.8109 H   0  0  0  0  0  0
  -29.8104  -22.2053   19.5410 H   0  0  0  0  0  0
  -30.2727  -22.9154   21.0391 H   0  0  0  0  0  0
  -27.3723  -23.4309   20.4169 H   0  0  0  0  0  0
  -28.3775  -23.8598   19.0950 H   0  0  0  0  0  0
  -29.7191  -25.2697   20.9299 H   0  0  0  0  0  0
  -28.2147  -25.2981   21.7707 H   0  0  0  0  0  0
  1 25  1  0  0  0
  1 30  2  0  0  0
  1 74  1  0  0  0
  2  3  1  0  0  0
  2 25  1  0  0  0
  2 86  1  0  0  0
  2 87  1  0  0  0
  3  4  1  0  0  0
  3 88  1  0  0  0
  3 89  1  0  0  0
  4  5  1  0  0  0
  4 90  1  0  0  0
  4 91  1  0  0  0
  5  6  1  0  0  0
  5 26  1  0  0  0
  5 92  1  0  0  0
  6 25  1  0  0  0
  6 93  1  0  0  0
  6 94  1  0  0  0
  7  8  2  0  0  0
  7 26  1  0  0  0
  7 29  1  0  0  0
  8  9  1  0  0  0
  8 22  1  0  0  0
  9 10  1  0  0  0
  9 27  2  0  0  0
 10 11  2  0  0  0
 10 15  1  0  0  0
 11 12  1  0  0  0
 11 95  1  0  0  0
 12 13  2  0  0  0
 12 96  1  0  0  0
 13 14  1  0  0  0
 13 31  1  0  0  0
 14 15  2  0  0  0
 14 97  1  0  0  0
 15 98  1  0  0  0
 16 17  2  0  0  0
 16 21  1  0  0  0
 16 31  1  0  0  0
 17 18  1  0  0  0
 17 99  1  0  0  0
 18 19  2  0  0  0
 18100  1  0  0  0
 19 20  1  0  0  0
 19 24  1  0  0  0
 20 21  2  0  0  0
 20101  1  0  0  0
 21 23  1  0  0  0
 22 28  1  0  0  0
 22 32  2  0  0  0
 26 27  1  0  0  0
 28102  1  0  0  0
 28103  1  0  0  0
 29104  1  0  0  0
 29105  1  0  0  0
 33 34  1  0  0  0
 33 66  1  0  0  0
 33 70  2  0  0  0
 34 36  1  0  0  0
 34 59  1  0  0  0
 34106  1  0  0  0
 35 44  2  0  0  0
 35 45  1  0  0  0
 35 68  1  0  0  0
 36 56  1  0  0  0
 36107  1  0  0  0
 37 39  1  0  0  0
 37 47  1  0  0  0
 37 66  1  0  0  0
 37108  1  0  0  0
 38 43  2  0  0  0
 38 46  1  0  0  0
 38 47  1  0  0  0
 39 64  1  0  0  0
 39 67  2  0  0  0
 40 52  1  0  0  0
 40 53  2  0  0  0
 40 58  1  0  0  0
 41109  1  0  0  0
 41110  1  0  0  0
 41111  1  0  0  0
 41 48  1  0  0  0
 42 43  1  0  0  0
 42 66  1  0  0  0
 42112  1  0  0  0
 42113  1  0  0  0
 43 44  1  0  0  0
 44114  1  0  0  0
 45 46  2  0  0  0
 45115  1  0  0  0
 46116  1  0  0  0
 47117  1  0  0  0
 47118  1  0  0  0
 48 56  1  0  0  0
 48 65  1  0  0  0
 48119  1  0  0  0
 49 50  1  0  0  0
 49 53  1  0  0  0
 49 64  1  0  0  0
 49120  1  0  0  0
 50 51  1  0  0  0
 50121  1  0  0  0
 50122  1  0  0  0
 51 52  1  0  0  0
 51123  1  0  0  0
 51124  1  0  0  0
 52125  1  0  0  0
 52126  1  0  0  0
 53 54  1  0  0  0
 54 55  2  0  0  0
 54127  1  0  0  0
 55 57  1  0  0  0
 55128  1  0  0  0
 56 69  2  0  0  0
 57 58  2  0  0  0
 57129  1  0  0  0
 58130  1  0  0  0
 59 60  1  0  0  0
 59 61  1  0  0  0
 59 62  1  0  0  0
 60131  1  0  0  0
 60132  1  0  0  0
 60133  1  0  0  0
 61134  1  0  0  0
 61135  1  0  0  0
 61136  1  0  0  0
 62137  1  0  0  0
 62138  1  0  0  0
 62139  1  0  0  0
 63 65  1  0  0  0
 63140  1  0  0  0
 63141  1  0  0  0
 63142  1  0  0  0
 64143  1  0  0  0
 65144  1  0  0  0
 68 84  1  0  0  0
 71 72  2  0  0  0
 71 75  1  0  0  0
 71145  1  0  0  0
 72 76  1  0  0  0
 72146  1  0  0  0
 73 74  1  0  0  0
 73 76  2  0  0  0
 73147  1  0  0  0
 74 75  2  0  0  0
 75 81  1  0  0  0
 76 85  1  0  0  0
 77 78  1  0  0  0
 77 79  1  0  0  0
 77148  1  0  0  0
 77149  1  0  0  0
 78 80  1  0  0  0
 78150  1  0  0  0
 78151  1  0  0  0
 79 85  1  0  0  0
 79152  1  0  0  0
 79153  1  0  0  0
 80 82  1  0  0  0
 80 85  1  0  0  0
 80154  1  0  0  0
 81155  1  0  0  0
 81156  1  0  0  0
 81157  1  0  0  0
 82 83  1  0  0  0
 82158  1  0  0  0
 82159  1  0  0  0
 83 84  1  0  0  0
 83160  1  0  0  0
 83161  1  0  0  0
 84162  1  0  0  0
 84163  1  0  0  0
M  ISO  4   1 100  68 101  74 100  84 101
M  END
> <chiral flag>
0

> <version>
0

> <s_m_source_file>
/data/baiqing/PycharmProjects/Reinvent-master-3.2/result/LINK_invent/BTK/process_docking_weight1_custom_product_contain_oxygen_bond_distance_aromatic_linkinvent_7_9_3/rearranged_h_0122.sdf

> <i_m_source_file_index>
9

> <r_mmod_Potential_Energy-OPLS-2005>
430.434509277344

> <r_mmod_Stretch_Energy-OPLS-2005>
123.696273803711

> <r_mmod_Bend_Energy-OPLS-2005>
238.436386108398

> <r_mmod_Torsional_Energy-OPLS-2005>
355.156036376953

> <r_mmod_Improper_Torsional_Energy-OPLS-2005>
18.6435356140137

> <r_mmod_Van_der_Waal_Energy-OPLS-2005>
133.457672119141

> <r_mmod_Electrostatic_Energy-OPLS-2005>
-341.903717041016

> <r_mmod_Solvation_Energy-OPLS-2005>
-198.863433837891

> <b_mmod_Minimization_Converged-OPLS-2005>
0

> <r_mmod_RMS_Derivative-OPLS-2005>
8.32400321960449

$$$$
9
                    3D
 Structure written by MMmdl.
159167  0  0  1  0            999 V2000
  -30.7593  -14.4220   20.6503 C   0  0  0  0  0  0
  -30.4143  -12.3048   19.4281 C   0  0  0  0  0  0
  -29.4930  -12.5161   18.2103 C   0  0  0  0  0  0
  -28.0156  -12.3616   18.6180 C   0  0  0  0  0  0
  -27.6611  -13.2025   19.8726 C   0  0  2  0  0  0
  -28.6916  -12.9712   20.9984 C   0  0  0  0  0  0
  -25.2591  -13.8156   20.5650 C   0  0  0  0  0  0
  -24.1838  -13.0450   20.9154 C   0  0  0  0  0  0
  -24.6380  -11.6908   20.8716 C   0  0  0  0  0  0
  -23.9050  -10.4299   21.0399 C   0  0  0  0  0  0
  -24.3603   -9.4215   21.9177 C   0  0  0  0  0  0
  -23.6281   -8.2251   22.0757 C   0  0  0  0  0  0
  -22.4261   -8.0285   21.3550 C   0  0  0  0  0  0
  -21.9894   -9.0254   20.4649 C   0  0  0  0  0  0
  -22.7222  -10.2134   20.3051 C   0  0  0  0  0  0
  -21.6852   -6.0735   22.5282 C   0  0  0  0  0  0
  -21.4011   -6.5633   23.8216 C   0  0  0  0  0  0
  -21.3657   -5.6785   24.9175 C   0  0  0  0  0  0
  -21.6047   -4.3049   24.7227 C   0  0  0  0  0  0
  -21.8820   -3.8142   23.4345 C   0  0  0  0  0  0
  -21.9191   -4.6962   22.3400 C   0  0  0  0  0  0
  -22.7868  -13.5256   21.1839 C   0  0  0  0  0  0
  -22.1659   -4.2149   21.0979 F   0  0  0  0  0  0
  -21.5629   -3.4536   25.7739 F   0  0  0  0  0  0
  -30.0365  -13.2751   20.4723 N   0  0  0  0  0  0
  -26.3008  -12.9317   20.3312 N   0  0  0  0  0  0
  -25.9295  -11.6484   20.5715 N   0  0  0  0  0  0
  -22.0514  -12.8246   22.0391 N   0  0  0  0  0  0
  -25.4365  -15.1873   20.4076 N   0  0  0  0  0  0
  -31.7988  -14.6464   20.0212 O   0  0  0  0  0  0
  -21.6636   -6.8876   21.4242 O   0  0  0  0  0  0
  -22.3562  -14.5577   20.6705 O   0  0  0  0  0  0
  -24.6149  -31.8639   23.2140 C   0  0  0  0  0  0
  -25.9048  -32.4790   23.8407 C   0  0  1  0  0  0
  -27.2348  -27.4284   20.0900 C   0  0  0  0  0  0
  -25.5904  -33.8592   24.2331 N   0  0  0  0  0  0
  -23.4009  -30.4907   21.5511 C   0  0  2  0  0  0
  -24.8450  -28.9520   20.1183 C   0  0  0  0  0  0
  -22.7394  -29.4641   22.4982 C   0  0  0  0  0  0
  -18.0267  -28.1364   22.8497 C   0  0  0  0  0  0
  -24.1485  -36.7323   23.2642 C   0  0  0  0  0  0
  -25.9304  -30.8266   21.3673 C   0  0  0  0  0  0
  -26.0045  -29.4608   20.7133 C   0  0  0  0  0  0
  -27.1969  -28.7044   20.6989 C   0  0  0  0  0  0
  -26.0456  -26.9205   19.5150 C   0  0  0  0  0  0
  -24.8592  -27.6794   19.5208 C   0  0  0  0  0  0
  -23.6100  -29.8234   20.1648 C   0  0  0  0  0  0
  -25.4098  -36.3087   24.0334 C   0  0  1  0  0  0
  -20.5849  -28.3648   23.1324 C   0  0  2  0  0  0
  -20.6754  -26.9382   22.5414 C   0  0  0  0  0  0
  -19.5736  -26.6386   21.5202 C   0  0  0  0  0  0
  -18.1913  -26.7922   22.1608 C   0  0  0  0  0  0
  -19.1513  -28.8825   23.2910 C   0  0  0  0  0  0
  -18.9452  -30.1439   23.8918 C   0  0  0  0  0  0
  -17.6450  -30.6577   24.0568 C   0  0  0  0  0  0
  -25.9025  -34.9450   23.5123 C   0  0  0  0  0  0
  -16.5340  -29.9074   23.6337 C   0  0  0  0  0  0
  -16.7255  -28.6487   23.0363 C   0  0  0  0  0  0
  -26.4502  -31.6584   25.0741 C   0  0  0  0  0  0
  -25.3821  -31.3654   26.1534 C   0  0  0  0  0  0
  -27.0339  -30.3022   24.6122 C   0  0  0  0  0  0
  -27.6046  -32.4359   25.7491 C   0  0  0  0  0  0
  -27.5576  -37.1795   24.8449 C   0  0  0  0  0  0
  -21.4122  -29.3024   22.3731 N   0  0  0  0  0  0
  -26.4274  -37.3791   23.9421 N   0  0  0  0  0  0
  -24.6672  -31.0751   22.1023 N   0  0  0  0  0  0
  -23.4170  -28.8183   23.3021 O   0  0  0  0  0  0
  -28.4334  -26.7415   20.0959 O   0  0  0  0  0  0
  -26.5577  -34.8901   22.4679 O   0  0  0  0  0  0
  -23.5350  -32.1384   23.7562 O   0  0  0  0  0  0
  -30.9759  -17.5206   20.4626 C   0  0  0  0  0  0
  -28.6880  -18.9322   21.2189 C   0  0  0  0  0  0
  -30.0182  -16.8416   21.2579 C   0  0  0  0  0  0
  -28.8602  -17.5911   21.6474 C   0  0  0  0  0  0
  -29.6567  -19.5861   20.4244 C   0  0  0  0  0  0
  -30.8018  -18.8559   20.0540 C   0  0  0  0  0  0
  -28.4404  -24.2672   20.1388 C   0  0  0  0  0  0
  -28.5320  -23.0322   19.6047 C   0  0  0  0  0  0
  -30.2880  -15.4248   21.7147 C   0  0  0  0  0  0
  -28.0043  -17.4943   24.0204 C   0  0  0  0  0  0
  -27.7785  -17.0399   22.5709 C   0  0  0  0  0  0
  -28.6015  -25.5456   19.3240 C   0  0  0  0  0  0
  -28.4461  -21.7024   20.3438 C   0  0  0  0  0  0
  -30.1575  -15.0845   22.9302 N   0  0  0  0  0  0
  -29.5735  -20.8991   19.9944 O   0  0  0  0  0  0
  -31.7629  -19.4505   19.3054 F   0  0  0  0  0  0
  -31.4604  -12.3891   19.1302 H   0  0  0  0  0  0
  -30.3057  -11.2908   19.8149 H   0  0  0  0  0  0
  -29.7407  -11.7997   17.4257 H   0  0  0  0  0  0
  -29.6590  -13.5077   17.7855 H   0  0  0  0  0  0
  -27.8384  -11.3038   18.8196 H   0  0  0  0  0  0
  -27.3629  -12.6257   17.7843 H   0  0  0  0  0  0
  -27.7130  -14.2518   19.5815 H   0  0  0  0  0  0
  -28.6607  -11.9321   21.3298 H   0  0  0  0  0  0
  -28.4082  -13.5535   21.8728 H   0  0  0  0  0  0
  -25.2757   -9.5694   22.4741 H   0  0  0  0  0  0
  -23.9996   -7.4649   22.7480 H   0  0  0  0  0  0
  -21.0827   -8.8769   19.8958 H   0  0  0  0  0  0
  -22.3687  -10.9663   19.6151 H   0  0  0  0  0  0
  -21.2003   -7.6145   23.9719 H   0  0  0  0  0  0
  -21.1475   -6.0516   25.9079 H   0  0  0  0  0  0
  -22.0599   -2.7607   23.2848 H   0  0  0  0  0  0
  -22.4120  -11.9879   22.4731 H   0  0  0  0  0  0
  -21.1143  -13.1285   22.2634 H   0  0  0  0  0  0
  -24.6743  -15.8473   20.5139 H   0  0  0  0  0  0
  -26.2933  -15.6187   20.0847 H   0  0  0  0  0  0
  -26.7105  -32.5484   23.1149 H   0  0  0  0  0  0
  -25.0097  -33.9731   25.0500 H   0  0  0  0  0  0
  -22.6923  -31.3099   21.4114 H   0  0  0  0  0  0
  -23.3732  -35.9673   23.3283 H   0  0  0  0  0  0
  -24.3592  -36.8988   22.2066 H   0  0  0  0  0  0
  -23.7258  -37.6526   23.6678 H   0  0  0  0  0  0
  -26.0502  -31.5933   20.6018 H   0  0  0  0  0  0
  -26.8169  -30.8721   21.9884 H   0  0  0  0  0  0
  -28.0965  -29.0976   21.1521 H   0  0  0  0  0  0
  -26.0098  -25.9384   19.0691 H   0  0  0  0  0  0
  -23.9609  -27.2729   19.0759 H   0  0  0  0  0  0
  -23.7285  -30.6004   19.4087 H   0  0  0  0  0  0
  -22.7314  -29.2487   19.8638 H   0  0  0  0  0  0
  -25.1273  -36.1934   25.0826 H   0  0  0  0  0  0
  -20.9954  -28.3212   24.1432 H   0  0  0  0  0  0
  -20.5658  -26.2247   23.3599 H   0  0  0  0  0  0
  -21.6628  -26.7423   22.1197 H   0  0  0  0  0  0
  -19.6906  -25.6303   21.1215 H   0  0  0  0  0  0
  -19.6700  -27.3219   20.6741 H   0  0  0  0  0  0
  -17.4188  -26.6713   21.3985 H   0  0  0  0  0  0
  -18.0304  -26.0033   22.8970 H   0  0  0  0  0  0
  -19.7921  -30.7261   24.2292 H   0  0  0  0  0  0
  -17.4989  -31.6256   24.5175 H   0  0  0  0  0  0
  -15.5342  -30.2973   23.7649 H   0  0  0  0  0  0
  -15.8653  -28.0806   22.7074 H   0  0  0  0  0  0
  -24.6010  -30.6940   25.7932 H   0  0  0  0  0  0
  -24.8993  -32.2782   26.5021 H   0  0  0  0  0  0
  -25.8272  -30.8849   27.0259 H   0  0  0  0  0  0
  -26.2844  -29.6739   24.1282 H   0  0  0  0  0  0
  -27.4214  -29.7297   25.4564 H   0  0  0  0  0  0
  -27.8645  -30.4336   23.9185 H   0  0  0  0  0  0
  -27.2614  -33.3651   26.2046 H   0  0  0  0  0  0
  -28.3846  -32.6957   25.0320 H   0  0  0  0  0  0
  -28.0720  -31.8524   26.5434 H   0  0  0  0  0  0
  -28.2546  -38.0131   24.7539 H   0  0  0  0  0  0
  -28.1118  -36.2665   24.6207 H   0  0  0  0  0  0
  -27.2301  -37.1374   25.8851 H   0  0  0  0  0  0
  -20.9277  -29.8763   21.6971 H   0  0  0  0  0  0
  -26.0152  -38.2854   24.1473 H   0  0  0  0  0  0
  -31.8947  -17.0393   20.1667 H   0  0  0  0  0  0
  -27.8014  -19.4608   21.5366 H   0  0  0  0  0  0
  -28.2711  -24.3889   21.2000 H   0  0  0  0  0  0
  -28.6952  -22.9449   18.5391 H   0  0  0  0  0  0
  -27.2554  -17.0696   24.6874 H   0  0  0  0  0  0
  -27.9427  -18.5798   24.1026 H   0  0  0  0  0  0
  -28.9853  -17.1976   24.3910 H   0  0  0  0  0  0
  -27.7004  -15.9551   22.5098 H   0  0  0  0  0  0
  -26.8074  -17.4053   22.2325 H   0  0  0  0  0  0
  -28.0025  -25.5148   18.4148 H   0  0  0  0  0  0
  -29.6336  -25.5588   18.9729 H   0  0  0  0  0  0
  -27.5192  -21.2086   20.0462 H   0  0  0  0  0  0
  -28.4126  -21.8664   21.4226 H   0  0  0  0  0  0
  -29.8454  -15.8695   23.4874 H   0  0  0  0  0  0
  1 25  1  0  0  0
  1 30  2  0  0  0
  1 79  1  0  0  0
  2  3  1  0  0  0
  2 25  1  0  0  0
  2 87  1  0  0  0
  2 88  1  0  0  0
  3  4  1  0  0  0
  3 89  1  0  0  0
  3 90  1  0  0  0
  4  5  1  0  0  0
  4 91  1  0  0  0
  4 92  1  0  0  0
  5  6  1  0  0  0
  5 26  1  0  0  0
  5 93  1  0  0  0
  6 25  1  0  0  0
  6 94  1  0  0  0
  6 95  1  0  0  0
  7  8  2  0  0  0
  7 26  1  0  0  0
  7 29  1  0  0  0
  8  9  1  0  0  0
  8 22  1  0  0  0
  9 10  1  0  0  0
  9 27  2  0  0  0
 10 11  2  0  0  0
 10 15  1  0  0  0
 11 12  1  0  0  0
 11 96  1  0  0  0
 12 13  2  0  0  0
 12 97  1  0  0  0
 13 14  1  0  0  0
 13 31  1  0  0  0
 14 15  2  0  0  0
 14 98  1  0  0  0
 15 99  1  0  0  0
 16 17  2  0  0  0
 16 21  1  0  0  0
 16 31  1  0  0  0
 17 18  1  0  0  0
 17100  1  0  0  0
 18 19  2  0  0  0
 18101  1  0  0  0
 19 20  1  0  0  0
 19 24  1  0  0  0
 20 21  2  0  0  0
 20102  1  0  0  0
 21 23  1  0  0  0
 22 28  1  0  0  0
 22 32  2  0  0  0
 26 27  1  0  0  0
 28103  1  0  0  0
 28104  1  0  0  0
 29105  1  0  0  0
 29106  1  0  0  0
 33 34  1  0  0  0
 33 66  1  0  0  0
 33 70  2  0  0  0
 34 36  1  0  0  0
 34 59  1  0  0  0
 34107  1  0  0  0
 35 44  2  0  0  0
 35 45  1  0  0  0
 35 68  1  0  0  0
 36 56  1  0  0  0
 36108  1  0  0  0
 37 39  1  0  0  0
 37 47  1  0  0  0
 37 66  1  0  0  0
 37109  1  0  0  0
 38 43  2  0  0  0
 38 46  1  0  0  0
 38 47  1  0  0  0
 39 64  1  0  0  0
 39 67  2  0  0  0
 40 52  1  0  0  0
 40 53  2  0  0  0
 40 58  1  0  0  0
 41110  1  0  0  0
 41111  1  0  0  0
 41112  1  0  0  0
 41 48  1  0  0  0
 42 43  1  0  0  0
 42 66  1  0  0  0
 42113  1  0  0  0
 42114  1  0  0  0
 43 44  1  0  0  0
 44115  1  0  0  0
 45 46  2  0  0  0
 45116  1  0  0  0
 46117  1  0  0  0
 47118  1  0  0  0
 47119  1  0  0  0
 48 56  1  0  0  0
 48 65  1  0  0  0
 48120  1  0  0  0
 49 50  1  0  0  0
 49 53  1  0  0  0
 49 64  1  0  0  0
 49121  1  0  0  0
 50 51  1  0  0  0
 50122  1  0  0  0
 50123  1  0  0  0
 51 52  1  0  0  0
 51124  1  0  0  0
 51125  1  0  0  0
 52126  1  0  0  0
 52127  1  0  0  0
 53 54  1  0  0  0
 54 55  2  0  0  0
 54128  1  0  0  0
 55 57  1  0  0  0
 55129  1  0  0  0
 56 69  2  0  0  0
 57 58  2  0  0  0
 57130  1  0  0  0
 58131  1  0  0  0
 59 60  1  0  0  0
 59 61  1  0  0  0
 59 62  1  0  0  0
 60132  1  0  0  0
 60133  1  0  0  0
 60134  1  0  0  0
 61135  1  0  0  0
 61136  1  0  0  0
 61137  1  0  0  0
 62138  1  0  0  0
 62139  1  0  0  0
 62140  1  0  0  0
 63 65  1  0  0  0
 63141  1  0  0  0
 63142  1  0  0  0
 63143  1  0  0  0
 64144  1  0  0  0
 65145  1  0  0  0
 68 82  1  0  0  0
 71 73  2  0  0  0
 71 76  1  0  0  0
 71146  1  0  0  0
 72 74  2  0  0  0
 72 75  1  0  0  0
 72147  1  0  0  0
 73 74  1  0  0  0
 73 79  1  0  0  0
 74 81  1  0  0  0
 75 76  2  0  0  0
 75 85  1  0  0  0
 76 86  1  0  0  0
 77 78  2  0  0  0
 77 82  1  0  0  0
 77148  1  0  0  0
 78 83  1  0  0  0
 78149  1  0  0  0
 79 84  2  0  0  0
 80 81  1  0  0  0
 80150  1  0  0  0
 80151  1  0  0  0
 80152  1  0  0  0
 81153  1  0  0  0
 81154  1  0  0  0
 82155  1  0  0  0
 82156  1  0  0  0
 83 85  1  0  0  0
 83157  1  0  0  0
 83158  1  0  0  0
 84159  1  0  0  0
M  ISO  4   1 100  68 101  79 100  82 101
M  END
> <chiral flag>
0

> <version>
0

> <s_m_source_file>
/data/baiqing/PycharmProjects/Reinvent-master-3.2/result/LINK_invent/BTK/process_docking_weight1_custom_product_contain_oxygen_bond_distance_aromatic_linkinvent_7_9_3/rearranged_h_0122.sdf

> <i_m_source_file_index>
10

> <r_mmod_Potential_Energy-OPLS-2005>
122.124885559082

> <r_mmod_Stretch_Energy-OPLS-2005>
44.0185127258301

> <r_mmod_Bend_Energy-OPLS-2005>
120.45858001709

> <r_mmod_Torsional_Energy-OPLS-2005>
201.980056762695

> <r_mmod_Improper_Torsional_Energy-OPLS-2005>
2.33793997764587

> <r_mmod_Van_der_Waal_Energy-OPLS-2005>
159.025482177734

> <r_mmod_Electrostatic_Energy-OPLS-2005>
-224.025772094727

> <r_mmod_Solvation_Energy-OPLS-2005>
-191.891006469727

> <b_mmod_Minimization_Converged-OPLS-2005>
0

> <r_mmod_RMS_Derivative-OPLS-2005>
2.23355078697205

$$$$
10
                    3D
 Structure written by MMmdl.
166174  0  0  1  0            999 V2000
  -30.7071  -14.3994   20.6582 C   0  0  0  0  0  0
  -30.4306  -12.2949   19.3841 C   0  0  0  0  0  0
  -29.4854  -12.5308   18.1881 C   0  0  0  0  0  0
  -28.0072  -12.3883   18.6048 C   0  0  0  0  0  0
  -27.6697  -13.1970   19.8830 C   0  0  2  0  0  0
  -28.7092  -12.9017   20.9857 C   0  0  0  0  0  0
  -25.2619  -13.8166   20.5674 C   0  0  0  0  0  0
  -24.1862  -13.0447   20.9178 C   0  0  0  0  0  0
  -24.6409  -11.6914   20.8752 C   0  0  0  0  0  0
  -23.9077  -10.4294   21.0419 C   0  0  0  0  0  0
  -24.3623   -9.4198   21.9198 C   0  0  0  0  0  0
  -23.6292   -8.2237   22.0755 C   0  0  0  0  0  0
  -22.4275   -8.0288   21.3542 C   0  0  0  0  0  0
  -21.9918   -9.0270   20.4646 C   0  0  0  0  0  0
  -22.7251  -10.2148   20.3057 C   0  0  0  0  0  0
  -21.6853   -6.0747   22.5289 C   0  0  0  0  0  0
  -21.4004   -6.5649   23.8225 C   0  0  0  0  0  0
  -21.3653   -5.6792   24.9185 C   0  0  0  0  0  0
  -21.6045   -4.3056   24.7230 C   0  0  0  0  0  0
  -21.8813   -3.8157   23.4347 C   0  0  0  0  0  0
  -21.9182   -4.6975   22.3407 C   0  0  0  0  0  0
  -22.7881  -13.5241   21.1852 C   0  0  0  0  0  0
  -22.1655   -4.2165   21.0982 F   0  0  0  0  0  0
  -21.5631   -3.4535   25.7737 F   0  0  0  0  0  0
  -30.0520  -13.2241   20.4591 N   0  0  0  0  0  0
  -26.3064  -12.9320   20.3395 N   0  0  0  0  0  0
  -25.9330  -11.6485   20.5780 N   0  0  0  0  0  0
  -22.0506  -12.8233   22.0402 N   0  0  0  0  0  0
  -25.4379  -15.1881   20.4100 N   0  0  0  0  0  0
  -31.7236  -14.7311   20.0385 O   0  0  0  0  0  0
  -21.6626   -6.8895   21.4252 O   0  0  0  0  0  0
  -22.3556  -14.5537   20.6693 O   0  0  0  0  0  0
  -24.6136  -31.8668   23.2060 C   0  0  0  0  0  0
  -25.9026  -32.4820   23.8353 C   0  0  1  0  0  0
  -27.2425  -27.4288   20.0711 C   0  0  0  0  0  0
  -25.5895  -33.8613   24.2281 N   0  0  0  0  0  0
  -23.4052  -30.4898   21.5460 C   0  0  2  0  0  0
  -24.8500  -28.9518   20.1086 C   0  0  0  0  0  0
  -22.7437  -29.4645   22.4950 C   0  0  0  0  0  0
  -18.0289  -28.1386   22.8516 C   0  0  0  0  0  0
  -24.1500  -36.7275   23.2647 C   0  0  0  0  0  0
  -25.9341  -30.8239   21.3647 C   0  0  0  0  0  0
  -26.0086  -29.4577   20.7086 C   0  0  0  0  0  0
  -27.2008  -28.7007   20.6942 C   0  0  0  0  0  0
  -26.0608  -26.9321   19.4776 C   0  0  0  0  0  0
  -24.8709  -27.6864   19.4948 C   0  0  0  0  0  0
  -23.6136  -29.8210   20.1611 C   0  0  0  0  0  0
  -25.4127  -36.3100   24.0353 C   0  0  1  0  0  0
  -20.5886  -28.3675   23.1313 C   0  0  2  0  0  0
  -20.6792  -26.9410   22.5411 C   0  0  0  0  0  0
  -19.5758  -26.6381   21.5228 C   0  0  0  0  0  0
  -18.1931  -26.7934   22.1628 C   0  0  0  0  0  0
  -19.1545  -28.8845   23.2912 C   0  0  0  0  0  0
  -18.9477  -30.1453   23.8928 C   0  0  0  0  0  0
  -17.6476  -30.6598   24.0568 C   0  0  0  0  0  0
  -25.9045  -34.9471   23.5100 C   0  0  0  0  0  0
  -16.5365  -29.9112   23.6322 C   0  0  0  0  0  0
  -16.7277  -28.6520   23.0363 C   0  0  0  0  0  0
  -26.4462  -31.6611   25.0686 C   0  0  0  0  0  0
  -25.3725  -31.3757   26.1433 C   0  0  0  0  0  0
  -27.0277  -30.3054   24.6049 C   0  0  0  0  0  0
  -27.6029  -32.4361   25.7442 C   0  0  0  0  0  0
  -27.5600  -37.1794   24.8484 C   0  0  0  0  0  0
  -21.4161  -29.3033   22.3707 N   0  0  0  0  0  0
  -26.4306  -37.3793   23.9441 N   0  0  0  0  0  0
  -24.6692  -31.0751   22.0963 N   0  0  0  0  0  0
  -23.4208  -28.8158   23.2964 O   0  0  0  0  0  0
  -28.4267  -26.7169   20.0958 O   0  0  0  0  0  0
  -26.5597  -34.8943   22.4663 O   0  0  0  0  0  0
  -23.5329  -32.1417   23.7450 O   0  0  0  0  0  0
  -30.1016  -17.4916   20.8521 C   0  0  0  0  0  0
  -30.1338  -18.3347   23.5175 C   0  0  0  0  0  0
  -29.9575  -18.8786   21.1281 C   0  0  0  0  0  0
  -29.9971  -19.2956   22.4932 C   0  0  0  0  0  0
  -30.2208  -16.9618   23.2330 C   0  0  0  0  0  0
  -30.2230  -16.5316   21.8902 C   0  0  0  0  0  0
  -29.6849  -19.7697   19.9611 C   0  0  0  0  0  0
  -29.0063  -20.9403   19.9165 C   0  0  0  0  0  0
  -30.2919  -15.9616   24.3785 C   0  0  0  0  0  0
  -28.5268  -21.1144   23.4853 C   0  0  0  0  0  0
  -29.9203  -20.7466   22.9470 C   0  0  0  0  0  0
  -28.7558  -21.7542   18.6544 C   0  0  0  0  0  0
  -29.2424  -23.2263   18.6897 C   0  0  0  0  0  0
  -28.4266  -24.2391   19.5419 C   0  0  0  0  0  0
  -28.7001  -25.7074   19.1098 C   0  0  0  0  0  0
  -30.1904  -15.1296   21.6545 N   0  0  0  0  0  0
  -31.4705  -12.4207   19.0763 H   0  0  0  0  0  0
  -30.3492  -11.2649   19.7367 H   0  0  0  0  0  0
  -29.7143  -11.8317   17.3823 H   0  0  0  0  0  0
  -29.6527  -13.5299   17.7838 H   0  0  0  0  0  0
  -27.8043  -11.3305   18.7730 H   0  0  0  0  0  0
  -27.3549  -12.6945   17.7853 H   0  0  0  0  0  0
  -27.7373  -14.2548   19.6273 H   0  0  0  0  0  0
  -28.6767  -11.8437   21.2508 H   0  0  0  0  0  0
  -28.4478  -13.4245   21.9055 H   0  0  0  0  0  0
  -25.2778   -9.5668   22.4765 H   0  0  0  0  0  0
  -24.0009   -7.4617   22.7464 H   0  0  0  0  0  0
  -21.0853   -8.8799   19.8945 H   0  0  0  0  0  0
  -22.3733  -10.9691   19.6157 H   0  0  0  0  0  0
  -21.1984   -7.6153   23.9738 H   0  0  0  0  0  0
  -21.1484   -6.0518   25.9090 H   0  0  0  0  0  0
  -22.0591   -2.7619   23.2842 H   0  0  0  0  0  0
  -22.4099  -11.9882   22.4788 H   0  0  0  0  0  0
  -21.1132  -13.1283   22.2601 H   0  0  0  0  0  0
  -24.6850  -15.8553   20.5342 H   0  0  0  0  0  0
  -26.3048  -15.6232   20.1189 H   0  0  0  0  0  0
  -26.7090  -32.5512   23.1097 H   0  0  0  0  0  0
  -25.0139  -33.9784   25.0485 H   0  0  0  0  0  0
  -22.6940  -31.3061   21.4029 H   0  0  0  0  0  0
  -23.3795  -35.9576   23.3314 H   0  0  0  0  0  0
  -24.3590  -36.8828   22.2047 H   0  0  0  0  0  0
  -23.7203  -37.6473   23.6637 H   0  0  0  0  0  0
  -26.0608  -31.5925   20.6011 H   0  0  0  0  0  0
  -26.8164  -30.8684   21.9897 H   0  0  0  0  0  0
  -28.0953  -29.0913   21.1574 H   0  0  0  0  0  0
  -26.0396  -25.9600   19.0095 H   0  0  0  0  0  0
  -23.9789  -27.2883   19.0300 H   0  0  0  0  0  0
  -23.7316  -30.5978   19.4040 H   0  0  0  0  0  0
  -22.7362  -29.2449   19.8615 H   0  0  0  0  0  0
  -25.1302  -36.1953   25.0843 H   0  0  0  0  0  0
  -21.0014  -28.3232   24.1416 H   0  0  0  0  0  0
  -20.5728  -26.2283   23.3599 H   0  0  0  0  0  0
  -21.6656  -26.7464   22.1164 H   0  0  0  0  0  0
  -19.6949  -25.6298   21.1244 H   0  0  0  0  0  0
  -19.6710  -27.3217   20.6783 H   0  0  0  0  0  0
  -17.4220  -26.6703   21.4011 H   0  0  0  0  0  0
  -18.0312  -26.0062   22.9005 H   0  0  0  0  0  0
  -19.7954  -30.7255   24.2316 H   0  0  0  0  0  0
  -17.5045  -31.6293   24.5140 H   0  0  0  0  0  0
  -15.5372  -30.3035   23.7651 H   0  0  0  0  0  0
  -15.8658  -28.0854   22.7073 H   0  0  0  0  0  0
  -24.5919  -30.7073   25.7778 H   0  0  0  0  0  0
  -24.8910  -32.2936   26.4824 H   0  0  0  0  0  0
  -25.8064  -30.8982   27.0220 H   0  0  0  0  0  0
  -26.2806  -29.6822   24.1126 H   0  0  0  0  0  0
  -27.4085  -29.7271   25.4469 H   0  0  0  0  0  0
  -27.8631  -30.4367   23.9172 H   0  0  0  0  0  0
  -27.2648  -33.3686   26.1985 H   0  0  0  0  0  0
  -28.3855  -32.6874   25.0270 H   0  0  0  0  0  0
  -28.0703  -31.8515   26.5367 H   0  0  0  0  0  0
  -28.2617  -38.0098   24.7531 H   0  0  0  0  0  0
  -28.1083  -36.2616   24.6298 H   0  0  0  0  0  0
  -27.2306  -37.1382   25.8883 H   0  0  0  0  0  0
  -20.9335  -29.8726   21.6902 H   0  0  0  0  0  0
  -26.0186  -38.2869   24.1458 H   0  0  0  0  0  0
  -30.0598  -17.1511   19.8264 H   0  0  0  0  0  0
  -30.1465  -18.6615   24.5473 H   0  0  0  0  0  0
  -30.0915  -19.4112   19.0254 H   0  0  0  0  0  0
  -28.5575  -21.3587   20.7996 H   0  0  0  0  0  0
  -30.3319  -16.4587   25.3486 H   0  0  0  0  0  0
  -31.1782  -15.3316   24.2913 H   0  0  0  0  0  0
  -29.4135  -15.3147   24.3742 H   0  0  0  0  0  0
  -28.4706  -22.1697   23.7534 H   0  0  0  0  0  0
  -28.2835  -20.5366   24.3776 H   0  0  0  0  0  0
  -27.7422  -20.9185   22.7553 H   0  0  0  0  0  0
  -30.2469  -21.4285   22.1641 H   0  0  0  0  0  0
  -30.6543  -20.8922   23.7411 H   0  0  0  0  0  0
  -27.6917  -21.7174   18.4215 H   0  0  0  0  0  0
  -29.2531  -21.2478   17.8260 H   0  0  0  0  0  0
  -29.2340  -23.5783   17.6567 H   0  0  0  0  0  0
  -30.2913  -23.2560   18.9890 H   0  0  0  0  0  0
  -28.6834  -24.0992   20.5929 H   0  0  0  0  0  0
  -27.3607  -24.0313   19.4551 H   0  0  0  0  0  0
  -28.2139  -25.9303   18.1587 H   0  0  0  0  0  0
  -29.7667  -25.7991   18.9051 H   0  0  0  0  0  0
  -29.5500  -14.6160   22.2386 H   0  0  0  0  0  0
  1 25  1  0  0  0
  1 30  2  0  0  0
  1 86  1  0  0  0
  2  3  1  0  0  0
  2 25  1  0  0  0
  2 87  1  0  0  0
  2 88  1  0  0  0
  3  4  1  0  0  0
  3 89  1  0  0  0
  3 90  1  0  0  0
  4  5  1  0  0  0
  4 91  1  0  0  0
  4 92  1  0  0  0
  5  6  1  0  0  0
  5 26  1  0  0  0
  5 93  1  0  0  0
  6 25  1  0  0  0
  6 94  1  0  0  0
  6 95  1  0  0  0
  7  8  2  0  0  0
  7 26  1  0  0  0
  7 29  1  0  0  0
  8  9  1  0  0  0
  8 22  1  0  0  0
  9 10  1  0  0  0
  9 27  2  0  0  0
 10 11  2  0  0  0
 10 15  1  0  0  0
 11 12  1  0  0  0
 11 96  1  0  0  0
 12 13  2  0  0  0
 12 97  1  0  0  0
 13 14  1  0  0  0
 13 31  1  0  0  0
 14 15  2  0  0  0
 14 98  1  0  0  0
 15 99  1  0  0  0
 16 17  2  0  0  0
 16 21  1  0  0  0
 16 31  1  0  0  0
 17 18  1  0  0  0
 17100  1  0  0  0
 18 19  2  0  0  0
 18101  1  0  0  0
 19 20  1  0  0  0
 19 24  1  0  0  0
 20 21  2  0  0  0
 20102  1  0  0  0
 21 23  1  0  0  0
 22 28  1  0  0  0
 22 32  2  0  0  0
 26 27  1  0  0  0
 28103  1  0  0  0
 28104  1  0  0  0
 29105  1  0  0  0
 29106  1  0  0  0
 33 34  1  0  0  0
 33 66  1  0  0  0
 33 70  2  0  0  0
 34 36  1  0  0  0
 34 59  1  0  0  0
 34107  1  0  0  0
 35 44  2  0  0  0
 35 45  1  0  0  0
 35 68  1  0  0  0
 36 56  1  0  0  0
 36108  1  0  0  0
 37 39  1  0  0  0
 37 47  1  0  0  0
 37 66  1  0  0  0
 37109  1  0  0  0
 38 43  2  0  0  0
 38 46  1  0  0  0
 38 47  1  0  0  0
 39 64  1  0  0  0
 39 67  2  0  0  0
 40 52  1  0  0  0
 40 53  2  0  0  0
 40 58  1  0  0  0
 41110  1  0  0  0
 41111  1  0  0  0
 41112  1  0  0  0
 41 48  1  0  0  0
 42 43  1  0  0  0
 42 66  1  0  0  0
 42113  1  0  0  0
 42114  1  0  0  0
 43 44  1  0  0  0
 44115  1  0  0  0
 45 46  2  0  0  0
 45116  1  0  0  0
 46117  1  0  0  0
 47118  1  0  0  0
 47119  1  0  0  0
 48 56  1  0  0  0
 48 65  1  0  0  0
 48120  1  0  0  0
 49 50  1  0  0  0
 49 53  1  0  0  0
 49 64  1  0  0  0
 49121  1  0  0  0
 50 51  1  0  0  0
 50122  1  0  0  0
 50123  1  0  0  0
 51 52  1  0  0  0
 51124  1  0  0  0
 51125  1  0  0  0
 52126  1  0  0  0
 52127  1  0  0  0
 53 54  1  0  0  0
 54 55  2  0  0  0
 54128  1  0  0  0
 55 57  1  0  0  0
 55129  1  0  0  0
 56 69  2  0  0  0
 57 58  2  0  0  0
 57130  1  0  0  0
 58131  1  0  0  0
 59 60  1  0  0  0
 59 61  1  0  0  0
 59 62  1  0  0  0
 60132  1  0  0  0
 60133  1  0  0  0
 60134  1  0  0  0
 61135  1  0  0  0
 61136  1  0  0  0
 61137  1  0  0  0
 62138  1  0  0  0
 62139  1  0  0  0
 62140  1  0  0  0
 63 65  1  0  0  0
 63141  1  0  0  0
 63142  1  0  0  0
 63143  1  0  0  0
 64144  1  0  0  0
 65145  1  0  0  0
 68 85  1  0  0  0
 71 73  2  0  0  0
 71 76  1  0  0  0
 71146  1  0  0  0
 72 74  2  0  0  0
 72 75  1  0  0  0
 72147  1  0  0  0
 73 74  1  0  0  0
 73 77  1  0  0  0
 74 81  1  0  0  0
 75 76  2  0  0  0
 75 79  1  0  0  0
 76 86  1  0  0  0
 77 78  2  0  0  0
 77148  1  0  0  0
 78 82  1  0  0  0
 78149  1  0  0  0
 79150  1  0  0  0
 79151  1  0  0  0
 79152  1  0  0  0
 80 81  1  0  0  0
 80153  1  0  0  0
 80154  1  0  0  0
 80155  1  0  0  0
 81156  1  0  0  0
 81157  1  0  0  0
 82 83  1  0  0  0
 82158  1  0  0  0
 82159  1  0  0  0
 83 84  1  0  0  0
 83160  1  0  0  0
 83161  1  0  0  0
 84 85  1  0  0  0
 84162  1  0  0  0
 84163  1  0  0  0
 85164  1  0  0  0
 85165  1  0  0  0
 86166  1  0  0  0
M  ISO  4   1 100  68 101  85 101  86 100
M  END
> <chiral flag>
0

> <version>
0

> <s_m_source_file>
/data/baiqing/PycharmProjects/Reinvent-master-3.2/result/LINK_invent/BTK/process_docking_weight1_custom_product_contain_oxygen_bond_distance_aromatic_linkinvent_7_9_3/rearranged_h_0122.sdf

> <i_m_source_file_index>
11

> <r_mmod_Potential_Energy-OPLS-2005>
-22.7978057861328

> <r_mmod_Stretch_Energy-OPLS-2005>
40.0542907714844

> <r_mmod_Bend_Energy-OPLS-2005>
119.355659484863

> <r_mmod_Torsional_Energy-OPLS-2005>
230.129516601562

> <r_mmod_Improper_Torsional_Energy-OPLS-2005>
3.62514114379883

> <r_mmod_Van_der_Waal_Energy-OPLS-2005>
154.738586425781

> <r_mmod_Electrostatic_Energy-OPLS-2005>
-384.65576171875

> <r_mmod_Solvation_Energy-OPLS-2005>
-196.675857543945

> <b_mmod_Minimization_Converged-OPLS-2005>
0

> <r_mmod_RMS_Derivative-OPLS-2005>
3.05348682403564

$$$$
11
                    3D
 Structure written by MMmdl.
155163  0  0  1  0            999 V2000
  -30.7363  -14.4774   20.6390 C   0  0  0  0  0  0
  -30.4206  -12.3366   19.4305 C   0  0  0  0  0  0
  -29.4955  -12.5359   18.2126 C   0  0  0  0  0  0
  -28.0174  -12.3800   18.6170 C   0  0  0  0  0  0
  -27.6622  -13.2089   19.8778 C   0  0  2  0  0  0
  -28.6978  -12.9772   20.9988 C   0  0  0  0  0  0
  -25.2590  -13.8158   20.5672 C   0  0  0  0  0  0
  -24.1835  -13.0434   20.9154 C   0  0  0  0  0  0
  -24.6387  -11.6904   20.8704 C   0  0  0  0  0  0
  -23.9051  -10.4296   21.0391 C   0  0  0  0  0  0
  -24.3612   -9.4217   21.9170 C   0  0  0  0  0  0
  -23.6290   -8.2251   22.0750 C   0  0  0  0  0  0
  -22.4270   -8.0283   21.3544 C   0  0  0  0  0  0
  -21.9901   -9.0253   20.4643 C   0  0  0  0  0  0
  -22.7223  -10.2136   20.3046 C   0  0  0  0  0  0
  -21.6852   -6.0730   22.5276 C   0  0  0  0  0  0
  -21.4012   -6.5638   23.8208 C   0  0  0  0  0  0
  -21.3664   -5.6793   24.9172 C   0  0  0  0  0  0
  -21.6048   -4.3055   24.7226 C   0  0  0  0  0  0
  -21.8819   -3.8145   23.4346 C   0  0  0  0  0  0
  -21.9194   -4.6958   22.3399 C   0  0  0  0  0  0
  -22.7861  -13.5233   21.1842 C   0  0  0  0  0  0
  -22.1662   -4.2143   21.0977 F   0  0  0  0  0  0
  -21.5638   -3.4542   25.7740 F   0  0  0  0  0  0
  -30.0368  -13.3086   20.4730 N   0  0  0  0  0  0
  -26.3023  -12.9333   20.3362 N   0  0  0  0  0  0
  -25.9314  -11.6488   20.5729 N   0  0  0  0  0  0
  -22.0518  -12.8218   22.0407 N   0  0  0  0  0  0
  -25.4314  -15.1875   20.4101 N   0  0  0  0  0  0
  -31.7839  -14.7096   20.0234 O   0  0  0  0  0  0
  -21.6641   -6.8875   21.4239 O   0  0  0  0  0  0
  -22.3541  -14.5544   20.6707 O   0  0  0  0  0  0
  -24.6193  -31.8678   23.2102 C   0  0  0  0  0  0
  -25.9077  -32.4819   23.8400 C   0  0  1  0  0  0
  -27.2268  -27.3917   20.0984 C   0  0  0  0  0  0
  -25.5915  -33.8618   24.2322 N   0  0  0  0  0  0
  -23.4087  -30.4928   21.5532 C   0  0  2  0  0  0
  -24.8549  -28.9643   20.1111 C   0  0  0  0  0  0
  -22.7453  -29.4664   22.4997 C   0  0  0  0  0  0
  -18.0280  -28.1378   22.8499 C   0  0  0  0  0  0
  -24.1487  -36.7315   23.2635 C   0  0  0  0  0  0
  -25.9438  -30.8188   21.3736 C   0  0  0  0  0  0
  -26.0201  -29.4540   20.7131 C   0  0  0  0  0  0
  -27.2099  -28.6785   20.7016 C   0  0  0  0  0  0
  -26.0370  -26.9439   19.4719 C   0  0  0  0  0  0
  -24.8606  -27.7113   19.4832 C   0  0  0  0  0  0
  -23.6190  -29.8345   20.1648 C   0  0  0  0  0  0
  -25.4108  -36.3109   24.0325 C   0  0  1  0  0  0
  -20.5876  -28.3685   23.1316 C   0  0  2  0  0  0
  -20.6780  -26.9419   22.5427 C   0  0  0  0  0  0
  -19.5751  -26.6387   21.5228 C   0  0  0  0  0  0
  -18.1922  -26.7926   22.1626 C   0  0  0  0  0  0
  -19.1529  -28.8847   23.2895 C   0  0  0  0  0  0
  -18.9460  -30.1444   23.8913 C   0  0  0  0  0  0
  -17.6465  -30.6590   24.0569 C   0  0  0  0  0  0
  -25.9050  -34.9478   23.5118 C   0  0  0  0  0  0
  -16.5356  -29.9092   23.6325 C   0  0  0  0  0  0
  -16.7271  -28.6503   23.0361 C   0  0  0  0  0  0
  -26.4477  -31.6607   25.0743 C   0  0  0  0  0  0
  -25.3725  -31.3712   26.1474 C   0  0  0  0  0  0
  -27.0300  -30.3041   24.6137 C   0  0  0  0  0  0
  -27.6049  -32.4341   25.7506 C   0  0  0  0  0  0
  -27.5587  -37.1803   24.8454 C   0  0  0  0  0  0
  -21.4181  -29.3043   22.3730 N   0  0  0  0  0  0
  -26.4292  -37.3803   23.9409 N   0  0  0  0  0  0
  -24.6754  -31.0749   22.1027 N   0  0  0  0  0  0
  -23.4215  -28.8212   23.3055 O   0  0  0  0  0  0
  -28.3639  -26.5873   20.1473 O   0  0  0  0  0  0
  -26.5629  -34.8932   22.4696 O   0  0  0  0  0  0
  -23.5378  -32.1465   23.7466 O   0  0  0  0  0  0
  -29.5825  -18.0520   21.8499 C   0  0  0  0  0  0
  -29.4597  -19.0923   20.8772 C   0  0  0  0  0  0
  -30.0059  -16.9072   21.2134 C   0  0  0  0  0  0
  -29.8554  -18.5169   19.6981 C   0  0  0  0  0  0
  -30.2216  -15.5083   21.6656 C   0  0  0  0  0  0
  -29.9196  -19.0029   18.2906 C   0  0  0  0  0  0
  -29.2500  -24.1600   20.4350 C   0  0  0  0  0  0
  -28.7273  -22.6827   20.4047 C   0  0  0  0  0  0
  -28.1251  -25.1583   20.0276 C   0  0  0  0  0  0
  -29.6919  -21.5253   20.8050 C   0  0  0  0  0  0
  -30.0212  -15.1950   22.8801 N   0  0  0  0  0  0
  -30.1889  -17.2004   19.8888 O   0  0  0  0  0  0
  -28.9126  -20.3482   21.0817 O   0  0  0  0  0  0
  -31.4653  -12.4336   19.1308 H   0  0  0  0  0  0
  -30.3241  -11.3213   19.8178 H   0  0  0  0  0  0
  -29.7451  -11.8203   17.4288 H   0  0  0  0  0  0
  -29.6555  -13.5272   17.7854 H   0  0  0  0  0  0
  -27.8314  -11.3220   18.8042 H   0  0  0  0  0  0
  -27.3674  -12.6613   17.7877 H   0  0  0  0  0  0
  -27.7111  -14.2601   19.5949 H   0  0  0  0  0  0
  -28.6812  -11.9339   21.3159 H   0  0  0  0  0  0
  -28.4102  -13.5398   21.8835 H   0  0  0  0  0  0
  -25.2758   -9.5704   22.4739 H   0  0  0  0  0  0
  -24.0007   -7.4647   22.7472 H   0  0  0  0  0  0
  -21.0829   -8.8765   19.8947 H   0  0  0  0  0  0
  -22.3670  -10.9676   19.6159 H   0  0  0  0  0  0
  -21.1997   -7.6147   23.9706 H   0  0  0  0  0  0
  -21.1491   -6.0528   25.9077 H   0  0  0  0  0  0
  -22.0595   -2.7608   23.2848 H   0  0  0  0  0  0
  -22.4154  -11.9875   22.4774 H   0  0  0  0  0  0
  -21.1143  -13.1247   22.2652 H   0  0  0  0  0  0
  -24.6661  -15.8446   20.5146 H   0  0  0  0  0  0
  -26.2924  -15.6277   20.1099 H   0  0  0  0  0  0
  -26.7152  -32.5517   23.1166 H   0  0  0  0  0  0
  -25.0044  -33.9773   25.0448 H   0  0  0  0  0  0
  -22.6981  -31.3105   21.4179 H   0  0  0  0  0  0
  -23.3756  -35.9643   23.3285 H   0  0  0  0  0  0
  -24.3575  -36.8941   22.2049 H   0  0  0  0  0  0
  -23.7226  -37.6501   23.6681 H   0  0  0  0  0  0
  -26.0660  -31.5868   20.6084 H   0  0  0  0  0  0
  -26.8275  -30.8662   21.9969 H   0  0  0  0  0  0
  -28.1040  -29.0492   21.1836 H   0  0  0  0  0  0
  -25.9814  -25.9924   18.9656 H   0  0  0  0  0  0
  -23.9688  -27.3324   19.0016 H   0  0  0  0  0  0
  -23.7320  -30.6163   19.4126 H   0  0  0  0  0  0
  -22.7403  -29.2592   19.8651 H   0  0  0  0  0  0
  -25.1276  -36.1970   25.0816 H   0  0  0  0  0  0
  -20.9938  -28.3267   24.1450 H   0  0  0  0  0  0
  -20.5717  -26.2293   23.3624 H   0  0  0  0  0  0
  -21.6646  -26.7492   22.1196 H   0  0  0  0  0  0
  -19.6931  -25.6300   21.1255 H   0  0  0  0  0  0
  -19.6680  -27.3204   20.6765 H   0  0  0  0  0  0
  -17.4201  -26.6685   21.4024 H   0  0  0  0  0  0
  -18.0301  -26.0056   22.9008 H   0  0  0  0  0  0
  -19.7939  -30.7235   24.2311 H   0  0  0  0  0  0
  -17.5031  -31.6279   24.5160 H   0  0  0  0  0  0
  -15.5357  -30.3008   23.7635 H   0  0  0  0  0  0
  -15.8670  -28.0829   22.7081 H   0  0  0  0  0  0
  -24.5947  -30.7002   25.7812 H   0  0  0  0  0  0
  -24.8861  -32.2855   26.4897 H   0  0  0  0  0  0
  -25.8070  -30.8929   27.0260 H   0  0  0  0  0  0
  -26.2849  -29.6811   24.1180 H   0  0  0  0  0  0
  -27.4024  -29.7271   25.4608 H   0  0  0  0  0  0
  -27.8717  -30.4324   23.9321 H   0  0  0  0  0  0
  -27.2673  -33.3650   26.2084 H   0  0  0  0  0  0
  -28.3864  -32.6882   25.0332 H   0  0  0  0  0  0
  -28.0722  -31.8467   26.5413 H   0  0  0  0  0  0
  -28.2582  -38.0132   24.7552 H   0  0  0  0  0  0
  -28.1102  -36.2654   24.6219 H   0  0  0  0  0  0
  -27.2310  -37.1377   25.8860 H   0  0  0  0  0  0
  -20.9371  -29.8758   21.6924 H   0  0  0  0  0  0
  -26.0170  -38.2870   24.1454 H   0  0  0  0  0  0
  -29.3342  -18.1167   22.8990 H   0  0  0  0  0  0
  -29.2443  -19.8457   18.1381 H   0  0  0  0  0  0
  -29.6333  -18.2160   17.5931 H   0  0  0  0  0  0
  -30.9273  -19.3312   18.0396 H   0  0  0  0  0  0
  -30.1041  -24.2714   19.7660 H   0  0  0  0  0  0
  -29.6059  -24.4037   21.4357 H   0  0  0  0  0  0
  -28.3366  -22.4663   19.4098 H   0  0  0  0  0  0
  -27.8638  -22.6292   21.0683 H   0  0  0  0  0  0
  -27.2571  -24.9085   20.6428 H   0  0  0  0  0  0
  -27.8603  -24.9374   18.9936 H   0  0  0  0  0  0
  -30.2307  -21.7877   21.7158 H   0  0  0  0  0  0
  -30.4361  -21.3505   20.0261 H   0  0  0  0  0  0
  -29.7069  -15.9970   23.4118 H   0  0  0  0  0  0
  1 25  1  0  0  0
  1 30  2  0  0  0
  1 75  1  0  0  0
  2  3  1  0  0  0
  2 25  1  0  0  0
  2 84  1  0  0  0
  2 85  1  0  0  0
  3  4  1  0  0  0
  3 86  1  0  0  0
  3 87  1  0  0  0
  4  5  1  0  0  0
  4 88  1  0  0  0
  4 89  1  0  0  0
  5  6  1  0  0  0
  5 26  1  0  0  0
  5 90  1  0  0  0
  6 25  1  0  0  0
  6 91  1  0  0  0
  6 92  1  0  0  0
  7  8  2  0  0  0
  7 26  1  0  0  0
  7 29  1  0  0  0
  8  9  1  0  0  0
  8 22  1  0  0  0
  9 10  1  0  0  0
  9 27  2  0  0  0
 10 11  2  0  0  0
 10 15  1  0  0  0
 11 12  1  0  0  0
 11 93  1  0  0  0
 12 13  2  0  0  0
 12 94  1  0  0  0
 13 14  1  0  0  0
 13 31  1  0  0  0
 14 15  2  0  0  0
 14 95  1  0  0  0
 15 96  1  0  0  0
 16 17  2  0  0  0
 16 21  1  0  0  0
 16 31  1  0  0  0
 17 18  1  0  0  0
 17 97  1  0  0  0
 18 19  2  0  0  0
 18 98  1  0  0  0
 19 20  1  0  0  0
 19 24  1  0  0  0
 20 21  2  0  0  0
 20 99  1  0  0  0
 21 23  1  0  0  0
 22 28  1  0  0  0
 22 32  2  0  0  0
 26 27  1  0  0  0
 28100  1  0  0  0
 28101  1  0  0  0
 29102  1  0  0  0
 29103  1  0  0  0
 33 34  1  0  0  0
 33 66  1  0  0  0
 33 70  2  0  0  0
 34 36  1  0  0  0
 34 59  1  0  0  0
 34104  1  0  0  0
 35 44  2  0  0  0
 35 45  1  0  0  0
 35 68  1  0  0  0
 36 56  1  0  0  0
 36105  1  0  0  0
 37 39  1  0  0  0
 37 47  1  0  0  0
 37 66  1  0  0  0
 37106  1  0  0  0
 38 43  2  0  0  0
 38 46  1  0  0  0
 38 47  1  0  0  0
 39 64  1  0  0  0
 39 67  2  0  0  0
 40 52  1  0  0  0
 40 53  2  0  0  0
 40 58  1  0  0  0
 41107  1  0  0  0
 41108  1  0  0  0
 41109  1  0  0  0
 41 48  1  0  0  0
 42 43  1  0  0  0
 42 66  1  0  0  0
 42110  1  0  0  0
 42111  1  0  0  0
 43 44  1  0  0  0
 44112  1  0  0  0
 45 46  2  0  0  0
 45113  1  0  0  0
 46114  1  0  0  0
 47115  1  0  0  0
 47116  1  0  0  0
 48 56  1  0  0  0
 48 65  1  0  0  0
 48117  1  0  0  0
 49 50  1  0  0  0
 49 53  1  0  0  0
 49 64  1  0  0  0
 49118  1  0  0  0
 50 51  1  0  0  0
 50119  1  0  0  0
 50120  1  0  0  0
 51 52  1  0  0  0
 51121  1  0  0  0
 51122  1  0  0  0
 52123  1  0  0  0
 52124  1  0  0  0
 53 54  1  0  0  0
 54 55  2  0  0  0
 54125  1  0  0  0
 55 57  1  0  0  0
 55126  1  0  0  0
 56 69  2  0  0  0
 57 58  2  0  0  0
 57127  1  0  0  0
 58128  1  0  0  0
 59 60  1  0  0  0
 59 61  1  0  0  0
 59 62  1  0  0  0
 60129  1  0  0  0
 60130  1  0  0  0
 60131  1  0  0  0
 61132  1  0  0  0
 61133  1  0  0  0
 61134  1  0  0  0
 62135  1  0  0  0
 62136  1  0  0  0
 62137  1  0  0  0
 63 65  1  0  0  0
 63138  1  0  0  0
 63139  1  0  0  0
 63140  1  0  0  0
 64141  1  0  0  0
 65142  1  0  0  0
 68 79  1  0  0  0
 71 72  1  0  0  0
 71 73  2  0  0  0
 71143  1  0  0  0
 72 74  2  0  0  0
 72 83  1  0  0  0
 73 75  1  0  0  0
 73 82  1  0  0  0
 74 76  1  0  0  0
 74 82  1  0  0  0
 75 81  2  0  0  0
 76144  1  0  0  0
 76145  1  0  0  0
 76146  1  0  0  0
 77 78  1  0  0  0
 77 79  1  0  0  0
 77147  1  0  0  0
 77148  1  0  0  0
 78 80  1  0  0  0
 78149  1  0  0  0
 78150  1  0  0  0
 79151  1  0  0  0
 79152  1  0  0  0
 80 83  1  0  0  0
 80153  1  0  0  0
 80154  1  0  0  0
 81155  1  0  0  0
M  ISO  4   1 100  68 101  75 100  79 101
M  END
> <chiral flag>
0

> <version>
0

> <s_m_source_file>
/data/baiqing/PycharmProjects/Reinvent-master-3.2/result/LINK_invent/BTK/process_docking_weight1_custom_product_contain_oxygen_bond_distance_aromatic_linkinvent_7_9_3/rearranged_h_0122.sdf

> <i_m_source_file_index>
12

> <r_mmod_Potential_Energy-OPLS-2005>
94.5690841674805

> <r_mmod_Stretch_Energy-OPLS-2005>
48.8150901794434

> <r_mmod_Bend_Energy-OPLS-2005>
117.193222045898

> <r_mmod_Torsional_Energy-OPLS-2005>
211.422988891602

> <r_mmod_Improper_Torsional_Energy-OPLS-2005>
2.90513110160828

> <r_mmod_Van_der_Waal_Energy-OPLS-2005>
133.219573974609

> <r_mmod_Electrostatic_Energy-OPLS-2005>
-236.396377563477

> <r_mmod_Solvation_Energy-OPLS-2005>
-200.29460144043

> <b_mmod_Minimization_Converged-OPLS-2005>
0

> <r_mmod_RMS_Derivative-OPLS-2005>
1.79171478748322

$$$$
12
                    3D
 Structure written by MMmdl.
161169  0  0  1  0            999 V2000
  -30.6549  -14.6123   20.4637 C   0  0  0  0  0  0
  -30.4334  -12.3428   19.4794 C   0  0  0  0  0  0
  -29.5058  -12.3752   18.2418 C   0  0  0  0  0  0
  -28.0215  -12.2733   18.6490 C   0  0  0  0  0  0
  -27.6402  -13.1858   19.8410 C   0  0  2  0  0  0
  -28.6850  -13.1075   20.9713 C   0  0  0  0  0  0
  -25.2583  -13.8114   20.5645 C   0  0  0  0  0  0
  -24.1827  -13.0462   20.9229 C   0  0  0  0  0  0
  -24.6318  -11.6902   20.8798 C   0  0  0  0  0  0
  -23.8986  -10.4309   21.0446 C   0  0  0  0  0  0
  -24.3570   -9.4215   21.9190 C   0  0  0  0  0  0
  -23.6285   -8.2228   22.0736 C   0  0  0  0  0  0
  -22.4257   -8.0261   21.3528 C   0  0  0  0  0  0
  -21.9885   -9.0233   20.4617 C   0  0  0  0  0  0
  -22.7188  -10.2141   20.3052 C   0  0  0  0  0  0
  -21.6841   -6.0717   22.5278 C   0  0  0  0  0  0
  -21.3995   -6.5634   23.8209 C   0  0  0  0  0  0
  -21.3655   -5.6799   24.9183 C   0  0  0  0  0  0
  -21.6035   -4.3060   24.7240 C   0  0  0  0  0  0
  -21.8831   -3.8142   23.4367 C   0  0  0  0  0  0
  -21.9195   -4.6948   22.3415 C   0  0  0  0  0  0
  -22.7867  -13.5306   21.1907 C   0  0  0  0  0  0
  -22.1686   -4.2123   21.1005 F   0  0  0  0  0  0
  -21.5612   -3.4562   25.7770 F   0  0  0  0  0  0
  -30.0018  -13.4115   20.3966 N   0  0  0  0  0  0
  -26.2912  -12.9207   20.3220 N   0  0  0  0  0  0
  -25.9210  -11.6416   20.5766 N   0  0  0  0  0  0
  -22.0504  -12.8231   22.0375 N   0  0  0  0  0  0
  -25.4423  -15.1832   20.4071 N   0  0  0  0  0  0
  -31.8722  -14.6943   20.2717 O   0  0  0  0  0  0
  -21.6626   -6.8856   21.4232 O   0  0  0  0  0  0
  -22.3564  -14.5656   20.6829 O   0  0  0  0  0  0
  -24.6184  -31.8629   23.2060 C   0  0  0  0  0  0
  -25.9061  -32.4793   23.8372 C   0  0  1  0  0  0
  -27.2394  -27.4093   20.1227 C   0  0  0  0  0  0
  -25.5893  -33.8597   24.2308 N   0  0  0  0  0  0
  -23.4087  -30.4889   21.5406 C   0  0  2  0  0  0
  -24.8597  -28.9469   20.1133 C   0  0  0  0  0  0
  -22.7428  -29.4675   22.4909 C   0  0  0  0  0  0
  -18.0279  -28.1381   22.8463 C   0  0  0  0  0  0
  -24.1493  -36.7324   23.2642 C   0  0  0  0  0  0
  -25.9390  -30.8275   21.3590 C   0  0  0  0  0  0
  -26.0179  -29.4581   20.7111 C   0  0  0  0  0  0
  -27.2128  -28.6994   20.7034 C   0  0  0  0  0  0
  -26.0644  -26.9149   19.5169 C   0  0  0  0  0  0
  -24.8795  -27.6756   19.5097 C   0  0  0  0  0  0
  -23.6206  -29.8137   20.1576 C   0  0  0  0  0  0
  -25.4110  -36.3114   24.0344 C   0  0  1  0  0  0
  -20.5878  -28.3702   23.1259 C   0  0  2  0  0  0
  -20.6780  -26.9416   22.5382 C   0  0  0  0  0  0
  -19.5753  -26.6377   21.5187 C   0  0  0  0  0  0
  -18.1937  -26.7917   22.1612 C   0  0  0  0  0  0
  -19.1530  -28.8843   23.2871 C   0  0  0  0  0  0
  -18.9468  -30.1441   23.8891 C   0  0  0  0  0  0
  -17.6476  -30.6577   24.0558 C   0  0  0  0  0  0
  -25.9033  -34.9472   23.5131 C   0  0  0  0  0  0
  -16.5364  -29.9092   23.6310 C   0  0  0  0  0  0
  -16.7276  -28.6517   23.0316 C   0  0  0  0  0  0
  -26.4463  -31.6581   25.0715 C   0  0  0  0  0  0
  -25.3726  -31.3673   26.1462 C   0  0  0  0  0  0
  -27.0282  -30.3023   24.6101 C   0  0  0  0  0  0
  -27.6040  -32.4295   25.7475 C   0  0  0  0  0  0
  -27.5582  -37.1827   24.8466 C   0  0  0  0  0  0
  -21.4150  -29.3103   22.3685 N   0  0  0  0  0  0
  -26.4298  -37.3799   23.9407 N   0  0  0  0  0  0
  -24.6738  -31.0746   22.0939 N   0  0  0  0  0  0
  -23.4180  -28.8183   23.2940 O   0  0  0  0  0  0
  -28.4022  -26.6629   20.1118 O   0  0  0  0  0  0
  -26.5598  -34.8930   22.4697 O   0  0  0  0  0  0
  -23.5378  -32.1358   23.7453 O   0  0  0  0  0  0
  -29.1581  -18.3071   22.9794 C   0  0  0  0  0  0
  -29.3854  -19.5081   22.2776 C   0  0  0  0  0  0
  -30.1522  -18.2015   20.3904 C   0  0  0  0  0  0
  -29.3909  -17.0396   22.3870 C   0  0  0  0  0  0
  -29.8512  -16.9573   21.0393 C   0  0  0  0  0  0
  -29.9041  -19.4691   20.9726 C   0  0  0  0  0  0
  -30.1066  -15.7439   17.7938 C   0  0  0  0  0  0
  -29.4292  -15.9724   18.9321 C   0  0  0  0  0  0
  -29.0956  -15.8245   23.2458 C   0  0  0  0  0  0
  -29.1867  -24.2938   20.0164 C   0  0  0  0  0  0
  -29.5248  -22.9858   20.8127 C   0  0  0  0  0  0
  -28.3528  -25.3728   20.7655 C   0  0  0  0  0  0
  -29.2381  -21.6450   20.0748 C   0  0  0  0  0  0
  -29.8722  -15.7261   20.2493 N   0  0  0  0  0  0
  -30.2345  -20.6208   20.2739 O   0  0  0  0  0  0
  -31.4770  -12.4525   19.1780 H   0  0  0  0  0  0
  -30.3642  -11.3809   19.9893 H   0  0  0  0  0  0
  -29.7520  -11.5541   17.5691 H   0  0  0  0  0  0
  -29.6743  -13.2725   17.6614 H   0  0  0  0  0  0
  -27.8386  -11.2314   18.9180 H   0  0  0  0  0  0
  -27.3780  -12.4856   17.7964 H   0  0  0  0  0  0
  -27.6320  -14.2004   19.4595 H   0  0  0  0  0  0
  -28.6870  -12.1306   21.4565 H   0  0  0  0  0  0
  -28.4167  -13.8217   21.7381 H   0  0  0  0  0  0
  -25.2701   -9.5716   22.4769 H   0  0  0  0  0  0
  -24.0002   -7.4622   22.7456 H   0  0  0  0  0  0
  -21.0801   -8.8740   19.8936 H   0  0  0  0  0  0
  -22.3613  -10.9687   19.6172 H   0  0  0  0  0  0
  -21.1976   -7.6134   23.9728 H   0  0  0  0  0  0
  -21.1463   -6.0507   25.9090 H   0  0  0  0  0  0
  -22.0612   -2.7599   23.2878 H   0  0  0  0  0  0
  -22.4207  -11.9908   22.4707 H   0  0  0  0  0  0
  -21.1147  -13.1257   22.2692 H   0  0  0  0  0  0
  -24.6949  -15.8507   20.5613 H   0  0  0  0  0  0
  -26.3083  -15.6164   20.1127 H   0  0  0  0  0  0
  -26.7128  -32.5511   23.1133 H   0  0  0  0  0  0
  -25.0067  -33.9717   25.0470 H   0  0  0  0  0  0
  -22.7033  -31.3102   21.3947 H   0  0  0  0  0  0
  -23.3744  -35.9668   23.3315 H   0  0  0  0  0  0
  -24.3588  -36.8923   22.2052 H   0  0  0  0  0  0
  -23.7251  -37.6542   23.6636 H   0  0  0  0  0  0
  -26.0535  -31.5883   20.5850 H   0  0  0  0  0  0
  -26.8296  -30.8841   21.9739 H   0  0  0  0  0  0
  -28.1129  -29.0943   21.1531 H   0  0  0  0  0  0
  -26.0672  -25.9417   19.0476 H   0  0  0  0  0  0
  -23.9878  -27.2825   19.0403 H   0  0  0  0  0  0
  -23.7311  -30.5836   19.3926 H   0  0  0  0  0  0
  -22.7459  -29.2299   19.8644 H   0  0  0  0  0  0
  -25.1285  -36.1987   25.0837 H   0  0  0  0  0  0
  -20.9983  -28.3267   24.1369 H   0  0  0  0  0  0
  -20.5643  -26.2326   23.3595 H   0  0  0  0  0  0
  -21.6653  -26.7413   22.1202 H   0  0  0  0  0  0
  -19.6917  -25.6279   21.1218 H   0  0  0  0  0  0
  -19.6682  -27.3178   20.6708 H   0  0  0  0  0  0
  -17.4188  -26.6609   21.4044 H   0  0  0  0  0  0
  -18.0404  -26.0067   22.9027 H   0  0  0  0  0  0
  -19.7949  -30.7250   24.2255 H   0  0  0  0  0  0
  -17.5035  -31.6245   24.5181 H   0  0  0  0  0  0
  -15.5363  -30.3007   23.7637 H   0  0  0  0  0  0
  -15.8668  -28.0857   22.7012 H   0  0  0  0  0  0
  -24.5900  -30.7009   25.7805 H   0  0  0  0  0  0
  -24.8897  -32.2813   26.4944 H   0  0  0  0  0  0
  -25.8083  -30.8819   27.0208 H   0  0  0  0  0  0
  -26.2829  -29.6801   24.1127 H   0  0  0  0  0  0
  -27.4024  -29.7247   25.4565 H   0  0  0  0  0  0
  -27.8681  -30.4329   23.9274 H   0  0  0  0  0  0
  -27.2668  -33.3581   26.2097 H   0  0  0  0  0  0
  -28.3830  -32.6888   25.0292 H   0  0  0  0  0  0
  -28.0747  -31.8389   26.5345 H   0  0  0  0  0  0
  -28.2623  -38.0105   24.7494 H   0  0  0  0  0  0
  -28.1054  -36.2634   24.6313 H   0  0  0  0  0  0
  -27.2293  -37.1516   25.8869 H   0  0  0  0  0  0
  -20.9313  -29.8868   21.6933 H   0  0  0  0  0  0
  -26.0194  -38.2890   24.1374 H   0  0  0  0  0  0
  -28.7809  -18.3701   23.9911 H   0  0  0  0  0  0
  -29.1954  -20.4578   22.7558 H   0  0  0  0  0  0
  -30.5466  -18.2087   19.3863 H   0  0  0  0  0  0
  -31.1116  -15.3409   17.7864 H   0  0  0  0  0  0
  -29.6540  -15.9631   16.8387 H   0  0  0  0  0  0
  -28.4368  -16.4024   18.9072 H   0  0  0  0  0  0
  -29.1972  -16.0712   24.3025 H   0  0  0  0  0  0
  -29.7998  -15.0142   23.0624 H   0  0  0  0  0  0
  -28.0711  -15.4832   23.0952 H   0  0  0  0  0  0
  -28.6572  -24.0548   19.0948 H   0  0  0  0  0  0
  -30.1314  -24.7381   19.7015 H   0  0  0  0  0  0
  -29.0069  -22.9773   21.7728 H   0  0  0  0  0  0
  -30.5888  -23.0137   21.0579 H   0  0  0  0  0  0
  -27.3322  -25.0033   20.8795 H   0  0  0  0  0  0
  -28.7383  -25.5057   21.7775 H   0  0  0  0  0  0
  -29.2359  -21.8323   18.9994 H   0  0  0  0  0  0
  -28.2344  -21.2898   20.3050 H   0  0  0  0  0  0
  1 25  1  0  0  0
  1 30  2  0  0  0
  1 84  1  0  0  0
  2  3  1  0  0  0
  2 25  1  0  0  0
  2 86  1  0  0  0
  2 87  1  0  0  0
  3  4  1  0  0  0
  3 88  1  0  0  0
  3 89  1  0  0  0
  4  5  1  0  0  0
  4 90  1  0  0  0
  4 91  1  0  0  0
  5  6  1  0  0  0
  5 26  1  0  0  0
  5 92  1  0  0  0
  6 25  1  0  0  0
  6 93  1  0  0  0
  6 94  1  0  0  0
  7  8  2  0  0  0
  7 26  1  0  0  0
  7 29  1  0  0  0
  8  9  1  0  0  0
  8 22  1  0  0  0
  9 10  1  0  0  0
  9 27  2  0  0  0
 10 11  2  0  0  0
 10 15  1  0  0  0
 11 12  1  0  0  0
 11 95  1  0  0  0
 12 13  2  0  0  0
 12 96  1  0  0  0
 13 14  1  0  0  0
 13 31  1  0  0  0
 14 15  2  0  0  0
 14 97  1  0  0  0
 15 98  1  0  0  0
 16 17  2  0  0  0
 16 21  1  0  0  0
 16 31  1  0  0  0
 17 18  1  0  0  0
 17 99  1  0  0  0
 18 19  2  0  0  0
 18100  1  0  0  0
 19 20  1  0  0  0
 19 24  1  0  0  0
 20 21  2  0  0  0
 20101  1  0  0  0
 21 23  1  0  0  0
 22 28  1  0  0  0
 22 32  2  0  0  0
 26 27  1  0  0  0
 28102  1  0  0  0
 28103  1  0  0  0
 29104  1  0  0  0
 29105  1  0  0  0
 33 34  1  0  0  0
 33 66  1  0  0  0
 33 70  2  0  0  0
 34 36  1  0  0  0
 34 59  1  0  0  0
 34106  1  0  0  0
 35 44  2  0  0  0
 35 45  1  0  0  0
 35 68  1  0  0  0
 36 56  1  0  0  0
 36107  1  0  0  0
 37 39  1  0  0  0
 37 47  1  0  0  0
 37 66  1  0  0  0
 37108  1  0  0  0
 38 43  2  0  0  0
 38 46  1  0  0  0
 38 47  1  0  0  0
 39 64  1  0  0  0
 39 67  2  0  0  0
 40 52  1  0  0  0
 40 53  2  0  0  0
 40 58  1  0  0  0
 41109  1  0  0  0
 41110  1  0  0  0
 41111  1  0  0  0
 41 48  1  0  0  0
 42 43  1  0  0  0
 42 66  1  0  0  0
 42112  1  0  0  0
 42113  1  0  0  0
 43 44  1  0  0  0
 44114  1  0  0  0
 45 46  2  0  0  0
 45115  1  0  0  0
 46116  1  0  0  0
 47117  1  0  0  0
 47118  1  0  0  0
 48 56  1  0  0  0
 48 65  1  0  0  0
 48119  1  0  0  0
 49 50  1  0  0  0
 49 53  1  0  0  0
 49 64  1  0  0  0
 49120  1  0  0  0
 50 51  1  0  0  0
 50121  1  0  0  0
 50122  1  0  0  0
 51 52  1  0  0  0
 51123  1  0  0  0
 51124  1  0  0  0
 52125  1  0  0  0
 52126  1  0  0  0
 53 54  1  0  0  0
 54 55  2  0  0  0
 54127  1  0  0  0
 55 57  1  0  0  0
 55128  1  0  0  0
 56 69  2  0  0  0
 57 58  2  0  0  0
 57129  1  0  0  0
 58130  1  0  0  0
 59 60  1  0  0  0
 59 61  1  0  0  0
 59 62  1  0  0  0
 60131  1  0  0  0
 60132  1  0  0  0
 60133  1  0  0  0
 61134  1  0  0  0
 61135  1  0  0  0
 61136  1  0  0  0
 62137  1  0  0  0
 62138  1  0  0  0
 62139  1  0  0  0
 63 65  1  0  0  0
 63140  1  0  0  0
 63141  1  0  0  0
 63142  1  0  0  0
 64143  1  0  0  0
 65144  1  0  0  0
 68 82  1  0  0  0
 71 72  2  0  0  0
 71 74  1  0  0  0
 71145  1  0  0  0
 72 76  1  0  0  0
 72146  1  0  0  0
 73 75  1  0  0  0
 73 76  2  0  0  0
 73147  1  0  0  0
 74 75  2  0  0  0
 74 79  1  0  0  0
 75 84  1  0  0  0
 76 85  1  0  0  0
 77 78  2  0  0  0
 77148  1  0  0  0
 77149  1  0  0  0
 78 84  1  0  0  0
 78150  1  0  0  0
 79151  1  0  0  0
 79152  1  0  0  0
 79153  1  0  0  0
 80 81  1  0  0  0
 80 82  1  0  0  0
 80154  1  0  0  0
 80155  1  0  0  0
 81 83  1  0  0  0
 81156  1  0  0  0
 81157  1  0  0  0
 82158  1  0  0  0
 82159  1  0  0  0
 83 85  1  0  0  0
 83160  1  0  0  0
 83161  1  0  0  0
M  ISO  4   1 100  68 101  82 101  84 100
M  END
> <chiral flag>
0

> <version>
0

> <s_m_source_file>
/data/baiqing/PycharmProjects/Reinvent-master-3.2/result/LINK_invent/BTK/process_docking_weight1_custom_product_contain_oxygen_bond_distance_aromatic_linkinvent_7_9_3/rearranged_h_0122.sdf

> <i_m_source_file_index>
13

> <r_mmod_Potential_Energy-OPLS-2005>
297.339477539062

> <r_mmod_Stretch_Energy-OPLS-2005>
54.5084686279297

> <r_mmod_Bend_Energy-OPLS-2005>
122.735260009766

> <r_mmod_Torsional_Energy-OPLS-2005>
394.835540771484

> <r_mmod_Improper_Torsional_Energy-OPLS-2005>
17.3664360046387

> <r_mmod_Van_der_Waal_Energy-OPLS-2005>
157.154159545898

> <r_mmod_Electrostatic_Energy-OPLS-2005>
-294.779174804688

> <r_mmod_Solvation_Energy-OPLS-2005>
-195.162841796875

> <b_mmod_Minimization_Converged-OPLS-2005>
0

> <r_mmod_RMS_Derivative-OPLS-2005>
4.15970897674561

$$$$
13
                    3D
 Structure written by MMmdl.
156164  0  0  1  0            999 V2000
  -27.3067  -17.4679   20.8955 C   0  0  0  0  0  0
  -29.2771  -14.9597   19.8060 C   0  0  0  0  0  0
  -29.2728  -13.6208   18.7829 C   0  0  0  0  0  0
  -28.2355  -12.5642   19.1379 C   0  0  0  0  0  0
  -27.2850  -13.4362   19.9290 C   0  0  2  0  0  0
  -27.7839  -14.3401   21.1171 C   0  0  0  0  0  0
  -25.0091  -13.7969   20.5308 C   0  0  0  0  0  0
  -24.0209  -12.9904   20.9362 C   0  0  0  0  0  0
  -24.5474  -11.6609   20.8937 C   0  0  0  0  0  0
  -23.8604  -10.3972   21.0539 C   0  0  0  0  0  0
  -24.3372   -9.3999   21.9272 C   0  0  0  0  0  0
  -23.6153   -8.2001   22.0775 C   0  0  0  0  0  0
  -22.4145   -8.0037   21.3540 C   0  0  0  0  0  0
  -21.9680   -8.9930   20.4629 C   0  0  0  0  0  0
  -22.6892  -10.1826   20.3078 C   0  0  0  0  0  0
  -21.6778   -6.0608   22.5303 C   0  0  0  0  0  0
  -21.3959   -6.5566   23.8217 C   0  0  0  0  0  0
  -21.3639   -5.6749   24.9198 C   0  0  0  0  0  0
  -21.6042   -4.3010   24.7269 C   0  0  0  0  0  0
  -21.8830   -3.8071   23.4403 C   0  0  0  0  0  0
  -21.9176   -4.6859   22.3444 C   0  0  0  0  0  0
  -22.6412  -13.4647   21.2168 C   0  0  0  0  0  0
  -22.1658   -4.2056   21.1019 F   0  0  0  0  0  0
  -21.5640   -3.4512   25.7794 F   0  0  0  0  0  0
  -27.9154  -15.7934   20.5735 N   0  0  0  0  0  0
  -26.0584  -12.9456   20.3093 N   0  0  0  0  0  0
  -25.8338  -11.6503   20.5755 N   0  0  0  0  0  0
  -21.9351  -12.7715   22.0940 N   0  0  0  0  0  0
  -25.0853  -15.1752   20.3232 N   0  0  0  0  0  0
  -28.6652  -17.4558   20.7480 O   0  0  0  0  0  0
  -21.6533   -6.8664   21.4235 O   0  0  0  0  0  0
  -22.2160  -14.5012   20.7055 O   0  0  0  0  0  0
  -24.6316  -32.0863   22.9743 C   0  0  0  0  0  0
  -25.9115  -32.5577   23.7652 C   0  0  1  0  0  0
  -26.3002  -27.5470   21.2565 C   0  0  0  0  0  0
  -25.6001  -33.9104   24.2126 N   0  0  0  0  0  0
  -23.4976  -30.7368   21.0660 C   0  0  2  0  0  0
  -25.0521  -29.2609   19.7083 C   0  0  0  0  0  0
  -23.3805  -29.4424   21.8069 C   0  0  0  0  0  0
  -19.4179  -25.7427   23.4366 C   0  0  0  0  0  0
  -24.1462  -36.7609   23.2650 C   0  0  0  0  0  0
  -26.0155  -31.1576   21.0871 C   0  0  0  0  0  0
  -26.0927  -29.7327   20.5382 C   0  0  0  0  0  0
  -26.9221  -28.7985   21.1682 C   0  0  0  0  0  0
  -25.8292  -27.0049   20.0277 C   0  0  0  0  0  0
  -25.0361  -27.9076   19.2960 C   0  0  0  0  0  0
  -23.8178  -30.1658   19.6583 C   0  0  0  0  0  0
  -25.4100  -36.3473   24.0346 C   0  0  1  0  0  0
  -22.0032  -27.0903   22.6854 C   0  0  2  0  0  0
  -22.4433  -26.4511   21.1802 C   0  0  0  0  0  0
  -21.5461  -25.7769   19.9715 C   0  0  0  0  0  0
  -20.3836  -24.7542   20.4487 C   0  0  0  0  0  0
  -20.3413  -26.9477   23.9047 C   0  0  0  0  0  0
  -19.6203  -28.1534   24.7042 C   0  0  0  0  0  0
  -18.4052  -28.9150   24.3808 C   0  0  0  0  0  0
  -25.9069  -34.9972   23.5014 C   0  0  0  0  0  0
  -17.5220  -28.0632   23.7374 C   0  0  0  0  0  0
  -17.9870  -26.6324   23.5511 C   0  0  0  0  0  0
  -26.4192  -31.6953   25.0040 C   0  0  0  0  0  0
  -25.3392  -31.3767   26.0604 C   0  0  0  0  0  0
  -27.0420  -30.3675   24.5291 C   0  0  0  0  0  0
  -27.5629  -32.4531   25.7289 C   0  0  0  0  0  0
  -27.5617  -37.1978   24.8469 C   0  0  0  0  0  0
  -22.6054  -28.3063   21.6714 N   0  0  0  0  0  0
  -26.4299  -37.4127   23.9481 N   0  0  0  0  0  0
  -24.6998  -31.5253   21.6925 N   0  0  0  0  0  0
  -24.2150  -29.5053   22.6176 O   0  0  0  0  0  0
  -25.6715  -27.1179   22.5152 O   0  0  0  0  0  0
  -26.5562  -34.9485   22.4529 O   0  0  0  0  0  0
  -23.5457  -32.2123   23.5650 O   0  0  0  0  0  0
  -21.3596  -24.6584   22.4070 C   0  0  0  0  0  0
  -20.3194  -22.7881   22.0481 C   0  0  0  0  0  0
  -18.4953  -25.4543   21.3651 C   0  0  0  0  0  0
  -22.0366  -22.7652   21.9671 C   0  0  0  0  0  0
  -19.9749  -26.5425   21.5445 C   0  0  0  0  0  0
  -18.8617  -23.7805   21.8950 C   0  0  0  0  0  0
  -23.9295  -20.6458   21.5556 C   0  0  0  0  0  0
  -20.0719  -28.4418   21.9703 C   0  0  0  0  0  0
  -25.6133  -19.3270   21.2913 C   0  0  0  0  0  0
  -20.9683  -29.3069   23.0288 C   0  0  0  0  0  0
  -17.5885  -22.9675   22.0174 C   0  0  0  0  0  0
  -22.5858  -28.7826   24.2207 C   0  0  0  0  0  0
  -24.4202  -27.6133   23.8308 C   0  0  0  0  0  0
  -29.7029  -15.7399   19.1736 H   0  0  0  0  0  0
  -30.0839  -14.8383   20.5349 H   0  0  0  0  0  0
  -30.2673  -13.1774   18.7201 H   0  0  0  0  0  0
  -29.0494  -13.9787   17.7768 H   0  0  0  0  0  0
  -28.6551  -11.7806   19.7694 H   0  0  0  0  0  0
  -27.7733  -12.1079   18.2613 H   0  0  0  0  0  0
  -26.9788  -14.1119   19.1239 H   0  0  0  0  0  0
  -28.6118  -13.9027   21.6850 H   0  0  0  0  0  0
  -27.0515  -14.4236   21.9205 H   0  0  0  0  0  0
  -25.2481   -9.5608   22.4872 H   0  0  0  0  0  0
  -23.9891   -7.4397   22.7487 H   0  0  0  0  0  0
  -21.0618   -8.8372   19.8938 H   0  0  0  0  0  0
  -22.3299  -10.9372   19.6216 H   0  0  0  0  0  0
  -21.1927   -7.6073   23.9687 H   0  0  0  0  0  0
  -21.1456   -6.0493   25.9093 H   0  0  0  0  0  0
  -22.0637   -2.7535   23.2929 H   0  0  0  0  0  0
  -22.3113  -11.9406   22.5256 H   0  0  0  0  0  0
  -21.0040  -13.0756   22.3420 H   0  0  0  0  0  0
  -24.2425  -15.7400   20.3274 H   0  0  0  0  0  0
  -25.8492  -15.5815   19.8004 H   0  0  0  0  0  0
  -26.7713  -32.6596   23.1129 H   0  0  0  0  0  0
  -25.0207  -34.0063   25.0331 H   0  0  0  0  0  0
  -22.5709  -31.3102   21.0935 H   0  0  0  0  0  0
  -23.3765  -35.9900   23.3310 H   0  0  0  0  0  0
  -24.3549  -36.9246   22.2066 H   0  0  0  0  0  0
  -23.7156  -37.6787   23.6665 H   0  0  0  0  0  0
  -26.1971  -31.8454   20.2609 H   0  0  0  0  0  0
  -26.8784  -31.2584   21.7327 H   0  0  0  0  0  0
  -27.4859  -29.1548   22.0166 H   0  0  0  0  0  0
  -25.5388  -25.9663   19.9555 H   0  0  0  0  0  0
  -24.2775  -27.5335   18.6232 H   0  0  0  0  0  0
  -24.0174  -30.9873   18.9697 H   0  0  0  0  0  0
  -22.9652  -29.6288   19.2370 H   0  0  0  0  0  0
  -25.1285  -36.2270   25.0833 H   0  0  0  0  0  0
  -22.6445  -26.5443   23.3074 H   0  0  0  0  0  0
  -23.1635  -25.6797   21.4704 H   0  0  0  0  0  0
  -23.3040  -26.7489   20.5685 H   0  0  0  0  0  0
  -22.2129  -25.2479   19.2888 H   0  0  0  0  0  0
  -21.1290  -26.5713   19.3474 H   0  0  0  0  0  0
  -19.6915  -24.7889   19.5869 H   0  0  0  0  0  0
  -20.8282  -23.8103   20.1337 H   0  0  0  0  0  0
  -20.2498  -28.7705   25.3244 H   0  0  0  0  0  0
  -18.1465  -29.8871   24.7768 H   0  0  0  0  0  0
  -16.4911  -28.3481   23.5761 H   0  0  0  0  0  0
  -17.1227  -26.0420   23.2789 H   0  0  0  0  0  0
  -24.5717  -30.7194   25.6590 H   0  0  0  0  0  0
  -24.8465  -32.2799   26.4206 H   0  0  0  0  0  0
  -25.7681  -30.8727   26.9278 H   0  0  0  0  0  0
  -26.3424  -29.7898   23.9354 H   0  0  0  0  0  0
  -27.3615  -29.7443   25.3656 H   0  0  0  0  0  0
  -27.9200  -30.5444   23.9066 H   0  0  0  0  0  0
  -27.2150  -33.3778   26.1908 H   0  0  0  0  0  0
  -28.3641  -32.7215   25.0388 H   0  0  0  0  0  0
  -28.0054  -31.8544   26.5257 H   0  0  0  0  0  0
  -28.2654  -38.0271   24.7629 H   0  0  0  0  0  0
  -28.1094  -36.2838   24.6130 H   0  0  0  0  0  0
  -27.2377  -37.1466   25.8878 H   0  0  0  0  0  0
  -22.0383  -28.3515   20.8395 H   0  0  0  0  0  0
  -26.0237  -38.3206   24.1587 H   0  0  0  0  0  0
  -22.0937  -24.8038   23.1706 H   0  0  0  0  0  0
  -20.0027  -21.7574   22.1220 H   0  0  0  0  0  0
  -17.4977  -25.8234   21.1676 H   0  0  0  0  0  0
  -23.1871  -19.8847   21.3627 H   0  0  0  0  0  0
  -19.3399  -29.0187   21.4230 H   0  0  0  0  0  0
  -26.3650  -20.0861   21.4512 H   0  0  0  0  0  0
  -20.7223  -30.3563   23.1019 H   0  0  0  0  0  0
  -17.7374  -22.0729   22.6208 H   0  0  0  0  0  0
  -17.2434  -22.6634   21.0281 H   0  0  0  0  0  0
  -16.8008  -23.5608   22.4821 H   0  0  0  0  0  0
  -22.2285  -28.3496   25.1516 H   0  0  0  0  0  0
  -22.9077  -29.7516   24.6000 H   0  0  0  0  0  0
  -24.3099  -26.6772   24.3819 H   0  0  0  0  0  0
  -25.1010  -28.0936   24.5310 H   0  0  0  0  0  0
  1 25  1  0  0  0
  1 30  2  0  0  0
  1 79  1  0  0  0
  2  3  1  0  0  0
  2 25  1  0  0  0
  2 84  1  0  0  0
  2 85  1  0  0  0
  3  4  1  0  0  0
  3 86  1  0  0  0
  3 87  1  0  0  0
  4  5  1  0  0  0
  4 88  1  0  0  0
  4 89  1  0  0  0
  5  6  1  0  0  0
  5 26  1  0  0  0
  5 90  1  0  0  0
  6 25  1  0  0  0
  6 91  1  0  0  0
  6 92  1  0  0  0
  7  8  2  0  0  0
  7 26  1  0  0  0
  7 29  1  0  0  0
  8  9  1  0  0  0
  8 22  1  0  0  0
  9 10  1  0  0  0
  9 27  2  0  0  0
 10 11  2  0  0  0
 10 15  1  0  0  0
 11 12  1  0  0  0
 11 93  1  0  0  0
 12 13  2  0  0  0
 12 94  1  0  0  0
 13 14  1  0  0  0
 13 31  1  0  0  0
 14 15  2  0  0  0
 14 95  1  0  0  0
 15 96  1  0  0  0
 16 17  2  0  0  0
 16 21  1  0  0  0
 16 31  1  0  0  0
 17 18  1  0  0  0
 17 97  1  0  0  0
 18 19  2  0  0  0
 18 98  1  0  0  0
 19 20  1  0  0  0
 19 24  1  0  0  0
 20 21  2  0  0  0
 20 99  1  0  0  0
 21 23  1  0  0  0
 22 28  1  0  0  0
 22 32  2  0  0  0
 26 27  1  0  0  0
 28100  1  0  0  0
 28101  1  0  0  0
 29102  1  0  0  0
 29103  1  0  0  0
 33 34  1  0  0  0
 33 66  1  0  0  0
 33 70  2  0  0  0
 34 36  1  0  0  0
 34 59  1  0  0  0
 34104  1  0  0  0
 35 44  2  0  0  0
 35 45  1  0  0  0
 35 68  1  0  0  0
 36 56  1  0  0  0
 36105  1  0  0  0
 37 39  1  0  0  0
 37 47  1  0  0  0
 37 66  1  0  0  0
 37106  1  0  0  0
 38 43  2  0  0  0
 38 46  1  0  0  0
 38 47  1  0  0  0
 39 64  1  0  0  0
 39 67  2  0  0  0
 40 52  1  0  0  0
 40 53  2  0  0  0
 40 58  1  0  0  0
 41107  1  0  0  0
 41108  1  0  0  0
 41109  1  0  0  0
 41 48  1  0  0  0
 42 43  1  0  0  0
 42 66  1  0  0  0
 42110  1  0  0  0
 42111  1  0  0  0
 43 44  1  0  0  0
 44112  1  0  0  0
 45 46  2  0  0  0
 45113  1  0  0  0
 46114  1  0  0  0
 47115  1  0  0  0
 47116  1  0  0  0
 48 56  1  0  0  0
 48 65  1  0  0  0
 48117  1  0  0  0
 49 50  1  0  0  0
 49 53  1  0  0  0
 49 64  1  0  0  0
 49118  1  0  0  0
 50 51  1  0  0  0
 50119  1  0  0  0
 50120  1  0  0  0
 51 52  1  0  0  0
 51121  1  0  0  0
 51122  1  0  0  0
 52123  1  0  0  0
 52124  1  0  0  0
 53 54  1  0  0  0
 54 55  2  0  0  0
 54125  1  0  0  0
 55 57  1  0  0  0
 55126  1  0  0  0
 56 69  2  0  0  0
 57 58  2  0  0  0
 57127  1  0  0  0
 58128  1  0  0  0
 59 60  1  0  0  0
 59 61  1  0  0  0
 59 62  1  0  0  0
 60129  1  0  0  0
 60130  1  0  0  0
 60131  1  0  0  0
 61132  1  0  0  0
 61133  1  0  0  0
 61134  1  0  0  0
 62135  1  0  0  0
 62136  1  0  0  0
 62137  1  0  0  0
 63 65  1  0  0  0
 63138  1  0  0  0
 63139  1  0  0  0
 63140  1  0  0  0
 64141  1  0  0  0
 65142  1  0  0  0
 68 83  1  0  0  0
 71 74  2  0  0  0
 71 75  1  0  0  0
 71143  1  0  0  0
 72 74  1  0  0  0
 72 76  2  0  0  0
 72144  1  0  0  0
 73 75  2  0  0  0
 73 76  1  0  0  0
 73145  1  0  0  0
 74 77  1  0  0  0
 75 78  1  0  0  0
 76 81  1  0  0  0
 77 79  2  0  0  0
 77146  1  0  0  0
 78 80  2  0  0  0
 78147  1  0  0  0
 79148  1  0  0  0
 80 82  1  0  0  0
 80149  1  0  0  0
 81150  1  0  0  0
 81151  1  0  0  0
 81152  1  0  0  0
 82 83  1  0  0  0
 82153  1  0  0  0
 82154  1  0  0  0
 83155  1  0  0  0
 83156  1  0  0  0
M  ISO  4   1 100  68 101  79 100  83 101
M  END
> <chiral flag>
0

> <version>
0

> <s_m_source_file>
/data/baiqing/PycharmProjects/Reinvent-master-3.2/result/LINK_invent/BTK/process_docking_weight1_custom_product_contain_oxygen_bond_distance_aromatic_linkinvent_7_9_3/rearranged_h_0122.sdf

> <i_m_source_file_index>
14

> <r_mmod_Potential_Energy-OPLS-2005>
40960.8984375

> <r_mmod_Stretch_Energy-OPLS-2005>
18315.40234375

> <r_mmod_Bend_Energy-OPLS-2005>
2864.71630859375

> <r_mmod_Torsional_Energy-OPLS-2005>
799.324645996094

> <r_mmod_Improper_Torsional_Energy-OPLS-2005>
88.1467056274414

> <r_mmod_Van_der_Waal_Energy-OPLS-2005>
4392.71337890625

> <r_mmod_Electrostatic_Energy-OPLS-2005>
-310.3935546875

> <r_mmod_Solvation_Energy-OPLS-2005>
-174.134902954102

> <b_mmod_Minimization_Converged-OPLS-2005>
0

> <r_mmod_RMS_Derivative-OPLS-2005>
3.52138090133667

$$$$
14
                    3D
 Structure written by MMmdl.
152161  0  0  1  0            999 V2000
  -30.6340  -14.7839   20.4547 C   0  0  0  0  0  0
  -30.4214  -12.4847   19.4778 C   0  0  0  0  0  0
  -29.5044  -12.5098   18.2367 C   0  0  0  0  0  0
  -28.0326  -12.3319   18.6535 C   0  0  0  0  0  0
  -27.6348  -13.2411   19.8478 C   0  0  2  0  0  0
  -28.6820  -13.2027   20.9816 C   0  0  0  0  0  0
  -25.2469  -13.8215   20.5701 C   0  0  0  0  0  0
  -24.1780  -13.0443   20.9224 C   0  0  0  0  0  0
  -24.6390  -11.6927   20.8763 C   0  0  0  0  0  0
  -23.9075  -10.4296   21.0411 C   0  0  0  0  0  0
  -24.3625   -9.4209   21.9187 C   0  0  0  0  0  0
  -23.6299   -8.2244   22.0754 C   0  0  0  0  0  0
  -22.4281   -8.0282   21.3544 C   0  0  0  0  0  0
  -21.9918   -9.0257   20.4647 C   0  0  0  0  0  0
  -22.7248  -10.2137   20.3058 C   0  0  0  0  0  0
  -21.6855   -6.0737   22.5279 C   0  0  0  0  0  0
  -21.4015   -6.5641   23.8212 C   0  0  0  0  0  0
  -21.3661   -5.6794   24.9174 C   0  0  0  0  0  0
  -21.6044   -4.3056   24.7224 C   0  0  0  0  0  0
  -21.8819   -3.8148   23.4345 C   0  0  0  0  0  0
  -21.9193   -4.6965   22.3402 C   0  0  0  0  0  0
  -22.7800  -13.5216   21.1876 C   0  0  0  0  0  0
  -22.1661   -4.2150   21.0979 F   0  0  0  0  0  0
  -21.5629   -3.4539   25.7737 F   0  0  0  0  0  0
  -29.9683  -13.5730   20.3823 N   0  0  0  0  0  0
  -26.2905  -12.9443   20.3294 N   0  0  0  0  0  0
  -25.9324  -11.6576   20.5774 N   0  0  0  0  0  0
  -22.0451  -12.8205   22.0432 N   0  0  0  0  0  0
  -25.4119  -15.1936   20.4079 N   0  0  0  0  0  0
  -31.8328  -14.7938   20.1529 O   0  0  0  0  0  0
  -21.6643   -6.8881   21.4241 O   0  0  0  0  0  0
  -22.3481  -14.5518   20.6718 O   0  0  0  0  0  0
  -24.6339  -31.8521   23.1954 C   0  0  0  0  0  0
  -25.9153  -32.4735   23.8310 C   0  0  1  0  0  0
  -27.2192  -27.2332   20.1235 C   0  0  0  0  0  0
  -25.5938  -33.8539   24.2232 N   0  0  0  0  0  0
  -23.4313  -30.4743   21.5395 C   0  0  2  0  0  0
  -24.8770  -28.9164   20.1070 C   0  0  0  0  0  0
  -22.7514  -29.4587   22.4899 C   0  0  0  0  0  0
  -18.0293  -28.1388   22.8483 C   0  0  0  0  0  0
  -24.1490  -36.7276   23.2641 C   0  0  0  0  0  0
  -25.9791  -30.7559   21.3785 C   0  0  0  0  0  0
  -26.0493  -29.3764   20.7184 C   0  0  0  0  0  0
  -27.2184  -28.5461   20.7168 C   0  0  0  0  0  0
  -26.0158  -26.8416   19.4944 C   0  0  0  0  0  0
  -24.8671  -27.6585   19.4856 C   0  0  0  0  0  0
  -23.6496  -29.8071   20.1558 C   0  0  0  0  0  0
  -25.4119  -36.3057   24.0321 C   0  0  1  0  0  0
  -20.5899  -28.3702   23.1263 C   0  0  2  0  0  0
  -20.6779  -26.9416   22.5408 C   0  0  0  0  0  0
  -19.5754  -26.6382   21.5213 C   0  0  0  0  0  0
  -18.1936  -26.7929   22.1625 C   0  0  0  0  0  0
  -19.1548  -28.8863   23.2866 C   0  0  0  0  0  0
  -18.9467  -30.1463   23.8886 C   0  0  0  0  0  0
  -17.6465  -30.6588   24.0562 C   0  0  0  0  0  0
  -25.9063  -34.9428   23.5082 C   0  0  0  0  0  0
  -16.5356  -29.9084   23.6332 C   0  0  0  0  0  0
  -16.7279  -28.6503   23.0353 C   0  0  0  0  0  0
  -26.4508  -31.6575   25.0716 C   0  0  0  0  0  0
  -25.3718  -31.3738   26.1428 C   0  0  0  0  0  0
  -27.0362  -30.2986   24.6232 C   0  0  0  0  0  0
  -27.6052  -32.4326   25.7495 C   0  0  0  0  0  0
  -27.5577  -37.1795   24.8465 C   0  0  0  0  0  0
  -21.4218  -29.3043   22.3647 N   0  0  0  0  0  0
  -26.4290  -37.3760   23.9406 N   0  0  0  0  0  0
  -24.7008  -31.0464   22.0938 N   0  0  0  0  0  0
  -23.4203  -28.8132   23.3011 O   0  0  0  0  0  0
  -28.3215  -26.3418   20.2178 O   0  0  0  0  0  0
  -26.5642  -34.8911   22.4655 O   0  0  0  0  0  0
  -23.5484  -32.1357   23.7235 O   0  0  0  0  0  0
  -28.1374  -20.4605   21.4101 C   0  0  0  0  0  0
  -28.0830  -19.0865   21.8182 C   0  0  0  0  0  0
  -29.7603  -19.8754   19.7205 C   0  0  0  0  0  0
  -28.9627  -20.9193   20.3405 C   0  0  0  0  0  0
  -28.8705  -18.1023   21.1679 C   0  0  0  0  0  0
  -29.7015  -18.4920   20.1434 C   0  0  0  0  0  0
  -28.9766  -22.4029   19.8518 C   0  0  0  0  0  0
  -28.3600  -23.5879   20.2590 C   0  0  0  0  0  0
  -28.9672  -16.5730   21.4035 C   0  0  0  0  0  0
  -30.4323  -17.2193   19.6483 C   0  0  0  0  0  0
  -28.4156  -25.0078   19.5119 C   0  0  0  0  0  0
  -29.9349  -16.0042   20.4110 N   0  0  0  0  0  0
  -31.4624  -12.5957   19.1703 H   0  0  0  0  0  0
  -30.3653  -11.5181   19.9812 H   0  0  0  0  0  0
  -29.7926  -11.7253   17.5357 H   0  0  0  0  0  0
  -29.6257  -13.4557   17.7062 H   0  0  0  0  0  0
  -27.8953  -11.2848   18.9261 H   0  0  0  0  0  0
  -27.3731  -12.5122   17.8037 H   0  0  0  0  0  0
  -27.6197  -14.2583   19.4557 H   0  0  0  0  0  0
  -28.7351  -12.2092   21.4294 H   0  0  0  0  0  0
  -28.4133  -13.8838   21.7887 H   0  0  0  0  0  0
  -25.2765   -9.5686   22.4767 H   0  0  0  0  0  0
  -24.0007   -7.4635   22.7473 H   0  0  0  0  0  0
  -21.0850   -8.8777   19.8952 H   0  0  0  0  0  0
  -22.3703  -10.9679   19.6171 H   0  0  0  0  0  0
  -21.2007   -7.6149   23.9716 H   0  0  0  0  0  0
  -21.1483   -6.0523   25.9077 H   0  0  0  0  0  0
  -22.0597   -2.7610   23.2844 H   0  0  0  0  0  0
  -22.4075  -11.9871   22.4823 H   0  0  0  0  0  0
  -21.1066  -13.1222   22.2636 H   0  0  0  0  0  0
  -24.6394  -15.8424   20.5118 H   0  0  0  0  0  0
  -26.2513  -15.6328   20.0531 H   0  0  0  0  0  0
  -26.7217  -32.5369   23.1045 H   0  0  0  0  0  0
  -25.0068  -33.9668   25.0367 H   0  0  0  0  0  0
  -22.7290  -31.2974   21.3923 H   0  0  0  0  0  0
  -23.3752  -35.9608   23.3298 H   0  0  0  0  0  0
  -24.3579  -36.8908   22.2056 H   0  0  0  0  0  0
  -23.7246  -37.6475   23.6674 H   0  0  0  0  0  0
  -26.1230  -31.5161   20.6095 H   0  0  0  0  0  0
  -26.8548  -30.8031   22.0145 H   0  0  0  0  0  0
  -28.1143  -28.8926   21.2127 H   0  0  0  0  0  0
  -25.9099  -25.8701   19.0389 H   0  0  0  0  0  0
  -23.9650  -27.2959   19.0120 H   0  0  0  0  0  0
  -23.7760  -30.5830   19.3998 H   0  0  0  0  0  0
  -22.7666  -29.2428   19.8505 H   0  0  0  0  0  0
  -25.1305  -36.1896   25.0814 H   0  0  0  0  0  0
  -20.9992  -28.3282   24.1383 H   0  0  0  0  0  0
  -20.5676  -26.2314   23.3617 H   0  0  0  0  0  0
  -21.6647  -26.7435   22.1204 H   0  0  0  0  0  0
  -19.6916  -25.6291   21.1250 H   0  0  0  0  0  0
  -19.6691  -27.3186   20.6738 H   0  0  0  0  0  0
  -17.4205  -26.6674   21.4029 H   0  0  0  0  0  0
  -18.0336  -26.0074   22.9024 H   0  0  0  0  0  0
  -19.7942  -30.7283   24.2250 H   0  0  0  0  0  0
  -17.5018  -31.6267   24.5165 H   0  0  0  0  0  0
  -15.5356  -30.2982   23.7662 H   0  0  0  0  0  0
  -15.8679  -28.0818   22.7074 H   0  0  0  0  0  0
  -24.5900  -30.7081   25.7753 H   0  0  0  0  0  0
  -24.8903  -32.2910   26.4826 H   0  0  0  0  0  0
  -25.8023  -30.8933   27.0222 H   0  0  0  0  0  0
  -26.2957  -29.6723   24.1244 H   0  0  0  0  0  0
  -27.4014  -29.7263   25.4770 H   0  0  0  0  0  0
  -27.8845  -30.4248   23.9501 H   0  0  0  0  0  0
  -27.2653  -33.3634   26.2049 H   0  0  0  0  0  0
  -28.3876  -32.6876   25.0334 H   0  0  0  0  0  0
  -28.0706  -31.8469   26.5432 H   0  0  0  0  0  0
  -28.2593  -38.0093   24.7508 H   0  0  0  0  0  0
  -28.1075  -36.2624   24.6295 H   0  0  0  0  0  0
  -27.2295  -37.1447   25.8868 H   0  0  0  0  0  0
  -20.9409  -29.8761   21.6844 H   0  0  0  0  0  0
  -26.0163  -38.2832   24.1403 H   0  0  0  0  0  0
  -27.5097  -21.1738   21.9258 H   0  0  0  0  0  0
  -27.4256  -18.7970   22.6266 H   0  0  0  0  0  0
  -30.4158  -20.1370   18.9014 H   0  0  0  0  0  0
  -29.5880  -22.5218   18.9678 H   0  0  0  0  0  0
  -27.7295  -23.5631   21.1358 H   0  0  0  0  0  0
  -27.9838  -16.1229   21.2769 H   0  0  0  0  0  0
  -29.3042  -16.3711   22.4212 H   0  0  0  0  0  0
  -31.5063  -17.3507   19.7891 H   0  0  0  0  0  0
  -30.2534  -17.0804   18.5816 H   0  0  0  0  0  0
  -27.7235  -24.9588   18.6748 H   0  0  0  0  0  0
  -29.3876  -25.0288   19.0186 H   0  0  0  0  0  0
  1 25  1  0  0  0
  1 30  2  0  0  0
  1 82  1  0  0  0
  2  3  1  0  0  0
  2 25  1  0  0  0
  2 83  1  0  0  0
  2 84  1  0  0  0
  3  4  1  0  0  0
  3 85  1  0  0  0
  3 86  1  0  0  0
  4  5  1  0  0  0
  4 87  1  0  0  0
  4 88  1  0  0  0
  5  6  1  0  0  0
  5 26  1  0  0  0
  5 89  1  0  0  0
  6 25  1  0  0  0
  6 90  1  0  0  0
  6 91  1  0  0  0
  7  8  2  0  0  0
  7 26  1  0  0  0
  7 29  1  0  0  0
  8  9  1  0  0  0
  8 22  1  0  0  0
  9 10  1  0  0  0
  9 27  2  0  0  0
 10 11  2  0  0  0
 10 15  1  0  0  0
 11 12  1  0  0  0
 11 92  1  0  0  0
 12 13  2  0  0  0
 12 93  1  0  0  0
 13 14  1  0  0  0
 13 31  1  0  0  0
 14 15  2  0  0  0
 14 94  1  0  0  0
 15 95  1  0  0  0
 16 17  2  0  0  0
 16 21  1  0  0  0
 16 31  1  0  0  0
 17 18  1  0  0  0
 17 96  1  0  0  0
 18 19  2  0  0  0
 18 97  1  0  0  0
 19 20  1  0  0  0
 19 24  1  0  0  0
 20 21  2  0  0  0
 20 98  1  0  0  0
 21 23  1  0  0  0
 22 28  1  0  0  0
 22 32  2  0  0  0
 26 27  1  0  0  0
 28 99  1  0  0  0
 28100  1  0  0  0
 29101  1  0  0  0
 29102  1  0  0  0
 33 34  1  0  0  0
 33 66  1  0  0  0
 33 70  2  0  0  0
 34 36  1  0  0  0
 34 59  1  0  0  0
 34103  1  0  0  0
 35 44  2  0  0  0
 35 45  1  0  0  0
 35 68  1  0  0  0
 36 56  1  0  0  0
 36104  1  0  0  0
 37 39  1  0  0  0
 37 47  1  0  0  0
 37 66  1  0  0  0
 37105  1  0  0  0
 38 43  2  0  0  0
 38 46  1  0  0  0
 38 47  1  0  0  0
 39 64  1  0  0  0
 39 67  2  0  0  0
 40 52  1  0  0  0
 40 53  2  0  0  0
 40 58  1  0  0  0
 41106  1  0  0  0
 41107  1  0  0  0
 41108  1  0  0  0
 41 48  1  0  0  0
 42 43  1  0  0  0
 42 66  1  0  0  0
 42109  1  0  0  0
 42110  1  0  0  0
 43 44  1  0  0  0
 44111  1  0  0  0
 45 46  2  0  0  0
 45112  1  0  0  0
 46113  1  0  0  0
 47114  1  0  0  0
 47115  1  0  0  0
 48 56  1  0  0  0
 48 65  1  0  0  0
 48116  1  0  0  0
 49 50  1  0  0  0
 49 53  1  0  0  0
 49 64  1  0  0  0
 49117  1  0  0  0
 50 51  1  0  0  0
 50118  1  0  0  0
 50119  1  0  0  0
 51 52  1  0  0  0
 51120  1  0  0  0
 51121  1  0  0  0
 52122  1  0  0  0
 52123  1  0  0  0
 53 54  1  0  0  0
 54 55  2  0  0  0
 54124  1  0  0  0
 55 57  1  0  0  0
 55125  1  0  0  0
 56 69  2  0  0  0
 57 58  2  0  0  0
 57126  1  0  0  0
 58127  1  0  0  0
 59 60  1  0  0  0
 59 61  1  0  0  0
 59 62  1  0  0  0
 60128  1  0  0  0
 60129  1  0  0  0
 60130  1  0  0  0
 61131  1  0  0  0
 61132  1  0  0  0
 61133  1  0  0  0
 62134  1  0  0  0
 62135  1  0  0  0
 62136  1  0  0  0
 63 65  1  0  0  0
 63137  1  0  0  0
 63138  1  0  0  0
 63139  1  0  0  0
 64140  1  0  0  0
 65141  1  0  0  0
 68 81  1  0  0  0
 71 72  2  0  0  0
 71 74  1  0  0  0
 71142  1  0  0  0
 72 75  1  0  0  0
 72143  1  0  0  0
 73 74  2  0  0  0
 73 76  1  0  0  0
 73144  1  0  0  0
 74 77  1  0  0  0
 75 76  2  0  0  0
 75 79  1  0  0  0
 76 80  1  0  0  0
 77 78  2  0  0  0
 77145  1  0  0  0
 78 81  1  0  0  0
 78146  1  0  0  0
 79 82  1  0  0  0
 79147  1  0  0  0
 79148  1  0  0  0
 80 82  1  0  0  0
 80149  1  0  0  0
 80150  1  0  0  0
 81151  1  0  0  0
 81152  1  0  0  0
M  ISO  4   1 100  68 101  81 101  82 100
M  END
> <chiral flag>
0

> <version>
0

> <s_m_source_file>
/data/baiqing/PycharmProjects/Reinvent-master-3.2/result/LINK_invent/BTK/process_docking_weight1_custom_product_contain_oxygen_bond_distance_aromatic_linkinvent_7_9_3/rearranged_h_0122.sdf

> <i_m_source_file_index>
15

> <r_mmod_Potential_Energy-OPLS-2005>
322.209411621094

> <r_mmod_Stretch_Energy-OPLS-2005>
134.728561401367

> <r_mmod_Bend_Energy-OPLS-2005>
225.056167602539

> <r_mmod_Torsional_Energy-OPLS-2005>
243.820755004883

> <r_mmod_Improper_Torsional_Energy-OPLS-2005>
15.7999095916748

> <r_mmod_Van_der_Waal_Energy-OPLS-2005>
130.374130249023

> <r_mmod_Electrostatic_Energy-OPLS-2005>
-327.018341064453

> <r_mmod_Solvation_Energy-OPLS-2005>
-202.648208618164

> <b_mmod_Minimization_Converged-OPLS-2005>
0

> <r_mmod_RMS_Derivative-OPLS-2005>
0.201386645436287

$$$$
15
                    3D
 Structure written by MMmdl.
162170  0  0  1  0            999 V2000
  -30.7605  -14.4715   20.5403 C   0  0  0  0  0  0
  -30.4103  -12.2799   19.4876 C   0  0  0  0  0  0
  -29.5326  -12.4941   18.2391 C   0  0  0  0  0  0
  -28.0393  -12.3906   18.6116 C   0  0  0  0  0  0
  -27.6655  -13.2319   19.8649 C   0  0  2  0  0  0
  -28.6972  -13.0674   21.0049 C   0  0  0  0  0  0
  -25.2608  -13.8223   20.5658 C   0  0  0  0  0  0
  -24.1883  -13.0469   20.9186 C   0  0  0  0  0  0
  -24.6484  -11.6953   20.8759 C   0  0  0  0  0  0
  -23.9154  -10.4314   21.0380 C   0  0  0  0  0  0
  -24.3687   -9.4241   21.9142 C   0  0  0  0  0  0
  -23.6319   -8.2300   22.0732 C   0  0  0  0  0  0
  -22.4287   -8.0346   21.3554 C   0  0  0  0  0  0
  -21.9954   -9.0330   20.4644 C   0  0  0  0  0  0
  -22.7318  -10.2173   20.3019 C   0  0  0  0  0  0
  -21.6857   -6.0790   22.5300 C   0  0  0  0  0  0
  -21.4042   -6.5667   23.8245 C   0  0  0  0  0  0
  -21.3670   -5.6788   24.9185 C   0  0  0  0  0  0
  -21.6028   -4.3063   24.7194 C   0  0  0  0  0  0
  -21.8817   -3.8181   23.4301 C   0  0  0  0  0  0
  -21.9208   -4.7021   22.3397 C   0  0  0  0  0  0
  -22.7909  -13.5281   21.1783 C   0  0  0  0  0  0
  -22.1643   -4.2240   21.0958 F   0  0  0  0  0  0
  -21.5606   -3.4519   25.7675 F   0  0  0  0  0  0
  -30.0381  -13.3188   20.4640 N   0  0  0  0  0  0
  -26.3076  -12.9453   20.3260 N   0  0  0  0  0  0
  -25.9419  -11.6586   20.5703 N   0  0  0  0  0  0
  -22.0502  -12.8338   22.0363 N   0  0  0  0  0  0
  -25.4250  -15.1943   20.4121 N   0  0  0  0  0  0
  -31.9025  -14.5344   20.0799 O   0  0  0  0  0  0
  -21.6637   -6.8940   21.4257 O   0  0  0  0  0  0
  -22.3604  -14.5554   20.6557 O   0  0  0  0  0  0
  -24.6166  -31.8694   23.2132 C   0  0  0  0  0  0
  -25.9066  -32.4835   23.8434 C   0  0  1  0  0  0
  -27.2302  -27.4805   20.0854 C   0  0  0  0  0  0
  -25.5906  -33.8637   24.2344 N   0  0  0  0  0  0
  -23.4001  -30.5001   21.5506 C   0  0  2  0  0  0
  -24.8455  -28.9680   20.1159 C   0  0  0  0  0  0
  -22.7384  -29.4710   22.4952 C   0  0  0  0  0  0
  -18.0274  -28.1376   22.8506 C   0  0  0  0  0  0
  -24.1460  -36.7359   23.2639 C   0  0  0  0  0  0
  -25.9285  -30.8529   21.3578 C   0  0  0  0  0  0
  -26.0051  -29.4905   20.7076 C   0  0  0  0  0  0
  -27.2044  -28.7526   20.6926 C   0  0  0  0  0  0
  -26.0558  -26.9502   19.5219 C   0  0  0  0  0  0
  -24.8623  -27.6940   19.5230 C   0  0  0  0  0  0
  -23.6108  -29.8379   20.1619 C   0  0  0  0  0  0
  -25.4079  -36.3143   24.0346 C   0  0  1  0  0  0
  -20.5860  -28.3686   23.1291 C   0  0  2  0  0  0
  -20.6748  -26.9409   22.5409 C   0  0  0  0  0  0
  -19.5737  -26.6377   21.5203 C   0  0  0  0  0  0
  -18.1928  -26.7914   22.1620 C   0  0  0  0  0  0
  -19.1519  -28.8831   23.2905 C   0  0  0  0  0  0
  -18.9424  -30.1425   23.8942 C   0  0  0  0  0  0
  -17.6428  -30.6578   24.0543 C   0  0  0  0  0  0
  -25.9033  -34.9503   23.5128 C   0  0  0  0  0  0
  -16.5325  -29.9080   23.6290 C   0  0  0  0  0  0
  -16.7255  -28.6474   23.0358 C   0  0  0  0  0  0
  -26.4482  -31.6592   25.0743 C   0  0  0  0  0  0
  -25.3741  -31.3704   26.1476 C   0  0  0  0  0  0
  -27.0269  -30.3013   24.6142 C   0  0  0  0  0  0
  -27.6061  -32.4270   25.7551 C   0  0  0  0  0  0
  -27.5569  -37.1858   24.8460 C   0  0  0  0  0  0
  -21.4118  -29.3063   22.3669 N   0  0  0  0  0  0
  -26.4260  -37.3826   23.9419 N   0  0  0  0  0  0
  -24.6677  -31.0844   22.1020 N   0  0  0  0  0  0
  -23.4156  -28.8219   23.2969 O   0  0  0  0  0  0
  -28.3696  -26.7248   20.0674 O   0  0  0  0  0  0
  -26.5585  -34.8919   22.4704 O   0  0  0  0  0  0
  -23.5344  -32.1421   23.7539 O   0  0  0  0  0  0
  -29.5544  -18.9428   19.2656 C   0  0  0  0  0  0
  -29.4202  -20.3406   19.3142 C   0  0  0  0  0  0
  -30.0678  -18.9000   21.6265 C   0  0  0  0  0  0
  -29.9268  -18.2084   20.4046 C   0  0  0  0  0  0
  -29.6850  -21.0713   20.4965 C   0  0  0  0  0  0
  -29.9630  -20.3162   21.6857 C   0  0  0  0  0  0
  -30.2393  -16.7774   20.2146 C   0  0  0  0  0  0
  -30.1135  -15.6936   21.0230 C   0  0  0  0  0  0
  -28.9269  -23.3050   19.3450 C   0  0  0  0  0  0
  -29.4895  -24.2586   18.5722 C   0  0  0  0  0  0
  -29.6994  -22.5730   20.3851 C   0  0  0  0  0  0
  -30.1828  -20.9509   23.0569 C   0  0  0  0  0  0
  -28.7572  -25.1463   17.5718 C   0  0  0  0  0  0
  -29.0908  -26.6575   17.7255 C   0  0  0  0  0  0
  -29.3695  -27.1580   19.1599 C   0  0  0  0  0  0
  -30.4312  -23.2891   21.1301 N   0  0  0  0  0  0
  -31.4704  -12.3005   19.2281 H   0  0  0  0  0  0
  -30.2324  -11.2897   19.9154 H   0  0  0  0  0  0
  -29.7876  -11.7529   17.4772 H   0  0  0  0  0  0
  -29.7413  -13.4741   17.8065 H   0  0  0  0  0  0
  -27.8109  -11.3399   18.7854 H   0  0  0  0  0  0
  -27.4299  -12.7008   17.7620 H   0  0  0  0  0  0
  -27.6924  -14.2776   19.5605 H   0  0  0  0  0  0
  -28.6563  -12.0576   21.4088 H   0  0  0  0  0  0
  -28.4634  -13.7321   21.8369 H   0  0  0  0  0  0
  -25.2838   -9.5724   22.4703 H   0  0  0  0  0  0
  -24.0062   -7.4690   22.7442 H   0  0  0  0  0  0
  -21.0883   -8.8880   19.8942 H   0  0  0  0  0  0
  -22.3807  -10.9724   19.6114 H   0  0  0  0  0  0
  -21.2029   -7.6161   23.9801 H   0  0  0  0  0  0
  -21.1464   -6.0470   25.9096 H   0  0  0  0  0  0
  -22.0570   -2.7653   23.2752 H   0  0  0  0  0  0
  -22.4026  -12.0072   22.4956 H   0  0  0  0  0  0
  -21.1063  -13.1360   22.2311 H   0  0  0  0  0  0
  -24.6581  -15.8419   20.5495 H   0  0  0  0  0  0
  -26.2824  -15.6539   20.1316 H   0  0  0  0  0  0
  -26.7178  -32.5512   23.1233 H   0  0  0  0  0  0
  -24.9993  -33.9792   25.0447 H   0  0  0  0  0  0
  -22.6962  -31.3221   21.4099 H   0  0  0  0  0  0
  -23.3691  -35.9720   23.3291 H   0  0  0  0  0  0
  -24.3567  -36.8965   22.2053 H   0  0  0  0  0  0
  -23.7235  -37.6580   23.6649 H   0  0  0  0  0  0
  -26.0248  -31.6202   20.5876 H   0  0  0  0  0  0
  -26.8278  -30.9135   21.9600 H   0  0  0  0  0  0
  -28.1023  -29.1537   21.1453 H   0  0  0  0  0  0
  -26.0634  -25.9676   19.0748 H   0  0  0  0  0  0
  -23.9718  -27.2800   19.0697 H   0  0  0  0  0  0
  -23.7369  -30.6186   19.4115 H   0  0  0  0  0  0
  -22.7310  -29.2713   19.8479 H   0  0  0  0  0  0
  -25.1258  -36.2038   25.0841 H   0  0  0  0  0  0
  -21.0019  -28.3262   24.1371 H   0  0  0  0  0  0
  -20.5621  -26.2315   23.3614 H   0  0  0  0  0  0
  -21.6634  -26.7429   22.1209 H   0  0  0  0  0  0
  -19.6892  -25.6278   21.1230 H   0  0  0  0  0  0
  -19.6657  -27.3196   20.6722 H   0  0  0  0  0  0
  -17.4201  -26.6689   21.4002 H   0  0  0  0  0  0
  -18.0295  -26.0045   22.8992 H   0  0  0  0  0  0
  -19.7900  -30.7224   24.2367 H   0  0  0  0  0  0
  -17.4962  -31.6271   24.5133 H   0  0  0  0  0  0
  -15.5315  -30.2988   23.7550 H   0  0  0  0  0  0
  -15.8657  -28.0765   22.7092 H   0  0  0  0  0  0
  -24.5985  -30.6981   25.7816 H   0  0  0  0  0  0
  -24.8869  -32.2844   26.4878 H   0  0  0  0  0  0
  -25.8097  -30.8937   27.0273 H   0  0  0  0  0  0
  -26.2833  -29.6840   24.1107 H   0  0  0  0  0  0
  -27.3863  -29.7197   25.4647 H   0  0  0  0  0  0
  -27.8742  -30.4226   23.9386 H   0  0  0  0  0  0
  -27.2742  -33.3593   26.2121 H   0  0  0  0  0  0
  -28.3961  -32.6773   25.0466 H   0  0  0  0  0  0
  -28.0655  -31.8392   26.5501 H   0  0  0  0  0  0
  -28.2613  -38.0130   24.7492 H   0  0  0  0  0  0
  -28.1033  -36.2672   24.6301 H   0  0  0  0  0  0
  -27.2291  -37.1544   25.8859 H   0  0  0  0  0  0
  -20.9254  -29.8805   21.6932 H   0  0  0  0  0  0
  -26.0141  -38.2896   24.1439 H   0  0  0  0  0  0
  -29.4230  -18.4301   18.3224 H   0  0  0  0  0  0
  -29.1921  -20.8573   18.3954 H   0  0  0  0  0  0
  -30.3431  -18.3537   22.5186 H   0  0  0  0  0  0
  -30.7104  -16.6030   19.2528 H   0  0  0  0  0  0
  -29.6256  -15.7319   21.9868 H   0  0  0  0  0  0
  -27.8788  -23.0382   19.2504 H   0  0  0  0  0  0
  -30.5507  -24.4531   18.6672 H   0  0  0  0  0  0
  -29.7686  -20.3091   23.8352 H   0  0  0  0  0  0
  -29.7096  -21.9240   23.1850 H   0  0  0  0  0  0
  -31.2520  -21.0554   23.2494 H   0  0  0  0  0  0
  -27.6815  -24.9930   17.6688 H   0  0  0  0  0  0
  -29.0029  -24.8253   16.5589 H   0  0  0  0  0  0
  -28.2811  -27.2532   17.3024 H   0  0  0  0  0  0
  -29.9745  -26.8955   17.1303 H   0  0  0  0  0  0
  -29.4613  -28.2433   19.1639 H   0  0  0  0  0  0
  -30.3296  -26.7702   19.5055 H   0  0  0  0  0  0
  -30.9676  -22.7244   21.7784 H   0  0  0  0  0  0
  1 25  1  0  0  0
  1 30  2  0  0  0
  1 78  1  0  0  0
  2  3  1  0  0  0
  2 25  1  0  0  0
  2 87  1  0  0  0
  2 88  1  0  0  0
  3  4  1  0  0  0
  3 89  1  0  0  0
  3 90  1  0  0  0
  4  5  1  0  0  0
  4 91  1  0  0  0
  4 92  1  0  0  0
  5  6  1  0  0  0
  5 26  1  0  0  0
  5 93  1  0  0  0
  6 25  1  0  0  0
  6 94  1  0  0  0
  6 95  1  0  0  0
  7  8  2  0  0  0
  7 26  1  0  0  0
  7 29  1  0  0  0
  8  9  1  0  0  0
  8 22  1  0  0  0
  9 10  1  0  0  0
  9 27  2  0  0  0
 10 11  2  0  0  0
 10 15  1  0  0  0
 11 12  1  0  0  0
 11 96  1  0  0  0
 12 13  2  0  0  0
 12 97  1  0  0  0
 13 14  1  0  0  0
 13 31  1  0  0  0
 14 15  2  0  0  0
 14 98  1  0  0  0
 15 99  1  0  0  0
 16 17  2  0  0  0
 16 21  1  0  0  0
 16 31  1  0  0  0
 17 18  1  0  0  0
 17100  1  0  0  0
 18 19  2  0  0  0
 18101  1  0  0  0
 19 20  1  0  0  0
 19 24  1  0  0  0
 20 21  2  0  0  0
 20102  1  0  0  0
 21 23  1  0  0  0
 22 28  1  0  0  0
 22 32  2  0  0  0
 26 27  1  0  0  0
 28103  1  0  0  0
 28104  1  0  0  0
 29105  1  0  0  0
 29106  1  0  0  0
 33 34  1  0  0  0
 33 66  1  0  0  0
 33 70  2  0  0  0
 34 36  1  0  0  0
 34 59  1  0  0  0
 34107  1  0  0  0
 35 44  2  0  0  0
 35 45  1  0  0  0
 35 68  1  0  0  0
 36 56  1  0  0  0
 36108  1  0  0  0
 37 39  1  0  0  0
 37 47  1  0  0  0
 37 66  1  0  0  0
 37109  1  0  0  0
 38 43  2  0  0  0
 38 46  1  0  0  0
 38 47  1  0  0  0
 39 64  1  0  0  0
 39 67  2  0  0  0
 40 52  1  0  0  0
 40 53  2  0  0  0
 40 58  1  0  0  0
 41110  1  0  0  0
 41111  1  0  0  0
 41112  1  0  0  0
 41 48  1  0  0  0
 42 43  1  0  0  0
 42 66  1  0  0  0
 42113  1  0  0  0
 42114  1  0  0  0
 43 44  1  0  0  0
 44115  1  0  0  0
 45 46  2  0  0  0
 45116  1  0  0  0
 46117  1  0  0  0
 47118  1  0  0  0
 47119  1  0  0  0
 48 56  1  0  0  0
 48 65  1  0  0  0
 48120  1  0  0  0
 49 50  1  0  0  0
 49 53  1  0  0  0
 49 64  1  0  0  0
 49121  1  0  0  0
 50 51  1  0  0  0
 50122  1  0  0  0
 50123  1  0  0  0
 51 52  1  0  0  0
 51124  1  0  0  0
 51125  1  0  0  0
 52126  1  0  0  0
 52127  1  0  0  0
 53 54  1  0  0  0
 54 55  2  0  0  0
 54128  1  0  0  0
 55 57  1  0  0  0
 55129  1  0  0  0
 56 69  2  0  0  0
 57 58  2  0  0  0
 57130  1  0  0  0
 58131  1  0  0  0
 59 60  1  0  0  0
 59 61  1  0  0  0
 59 62  1  0  0  0
 60132  1  0  0  0
 60133  1  0  0  0
 60134  1  0  0  0
 61135  1  0  0  0
 61136  1  0  0  0
 61137  1  0  0  0
 62138  1  0  0  0
 62139  1  0  0  0
 62140  1  0  0  0
 63 65  1  0  0  0
 63141  1  0  0  0
 63142  1  0  0  0
 63143  1  0  0  0
 64144  1  0  0  0
 65145  1  0  0  0
 68 85  1  0  0  0
 71 72  2  0  0  0
 71 74  1  0  0  0
 71146  1  0  0  0
 72 75  1  0  0  0
 72147  1  0  0  0
 73 74  2  0  0  0
 73 76  1  0  0  0
 73148  1  0  0  0
 74 77  1  0  0  0
 75 76  2  0  0  0
 75 81  1  0  0  0
 76 82  1  0  0  0
 77 78  2  0  0  0
 77149  1  0  0  0
 78150  1  0  0  0
 79 80  2  0  0  0
 79 81  1  0  0  0
 79151  1  0  0  0
 80 83  1  0  0  0
 80152  1  0  0  0
 81 86  2  0  0  0
 82153  1  0  0  0
 82154  1  0  0  0
 82155  1  0  0  0
 83 84  1  0  0  0
 83156  1  0  0  0
 83157  1  0  0  0
 84 85  1  0  0  0
 84158  1  0  0  0
 84159  1  0  0  0
 85160  1  0  0  0
 85161  1  0  0  0
 86162  1  0  0  0
M  ISO  4   1 100  68 101  78 100  85 101
M  END
> <chiral flag>
0

> <version>
0

> <s_m_source_file>
/data/baiqing/PycharmProjects/Reinvent-master-3.2/result/LINK_invent/BTK/process_docking_weight1_custom_product_contain_oxygen_bond_distance_aromatic_linkinvent_7_9_3/rearranged_h_0122.sdf

> <i_m_source_file_index>
16

> <r_mmod_Potential_Energy-OPLS-2005>
82.9708862304688

> <r_mmod_Stretch_Energy-OPLS-2005>
39.9614334106445

> <r_mmod_Bend_Energy-OPLS-2005>
119.05973815918

> <r_mmod_Torsional_Energy-OPLS-2005>
260.746734619141

> <r_mmod_Improper_Torsional_Energy-OPLS-2005>
5.3910984992981

> <r_mmod_Van_der_Waal_Energy-OPLS-2005>
159.378936767578

> <r_mmod_Electrostatic_Energy-OPLS-2005>
-319.596588134766

> <r_mmod_Solvation_Energy-OPLS-2005>
-199.093185424805

> <b_mmod_Minimization_Converged-OPLS-2005>
0

> <r_mmod_RMS_Derivative-OPLS-2005>
6.17373371124268

$$$$
16
                    3D
 Structure written by MMmdl.
157165  0  0  1  0            999 V2000
  -30.5624  -14.7547   20.4567 C   0  0  0  0  0  0
  -30.4515  -12.4536   19.4756 C   0  0  0  0  0  0
  -29.5220  -12.5081   18.2400 C   0  0  0  0  0  0
  -28.0455  -12.3237   18.6475 C   0  0  0  0  0  0
  -27.6467  -13.2184   19.8498 C   0  0  2  0  0  0
  -28.6910  -13.1333   20.9834 C   0  0  0  0  0  0
  -25.2554  -13.8158   20.5680 C   0  0  0  0  0  0
  -24.1825  -13.0424   20.9188 C   0  0  0  0  0  0
  -24.6396  -11.6898   20.8734 C   0  0  0  0  0  0
  -23.9065  -10.4285   21.0403 C   0  0  0  0  0  0
  -24.3617   -9.4202   21.9182 C   0  0  0  0  0  0
  -23.6290   -8.2240   22.0751 C   0  0  0  0  0  0
  -22.4273   -8.0279   21.3542 C   0  0  0  0  0  0
  -21.9910   -9.0252   20.4644 C   0  0  0  0  0  0
  -22.7238  -10.2129   20.3051 C   0  0  0  0  0  0
  -21.6852   -6.0733   22.5277 C   0  0  0  0  0  0
  -21.4014   -6.5636   23.8211 C   0  0  0  0  0  0
  -21.3660   -5.6788   24.9173 C   0  0  0  0  0  0
  -21.6045   -4.3051   24.7223 C   0  0  0  0  0  0
  -21.8821   -3.8143   23.4344 C   0  0  0  0  0  0
  -21.9195   -4.6962   22.3401 C   0  0  0  0  0  0
  -22.7849  -13.5222   21.1857 C   0  0  0  0  0  0
  -22.1663   -4.2147   21.0977 F   0  0  0  0  0  0
  -21.5631   -3.4535   25.7736 F   0  0  0  0  0  0
  -29.9990  -13.4970   20.4226 N   0  0  0  0  0  0
  -26.2965  -12.9333   20.3262 N   0  0  0  0  0  0
  -25.9321  -11.6492   20.5729 N   0  0  0  0  0  0
  -22.0493  -12.8216   22.0415 N   0  0  0  0  0  0
  -25.4279  -15.1878   20.4121 N   0  0  0  0  0  0
  -31.7467  -14.8935   20.1345 O   0  0  0  0  0  0
  -21.6638   -6.8875   21.4238 O   0  0  0  0  0  0
  -22.3536  -14.5534   20.6710 O   0  0  0  0  0  0
  -24.6312  -31.8553   23.1971 C   0  0  0  0  0  0
  -25.9133  -32.4759   23.8325 C   0  0  1  0  0  0
  -27.2249  -27.2691   20.1355 C   0  0  0  0  0  0
  -25.5928  -33.8557   24.2254 N   0  0  0  0  0  0
  -23.4285  -30.4765   21.5405 C   0  0  2  0  0  0
  -24.8778  -28.9203   20.1126 C   0  0  0  0  0  0
  -22.7503  -29.4605   22.4916 C   0  0  0  0  0  0
  -18.0290  -28.1395   22.8493 C   0  0  0  0  0  0
  -24.1484  -36.7284   23.2641 C   0  0  0  0  0  0
  -25.9732  -30.7719   21.3743 C   0  0  0  0  0  0
  -26.0490  -29.3933   20.7191 C   0  0  0  0  0  0
  -27.2292  -28.5819   20.7150 C   0  0  0  0  0  0
  -26.0332  -26.8586   19.5028 C   0  0  0  0  0  0
  -24.8742  -27.6607   19.4921 C   0  0  0  0  0  0
  -23.6472  -29.8069   20.1579 C   0  0  0  0  0  0
  -25.4111  -36.3072   24.0328 C   0  0  1  0  0  0
  -20.5894  -28.3704   23.1275 C   0  0  2  0  0  0
  -20.6780  -26.9421   22.5415 C   0  0  0  0  0  0
  -19.5752  -26.6386   21.5222 C   0  0  0  0  0  0
  -18.1930  -26.7943   22.1627 C   0  0  0  0  0  0
  -19.1544  -28.8867   23.2880 C   0  0  0  0  0  0
  -18.9467  -30.1470   23.8892 C   0  0  0  0  0  0
  -17.6465  -30.6595   24.0566 C   0  0  0  0  0  0
  -25.9051  -34.9443   23.5093 C   0  0  0  0  0  0
  -16.5356  -29.9094   23.6335 C   0  0  0  0  0  0
  -16.7278  -28.6513   23.0357 C   0  0  0  0  0  0
  -26.4496  -31.6585   25.0717 C   0  0  0  0  0  0
  -25.3716  -31.3735   26.1437 C   0  0  0  0  0  0
  -27.0346  -30.3002   24.6200 C   0  0  0  0  0  0
  -27.6050  -32.4324   25.7493 C   0  0  0  0  0  0
  -27.5574  -37.1801   24.8468 C   0  0  0  0  0  0
  -21.4207  -29.3052   22.3668 N   0  0  0  0  0  0
  -26.4285  -37.3775   23.9413 N   0  0  0  0  0  0
  -24.6969  -31.0527   22.0940 N   0  0  0  0  0  0
  -23.4205  -28.8141   23.3009 O   0  0  0  0  0  0
  -28.3112  -26.3691   20.1492 O   0  0  0  0  0  0
  -26.5632  -34.8920   22.4668 O   0  0  0  0  0  0
  -23.5461  -32.1361   23.7277 O   0  0  0  0  0  0
  -28.3529  -19.6030   24.1316 C   0  0  0  0  0  0
  -28.3028  -20.2908   22.9165 C   0  0  0  0  0  0
  -29.1912  -18.5003   24.2527 C   0  0  0  0  0  0
  -29.0358  -19.9095   21.7572 C   0  0  0  0  0  0
  -29.8576  -17.9960   23.1262 C   0  0  0  0  0  0
  -29.6748  -18.5678   21.8219 C   0  0  0  0  0  0
  -29.0586  -21.0694   20.7195 C   0  0  0  0  0  0
  -28.8117  -22.4171   21.0186 C   0  0  0  0  0  0
  -28.7285  -23.6919   20.1559 C   0  0  0  0  0  0
  -30.7910  -16.8217   23.4114 C   0  0  0  0  0  0
  -30.1754  -17.6140   20.6555 C   0  0  0  0  0  0
  -28.0699  -25.0230   20.7742 C   0  0  0  0  0  0
  -29.6486  -16.0639   20.6846 C   0  0  0  0  0  0
  -29.1392  -23.7147   18.9918 O   0  0  0  0  0  0
  -31.4898  -12.5977   19.1730 H   0  0  0  0  0  0
  -30.4114  -11.4706   19.9474 H   0  0  0  0  0  0
  -29.8095  -11.7409   17.5204 H   0  0  0  0  0  0
  -29.6448  -13.4658   17.7313 H   0  0  0  0  0  0
  -27.9047  -11.2740   18.9081 H   0  0  0  0  0  0
  -27.3905  -12.5163   17.7970 H   0  0  0  0  0  0
  -27.6395  -14.2379   19.4699 H   0  0  0  0  0  0
  -28.7260  -12.1250   21.3986 H   0  0  0  0  0  0
  -28.4172  -13.7859   21.8123 H   0  0  0  0  0  0
  -25.2764   -9.5678   22.4753 H   0  0  0  0  0  0
  -24.0002   -7.4630   22.7468 H   0  0  0  0  0  0
  -21.0843   -8.8770   19.8948 H   0  0  0  0  0  0
  -22.3700  -10.9668   19.6158 H   0  0  0  0  0  0
  -21.2002   -7.6144   23.9714 H   0  0  0  0  0  0
  -21.1482   -6.0517   25.9077 H   0  0  0  0  0  0
  -22.0601   -2.7605   23.2842 H   0  0  0  0  0  0
  -22.4108  -11.9877   22.4806 H   0  0  0  0  0  0
  -21.1107  -13.1237   22.2613 H   0  0  0  0  0  0
  -24.6673  -15.8470   20.5359 H   0  0  0  0  0  0
  -26.2890  -15.6296   20.1161 H   0  0  0  0  0  0
  -26.7203  -32.5413   23.1070 H   0  0  0  0  0  0
  -25.0078  -33.9691   25.0402 H   0  0  0  0  0  0
  -22.7251  -31.2985   21.3923 H   0  0  0  0  0  0
  -23.3748  -35.9614   23.3306 H   0  0  0  0  0  0
  -24.3572  -36.8901   22.2054 H   0  0  0  0  0  0
  -23.7230  -37.6483   23.6664 H   0  0  0  0  0  0
  -26.1098  -31.5308   20.6028 H   0  0  0  0  0  0
  -26.8521  -30.8244   22.0055 H   0  0  0  0  0  0
  -28.1280  -28.9421   21.1954 H   0  0  0  0  0  0
  -25.9909  -25.8914   19.0223 H   0  0  0  0  0  0
  -23.9781  -27.2942   19.0101 H   0  0  0  0  0  0
  -23.7708  -30.5819   19.4005 H   0  0  0  0  0  0
  -22.7662  -29.2393   19.8536 H   0  0  0  0  0  0
  -25.1290  -36.1922   25.0820 H   0  0  0  0  0  0
  -20.9988  -28.3279   24.1394 H   0  0  0  0  0  0
  -20.5686  -26.2311   23.3618 H   0  0  0  0  0  0
  -21.6644  -26.7445   22.1197 H   0  0  0  0  0  0
  -19.6910  -25.6296   21.1251 H   0  0  0  0  0  0
  -19.6691  -27.3202   20.6757 H   0  0  0  0  0  0
  -17.4203  -26.6703   21.4025 H   0  0  0  0  0  0
  -18.0313  -26.0085   22.9022 H   0  0  0  0  0  0
  -19.7943  -30.7294   24.2251 H   0  0  0  0  0  0
  -17.5020  -31.6274   24.5173 H   0  0  0  0  0  0
  -15.5359  -30.2995   23.7665 H   0  0  0  0  0  0
  -15.8676  -28.0832   22.7074 H   0  0  0  0  0  0
  -24.5910  -30.7054   25.7777 H   0  0  0  0  0  0
  -24.8877  -32.2901   26.4823 H   0  0  0  0  0  0
  -25.8033  -30.8953   27.0238 H   0  0  0  0  0  0
  -26.2930  -29.6751   24.1210 H   0  0  0  0  0  0
  -27.4018  -29.7262   25.4718 H   0  0  0  0  0  0
  -27.8809  -30.4277   23.9445 H   0  0  0  0  0  0
  -27.2663  -33.3638   26.2040 H   0  0  0  0  0  0
  -28.3884  -32.6858   25.0339 H   0  0  0  0  0  0
  -28.0694  -31.8463   26.5437 H   0  0  0  0  0  0
  -28.2602  -38.0089   24.7513 H   0  0  0  0  0  0
  -28.1057  -36.2622   24.6297 H   0  0  0  0  0  0
  -27.2292  -37.1458   25.8871 H   0  0  0  0  0  0
  -20.9395  -29.8772   21.6872 H   0  0  0  0  0  0
  -26.0161  -38.2848   24.1415 H   0  0  0  0  0  0
  -27.7985  -19.9645   24.9867 H   0  0  0  0  0  0
  -27.6656  -21.1607   22.9236 H   0  0  0  0  0  0
  -29.3018  -18.0229   25.2175 H   0  0  0  0  0  0
  -29.2552  -20.7918   19.6937 H   0  0  0  0  0  0
  -28.6485  -22.6758   22.0510 H   0  0  0  0  0  0
  -31.2956  -16.9722   24.3666 H   0  0  0  0  0  0
  -31.5815  -16.7066   22.6717 H   0  0  0  0  0  0
  -30.2371  -15.8866   23.4918 H   0  0  0  0  0  0
  -31.2649  -17.6352   20.6318 H   0  0  0  0  0  0
  -29.8683  -18.0661   19.7121 H   0  0  0  0  0  0
  -28.4120  -25.0948   21.8065 H   0  0  0  0  0  0
  -26.9984  -24.8378   20.8445 H   0  0  0  0  0  0
  -28.8898  -16.0158   19.9064 H   0  0  0  0  0  0
  -29.0711  -15.9041   21.5907 H   0  0  0  0  0  0
  1 25  1  0  0  0
  1 30  2  0  0  0
  1 83  1  0  0  0
  2  3  1  0  0  0
  2 25  1  0  0  0
  2 85  1  0  0  0
  2 86  1  0  0  0
  3  4  1  0  0  0
  3 87  1  0  0  0
  3 88  1  0  0  0
  4  5  1  0  0  0
  4 89  1  0  0  0
  4 90  1  0  0  0
  5  6  1  0  0  0
  5 26  1  0  0  0
  5 91  1  0  0  0
  6 25  1  0  0  0
  6 92  1  0  0  0
  6 93  1  0  0  0
  7  8  2  0  0  0
  7 26  1  0  0  0
  7 29  1  0  0  0
  8  9  1  0  0  0
  8 22  1  0  0  0
  9 10  1  0  0  0
  9 27  2  0  0  0
 10 11  2  0  0  0
 10 15  1  0  0  0
 11 12  1  0  0  0
 11 94  1  0  0  0
 12 13  2  0  0  0
 12 95  1  0  0  0
 13 14  1  0  0  0
 13 31  1  0  0  0
 14 15  2  0  0  0
 14 96  1  0  0  0
 15 97  1  0  0  0
 16 17  2  0  0  0
 16 21  1  0  0  0
 16 31  1  0  0  0
 17 18  1  0  0  0
 17 98  1  0  0  0
 18 19  2  0  0  0
 18 99  1  0  0  0
 19 20  1  0  0  0
 19 24  1  0  0  0
 20 21  2  0  0  0
 20100  1  0  0  0
 21 23  1  0  0  0
 22 28  1  0  0  0
 22 32  2  0  0  0
 26 27  1  0  0  0
 28101  1  0  0  0
 28102  1  0  0  0
 29103  1  0  0  0
 29104  1  0  0  0
 33 34  1  0  0  0
 33 66  1  0  0  0
 33 70  2  0  0  0
 34 36  1  0  0  0
 34 59  1  0  0  0
 34105  1  0  0  0
 35 44  2  0  0  0
 35 45  1  0  0  0
 35 68  1  0  0  0
 36 56  1  0  0  0
 36106  1  0  0  0
 37 39  1  0  0  0
 37 47  1  0  0  0
 37 66  1  0  0  0
 37107  1  0  0  0
 38 43  2  0  0  0
 38 46  1  0  0  0
 38 47  1  0  0  0
 39 64  1  0  0  0
 39 67  2  0  0  0
 40 52  1  0  0  0
 40 53  2  0  0  0
 40 58  1  0  0  0
 41108  1  0  0  0
 41109  1  0  0  0
 41110  1  0  0  0
 41 48  1  0  0  0
 42 43  1  0  0  0
 42 66  1  0  0  0
 42111  1  0  0  0
 42112  1  0  0  0
 43 44  1  0  0  0
 44113  1  0  0  0
 45 46  2  0  0  0
 45114  1  0  0  0
 46115  1  0  0  0
 47116  1  0  0  0
 47117  1  0  0  0
 48 56  1  0  0  0
 48 65  1  0  0  0
 48118  1  0  0  0
 49 50  1  0  0  0
 49 53  1  0  0  0
 49 64  1  0  0  0
 49119  1  0  0  0
 50 51  1  0  0  0
 50120  1  0  0  0
 50121  1  0  0  0
 51 52  1  0  0  0
 51122  1  0  0  0
 51123  1  0  0  0
 52124  1  0  0  0
 52125  1  0  0  0
 53 54  1  0  0  0
 54 55  2  0  0  0
 54126  1  0  0  0
 55 57  1  0  0  0
 55127  1  0  0  0
 56 69  2  0  0  0
 57 58  2  0  0  0
 57128  1  0  0  0
 58129  1  0  0  0
 59 60  1  0  0  0
 59 61  1  0  0  0
 59 62  1  0  0  0
 60130  1  0  0  0
 60131  1  0  0  0
 60132  1  0  0  0
 61133  1  0  0  0
 61134  1  0  0  0
 61135  1  0  0  0
 62136  1  0  0  0
 62137  1  0  0  0
 62138  1  0  0  0
 63 65  1  0  0  0
 63139  1  0  0  0
 63140  1  0  0  0
 63141  1  0  0  0
 64142  1  0  0  0
 65143  1  0  0  0
 68 82  1  0  0  0
 71 72  2  0  0  0
 71 73  1  0  0  0
 71144  1  0  0  0
 72 74  1  0  0  0
 72145  1  0  0  0
 73 75  2  0  0  0
 73146  1  0  0  0
 74 76  2  0  0  0
 74 77  1  0  0  0
 75 76  1  0  0  0
 75 80  1  0  0  0
 76 81  1  0  0  0
 77 78  2  0  0  0
 77147  1  0  0  0
 78 79  1  0  0  0
 78148  1  0  0  0
 79 82  1  0  0  0
 79 84  2  0  0  0
 80149  1  0  0  0
 80150  1  0  0  0
 80151  1  0  0  0
 81 83  1  0  0  0
 81152  1  0  0  0
 81153  1  0  0  0
 82154  1  0  0  0
 82155  1  0  0  0
 83156  1  0  0  0
 83157  1  0  0  0
M  ISO  4   1 100  68 101  82 101  83 100
M  END
> <chiral flag>
0

> <version>
0

> <s_m_source_file>
/data/baiqing/PycharmProjects/Reinvent-master-3.2/result/LINK_invent/BTK/process_docking_weight1_custom_product_contain_oxygen_bond_distance_aromatic_linkinvent_7_9_3/rearranged_h_0122.sdf

> <i_m_source_file_index>
17

> <r_mmod_Potential_Energy-OPLS-2005>
284.776885986328

> <r_mmod_Stretch_Energy-OPLS-2005>
145.015365600586

> <r_mmod_Bend_Energy-OPLS-2005>
196.675384521484

> <r_mmod_Torsional_Energy-OPLS-2005>
248.985443115234

> <r_mmod_Improper_Torsional_Energy-OPLS-2005>
4.89030885696411

> <r_mmod_Van_der_Waal_Energy-OPLS-2005>
150.891967773438

> <r_mmod_Electrostatic_Energy-OPLS-2005>
-332.173889160156

> <r_mmod_Solvation_Energy-OPLS-2005>
-214.979354858398

> <b_mmod_Minimization_Converged-OPLS-2005>
0

> <r_mmod_RMS_Derivative-OPLS-2005>
0.731846570968628

$$$$
17
                    3D
 Structure written by MMmdl.
156164  0  0  1  0            999 V2000
  -30.6436  -14.6634   20.4749 C   0  0  0  0  0  0
  -30.4405  -12.4050   19.4525 C   0  0  0  0  0  0
  -29.5079  -12.5073   18.2250 C   0  0  0  0  0  0
  -28.0318  -12.3440   18.6400 C   0  0  0  0  0  0
  -27.6482  -13.2190   19.8634 C   0  0  2  0  0  0
  -28.7043  -13.1030   20.9882 C   0  0  0  0  0  0
  -25.2374  -13.7993   20.5628 C   0  0  0  0  0  0
  -24.1732  -13.0271   20.9246 C   0  0  0  0  0  0
  -24.6388  -11.6797   20.8795 C   0  0  0  0  0  0
  -23.9069  -10.4206   21.0424 C   0  0  0  0  0  0
  -24.3617   -9.4138   21.9204 C   0  0  0  0  0  0
  -23.6273   -8.2191   22.0767 C   0  0  0  0  0  0
  -22.4259   -8.0250   21.3545 C   0  0  0  0  0  0
  -21.9897   -9.0227   20.4648 C   0  0  0  0  0  0
  -22.7246  -10.2087   20.3062 C   0  0  0  0  0  0
  -21.6836   -6.0720   22.5279 C   0  0  0  0  0  0
  -21.4010   -6.5629   23.8211 C   0  0  0  0  0  0
  -21.3654   -5.6782   24.9171 C   0  0  0  0  0  0
  -21.6042   -4.3045   24.7220 C   0  0  0  0  0  0
  -21.8822   -3.8133   23.4343 C   0  0  0  0  0  0
  -21.9188   -4.6951   22.3400 C   0  0  0  0  0  0
  -22.7760  -13.5096   21.1873 C   0  0  0  0  0  0
  -22.1659   -4.2142   21.0973 F   0  0  0  0  0  0
  -21.5625   -3.4527   25.7732 F   0  0  0  0  0  0
  -30.0184  -13.4418   20.4135 N   0  0  0  0  0  0
  -26.2941  -12.9302   20.3342 N   0  0  0  0  0  0
  -25.9338  -11.6453   20.5833 N   0  0  0  0  0  0
  -22.0393  -12.8146   22.0452 N   0  0  0  0  0  0
  -25.3621  -15.1652   20.3823 N   0  0  0  0  0  0
  -31.8221  -14.7983   20.1349 O   0  0  0  0  0  0
  -21.6613   -6.8860   21.4241 O   0  0  0  0  0  0
  -22.3477  -14.5408   20.6697 O   0  0  0  0  0  0
  -24.6246  -31.8607   23.2039 C   0  0  0  0  0  0
  -25.9097  -32.4782   23.8371 C   0  0  1  0  0  0
  -27.2370  -27.3366   20.1043 C   0  0  0  0  0  0
  -25.5916  -33.8579   24.2300 N   0  0  0  0  0  0
  -23.4191  -30.4840   21.5459 C   0  0  2  0  0  0
  -24.8674  -28.9414   20.1127 C   0  0  0  0  0  0
  -22.7473  -29.4618   22.4930 C   0  0  0  0  0  0
  -18.0292  -28.1383   22.8481 C   0  0  0  0  0  0
  -24.1491  -36.7296   23.2636 C   0  0  0  0  0  0
  -25.9598  -30.7951   21.3752 C   0  0  0  0  0  0
  -26.0362  -29.4242   20.7158 C   0  0  0  0  0  0
  -27.2221  -28.6330   20.7038 C   0  0  0  0  0  0
  -26.0402  -26.9024   19.4845 C   0  0  0  0  0  0
  -24.8700  -27.6843   19.4921 C   0  0  0  0  0  0
  -23.6355  -29.8211   20.1607 C   0  0  0  0  0  0
  -25.4107  -36.3081   24.0337 C   0  0  1  0  0  0
  -20.5888  -28.3686   23.1273 C   0  0  2  0  0  0
  -20.6780  -26.9410   22.5400 C   0  0  0  0  0  0
  -19.5754  -26.6382   21.5202 C   0  0  0  0  0  0
  -18.1938  -26.7925   22.1624 C   0  0  0  0  0  0
  -19.1542  -28.8851   23.2876 C   0  0  0  0  0  0
  -18.9467  -30.1453   23.8896 C   0  0  0  0  0  0
  -17.6466  -30.6581   24.0563 C   0  0  0  0  0  0
  -25.9044  -34.9449   23.5120 C   0  0  0  0  0  0
  -16.5358  -29.9080   23.6326 C   0  0  0  0  0  0
  -16.7278  -28.6498   23.0345 C   0  0  0  0  0  0
  -26.4493  -31.6582   25.0730 C   0  0  0  0  0  0
  -25.3738  -31.3725   26.1472 C   0  0  0  0  0  0
  -27.0331  -30.3008   24.6174 C   0  0  0  0  0  0
  -27.6080  -32.4299   25.7474 C   0  0  0  0  0  0
  -27.5586  -37.1789   24.8456 C   0  0  0  0  0  0
  -21.4186  -29.3041   22.3670 N   0  0  0  0  0  0
  -26.4284  -37.3776   23.9419 N   0  0  0  0  0  0
  -24.6865  -31.0625   22.0992 N   0  0  0  0  0  0
  -23.4199  -28.8153   23.3007 O   0  0  0  0  0  0
  -28.3696  -26.5070   20.1400 O   0  0  0  0  0  0
  -26.5610  -34.8910   22.4685 O   0  0  0  0  0  0
  -23.5410  -32.1399   23.7370 O   0  0  0  0  0  0
  -31.2314  -19.3421   20.7370 C   0  0  0  0  0  0
  -31.1867  -17.9127   20.7971 C   0  0  0  0  0  0
  -28.9087  -19.4207   20.1753 C   0  0  0  0  0  0
  -30.0906  -20.1437   20.4443 C   0  0  0  0  0  0
  -28.8516  -17.9994   20.2369 C   0  0  0  0  0  0
  -29.9844  -17.1923   20.5655 C   0  0  0  0  0  0
  -30.1510  -21.6646   20.4451 C   0  0  0  0  0  0
  -29.1706  -22.5917   20.1853 C   0  0  0  0  0  0
  -29.3556  -24.1004   20.2574 C   0  0  0  0  0  0
  -27.4346  -16.9071   18.4617 C   0  0  0  0  0  0
  -27.5188  -17.3648   19.9252 C   0  0  0  0  0  0
  -28.1623  -25.0626   19.8954 C   0  0  0  0  0  0
  -29.8295  -15.7374   20.7234 N   0  0  0  0  0  0
  -30.4317  -24.6033   20.5982 O   0  0  0  0  0  0
  -31.4814  -12.5248   19.1462 H   0  0  0  0  0  0
  -30.3740  -11.4158   19.9091 H   0  0  0  0  0  0
  -29.7725  -11.7495   17.4861 H   0  0  0  0  0  0
  -29.6469  -13.4739   17.7361 H   0  0  0  0  0  0
  -27.8744  -11.2909   18.8788 H   0  0  0  0  0  0
  -27.3764  -12.5648   17.7967 H   0  0  0  0  0  0
  -27.6503  -14.2487   19.5135 H   0  0  0  0  0  0
  -28.7215  -12.0900   21.3936 H   0  0  0  0  0  0
  -28.4551  -13.7559   21.8259 H   0  0  0  0  0  0
  -25.2763   -9.5610   22.4781 H   0  0  0  0  0  0
  -23.9963   -7.4579   22.7491 H   0  0  0  0  0  0
  -21.0822   -8.8766   19.8956 H   0  0  0  0  0  0
  -22.3730  -10.9636   19.6169 H   0  0  0  0  0  0
  -21.2014   -7.6143   23.9714 H   0  0  0  0  0  0
  -21.1466   -6.0510   25.9073 H   0  0  0  0  0  0
  -22.0609   -2.7594   23.2844 H   0  0  0  0  0  0
  -22.3983  -11.9817   22.4878 H   0  0  0  0  0  0
  -21.1018  -13.1213   22.2635 H   0  0  0  0  0  0
  -24.5451  -15.7650   20.4260 H   0  0  0  0  0  0
  -26.1364  -15.5875   19.8903 H   0  0  0  0  0  0
  -26.7167  -32.5465   23.1125 H   0  0  0  0  0  0
  -25.0062  -33.9730   25.0445 H   0  0  0  0  0  0
  -22.7123  -31.3041   21.4031 H   0  0  0  0  0  0
  -23.3750  -35.9630   23.3278 H   0  0  0  0  0  0
  -24.3603  -36.8930   22.2056 H   0  0  0  0  0  0
  -23.7238  -37.6492   23.6666 H   0  0  0  0  0  0
  -26.0916  -31.5610   20.6097 H   0  0  0  0  0  0
  -26.8391  -30.8421   22.0056 H   0  0  0  0  0  0
  -28.1187  -28.9996   21.1843 H   0  0  0  0  0  0
  -25.9777  -25.9458   18.9882 H   0  0  0  0  0  0
  -23.9741  -27.3081   19.0158 H   0  0  0  0  0  0
  -23.7578  -30.5995   19.4066 H   0  0  0  0  0  0
  -22.7561  -29.2520   19.8539 H   0  0  0  0  0  0
  -25.1277  -36.1941   25.0828 H   0  0  0  0  0  0
  -20.9985  -28.3268   24.1394 H   0  0  0  0  0  0
  -20.5678  -26.2301   23.3601 H   0  0  0  0  0  0
  -21.6652  -26.7436   22.1197 H   0  0  0  0  0  0
  -19.6915  -25.6293   21.1233 H   0  0  0  0  0  0
  -19.6684  -27.3190   20.6730 H   0  0  0  0  0  0
  -17.4201  -26.6655   21.4039 H   0  0  0  0  0  0
  -18.0351  -26.0070   22.9023 H   0  0  0  0  0  0
  -19.7945  -30.7268   24.2266 H   0  0  0  0  0  0
  -17.5021  -31.6262   24.5164 H   0  0  0  0  0  0
  -15.5359  -30.2984   23.7640 H   0  0  0  0  0  0
  -15.8682  -28.0814   22.7058 H   0  0  0  0  0  0
  -24.5876  -30.7117   25.7799 H   0  0  0  0  0  0
  -24.8977  -32.2898   26.4949 H   0  0  0  0  0  0
  -25.8060  -30.8848   27.0218 H   0  0  0  0  0  0
  -26.2899  -29.6746   24.1224 H   0  0  0  0  0  0
  -27.4066  -29.7276   25.4669 H   0  0  0  0  0  0
  -27.8756  -30.4303   23.9376 H   0  0  0  0  0  0
  -27.2733  -33.3612   26.2053 H   0  0  0  0  0  0
  -28.3878  -32.6822   25.0276 H   0  0  0  0  0  0
  -28.0757  -31.8414   26.5377 H   0  0  0  0  0  0
  -28.2569  -38.0120   24.7548 H   0  0  0  0  0  0
  -28.1115  -36.2655   24.6213 H   0  0  0  0  0  0
  -27.2319  -37.1353   25.8860 H   0  0  0  0  0  0
  -20.9362  -29.8791   21.6901 H   0  0  0  0  0  0
  -26.0166  -38.2845   24.1443 H   0  0  0  0  0  0
  -32.1730  -19.8331   20.9404 H   0  0  0  0  0  0
  -32.0891  -17.3769   21.0553 H   0  0  0  0  0  0
  -28.0084  -19.9646   19.9282 H   0  0  0  0  0  0
  -31.1237  -22.0611   20.7042 H   0  0  0  0  0  0
  -28.1822  -22.2528   19.9139 H   0  0  0  0  0  0
  -26.4579  -16.4848   18.2283 H   0  0  0  0  0  0
  -28.1904  -16.1566   18.2303 H   0  0  0  0  0  0
  -27.5913  -17.7473   17.7847 H   0  0  0  0  0  0
  -26.7116  -18.0680   20.1387 H   0  0  0  0  0  0
  -27.3851  -16.5477   20.6266 H   0  0  0  0  0  0
  -27.2953  -24.7236   20.4634 H   0  0  0  0  0  0
  -27.9324  -24.9161   18.8399 H   0  0  0  0  0  0
  -28.8832  -15.4443   20.9062 H   0  0  0  0  0  0
  1 25  1  0  0  0
  1 30  2  0  0  0
  1 83  1  0  0  0
  2  3  1  0  0  0
  2 25  1  0  0  0
  2 85  1  0  0  0
  2 86  1  0  0  0
  3  4  1  0  0  0
  3 87  1  0  0  0
  3 88  1  0  0  0
  4  5  1  0  0  0
  4 89  1  0  0  0
  4 90  1  0  0  0
  5  6  1  0  0  0
  5 26  1  0  0  0
  5 91  1  0  0  0
  6 25  1  0  0  0
  6 92  1  0  0  0
  6 93  1  0  0  0
  7  8  2  0  0  0
  7 26  1  0  0  0
  7 29  1  0  0  0
  8  9  1  0  0  0
  8 22  1  0  0  0
  9 10  1  0  0  0
  9 27  2  0  0  0
 10 11  2  0  0  0
 10 15  1  0  0  0
 11 12  1  0  0  0
 11 94  1  0  0  0
 12 13  2  0  0  0
 12 95  1  0  0  0
 13 14  1  0  0  0
 13 31  1  0  0  0
 14 15  2  0  0  0
 14 96  1  0  0  0
 15 97  1  0  0  0
 16 17  2  0  0  0
 16 21  1  0  0  0
 16 31  1  0  0  0
 17 18  1  0  0  0
 17 98  1  0  0  0
 18 19  2  0  0  0
 18 99  1  0  0  0
 19 20  1  0  0  0
 19 24  1  0  0  0
 20 21  2  0  0  0
 20100  1  0  0  0
 21 23  1  0  0  0
 22 28  1  0  0  0
 22 32  2  0  0  0
 26 27  1  0  0  0
 28101  1  0  0  0
 28102  1  0  0  0
 29103  1  0  0  0
 29104  1  0  0  0
 33 34  1  0  0  0
 33 66  1  0  0  0
 33 70  2  0  0  0
 34 36  1  0  0  0
 34 59  1  0  0  0
 34105  1  0  0  0
 35 44  2  0  0  0
 35 45  1  0  0  0
 35 68  1  0  0  0
 36 56  1  0  0  0
 36106  1  0  0  0
 37 39  1  0  0  0
 37 47  1  0  0  0
 37 66  1  0  0  0
 37107  1  0  0  0
 38 43  2  0  0  0
 38 46  1  0  0  0
 38 47  1  0  0  0
 39 64  1  0  0  0
 39 67  2  0  0  0
 40 52  1  0  0  0
 40 53  2  0  0  0
 40 58  1  0  0  0
 41108  1  0  0  0
 41109  1  0  0  0
 41110  1  0  0  0
 41 48  1  0  0  0
 42 43  1  0  0  0
 42 66  1  0  0  0
 42111  1  0  0  0
 42112  1  0  0  0
 43 44  1  0  0  0
 44113  1  0  0  0
 45 46  2  0  0  0
 45114  1  0  0  0
 46115  1  0  0  0
 47116  1  0  0  0
 47117  1  0  0  0
 48 56  1  0  0  0
 48 65  1  0  0  0
 48118  1  0  0  0
 49 50  1  0  0  0
 49 53  1  0  0  0
 49 64  1  0  0  0
 49119  1  0  0  0
 50 51  1  0  0  0
 50120  1  0  0  0
 50121  1  0  0  0
 51 52  1  0  0  0
 51122  1  0  0  0
 51123  1  0  0  0
 52124  1  0  0  0
 52125  1  0  0  0
 53 54  1  0  0  0
 54 55  2  0  0  0
 54126  1  0  0  0
 55 57  1  0  0  0
 55127  1  0  0  0
 56 69  2  0  0  0
 57 58  2  0  0  0
 57128  1  0  0  0
 58129  1  0  0  0
 59 60  1  0  0  0
 59 61  1  0  0  0
 59 62  1  0  0  0
 60130  1  0  0  0
 60131  1  0  0  0
 60132  1  0  0  0
 61133  1  0  0  0
 61134  1  0  0  0
 61135  1  0  0  0
 62136  1  0  0  0
 62137  1  0  0  0
 62138  1  0  0  0
 63 65  1  0  0  0
 63139  1  0  0  0
 63140  1  0  0  0
 63141  1  0  0  0
 64142  1  0  0  0
 65143  1  0  0  0
 68 82  1  0  0  0
 71 72  2  0  0  0
 71 74  1  0  0  0
 71144  1  0  0  0
 72 76  1  0  0  0
 72145  1  0  0  0
 73 74  2  0  0  0
 73 75  1  0  0  0
 73146  1  0  0  0
 74 77  1  0  0  0
 75 76  2  0  0  0
 75 81  1  0  0  0
 76 83  1  0  0  0
 77 78  2  0  0  0
 77147  1  0  0  0
 78 79  1  0  0  0
 78148  1  0  0  0
 79 82  1  0  0  0
 79 84  2  0  0  0
 80 81  1  0  0  0
 80149  1  0  0  0
 80150  1  0  0  0
 80151  1  0  0  0
 81152  1  0  0  0
 81153  1  0  0  0
 82154  1  0  0  0
 82155  1  0  0  0
 83156  1  0  0  0
M  ISO  4   1 100  68 101  82 101  83 100
M  END
> <chiral flag>
0

> <version>
0

> <s_m_source_file>
/data/baiqing/PycharmProjects/Reinvent-master-3.2/result/LINK_invent/BTK/process_docking_weight1_custom_product_contain_oxygen_bond_distance_aromatic_linkinvent_7_9_3/rearranged_h_0122.sdf

> <i_m_source_file_index>
18

> <r_mmod_Potential_Energy-OPLS-2005>
31.8995704650879

> <r_mmod_Stretch_Energy-OPLS-2005>
77.0539016723633

> <r_mmod_Bend_Energy-OPLS-2005>
127.921928405762

> <r_mmod_Torsional_Energy-OPLS-2005>
216.776718139648

> <r_mmod_Improper_Torsional_Energy-OPLS-2005>
6.49543905258179

> <r_mmod_Van_der_Waal_Energy-OPLS-2005>
146.129379272461

> <r_mmod_Electrostatic_Energy-OPLS-2005>
-364.775726318359

> <r_mmod_Solvation_Energy-OPLS-2005>
-227.465255737305

> <b_mmod_Minimization_Converged-OPLS-2005>
0

> <r_mmod_RMS_Derivative-OPLS-2005>
1.43183290958405

$$$$
18
                    3D
 Structure written by MMmdl.
160169  0  0  1  0            999 V2000
  -30.6228  -14.5406   20.5239 C   0  0  0  0  0  0
  -30.4327  -12.3216   19.4551 C   0  0  0  0  0  0
  -29.5077  -12.5017   18.2301 C   0  0  0  0  0  0
  -28.0306  -12.3425   18.6342 C   0  0  0  0  0  0
  -27.6606  -13.1974   19.8753 C   0  0  2  0  0  0
  -28.6950  -12.9914   21.0078 C   0  0  0  0  0  0
  -25.2605  -13.8122   20.5645 C   0  0  0  0  0  0
  -24.1839  -13.0419   20.9170 C   0  0  0  0  0  0
  -24.6378  -11.6897   20.8722 C   0  0  0  0  0  0
  -23.9036  -10.4298   21.0396 C   0  0  0  0  0  0
  -24.3601   -9.4215   21.9162 C   0  0  0  0  0  0
  -23.6289   -8.2249   22.0772 C   0  0  0  0  0  0
  -22.4246   -8.0278   21.3583 C   0  0  0  0  0  0
  -21.9888   -9.0241   20.4667 C   0  0  0  0  0  0
  -22.7207  -10.2130   20.3056 C   0  0  0  0  0  0
  -21.6871   -6.0728   22.5279 C   0  0  0  0  0  0
  -21.4008   -6.5625   23.8208 C   0  0  0  0  0  0
  -21.3674   -5.6779   24.9165 C   0  0  0  0  0  0
  -21.6067   -4.3050   24.7222 C   0  0  0  0  0  0
  -21.8809   -3.8139   23.4339 C   0  0  0  0  0  0
  -21.9197   -4.6958   22.3398 C   0  0  0  0  0  0
  -22.7882  -13.5232   21.1818 C   0  0  0  0  0  0
  -22.1671   -4.2127   21.0986 F   0  0  0  0  0  0
  -21.5643   -3.4537   25.7741 F   0  0  0  0  0  0
  -30.0286  -13.3118   20.4720 N   0  0  0  0  0  0
  -26.3014  -12.9261   20.3328 N   0  0  0  0  0  0
  -25.9292  -11.6437   20.5755 N   0  0  0  0  0  0
  -22.0513  -12.8252   22.0399 N   0  0  0  0  0  0
  -25.4325  -15.1834   20.4054 N   0  0  0  0  0  0
  -31.7266  -14.7623   20.0220 O   0  0  0  0  0  0
  -21.6643   -6.8851   21.4238 O   0  0  0  0  0  0
  -22.3575  -14.5519   20.6648 O   0  0  0  0  0  0
  -24.6240  -31.8615   23.2046 C   0  0  0  0  0  0
  -25.9099  -32.4791   23.8369 C   0  0  1  0  0  0
  -27.2301  -27.3548   20.1165 C   0  0  0  0  0  0
  -25.5941  -33.8599   24.2296 N   0  0  0  0  0  0
  -23.4178  -30.4840   21.5465 C   0  0  2  0  0  0
  -24.8714  -28.9510   20.1020 C   0  0  0  0  0  0
  -22.7478  -29.4614   22.4939 C   0  0  0  0  0  0
  -18.0286  -28.1398   22.8475 C   0  0  0  0  0  0
  -24.1495  -36.7302   23.2631 C   0  0  0  0  0  0
  -25.9587  -30.7997   21.3792 C   0  0  0  0  0  0
  -26.0368  -29.4339   20.7161 C   0  0  0  0  0  0
  -27.2220  -28.6453   20.7176 C   0  0  0  0  0  0
  -26.0500  -26.9152   19.4799 C   0  0  0  0  0  0
  -24.8790  -27.6961   19.4712 C   0  0  0  0  0  0
  -23.6349  -29.8250   20.1589 C   0  0  0  0  0  0
  -25.4122  -36.3092   24.0324 C   0  0  1  0  0  0
  -20.5888  -28.3719   23.1290 C   0  0  2  0  0  0
  -20.6789  -26.9447   22.5424 C   0  0  0  0  0  0
  -19.5769  -26.6399   21.5229 C   0  0  0  0  0  0
  -18.1935  -26.7945   22.1612 C   0  0  0  0  0  0
  -19.1529  -28.8869   23.2877 C   0  0  0  0  0  0
  -18.9458  -30.1469   23.8903 C   0  0  0  0  0  0
  -17.6454  -30.6601   24.0577 C   0  0  0  0  0  0
  -25.9066  -34.9468   23.5109 C   0  0  0  0  0  0
  -16.5349  -29.9090   23.6345 C   0  0  0  0  0  0
  -16.7270  -28.6510   23.0352 C   0  0  0  0  0  0
  -26.4501  -31.6587   25.0727 C   0  0  0  0  0  0
  -25.3737  -31.3740   26.1452 C   0  0  0  0  0  0
  -27.0329  -30.2993   24.6200 C   0  0  0  0  0  0
  -27.6063  -32.4322   25.7494 C   0  0  0  0  0  0
  -27.5600  -37.1794   24.8448 C   0  0  0  0  0  0
  -21.4197  -29.3043   22.3670 N   0  0  0  0  0  0
  -26.4295  -37.3798   23.9423 N   0  0  0  0  0  0
  -24.6846  -31.0642   22.0999 N   0  0  0  0  0  0
  -23.4185  -28.8178   23.3033 O   0  0  0  0  0  0
  -28.2869  -26.4506   20.2109 O   0  0  0  0  0  0
  -26.5615  -34.8919   22.4668 O   0  0  0  0  0  0
  -23.5412  -32.1422   23.7397 O   0  0  0  0  0  0
  -31.3550  -18.2162   20.2847 C   0  0  0  0  0  0
  -31.1576  -20.6675   20.2993 C   0  0  0  0  0  0
  -29.1719  -19.2780   20.4091 C   0  0  0  0  0  0
  -31.9517  -19.4925   20.2704 C   0  0  0  0  0  0
  -29.9585  -18.0869   20.3462 C   0  0  0  0  0  0
  -29.7466  -20.5913   20.3901 C   0  0  0  0  0  0
  -28.3967  -24.0602   21.0856 C   0  0  0  0  0  0
  -28.0090  -25.3761   21.0636 C   0  0  0  0  0  0
  -27.8304  -23.1103   22.1183 C   0  0  0  0  0  0
  -29.3006  -23.1795   20.2018 C   0  0  0  0  0  0
  -27.8407  -21.7305   21.4529 C   0  0  0  0  0  0
  -33.4634  -19.5766   20.2240 C   0  0  0  0  0  0
  -29.3139  -16.6888   20.2229 C   0  0  0  0  0  0
  -28.9266  -21.7616   20.4812 N   0  0  0  0  0  0
  -29.8365  -15.5348   21.0007 N   0  0  0  0  0  0
  -31.4774  -12.4277   19.1600 H   0  0  0  0  0  0
  -30.3424  -11.3115   19.8607 H   0  0  0  0  0  0
  -29.7572  -11.7803   17.4525 H   0  0  0  0  0  0
  -29.6675  -13.4892   17.7954 H   0  0  0  0  0  0
  -27.8590  -11.2866   18.8512 H   0  0  0  0  0  0
  -27.3798  -12.5879   17.7954 H   0  0  0  0  0  0
  -27.6963  -14.2384   19.5566 H   0  0  0  0  0  0
  -28.6785  -11.9568   21.3516 H   0  0  0  0  0  0
  -28.4397  -13.5885   21.8834 H   0  0  0  0  0  0
  -25.2745   -9.5673   22.4728 H   0  0  0  0  0  0
  -24.0010   -7.4614   22.7469 H   0  0  0  0  0  0
  -21.0834   -8.8738   19.8947 H   0  0  0  0  0  0
  -22.3656  -10.9664   19.6169 H   0  0  0  0  0  0
  -21.1987   -7.6122   23.9688 H   0  0  0  0  0  0
  -21.1526   -6.0522   25.9067 H   0  0  0  0  0  0
  -22.0578   -2.7598   23.2843 H   0  0  0  0  0  0
  -22.4153  -11.9932   22.4783 H   0  0  0  0  0  0
  -21.1123  -13.1300   22.2587 H   0  0  0  0  0  0
  -24.6607  -15.8337   20.4993 H   0  0  0  0  0  0
  -26.2723  -15.6209   20.0491 H   0  0  0  0  0  0
  -26.7163  -32.5476   23.1119 H   0  0  0  0  0  0
  -25.0120  -33.9767   25.0454 H   0  0  0  0  0  0
  -22.7106  -31.3056   21.4069 H   0  0  0  0  0  0
  -23.3792  -35.9600   23.3237 H   0  0  0  0  0  0
  -24.3601  -36.8985   22.2058 H   0  0  0  0  0  0
  -23.7193  -37.6463   23.6691 H   0  0  0  0  0  0
  -26.0950  -31.5698   20.6189 H   0  0  0  0  0  0
  -26.8354  -30.8404   22.0129 H   0  0  0  0  0  0
  -28.1107  -29.0004   21.2184 H   0  0  0  0  0  0
  -26.0314  -25.9389   19.0160 H   0  0  0  0  0  0
  -23.9896  -27.3234   18.9843 H   0  0  0  0  0  0
  -23.7510  -30.6072   19.4078 H   0  0  0  0  0  0
  -22.7561  -29.2518   19.8568 H   0  0  0  0  0  0
  -25.1293  -36.1956   25.0815 H   0  0  0  0  0  0
  -20.9969  -28.3313   24.1411 H   0  0  0  0  0  0
  -20.5763  -26.2323   23.3616 H   0  0  0  0  0  0
  -21.6658  -26.7511   22.1189 H   0  0  0  0  0  0
  -19.6961  -25.6303   21.1260 H   0  0  0  0  0  0
  -19.6730  -27.3214   20.6757 H   0  0  0  0  0  0
  -17.4233  -26.6722   21.3976 H   0  0  0  0  0  0
  -18.0309  -26.0073   22.8987 H   0  0  0  0  0  0
  -19.7937  -30.7290   24.2277 H   0  0  0  0  0  0
  -17.5011  -31.6282   24.5187 H   0  0  0  0  0  0
  -15.5353  -30.3003   23.7665 H   0  0  0  0  0  0
  -15.8666  -28.0847   22.7053 H   0  0  0  0  0  0
  -24.5942  -30.7044   25.7799 H   0  0  0  0  0  0
  -24.8889  -32.2907   26.4827 H   0  0  0  0  0  0
  -25.8067  -30.8971   27.0259 H   0  0  0  0  0  0
  -26.2897  -29.6735   24.1244 H   0  0  0  0  0  0
  -27.4022  -29.7261   25.4723 H   0  0  0  0  0  0
  -27.8783  -30.4242   23.9427 H   0  0  0  0  0  0
  -27.2695  -33.3680   26.1987 H   0  0  0  0  0  0
  -28.3921  -32.6797   25.0332 H   0  0  0  0  0  0
  -28.0676  -31.8487   26.5479 H   0  0  0  0  0  0
  -28.2568  -38.0143   24.7587 H   0  0  0  0  0  0
  -28.1144  -36.2682   24.6158 H   0  0  0  0  0  0
  -27.2338  -37.1300   25.8851 H   0  0  0  0  0  0
  -20.9389  -29.8683   21.6817 H   0  0  0  0  0  0
  -26.0180  -38.2870   24.1470 H   0  0  0  0  0  0
  -31.9685  -17.3274   20.2210 H   0  0  0  0  0  0
  -31.6514  -21.6280   20.2786 H   0  0  0  0  0  0
  -28.0967  -19.1717   20.4486 H   0  0  0  0  0  0
  -27.3257  -25.6988   21.8395 H   0  0  0  0  0  0
  -26.8375  -23.3938   22.4675 H   0  0  0  0  0  0
  -28.4998  -23.1043   22.9790 H   0  0  0  0  0  0
  -30.3398  -23.3669   20.4670 H   0  0  0  0  0  0
  -29.1708  -23.4212   19.1461 H   0  0  0  0  0  0
  -26.9049  -21.5555   20.9192 H   0  0  0  0  0  0
  -27.9560  -20.9378   22.1973 H   0  0  0  0  0  0
  -33.9099  -18.5816   20.2729 H   0  0  0  0  0  0
  -33.8400  -20.1467   21.0713 H   0  0  0  0  0  0
  -33.8034  -20.0533   19.3057 H   0  0  0  0  0  0
  -29.2900  -16.4271   19.1627 H   0  0  0  0  0  0
  -28.2666  -16.7841   20.5081 H   0  0  0  0  0  0
  -29.1486  -15.1813   21.6491 H   0  0  0  0  0  0
  1 25  1  0  0  0
  1 30  2  0  0  0
  1 85  1  0  0  0
  2  3  1  0  0  0
  2 25  1  0  0  0
  2 86  1  0  0  0
  2 87  1  0  0  0
  3  4  1  0  0  0
  3 88  1  0  0  0
  3 89  1  0  0  0
  4  5  1  0  0  0
  4 90  1  0  0  0
  4 91  1  0  0  0
  5  6  1  0  0  0
  5 26  1  0  0  0
  5 92  1  0  0  0
  6 25  1  0  0  0
  6 93  1  0  0  0
  6 94  1  0  0  0
  7  8  2  0  0  0
  7 26  1  0  0  0
  7 29  1  0  0  0
  8  9  1  0  0  0
  8 22  1  0  0  0
  9 10  1  0  0  0
  9 27  2  0  0  0
 10 11  2  0  0  0
 10 15  1  0  0  0
 11 12  1  0  0  0
 11 95  1  0  0  0
 12 13  2  0  0  0
 12 96  1  0  0  0
 13 14  1  0  0  0
 13 31  1  0  0  0
 14 15  2  0  0  0
 14 97  1  0  0  0
 15 98  1  0  0  0
 16 17  2  0  0  0
 16 21  1  0  0  0
 16 31  1  0  0  0
 17 18  1  0  0  0
 17 99  1  0  0  0
 18 19  2  0  0  0
 18100  1  0  0  0
 19 20  1  0  0  0
 19 24  1  0  0  0
 20 21  2  0  0  0
 20101  1  0  0  0
 21 23  1  0  0  0
 22 28  1  0  0  0
 22 32  2  0  0  0
 26 27  1  0  0  0
 28102  1  0  0  0
 28103  1  0  0  0
 29104  1  0  0  0
 29105  1  0  0  0
 33 34  1  0  0  0
 33 66  1  0  0  0
 33 70  2  0  0  0
 34 36  1  0  0  0
 34 59  1  0  0  0
 34106  1  0  0  0
 35 44  2  0  0  0
 35 45  1  0  0  0
 35 68  1  0  0  0
 36 56  1  0  0  0
 36107  1  0  0  0
 37 39  1  0  0  0
 37 47  1  0  0  0
 37 66  1  0  0  0
 37108  1  0  0  0
 38 43  2  0  0  0
 38 46  1  0  0  0
 38 47  1  0  0  0
 39 64  1  0  0  0
 39 67  2  0  0  0
 40 52  1  0  0  0
 40 53  2  0  0  0
 40 58  1  0  0  0
 41109  1  0  0  0
 41110  1  0  0  0
 41111  1  0  0  0
 41 48  1  0  0  0
 42 43  1  0  0  0
 42 66  1  0  0  0
 42112  1  0  0  0
 42113  1  0  0  0
 43 44  1  0  0  0
 44114  1  0  0  0
 45 46  2  0  0  0
 45115  1  0  0  0
 46116  1  0  0  0
 47117  1  0  0  0
 47118  1  0  0  0
 48 56  1  0  0  0
 48 65  1  0  0  0
 48119  1  0  0  0
 49 50  1  0  0  0
 49 53  1  0  0  0
 49 64  1  0  0  0
 49120  1  0  0  0
 50 51  1  0  0  0
 50121  1  0  0  0
 50122  1  0  0  0
 51 52  1  0  0  0
 51123  1  0  0  0
 51124  1  0  0  0
 52125  1  0  0  0
 52126  1  0  0  0
 53 54  1  0  0  0
 54 55  2  0  0  0
 54127  1  0  0  0
 55 57  1  0  0  0
 55128  1  0  0  0
 56 69  2  0  0  0
 57 58  2  0  0  0
 57129  1  0  0  0
 58130  1  0  0  0
 59 60  1  0  0  0
 59 61  1  0  0  0
 59 62  1  0  0  0
 60131  1  0  0  0
 60132  1  0  0  0
 60133  1  0  0  0
 61134  1  0  0  0
 61135  1  0  0  0
 61136  1  0  0  0
 62137  1  0  0  0
 62138  1  0  0  0
 62139  1  0  0  0
 63 65  1  0  0  0
 63140  1  0  0  0
 63141  1  0  0  0
 63142  1  0  0  0
 64143  1  0  0  0
 65144  1  0  0  0
 68 78  1  0  0  0
 71 74  2  0  0  0
 71 75  1  0  0  0
 71145  1  0  0  0
 72 74  1  0  0  0
 72 76  2  0  0  0
 72146  1  0  0  0
 73 75  2  0  0  0
 73 76  1  0  0  0
 73147  1  0  0  0
 74 82  1  0  0  0
 75 83  1  0  0  0
 76 84  1  0  0  0
 77 78  2  0  0  0
 77 79  1  0  0  0
 77 80  1  0  0  0
 78148  1  0  0  0
 79 81  1  0  0  0
 79149  1  0  0  0
 79150  1  0  0  0
 80 84  1  0  0  0
 80151  1  0  0  0
 80152  1  0  0  0
 81 84  1  0  0  0
 81153  1  0  0  0
 81154  1  0  0  0
 82155  1  0  0  0
 82156  1  0  0  0
 82157  1  0  0  0
 83 85  1  0  0  0
 83158  1  0  0  0
 83159  1  0  0  0
 85160  1  0  0  0
M  ISO  4   1 100  68 101  78 101  85 100
M  END
> <chiral flag>
0

> <version>
0

> <s_m_source_file>
/data/baiqing/PycharmProjects/Reinvent-master-3.2/result/LINK_invent/BTK/process_docking_weight1_custom_product_contain_oxygen_bond_distance_aromatic_linkinvent_7_9_3/rearranged_h_0122.sdf

> <i_m_source_file_index>
19

> <r_mmod_Potential_Energy-OPLS-2005>
54.5386772155762

> <r_mmod_Stretch_Energy-OPLS-2005>
56.2737846374512

> <r_mmod_Bend_Energy-OPLS-2005>
181.549453735352

> <r_mmod_Torsional_Energy-OPLS-2005>
263.423889160156

> <r_mmod_Improper_Torsional_Energy-OPLS-2005>
10.6444683074951

> <r_mmod_Van_der_Waal_Energy-OPLS-2005>
141.556091308594

> <r_mmod_Electrostatic_Energy-OPLS-2005>
-403.760192871094

> <r_mmod_Solvation_Energy-OPLS-2005>
-232.529754638672

> <b_mmod_Minimization_Converged-OPLS-2005>
0

> <r_mmod_RMS_Derivative-OPLS-2005>
4.11667537689209

$$$$
19
                    3D
 Structure written by MMmdl.
152161  0  0  1  0            999 V2000
  -30.5138  -14.9231   20.4217 C   0  0  0  0  0  0
  -30.4498  -12.5689   19.4866 C   0  0  0  0  0  0
  -29.5221  -12.5284   18.2493 C   0  0  0  0  0  0
  -28.0532  -12.3173   18.6658 C   0  0  0  0  0  0
  -27.6342  -13.2372   19.8410 C   0  0  2  0  0  0
  -28.6789  -13.2323   20.9772 C   0  0  0  0  0  0
  -25.2472  -13.8196   20.5672 C   0  0  0  0  0  0
  -24.1781  -13.0440   20.9215 C   0  0  0  0  0  0
  -24.6380  -11.6923   20.8746 C   0  0  0  0  0  0
  -23.9060  -10.4298   21.0405 C   0  0  0  0  0  0
  -24.3615   -9.4212   21.9177 C   0  0  0  0  0  0
  -23.6288   -8.2249   22.0745 C   0  0  0  0  0  0
  -22.4266   -8.0285   21.3541 C   0  0  0  0  0  0
  -21.9897   -9.0261   20.4648 C   0  0  0  0  0  0
  -22.7230  -10.2141   20.3061 C   0  0  0  0  0  0
  -21.6855   -6.0728   22.5265 C   0  0  0  0  0  0
  -21.4020   -6.5632   23.8202 C   0  0  0  0  0  0
  -21.3663   -5.6784   24.9164 C   0  0  0  0  0  0
  -21.6042   -4.3047   24.7219 C   0  0  0  0  0  0
  -21.8821   -3.8137   23.4342 C   0  0  0  0  0  0
  -21.9196   -4.6951   22.3395 C   0  0  0  0  0  0
  -22.7801  -13.5224   21.1871 C   0  0  0  0  0  0
  -22.1667   -4.2137   21.0970 F   0  0  0  0  0  0
  -21.5624   -3.4534   25.7739 F   0  0  0  0  0  0
  -29.9584  -13.6475   20.3857 N   0  0  0  0  0  0
  -26.2896  -12.9402   20.3238 N   0  0  0  0  0  0
  -25.9308  -11.6544   20.5727 N   0  0  0  0  0  0
  -22.0449  -12.8228   22.0438 N   0  0  0  0  0  0
  -25.4123  -15.1924   20.4035 N   0  0  0  0  0  0
  -31.7152  -15.0406   20.1553 O   0  0  0  0  0  0
  -21.6636   -6.8876   21.4235 O   0  0  0  0  0  0
  -22.3489  -14.5527   20.6704 O   0  0  0  0  0  0
  -24.6422  -31.8441   23.1880 C   0  0  0  0  0  0
  -25.9195  -32.4696   23.8265 C   0  0  1  0  0  0
  -27.2185  -27.1447   20.1614 C   0  0  0  0  0  0
  -25.5945  -33.8501   24.2190 N   0  0  0  0  0  0
  -23.4456  -30.4617   21.5346 C   0  0  2  0  0  0
  -24.8960  -28.8842   20.1171 C   0  0  0  0  0  0
  -22.7562  -29.4535   22.4878 C   0  0  0  0  0  0
  -18.0308  -28.1397   22.8480 C   0  0  0  0  0  0
  -24.1492  -36.7262   23.2633 C   0  0  0  0  0  0
  -25.9998  -30.7216   21.3836 C   0  0  0  0  0  0
  -26.0735  -29.3305   20.7321 C   0  0  0  0  0  0
  -27.2388  -28.4775   20.7346 C   0  0  0  0  0  0
  -26.0160  -26.7903   19.5170 C   0  0  0  0  0  0
  -24.8776  -27.6250   19.4966 C   0  0  0  0  0  0
  -23.6725  -29.7873   20.1559 C   0  0  0  0  0  0
  -25.4123  -36.3033   24.0310 C   0  0  1  0  0  0
  -20.5916  -28.3712   23.1259 C   0  0  2  0  0  0
  -20.6788  -26.9413   22.5424 C   0  0  0  0  0  0
  -19.5773  -26.6385   21.5215 C   0  0  0  0  0  0
  -18.1950  -26.7941   22.1616 C   0  0  0  0  0  0
  -19.1562  -28.8878   23.2859 C   0  0  0  0  0  0
  -18.9473  -30.1476   23.8878 C   0  0  0  0  0  0
  -17.6466  -30.6588   24.0565 C   0  0  0  0  0  0
  -25.9072  -34.9406   23.5068 C   0  0  0  0  0  0
  -16.5361  -29.9083   23.6328 C   0  0  0  0  0  0
  -16.7292  -28.6506   23.0347 C   0  0  0  0  0  0
  -26.4507  -31.6564   25.0707 C   0  0  0  0  0  0
  -25.3697  -31.3800   26.1420 C   0  0  0  0  0  0
  -27.0331  -30.2944   24.6282 C   0  0  0  0  0  0
  -27.6062  -32.4305   25.7475 C   0  0  0  0  0  0
  -27.5589  -37.1773   24.8446 C   0  0  0  0  0  0
  -21.4255  -29.3031   22.3625 N   0  0  0  0  0  0
  -26.4283  -37.3753   23.9411 N   0  0  0  0  0  0
  -24.7163  -31.0304   22.0910 N   0  0  0  0  0  0
  -23.4206  -28.8076   23.3024 O   0  0  0  0  0  0
  -28.2744  -26.1687   20.1602 O   0  0  0  0  0  0
  -26.5662  -34.8905   22.4645 O   0  0  0  0  0  0
  -23.5543  -32.1312   23.7098 O   0  0  0  0  0  0
  -28.6989  -19.7130   19.3970 C   0  0  0  0  0  0
  -28.9260  -18.2716   19.4238 C   0  0  0  0  0  0
  -30.1628  -18.4652   21.4379 C   0  0  0  0  0  0
  -29.1713  -20.5970   20.4185 C   0  0  0  0  0  0
  -29.9033  -19.8984   21.4114 C   0  0  0  0  0  0
  -29.6705  -17.5574   20.4347 C   0  0  0  0  0  0
  -28.9893  -22.1357   20.7671 C   0  0  0  0  0  0
  -28.4488  -23.2932   20.1496 C   0  0  0  0  0  0
  -30.3064  -20.8738   22.4939 C   0  0  0  0  0  0
  -29.5244  -22.1897   22.1975 C   0  0  0  0  0  0
  -28.0591  -24.7667   20.7817 C   0  0  0  0  0  0
  -29.6384  -16.0308   20.5512 N   0  0  0  0  0  0
  -31.4795  -12.7427   19.1717 H   0  0  0  0  0  0
  -30.4514  -11.6079   20.0040 H   0  0  0  0  0  0
  -29.8344  -11.7390   17.5645 H   0  0  0  0  0  0
  -29.6128  -13.4646   17.6968 H   0  0  0  0  0  0
  -27.9414  -11.2733   18.9604 H   0  0  0  0  0  0
  -27.3928  -12.4672   17.8107 H   0  0  0  0  0  0
  -27.6055  -14.2441   19.4247 H   0  0  0  0  0  0
  -28.7596  -12.2443   21.4331 H   0  0  0  0  0  0
  -28.3826  -13.9145   21.7752 H   0  0  0  0  0  0
  -25.2758   -9.5687   22.4755 H   0  0  0  0  0  0
  -23.9997   -7.4640   22.7469 H   0  0  0  0  0  0
  -21.0818   -8.8788   19.8965 H   0  0  0  0  0  0
  -22.3674  -10.9683   19.6185 H   0  0  0  0  0  0
  -21.2013   -7.6138   23.9699 H   0  0  0  0  0  0
  -21.1483   -6.0513   25.9064 H   0  0  0  0  0  0
  -22.0593   -2.7595   23.2842 H   0  0  0  0  0  0
  -22.4052  -11.9897   22.4849 H   0  0  0  0  0  0
  -21.1071  -13.1265   22.2644 H   0  0  0  0  0  0
  -24.6332  -15.8353   20.4950 H   0  0  0  0  0  0
  -26.2339  -15.6304   20.0087 H   0  0  0  0  0  0
  -26.7258  -32.5307   23.0992 H   0  0  0  0  0  0
  -25.0049  -33.9608   25.0310 H   0  0  0  0  0  0
  -22.7463  -31.2859   21.3783 H   0  0  0  0  0  0
  -23.3759  -35.9586   23.3268 H   0  0  0  0  0  0
  -24.3589  -36.8922   22.2054 H   0  0  0  0  0  0
  -23.7234  -37.6443   23.6694 H   0  0  0  0  0  0
  -26.1497  -31.4723   20.6060 H   0  0  0  0  0  0
  -26.8720  -30.7774   22.0240 H   0  0  0  0  0  0
  -28.1409  -28.8162   21.2241 H   0  0  0  0  0  0
  -25.9470  -25.8246   19.0363 H   0  0  0  0  0  0
  -23.9783  -27.2766   19.0085 H   0  0  0  0  0  0
  -23.8100  -30.5582   19.3968 H   0  0  0  0  0  0
  -22.7874  -29.2284   19.8475 H   0  0  0  0  0  0
  -25.1300  -36.1864   25.0799 H   0  0  0  0  0  0
  -21.0007  -28.3308   24.1383 H   0  0  0  0  0  0
  -20.5668  -26.2313   23.3634 H   0  0  0  0  0  0
  -21.6658  -26.7414   22.1234 H   0  0  0  0  0  0
  -19.6923  -25.6294   21.1255 H   0  0  0  0  0  0
  -19.6724  -27.3188   20.6742 H   0  0  0  0  0  0
  -17.4220  -26.6701   21.4014 H   0  0  0  0  0  0
  -18.0328  -26.0083   22.9008 H   0  0  0  0  0  0
  -19.7945  -30.7308   24.2230 H   0  0  0  0  0  0
  -17.5012  -31.6262   24.5178 H   0  0  0  0  0  0
  -15.5358  -30.2969   23.7666 H   0  0  0  0  0  0
  -15.8694  -28.0815   22.7067 H   0  0  0  0  0  0
  -24.5860  -30.7147   25.7779 H   0  0  0  0  0  0
  -24.8898  -32.3001   26.4769 H   0  0  0  0  0  0
  -25.7973  -30.9036   27.0253 H   0  0  0  0  0  0
  -26.2932  -29.6697   24.1263 H   0  0  0  0  0  0
  -27.3897  -29.7221   25.4858 H   0  0  0  0  0  0
  -27.8869  -30.4151   23.9611 H   0  0  0  0  0  0
  -27.2682  -33.3617   26.2038 H   0  0  0  0  0  0
  -28.3880  -32.6844   25.0303 H   0  0  0  0  0  0
  -28.0724  -31.8437   26.5401 H   0  0  0  0  0  0
  -28.2573  -38.0100   24.7524 H   0  0  0  0  0  0
  -28.1113  -36.2633   24.6214 H   0  0  0  0  0  0
  -27.2324  -37.1365   25.8851 H   0  0  0  0  0  0
  -20.9463  -29.8732   21.6793 H   0  0  0  0  0  0
  -26.0151  -38.2812   24.1448 H   0  0  0  0  0  0
  -28.0961  -20.1225   18.5986 H   0  0  0  0  0  0
  -28.4623  -17.6895   18.6391 H   0  0  0  0  0  0
  -30.6941  -18.0555   22.2852 H   0  0  0  0  0  0
  -28.0673  -23.1577   19.1484 H   0  0  0  0  0  0
  -31.3821  -21.0428   22.4323 H   0  0  0  0  0  0
  -30.0826  -20.4849   23.4881 H   0  0  0  0  0  0
  -28.6525  -22.2175   22.8525 H   0  0  0  0  0  0
  -30.1083  -23.0876   22.4021 H   0  0  0  0  0  0
  -28.5358  -24.8141   21.7603 H   0  0  0  0  0  0
  -26.9960  -24.6855   21.0123 H   0  0  0  0  0  0
  -28.6956  -15.6868   20.6500 H   0  0  0  0  0  0
  1 25  1  0  0  0
  1 30  2  0  0  0
  1 82  1  0  0  0
  2  3  1  0  0  0
  2 25  1  0  0  0
  2 83  1  0  0  0
  2 84  1  0  0  0
  3  4  1  0  0  0
  3 85  1  0  0  0
  3 86  1  0  0  0
  4  5  1  0  0  0
  4 87  1  0  0  0
  4 88  1  0  0  0
  5  6  1  0  0  0
  5 26  1  0  0  0
  5 89  1  0  0  0
  6 25  1  0  0  0
  6 90  1  0  0  0
  6 91  1  0  0  0
  7  8  2  0  0  0
  7 26  1  0  0  0
  7 29  1  0  0  0
  8  9  1  0  0  0
  8 22  1  0  0  0
  9 10  1  0  0  0
  9 27  2  0  0  0
 10 11  2  0  0  0
 10 15  1  0  0  0
 11 12  1  0  0  0
 11 92  1  0  0  0
 12 13  2  0  0  0
 12 93  1  0  0  0
 13 14  1  0  0  0
 13 31  1  0  0  0
 14 15  2  0  0  0
 14 94  1  0  0  0
 15 95  1  0  0  0
 16 17  2  0  0  0
 16 21  1  0  0  0
 16 31  1  0  0  0
 17 18  1  0  0  0
 17 96  1  0  0  0
 18 19  2  0  0  0
 18 97  1  0  0  0
 19 20  1  0  0  0
 19 24  1  0  0  0
 20 21  2  0  0  0
 20 98  1  0  0  0
 21 23  1  0  0  0
 22 28  1  0  0  0
 22 32  2  0  0  0
 26 27  1  0  0  0
 28 99  1  0  0  0
 28100  1  0  0  0
 29101  1  0  0  0
 29102  1  0  0  0
 33 34  1  0  0  0
 33 66  1  0  0  0
 33 70  2  0  0  0
 34 36  1  0  0  0
 34 59  1  0  0  0
 34103  1  0  0  0
 35 44  2  0  0  0
 35 45  1  0  0  0
 35 68  1  0  0  0
 36 56  1  0  0  0
 36104  1  0  0  0
 37 39  1  0  0  0
 37 47  1  0  0  0
 37 66  1  0  0  0
 37105  1  0  0  0
 38 43  2  0  0  0
 38 46  1  0  0  0
 38 47  1  0  0  0
 39 64  1  0  0  0
 39 67  2  0  0  0
 40 52  1  0  0  0
 40 53  2  0  0  0
 40 58  1  0  0  0
 41106  1  0  0  0
 41107  1  0  0  0
 41108  1  0  0  0
 41 48  1  0  0  0
 42 43  1  0  0  0
 42 66  1  0  0  0
 42109  1  0  0  0
 42110  1  0  0  0
 43 44  1  0  0  0
 44111  1  0  0  0
 45 46  2  0  0  0
 45112  1  0  0  0
 46113  1  0  0  0
 47114  1  0  0  0
 47115  1  0  0  0
 48 56  1  0  0  0
 48 65  1  0  0  0
 48116  1  0  0  0
 49 50  1  0  0  0
 49 53  1  0  0  0
 49 64  1  0  0  0
 49117  1  0  0  0
 50 51  1  0  0  0
 50118  1  0  0  0
 50119  1  0  0  0
 51 52  1  0  0  0
 51120  1  0  0  0
 51121  1  0  0  0
 52122  1  0  0  0
 52123  1  0  0  0
 53 54  1  0  0  0
 54 55  2  0  0  0
 54124  1  0  0  0
 55 57  1  0  0  0
 55125  1  0  0  0
 56 69  2  0  0  0
 57 58  2  0  0  0
 57126  1  0  0  0
 58127  1  0  0  0
 59 60  1  0  0  0
 59 61  1  0  0  0
 59 62  1  0  0  0
 60128  1  0  0  0
 60129  1  0  0  0
 60130  1  0  0  0
 61131  1  0  0  0
 61132  1  0  0  0
 61133  1  0  0  0
 62134  1  0  0  0
 62135  1  0  0  0
 62136  1  0  0  0
 63 65  1  0  0  0
 63137  1  0  0  0
 63138  1  0  0  0
 63139  1  0  0  0
 64140  1  0  0  0
 65141  1  0  0  0
 68 81  1  0  0  0
 71 72  2  0  0  0
 71 74  1  0  0  0
 71142  1  0  0  0
 72 76  1  0  0  0
 72143  1  0  0  0
 73 75  1  0  0  0
 73 76  2  0  0  0
 73144  1  0  0  0
 74 75  2  0  0  0
 74 77  1  0  0  0
 75 79  1  0  0  0
 76 82  1  0  0  0
 77 78  2  0  0  0
 77 80  1  0  0  0
 78 81  1  0  0  0
 78145  1  0  0  0
 79 80  1  0  0  0
 79146  1  0  0  0
 79147  1  0  0  0
 80148  1  0  0  0
 80149  1  0  0  0
 81150  1  0  0  0
 81151  1  0  0  0
 82152  1  0  0  0
M  ISO  4   1 100  68 101  81 101  82 100
M  END
> <chiral flag>
0

> <version>
0

> <s_m_source_file>
/data/baiqing/PycharmProjects/Reinvent-master-3.2/result/LINK_invent/BTK/process_docking_weight1_custom_product_contain_oxygen_bond_distance_aromatic_linkinvent_7_9_3/rearranged_h_0122.sdf

> <i_m_source_file_index>
20

> <r_mmod_Potential_Energy-OPLS-2005>
497.675018310547

> <r_mmod_Stretch_Energy-OPLS-2005>
208.762359619141

> <r_mmod_Bend_Energy-OPLS-2005>
290.719329833984

> <r_mmod_Torsional_Energy-OPLS-2005>
266.478973388672

> <r_mmod_Improper_Torsional_Energy-OPLS-2005>
8.02595615386963

> <r_mmod_Van_der_Waal_Energy-OPLS-2005>
123.801452636719

> <r_mmod_Electrostatic_Energy-OPLS-2005>
-369.58935546875

> <r_mmod_Solvation_Energy-OPLS-2005>
-210.126998901367

> <b_mmod_Minimization_Converged-OPLS-2005>
0

> <r_mmod_RMS_Derivative-OPLS-2005>
1.7277637720108

$$$$
20
                    3D
 Structure written by MMmdl.
156164  0  0  1  0            999 V2000
  -30.6756  -14.4987   20.5629 C   0  0  0  0  0  0
  -30.4325  -12.3228   19.4175 C   0  0  0  0  0  0
  -29.4962  -12.5080   18.2043 C   0  0  0  0  0  0
  -28.0177  -12.3598   18.6188 C   0  0  0  0  0  0
  -27.6600  -13.2009   19.8730 C   0  0  2  0  0  0
  -28.7053  -12.9840   20.9908 C   0  0  0  0  0  0
  -25.2565  -13.8113   20.5676 C   0  0  0  0  0  0
  -24.1825  -13.0401   20.9185 C   0  0  0  0  0  0
  -24.6385  -11.6875   20.8735 C   0  0  0  0  0  0
  -23.9051  -10.4273   21.0408 C   0  0  0  0  0  0
  -24.3607   -9.4193   21.9189 C   0  0  0  0  0  0
  -23.6283   -8.2230   22.0761 C   0  0  0  0  0  0
  -22.4265   -8.0272   21.3551 C   0  0  0  0  0  0
  -21.9899   -9.0242   20.4648 C   0  0  0  0  0  0
  -22.7227  -10.2121   20.3056 C   0  0  0  0  0  0
  -21.6844   -6.0731   22.5284 C   0  0  0  0  0  0
  -21.4007   -6.5639   23.8216 C   0  0  0  0  0  0
  -21.3659   -5.6792   24.9179 C   0  0  0  0  0  0
  -21.6044   -4.3055   24.7227 C   0  0  0  0  0  0
  -21.8820   -3.8148   23.4347 C   0  0  0  0  0  0
  -21.9192   -4.6962   22.3404 C   0  0  0  0  0  0
  -22.7854  -13.5214   21.1848 C   0  0  0  0  0  0
  -22.1659   -4.2149   21.0979 F   0  0  0  0  0  0
  -21.5633   -3.4539   25.7739 F   0  0  0  0  0  0
  -30.0335  -13.3041   20.4366 N   0  0  0  0  0  0
  -26.3010  -12.9289   20.3358 N   0  0  0  0  0  0
  -25.9310  -11.6455   20.5763 N   0  0  0  0  0  0
  -22.0490  -12.8215   22.0409 N   0  0  0  0  0  0
  -25.4235  -15.1824   20.4083 N   0  0  0  0  0  0
  -31.8179  -14.6991   20.1379 O   0  0  0  0  0  0
  -21.6631   -6.8870   21.4245 O   0  0  0  0  0  0
  -22.3552  -14.5528   20.6706 O   0  0  0  0  0  0
  -24.6164  -31.8680   23.2099 C   0  0  0  0  0  0
  -25.9048  -32.4825   23.8398 C   0  0  1  0  0  0
  -27.2348  -27.4161   20.0876 C   0  0  0  0  0  0
  -25.5896  -33.8623   24.2325 N   0  0  0  0  0  0
  -23.4049  -30.4934   21.5519 C   0  0  2  0  0  0
  -24.8492  -28.9596   20.1165 C   0  0  0  0  0  0
  -22.7412  -29.4670   22.4984 C   0  0  0  0  0  0
  -18.0276  -28.1376   22.8499 C   0  0  0  0  0  0
  -24.1487  -36.7315   23.2638 C   0  0  0  0  0  0
  -25.9373  -30.8269   21.3666 C   0  0  0  0  0  0
  -26.0130  -29.4606   20.7122 C   0  0  0  0  0  0
  -27.2062  -28.6968   20.6944 C   0  0  0  0  0  0
  -26.0406  -26.9352   19.4947 C   0  0  0  0  0  0
  -24.8589  -27.6964   19.5071 C   0  0  0  0  0  0
  -23.6131  -29.8288   20.1663 C   0  0  0  0  0  0
  -25.4111  -36.3117   24.0337 C   0  0  1  0  0  0
  -20.5866  -28.3675   23.1318 C   0  0  2  0  0  0
  -20.6767  -26.9412   22.5421 C   0  0  0  0  0  0
  -19.5744  -26.6390   21.5218 C   0  0  0  0  0  0
  -18.1921  -26.7925   22.1629 C   0  0  0  0  0  0
  -19.1524  -28.8842   23.2907 C   0  0  0  0  0  0
  -18.9450  -30.1443   23.8920 C   0  0  0  0  0  0
  -17.6452  -30.6587   24.0570 C   0  0  0  0  0  0
  -25.9038  -34.9480   23.5129 C   0  0  0  0  0  0
  -16.5345  -29.9091   23.6324 C   0  0  0  0  0  0
  -16.7266  -28.6505   23.0355 C   0  0  0  0  0  0
  -26.4466  -31.6601   25.0728 C   0  0  0  0  0  0
  -25.3724  -31.3697   26.1467 C   0  0  0  0  0  0
  -27.0297  -30.3044   24.6104 C   0  0  0  0  0  0
  -27.6044  -32.4315   25.7491 C   0  0  0  0  0  0
  -27.5590  -37.1807   24.8464 C   0  0  0  0  0  0
  -21.4141  -29.3042   22.3718 N   0  0  0  0  0  0
  -26.4298  -37.3803   23.9415 N   0  0  0  0  0  0
  -24.6714  -31.0767   22.1012 N   0  0  0  0  0  0
  -23.4177  -28.8206   23.3028 O   0  0  0  0  0  0
  -28.4122  -26.6791   20.0941 O   0  0  0  0  0  0
  -26.5604  -34.8934   22.4692 O   0  0  0  0  0  0
  -23.5350  -32.1444   23.7479 O   0  0  0  0  0  0
  -29.4668  -19.1866   20.4280 C   0  0  0  0  0  0
  -31.0781  -17.4608   21.9488 C   0  0  0  0  0  0
  -30.3451  -19.7488   21.3852 C   0  0  0  0  0  0
  -29.3545  -17.7834   20.2658 C   0  0  0  0  0  0
  -30.1478  -16.9032   21.0458 C   0  0  0  0  0  0
  -31.1769  -18.8614   22.1195 C   0  0  0  0  0  0
  -30.1097  -22.1870   20.5368 C   0  0  0  0  0  0
  -29.8903  -23.5102   20.7497 C   0  0  0  0  0  0
  -30.3649  -21.2338   21.6538 C   0  0  0  0  0  0
  -28.3498  -17.2456   19.2642 C   0  0  0  0  0  0
  -29.7176  -24.5734   19.6615 C   0  0  0  0  0  0
  -28.3541  -25.3100   19.6458 C   0  0  0  0  0  0
  -29.8971  -15.4947   21.0318 N   0  0  0  0  0  0
  -30.6003  -21.6639   22.7885 O   0  0  0  0  0  0
  -32.0747  -19.3338   23.0192 F   0  0  0  0  0  0
  -31.4746  -12.4396   19.1142 H   0  0  0  0  0  0
  -30.3488  -11.3116   19.8183 H   0  0  0  0  0  0
  -29.7398  -11.7828   17.4265 H   0  0  0  0  0  0
  -29.6551  -13.4937   17.7644 H   0  0  0  0  0  0
  -27.8350  -11.3034   18.8178 H   0  0  0  0  0  0
  -27.3651  -12.6282   17.7875 H   0  0  0  0  0  0
  -27.6988  -14.2464   19.5707 H   0  0  0  0  0  0
  -28.6894  -11.9467   21.3272 H   0  0  0  0  0  0
  -28.4648  -13.5760   21.8753 H   0  0  0  0  0  0
  -25.2753   -9.5666   22.4759 H   0  0  0  0  0  0
  -23.9990   -7.4620   22.7481 H   0  0  0  0  0  0
  -21.0834   -8.8758   19.8948 H   0  0  0  0  0  0
  -22.3693  -10.9659   19.6161 H   0  0  0  0  0  0
  -21.1995   -7.6146   23.9717 H   0  0  0  0  0  0
  -21.1483   -6.0526   25.9081 H   0  0  0  0  0  0
  -22.0599   -2.7610   23.2853 H   0  0  0  0  0  0
  -22.4098  -11.9867   22.4782 H   0  0  0  0  0  0
  -21.1118  -13.1263   22.2626 H   0  0  0  0  0  0
  -24.6509  -15.8316   20.5090 H   0  0  0  0  0  0
  -26.2673  -15.6201   20.0664 H   0  0  0  0  0  0
  -26.7119  -32.5530   23.1160 H   0  0  0  0  0  0
  -25.0044  -33.9789   25.0468 H   0  0  0  0  0  0
  -22.6955  -31.3117   21.4132 H   0  0  0  0  0  0
  -23.3758  -35.9638   23.3292 H   0  0  0  0  0  0
  -24.3587  -36.8941   22.2057 H   0  0  0  0  0  0
  -23.7225  -37.6510   23.6658 H   0  0  0  0  0  0
  -26.0519  -31.5931   20.5981 H   0  0  0  0  0  0
  -26.8243  -30.8788   21.9867 H   0  0  0  0  0  0
  -28.1049  -29.0834   21.1544 H   0  0  0  0  0  0
  -25.9869  -25.9703   19.0138 H   0  0  0  0  0  0
  -23.9633  -27.3034   19.0459 H   0  0  0  0  0  0
  -23.7235  -30.6048   19.4080 H   0  0  0  0  0  0
  -22.7353  -29.2517   19.8688 H   0  0  0  0  0  0
  -25.1281  -36.1987   25.0829 H   0  0  0  0  0  0
  -20.9963  -28.3243   24.1438 H   0  0  0  0  0  0
  -20.5682  -26.2280   23.3606 H   0  0  0  0  0  0
  -21.6637  -26.7457   22.1212 H   0  0  0  0  0  0
  -19.6910  -25.6305   21.1235 H   0  0  0  0  0  0
  -19.6679  -27.3211   20.6755 H   0  0  0  0  0  0
  -17.4193  -26.6689   21.4028 H   0  0  0  0  0  0
  -18.0316  -26.0058   22.9016 H   0  0  0  0  0  0
  -19.7922  -30.7256   24.2305 H   0  0  0  0  0  0
  -17.5005  -31.6266   24.5171 H   0  0  0  0  0  0
  -15.5346  -30.3003   23.7627 H   0  0  0  0  0  0
  -15.8667  -28.0827   22.7064 H   0  0  0  0  0  0
  -24.5912  -30.7031   25.7795 H   0  0  0  0  0  0
  -24.8895  -32.2845   26.4913 H   0  0  0  0  0  0
  -25.8075  -30.8871   27.0227 H   0  0  0  0  0  0
  -26.2846  -29.6810   24.1147 H   0  0  0  0  0  0
  -27.4056  -29.7272   25.4561 H   0  0  0  0  0  0
  -27.8683  -30.4363   23.9264 H   0  0  0  0  0  0
  -27.2672  -33.3611   26.2089 H   0  0  0  0  0  0
  -28.3845  -32.6878   25.0309 H   0  0  0  0  0  0
  -28.0718  -31.8420   26.5389 H   0  0  0  0  0  0
  -28.2592  -38.0121   24.7543 H   0  0  0  0  0  0
  -28.1101  -36.2653   24.6250 H   0  0  0  0  0  0
  -27.2308  -37.1416   25.8866 H   0  0  0  0  0  0
  -20.9294  -29.8778   21.6955 H   0  0  0  0  0  0
  -26.0185  -38.2878   24.1432 H   0  0  0  0  0  0
  -28.8219  -19.8345   19.8510 H   0  0  0  0  0  0
  -31.6930  -16.8158   22.5589 H   0  0  0  0  0  0
  -30.1270  -21.7940   19.5316 H   0  0  0  0  0  0
  -29.8543  -23.8875   21.7630 H   0  0  0  0  0  0
  -28.0826  -18.0025   18.5261 H   0  0  0  0  0  0
  -27.4404  -16.9440   19.7793 H   0  0  0  0  0  0
  -28.7499  -16.3885   18.7220 H   0  0  0  0  0  0
  -29.8576  -24.0844   18.6962 H   0  0  0  0  0  0
  -30.5294  -25.2974   19.7429 H   0  0  0  0  0  0
  -27.6173  -24.7489   20.2240 H   0  0  0  0  0  0
  -28.0148  -25.3087   18.6088 H   0  0  0  0  0  0
  -28.9507  -15.2141   21.2370 H   0  0  0  0  0  0
  1 25  1  0  0  0
  1 30  2  0  0  0
  1 83  1  0  0  0
  2  3  1  0  0  0
  2 25  1  0  0  0
  2 86  1  0  0  0
  2 87  1  0  0  0
  3  4  1  0  0  0
  3 88  1  0  0  0
  3 89  1  0  0  0
  4  5  1  0  0  0
  4 90  1  0  0  0
  4 91  1  0  0  0
  5  6  1  0  0  0
  5 26  1  0  0  0
  5 92  1  0  0  0
  6 25  1  0  0  0
  6 93  1  0  0  0
  6 94  1  0  0  0
  7  8  2  0  0  0
  7 26  1  0  0  0
  7 29  1  0  0  0
  8  9  1  0  0  0
  8 22  1  0  0  0
  9 10  1  0  0  0
  9 27  2  0  0  0
 10 11  2  0  0  0
 10 15  1  0  0  0
 11 12  1  0  0  0
 11 95  1  0  0  0
 12 13  2  0  0  0
 12 96  1  0  0  0
 13 14  1  0  0  0
 13 31  1  0  0  0
 14 15  2  0  0  0
 14 97  1  0  0  0
 15 98  1  0  0  0
 16 17  2  0  0  0
 16 21  1  0  0  0
 16 31  1  0  0  0
 17 18  1  0  0  0
 17 99  1  0  0  0
 18 19  2  0  0  0
 18100  1  0  0  0
 19 20  1  0  0  0
 19 24  1  0  0  0
 20 21  2  0  0  0
 20101  1  0  0  0
 21 23  1  0  0  0
 22 28  1  0  0  0
 22 32  2  0  0  0
 26 27  1  0  0  0
 28102  1  0  0  0
 28103  1  0  0  0
 29104  1  0  0  0
 29105  1  0  0  0
 33 34  1  0  0  0
 33 66  1  0  0  0
 33 70  2  0  0  0
 34 36  1  0  0  0
 34 59  1  0  0  0
 34106  1  0  0  0
 35 44  2  0  0  0
 35 45  1  0  0  0
 35 68  1  0  0  0
 36 56  1  0  0  0
 36107  1  0  0  0
 37 39  1  0  0  0
 37 47  1  0  0  0
 37 66  1  0  0  0
 37108  1  0  0  0
 38 43  2  0  0  0
 38 46  1  0  0  0
 38 47  1  0  0  0
 39 64  1  0  0  0
 39 67  2  0  0  0
 40 52  1  0  0  0
 40 53  2  0  0  0
 40 58  1  0  0  0
 41109  1  0  0  0
 41110  1  0  0  0
 41111  1  0  0  0
 41 48  1  0  0  0
 42 43  1  0  0  0
 42 66  1  0  0  0
 42112  1  0  0  0
 42113  1  0  0  0
 43 44  1  0  0  0
 44114  1  0  0  0
 45 46  2  0  0  0
 45115  1  0  0  0
 46116  1  0  0  0
 47117  1  0  0  0
 47118  1  0  0  0
 48 56  1  0  0  0
 48 65  1  0  0  0
 48119  1  0  0  0
 49 50  1  0  0  0
 49 53  1  0  0  0
 49 64  1  0  0  0
 49120  1  0  0  0
 50 51  1  0  0  0
 50121  1  0  0  0
 50122  1  0  0  0
 51 52  1  0  0  0
 51123  1  0  0  0
 51124  1  0  0  0
 52125  1  0  0  0
 52126  1  0  0  0
 53 54  1  0  0  0
 54 55  2  0  0  0
 54127  1  0  0  0
 55 57  1  0  0  0
 55128  1  0  0  0
 56 69  2  0  0  0
 57 58  2  0  0  0
 57129  1  0  0  0
 58130  1  0  0  0
 59 60  1  0  0  0
 59 61  1  0  0  0
 59 62  1  0  0  0
 60131  1  0  0  0
 60132  1  0  0  0
 60133  1  0  0  0
 61134  1  0  0  0
 61135  1  0  0  0
 61136  1  0  0  0
 62137  1  0  0  0
 62138  1  0  0  0
 62139  1  0  0  0
 63 65  1  0  0  0
 63140  1  0  0  0
 63141  1  0  0  0
 63142  1  0  0  0
 64143  1  0  0  0
 65144  1  0  0  0
 68 82  1  0  0  0
 71 73  2  0  0  0
 71 74  1  0  0  0
 71145  1  0  0  0
 72 75  1  0  0  0
 72 76  2  0  0  0
 72146  1  0  0  0
 73 76  1  0  0  0
 73 79  1  0  0  0
 74 75  2  0  0  0
 74 80  1  0  0  0
 75 83  1  0  0  0
 76 85  1  0  0  0
 77 78  2  0  0  0
 77 79  1  0  0  0
 77147  1  0  0  0
 78 81  1  0  0  0
 78148  1  0  0  0
 79 84  2  0  0  0
 80149  1  0  0  0
 80150  1  0  0  0
 80151  1  0  0  0
 81 82  1  0  0  0
 81152  1  0  0  0
 81153  1  0  0  0
 82154  1  0  0  0
 82155  1  0  0  0
 83156  1  0  0  0
M  ISO  4   1 100  68 101  82 101  83 100
M  END
> <chiral flag>
0

> <version>
0

> <s_m_source_file>
/data/baiqing/PycharmProjects/Reinvent-master-3.2/result/LINK_invent/BTK/process_docking_weight1_custom_product_contain_oxygen_bond_distance_aromatic_linkinvent_7_9_3/rearranged_h_0122.sdf

> <i_m_source_file_index>
21

> <r_mmod_Potential_Energy-OPLS-2005>
-0.716864228248596

> <r_mmod_Stretch_Energy-OPLS-2005>
42.1743240356445

> <r_mmod_Bend_Energy-OPLS-2005>
98.4446640014648

> <r_mmod_Torsional_Energy-OPLS-2005>
239.562194824219

> <r_mmod_Improper_Torsional_Energy-OPLS-2005>
5.11187076568604

> <r_mmod_Van_der_Waal_Energy-OPLS-2005>
156.384368896484

> <r_mmod_Electrostatic_Energy-OPLS-2005>
-334.859466552734

> <r_mmod_Solvation_Energy-OPLS-2005>
-223.239547729492

> <b_mmod_Minimization_Converged-OPLS-2005>
0

> <r_mmod_RMS_Derivative-OPLS-2005>
0.728042304515839

$$$$
21
                    3D
 Structure written by MMmdl.
159167  0  0  1  0            999 V2000
  -30.7138  -14.4740   20.5783 C   0  0  0  0  0  0
  -30.4185  -12.3115   19.4256 C   0  0  0  0  0  0
  -29.4927  -12.5036   18.2076 C   0  0  0  0  0  0
  -28.0153  -12.3607   18.6210 C   0  0  0  0  0  0
  -27.6588  -13.2090   19.8713 C   0  0  2  0  0  0
  -28.7006  -13.0055   20.9955 C   0  0  0  0  0  0
  -25.2557  -13.8152   20.5658 C   0  0  0  0  0  0
  -24.1828  -13.0426   20.9190 C   0  0  0  0  0  0
  -24.6391  -11.6899   20.8751 C   0  0  0  0  0  0
  -23.9056  -10.4288   21.0416 C   0  0  0  0  0  0
  -24.3612   -9.4203   21.9194 C   0  0  0  0  0  0
  -23.6289   -8.2238   22.0763 C   0  0  0  0  0  0
  -22.4274   -8.0276   21.3548 C   0  0  0  0  0  0
  -21.9907   -9.0248   20.4647 C   0  0  0  0  0  0
  -22.7230  -10.2132   20.3059 C   0  0  0  0  0  0
  -21.6846   -6.0733   22.5278 C   0  0  0  0  0  0
  -21.4009   -6.5638   23.8211 C   0  0  0  0  0  0
  -21.3659   -5.6794   24.9177 C   0  0  0  0  0  0
  -21.6047   -4.3057   24.7226 C   0  0  0  0  0  0
  -21.8822   -3.8149   23.4346 C   0  0  0  0  0  0
  -21.9192   -4.6964   22.3402 C   0  0  0  0  0  0
  -22.7851  -13.5224   21.1848 C   0  0  0  0  0  0
  -22.1658   -4.2149   21.0979 F   0  0  0  0  0  0
  -21.5633   -3.4542   25.7741 F   0  0  0  0  0  0
  -30.0307  -13.3048   20.4403 N   0  0  0  0  0  0
  -26.3004  -12.9340   20.3340 N   0  0  0  0  0  0
  -25.9318  -11.6498   20.5775 N   0  0  0  0  0  0
  -22.0488  -12.8219   22.0405 N   0  0  0  0  0  0
  -25.4216  -15.1857   20.3993 N   0  0  0  0  0  0
  -31.8419  -14.6349   20.1044 O   0  0  0  0  0  0
  -21.6631   -6.8876   21.4243 O   0  0  0  0  0  0
  -22.3540  -14.5531   20.6699 O   0  0  0  0  0  0
  -24.6152  -31.8678   23.2101 C   0  0  0  0  0  0
  -25.9042  -32.4822   23.8397 C   0  0  1  0  0  0
  -27.2283  -27.4304   20.1012 C   0  0  0  0  0  0
  -25.5896  -33.8624   24.2330 N   0  0  0  0  0  0
  -23.4036  -30.4917   21.5504 C   0  0  2  0  0  0
  -24.8504  -28.9605   20.1110 C   0  0  0  0  0  0
  -22.7417  -29.4659   22.4987 C   0  0  0  0  0  0
  -18.0274  -28.1385   22.8498 C   0  0  0  0  0  0
  -24.1491  -36.7318   23.2638 C   0  0  0  0  0  0
  -25.9331  -30.8330   21.3641 C   0  0  0  0  0  0
  -26.0112  -29.4682   20.7094 C   0  0  0  0  0  0
  -27.2065  -28.7111   20.6998 C   0  0  0  0  0  0
  -26.0555  -26.9456   19.4820 C   0  0  0  0  0  0
  -24.8679  -27.6993   19.4919 C   0  0  0  0  0  0
  -23.6119  -29.8255   20.1645 C   0  0  0  0  0  0
  -25.4110  -36.3111   24.0337 C   0  0  1  0  0  0
  -20.5865  -28.3670   23.1323 C   0  0  2  0  0  0
  -20.6767  -26.9408   22.5422 C   0  0  0  0  0  0
  -19.5744  -26.6392   21.5222 C   0  0  0  0  0  0
  -18.1920  -26.7934   22.1629 C   0  0  0  0  0  0
  -19.1523  -28.8845   23.2907 C   0  0  0  0  0  0
  -18.9447  -30.1454   23.8913 C   0  0  0  0  0  0
  -17.6451  -30.6592   24.0570 C   0  0  0  0  0  0
  -25.9032  -34.9476   23.5127 C   0  0  0  0  0  0
  -16.5344  -29.9096   23.6328 C   0  0  0  0  0  0
  -16.7265  -28.6515   23.0346 C   0  0  0  0  0  0
  -26.4470  -31.6592   25.0720 C   0  0  0  0  0  0
  -25.3739  -31.3687   26.1467 C   0  0  0  0  0  0
  -27.0298  -30.3036   24.6084 C   0  0  0  0  0  0
  -27.6047  -32.4304   25.7486 C   0  0  0  0  0  0
  -27.5584  -37.1810   24.8465 C   0  0  0  0  0  0
  -21.4142  -29.3036   22.3729 N   0  0  0  0  0  0
  -26.4301  -37.3794   23.9406 N   0  0  0  0  0  0
  -24.6688  -31.0779   22.1002 N   0  0  0  0  0  0
  -23.4190  -28.8193   23.3020 O   0  0  0  0  0  0
  -28.3654  -26.6523   20.1251 O   0  0  0  0  0  0
  -26.5597  -34.8923   22.4689 O   0  0  0  0  0  0
  -23.5343  -32.1429   23.7495 O   0  0  0  0  0  0
  -31.2763  -19.5698   21.4219 C   0  0  0  0  0  0
  -31.7523  -17.1925   21.6174 C   0  0  0  0  0  0
  -29.9305  -19.3055   21.0814 C   0  0  0  0  0  0
  -29.5037  -17.9383   20.9977 C   0  0  0  0  0  0
  -30.4281  -16.8732   21.2393 C   0  0  0  0  0  0
  -32.1742  -18.5281   21.7012 C   0  0  0  0  0  0
  -29.0349  -20.4611   20.7754 C   0  0  0  0  0  0
  -29.4059  -21.7040   20.3857 C   0  0  0  0  0  0
  -29.0337  -24.2573   20.1663 C   0  0  0  0  0  0
  -27.8954  -17.5458   19.0763 C   0  0  0  0  0  0
  -28.0672  -17.6012   20.5998 C   0  0  0  0  0  0
  -28.4184  -22.8425   20.1145 C   0  0  0  0  0  0
  -28.1639  -25.3760   20.7694 C   0  0  0  0  0  0
  -30.0250  -15.4956   21.1348 N   0  0  0  0  0  0
  -30.1669  -24.4847   19.7284 O   0  0  0  0  0  0
  -33.4516  -18.8122   22.0505 F   0  0  0  0  0  0
  -31.4637  -12.4013   19.1246 H   0  0  0  0  0  0
  -30.3146  -11.3044   19.8318 H   0  0  0  0  0  0
  -29.7345  -11.7763   17.4310 H   0  0  0  0  0  0
  -29.6594  -13.4888   17.7685 H   0  0  0  0  0  0
  -27.8303  -11.3057   18.8249 H   0  0  0  0  0  0
  -27.3645  -12.6256   17.7873 H   0  0  0  0  0  0
  -27.6981  -14.2541   19.5636 H   0  0  0  0  0  0
  -28.6782  -11.9747   21.3520 H   0  0  0  0  0  0
  -28.4613  -13.6190   21.8653 H   0  0  0  0  0  0
  -25.2760   -9.5676   22.4766 H   0  0  0  0  0  0
  -23.9994   -7.4631   22.7487 H   0  0  0  0  0  0
  -21.0839   -8.8767   19.8949 H   0  0  0  0  0  0
  -22.3694  -10.9674   19.6165 H   0  0  0  0  0  0
  -21.1998   -7.6146   23.9712 H   0  0  0  0  0  0
  -21.1477   -6.0527   25.9079 H   0  0  0  0  0  0
  -22.0602   -2.7612   23.2852 H   0  0  0  0  0  0
  -22.4089  -11.9870   22.4781 H   0  0  0  0  0  0
  -21.1113  -13.1259   22.2613 H   0  0  0  0  0  0
  -24.6432  -15.8301   20.4857 H   0  0  0  0  0  0
  -26.2473  -15.6122   20.0024 H   0  0  0  0  0  0
  -26.7113  -32.5543   23.1160 H   0  0  0  0  0  0
  -25.0055  -33.9786   25.0482 H   0  0  0  0  0  0
  -22.6925  -31.3089   21.4117 H   0  0  0  0  0  0
  -23.3751  -35.9652   23.3305 H   0  0  0  0  0  0
  -24.3578  -36.8928   22.2051 H   0  0  0  0  0  0
  -23.7244  -37.6522   23.6653 H   0  0  0  0  0  0
  -26.0450  -31.6001   20.5966 H   0  0  0  0  0  0
  -26.8217  -30.8872   21.9813 H   0  0  0  0  0  0
  -28.1015  -29.0944   21.1698 H   0  0  0  0  0  0
  -26.0555  -25.9806   18.9944 H   0  0  0  0  0  0
  -23.9780  -27.3067   19.0194 H   0  0  0  0  0  0
  -23.7179  -30.6017   19.4061 H   0  0  0  0  0  0
  -22.7364  -29.2447   19.8677 H   0  0  0  0  0  0
  -25.1284  -36.1981   25.0830 H   0  0  0  0  0  0
  -20.9957  -28.3239   24.1445 H   0  0  0  0  0  0
  -20.5689  -26.2274   23.3606 H   0  0  0  0  0  0
  -21.6638  -26.7456   22.1210 H   0  0  0  0  0  0
  -19.6909  -25.6309   21.1230 H   0  0  0  0  0  0
  -19.6680  -27.3221   20.6767 H   0  0  0  0  0  0
  -17.4193  -26.6698   21.4026 H   0  0  0  0  0  0
  -18.0304  -26.0073   22.9018 H   0  0  0  0  0  0
  -19.7922  -30.7268   24.2288 H   0  0  0  0  0  0
  -17.5004  -31.6272   24.5174 H   0  0  0  0  0  0
  -15.5343  -30.3001   23.7640 H   0  0  0  0  0  0
  -15.8671  -28.0841   22.7041 H   0  0  0  0  0  0
  -24.5920  -30.7022   25.7803 H   0  0  0  0  0  0
  -24.8922  -32.2838   26.4921 H   0  0  0  0  0  0
  -25.8104  -30.8854   27.0218 H   0  0  0  0  0  0
  -26.2837  -29.6802   24.1141 H   0  0  0  0  0  0
  -27.4077  -29.7260   25.4529 H   0  0  0  0  0  0
  -27.8668  -30.4353   23.9221 H   0  0  0  0  0  0
  -27.2668  -33.3593   26.2090 H   0  0  0  0  0  0
  -28.3850  -32.6876   25.0308 H   0  0  0  0  0  0
  -28.0725  -31.8407   26.5379 H   0  0  0  0  0  0
  -28.2604  -38.0106   24.7512 H   0  0  0  0  0  0
  -28.1077  -36.2635   24.6298 H   0  0  0  0  0  0
  -27.2297  -37.1477   25.8867 H   0  0  0  0  0  0
  -20.9303  -29.8759   21.6951 H   0  0  0  0  0  0
  -26.0193  -38.2873   24.1400 H   0  0  0  0  0  0
  -31.6391  -20.5837   21.4983 H   0  0  0  0  0  0
  -32.4674  -16.4154   21.8415 H   0  0  0  0  0  0
  -27.9753  -20.3021   20.9008 H   0  0  0  0  0  0
  -30.4494  -21.9344   20.2276 H   0  0  0  0  0  0
  -26.8660  -17.3131   18.8042 H   0  0  0  0  0  0
  -28.5379  -16.7819   18.6371 H   0  0  0  0  0  0
  -28.1492  -18.5014   18.6164 H   0  0  0  0  0  0
  -27.3649  -18.3103   21.0341 H   0  0  0  0  0  0
  -27.7692  -16.6502   21.0382 H   0  0  0  0  0  0
  -27.5881  -22.7785   20.8183 H   0  0  0  0  0  0
  -27.9988  -22.7048   19.1180 H   0  0  0  0  0  0
  -28.4237  -25.4787   21.8228 H   0  0  0  0  0  0
  -27.1235  -25.0515   20.7435 H   0  0  0  0  0  0
  -29.0667  -15.2847   21.3661 H   0  0  0  0  0  0
  1 25  1  0  0  0
  1 30  2  0  0  0
  1 84  1  0  0  0
  2  3  1  0  0  0
  2 25  1  0  0  0
  2 87  1  0  0  0
  2 88  1  0  0  0
  3  4  1  0  0  0
  3 89  1  0  0  0
  3 90  1  0  0  0
  4  5  1  0  0  0
  4 91  1  0  0  0
  4 92  1  0  0  0
  5  6  1  0  0  0
  5 26  1  0  0  0
  5 93  1  0  0  0
  6 25  1  0  0  0
  6 94  1  0  0  0
  6 95  1  0  0  0
  7  8  2  0  0  0
  7 26  1  0  0  0
  7 29  1  0  0  0
  8  9  1  0  0  0
  8 22  1  0  0  0
  9 10  1  0  0  0
  9 27  2  0  0  0
 10 11  2  0  0  0
 10 15  1  0  0  0
 11 12  1  0  0  0
 11 96  1  0  0  0
 12 13  2  0  0  0
 12 97  1  0  0  0
 13 14  1  0  0  0
 13 31  1  0  0  0
 14 15  2  0  0  0
 14 98  1  0  0  0
 15 99  1  0  0  0
 16 17  2  0  0  0
 16 21  1  0  0  0
 16 31  1  0  0  0
 17 18  1  0  0  0
 17100  1  0  0  0
 18 19  2  0  0  0
 18101  1  0  0  0
 19 20  1  0  0  0
 19 24  1  0  0  0
 20 21  2  0  0  0
 20102  1  0  0  0
 21 23  1  0  0  0
 22 28  1  0  0  0
 22 32  2  0  0  0
 26 27  1  0  0  0
 28103  1  0  0  0
 28104  1  0  0  0
 29105  1  0  0  0
 29106  1  0  0  0
 33 34  1  0  0  0
 33 66  1  0  0  0
 33 70  2  0  0  0
 34 36  1  0  0  0
 34 59  1  0  0  0
 34107  1  0  0  0
 35 44  2  0  0  0
 35 45  1  0  0  0
 35 68  1  0  0  0
 36 56  1  0  0  0
 36108  1  0  0  0
 37 39  1  0  0  0
 37 47  1  0  0  0
 37 66  1  0  0  0
 37109  1  0  0  0
 38 43  2  0  0  0
 38 46  1  0  0  0
 38 47  1  0  0  0
 39 64  1  0  0  0
 39 67  2  0  0  0
 40 52  1  0  0  0
 40 53  2  0  0  0
 40 58  1  0  0  0
 41110  1  0  0  0
 41111  1  0  0  0
 41112  1  0  0  0
 41 48  1  0  0  0
 42 43  1  0  0  0
 42 66  1  0  0  0
 42113  1  0  0  0
 42114  1  0  0  0
 43 44  1  0  0  0
 44115  1  0  0  0
 45 46  2  0  0  0
 45116  1  0  0  0
 46117  1  0  0  0
 47118  1  0  0  0
 47119  1  0  0  0
 48 56  1  0  0  0
 48 65  1  0  0  0
 48120  1  0  0  0
 49 50  1  0  0  0
 49 53  1  0  0  0
 49 64  1  0  0  0
 49121  1  0  0  0
 50 51  1  0  0  0
 50122  1  0  0  0
 50123  1  0  0  0
 51 52  1  0  0  0
 51124  1  0  0  0
 51125  1  0  0  0
 52126  1  0  0  0
 52127  1  0  0  0
 53 54  1  0  0  0
 54 55  2  0  0  0
 54128  1  0  0  0
 55 57  1  0  0  0
 55129  1  0  0  0
 56 69  2  0  0  0
 57 58  2  0  0  0
 57130  1  0  0  0
 58131  1  0  0  0
 59 60  1  0  0  0
 59 61  1  0  0  0
 59 62  1  0  0  0
 60132  1  0  0  0
 60133  1  0  0  0
 60134  1  0  0  0
 61135  1  0  0  0
 61136  1  0  0  0
 61137  1  0  0  0
 62138  1  0  0  0
 62139  1  0  0  0
 62140  1  0  0  0
 63 65  1  0  0  0
 63141  1  0  0  0
 63142  1  0  0  0
 63143  1  0  0  0
 64144  1  0  0  0
 65145  1  0  0  0
 68 83  1  0  0  0
 71 73  2  0  0  0
 71 76  1  0  0  0
 71146  1  0  0  0
 72 75  1  0  0  0
 72 76  2  0  0  0
 72147  1  0  0  0
 73 74  1  0  0  0
 73 77  1  0  0  0
 74 75  2  0  0  0
 74 81  1  0  0  0
 75 84  1  0  0  0
 76 86  1  0  0  0
 77 78  2  0  0  0
 77148  1  0  0  0
 78 82  1  0  0  0
 78149  1  0  0  0
 79 82  1  0  0  0
 79 83  1  0  0  0
 79 85  2  0  0  0
 80 81  1  0  0  0
 80150  1  0  0  0
 80151  1  0  0  0
 80152  1  0  0  0
 81153  1  0  0  0
 81154  1  0  0  0
 82155  1  0  0  0
 82156  1  0  0  0
 83157  1  0  0  0
 83158  1  0  0  0
 84159  1  0  0  0
M  ISO  4   1 100  68 101  83 101  84 100
M  END
> <chiral flag>
0

> <version>
0

> <s_m_source_file>
/data/baiqing/PycharmProjects/Reinvent-master-3.2/result/LINK_invent/BTK/process_docking_weight1_custom_product_contain_oxygen_bond_distance_aromatic_linkinvent_7_9_3/rearranged_h_0122.sdf

> <i_m_source_file_index>
22

> <r_mmod_Potential_Energy-OPLS-2005>
2.44442009925842

> <r_mmod_Stretch_Energy-OPLS-2005>
42.7009315490723

> <r_mmod_Bend_Energy-OPLS-2005>
91.7705154418945

> <r_mmod_Torsional_Energy-OPLS-2005>
247.149490356445

> <r_mmod_Improper_Torsional_Energy-OPLS-2005>
4.05228805541992

> <r_mmod_Van_der_Waal_Energy-OPLS-2005>
153.990936279297

> <r_mmod_Electrostatic_Energy-OPLS-2005>
-331.51904296875

> <r_mmod_Solvation_Energy-OPLS-2005>
-220.049713134766

> <b_mmod_Minimization_Converged-OPLS-2005>
0

> <r_mmod_RMS_Derivative-OPLS-2005>
0.912511229515076

$$$$
22
                    3D
 Structure written by MMmdl.
158166  0  0  1  0            999 V2000
  -30.7605  -14.3930   20.5549 C   0  0  0  0  0  0
  -30.3965  -12.2490   19.4283 C   0  0  0  0  0  0
  -29.4893  -12.4831   18.2055 C   0  0  0  0  0  0
  -28.0066  -12.3620   18.6105 C   0  0  0  0  0  0
  -27.6561  -13.2062   19.8662 C   0  0  2  0  0  0
  -28.6953  -13.0034   20.9917 C   0  0  0  0  0  0
  -25.2579  -13.8170   20.5686 C   0  0  0  0  0  0
  -24.1835  -13.0446   20.9198 C   0  0  0  0  0  0
  -24.6381  -11.6914   20.8751 C   0  0  0  0  0  0
  -23.9050  -10.4302   21.0420 C   0  0  0  0  0  0
  -24.3605   -9.4213   21.9188 C   0  0  0  0  0  0
  -23.6305   -8.2231   22.0741 C   0  0  0  0  0  0
  -22.4280   -8.0274   21.3541 C   0  0  0  0  0  0
  -21.9916   -9.0243   20.4639 C   0  0  0  0  0  0
  -22.7234  -10.2135   20.3056 C   0  0  0  0  0  0
  -21.6844   -6.0745   22.5296 C   0  0  0  0  0  0
  -21.4004   -6.5647   23.8230 C   0  0  0  0  0  0
  -21.3664   -5.6796   24.9188 C   0  0  0  0  0  0
  -21.6041   -4.3055   24.7232 C   0  0  0  0  0  0
  -21.8819   -3.8151   23.4351 C   0  0  0  0  0  0
  -21.9191   -4.6974   22.3412 C   0  0  0  0  0  0
  -22.7857  -13.5254   21.1864 C   0  0  0  0  0  0
  -22.1662   -4.2164   21.0993 F   0  0  0  0  0  0
  -21.5631   -3.4540   25.7741 F   0  0  0  0  0  0
  -30.0319  -13.2543   20.4365 N   0  0  0  0  0  0
  -26.2996  -12.9333   20.3321 N   0  0  0  0  0  0
  -25.9298  -11.6496   20.5747 N   0  0  0  0  0  0
  -22.0493  -12.8252   22.0418 N   0  0  0  0  0  0
  -25.4311  -15.1892   20.4100 N   0  0  0  0  0  0
  -31.9181  -14.4716   20.1348 O   0  0  0  0  0  0
  -21.6630   -6.8885   21.4250 O   0  0  0  0  0  0
  -22.3565  -14.5566   20.6722 O   0  0  0  0  0  0
  -24.6106  -31.8725   23.2140 C   0  0  0  0  0  0
  -25.9024  -32.4843   23.8418 C   0  0  1  0  0  0
  -27.2230  -27.4796   20.0877 C   0  0  0  0  0  0
  -25.5890  -33.8643   24.2338 N   0  0  0  0  0  0
  -23.3944  -30.4984   21.5537 C   0  0  2  0  0  0
  -24.8383  -28.9698   20.1152 C   0  0  0  0  0  0
  -22.7390  -29.4687   22.5011 C   0  0  0  0  0  0
  -18.0261  -28.1376   22.8497 C   0  0  0  0  0  0
  -24.1483  -36.7324   23.2638 C   0  0  0  0  0  0
  -25.9195  -30.8510   21.3617 C   0  0  0  0  0  0
  -25.9971  -29.4904   20.7066 C   0  0  0  0  0  0
  -27.1969  -28.7524   20.6891 C   0  0  0  0  0  0
  -26.0535  -26.9636   19.4891 C   0  0  0  0  0  0
  -24.8588  -27.7040   19.5046 C   0  0  0  0  0  0
  -23.5992  -29.8313   20.1673 C   0  0  0  0  0  0
  -25.4107  -36.3131   24.0335 C   0  0  1  0  0  0
  -20.5853  -28.3658   23.1330 C   0  0  2  0  0  0
  -20.6748  -26.9393   22.5426 C   0  0  0  0  0  0
  -19.5729  -26.6383   21.5219 C   0  0  0  0  0  0
  -18.1910  -26.7921   22.1628 C   0  0  0  0  0  0
  -19.1515  -28.8828   23.2914 C   0  0  0  0  0  0
  -18.9444  -30.1436   23.8925 C   0  0  0  0  0  0
  -17.6451  -30.6587   24.0557 C   0  0  0  0  0  0
  -25.9028  -34.9491   23.5132 C   0  0  0  0  0  0
  -16.5336  -29.9090   23.6324 C   0  0  0  0  0  0
  -16.7251  -28.6503   23.0345 C   0  0  0  0  0  0
  -26.4465  -31.6617   25.0737 C   0  0  0  0  0  0
  -25.3738  -31.3724   26.1490 C   0  0  0  0  0  0
  -27.0283  -30.3051   24.6114 C   0  0  0  0  0  0
  -27.6052  -32.4331   25.7497 C   0  0  0  0  0  0
  -27.5579  -37.1817   24.8460 C   0  0  0  0  0  0
  -21.4120  -29.3038   22.3743 N   0  0  0  0  0  0
  -26.4294  -37.3814   23.9406 N   0  0  0  0  0  0
  -24.6590  -31.0878   22.1011 N   0  0  0  0  0  0
  -23.4186  -28.8228   23.3031 O   0  0  0  0  0  0
  -28.3802  -26.7522   20.0884 O   0  0  0  0  0  0
  -26.5591  -34.8935   22.4692 O   0  0  0  0  0  0
  -23.5316  -32.1452   23.7569 O   0  0  0  0  0  0
  -29.2638  -18.5381   20.7381 C   0  0  0  0  0  0
  -31.2520  -18.9507   22.0741 C   0  0  0  0  0  0
  -30.3819  -18.0483   21.4400 C   0  0  0  0  0  0
  -30.0771  -20.8267   21.0408 C   0  0  0  0  0  0
  -29.1121  -19.9228   20.5167 C   0  0  0  0  0  0
  -31.1063  -20.3352   21.8803 C   0  0  0  0  0  0
  -30.7830  -16.6436   21.3627 C   0  0  0  0  0  0
  -30.1121  -22.2499   20.6754 C   0  0  0  0  0  0
  -30.0460  -15.6016   20.9311 C   0  0  0  0  0  0
  -29.0905  -23.1188   20.7207 C   0  0  0  0  0  0
  -29.2677  -24.5033   20.2711 C   0  0  0  0  0  0
  -27.9759  -20.3770   19.6119 C   0  0  0  0  0  0
  -32.1143  -21.2700   22.5325 C   0  0  0  0  0  0
  -28.2405  -25.5097   20.7740 C   0  0  0  0  0  0
  -30.1860  -24.8654   19.5243 O   0  0  0  0  0  0
  -31.4470  -12.2933   19.1342 H   0  0  0  0  0  0
  -30.2477  -11.2450   19.8298 H   0  0  0  0  0  0
  -29.7233  -11.7616   17.4212 H   0  0  0  0  0  0
  -29.6805  -13.4709   17.7842 H   0  0  0  0  0  0
  -27.8010  -11.3079   18.8009 H   0  0  0  0  0  0
  -27.3646  -12.6491   17.7768 H   0  0  0  0  0  0
  -27.6943  -14.2490   19.5557 H   0  0  0  0  0  0
  -28.6484  -11.9837   21.3740 H   0  0  0  0  0  0
  -28.4795  -13.6477   21.8457 H   0  0  0  0  0  0
  -25.2752   -9.5691   22.4758 H   0  0  0  0  0  0
  -24.0029   -7.4616   22.7437 H   0  0  0  0  0  0
  -21.0855   -8.8754   19.8942 H   0  0  0  0  0  0
  -22.3697  -10.9664   19.6155 H   0  0  0  0  0  0
  -21.1980   -7.6151   23.9751 H   0  0  0  0  0  0
  -21.1495   -6.0511   25.9102 H   0  0  0  0  0  0
  -22.0593   -2.7614   23.2837 H   0  0  0  0  0  0
  -22.4098  -11.9913   22.4819 H   0  0  0  0  0  0
  -21.1100  -13.1262   22.2590 H   0  0  0  0  0  0
  -24.6656  -15.8462   20.5183 H   0  0  0  0  0  0
  -26.2885  -15.6281   20.0993 H   0  0  0  0  0  0
  -26.7103  -32.5568   23.1195 H   0  0  0  0  0  0
  -25.0007  -33.9820   25.0455 H   0  0  0  0  0  0
  -22.6806  -31.3135   21.4184 H   0  0  0  0  0  0
  -23.3744  -35.9659   23.3327 H   0  0  0  0  0  0
  -24.3562  -36.8915   22.2045 H   0  0  0  0  0  0
  -23.7234  -37.6534   23.6637 H   0  0  0  0  0  0
  -26.0319  -31.6220   20.5984 H   0  0  0  0  0  0
  -26.8059  -30.8987   21.9818 H   0  0  0  0  0  0
  -28.0935  -29.1483   21.1454 H   0  0  0  0  0  0
  -26.0634  -25.9964   19.0069 H   0  0  0  0  0  0
  -23.9685  -27.3005   19.0428 H   0  0  0  0  0  0
  -23.7038  -30.6037   19.4050 H   0  0  0  0  0  0
  -22.7239  -29.2493   19.8736 H   0  0  0  0  0  0
  -25.1284  -36.1997   25.0829 H   0  0  0  0  0  0
  -20.9948  -28.3220   24.1451 H   0  0  0  0  0  0
  -20.5655  -26.2266   23.3616 H   0  0  0  0  0  0
  -21.6616  -26.7445   22.1219 H   0  0  0  0  0  0
  -19.6882  -25.6303   21.1233 H   0  0  0  0  0  0
  -19.6658  -27.3205   20.6761 H   0  0  0  0  0  0
  -17.4179  -26.6678   21.4026 H   0  0  0  0  0  0
  -18.0296  -26.0057   22.9019 H   0  0  0  0  0  0
  -19.7923  -30.7231   24.2315 H   0  0  0  0  0  0
  -17.5010  -31.6272   24.5145 H   0  0  0  0  0  0
  -15.5343  -30.2994   23.7640 H   0  0  0  0  0  0
  -15.8649  -28.0830   22.7049 H   0  0  0  0  0  0
  -24.5867  -30.7138   25.7801 H   0  0  0  0  0  0
  -24.8994  -32.2894   26.5002 H   0  0  0  0  0  0
  -25.8084  -30.8814   27.0207 H   0  0  0  0  0  0
  -26.2823  -29.6832   24.1152 H   0  0  0  0  0  0
  -27.4010  -29.7280   25.4590 H   0  0  0  0  0  0
  -27.8687  -30.4349   23.9288 H   0  0  0  0  0  0
  -27.2667  -33.3602   26.2139 H   0  0  0  0  0  0
  -28.3830  -32.6944   25.0306 H   0  0  0  0  0  0
  -28.0761  -31.8419   26.5362 H   0  0  0  0  0  0
  -28.2616  -38.0099   24.7513 H   0  0  0  0  0  0
  -28.1064  -36.2637   24.6287 H   0  0  0  0  0  0
  -27.2304  -37.1463   25.8866 H   0  0  0  0  0  0
  -20.9273  -29.8760   21.6972 H   0  0  0  0  0  0
  -26.0189  -38.2897   24.1404 H   0  0  0  0  0  0
  -28.5860  -17.8494   20.2548 H   0  0  0  0  0  0
  -32.0990  -18.5785   22.6342 H   0  0  0  0  0  0
  -31.8305  -16.4782   21.5807 H   0  0  0  0  0  0
  -31.0702  -22.5976   20.3110 H   0  0  0  0  0  0
  -28.9842  -15.6938   20.7690 H   0  0  0  0  0  0
  -28.1189  -22.8277   21.0898 H   0  0  0  0  0  0
  -27.3978  -19.5293   19.2427 H   0  0  0  0  0  0
  -28.3641  -20.9121   18.7452 H   0  0  0  0  0  0
  -27.2796  -21.0244   20.1414 H   0  0  0  0  0  0
  -32.6332  -20.7792   23.3563 H   0  0  0  0  0  0
  -31.6224  -22.1532   22.9412 H   0  0  0  0  0  0
  -32.8605  -21.5945   21.8076 H   0  0  0  0  0  0
  -28.3970  -25.6687   21.8414 H   0  0  0  0  0  0
  -27.2481  -25.0718   20.6584 H   0  0  0  0  0  0
  1 25  1  0  0  0
  1 30  2  0  0  0
  1 79  1  0  0  0
  2  3  1  0  0  0
  2 25  1  0  0  0
  2 86  1  0  0  0
  2 87  1  0  0  0
  3  4  1  0  0  0
  3 88  1  0  0  0
  3 89  1  0  0  0
  4  5  1  0  0  0
  4 90  1  0  0  0
  4 91  1  0  0  0
  5  6  1  0  0  0
  5 26  1  0  0  0
  5 92  1  0  0  0
  6 25  1  0  0  0
  6 93  1  0  0  0
  6 94  1  0  0  0
  7  8  2  0  0  0
  7 26  1  0  0  0
  7 29  1  0  0  0
  8  9  1  0  0  0
  8 22  1  0  0  0
  9 10  1  0  0  0
  9 27  2  0  0  0
 10 11  2  0  0  0
 10 15  1  0  0  0
 11 12  1  0  0  0
 11 95  1  0  0  0
 12 13  2  0  0  0
 12 96  1  0  0  0
 13 14  1  0  0  0
 13 31  1  0  0  0
 14 15  2  0  0  0
 14 97  1  0  0  0
 15 98  1  0  0  0
 16 17  2  0  0  0
 16 21  1  0  0  0
 16 31  1  0  0  0
 17 18  1  0  0  0
 17 99  1  0  0  0
 18 19  2  0  0  0
 18100  1  0  0  0
 19 20  1  0  0  0
 19 24  1  0  0  0
 20 21  2  0  0  0
 20101  1  0  0  0
 21 23  1  0  0  0
 22 28  1  0  0  0
 22 32  2  0  0  0
 26 27  1  0  0  0
 28102  1  0  0  0
 28103  1  0  0  0
 29104  1  0  0  0
 29105  1  0  0  0
 33 34  1  0  0  0
 33 66  1  0  0  0
 33 70  2  0  0  0
 34 36  1  0  0  0
 34 59  1  0  0  0
 34106  1  0  0  0
 35 44  2  0  0  0
 35 45  1  0  0  0
 35 68  1  0  0  0
 36 56  1  0  0  0
 36107  1  0  0  0
 37 39  1  0  0  0
 37 47  1  0  0  0
 37 66  1  0  0  0
 37108  1  0  0  0
 38 43  2  0  0  0
 38 46  1  0  0  0
 38 47  1  0  0  0
 39 64  1  0  0  0
 39 67  2  0  0  0
 40 52  1  0  0  0
 40 53  2  0  0  0
 40 58  1  0  0  0
 41109  1  0  0  0
 41110  1  0  0  0
 41111  1  0  0  0
 41 48  1  0  0  0
 42 43  1  0  0  0
 42 66  1  0  0  0
 42112  1  0  0  0
 42113  1  0  0  0
 43 44  1  0  0  0
 44114  1  0  0  0
 45 46  2  0  0  0
 45115  1  0  0  0
 46116  1  0  0  0
 47117  1  0  0  0
 47118  1  0  0  0
 48 56  1  0  0  0
 48 65  1  0  0  0
 48119  1  0  0  0
 49 50  1  0  0  0
 49 53  1  0  0  0
 49 64  1  0  0  0
 49120  1  0  0  0
 50 51  1  0  0  0
 50121  1  0  0  0
 50122  1  0  0  0
 51 52  1  0  0  0
 51123  1  0  0  0
 51124  1  0  0  0
 52125  1  0  0  0
 52126  1  0  0  0
 53 54  1  0  0  0
 54 55  2  0  0  0
 54127  1  0  0  0
 55 57  1  0  0  0
 55128  1  0  0  0
 56 69  2  0  0  0
 57 58  2  0  0  0
 57129  1  0  0  0
 58130  1  0  0  0
 59 60  1  0  0  0
 59 61  1  0  0  0
 59 62  1  0  0  0
 60131  1  0  0  0
 60132  1  0  0  0
 60133  1  0  0  0
 61134  1  0  0  0
 61135  1  0  0  0
 61136  1  0  0  0
 62137  1  0  0  0
 62138  1  0  0  0
 62139  1  0  0  0
 63 65  1  0  0  0
 63140  1  0  0  0
 63141  1  0  0  0
 63142  1  0  0  0
 64143  1  0  0  0
 65144  1  0  0  0
 68 84  1  0  0  0
 71 73  2  0  0  0
 71 75  1  0  0  0
 71145  1  0  0  0
 72 73  1  0  0  0
 72 76  2  0  0  0
 72146  1  0  0  0
 73 77  1  0  0  0
 74 75  2  0  0  0
 74 76  1  0  0  0
 74 78  1  0  0  0
 75 82  1  0  0  0
 76 83  1  0  0  0
 77 79  2  0  0  0
 77147  1  0  0  0
 78 80  2  0  0  0
 78148  1  0  0  0
 79149  1  0  0  0
 80 81  1  0  0  0
 80150  1  0  0  0
 81 84  1  0  0  0
 81 85  2  0  0  0
 82151  1  0  0  0
 82152  1  0  0  0
 82153  1  0  0  0
 83154  1  0  0  0
 83155  1  0  0  0
 83156  1  0  0  0
 84157  1  0  0  0
 84158  1  0  0  0
M  ISO  4   1 100  68 101  79 100  84 101
M  END
> <chiral flag>
0

> <version>
0

> <s_m_source_file>
/data/baiqing/PycharmProjects/Reinvent-master-3.2/result/LINK_invent/BTK/process_docking_weight1_custom_product_contain_oxygen_bond_distance_aromatic_linkinvent_7_9_3/rearranged_h_0122.sdf

> <i_m_source_file_index>
23

> <r_mmod_Potential_Energy-OPLS-2005>
13.890664100647

> <r_mmod_Stretch_Energy-OPLS-2005>
30.690258026123

> <r_mmod_Bend_Energy-OPLS-2005>
91.3303070068359

> <r_mmod_Torsional_Energy-OPLS-2005>
246.215316772461

> <r_mmod_Improper_Torsional_Energy-OPLS-2005>
11.1730117797852

> <r_mmod_Van_der_Waal_Energy-OPLS-2005>
170.915878295898

> <r_mmod_Electrostatic_Energy-OPLS-2005>
-336.78955078125

> <r_mmod_Solvation_Energy-OPLS-2005>
-215.320571899414

> <b_mmod_Minimization_Converged-OPLS-2005>
0

> <r_mmod_RMS_Derivative-OPLS-2005>
1.81228125095367

$$$$
23
                    3D
 Structure written by MMmdl.
156164  0  0  1  0            999 V2000
  -30.6534  -14.5340   20.4843 C   0  0  0  0  0  0
  -30.4315  -12.3174   19.4381 C   0  0  0  0  0  0
  -29.5018  -12.4889   18.2146 C   0  0  0  0  0  0
  -28.0202  -12.3390   18.6208 C   0  0  0  0  0  0
  -27.6539  -13.1940   19.8614 C   0  0  2  0  0  0
  -28.7000  -13.0013   20.9852 C   0  0  0  0  0  0
  -25.2561  -13.8091   20.5689 C   0  0  0  0  0  0
  -24.1809  -13.0388   20.9175 C   0  0  0  0  0  0
  -24.6361  -11.6863   20.8725 C   0  0  0  0  0  0
  -23.9033  -10.4265   21.0401 C   0  0  0  0  0  0
  -24.3598   -9.4191   21.9180 C   0  0  0  0  0  0
  -23.6279   -8.2227   22.0754 C   0  0  0  0  0  0
  -22.4260   -8.0265   21.3545 C   0  0  0  0  0  0
  -21.9887   -9.0235   20.4646 C   0  0  0  0  0  0
  -22.7209  -10.2114   20.3050 C   0  0  0  0  0  0
  -21.6852   -6.0723   22.5281 C   0  0  0  0  0  0
  -21.4011   -6.5631   23.8211 C   0  0  0  0  0  0
  -21.3657   -5.6789   24.9175 C   0  0  0  0  0  0
  -21.6047   -4.3051   24.7232 C   0  0  0  0  0  0
  -21.8823   -3.8140   23.4354 C   0  0  0  0  0  0
  -21.9195   -4.6952   22.3407 C   0  0  0  0  0  0
  -22.7844  -13.5212   21.1856 C   0  0  0  0  0  0
  -22.1665   -4.2134   21.0987 F   0  0  0  0  0  0
  -21.5631   -3.4538   25.7746 F   0  0  0  0  0  0
  -30.0300  -13.3193   20.4393 N   0  0  0  0  0  0
  -26.2978  -12.9246   20.3304 N   0  0  0  0  0  0
  -25.9277  -11.6423   20.5731 N   0  0  0  0  0  0
  -22.0491  -12.8211   22.0420 N   0  0  0  0  0  0
  -25.4255  -15.1805   20.4182 N   0  0  0  0  0  0
  -31.8391  -14.6668   20.1669 O   0  0  0  0  0  0
  -21.6635   -6.8860   21.4239 O   0  0  0  0  0  0
  -22.3537  -14.5529   20.6716 O   0  0  0  0  0  0
  -24.6153  -31.8672   23.2093 C   0  0  0  0  0  0
  -25.9043  -32.4816   23.8391 C   0  0  1  0  0  0
  -27.2402  -27.4204   20.0868 C   0  0  0  0  0  0
  -25.5896  -33.8617   24.2323 N   0  0  0  0  0  0
  -23.4034  -30.4908   21.5507 C   0  0  2  0  0  0
  -24.8484  -28.9539   20.1166 C   0  0  0  0  0  0
  -22.7413  -29.4656   22.4992 C   0  0  0  0  0  0
  -18.0272  -28.1372   22.8492 C   0  0  0  0  0  0
  -24.1486  -36.7313   23.2640 C   0  0  0  0  0  0
  -25.9339  -30.8266   21.3651 C   0  0  0  0  0  0
  -26.0089  -29.4594   20.7125 C   0  0  0  0  0  0
  -27.2016  -28.6986   20.6972 C   0  0  0  0  0  0
  -26.0478  -26.9248   19.5046 C   0  0  0  0  0  0
  -24.8631  -27.6855   19.5143 C   0  0  0  0  0  0
  -23.6119  -29.8229   20.1656 C   0  0  0  0  0  0
  -25.4109  -36.3110   24.0337 C   0  0  1  0  0  0
  -20.5863  -28.3662   23.1319 C   0  0  2  0  0  0
  -20.6762  -26.9399   22.5420 C   0  0  0  0  0  0
  -19.5744  -26.6387   21.5211 C   0  0  0  0  0  0
  -18.1922  -26.7919   22.1621 C   0  0  0  0  0  0
  -19.1520  -28.8833   23.2902 C   0  0  0  0  0  0
  -18.9447  -30.1438   23.8914 C   0  0  0  0  0  0
  -17.6450  -30.6579   24.0564 C   0  0  0  0  0  0
  -25.9036  -34.9474   23.5129 C   0  0  0  0  0  0
  -16.5343  -29.9081   23.6323 C   0  0  0  0  0  0
  -16.7261  -28.6496   23.0350 C   0  0  0  0  0  0
  -26.4469  -31.6598   25.0723 C   0  0  0  0  0  0
  -25.3736  -31.3705   26.1473 C   0  0  0  0  0  0
  -27.0300  -30.3040   24.6100 C   0  0  0  0  0  0
  -27.6047  -32.4320   25.7482 C   0  0  0  0  0  0
  -27.5581  -37.1813   24.8467 C   0  0  0  0  0  0
  -21.4142  -29.3030   22.3730 N   0  0  0  0  0  0
  -26.4297  -37.3793   23.9406 N   0  0  0  0  0  0
  -24.6691  -31.0765   22.0996 N   0  0  0  0  0  0
  -23.4186  -28.8199   23.3036 O   0  0  0  0  0  0
  -28.4380  -26.7217   20.1021 O   0  0  0  0  0  0
  -26.5602  -34.8925   22.4694 O   0  0  0  0  0  0
  -23.5343  -32.1431   23.7480 O   0  0  0  0  0  0
  -27.8018  -17.7478   19.6976 C   0  0  0  0  0  0
  -26.8588  -18.7518   19.4513 C   0  0  0  0  0  0
  -29.4297  -19.4388   20.2836 C   0  0  0  0  0  0
  -29.1109  -18.0660   20.0987 C   0  0  0  0  0  0
  -27.1801  -20.1188   19.5809 C   0  0  0  0  0  0
  -28.4930  -20.4877   20.0326 C   0  0  0  0  0  0
  -24.8123  -20.9171   19.6440 C   0  0  0  0  0  0
  -30.0853  -16.9500   20.2572 C   0  0  0  0  0  0
  -26.0838  -21.0405   19.2272 C   0  0  0  0  0  0
  -29.7441  -15.6842   20.6149 C   0  0  0  0  0  0
  -28.8312  -24.2726   20.2898 C   0  0  0  0  0  0
  -28.5908  -25.4885   19.3664 C   0  0  0  0  0  0
  -28.2062  -22.9345   19.8517 C   0  0  0  0  0  0
  -29.4890  -24.3703   21.3329 O   0  0  0  0  0  0
  -28.9575  -21.7825   20.2785 O   0  0  0  0  0  0
  -31.4754  -12.4219   19.1380 H   0  0  0  0  0  0
  -30.3398  -11.3118   19.8513 H   0  0  0  0  0  0
  -29.7522  -11.7556   17.4470 H   0  0  0  0  0  0
  -29.6612  -13.4694   17.7633 H   0  0  0  0  0  0
  -27.8407  -11.2846   18.8334 H   0  0  0  0  0  0
  -27.3708  -12.5935   17.7826 H   0  0  0  0  0  0
  -27.6762  -14.2285   19.5249 H   0  0  0  0  0  0
  -28.6866  -11.9684   21.3361 H   0  0  0  0  0  0
  -28.4644  -13.6031   21.8638 H   0  0  0  0  0  0
  -25.2746   -9.5677   22.4746 H   0  0  0  0  0  0
  -23.9997   -7.4622   22.7468 H   0  0  0  0  0  0
  -21.0821   -8.8747   19.8952 H   0  0  0  0  0  0
  -22.3668  -10.9652   19.6158 H   0  0  0  0  0  0
  -21.1999   -7.6140   23.9707 H   0  0  0  0  0  0
  -21.1476   -6.0521   25.9075 H   0  0  0  0  0  0
  -22.0604   -2.7600   23.2864 H   0  0  0  0  0  0
  -22.4103  -11.9859   22.4789 H   0  0  0  0  0  0
  -21.1114  -13.1241   22.2647 H   0  0  0  0  0  0
  -24.6628  -15.8360   20.5477 H   0  0  0  0  0  0
  -26.2909  -15.6256   20.1510 H   0  0  0  0  0  0
  -26.7113  -32.5523   23.1153 H   0  0  0  0  0  0
  -25.0045  -33.9780   25.0465 H   0  0  0  0  0  0
  -22.6922  -31.3076   21.4116 H   0  0  0  0  0  0
  -23.3741  -35.9653   23.3318 H   0  0  0  0  0  0
  -24.3579  -36.8912   22.2052 H   0  0  0  0  0  0
  -23.7244  -37.6526   23.6643 H   0  0  0  0  0  0
  -26.0493  -31.5913   20.5957 H   0  0  0  0  0  0
  -26.8209  -30.8790   21.9846 H   0  0  0  0  0  0
  -28.0981  -29.0909   21.1566 H   0  0  0  0  0  0
  -25.9855  -25.9507   19.0470 H   0  0  0  0  0  0
  -23.9658  -27.2856   19.0620 H   0  0  0  0  0  0
  -23.7216  -30.5973   19.4056 H   0  0  0  0  0  0
  -22.7348  -29.2445   19.8699 H   0  0  0  0  0  0
  -25.1284  -36.1981   25.0831 H   0  0  0  0  0  0
  -20.9952  -28.3225   24.1439 H   0  0  0  0  0  0
  -20.5660  -26.2269   23.3607 H   0  0  0  0  0  0
  -21.6635  -26.7442   22.1216 H   0  0  0  0  0  0
  -19.6910  -25.6304   21.1222 H   0  0  0  0  0  0
  -19.6682  -27.3213   20.6753 H   0  0  0  0  0  0
  -17.4195  -26.6668   21.4020 H   0  0  0  0  0  0
  -18.0322  -26.0054   22.9009 H   0  0  0  0  0  0
  -19.7925  -30.7245   24.2297 H   0  0  0  0  0  0
  -17.5008  -31.6262   24.5160 H   0  0  0  0  0  0
  -15.5343  -30.2990   23.7634 H   0  0  0  0  0  0
  -15.8661  -28.0817   22.7061 H   0  0  0  0  0  0
  -24.5903  -30.7057   25.7811 H   0  0  0  0  0  0
  -24.8931  -32.2860   26.4935 H   0  0  0  0  0  0
  -25.8090  -30.8863   27.0222 H   0  0  0  0  0  0
  -26.2842  -29.6806   24.1149 H   0  0  0  0  0  0
  -27.4067  -29.7272   25.4556 H   0  0  0  0  0  0
  -27.8679  -30.4362   23.9249 H   0  0  0  0  0  0
  -27.2663  -33.3606   26.2092 H   0  0  0  0  0  0
  -28.3834  -32.6905   25.0294 H   0  0  0  0  0  0
  -28.0737  -31.8424   26.5370 H   0  0  0  0  0  0
  -28.2613  -38.0096   24.7501 H   0  0  0  0  0  0
  -28.1060  -36.2628   24.6308 H   0  0  0  0  0  0
  -27.2297  -37.1484   25.8872 H   0  0  0  0  0  0
  -20.9305  -29.8754   21.6952 H   0  0  0  0  0  0
  -26.0186  -38.2874   24.1395 H   0  0  0  0  0  0
  -27.5177  -16.7250   19.5108 H   0  0  0  0  0  0
  -25.8761  -18.4557   19.1113 H   0  0  0  0  0  0
  -30.4267  -19.7011   20.6072 H   0  0  0  0  0  0
  -24.0514  -21.6128   19.3194 H   0  0  0  0  0  0
  -24.5089  -20.1243   20.3137 H   0  0  0  0  0  0
  -31.1056  -17.1664   19.9701 H   0  0  0  0  0  0
  -26.3099  -21.8405   18.5395 H   0  0  0  0  0  0
  -28.7336  -15.5352   20.9532 H   0  0  0  0  0  0
  -27.7928  -25.2755   18.6613 H   0  0  0  0  0  0
  -29.4843  -25.5965   18.7516 H   0  0  0  0  0  0
  -28.1134  -22.9322   18.7658 H   0  0  0  0  0  0
  -27.2141  -22.9221   20.2988 H   0  0  0  0  0  0
  1 25  1  0  0  0
  1 30  2  0  0  0
  1 80  1  0  0  0
  2  3  1  0  0  0
  2 25  1  0  0  0
  2 86  1  0  0  0
  2 87  1  0  0  0
  3  4  1  0  0  0
  3 88  1  0  0  0
  3 89  1  0  0  0
  4  5  1  0  0  0
  4 90  1  0  0  0
  4 91  1  0  0  0
  5  6  1  0  0  0
  5 26  1  0  0  0
  5 92  1  0  0  0
  6 25  1  0  0  0
  6 93  1  0  0  0
  6 94  1  0  0  0
  7  8  2  0  0  0
  7 26  1  0  0  0
  7 29  1  0  0  0
  8  9  1  0  0  0
  8 22  1  0  0  0
  9 10  1  0  0  0
  9 27  2  0  0  0
 10 11  2  0  0  0
 10 15  1  0  0  0
 11 12  1  0  0  0
 11 95  1  0  0  0
 12 13  2  0  0  0
 12 96  1  0  0  0
 13 14  1  0  0  0
 13 31  1  0  0  0
 14 15  2  0  0  0
 14 97  1  0  0  0
 15 98  1  0  0  0
 16 17  2  0  0  0
 16 21  1  0  0  0
 16 31  1  0  0  0
 17 18  1  0  0  0
 17 99  1  0  0  0
 18 19  2  0  0  0
 18100  1  0  0  0
 19 20  1  0  0  0
 19 24  1  0  0  0
 20 21  2  0  0  0
 20101  1  0  0  0
 21 23  1  0  0  0
 22 28  1  0  0  0
 22 32  2  0  0  0
 26 27  1  0  0  0
 28102  1  0  0  0
 28103  1  0  0  0
 29104  1  0  0  0
 29105  1  0  0  0
 33 34  1  0  0  0
 33 66  1  0  0  0
 33 70  2  0  0  0
 34 36  1  0  0  0
 34 59  1  0  0  0
 34106  1  0  0  0
 35 44  2  0  0  0
 35 45  1  0  0  0
 35 68  1  0  0  0
 36 56  1  0  0  0
 36107  1  0  0  0
 37 39  1  0  0  0
 37 47  1  0  0  0
 37 66  1  0  0  0
 37108  1  0  0  0
 38 43  2  0  0  0
 38 46  1  0  0  0
 38 47  1  0  0  0
 39 64  1  0  0  0
 39 67  2  0  0  0
 40 52  1  0  0  0
 40 53  2  0  0  0
 40 58  1  0  0  0
 41109  1  0  0  0
 41110  1  0  0  0
 41111  1  0  0  0
 41 48  1  0  0  0
 42 43  1  0  0  0
 42 66  1  0  0  0
 42112  1  0  0  0
 42113  1  0  0  0
 43 44  1  0  0  0
 44114  1  0  0  0
 45 46  2  0  0  0
 45115  1  0  0  0
 46116  1  0  0  0
 47117  1  0  0  0
 47118  1  0  0  0
 48 56  1  0  0  0
 48 65  1  0  0  0
 48119  1  0  0  0
 49 50  1  0  0  0
 49 53  1  0  0  0
 49 64  1  0  0  0
 49120  1  0  0  0
 50 51  1  0  0  0
 50121  1  0  0  0
 50122  1  0  0  0
 51 52  1  0  0  0
 51123  1  0  0  0
 51124  1  0  0  0
 52125  1  0  0  0
 52126  1  0  0  0
 53 54  1  0  0  0
 54 55  2  0  0  0
 54127  1  0  0  0
 55 57  1  0  0  0
 55128  1  0  0  0
 56 69  2  0  0  0
 57 58  2  0  0  0
 57129  1  0  0  0
 58130  1  0  0  0
 59 60  1  0  0  0
 59 61  1  0  0  0
 59 62  1  0  0  0
 60131  1  0  0  0
 60132  1  0  0  0
 60133  1  0  0  0
 61134  1  0  0  0
 61135  1  0  0  0
 61136  1  0  0  0
 62137  1  0  0  0
 62138  1  0  0  0
 62139  1  0  0  0
 63 65  1  0  0  0
 63140  1  0  0  0
 63141  1  0  0  0
 63142  1  0  0  0
 64143  1  0  0  0
 65144  1  0  0  0
 68 82  1  0  0  0
 71 72  2  0  0  0
 71 74  1  0  0  0
 71145  1  0  0  0
 72 75  1  0  0  0
 72146  1  0  0  0
 73 74  2  0  0  0
 73 76  1  0  0  0
 73147  1  0  0  0
 74 78  1  0  0  0
 75 76  2  0  0  0
 75 79  1  0  0  0
 76 85  1  0  0  0
 77 79  2  0  0  0
 77148  1  0  0  0
 77149  1  0  0  0
 78 80  2  0  0  0
 78150  1  0  0  0
 79151  1  0  0  0
 80152  1  0  0  0
 81 82  1  0  0  0
 81 83  1  0  0  0
 81 84  2  0  0  0
 82153  1  0  0  0
 82154  1  0  0  0
 83 85  1  0  0  0
 83155  1  0  0  0
 83156  1  0  0  0
M  ISO  4   1 100  68 101  80 100  82 101
M  END
> <chiral flag>
0

> <version>
0

> <s_m_source_file>
/data/baiqing/PycharmProjects/Reinvent-master-3.2/result/LINK_invent/BTK/process_docking_weight1_custom_product_contain_oxygen_bond_distance_aromatic_linkinvent_7_9_3/rearranged_h_0122.sdf

> <i_m_source_file_index>
24

> <r_mmod_Potential_Energy-OPLS-2005>
74.6138305664062

> <r_mmod_Stretch_Energy-OPLS-2005>
46.615348815918

> <r_mmod_Bend_Energy-OPLS-2005>
125.614097595215

> <r_mmod_Torsional_Energy-OPLS-2005>
218.293334960938

> <r_mmod_Improper_Torsional_Energy-OPLS-2005>
9.73469829559326

> <r_mmod_Van_der_Waal_Energy-OPLS-2005>
168.458374023438

> <r_mmod_Electrostatic_Energy-OPLS-2005>
-285.209869384766

> <r_mmod_Solvation_Energy-OPLS-2005>
-229.916885375977

> <b_mmod_Minimization_Converged-OPLS-2005>
0

> <r_mmod_RMS_Derivative-OPLS-2005>
0.65642923116684

$$$$
24
                    3D
 Structure written by MMmdl.
149157  0  0  1  0            999 V2000
  -30.6373  -14.6873   20.5158 C   0  0  0  0  0  0
  -30.4146  -12.4119   19.5060 C   0  0  0  0  0  0
  -29.5314  -12.5481   18.2477 C   0  0  0  0  0  0
  -28.0383  -12.3966   18.6240 C   0  0  0  0  0  0
  -27.6482  -13.2443   19.8733 C   0  0  2  0  0  0
  -28.6817  -13.1164   21.0156 C   0  0  0  0  0  0
  -25.2493  -13.8187   20.5737 C   0  0  0  0  0  0
  -24.1781  -13.0467   20.9190 C   0  0  0  0  0  0
  -24.6353  -11.6925   20.8696 C   0  0  0  0  0  0
  -23.9020  -10.4322   21.0372 C   0  0  0  0  0  0
  -24.3590   -9.4258   21.9166 C   0  0  0  0  0  0
  -23.6303   -8.2259   22.0746 C   0  0  0  0  0  0
  -22.4258   -8.0283   21.3578 C   0  0  0  0  0  0
  -21.9879   -9.0249   20.4669 C   0  0  0  0  0  0
  -22.7169  -10.2145   20.3072 C   0  0  0  0  0  0
  -21.6849   -6.0732   22.5292 C   0  0  0  0  0  0
  -21.4012   -6.5655   23.8232 C   0  0  0  0  0  0
  -21.3664   -5.6797   24.9192 C   0  0  0  0  0  0
  -21.6050   -4.3053   24.7230 C   0  0  0  0  0  0
  -21.8804   -3.8146   23.4367 C   0  0  0  0  0  0
  -21.9185   -4.6958   22.3427 C   0  0  0  0  0  0
  -22.7783  -13.5242   21.1843 C   0  0  0  0  0  0
  -22.1638   -4.2162   21.0989 F   0  0  0  0  0  0
  -21.5655   -3.4529   25.7754 F   0  0  0  0  0  0
  -29.9954  -13.4651   20.4638 N   0  0  0  0  0  0
  -26.2954  -12.9445   20.3331 N   0  0  0  0  0  0
  -25.9295  -11.6572   20.5677 N   0  0  0  0  0  0
  -22.0370  -12.8351   22.0431 N   0  0  0  0  0  0
  -25.4275  -15.1936   20.4191 N   0  0  0  0  0  0
  -31.7677  -14.7713   20.0270 O   0  0  0  0  0  0
  -21.6653   -6.8873   21.4257 O   0  0  0  0  0  0
  -22.3509  -14.5540   20.6622 O   0  0  0  0  0  0
  -24.6356  -31.8559   23.1975 C   0  0  0  0  0  0
  -25.9201  -32.4711   23.8324 C   0  0  1  0  0  0
  -27.2018  -27.2281   20.1189 C   0  0  0  0  0  0
  -25.5999  -33.8515   24.2218 N   0  0  0  0  0  0
  -23.4265  -30.4853   21.5429 C   0  0  2  0  0  0
  -24.8695  -28.9300   20.1119 C   0  0  0  0  0  0
  -22.7505  -29.4665   22.4886 C   0  0  0  0  0  0
  -18.0285  -28.1420   22.8451 C   0  0  0  0  0  0
  -24.1522  -36.7259   23.2645 C   0  0  0  0  0  0
  -25.9847  -30.7486   21.4010 C   0  0  0  0  0  0
  -26.0469  -29.3771   20.7253 C   0  0  0  0  0  0
  -27.2109  -28.5333   20.7280 C   0  0  0  0  0  0
  -26.0113  -26.8854   19.4321 C   0  0  0  0  0  0
  -24.8601  -27.6917   19.4557 C   0  0  0  0  0  0
  -23.6386  -29.8171   20.1613 C   0  0  0  0  0  0
  -25.4170  -36.3026   24.0290 C   0  0  1  0  0  0
  -20.5895  -28.3736   23.1263 C   0  0  2  0  0  0
  -20.6780  -26.9417   22.5481 C   0  0  0  0  0  0
  -19.5800  -26.6341   21.5255 C   0  0  0  0  0  0
  -18.1921  -26.7985   22.1521 C   0  0  0  0  0  0
  -19.1536  -28.8884   23.2841 C   0  0  0  0  0  0
  -18.9450  -30.1487   23.8843 C   0  0  0  0  0  0
  -17.6451  -30.6617   24.0498 C   0  0  0  0  0  0
  -25.9120  -34.9405   23.5058 C   0  0  0  0  0  0
  -16.5337  -29.9070   23.6356 C   0  0  0  0  0  0
  -16.7268  -28.6487   23.0375 C   0  0  0  0  0  0
  -26.4492  -31.6550   25.0764 C   0  0  0  0  0  0
  -25.3671  -31.3930   26.1501 C   0  0  0  0  0  0
  -27.0139  -30.2803   24.6492 C   0  0  0  0  0  0
  -27.6207  -32.4187   25.7379 C   0  0  0  0  0  0
  -27.5625  -37.1779   24.8425 C   0  0  0  0  0  0
  -21.4223  -29.3067   22.3625 N   0  0  0  0  0  0
  -26.4347  -37.3734   23.9353 N   0  0  0  0  0  0
  -24.6987  -31.0536   22.0970 N   0  0  0  0  0  0
  -23.4198  -28.8231   23.3002 O   0  0  0  0  0  0
  -28.2756  -26.2954   20.1872 O   0  0  0  0  0  0
  -26.5659  -34.8881   22.4623 O   0  0  0  0  0  0
  -23.5513  -32.1389   23.7270 O   0  0  0  0  0  0
  -29.1882  -19.7170   20.3095 C   0  0  0  0  0  0
  -30.1170  -18.8630   22.3812 C   0  0  0  0  0  0
  -29.6346  -21.2627   22.1432 C   0  0  0  0  0  0
  -29.7094  -18.5816   21.0534 C   0  0  0  0  0  0
  -29.1357  -21.0835   20.8284 C   0  0  0  0  0  0
  -30.1030  -20.1717   22.9061 C   0  0  0  0  0  0
  -29.9694  -17.1568   20.4967 C   0  0  0  0  0  0
  -29.9870  -15.9121   21.1148 C   0  0  0  0  0  0
  -28.9097  -23.8045   20.3441 C   0  0  0  0  0  0
  -28.0545  -24.8725   20.0939 C   0  0  0  0  0  0
  -28.5616  -22.3172   20.0516 C   0  0  0  0  0  0
  -27.7941  -22.0823   19.1114 O   0  0  0  0  0  0
  -30.5791  -20.3954   24.1605 F   0  0  0  0  0  0
  -31.4704  -12.4840   19.2441 H   0  0  0  0  0  0
  -30.2926  -11.4205   19.9434 H   0  0  0  0  0  0
  -29.8129  -11.8036   17.5025 H   0  0  0  0  0  0
  -29.7061  -13.5250   17.7959 H   0  0  0  0  0  0
  -27.8459  -11.3428   18.8215 H   0  0  0  0  0  0
  -27.4115  -12.6723   17.7766 H   0  0  0  0  0  0
  -27.6584  -14.2867   19.5575 H   0  0  0  0  0  0
  -28.6890  -12.0970   21.4056 H   0  0  0  0  0  0
  -28.4128  -13.7460   21.8628 H   0  0  0  0  0  0
  -25.2734   -9.5809   22.4731 H   0  0  0  0  0  0
  -24.0059   -7.4672   22.7442 H   0  0  0  0  0  0
  -21.0793   -8.8718   19.9003 H   0  0  0  0  0  0
  -22.3550  -10.9672   19.6206 H   0  0  0  0  0  0
  -21.1991   -7.6132   23.9755 H   0  0  0  0  0  0
  -21.1499   -6.0510   25.9114 H   0  0  0  0  0  0
  -22.0570   -2.7609   23.2837 H   0  0  0  0  0  0
  -22.3862  -12.0086   22.5080 H   0  0  0  0  0  0
  -21.1010  -13.1508   22.2462 H   0  0  0  0  0  0
  -24.6884  -15.8706   20.5818 H   0  0  0  0  0  0
  -26.3025  -15.6207   20.1397 H   0  0  0  0  0  0
  -26.7290  -32.5259   23.1068 H   0  0  0  0  0  0
  -25.0115  -33.9650   25.0327 H   0  0  0  0  0  0
  -22.7262  -31.3130   21.3991 H   0  0  0  0  0  0
  -23.3834  -35.9543   23.3242 H   0  0  0  0  0  0
  -24.3617  -36.8984   22.2085 H   0  0  0  0  0  0
  -23.7241  -37.6407   23.6762 H   0  0  0  0  0  0
  -26.1950  -31.5237   20.6626 H   0  0  0  0  0  0
  -26.8351  -30.7442   22.0716 H   0  0  0  0  0  0
  -28.1069  -28.8606   21.2349 H   0  0  0  0  0  0
  -25.9147  -25.9696   18.8697 H   0  0  0  0  0  0
  -23.9622  -27.3522   18.9572 H   0  0  0  0  0  0
  -23.7535  -30.5867   19.3998 H   0  0  0  0  0  0
  -22.7495  -29.2527   19.8685 H   0  0  0  0  0  0
  -25.1405  -36.1870   25.0810 H   0  0  0  0  0  0
  -20.9979  -28.3370   24.1389 H   0  0  0  0  0  0
  -20.5664  -26.2374   23.3725 H   0  0  0  0  0  0
  -21.6668  -26.7433   22.1326 H   0  0  0  0  0  0
  -19.6974  -25.6220   21.1380 H   0  0  0  0  0  0
  -19.6845  -27.3073   20.6729 H   0  0  0  0  0  0
  -17.4301  -26.6870   21.3790 H   0  0  0  0  0  0
  -18.0126  -26.0091   22.8838 H   0  0  0  0  0  0
  -19.7925  -30.7317   24.2205 H   0  0  0  0  0  0
  -17.5004  -31.6346   24.5016 H   0  0  0  0  0  0
  -15.5341  -30.2933   23.7771 H   0  0  0  0  0  0
  -15.8651  -28.0788   22.7149 H   0  0  0  0  0  0
  -24.5746  -30.7399   25.7853 H   0  0  0  0  0  0
  -24.8989  -32.3181   26.4874 H   0  0  0  0  0  0
  -25.7887  -30.9089   27.0313 H   0  0  0  0  0  0
  -26.2645  -29.6607   24.1556 H   0  0  0  0  0  0
  -27.3524  -29.7158   25.5202 H   0  0  0  0  0  0
  -27.8759  -30.3744   23.9889 H   0  0  0  0  0  0
  -27.3061  -33.3624   26.1839 H   0  0  0  0  0  0
  -28.4003  -32.6463   25.0095 H   0  0  0  0  0  0
  -28.0851  -31.8311   26.5305 H   0  0  0  0  0  0
  -28.2759  -37.9964   24.7327 H   0  0  0  0  0  0
  -28.1006  -36.2511   24.6389 H   0  0  0  0  0  0
  -27.2363  -37.1612   25.8839 H   0  0  0  0  0  0
  -20.9433  -29.8656   21.6693 H   0  0  0  0  0  0
  -26.0240  -38.2842   24.1234 H   0  0  0  0  0  0
  -28.8418  -19.5363   19.2977 H   0  0  0  0  0  0
  -30.5150  -18.0756   23.0069 H   0  0  0  0  0  0
  -29.6395  -22.2417   22.6086 H   0  0  0  0  0  0
  -30.2966  -17.1597   19.4596 H   0  0  0  0  0  0
  -29.6122  -15.8370   22.1263 H   0  0  0  0  0  0
  -29.9052  -23.9912   20.7216 H   0  0  0  0  0  0
  -27.0670  -24.6190   19.7565 H   0  0  0  0  0  0
  1 25  1  0  0  0
  1 30  2  0  0  0
  1 78  1  0  0  0
  2  3  1  0  0  0
  2 25  1  0  0  0
  2 84  1  0  0  0
  2 85  1  0  0  0
  3  4  1  0  0  0
  3 86  1  0  0  0
  3 87  1  0  0  0
  4  5  1  0  0  0
  4 88  1  0  0  0
  4 89  1  0  0  0
  5  6  1  0  0  0
  5 26  1  0  0  0
  5 90  1  0  0  0
  6 25  1  0  0  0
  6 91  1  0  0  0
  6 92  1  0  0  0
  7  8  2  0  0  0
  7 26  1  0  0  0
  7 29  1  0  0  0
  8  9  1  0  0  0
  8 22  1  0  0  0
  9 10  1  0  0  0
  9 27  2  0  0  0
 10 11  2  0  0  0
 10 15  1  0  0  0
 11 12  1  0  0  0
 11 93  1  0  0  0
 12 13  2  0  0  0
 12 94  1  0  0  0
 13 14  1  0  0  0
 13 31  1  0  0  0
 14 15  2  0  0  0
 14 95  1  0  0  0
 15 96  1  0  0  0
 16 17  2  0  0  0
 16 21  1  0  0  0
 16 31  1  0  0  0
 17 18  1  0  0  0
 17 97  1  0  0  0
 18 19  2  0  0  0
 18 98  1  0  0  0
 19 20  1  0  0  0
 19 24  1  0  0  0
 20 21  2  0  0  0
 20 99  1  0  0  0
 21 23  1  0  0  0
 22 28  1  0  0  0
 22 32  2  0  0  0
 26 27  1  0  0  0
 28100  1  0  0  0
 28101  1  0  0  0
 29102  1  0  0  0
 29103  1  0  0  0
 33 34  1  0  0  0
 33 66  1  0  0  0
 33 70  2  0  0  0
 34 36  1  0  0  0
 34 59  1  0  0  0
 34104  1  0  0  0
 35 44  2  0  0  0
 35 45  1  0  0  0
 35 68  1  0  0  0
 36 56  1  0  0  0
 36105  1  0  0  0
 37 39  1  0  0  0
 37 47  1  0  0  0
 37 66  1  0  0  0
 37106  1  0  0  0
 38 43  2  0  0  0
 38 46  1  0  0  0
 38 47  1  0  0  0
 39 64  1  0  0  0
 39 67  2  0  0  0
 40 52  1  0  0  0
 40 53  2  0  0  0
 40 58  1  0  0  0
 41107  1  0  0  0
 41108  1  0  0  0
 41109  1  0  0  0
 41 48  1  0  0  0
 42 43  1  0  0  0
 42 66  1  0  0  0
 42110  1  0  0  0
 42111  1  0  0  0
 43 44  1  0  0  0
 44112  1  0  0  0
 45 46  2  0  0  0
 45113  1  0  0  0
 46114  1  0  0  0
 47115  1  0  0  0
 47116  1  0  0  0
 48 56  1  0  0  0
 48 65  1  0  0  0
 48117  1  0  0  0
 49 50  1  0  0  0
 49 53  1  0  0  0
 49 64  1  0  0  0
 49118  1  0  0  0
 50 51  1  0  0  0
 50119  1  0  0  0
 50120  1  0  0  0
 51 52  1  0  0  0
 51121  1  0  0  0
 51122  1  0  0  0
 52123  1  0  0  0
 52124  1  0  0  0
 53 54  1  0  0  0
 54 55  2  0  0  0
 54125  1  0  0  0
 55 57  1  0  0  0
 55126  1  0  0  0
 56 69  2  0  0  0
 57 58  2  0  0  0
 57127  1  0  0  0
 58128  1  0  0  0
 59 60  1  0  0  0
 59 61  1  0  0  0
 59 62  1  0  0  0
 60129  1  0  0  0
 60130  1  0  0  0
 60131  1  0  0  0
 61132  1  0  0  0
 61133  1  0  0  0
 61134  1  0  0  0
 62135  1  0  0  0
 62136  1  0  0  0
 62137  1  0  0  0
 63 65  1  0  0  0
 63138  1  0  0  0
 63139  1  0  0  0
 63140  1  0  0  0
 64141  1  0  0  0
 65142  1  0  0  0
 68 80  1  0  0  0
 71 74  2  0  0  0
 71 75  1  0  0  0
 71143  1  0  0  0
 72 74  1  0  0  0
 72 76  2  0  0  0
 72144  1  0  0  0
 73 75  2  0  0  0
 73 76  1  0  0  0
 73145  1  0  0  0
 74 77  1  0  0  0
 75 81  1  0  0  0
 76 83  1  0  0  0
 77 78  2  0  0  0
 77146  1  0  0  0
 78147  1  0  0  0
 79 80  2  0  0  0
 79 81  1  0  0  0
 79148  1  0  0  0
 80149  1  0  0  0
 81 82  2  0  0  0
M  ISO  4   1 100  68 101  78 100  80 101
M  END
> <chiral flag>
0

> <version>
0

> <s_m_source_file>
/data/baiqing/PycharmProjects/Reinvent-master-3.2/result/LINK_invent/BTK/process_docking_weight1_custom_product_contain_oxygen_bond_distance_aromatic_linkinvent_7_9_3/rearranged_h_0122.sdf

> <i_m_source_file_index>
25

> <r_mmod_Potential_Energy-OPLS-2005>
179.254333496094

> <r_mmod_Stretch_Energy-OPLS-2005>
130.413330078125

> <r_mmod_Bend_Energy-OPLS-2005>
159.837707519531

> <r_mmod_Torsional_Energy-OPLS-2005>
209.397048950195

> <r_mmod_Improper_Torsional_Energy-OPLS-2005>
5.85051774978638

> <r_mmod_Van_der_Waal_Energy-OPLS-2005>
144.032135009766

> <r_mmod_Electrostatic_Energy-OPLS-2005>
-353.090179443359

> <r_mmod_Solvation_Energy-OPLS-2005>
-199.897033691406

> <b_mmod_Minimization_Converged-OPLS-2005>
0

> <r_mmod_RMS_Derivative-OPLS-2005>
6.68448925018311

$$$$
25
                    3D
 Structure written by MMmdl.
163171  0  0  1  0            999 V2000
  -30.7086  -14.3947   20.6055 C   0  0  0  0  0  0
  -30.4184  -12.2792   19.3799 C   0  0  0  0  0  0
  -29.4845  -12.5339   18.1783 C   0  0  0  0  0  0
  -28.0006  -12.4229   18.5873 C   0  0  0  0  0  0
  -27.6676  -13.2079   19.8852 C   0  0  2  0  0  0
  -28.7101  -12.9110   20.9850 C   0  0  0  0  0  0
  -25.2616  -13.8182   20.5719 C   0  0  0  0  0  0
  -24.1853  -13.0437   20.9171 C   0  0  0  0  0  0
  -24.6403  -11.6897   20.8716 C   0  0  0  0  0  0
  -23.9047  -10.4296   21.0383 C   0  0  0  0  0  0
  -24.3598   -9.4215   21.9165 C   0  0  0  0  0  0
  -23.6284   -8.2241   22.0745 C   0  0  0  0  0  0
  -22.4265   -8.0274   21.3537 C   0  0  0  0  0  0
  -21.9887   -9.0250   20.4645 C   0  0  0  0  0  0
  -22.7210  -10.2136   20.3047 C   0  0  0  0  0  0
  -21.6854   -6.0733   22.5262 C   0  0  0  0  0  0
  -21.4029   -6.5636   23.8203 C   0  0  0  0  0  0
  -21.3666   -5.6784   24.9171 C   0  0  0  0  0  0
  -21.6036   -4.3045   24.7221 C   0  0  0  0  0  0
  -21.8823   -3.8133   23.4348 C   0  0  0  0  0  0
  -21.9206   -4.6958   22.3410 C   0  0  0  0  0  0
  -22.7865  -13.5244   21.1836 C   0  0  0  0  0  0
  -22.1658   -4.2126   21.0989 F   0  0  0  0  0  0
  -21.5623   -3.4546   25.7746 F   0  0  0  0  0  0
  -30.0436  -13.2225   20.4408 N   0  0  0  0  0  0
  -26.3049  -12.9341   20.3410 N   0  0  0  0  0  0
  -25.9327  -11.6481   20.5735 N   0  0  0  0  0  0
  -22.0506  -12.8254   22.0400 N   0  0  0  0  0  0
  -25.4348  -15.1910   20.4216 N   0  0  0  0  0  0
  -31.8097  -14.6332   20.1027 O   0  0  0  0  0  0
  -21.6621   -6.8878   21.4225 O   0  0  0  0  0  0
  -22.3535  -14.5533   20.6676 O   0  0  0  0  0  0
  -24.6134  -31.8683   23.2111 C   0  0  0  0  0  0
  -25.9028  -32.4824   23.8387 C   0  0  1  0  0  0
  -27.2352  -27.4685   20.0901 C   0  0  0  0  0  0
  -25.5871  -33.8619   24.2328 N   0  0  0  0  0  0
  -23.3991  -30.4915   21.5489 C   0  0  2  0  0  0
  -24.8474  -28.9622   20.1117 C   0  0  0  0  0  0
  -22.7409  -29.4650   22.4994 C   0  0  0  0  0  0
  -18.0269  -28.1397   22.8480 C   0  0  0  0  0  0
  -24.1486  -36.7326   23.2639 C   0  0  0  0  0  0
  -25.9212  -30.8485   21.3551 C   0  0  0  0  0  0
  -26.0029  -29.4822   20.7093 C   0  0  0  0  0  0
  -27.2016  -28.7404   20.7009 C   0  0  0  0  0  0
  -26.0705  -26.9557   19.4858 C   0  0  0  0  0  0
  -24.8718  -27.6946   19.5019 C   0  0  0  0  0  0
  -23.6083  -29.8263   20.1614 C   0  0  0  0  0  0
  -25.4100  -36.3117   24.0338 C   0  0  1  0  0  0
  -20.5861  -28.3664   23.1326 C   0  0  2  0  0  0
  -20.6768  -26.9399   22.5424 C   0  0  0  0  0  0
  -19.5743  -26.6405   21.5212 C   0  0  0  0  0  0
  -18.1920  -26.7950   22.1616 C   0  0  0  0  0  0
  -19.1523  -28.8846   23.2903 C   0  0  0  0  0  0
  -18.9446  -30.1455   23.8914 C   0  0  0  0  0  0
  -17.6451  -30.6597   24.0558 C   0  0  0  0  0  0
  -25.9022  -34.9480   23.5140 C   0  0  0  0  0  0
  -16.5341  -29.9096   23.6327 C   0  0  0  0  0  0
  -16.7260  -28.6519   23.0331 C   0  0  0  0  0  0
  -26.4472  -31.6589   25.0701 C   0  0  0  0  0  0
  -25.3758  -31.3654   26.1463 C   0  0  0  0  0  0
  -27.0298  -30.3047   24.6012 C   0  0  0  0  0  0
  -27.6068  -32.4280   25.7462 C   0  0  0  0  0  0
  -27.5572  -37.1811   24.8463 C   0  0  0  0  0  0
  -21.4139  -29.3018   22.3733 N   0  0  0  0  0  0
  -26.4288  -37.3796   23.9411 N   0  0  0  0  0  0
  -24.6620  -31.0833   22.0983 N   0  0  0  0  0  0
  -23.4197  -28.8209   23.3039 O   0  0  0  0  0  0
  -28.3912  -26.7303   20.0655 O   0  0  0  0  0  0
  -26.5589  -34.8934   22.4709 O   0  0  0  0  0  0
  -23.5322  -32.1401   23.7523 O   0  0  0  0  0  0
  -28.1611  -19.8813   21.1874 C   0  0  0  0  0  0
  -29.2292  -18.9879   20.9795 C   0  0  0  0  0  0
  -28.0681  -17.3015   22.2865 C   0  0  0  0  0  0
  -27.0306  -19.5067   21.9483 C   0  0  0  0  0  0
  -29.1904  -17.6889   21.5265 C   0  0  0  0  0  0
  -26.9948  -18.1951   22.5042 C   0  0  0  0  0  0
  -26.1480  -21.7897   22.8195 C   0  0  0  0  0  0
  -27.1738  -22.6195   22.5183 C   0  0  0  0  0  0
  -25.9269  -20.4873   22.1603 C   0  0  0  0  0  0
  -25.8504  -17.7262   23.3943 C   0  0  0  0  0  0
  -30.3765  -16.7509   21.3233 C   0  0  0  0  0  0
  -27.7912  -24.0199   22.6330 C   0  0  0  0  0  0
  -28.0854  -24.6170   21.2458 C   0  0  0  0  0  0
  -28.6612  -26.0473   21.2888 C   0  0  0  0  0  0
  -24.7378  -20.2008   21.8351 N   0  0  0  0  0  0
  -30.0137  -15.3373   21.2513 N   0  0  0  0  0  0
  -31.4610  -12.3858   19.0733 H   0  0  0  0  0  0
  -30.3096  -11.2509   19.7318 H   0  0  0  0  0  0
  -29.7039  -11.8344   17.3701 H   0  0  0  0  0  0
  -29.6779  -13.5288   17.7710 H   0  0  0  0  0  0
  -27.7658  -11.3670   18.7153 H   0  0  0  0  0  0
  -27.3639  -12.7748   17.7737 H   0  0  0  0  0  0
  -27.7295  -14.2698   19.6452 H   0  0  0  0  0  0
  -28.6698  -11.8544   21.2567 H   0  0  0  0  0  0
  -28.4822  -13.4541   21.9028 H   0  0  0  0  0  0
  -25.2765   -9.5697   22.4719 H   0  0  0  0  0  0
  -24.0012   -7.4637   22.7467 H   0  0  0  0  0  0
  -21.0805   -8.8759   19.8962 H   0  0  0  0  0  0
  -22.3658  -10.9660   19.6151 H   0  0  0  0  0  0
  -21.2004   -7.6130   23.9710 H   0  0  0  0  0  0
  -21.1488   -6.0509   25.9076 H   0  0  0  0  0  0
  -22.0604   -2.7581   23.2854 H   0  0  0  0  0  0
  -22.4098  -11.9958   22.4863 H   0  0  0  0  0  0
  -21.1118  -13.1283   22.2574 H   0  0  0  0  0  0
  -24.6768  -15.8468   20.5719 H   0  0  0  0  0  0
  -26.3056  -15.6430   20.1732 H   0  0  0  0  0  0
  -26.7107  -32.5561   23.1161 H   0  0  0  0  0  0
  -25.0033  -33.9773   25.0471 H   0  0  0  0  0  0
  -22.6835  -31.3051   21.4109 H   0  0  0  0  0  0
  -23.3736  -35.9675   23.3323 H   0  0  0  0  0  0
  -24.3577  -36.8919   22.2051 H   0  0  0  0  0  0
  -23.7255  -37.6543   23.6639 H   0  0  0  0  0  0
  -26.0184  -31.6121   20.5822 H   0  0  0  0  0  0
  -26.8133  -30.9099   21.9649 H   0  0  0  0  0  0
  -28.0973  -29.1382   21.1563 H   0  0  0  0  0  0
  -26.0925  -25.9845   19.0105 H   0  0  0  0  0  0
  -23.9809  -27.2895   19.0416 H   0  0  0  0  0  0
  -23.7105  -30.6009   19.3993 H   0  0  0  0  0  0
  -22.7352  -29.2431   19.8709 H   0  0  0  0  0  0
  -25.1281  -36.1978   25.0825 H   0  0  0  0  0  0
  -20.9927  -28.3225   24.1452 H   0  0  0  0  0  0
  -20.5664  -26.2256   23.3593 H   0  0  0  0  0  0
  -21.6640  -26.7449   22.1205 H   0  0  0  0  0  0
  -19.6889  -25.6319   21.1226 H   0  0  0  0  0  0
  -19.6708  -27.3234   20.6754 H   0  0  0  0  0  0
  -17.4192  -26.6692   21.4020 H   0  0  0  0  0  0
  -18.0309  -26.0097   22.9016 H   0  0  0  0  0  0
  -19.7922  -30.7262   24.2304 H   0  0  0  0  0  0
  -17.5001  -31.6274   24.5158 H   0  0  0  0  0  0
  -15.5337  -30.2990   23.7649 H   0  0  0  0  0  0
  -15.8664  -28.0844   22.7024 H   0  0  0  0  0  0
  -24.5950  -30.6975   25.7794 H   0  0  0  0  0  0
  -24.8933  -32.2801   26.4935 H   0  0  0  0  0  0
  -25.8147  -30.8814   27.0204 H   0  0  0  0  0  0
  -26.2818  -29.6793   24.1130 H   0  0  0  0  0  0
  -27.4182  -29.7278   25.4418 H   0  0  0  0  0  0
  -27.8598  -30.4395   23.9069 H   0  0  0  0  0  0
  -27.2717  -33.3575   26.2080 H   0  0  0  0  0  0
  -28.3876  -32.6836   25.0283 H   0  0  0  0  0  0
  -28.0742  -31.8361   26.5342 H   0  0  0  0  0  0
  -28.2610  -38.0094   24.7512 H   0  0  0  0  0  0
  -28.1055  -36.2628   24.6302 H   0  0  0  0  0  0
  -27.2294  -37.1487   25.8869 H   0  0  0  0  0  0
  -20.9293  -29.8726   21.6948 H   0  0  0  0  0  0
  -26.0184  -38.2873   24.1421 H   0  0  0  0  0  0
  -28.2175  -20.8695   20.7488 H   0  0  0  0  0  0
  -30.0836  -19.3105   20.3996 H   0  0  0  0  0  0
  -28.0396  -16.3197   22.7363 H   0  0  0  0  0  0
  -25.3905  -21.9970   23.5729 H   0  0  0  0  0  0
  -26.9486  -22.9387   23.5236 H   0  0  0  0  0  0
  -26.0921  -16.7987   23.9098 H   0  0  0  0  0  0
  -24.9498  -17.5441   22.8064 H   0  0  0  0  0  0
  -25.6265  -18.4726   24.1561 H   0  0  0  0  0  0
  -31.0819  -16.8893   22.1437 H   0  0  0  0  0  0
  -30.8944  -17.0451   20.4074 H   0  0  0  0  0  0
  -28.7071  -23.9657   23.2273 H   0  0  0  0  0  0
  -27.1229  -24.7366   23.1287 H   0  0  0  0  0  0
  -27.1547  -24.6128   20.6787 H   0  0  0  0  0  0
  -28.7766  -23.9766   20.6978 H   0  0  0  0  0  0
  -29.7413  -26.0036   21.4362 H   0  0  0  0  0  0
  -28.2657  -26.6007   22.1435 H   0  0  0  0  0  0
  -24.6969  -19.2771   21.4172 H   0  0  0  0  0  0
  -29.1114  -15.0687   21.6065 H   0  0  0  0  0  0
  1 25  1  0  0  0
  1 30  2  0  0  0
  1 86  1  0  0  0
  2  3  1  0  0  0
  2 25  1  0  0  0
  2 87  1  0  0  0
  2 88  1  0  0  0
  3  4  1  0  0  0
  3 89  1  0  0  0
  3 90  1  0  0  0
  4  5  1  0  0  0
  4 91  1  0  0  0
  4 92  1  0  0  0
  5  6  1  0  0  0
  5 26  1  0  0  0
  5 93  1  0  0  0
  6 25  1  0  0  0
  6 94  1  0  0  0
  6 95  1  0  0  0
  7  8  2  0  0  0
  7 26  1  0  0  0
  7 29  1  0  0  0
  8  9  1  0  0  0
  8 22  1  0  0  0
  9 10  1  0  0  0
  9 27  2  0  0  0
 10 11  2  0  0  0
 10 15  1  0  0  0
 11 12  1  0  0  0
 11 96  1  0  0  0
 12 13  2  0  0  0
 12 97  1  0  0  0
 13 14  1  0  0  0
 13 31  1  0  0  0
 14 15  2  0  0  0
 14 98  1  0  0  0
 15 99  1  0  0  0
 16 17  2  0  0  0
 16 21  1  0  0  0
 16 31  1  0  0  0
 17 18  1  0  0  0
 17100  1  0  0  0
 18 19  2  0  0  0
 18101  1  0  0  0
 19 20  1  0  0  0
 19 24  1  0  0  0
 20 21  2  0  0  0
 20102  1  0  0  0
 21 23  1  0  0  0
 22 28  1  0  0  0
 22 32  2  0  0  0
 26 27  1  0  0  0
 28103  1  0  0  0
 28104  1  0  0  0
 29105  1  0  0  0
 29106  1  0  0  0
 33 34  1  0  0  0
 33 66  1  0  0  0
 33 70  2  0  0  0
 34 36  1  0  0  0
 34 59  1  0  0  0
 34107  1  0  0  0
 35 44  2  0  0  0
 35 45  1  0  0  0
 35 68  1  0  0  0
 36 56  1  0  0  0
 36108  1  0  0  0
 37 39  1  0  0  0
 37 47  1  0  0  0
 37 66  1  0  0  0
 37109  1  0  0  0
 38 43  2  0  0  0
 38 46  1  0  0  0
 38 47  1  0  0  0
 39 64  1  0  0  0
 39 67  2  0  0  0
 40 52  1  0  0  0
 40 53  2  0  0  0
 40 58  1  0  0  0
 41110  1  0  0  0
 41111  1  0  0  0
 41112  1  0  0  0
 41 48  1  0  0  0
 42 43  1  0  0  0
 42 66  1  0  0  0
 42113  1  0  0  0
 42114  1  0  0  0
 43 44  1  0  0  0
 44115  1  0  0  0
 45 46  2  0  0  0
 45116  1  0  0  0
 46117  1  0  0  0
 47118  1  0  0  0
 47119  1  0  0  0
 48 56  1  0  0  0
 48 65  1  0  0  0
 48120  1  0  0  0
 49 50  1  0  0  0
 49 53  1  0  0  0
 49 64  1  0  0  0
 49121  1  0  0  0
 50 51  1  0  0  0
 50122  1  0  0  0
 50123  1  0  0  0
 51 52  1  0  0  0
 51124  1  0  0  0
 51125  1  0  0  0
 52126  1  0  0  0
 52127  1  0  0  0
 53 54  1  0  0  0
 54 55  2  0  0  0
 54128  1  0  0  0
 55 57  1  0  0  0
 55129  1  0  0  0
 56 69  2  0  0  0
 57 58  2  0  0  0
 57130  1  0  0  0
 58131  1  0  0  0
 59 60  1  0  0  0
 59 61  1  0  0  0
 59 62  1  0  0  0
 60132  1  0  0  0
 60133  1  0  0  0
 60134  1  0  0  0
 61135  1  0  0  0
 61136  1  0  0  0
 61137  1  0  0  0
 62138  1  0  0  0
 62139  1  0  0  0
 62140  1  0  0  0
 63 65  1  0  0  0
 63141  1  0  0  0
 63142  1  0  0  0
 63143  1  0  0  0
 64144  1  0  0  0
 65145  1  0  0  0
 68 84  1  0  0  0
 71 72  2  0  0  0
 71 74  1  0  0  0
 71146  1  0  0  0
 72 75  1  0  0  0
 72147  1  0  0  0
 73 75  2  0  0  0
 73 76  1  0  0  0
 73148  1  0  0  0
 74 76  2  0  0  0
 74 79  1  0  0  0
 75 81  1  0  0  0
 76 80  1  0  0  0
 77 78  2  0  0  0
 77 79  1  0  0  0
 77149  1  0  0  0
 78 82  1  0  0  0
 78150  1  0  0  0
 79 85  2  0  0  0
 80151  1  0  0  0
 80152  1  0  0  0
 80153  1  0  0  0
 81 86  1  0  0  0
 81154  1  0  0  0
 81155  1  0  0  0
 82 83  1  0  0  0
 82156  1  0  0  0
 82157  1  0  0  0
 83 84  1  0  0  0
 83158  1  0  0  0
 83159  1  0  0  0
 84160  1  0  0  0
 84161  1  0  0  0
 85162  1  0  0  0
 86163  1  0  0  0
M  ISO  4   1 100  68 101  84 101  86 100
M  END
> <chiral flag>
0

> <version>
0

> <s_m_source_file>
/data/baiqing/PycharmProjects/Reinvent-master-3.2/result/LINK_invent/BTK/process_docking_weight1_custom_product_contain_oxygen_bond_distance_aromatic_linkinvent_7_9_3/rearranged_h_0122.sdf

> <i_m_source_file_index>
26

> <r_mmod_Potential_Energy-OPLS-2005>
201.547515869141

> <r_mmod_Stretch_Energy-OPLS-2005>
34.9570846557617

> <r_mmod_Bend_Energy-OPLS-2005>
291.744262695312

> <r_mmod_Torsional_Energy-OPLS-2005>
289.071960449219

> <r_mmod_Improper_Torsional_Energy-OPLS-2005>
17.7397804260254

> <r_mmod_Van_der_Waal_Energy-OPLS-2005>
163.00163269043

> <r_mmod_Electrostatic_Energy-OPLS-2005>
-397.504058837891

> <r_mmod_Solvation_Energy-OPLS-2005>
-205.3525390625

> <b_mmod_Minimization_Converged-OPLS-2005>
0

> <r_mmod_RMS_Derivative-OPLS-2005>
3.42568302154541

$$$$
26
                    3D
 Structure written by MMmdl.
162170  0  0  1  0            999 V2000
  -30.6843  -14.6355   20.4402 C   0  0  0  0  0  0
  -30.4231  -12.3832   19.4524 C   0  0  0  0  0  0
  -29.5039  -12.4734   18.2185 C   0  0  0  0  0  0
  -28.0258  -12.3114   18.6349 C   0  0  0  0  0  0
  -27.6302  -13.2040   19.8397 C   0  0  2  0  0  0
  -28.6854  -13.1662   20.9672 C   0  0  0  0  0  0
  -25.2511  -13.8151   20.5599 C   0  0  0  0  0  0
  -24.1788  -13.0444   20.9159 C   0  0  0  0  0  0
  -24.6356  -11.6910   20.8747 C   0  0  0  0  0  0
  -23.9036  -10.4323   21.0435 C   0  0  0  0  0  0
  -24.3615   -9.4245   21.9178 C   0  0  0  0  0  0
  -23.6329   -8.2268   22.0738 C   0  0  0  0  0  0
  -22.4295   -8.0297   21.3537 C   0  0  0  0  0  0
  -21.9917   -9.0273   20.4633 C   0  0  0  0  0  0
  -22.7232  -10.2166   20.3075 C   0  0  0  0  0  0
  -21.6886   -6.0761   22.5275 C   0  0  0  0  0  0
  -21.4026   -6.5661   23.8209 C   0  0  0  0  0  0
  -21.3651   -5.6808   24.9160 C   0  0  0  0  0  0
  -21.6041   -4.3074   24.7210 C   0  0  0  0  0  0
  -21.8826   -3.8166   23.4337 C   0  0  0  0  0  0
  -21.9213   -4.6986   22.3392 C   0  0  0  0  0  0
  -22.7833  -13.5261   21.1828 C   0  0  0  0  0  0
  -22.1671   -4.2173   21.0968 F   0  0  0  0  0  0
  -21.5623   -3.4545   25.7717 F   0  0  0  0  0  0
  -30.0006  -13.4495   20.3808 N   0  0  0  0  0  0
  -26.2891  -12.9265   20.3260 N   0  0  0  0  0  0
  -25.9273  -11.6449   20.5799 N   0  0  0  0  0  0
  -22.0507  -12.8219   22.0394 N   0  0  0  0  0  0
  -25.4196  -15.1847   20.3849 N   0  0  0  0  0  0
  -31.8997  -14.6749   20.2308 O   0  0  0  0  0  0
  -21.6666   -6.8887   21.4240 O   0  0  0  0  0  0
  -22.3534  -14.5582   20.6698 O   0  0  0  0  0  0
  -24.6161  -31.8682   23.2093 C   0  0  0  0  0  0
  -25.9041  -32.4820   23.8398 C   0  0  1  0  0  0
  -27.2287  -27.4014   20.1133 C   0  0  0  0  0  0
  -25.5900  -33.8611   24.2335 N   0  0  0  0  0  0
  -23.4030  -30.4968   21.5478 C   0  0  2  0  0  0
  -24.8484  -28.9639   20.1096 C   0  0  0  0  0  0
  -22.7405  -29.4726   22.4939 C   0  0  0  0  0  0
  -18.0268  -28.1379   22.8591 C   0  0  0  0  0  0
  -24.1488  -36.7322   23.2646 C   0  0  0  0  0  0
  -25.9346  -30.8311   21.3626 C   0  0  0  0  0  0
  -26.0105  -29.4623   20.7119 C   0  0  0  0  0  0
  -27.1984  -28.6903   20.7037 C   0  0  0  0  0  0
  -26.0393  -26.9253   19.5085 C   0  0  0  0  0  0
  -24.8625  -27.6991   19.5024 C   0  0  0  0  0  0
  -23.6094  -29.8343   20.1612 C   0  0  0  0  0  0
  -25.4100  -36.3098   24.0340 C   0  0  1  0  0  0
  -20.5897  -28.3691   23.1260 C   0  0  2  0  0  0
  -20.6766  -26.9457   22.5403 C   0  0  0  0  0  0
  -19.5693  -26.6486   21.5242 C   0  0  0  0  0  0
  -18.1923  -26.7987   22.1709 C   0  0  0  0  0  0
  -19.1568  -28.8849   23.2930 C   0  0  0  0  0  0
  -18.9545  -30.1479   23.8920 C   0  0  0  0  0  0
  -17.6570  -30.6663   24.0594 C   0  0  0  0  0  0
  -25.9027  -34.9481   23.5116 C   0  0  0  0  0  0
  -16.5425  -29.9188   23.6416 C   0  0  0  0  0  0
  -16.7280  -28.6560   23.0496 C   0  0  0  0  0  0
  -26.4472  -31.6583   25.0721 C   0  0  0  0  0  0
  -25.3724  -31.3702   26.1477 C   0  0  0  0  0  0
  -27.0316  -30.3016   24.6093 C   0  0  0  0  0  0
  -27.6069  -32.4295   25.7489 C   0  0  0  0  0  0
  -27.5579  -37.1818   24.8458 C   0  0  0  0  0  0
  -21.4137  -29.3083   22.3675 N   0  0  0  0  0  0
  -26.4286  -37.3772   23.9409 N   0  0  0  0  0  0
  -24.6691  -31.0787   22.0988 N   0  0  0  0  0  0
  -23.4168  -28.8247   23.2957 O   0  0  0  0  0  0
  -28.4171  -26.6848   20.1519 O   0  0  0  0  0  0
  -26.5606  -34.8930   22.4687 O   0  0  0  0  0  0
  -23.5346  -32.1431   23.7516 O   0  0  0  0  0  0
  -31.3928  -17.3981   21.6659 C   0  0  0  0  0  0
  -31.0131  -19.7715   22.0648 C   0  0  0  0  0  0
  -30.1343  -17.2461   21.0261 C   0  0  0  0  0  0
  -29.2378  -18.3959   21.0741 C   0  0  0  0  0  0
  -29.7064  -19.6700   21.5384 C   0  0  0  0  0  0
  -31.8204  -18.6296   22.1800 C   0  0  0  0  0  0
  -28.4270  -24.2744   20.8522 C   0  0  0  0  0  0
  -29.1883  -23.1535   20.9287 C   0  0  0  0  0  0
  -29.8718  -15.9657   20.2109 C   0  0  0  0  0  0
  -26.4783  -18.9227   22.7667 C   0  0  0  0  0  0
  -27.7801  -18.3005   20.5507 C   0  0  0  0  0  0
  -28.5003  -25.3091   19.7193 C   0  0  0  0  0  0
  -29.1187  -22.0617   22.0033 C   0  0  0  0  0  0
  -26.6249  -19.0835   21.2426 C   0  0  0  0  0  0
  -29.1049  -16.0445   19.2019 N   0  0  0  0  0  0
  -28.8717  -20.7772   21.4024 O   0  0  0  0  0  0
  -33.0455  -18.7313   22.7494 F   0  0  0  0  0  0
  -31.4670  -12.4812   19.1488 H   0  0  0  0  0  0
  -30.3419  -11.4062   19.9296 H   0  0  0  0  0  0
  -29.7729  -11.7029   17.4940 H   0  0  0  0  0  0
  -29.6487  -13.4317   17.7135 H   0  0  0  0  0  0
  -27.8721  -11.2640   18.8945 H   0  0  0  0  0  0
  -27.3742  -12.5195   17.7843 H   0  0  0  0  0  0
  -27.5758  -14.2029   19.4346 H   0  0  0  0  0  0
  -28.7059  -12.1881   21.4462 H   0  0  0  0  0  0
  -28.4446  -13.8908   21.7473 H   0  0  0  0  0  0
  -25.2773   -9.5795   22.4714 H   0  0  0  0  0  0
  -24.0088   -7.4695   22.7463 H   0  0  0  0  0  0
  -21.0856   -8.8822   19.8939 H   0  0  0  0  0  0
  -22.3693  -10.9719   19.6206 H   0  0  0  0  0  0
  -21.1999   -7.6168   23.9722 H   0  0  0  0  0  0
  -21.1459   -6.0517   25.9062 H   0  0  0  0  0  0
  -22.0604   -2.7634   23.2827 H   0  0  0  0  0  0
  -22.4174  -11.9889   22.4734 H   0  0  0  0  0  0
  -21.1126  -13.1205   22.2689 H   0  0  0  0  0  0
  -24.6379  -15.8295   20.4379 H   0  0  0  0  0  0
  -26.2518  -15.6054   19.9907 H   0  0  0  0  0  0
  -26.7130  -32.5511   23.1205 H   0  0  0  0  0  0
  -25.0020  -33.9750   25.0465 H   0  0  0  0  0  0
  -22.6878  -31.3104   21.4111 H   0  0  0  0  0  0
  -23.3730  -35.9668   23.3287 H   0  0  0  0  0  0
  -24.3590  -36.8951   22.2060 H   0  0  0  0  0  0
  -23.7242  -37.6534   23.6660 H   0  0  0  0  0  0
  -26.0413  -31.5938   20.5891 H   0  0  0  0  0  0
  -26.8238  -30.8885   21.9775 H   0  0  0  0  0  0
  -28.0917  -29.0807   21.1727 H   0  0  0  0  0  0
  -25.9740  -25.9572   19.0376 H   0  0  0  0  0  0
  -23.9743  -27.3130   19.0212 H   0  0  0  0  0  0
  -23.7061  -30.6114   19.4038 H   0  0  0  0  0  0
  -22.7289  -29.2565   19.8689 H   0  0  0  0  0  0
  -25.1275  -36.1985   25.0822 H   0  0  0  0  0  0
  -21.0030  -28.3274   24.1366 H   0  0  0  0  0  0
  -21.6598  -26.7422   22.1141 H   0  0  0  0  0  0
  -20.5735  -26.2400   23.3641 H   0  0  0  0  0  0
  -19.6744  -25.6429   21.1181 H   0  0  0  0  0  0
  -19.6672  -27.3373   20.6844 H   0  0  0  0  0  0
  -17.4162  -26.6693   21.4133 H   0  0  0  0  0  0
  -18.0411  -26.0052   22.9063 H   0  0  0  0  0  0
  -19.8036  -30.7269   24.2238 H   0  0  0  0  0  0
  -17.5257  -31.6371   24.5209 H   0  0  0  0  0  0
  -15.5473  -30.3198   23.7761 H   0  0  0  0  0  0
  -15.8649  -28.0889   22.7256 H   0  0  0  0  0  0
  -24.5918  -30.7016   25.7835 H   0  0  0  0  0  0
  -24.8890  -32.2857   26.4898 H   0  0  0  0  0  0
  -25.8071  -30.8917   27.0259 H   0  0  0  0  0  0
  -26.2862  -29.6796   24.1128 H   0  0  0  0  0  0
  -27.4078  -29.7240   25.4556 H   0  0  0  0  0  0
  -27.8697  -30.4340   23.9240 H   0  0  0  0  0  0
  -27.2691  -33.3591   26.2089 H   0  0  0  0  0  0
  -28.3873  -32.6855   25.0303 H   0  0  0  0  0  0
  -28.0741  -31.8387   26.5395 H   0  0  0  0  0  0
  -28.2611  -38.0114   24.7512 H   0  0  0  0  0  0
  -28.1065  -36.2652   24.6265 H   0  0  0  0  0  0
  -27.2296  -37.1438   25.8860 H   0  0  0  0  0  0
  -20.9279  -29.8911   21.7020 H   0  0  0  0  0  0
  -26.0197  -38.2859   24.1376 H   0  0  0  0  0  0
  -32.1061  -16.5892   21.7188 H   0  0  0  0  0  0
  -31.4434  -20.7071   22.3812 H   0  0  0  0  0  0
  -27.6931  -24.4735   21.6148 H   0  0  0  0  0  0
  -29.9226  -22.9678   20.1582 H   0  0  0  0  0  0
  -25.5823  -19.4426   23.1090 H   0  0  0  0  0  0
  -27.3331  -19.3462   23.2971 H   0  0  0  0  0  0
  -26.3572  -17.8787   23.0593 H   0  0  0  0  0  0
  -27.4677  -17.2631   20.5901 H   0  0  0  0  0  0
  -27.7921  -18.5837   19.4962 H   0  0  0  0  0  0
  -27.7856  -25.0405   18.9465 H   0  0  0  0  0  0
  -29.4607  -25.1921   19.2165 H   0  0  0  0  0  0
  -28.2709  -22.2769   22.6621 H   0  0  0  0  0  0
  -29.9897  -22.1140   22.6549 H   0  0  0  0  0  0
  -26.6830  -20.1406   20.9922 H   0  0  0  0  0  0
  -25.6803  -18.7735   20.7917 H   0  0  0  0  0  0
  -29.0736  -15.1838   18.6751 H   0  0  0  0  0  0
  1 25  1  0  0  0
  1 30  2  0  0  0
  1 79  1  0  0  0
  2  3  1  0  0  0
  2 25  1  0  0  0
  2 88  1  0  0  0
  2 89  1  0  0  0
  3  4  1  0  0  0
  3 90  1  0  0  0
  3 91  1  0  0  0
  4  5  1  0  0  0
  4 92  1  0  0  0
  4 93  1  0  0  0
  5  6  1  0  0  0
  5 26  1  0  0  0
  5 94  1  0  0  0
  6 25  1  0  0  0
  6 95  1  0  0  0
  6 96  1  0  0  0
  7  8  2  0  0  0
  7 26  1  0  0  0
  7 29  1  0  0  0
  8  9  1  0  0  0
  8 22  1  0  0  0
  9 10  1  0  0  0
  9 27  2  0  0  0
 10 11  2  0  0  0
 10 15  1  0  0  0
 11 12  1  0  0  0
 11 97  1  0  0  0
 12 13  2  0  0  0
 12 98  1  0  0  0
 13 14  1  0  0  0
 13 31  1  0  0  0
 14 15  2  0  0  0
 14 99  1  0  0  0
 15100  1  0  0  0
 16 17  2  0  0  0
 16 21  1  0  0  0
 16 31  1  0  0  0
 17 18  1  0  0  0
 17101  1  0  0  0
 18 19  2  0  0  0
 18102  1  0  0  0
 19 20  1  0  0  0
 19 24  1  0  0  0
 20 21  2  0  0  0
 20103  1  0  0  0
 21 23  1  0  0  0
 22 28  1  0  0  0
 22 32  2  0  0  0
 26 27  1  0  0  0
 28104  1  0  0  0
 28105  1  0  0  0
 29106  1  0  0  0
 29107  1  0  0  0
 33 34  1  0  0  0
 33 66  1  0  0  0
 33 70  2  0  0  0
 34 36  1  0  0  0
 34 59  1  0  0  0
 34108  1  0  0  0
 35 44  2  0  0  0
 35 45  1  0  0  0
 35 68  1  0  0  0
 36 56  1  0  0  0
 36109  1  0  0  0
 37 39  1  0  0  0
 37 47  1  0  0  0
 37 66  1  0  0  0
 37110  1  0  0  0
 38 43  2  0  0  0
 38 46  1  0  0  0
 38 47  1  0  0  0
 39 64  1  0  0  0
 39 67  2  0  0  0
 40 52  1  0  0  0
 40 53  2  0  0  0
 40 58  1  0  0  0
 41111  1  0  0  0
 41112  1  0  0  0
 41113  1  0  0  0
 41 48  1  0  0  0
 42 43  1  0  0  0
 42 66  1  0  0  0
 42114  1  0  0  0
 42115  1  0  0  0
 43 44  1  0  0  0
 44116  1  0  0  0
 45 46  2  0  0  0
 45117  1  0  0  0
 46118  1  0  0  0
 47119  1  0  0  0
 47120  1  0  0  0
 48 56  1  0  0  0
 48 65  1  0  0  0
 48121  1  0  0  0
 49 50  1  0  0  0
 49 53  1  0  0  0
 49 64  1  0  0  0
 49122  1  0  0  0
 50 51  1  0  0  0
 50123  1  0  0  0
 50124  1  0  0  0
 51 52  1  0  0  0
 51125  1  0  0  0
 51126  1  0  0  0
 52127  1  0  0  0
 52128  1  0  0  0
 53 54  1  0  0  0
 54 55  2  0  0  0
 54129  1  0  0  0
 55 57  1  0  0  0
 55130  1  0  0  0
 56 69  2  0  0  0
 57 58  2  0  0  0
 57131  1  0  0  0
 58132  1  0  0  0
 59 60  1  0  0  0
 59 61  1  0  0  0
 59 62  1  0  0  0
 60133  1  0  0  0
 60134  1  0  0  0
 60135  1  0  0  0
 61136  1  0  0  0
 61137  1  0  0  0
 61138  1  0  0  0
 62139  1  0  0  0
 62140  1  0  0  0
 62141  1  0  0  0
 63 65  1  0  0  0
 63142  1  0  0  0
 63143  1  0  0  0
 63144  1  0  0  0
 64145  1  0  0  0
 65146  1  0  0  0
 68 82  1  0  0  0
 71 73  2  0  0  0
 71 76  1  0  0  0
 71147  1  0  0  0
 72 75  1  0  0  0
 72 76  2  0  0  0
 72148  1  0  0  0
 73 74  1  0  0  0
 73 79  1  0  0  0
 74 75  2  0  0  0
 74 81  1  0  0  0
 75 86  1  0  0  0
 76 87  1  0  0  0
 77 78  2  0  0  0
 77 82  1  0  0  0
 77149  1  0  0  0
 78 83  1  0  0  0
 78150  1  0  0  0
 79 85  2  0  0  0
 80 84  1  0  0  0
 80151  1  0  0  0
 80152  1  0  0  0
 80153  1  0  0  0
 81 84  1  0  0  0
 81154  1  0  0  0
 81155  1  0  0  0
 82156  1  0  0  0
 82157  1  0  0  0
 83 86  1  0  0  0
 83158  1  0  0  0
 83159  1  0  0  0
 84160  1  0  0  0
 84161  1  0  0  0
 85162  1  0  0  0
M  ISO  4   1 100  68 101  79 100  82 101
M  END
> <chiral flag>
0

> <version>
0

> <s_m_source_file>
/data/baiqing/PycharmProjects/Reinvent-master-3.2/result/LINK_invent/BTK/process_docking_weight1_custom_product_contain_oxygen_bond_distance_aromatic_linkinvent_7_9_3/rearranged_h_0122.sdf

> <i_m_source_file_index>
27

> <r_mmod_Potential_Energy-OPLS-2005>
242.85661315918

> <r_mmod_Stretch_Energy-OPLS-2005>
68.3071136474609

> <r_mmod_Bend_Energy-OPLS-2005>
153.790786743164

> <r_mmod_Torsional_Energy-OPLS-2005>
225.996551513672

> <r_mmod_Improper_Torsional_Energy-OPLS-2005>
18.9431591033936

> <r_mmod_Van_der_Waal_Energy-OPLS-2005>
169.637725830078

> <r_mmod_Electrostatic_Energy-OPLS-2005>
-254.418151855469

> <r_mmod_Solvation_Energy-OPLS-2005>
-183.08479309082

> <b_mmod_Minimization_Converged-OPLS-2005>
0

> <r_mmod_RMS_Derivative-OPLS-2005>
7.21611356735229

$$$$
27
                    3D
 Structure written by MMmdl.
157165  0  0  1  0            999 V2000
  -30.6925  -14.4449   20.5764 C   0  0  0  0  0  0
  -30.4304  -12.2892   19.4188 C   0  0  0  0  0  0
  -29.5000  -12.5070   18.2073 C   0  0  0  0  0  0
  -28.0184  -12.3714   18.6151 C   0  0  0  0  0  0
  -27.6657  -13.1958   19.8820 C   0  0  2  0  0  0
  -28.7060  -12.9546   20.9998 C   0  0  0  0  0  0
  -25.2605  -13.8122   20.5682 C   0  0  0  0  0  0
  -24.1838  -13.0422   20.9171 C   0  0  0  0  0  0
  -24.6370  -11.6888   20.8703 C   0  0  0  0  0  0
  -23.9024  -10.4288   21.0388 C   0  0  0  0  0  0
  -24.3581   -9.4218   21.9178 C   0  0  0  0  0  0
  -23.6270   -8.2244   22.0755 C   0  0  0  0  0  0
  -22.4255   -8.0264   21.3541 C   0  0  0  0  0  0
  -21.9878   -9.0234   20.4645 C   0  0  0  0  0  0
  -22.7191  -10.2123   20.3054 C   0  0  0  0  0  0
  -21.6856   -6.0718   22.5276 C   0  0  0  0  0  0
  -21.4013   -6.5628   23.8204 C   0  0  0  0  0  0
  -21.3658   -5.6787   24.9172 C   0  0  0  0  0  0
  -21.6051   -4.3049   24.7234 C   0  0  0  0  0  0
  -21.8816   -3.8134   23.4355 C   0  0  0  0  0  0
  -21.9190   -4.6944   22.3407 C   0  0  0  0  0  0
  -22.7866  -13.5241   21.1834 C   0  0  0  0  0  0
  -22.1664   -4.2126   21.0985 F   0  0  0  0  0  0
  -21.5630   -3.4538   25.7748 F   0  0  0  0  0  0
  -30.0433  -13.2563   20.4564 N   0  0  0  0  0  0
  -26.3035  -12.9277   20.3376 N   0  0  0  0  0  0
  -25.9300  -11.6448   20.5750 N   0  0  0  0  0  0
  -22.0494  -12.8248   22.0391 N   0  0  0  0  0  0
  -25.4337  -15.1841   20.4117 N   0  0  0  0  0  0
  -31.8069  -14.6660   20.0921 O   0  0  0  0  0  0
  -21.6634   -6.8857   21.4237 O   0  0  0  0  0  0
  -22.3567  -14.5555   20.6689 O   0  0  0  0  0  0
  -24.6101  -31.8702   23.2142 C   0  0  0  0  0  0
  -25.9016  -32.4830   23.8410 C   0  0  1  0  0  0
  -27.2328  -27.4683   20.0940 C   0  0  0  0  0  0
  -25.5896  -33.8636   24.2334 N   0  0  0  0  0  0
  -23.3962  -30.4926   21.5527 C   0  0  2  0  0  0
  -24.8450  -28.9628   20.1142 C   0  0  0  0  0  0
  -22.7394  -29.4659   22.5022 C   0  0  0  0  0  0
  -18.0266  -28.1382   22.8487 C   0  0  0  0  0  0
  -24.1482  -36.7324   23.2635 C   0  0  0  0  0  0
  -25.9209  -30.8452   21.3624 C   0  0  0  0  0  0
  -26.0008  -29.4803   20.7133 C   0  0  0  0  0  0
  -27.1991  -28.7361   20.7079 C   0  0  0  0  0  0
  -26.0672  -26.9493   19.4984 C   0  0  0  0  0  0
  -24.8701  -27.6932   19.5059 C   0  0  0  0  0  0
  -23.6030  -29.8241   20.1661 C   0  0  0  0  0  0
  -25.4101  -36.3117   24.0334 C   0  0  1  0  0  0
  -20.5853  -28.3654   23.1340 C   0  0  2  0  0  0
  -20.6767  -26.9404   22.5421 C   0  0  0  0  0  0
  -19.5739  -26.6397   21.5214 C   0  0  0  0  0  0
  -18.1912  -26.7931   22.1622 C   0  0  0  0  0  0
  -19.1519  -28.8836   23.2906 C   0  0  0  0  0  0
  -18.9446  -30.1445   23.8915 C   0  0  0  0  0  0
  -17.6454  -30.6592   24.0570 C   0  0  0  0  0  0
  -25.9035  -34.9478   23.5130 C   0  0  0  0  0  0
  -16.5341  -29.9098   23.6328 C   0  0  0  0  0  0
  -16.7259  -28.6511   23.0344 C   0  0  0  0  0  0
  -26.4466  -31.6609   25.0723 C   0  0  0  0  0  0
  -25.3736  -31.3717   26.1474 C   0  0  0  0  0  0
  -27.0307  -30.3056   24.6088 C   0  0  0  0  0  0
  -27.6049  -32.4320   25.7482 C   0  0  0  0  0  0
  -27.5574  -37.1810   24.8462 C   0  0  0  0  0  0
  -21.4126  -29.3029   22.3753 N   0  0  0  0  0  0
  -26.4285  -37.3799   23.9411 N   0  0  0  0  0  0
  -24.6604  -31.0811   22.1026 N   0  0  0  0  0  0
  -23.4175  -28.8203   23.3056 O   0  0  0  0  0  0
  -28.3873  -26.7305   20.0600 O   0  0  0  0  0  0
  -26.5591  -34.8919   22.4684 O   0  0  0  0  0  0
  -23.5299  -32.1450   23.7551 O   0  0  0  0  0  0
  -30.6485  -17.7792   21.3253 C   0  0  0  0  0  0
  -29.6918  -19.4195   19.8031 C   0  0  0  0  0  0
  -29.0682  -17.0706   19.6113 C   0  0  0  0  0  0
  -30.5366  -19.1299   20.9002 C   0  0  0  0  0  0
  -29.9217  -16.7504   20.6889 C   0  0  0  0  0  0
  -28.9655  -18.3998   19.1645 C   0  0  0  0  0  0
  -30.8321  -21.6060   21.7957 C   0  0  0  0  0  0
  -29.5984  -22.1067   21.5818 C   0  0  0  0  0  0
  -31.2934  -20.2042   21.6075 C   0  0  0  0  0  0
  -29.2062  -23.5342   21.9270 C   0  0  0  0  0  0
  -28.9247  -24.4480   20.7219 C   0  0  0  0  0  0
  -28.5432  -25.8664   21.1812 C   0  0  0  0  0  0
  -32.4290  -19.9378   22.0966 N   0  0  0  0  0  0
  -29.9788  -15.4145   21.1691 N   0  0  0  0  0  0
  -28.1573  -18.6990   18.1197 F   0  0  0  0  0  0
  -31.4738  -12.3946   19.1158 H   0  0  0  0  0  0
  -30.3345  -11.2714   19.8007 H   0  0  0  0  0  0
  -29.7364  -11.7901   17.4204 H   0  0  0  0  0  0
  -29.6754  -13.4970   17.7822 H   0  0  0  0  0  0
  -27.8232  -11.3146   18.7989 H   0  0  0  0  0  0
  -27.3710  -12.6627   17.7877 H   0  0  0  0  0  0
  -27.7145  -14.2455   19.6008 H   0  0  0  0  0  0
  -28.6738  -11.9144   21.3258 H   0  0  0  0  0  0
  -28.4668  -13.5391   21.8887 H   0  0  0  0  0  0
  -25.2730   -9.5706   22.4759 H   0  0  0  0  0  0
  -23.9979   -7.4647   22.7485 H   0  0  0  0  0  0
  -21.0805   -8.8738   19.8968 H   0  0  0  0  0  0
  -22.3624  -10.9655   19.6164 H   0  0  0  0  0  0
  -21.2001   -7.6136   23.9698 H   0  0  0  0  0  0
  -21.1490   -6.0524   25.9069 H   0  0  0  0  0  0
  -22.0595   -2.7598   23.2866 H   0  0  0  0  0  0
  -22.4077  -11.9889   22.4786 H   0  0  0  0  0  0
  -21.1121  -13.1308   22.2598 H   0  0  0  0  0  0
  -24.6682  -15.8394   20.5267 H   0  0  0  0  0  0
  -26.2880  -15.6290   20.1056 H   0  0  0  0  0  0
  -26.7085  -32.5567   23.1179 H   0  0  0  0  0  0
  -25.0053  -33.9819   25.0482 H   0  0  0  0  0  0
  -22.6818  -31.3060   21.4163 H   0  0  0  0  0  0
  -23.3738  -35.9669   23.3306 H   0  0  0  0  0  0
  -24.3560  -36.8933   22.2046 H   0  0  0  0  0  0
  -23.7248  -37.6535   23.6649 H   0  0  0  0  0  0
  -26.0239  -31.6116   20.5935 H   0  0  0  0  0  0
  -26.8128  -30.9052   21.9736 H   0  0  0  0  0  0
  -28.0938  -29.1301   21.1697 H   0  0  0  0  0  0
  -26.0879  -25.9741   19.0333 H   0  0  0  0  0  0
  -23.9806  -27.2879   19.0449 H   0  0  0  0  0  0
  -23.7047  -30.6016   19.4080 H   0  0  0  0  0  0
  -22.7287  -29.2385   19.8744 H   0  0  0  0  0  0
  -25.1279  -36.1976   25.0829 H   0  0  0  0  0  0
  -20.9926  -28.3217   24.1468 H   0  0  0  0  0  0
  -20.5695  -26.2258   23.3592 H   0  0  0  0  0  0
  -21.6634  -26.7481   22.1194 H   0  0  0  0  0  0
  -19.6908  -25.6312   21.1222 H   0  0  0  0  0  0
  -19.6686  -27.3230   20.6750 H   0  0  0  0  0  0
  -17.4192  -26.6673   21.4020 H   0  0  0  0  0  0
  -18.0319  -26.0082   22.9021 H   0  0  0  0  0  0
  -19.7927  -30.7248   24.2295 H   0  0  0  0  0  0
  -17.5014  -31.6275   24.5166 H   0  0  0  0  0  0
  -15.5344  -30.3006   23.7651 H   0  0  0  0  0  0
  -15.8649  -28.0841   22.7053 H   0  0  0  0  0  0
  -24.5892  -30.7092   25.7787 H   0  0  0  0  0  0
  -24.8952  -32.2892   26.4925 H   0  0  0  0  0  0
  -25.8076  -30.8858   27.0228 H   0  0  0  0  0  0
  -26.2865  -29.6799   24.1146 H   0  0  0  0  0  0
  -27.4105  -29.7294   25.4540 H   0  0  0  0  0  0
  -27.8681  -30.4378   23.9225 H   0  0  0  0  0  0
  -27.2683  -33.3603   26.2111 H   0  0  0  0  0  0
  -28.3842  -32.6909   25.0299 H   0  0  0  0  0  0
  -28.0754  -31.8417   26.5357 H   0  0  0  0  0  0
  -28.2603  -38.0094   24.7506 H   0  0  0  0  0  0
  -28.1059  -36.2630   24.6297 H   0  0  0  0  0  0
  -27.2294  -37.1479   25.8864 H   0  0  0  0  0  0
  -20.9271  -29.8730   21.6971 H   0  0  0  0  0  0
  -26.0172  -38.2878   24.1416 H   0  0  0  0  0  0
  -31.2758  -17.5269   22.1696 H   0  0  0  0  0  0
  -29.6046  -20.4259   19.4220 H   0  0  0  0  0  0
  -28.4903  -16.3070   19.1129 H   0  0  0  0  0  0
  -31.5928  -22.2696   22.1853 H   0  0  0  0  0  0
  -28.8053  -21.4926   21.1855 H   0  0  0  0  0  0
  -29.9952  -23.9798   22.5364 H   0  0  0  0  0  0
  -28.3215  -23.4878   22.5639 H   0  0  0  0  0  0
  -28.1231  -24.0313   20.1097 H   0  0  0  0  0  0
  -29.8107  -24.5011   20.0868 H   0  0  0  0  0  0
  -27.6409  -25.8229   21.7971 H   0  0  0  0  0  0
  -29.3294  -26.2800   21.8167 H   0  0  0  0  0  0
  -32.6878  -18.9727   21.9224 H   0  0  0  0  0  0
  -29.1292  -15.0712   21.5922 H   0  0  0  0  0  0
  1 25  1  0  0  0
  1 30  2  0  0  0
  1 84  1  0  0  0
  2  3  1  0  0  0
  2 25  1  0  0  0
  2 86  1  0  0  0
  2 87  1  0  0  0
  3  4  1  0  0  0
  3 88  1  0  0  0
  3 89  1  0  0  0
  4  5  1  0  0  0
  4 90  1  0  0  0
  4 91  1  0  0  0
  5  6  1  0  0  0
  5 26  1  0  0  0
  5 92  1  0  0  0
  6 25  1  0  0  0
  6 93  1  0  0  0
  6 94  1  0  0  0
  7  8  2  0  0  0
  7 26  1  0  0  0
  7 29  1  0  0  0
  8  9  1  0  0  0
  8 22  1  0  0  0
  9 10  1  0  0  0
  9 27  2  0  0  0
 10 11  2  0  0  0
 10 15  1  0  0  0
 11 12  1  0  0  0
 11 95  1  0  0  0
 12 13  2  0  0  0
 12 96  1  0  0  0
 13 14  1  0  0  0
 13 31  1  0  0  0
 14 15  2  0  0  0
 14 97  1  0  0  0
 15 98  1  0  0  0
 16 17  2  0  0  0
 16 21  1  0  0  0
 16 31  1  0  0  0
 17 18  1  0  0  0
 17 99  1  0  0  0
 18 19  2  0  0  0
 18100  1  0  0  0
 19 20  1  0  0  0
 19 24  1  0  0  0
 20 21  2  0  0  0
 20101  1  0  0  0
 21 23  1  0  0  0
 22 28  1  0  0  0
 22 32  2  0  0  0
 26 27  1  0  0  0
 28102  1  0  0  0
 28103  1  0  0  0
 29104  1  0  0  0
 29105  1  0  0  0
 33 34  1  0  0  0
 33 66  1  0  0  0
 33 70  2  0  0  0
 34 36  1  0  0  0
 34 59  1  0  0  0
 34106  1  0  0  0
 35 44  2  0  0  0
 35 45  1  0  0  0
 35 68  1  0  0  0
 36 56  1  0  0  0
 36107  1  0  0  0
 37 39  1  0  0  0
 37 47  1  0  0  0
 37 66  1  0  0  0
 37108  1  0  0  0
 38 43  2  0  0  0
 38 46  1  0  0  0
 38 47  1  0  0  0
 39 64  1  0  0  0
 39 67  2  0  0  0
 40 52  1  0  0  0
 40 53  2  0  0  0
 40 58  1  0  0  0
 41109  1  0  0  0
 41110  1  0  0  0
 41111  1  0  0  0
 41 48  1  0  0  0
 42 43  1  0  0  0
 42 66  1  0  0  0
 42112  1  0  0  0
 42113  1  0  0  0
 43 44  1  0  0  0
 44114  1  0  0  0
 45 46  2  0  0  0
 45115  1  0  0  0
 46116  1  0  0  0
 47117  1  0  0  0
 47118  1  0  0  0
 48 56  1  0  0  0
 48 65  1  0  0  0
 48119  1  0  0  0
 49 50  1  0  0  0
 49 53  1  0  0  0
 49 64  1  0  0  0
 49120  1  0  0  0
 50 51  1  0  0  0
 50121  1  0  0  0
 50122  1  0  0  0
 51 52  1  0  0  0
 51123  1  0  0  0
 51124  1  0  0  0
 52125  1  0  0  0
 52126  1  0  0  0
 53 54  1  0  0  0
 54 55  2  0  0  0
 54127  1  0  0  0
 55 57  1  0  0  0
 55128  1  0  0  0
 56 69  2  0  0  0
 57 58  2  0  0  0
 57129  1  0  0  0
 58130  1  0  0  0
 59 60  1  0  0  0
 59 61  1  0  0  0
 59 62  1  0  0  0
 60131  1  0  0  0
 60132  1  0  0  0
 60133  1  0  0  0
 61134  1  0  0  0
 61135  1  0  0  0
 61136  1  0  0  0
 62137  1  0  0  0
 62138  1  0  0  0
 62139  1  0  0  0
 63 65  1  0  0  0
 63140  1  0  0  0
 63141  1  0  0  0
 63142  1  0  0  0
 64143  1  0  0  0
 65144  1  0  0  0
 68 82  1  0  0  0
 71 74  2  0  0  0
 71 75  1  0  0  0
 71145  1  0  0  0
 72 74  1  0  0  0
 72 76  2  0  0  0
 72146  1  0  0  0
 73 75  2  0  0  0
 73 76  1  0  0  0
 73147  1  0  0  0
 74 79  1  0  0  0
 75 84  1  0  0  0
 76 85  1  0  0  0
 77 78  2  0  0  0
 77 79  1  0  0  0
 77148  1  0  0  0
 78 80  1  0  0  0
 78149  1  0  0  0
 79 83  2  0  0  0
 80 81  1  0  0  0
 80150  1  0  0  0
 80151  1  0  0  0
 81 82  1  0  0  0
 81152  1  0  0  0
 81153  1  0  0  0
 82154  1  0  0  0
 82155  1  0  0  0
 83156  1  0  0  0
 84157  1  0  0  0
M  ISO  4   1 100  68 101  82 101  84 100
M  END
> <chiral flag>
0

> <version>
0

> <s_m_source_file>
/data/baiqing/PycharmProjects/Reinvent-master-3.2/result/LINK_invent/BTK/process_docking_weight1_custom_product_contain_oxygen_bond_distance_aromatic_linkinvent_7_9_3/rearranged_h_0122.sdf

> <i_m_source_file_index>
28

> <r_mmod_Potential_Energy-OPLS-2005>
-30.8051357269287

> <r_mmod_Stretch_Energy-OPLS-2005>
33.4576721191406

> <r_mmod_Bend_Energy-OPLS-2005>
93.6234817504883

> <r_mmod_Torsional_Energy-OPLS-2005>
275.873199462891

> <r_mmod_Improper_Torsional_Energy-OPLS-2005>
5.96163463592529

> <r_mmod_Van_der_Waal_Energy-OPLS-2005>
150.667984008789

> <r_mmod_Electrostatic_Energy-OPLS-2005>
-384.186431884766

> <r_mmod_Solvation_Energy-OPLS-2005>
-215.266372680664

> <b_mmod_Minimization_Converged-OPLS-2005>
0

> <r_mmod_RMS_Derivative-OPLS-2005>
2.82669639587402

$$$$
28
                    3D
 Structure written by MMmdl.
159167  0  0  1  0            999 V2000
  -30.7049  -14.5649   20.4411 C   0  0  0  0  0  0
  -30.4134  -12.3385   19.4486 C   0  0  0  0  0  0
  -29.4982  -12.4838   18.2144 C   0  0  0  0  0  0
  -28.0202  -12.3228   18.6233 C   0  0  0  0  0  0
  -27.6390  -13.2098   19.8380 C   0  0  2  0  0  0
  -28.6899  -13.1194   20.9724 C   0  0  0  0  0  0
  -25.2490  -13.8156   20.5661 C   0  0  0  0  0  0
  -24.1766  -13.0426   20.9212 C   0  0  0  0  0  0
  -24.6372  -11.6896   20.8775 C   0  0  0  0  0  0
  -23.9052  -10.4291   21.0424 C   0  0  0  0  0  0
  -24.3591   -9.4218   21.9206 C   0  0  0  0  0  0
  -23.6292   -8.2246   22.0751 C   0  0  0  0  0  0
  -22.4302   -8.0285   21.3527 C   0  0  0  0  0  0
  -21.9926   -9.0256   20.4638 C   0  0  0  0  0  0
  -22.7238  -10.2145   20.3074 C   0  0  0  0  0  0
  -21.6853   -6.0752   22.5291 C   0  0  0  0  0  0
  -21.3991   -6.5642   23.8214 C   0  0  0  0  0  0
  -21.3657   -5.6803   24.9166 C   0  0  0  0  0  0
  -21.6040   -4.3066   24.7227 C   0  0  0  0  0  0
  -21.8818   -3.8164   23.4348 C   0  0  0  0  0  0
  -21.9163   -4.6975   22.3399 C   0  0  0  0  0  0
  -22.7794  -13.5212   21.1888 C   0  0  0  0  0  0
  -22.1633   -4.2178   21.0994 F   0  0  0  0  0  0
  -21.5640   -3.4546   25.7746 F   0  0  0  0  0  0
  -30.0208  -13.3823   20.4091 N   0  0  0  0  0  0
  -26.2899  -12.9321   20.3230 N   0  0  0  0  0  0
  -25.9286  -11.6488   20.5727 N   0  0  0  0  0  0
  -22.0447  -12.8191   22.0444 N   0  0  0  0  0  0
  -25.4258  -15.1872   20.4013 N   0  0  0  0  0  0
  -31.9192  -14.6016   20.2403 O   0  0  0  0  0  0
  -21.6633   -6.8913   21.4275 O   0  0  0  0  0  0
  -22.3491  -14.5566   20.6816 O   0  0  0  0  0  0
  -24.6092  -31.8707   23.2032 C   0  0  0  0  0  0
  -25.9028  -32.4810   23.8334 C   0  0  1  0  0  0
  -27.2510  -27.4463   20.1266 C   0  0  0  0  0  0
  -25.5896  -33.8605   24.2275 N   0  0  0  0  0  0
  -23.3952  -30.4908   21.5502 C   0  0  2  0  0  0
  -24.8496  -28.9506   20.1217 C   0  0  0  0  0  0
  -22.7350  -29.4663   22.5016 C   0  0  0  0  0  0
  -18.0250  -28.1350   22.8439 C   0  0  0  0  0  0
  -24.1490  -36.7302   23.2629 C   0  0  0  0  0  0
  -25.9158  -30.8512   21.3489 C   0  0  0  0  0  0
  -26.0007  -29.4791   20.7103 C   0  0  0  0  0  0
  -27.2009  -28.7353   20.7028 C   0  0  0  0  0  0
  -26.0770  -26.9229   19.5359 C   0  0  0  0  0  0
  -24.8787  -27.6714   19.5363 C   0  0  0  0  0  0
  -23.6033  -29.8096   20.1699 C   0  0  0  0  0  0
  -25.4096  -36.3076   24.0307 C   0  0  1  0  0  0
  -20.5824  -28.3657   23.1305 C   0  0  2  0  0  0
  -20.6751  -26.9395   22.5407 C   0  0  0  0  0  0
  -19.5752  -26.6364   21.5195 C   0  0  0  0  0  0
  -18.1926  -26.7875   22.1594 C   0  0  0  0  0  0
  -19.1486  -28.8813   23.2865 C   0  0  0  0  0  0
  -18.9460  -30.1421   23.8861 C   0  0  0  0  0  0
  -17.6472  -30.6564   24.0571 C   0  0  0  0  0  0
  -25.9051  -34.9453   23.5080 C   0  0  0  0  0  0
  -16.5355  -29.9056   23.6355 C   0  0  0  0  0  0
  -16.7246  -28.6493   23.0304 C   0  0  0  0  0  0
  -26.4457  -31.6549   25.0659 C   0  0  0  0  0  0
  -25.3709  -31.3667   26.1424 C   0  0  0  0  0  0
  -27.0308  -30.2977   24.6057 C   0  0  0  0  0  0
  -27.6022  -32.4251   25.7443 C   0  0  0  0  0  0
  -27.5554  -37.1785   24.8450 C   0  0  0  0  0  0
  -21.4091  -29.3010   22.3711 N   0  0  0  0  0  0
  -26.4252  -37.3768   23.9412 N   0  0  0  0  0  0
  -24.6576  -31.0823   22.0942 N   0  0  0  0  0  0
  -23.4119  -28.8210   23.3058 O   0  0  0  0  0  0
  -28.4656  -26.7815   20.1852 O   0  0  0  0  0  0
  -26.5628  -34.8901   22.4634 O   0  0  0  0  0  0
  -23.5282  -32.1454   23.7444 O   0  0  0  0  0  0
  -29.9412  -19.5383   20.3855 C   0  0  0  0  0  0
  -29.3044  -18.2102   18.4564 C   0  0  0  0  0  0
  -29.8667  -18.2711   19.7430 C   0  0  0  0  0  0
  -29.5079  -20.7295   19.7317 C   0  0  0  0  0  0
  -28.9694  -19.3808   17.7485 C   0  0  0  0  0  0
  -29.1072  -20.6519   18.3612 C   0  0  0  0  0  0
  -30.4851  -17.0205   20.2525 C   0  0  0  0  0  0
  -29.4801  -22.0157   20.4855 C   0  0  0  0  0  0
  -29.8987  -15.7929   20.3048 C   0  0  0  0  0  0
  -28.5082  -22.9520   20.3425 C   0  0  0  0  0  0
  -28.5437  -19.2135   16.2968 C   0  0  0  0  0  0
  -28.9264  -21.9078   17.4930 C   0  0  0  0  0  0
  -28.4377  -24.3649   20.9166 C   0  0  0  0  0  0
  -28.6079  -25.4125   19.7845 C   0  0  0  0  0  0
  -31.4603  -12.4141   19.1527 H   0  0  0  0  0  0
  -30.2886  -11.3525   19.8969 H   0  0  0  0  0  0
  -29.7677  -11.7412   17.4629 H   0  0  0  0  0  0
  -29.6494  -13.4546   17.7376 H   0  0  0  0  0  0
  -27.8587  -11.2720   18.8694 H   0  0  0  0  0  0
  -27.3734  -12.5454   17.7725 H   0  0  0  0  0  0
  -27.6261  -14.2251   19.4537 H   0  0  0  0  0  0
  -28.6835  -12.1247   21.4217 H   0  0  0  0  0  0
  -28.4561  -13.8196   21.7768 H   0  0  0  0  0  0
  -25.2747   -9.5668   22.4754 H   0  0  0  0  0  0
  -24.0007   -7.4616   22.7458 H   0  0  0  0  0  0
  -21.0866   -8.8738   19.8945 H   0  0  0  0  0  0
  -22.3703  -10.9649   19.6154 H   0  0  0  0  0  0
  -21.1984   -7.6160   23.9740 H   0  0  0  0  0  0
  -21.1482   -6.0525   25.9079 H   0  0  0  0  0  0
  -22.0604   -2.7643   23.2833 H   0  0  0  0  0  0
  -22.4046  -11.9813   22.4796 H   0  0  0  0  0  0
  -21.1061  -13.1188   22.2675 H   0  0  0  0  0  0
  -24.6739  -15.8533   20.5258 H   0  0  0  0  0  0
  -26.2873  -15.6242   20.0995 H   0  0  0  0  0  0
  -26.7114  -32.5612   23.1117 H   0  0  0  0  0  0
  -25.0020  -33.9772   25.0418 H   0  0  0  0  0  0
  -22.6798  -31.3043   21.4060 H   0  0  0  0  0  0
  -23.3737  -35.9661   23.3317 H   0  0  0  0  0  0
  -24.3554  -36.8927   22.2040 H   0  0  0  0  0  0
  -23.7312  -37.6516   23.6666 H   0  0  0  0  0  0
  -26.0111  -31.6124   20.5736 H   0  0  0  0  0  0
  -26.8012  -30.9139   21.9694 H   0  0  0  0  0  0
  -28.0961  -29.1471   21.1500 H   0  0  0  0  0  0
  -26.0588  -25.9449   19.0824 H   0  0  0  0  0  0
  -23.9892  -27.2441   19.0996 H   0  0  0  0  0  0
  -23.6990  -30.5834   19.4052 H   0  0  0  0  0  0
  -22.7297  -29.2218   19.8843 H   0  0  0  0  0  0
  -25.1283  -36.1867   25.0795 H   0  0  0  0  0  0
  -20.9902  -28.3258   24.1432 H   0  0  0  0  0  0
  -20.5637  -26.2283   23.3600 H   0  0  0  0  0  0
  -21.6632  -26.7418   22.1245 H   0  0  0  0  0  0
  -19.6936  -25.6275   21.1235 H   0  0  0  0  0  0
  -19.6696  -27.3187   20.6728 H   0  0  0  0  0  0
  -17.4196  -26.6616   21.3998 H   0  0  0  0  0  0
  -18.0315  -25.9971   22.8947 H   0  0  0  0  0  0
  -19.7954  -30.7265   24.2132 H   0  0  0  0  0  0
  -17.5062  -31.6232   24.5202 H   0  0  0  0  0  0
  -15.5369  -30.2991   23.7692 H   0  0  0  0  0  0
  -15.8642  -28.0895   22.6913 H   0  0  0  0  0  0
  -24.5933  -30.6940   25.7794 H   0  0  0  0  0  0
  -24.8851  -32.2841   26.4757 H   0  0  0  0  0  0
  -25.8028  -30.8946   27.0273 H   0  0  0  0  0  0
  -26.2894  -29.6733   24.1070 H   0  0  0  0  0  0
  -27.4062  -29.7175   25.4515 H   0  0  0  0  0  0
  -27.8684  -30.4277   23.9194 H   0  0  0  0  0  0
  -27.2640  -33.3565   26.1976 H   0  0  0  0  0  0
  -28.3862  -32.6782   25.0298 H   0  0  0  0  0  0
  -28.0682  -31.8435   26.5433 H   0  0  0  0  0  0
  -28.2529  -38.0118   24.7502 H   0  0  0  0  0  0
  -28.1077  -36.2636   24.6230 H   0  0  0  0  0  0
  -27.2288  -37.1397   25.8861 H   0  0  0  0  0  0
  -20.9261  -29.8728   21.6937 H   0  0  0  0  0  0
  -26.0127  -38.2819   24.1458 H   0  0  0  0  0  0
  -30.3519  -19.6021   21.3839 H   0  0  0  0  0  0
  -29.2395  -17.2578   17.9408 H   0  0  0  0  0  0
  -31.5450  -17.1088   20.4565 H   0  0  0  0  0  0
  -30.3202  -22.2146   21.1351 H   0  0  0  0  0  0
  -28.8389  -15.7499   20.1426 H   0  0  0  0  0  0
  -27.6649  -22.7161   19.7089 H   0  0  0  0  0  0
  -27.8401  -18.3868   16.2143 H   0  0  0  0  0  0
  -29.4101  -18.9765   15.6737 H   0  0  0  0  0  0
  -28.0453  -20.0876   15.8798 H   0  0  0  0  0  0
  -27.8847  -22.0802   17.2146 H   0  0  0  0  0  0
  -29.5065  -21.8098   16.5754 H   0  0  0  0  0  0
  -29.3184  -22.8171   17.9421 H   0  0  0  0  0  0
  -29.1692  -24.5073   21.7145 H   0  0  0  0  0  0
  -27.4528  -24.4826   21.3719 H   0  0  0  0  0  0
  -27.9790  -25.1687   18.9331 H   0  0  0  0  0  0
  -29.6267  -25.3224   19.4026 H   0  0  0  0  0  0
  1 25  1  0  0  0
  1 30  2  0  0  0
  1 79  1  0  0  0
  2  3  1  0  0  0
  2 25  1  0  0  0
  2 85  1  0  0  0
  2 86  1  0  0  0
  3  4  1  0  0  0
  3 87  1  0  0  0
  3 88  1  0  0  0
  4  5  1  0  0  0
  4 89  1  0  0  0
  4 90  1  0  0  0
  5  6  1  0  0  0
  5 26  1  0  0  0
  5 91  1  0  0  0
  6 25  1  0  0  0
  6 92  1  0  0  0
  6 93  1  0  0  0
  7  8  2  0  0  0
  7 26  1  0  0  0
  7 29  1  0  0  0
  8  9  1  0  0  0
  8 22  1  0  0  0
  9 10  1  0  0  0
  9 27  2  0  0  0
 10 11  2  0  0  0
 10 15  1  0  0  0
 11 12  1  0  0  0
 11 94  1  0  0  0
 12 13  2  0  0  0
 12 95  1  0  0  0
 13 14  1  0  0  0
 13 31  1  0  0  0
 14 15  2  0  0  0
 14 96  1  0  0  0
 15 97  1  0  0  0
 16 17  2  0  0  0
 16 21  1  0  0  0
 16 31  1  0  0  0
 17 18  1  0  0  0
 17 98  1  0  0  0
 18 19  2  0  0  0
 18 99  1  0  0  0
 19 20  1  0  0  0
 19 24  1  0  0  0
 20 21  2  0  0  0
 20100  1  0  0  0
 21 23  1  0  0  0
 22 28  1  0  0  0
 22 32  2  0  0  0
 26 27  1  0  0  0
 28101  1  0  0  0
 28102  1  0  0  0
 29103  1  0  0  0
 29104  1  0  0  0
 33 34  1  0  0  0
 33 66  1  0  0  0
 33 70  2  0  0  0
 34 36  1  0  0  0
 34 59  1  0  0  0
 34105  1  0  0  0
 35 44  2  0  0  0
 35 45  1  0  0  0
 35 68  1  0  0  0
 36 56  1  0  0  0
 36106  1  0  0  0
 37 39  1  0  0  0
 37 47  1  0  0  0
 37 66  1  0  0  0
 37107  1  0  0  0
 38 43  2  0  0  0
 38 46  1  0  0  0
 38 47  1  0  0  0
 39 64  1  0  0  0
 39 67  2  0  0  0
 40 52  1  0  0  0
 40 53  2  0  0  0
 40 58  1  0  0  0
 41108  1  0  0  0
 41109  1  0  0  0
 41110  1  0  0  0
 41 48  1  0  0  0
 42 43  1  0  0  0
 42 66  1  0  0  0
 42111  1  0  0  0
 42112  1  0  0  0
 43 44  1  0  0  0
 44113  1  0  0  0
 45 46  2  0  0  0
 45114  1  0  0  0
 46115  1  0  0  0
 47116  1  0  0  0
 47117  1  0  0  0
 48 56  1  0  0  0
 48 65  1  0  0  0
 48118  1  0  0  0
 49 50  1  0  0  0
 49 53  1  0  0  0
 49 64  1  0  0  0
 49119  1  0  0  0
 50 51  1  0  0  0
 50120  1  0  0  0
 50121  1  0  0  0
 51 52  1  0  0  0
 51122  1  0  0  0
 51123  1  0  0  0
 52124  1  0  0  0
 52125  1  0  0  0
 53 54  1  0  0  0
 54 55  2  0  0  0
 54126  1  0  0  0
 55 57  1  0  0  0
 55127  1  0  0  0
 56 69  2  0  0  0
 57 58  2  0  0  0
 57128  1  0  0  0
 58129  1  0  0  0
 59 60  1  0  0  0
 59 61  1  0  0  0
 59 62  1  0  0  0
 60130  1  0  0  0
 60131  1  0  0  0
 60132  1  0  0  0
 61133  1  0  0  0
 61134  1  0  0  0
 61135  1  0  0  0
 62136  1  0  0  0
 62137  1  0  0  0
 62138  1  0  0  0
 63 65  1  0  0  0
 63139  1  0  0  0
 63140  1  0  0  0
 63141  1  0  0  0
 64142  1  0  0  0
 65143  1  0  0  0
 68 84  1  0  0  0
 71 73  2  0  0  0
 71 74  1  0  0  0
 71144  1  0  0  0
 72 73  1  0  0  0
 72 75  2  0  0  0
 72145  1  0  0  0
 73 77  1  0  0  0
 74 76  2  0  0  0
 74 78  1  0  0  0
 75 76  1  0  0  0
 75 81  1  0  0  0
 76 82  1  0  0  0
 77 79  2  0  0  0
 77146  1  0  0  0
 78 80  2  0  0  0
 78147  1  0  0  0
 79148  1  0  0  0
 80 83  1  0  0  0
 80149  1  0  0  0
 81150  1  0  0  0
 81151  1  0  0  0
 81152  1  0  0  0
 82153  1  0  0  0
 82154  1  0  0  0
 82155  1  0  0  0
 83 84  1  0  0  0
 83156  1  0  0  0
 83157  1  0  0  0
 84158  1  0  0  0
 84159  1  0  0  0
M  ISO  4   1 100  68 101  79 100  84 101
M  END
> <chiral flag>
0

> <version>
0

> <s_m_source_file>
/data/baiqing/PycharmProjects/Reinvent-master-3.2/result/LINK_invent/BTK/process_docking_weight1_custom_product_contain_oxygen_bond_distance_aromatic_linkinvent_7_9_3/rearranged_h_0122.sdf

> <i_m_source_file_index>
29

> <r_mmod_Potential_Energy-OPLS-2005>
73.5213851928711

> <r_mmod_Stretch_Energy-OPLS-2005>
43.6394996643066

> <r_mmod_Bend_Energy-OPLS-2005>
116.68782043457

> <r_mmod_Torsional_Energy-OPLS-2005>
236.833770751953

> <r_mmod_Improper_Torsional_Energy-OPLS-2005>
16.5231895446777

> <r_mmod_Van_der_Waal_Energy-OPLS-2005>
161.582901000977

> <r_mmod_Electrostatic_Energy-OPLS-2005>
-345.924346923828

> <r_mmod_Solvation_Energy-OPLS-2005>
-189.894500732422

> <b_mmod_Minimization_Converged-OPLS-2005>
0

> <r_mmod_RMS_Derivative-OPLS-2005>
6.5845308303833

$$$$
29
                    3D
 Structure written by MMmdl.
162170  0  0  1  0            999 V2000
  -30.7299  -14.4538   20.6270 C   0  0  0  0  0  0
  -30.4164  -12.3198   19.4157 C   0  0  0  0  0  0
  -29.4873  -12.5141   18.2024 C   0  0  0  0  0  0
  -28.0123  -12.3641   18.6199 C   0  0  0  0  0  0
  -27.6588  -13.2084   19.8731 C   0  0  2  0  0  0
  -28.6987  -12.9953   20.9949 C   0  0  0  0  0  0
  -25.2574  -13.8169   20.5679 C   0  0  0  0  0  0
  -24.1827  -13.0443   20.9170 C   0  0  0  0  0  0
  -24.6383  -11.6908   20.8729 C   0  0  0  0  0  0
  -23.9051  -10.4291   21.0403 C   0  0  0  0  0  0
  -24.3607   -9.4213   21.9186 C   0  0  0  0  0  0
  -23.6287   -8.2245   22.0758 C   0  0  0  0  0  0
  -22.4271   -8.0276   21.3542 C   0  0  0  0  0  0
  -21.9902   -9.0248   20.4646 C   0  0  0  0  0  0
  -22.7224  -10.2132   20.3053 C   0  0  0  0  0  0
  -21.6852   -6.0735   22.5279 C   0  0  0  0  0  0
  -21.4014   -6.5640   23.8211 C   0  0  0  0  0  0
  -21.3662   -5.6794   24.9172 C   0  0  0  0  0  0
  -21.6041   -4.3054   24.7225 C   0  0  0  0  0  0
  -21.8820   -3.8147   23.4345 C   0  0  0  0  0  0
  -21.9191   -4.6963   22.3402 C   0  0  0  0  0  0
  -22.7853  -13.5238   21.1841 C   0  0  0  0  0  0
  -22.1660   -4.2146   21.0980 F   0  0  0  0  0  0
  -21.5629   -3.4541   25.7738 F   0  0  0  0  0  0
  -30.0290  -13.3013   20.4428 N   0  0  0  0  0  0
  -26.3007  -12.9336   20.3360 N   0  0  0  0  0  0
  -25.9308  -11.6493   20.5761 N   0  0  0  0  0  0
  -22.0493  -12.8228   22.0399 N   0  0  0  0  0  0
  -25.4330  -15.1885   20.4104 N   0  0  0  0  0  0
  -31.8227  -14.6564   20.0905 O   0  0  0  0  0  0
  -21.6635   -6.8877   21.4239 O   0  0  0  0  0  0
  -22.3542  -14.5549   20.6700 O   0  0  0  0  0  0
  -24.6163  -31.8670   23.2116 C   0  0  0  0  0  0
  -25.9054  -32.4821   23.8406 C   0  0  1  0  0  0
  -27.2219  -27.4089   20.0951 C   0  0  0  0  0  0
  -25.5903  -33.8618   24.2337 N   0  0  0  0  0  0
  -23.4049  -30.4941   21.5525 C   0  0  2  0  0  0
  -24.8486  -28.9663   20.1104 C   0  0  0  0  0  0
  -22.7423  -29.4652   22.4979 C   0  0  0  0  0  0
  -18.0273  -28.1377   22.8483 C   0  0  0  0  0  0
  -24.1485  -36.7307   23.2640 C   0  0  0  0  0  0
  -25.9382  -30.8260   21.3692 C   0  0  0  0  0  0
  -26.0117  -29.4609   20.7117 C   0  0  0  0  0  0
  -27.2005  -28.6905   20.7018 C   0  0  0  0  0  0
  -26.0387  -26.9505   19.4659 C   0  0  0  0  0  0
  -24.8587  -27.7124   19.4832 C   0  0  0  0  0  0
  -23.6127  -29.8347   20.1648 C   0  0  0  0  0  0
  -25.4106  -36.3111   24.0346 C   0  0  1  0  0  0
  -20.5866  -28.3660   23.1316 C   0  0  2  0  0  0
  -20.6766  -26.9398   22.5408 C   0  0  0  0  0  0
  -19.5746  -26.6376   21.5207 C   0  0  0  0  0  0
  -18.1922  -26.7919   22.1614 C   0  0  0  0  0  0
  -19.1524  -28.8834   23.2893 C   0  0  0  0  0  0
  -18.9458  -30.1438   23.8903 C   0  0  0  0  0  0
  -17.6461  -30.6580   24.0560 C   0  0  0  0  0  0
  -25.9038  -34.9473   23.5138 C   0  0  0  0  0  0
  -16.5349  -29.9085   23.6328 C   0  0  0  0  0  0
  -16.7260  -28.6502   23.0348 C   0  0  0  0  0  0
  -26.4473  -31.6599   25.0735 C   0  0  0  0  0  0
  -25.3735  -31.3706   26.1481 C   0  0  0  0  0  0
  -27.0306  -30.3046   24.6111 C   0  0  0  0  0  0
  -27.6053  -32.4312   25.7497 C   0  0  0  0  0  0
  -27.5580  -37.1806   24.8468 C   0  0  0  0  0  0
  -21.4149  -29.3028   22.3717 N   0  0  0  0  0  0
  -26.4290  -37.3797   23.9417 N   0  0  0  0  0  0
  -24.6720  -31.0768   22.1024 N   0  0  0  0  0  0
  -23.4195  -28.8187   23.3016 O   0  0  0  0  0  0
  -28.3712  -26.6349   20.1441 O   0  0  0  0  0  0
  -26.5596  -34.8917   22.4698 O   0  0  0  0  0  0
  -23.5349  -32.1419   23.7497 O   0  0  0  0  0  0
  -31.1326  -18.7894   20.8666 C   0  0  0  0  0  0
  -29.2316  -18.4726   22.3367 C   0  0  0  0  0  0
  -30.3642  -17.9378   21.6881 C   0  0  0  0  0  0
  -30.8443  -20.1722   20.7725 C   0  0  0  0  0  0
  -28.9299  -19.8548   22.2505 C   0  0  0  0  0  0
  -29.7526  -20.7271   21.4902 C   0  0  0  0  0  0
  -29.2199  -24.3278   20.6269 C   0  0  0  0  0  0
  -31.7809  -21.0457   19.9574 C   0  0  0  0  0  0
  -28.0367  -20.5141   24.5347 C   0  0  0  0  0  0
  -27.7407  -20.3870   23.0354 C   0  0  0  0  0  0
  -30.8674  -16.5248   22.0113 C   0  0  0  0  0  0
  -28.2080  -25.2188   19.8797 C   0  0  0  0  0  0
  -29.0715  -22.7970   20.4434 C   0  0  0  0  0  0
  -30.1588  -15.3826   21.4169 N   0  0  0  0  0  0
  -30.1065  -24.8124   21.3412 O   0  0  0  0  0  0
  -29.5715  -22.0959   21.5908 O   0  0  0  0  0  0
  -31.4602  -12.4182   19.1116 H   0  0  0  0  0  0
  -30.3195  -11.3082   19.8131 H   0  0  0  0  0  0
  -29.7302  -11.7918   17.4219 H   0  0  0  0  0  0
  -29.6489  -13.5021   17.7678 H   0  0  0  0  0  0
  -27.8325  -11.3077   18.8235 H   0  0  0  0  0  0
  -27.3558  -12.6283   17.7903 H   0  0  0  0  0  0
  -27.7030  -14.2556   19.5729 H   0  0  0  0  0  0
  -28.6784  -11.9604   21.3395 H   0  0  0  0  0  0
  -28.4486  -13.5961   21.8700 H   0  0  0  0  0  0
  -25.2755   -9.5686   22.4755 H   0  0  0  0  0  0
  -23.9994   -7.4639   22.7481 H   0  0  0  0  0  0
  -21.0835   -8.8764   19.8954 H   0  0  0  0  0  0
  -22.3685  -10.9667   19.6156 H   0  0  0  0  0  0
  -21.2009   -7.6148   23.9713 H   0  0  0  0  0  0
  -21.1482   -6.0525   25.9075 H   0  0  0  0  0  0
  -22.0599   -2.7607   23.2846 H   0  0  0  0  0  0
  -22.4105  -11.9871   22.4754 H   0  0  0  0  0  0
  -21.1121  -13.1264   22.2631 H   0  0  0  0  0  0
  -24.6736  -15.8508   20.5240 H   0  0  0  0  0  0
  -26.2947  -15.6233   20.1042 H   0  0  0  0  0  0
  -26.7121  -32.5521   23.1161 H   0  0  0  0  0  0
  -25.0070  -33.9783   25.0492 H   0  0  0  0  0  0
  -22.6936  -31.3120   21.4171 H   0  0  0  0  0  0
  -23.3750  -35.9640   23.3310 H   0  0  0  0  0  0
  -24.3576  -36.8907   22.2053 H   0  0  0  0  0  0
  -23.7229  -37.6516   23.6641 H   0  0  0  0  0  0
  -26.0563  -31.5944   20.6031 H   0  0  0  0  0  0
  -26.8248  -30.8746   21.9898 H   0  0  0  0  0  0
  -28.0947  -29.0663   21.1782 H   0  0  0  0  0  0
  -25.9950  -26.0016   18.9520 H   0  0  0  0  0  0
  -23.9672  -27.3326   19.0039 H   0  0  0  0  0  0
  -23.7209  -30.6127   19.4088 H   0  0  0  0  0  0
  -22.7364  -29.2571   19.8653 H   0  0  0  0  0  0
  -25.1276  -36.1981   25.0839 H   0  0  0  0  0  0
  -20.9949  -28.3211   24.1441 H   0  0  0  0  0  0
  -20.5685  -26.2258   23.3582 H   0  0  0  0  0  0
  -21.6637  -26.7444   22.1197 H   0  0  0  0  0  0
  -19.6917  -25.6296   21.1221 H   0  0  0  0  0  0
  -19.6703  -27.3200   20.6756 H   0  0  0  0  0  0
  -17.4197  -26.6670   21.4009 H   0  0  0  0  0  0
  -18.0328  -26.0058   22.9010 H   0  0  0  0  0  0
  -19.7943  -30.7247   24.2274 H   0  0  0  0  0  0
  -17.5025  -31.6266   24.5158 H   0  0  0  0  0  0
  -15.5353  -30.2994   23.7656 H   0  0  0  0  0  0
  -15.8658  -28.0824   22.7072 H   0  0  0  0  0  0
  -24.5922  -30.7034   25.7822 H   0  0  0  0  0  0
  -24.8905  -32.2857   26.4916 H   0  0  0  0  0  0
  -25.8081  -30.8890   27.0247 H   0  0  0  0  0  0
  -26.2857  -29.6809   24.1157 H   0  0  0  0  0  0
  -27.4085  -29.7276   25.4563 H   0  0  0  0  0  0
  -27.8683  -30.4382   23.9263 H   0  0  0  0  0  0
  -27.2689  -33.3610   26.2093 H   0  0  0  0  0  0
  -28.3852  -32.6864   25.0311 H   0  0  0  0  0  0
  -28.0727  -31.8417   26.5393 H   0  0  0  0  0  0
  -28.2601  -38.0101   24.7512 H   0  0  0  0  0  0
  -28.1068  -36.2627   24.6294 H   0  0  0  0  0  0
  -27.2294  -37.1463   25.8872 H   0  0  0  0  0  0
  -20.9309  -29.8755   21.6947 H   0  0  0  0  0  0
  -26.0179  -38.2876   24.1421 H   0  0  0  0  0  0
  -32.0048  -18.3928   20.3652 H   0  0  0  0  0  0
  -28.6314  -17.8348   22.9710 H   0  0  0  0  0  0
  -32.7812  -20.6132   19.9159 H   0  0  0  0  0  0
  -31.8749  -22.0420   20.3895 H   0  0  0  0  0  0
  -31.4140  -21.1390   18.9350 H   0  0  0  0  0  0
  -27.1647  -20.8904   25.0698 H   0  0  0  0  0  0
  -28.8634  -21.2017   24.7173 H   0  0  0  0  0  0
  -28.2991  -19.5493   24.9697 H   0  0  0  0  0  0
  -26.8960  -19.7129   22.8861 H   0  0  0  0  0  0
  -27.4225  -21.3515   22.6386 H   0  0  0  0  0  0
  -30.8122  -16.3999   23.0934 H   0  0  0  0  0  0
  -31.9364  -16.4820   21.7918 H   0  0  0  0  0  0
  -27.2309  -24.8696   20.2129 H   0  0  0  0  0  0
  -28.2824  -25.0341   18.8079 H   0  0  0  0  0  0
  -29.5987  -22.4980   19.5387 H   0  0  0  0  0  0
  -28.0196  -22.5483   20.3001 H   0  0  0  0  0  0
  -29.2424  -15.1695   21.7808 H   0  0  0  0  0  0
  1 25  1  0  0  0
  1 30  2  0  0  0
  1 84  1  0  0  0
  2  3  1  0  0  0
  2 25  1  0  0  0
  2 87  1  0  0  0
  2 88  1  0  0  0
  3  4  1  0  0  0
  3 89  1  0  0  0
  3 90  1  0  0  0
  4  5  1  0  0  0
  4 91  1  0  0  0
  4 92  1  0  0  0
  5  6  1  0  0  0
  5 26  1  0  0  0
  5 93  1  0  0  0
  6 25  1  0  0  0
  6 94  1  0  0  0
  6 95  1  0  0  0
  7  8  2  0  0  0
  7 26  1  0  0  0
  7 29  1  0  0  0
  8  9  1  0  0  0
  8 22  1  0  0  0
  9 10  1  0  0  0
  9 27  2  0  0  0
 10 11  2  0  0  0
 10 15  1  0  0  0
 11 12  1  0  0  0
 11 96  1  0  0  0
 12 13  2  0  0  0
 12 97  1  0  0  0
 13 14  1  0  0  0
 13 31  1  0  0  0
 14 15  2  0  0  0
 14 98  1  0  0  0
 15 99  1  0  0  0
 16 17  2  0  0  0
 16 21  1  0  0  0
 16 31  1  0  0  0
 17 18  1  0  0  0
 17100  1  0  0  0
 18 19  2  0  0  0
 18101  1  0  0  0
 19 20  1  0  0  0
 19 24  1  0  0  0
 20 21  2  0  0  0
 20102  1  0  0  0
 21 23  1  0  0  0
 22 28  1  0  0  0
 22 32  2  0  0  0
 26 27  1  0  0  0
 28103  1  0  0  0
 28104  1  0  0  0
 29105  1  0  0  0
 29106  1  0  0  0
 33 34  1  0  0  0
 33 66  1  0  0  0
 33 70  2  0  0  0
 34 36  1  0  0  0
 34 59  1  0  0  0
 34107  1  0  0  0
 35 44  2  0  0  0
 35 45  1  0  0  0
 35 68  1  0  0  0
 36 56  1  0  0  0
 36108  1  0  0  0
 37 39  1  0  0  0
 37 47  1  0  0  0
 37 66  1  0  0  0
 37109  1  0  0  0
 38 43  2  0  0  0
 38 46  1  0  0  0
 38 47  1  0  0  0
 39 64  1  0  0  0
 39 67  2  0  0  0
 40 52  1  0  0  0
 40 53  2  0  0  0
 40 58  1  0  0  0
 41110  1  0  0  0
 41111  1  0  0  0
 41112  1  0  0  0
 41 48  1  0  0  0
 42 43  1  0  0  0
 42 66  1  0  0  0
 42113  1  0  0  0
 42114  1  0  0  0
 43 44  1  0  0  0
 44115  1  0  0  0
 45 46  2  0  0  0
 45116  1  0  0  0
 46117  1  0  0  0
 47118  1  0  0  0
 47119  1  0  0  0
 48 56  1  0  0  0
 48 65  1  0  0  0
 48120  1  0  0  0
 49 50  1  0  0  0
 49 53  1  0  0  0
 49 64  1  0  0  0
 49121  1  0  0  0
 50 51  1  0  0  0
 50122  1  0  0  0
 50123  1  0  0  0
 51 52  1  0  0  0
 51124  1  0  0  0
 51125  1  0  0  0
 52126  1  0  0  0
 52127  1  0  0  0
 53 54  1  0  0  0
 54 55  2  0  0  0
 54128  1  0  0  0
 55 57  1  0  0  0
 55129  1  0  0  0
 56 69  2  0  0  0
 57 58  2  0  0  0
 57130  1  0  0  0
 58131  1  0  0  0
 59 60  1  0  0  0
 59 61  1  0  0  0
 59 62  1  0  0  0
 60132  1  0  0  0
 60133  1  0  0  0
 60134  1  0  0  0
 61135  1  0  0  0
 61136  1  0  0  0
 61137  1  0  0  0
 62138  1  0  0  0
 62139  1  0  0  0
 62140  1  0  0  0
 63 65  1  0  0  0
 63141  1  0  0  0
 63142  1  0  0  0
 63143  1  0  0  0
 64144  1  0  0  0
 65145  1  0  0  0
 68 82  1  0  0  0
 71 73  2  0  0  0
 71 74  1  0  0  0
 71146  1  0  0  0
 72 73  1  0  0  0
 72 75  2  0  0  0
 72147  1  0  0  0
 73 81  1  0  0  0
 74 76  2  0  0  0
 74 78  1  0  0  0
 75 76  1  0  0  0
 75 80  1  0  0  0
 76 86  1  0  0  0
 77 82  1  0  0  0
 77 83  1  0  0  0
 77 85  2  0  0  0
 78148  1  0  0  0
 78149  1  0  0  0
 78150  1  0  0  0
 79 80  1  0  0  0
 79151  1  0  0  0
 79152  1  0  0  0
 79153  1  0  0  0
 80154  1  0  0  0
 80155  1  0  0  0
 81 84  1  0  0  0
 81156  1  0  0  0
 81157  1  0  0  0
 82158  1  0  0  0
 82159  1  0  0  0
 83 86  1  0  0  0
 83160  1  0  0  0
 83161  1  0  0  0
 84162  1  0  0  0
M  ISO  4   1 100  68 101  82 101  84 100
M  END
> <chiral flag>
0

> <version>
0

> <s_m_source_file>
/data/baiqing/PycharmProjects/Reinvent-master-3.2/result/LINK_invent/BTK/process_docking_weight1_custom_product_contain_oxygen_bond_distance_aromatic_linkinvent_7_9_3/rearranged_h_0122.sdf

> <i_m_source_file_index>
30

> <r_mmod_Potential_Energy-OPLS-2005>
-84.1696243286133

> <r_mmod_Stretch_Energy-OPLS-2005>
41.0256843566895

> <r_mmod_Bend_Energy-OPLS-2005>
98.9989242553711

> <r_mmod_Torsional_Energy-OPLS-2005>
233.721725463867

> <r_mmod_Improper_Torsional_Energy-OPLS-2005>
3.73470687866211

> <r_mmod_Van_der_Waal_Energy-OPLS-2005>
153.30241394043

> <r_mmod_Electrostatic_Energy-OPLS-2005>
-389.777313232422

> <r_mmod_Solvation_Energy-OPLS-2005>
-239.939559936523

> <b_mmod_Minimization_Converged-OPLS-2005>
0

> <r_mmod_RMS_Derivative-OPLS-2005>
1.21395921707153

$$$$
30
                    3D
 Structure written by MMmdl.
166174  0  0  1  0            999 V2000
  -30.7092  -14.4281   20.3883 C   0  0  0  0  0  0
  -30.4027  -12.2178   19.4497 C   0  0  0  0  0  0
  -29.4937  -12.3947   18.2149 C   0  0  0  0  0  0
  -28.0025  -12.3433   18.6096 C   0  0  0  0  0  0
  -27.6416  -13.1992   19.8553 C   0  0  2  0  0  0
  -28.6951  -13.0529   20.9766 C   0  0  0  0  0  0
  -25.2549  -13.8095   20.5710 C   0  0  0  0  0  0
  -24.1804  -13.0421   20.9188 C   0  0  0  0  0  0
  -24.6345  -11.6875   20.8785 C   0  0  0  0  0  0
  -23.9019  -10.4283   21.0451 C   0  0  0  0  0  0
  -24.3613   -9.4188   21.9188 C   0  0  0  0  0  0
  -23.6288   -8.2208   22.0740 C   0  0  0  0  0  0
  -22.4261   -8.0244   21.3525 C   0  0  0  0  0  0
  -21.9887   -9.0228   20.4620 C   0  0  0  0  0  0
  -22.7224  -10.2112   20.3060 C   0  0  0  0  0  0
  -21.6842   -6.0713   22.5276 C   0  0  0  0  0  0
  -21.3998   -6.5620   23.8216 C   0  0  0  0  0  0
  -21.3715   -5.6765   24.9185 C   0  0  0  0  0  0
  -21.6078   -4.3031   24.7216 C   0  0  0  0  0  0
  -21.8835   -3.8122   23.4338 C   0  0  0  0  0  0
  -21.9192   -4.6944   22.3401 C   0  0  0  0  0  0
  -22.7828  -13.5210   21.1870 C   0  0  0  0  0  0
  -22.1653   -4.2145   21.0966 F   0  0  0  0  0  0
  -21.5677   -3.4511   25.7732 F   0  0  0  0  0  0
  -30.0394  -13.2519   20.4199 N   0  0  0  0  0  0
  -26.2932  -12.9224   20.3337 N   0  0  0  0  0  0
  -25.9251  -11.6420   20.5817 N   0  0  0  0  0  0
  -22.0477  -12.8212   22.0437 N   0  0  0  0  0  0
  -25.4317  -15.1822   20.4155 N   0  0  0  0  0  0
  -31.9322  -14.5167   20.4455 O   0  0  0  0  0  0
  -21.6623   -6.8839   21.4224 O   0  0  0  0  0  0
  -22.3525  -14.5527   20.6709 O   0  0  0  0  0  0
  -24.6053  -31.8713   23.2127 C   0  0  0  0  0  0
  -25.8958  -32.4848   23.8409 C   0  0  1  0  0  0
  -27.2324  -27.4703   20.0762 C   0  0  0  0  0  0
  -25.5865  -33.8641   24.2341 N   0  0  0  0  0  0
  -23.3900  -30.4925   21.5549 C   0  0  2  0  0  0
  -24.8382  -28.9628   20.1212 C   0  0  0  0  0  0
  -22.7373  -29.4592   22.5012 C   0  0  0  0  0  0
  -18.0253  -28.1311   22.8452 C   0  0  0  0  0  0
  -24.1485  -36.7301   23.2640 C   0  0  0  0  0  0
  -25.9164  -30.8448   21.3652 C   0  0  0  0  0  0
  -25.9948  -29.4770   20.7180 C   0  0  0  0  0  0
  -27.1891  -28.7295   20.7081 C   0  0  0  0  0  0
  -26.0503  -26.9474   19.5044 C   0  0  0  0  0  0
  -24.8571  -27.6945   19.5198 C   0  0  0  0  0  0
  -23.6000  -29.8257   20.1691 C   0  0  0  0  0  0
  -25.4092  -36.3108   24.0341 C   0  0  1  0  0  0
  -20.5820  -28.3554   23.1343 C   0  0  2  0  0  0
  -20.6727  -26.9315   22.5380 C   0  0  0  0  0  0
  -19.5724  -26.6326   21.5159 C   0  0  0  0  0  0
  -18.1905  -26.7846   22.1587 C   0  0  0  0  0  0
  -19.1491  -28.8742   23.2904 C   0  0  0  0  0  0
  -18.9455  -30.1359   23.8916 C   0  0  0  0  0  0
  -17.6461  -30.6536   24.0526 C   0  0  0  0  0  0
  -25.9007  -34.9477   23.5123 C   0  0  0  0  0  0
  -16.5351  -29.9035   23.6317 C   0  0  0  0  0  0
  -16.7241  -28.6438   23.0346 C   0  0  0  0  0  0
  -26.4415  -31.6624   25.0718 C   0  0  0  0  0  0
  -25.3700  -31.3774   26.1496 C   0  0  0  0  0  0
  -27.0233  -30.3077   24.6059 C   0  0  0  0  0  0
  -27.5988  -32.4359   25.7485 C   0  0  0  0  0  0
  -27.5572  -37.1814   24.8473 C   0  0  0  0  0  0
  -21.4093  -29.2966   22.3810 N   0  0  0  0  0  0
  -26.4288  -37.3774   23.9411 N   0  0  0  0  0  0
  -24.6542  -31.0823   22.1028 N   0  0  0  0  0  0
  -23.4197  -28.8081   23.2949 O   0  0  0  0  0  0
  -28.4307  -26.7958   20.0413 O   0  0  0  0  0  0
  -26.5545  -34.8937   22.4685 O   0  0  0  0  0  0
  -23.5257  -32.1434   23.7547 O   0  0  0  0  0  0
  -29.6817  -19.0132   18.8017 C   0  0  0  0  0  0
  -30.0916  -17.1820   17.2390 C   0  0  0  0  0  0
  -30.0121  -17.6600   18.5673 C   0  0  0  0  0  0
  -29.5010  -19.8882   17.7104 C   0  0  0  0  0  0
  -29.7256  -19.4259   16.3866 C   0  0  0  0  0  0
  -30.0030  -18.0621   16.1434 C   0  0  0  0  0  0
  -30.3623  -16.7293   19.6488 C   0  0  0  0  0  0
  -28.9271  -21.2263   17.8769 C   0  0  0  0  0  0
  -30.0228  -15.4295   19.5961 C   0  0  0  0  0  0
  -29.6022  -22.3747   18.0201 C   0  0  0  0  0  0
  -30.9989  -21.1616   15.0467 C   0  0  0  0  0  0
  -30.3219  -16.2960   14.5109 C   0  0  0  0  0  0
  -29.6825  -20.3822   15.1952 C   0  0  0  0  0  0
  -28.9408  -23.7339   17.8849 C   0  0  0  0  0  0
  -28.7930  -24.5500   19.1755 C   0  0  0  0  0  0
  -28.7191  -26.0514   18.8604 C   0  0  0  0  0  0
  -30.2144  -17.6768   14.8341 O   0  0  0  0  0  0
  -31.4553  -12.2831   19.1659 H   0  0  0  0  0  0
  -30.2622  -11.2265   19.8915 H   0  0  0  0  0  0
  -29.7050  -11.6043   17.4941 H   0  0  0  0  0  0
  -29.7345  -13.3222   17.6980 H   0  0  0  0  0  0
  -27.7621  -11.2959   18.7983 H   0  0  0  0  0  0
  -27.3846  -12.6418   17.7628 H   0  0  0  0  0  0
  -27.6204  -14.2339   19.5338 H   0  0  0  0  0  0
  -28.6308  -12.0631   21.4287 H   0  0  0  0  0  0
  -28.4984  -13.7665   21.7770 H   0  0  0  0  0  0
  -25.2781   -9.5670   22.4750 H   0  0  0  0  0  0
  -24.0054   -7.4591   22.7434 H   0  0  0  0  0  0
  -21.0838   -8.8726   19.8886 H   0  0  0  0  0  0
  -22.3695  -10.9651   19.6167 H   0  0  0  0  0  0
  -21.1940   -7.6111   23.9711 H   0  0  0  0  0  0
  -21.1546   -6.0486   25.9101 H   0  0  0  0  0  0
  -22.0559   -2.7568   23.2825 H   0  0  0  0  0  0
  -22.4089  -11.9894   22.4877 H   0  0  0  0  0  0
  -21.1080  -13.1217   22.2607 H   0  0  0  0  0  0
  -24.6736  -15.8472   20.5271 H   0  0  0  0  0  0
  -26.3029  -15.6162   20.1407 H   0  0  0  0  0  0
  -26.7000  -32.5585   23.1145 H   0  0  0  0  0  0
  -25.0096  -33.9830   25.0544 H   0  0  0  0  0  0
  -22.6755  -31.3075   21.4139 H   0  0  0  0  0  0
  -23.3766  -35.9626   23.3328 H   0  0  0  0  0  0
  -24.3600  -36.8890   22.2060 H   0  0  0  0  0  0
  -23.7238  -37.6518   23.6626 H   0  0  0  0  0  0
  -26.0197  -31.6147   20.6004 H   0  0  0  0  0  0
  -26.8055  -30.9040   21.9786 H   0  0  0  0  0  0
  -28.0869  -29.1186   21.1675 H   0  0  0  0  0  0
  -26.0418  -25.9683   19.0481 H   0  0  0  0  0  0
  -23.9629  -27.2929   19.0690 H   0  0  0  0  0  0
  -23.7100  -30.6020   19.4117 H   0  0  0  0  0  0
  -22.7279  -29.2491   19.8602 H   0  0  0  0  0  0
  -25.1284  -36.1963   25.0833 H   0  0  0  0  0  0
  -20.9918  -28.3050   24.1466 H   0  0  0  0  0  0
  -20.5594  -26.2138   23.3523 H   0  0  0  0  0  0
  -21.6599  -26.7301   22.1202 H   0  0  0  0  0  0
  -19.6902  -25.6257   21.1150 H   0  0  0  0  0  0
  -19.6684  -27.3167   20.6723 H   0  0  0  0  0  0
  -17.4161  -26.6559   21.4025 H   0  0  0  0  0  0
  -18.0361  -25.9971   22.8969 H   0  0  0  0  0  0
  -19.7951  -30.7136   24.2314 H   0  0  0  0  0  0
  -17.5044  -31.6244   24.5088 H   0  0  0  0  0  0
  -15.5355  -30.2966   23.7616 H   0  0  0  0  0  0
  -15.8633  -28.0775   22.7067 H   0  0  0  0  0  0
  -24.5874  -30.7071   25.7913 H   0  0  0  0  0  0
  -24.8854  -32.2939   26.4871 H   0  0  0  0  0  0
  -25.8060  -30.9050   27.0299 H   0  0  0  0  0  0
  -26.2761  -29.6906   24.1031 H   0  0  0  0  0  0
  -27.3965  -29.7238   25.4489 H   0  0  0  0  0  0
  -27.8606  -30.4460   23.9212 H   0  0  0  0  0  0
  -27.2581  -33.3662   26.2044 H   0  0  0  0  0  0
  -28.3783  -32.6916   25.0296 H   0  0  0  0  0  0
  -28.0633  -31.8492   26.5421 H   0  0  0  0  0  0
  -28.2572  -38.0124   24.7486 H   0  0  0  0  0  0
  -28.1072  -36.2636   24.6304 H   0  0  0  0  0  0
  -27.2298  -37.1490   25.8887 H   0  0  0  0  0  0
  -20.9244  -29.8822   21.7181 H   0  0  0  0  0  0
  -26.0187  -38.2849   24.1454 H   0  0  0  0  0  0
  -29.5681  -19.3757   19.8135 H   0  0  0  0  0  0
  -30.3092  -16.1368   17.0651 H   0  0  0  0  0  0
  -31.0199  -17.0915   20.4268 H   0  0  0  0  0  0
  -27.8518  -21.2662   17.7855 H   0  0  0  0  0  0
  -29.3242  -15.1236   18.8420 H   0  0  0  0  0  0
  -30.6755  -22.3654   18.1703 H   0  0  0  0  0  0
  -30.9909  -21.7939   14.1612 H   0  0  0  0  0  0
  -31.8510  -20.4873   14.9759 H   0  0  0  0  0  0
  -31.1756  -21.8082   15.9031 H   0  0  0  0  0  0
  -30.4678  -16.2231   13.4317 H   0  0  0  0  0  0
  -29.4076  -15.7532   14.7562 H   0  0  0  0  0  0
  -31.1752  -15.8100   14.9860 H   0  0  0  0  0  0
  -28.8405  -21.0692   15.2764 H   0  0  0  0  0  0
  -29.4940  -19.8369   14.2706 H   0  0  0  0  0  0
  -27.9621  -23.6213   17.4179 H   0  0  0  0  0  0
  -29.5459  -24.2862   17.1660 H   0  0  0  0  0  0
  -29.6304  -24.3747   19.8499 H   0  0  0  0  0  0
  -27.8953  -24.2310   19.7093 H   0  0  0  0  0  0
  -28.0185  -26.2495   18.0471 H   0  0  0  0  0  0
  -29.6828  -26.3945   18.4804 H   0  0  0  0  0  0
  1 25  1  0  0  0
  1 30  2  0  0  0
  1 79  1  0  0  0
  2  3  1  0  0  0
  2 25  1  0  0  0
  2 88  1  0  0  0
  2 89  1  0  0  0
  3  4  1  0  0  0
  3 90  1  0  0  0
  3 91  1  0  0  0
  4  5  1  0  0  0
  4 92  1  0  0  0
  4 93  1  0  0  0
  5  6  1  0  0  0
  5 26  1  0  0  0
  5 94  1  0  0  0
  6 25  1  0  0  0
  6 95  1  0  0  0
  6 96  1  0  0  0
  7  8  2  0  0  0
  7 26  1  0  0  0
  7 29  1  0  0  0
  8  9  1  0  0  0
  8 22  1  0  0  0
  9 10  1  0  0  0
  9 27  2  0  0  0
 10 11  2  0  0  0
 10 15  1  0  0  0
 11 12  1  0  0  0
 11 97  1  0  0  0
 12 13  2  0  0  0
 12 98  1  0  0  0
 13 14  1  0  0  0
 13 31  1  0  0  0
 14 15  2  0  0  0
 14 99  1  0  0  0
 15100  1  0  0  0
 16 17  2  0  0  0
 16 21  1  0  0  0
 16 31  1  0  0  0
 17 18  1  0  0  0
 17101  1  0  0  0
 18 19  2  0  0  0
 18102  1  0  0  0
 19 20  1  0  0  0
 19 24  1  0  0  0
 20 21  2  0  0  0
 20103  1  0  0  0
 21 23  1  0  0  0
 22 28  1  0  0  0
 22 32  2  0  0  0
 26 27  1  0  0  0
 28104  1  0  0  0
 28105  1  0  0  0
 29106  1  0  0  0
 29107  1  0  0  0
 33 34  1  0  0  0
 33 66  1  0  0  0
 33 70  2  0  0  0
 34 36  1  0  0  0
 34 59  1  0  0  0
 34108  1  0  0  0
 35 44  2  0  0  0
 35 45  1  0  0  0
 35 68  1  0  0  0
 36 56  1  0  0  0
 36109  1  0  0  0
 37 39  1  0  0  0
 37 47  1  0  0  0
 37 66  1  0  0  0
 37110  1  0  0  0
 38 43  2  0  0  0
 38 46  1  0  0  0
 38 47  1  0  0  0
 39 64  1  0  0  0
 39 67  2  0  0  0
 40 52  1  0  0  0
 40 53  2  0  0  0
 40 58  1  0  0  0
 41111  1  0  0  0
 41112  1  0  0  0
 41113  1  0  0  0
 41 48  1  0  0  0
 42 43  1  0  0  0
 42 66  1  0  0  0
 42114  1  0  0  0
 42115  1  0  0  0
 43 44  1  0  0  0
 44116  1  0  0  0
 45 46  2  0  0  0
 45117  1  0  0  0
 46118  1  0  0  0
 47119  1  0  0  0
 47120  1  0  0  0
 48 56  1  0  0  0
 48 65  1  0  0  0
 48121  1  0  0  0
 49 50  1  0  0  0
 49 53  1  0  0  0
 49 64  1  0  0  0
 49122  1  0  0  0
 50 51  1  0  0  0
 50123  1  0  0  0
 50124  1  0  0  0
 51 52  1  0  0  0
 51125  1  0  0  0
 51126  1  0  0  0
 52127  1  0  0  0
 52128  1  0  0  0
 53 54  1  0  0  0
 54 55  2  0  0  0
 54129  1  0  0  0
 55 57  1  0  0  0
 55130  1  0  0  0
 56 69  2  0  0  0
 57 58  2  0  0  0
 57131  1  0  0  0
 58132  1  0  0  0
 59 60  1  0  0  0
 59 61  1  0  0  0
 59 62  1  0  0  0
 60133  1  0  0  0
 60134  1  0  0  0
 60135  1  0  0  0
 61136  1  0  0  0
 61137  1  0  0  0
 61138  1  0  0  0
 62139  1  0  0  0
 62140  1  0  0  0
 62141  1  0  0  0
 63 65  1  0  0  0
 63142  1  0  0  0
 63143  1  0  0  0
 63144  1  0  0  0
 64145  1  0  0  0
 65146  1  0  0  0
 68 86  1  0  0  0
 71 73  2  0  0  0
 71 74  1  0  0  0
 71147  1  0  0  0
 72 73  1  0  0  0
 72 76  2  0  0  0
 72148  1  0  0  0
 73 77  1  0  0  0
 74 75  2  0  0  0
 74 78  1  0  0  0
 75 76  1  0  0  0
 75 83  1  0  0  0
 76 87  1  0  0  0
 77 79  2  0  0  0
 77149  1  0  0  0
 78 80  2  0  0  0
 78150  1  0  0  0
 79151  1  0  0  0
 80 84  1  0  0  0
 80152  1  0  0  0
 81 83  1  0  0  0
 81153  1  0  0  0
 81154  1  0  0  0
 81155  1  0  0  0
 82 87  1  0  0  0
 82156  1  0  0  0
 82157  1  0  0  0
 82158  1  0  0  0
 83159  1  0  0  0
 83160  1  0  0  0
 84 85  1  0  0  0
 84161  1  0  0  0
 84162  1  0  0  0
 85 86  1  0  0  0
 85163  1  0  0  0
 85164  1  0  0  0
 86165  1  0  0  0
 86166  1  0  0  0
M  ISO  4   1 100  68 101  79 100  86 101
M  END
> <chiral flag>
0

> <version>
0

> <s_m_source_file>
/data/baiqing/PycharmProjects/Reinvent-master-3.2/result/LINK_invent/BTK/process_docking_weight1_custom_product_contain_oxygen_bond_distance_aromatic_linkinvent_7_9_3/rearranged_h_0122.sdf

> <i_m_source_file_index>
31

> <r_mmod_Potential_Energy-OPLS-2005>
151.612380981445

> <r_mmod_Stretch_Energy-OPLS-2005>
31.4750423431396

> <r_mmod_Bend_Energy-OPLS-2005>
107.069412231445

> <r_mmod_Torsional_Energy-OPLS-2005>
302.594299316406

> <r_mmod_Improper_Torsional_Energy-OPLS-2005>
30.9704322814941

> <r_mmod_Van_der_Waal_Energy-OPLS-2005>
170.976058959961

> <r_mmod_Electrostatic_Energy-OPLS-2005>
-336.734100341797

> <r_mmod_Solvation_Energy-OPLS-2005>
-194.383117675781

> <b_mmod_Minimization_Converged-OPLS-2005>
0

> <r_mmod_RMS_Derivative-OPLS-2005>
5.63268136978149

$$$$
31
                    3D
 Structure written by MMmdl.
157165  0  0  1  0            999 V2000
  -30.6237  -14.6280   20.5049 C   0  0  0  0  0  0
  -30.4375  -12.3857   19.4513 C   0  0  0  0  0  0
  -29.5064  -12.5095   18.2241 C   0  0  0  0  0  0
  -28.0290  -12.3493   18.6357 C   0  0  0  0  0  0
  -27.6550  -13.2151   19.8680 C   0  0  2  0  0  0
  -28.6992  -13.0582   20.9967 C   0  0  0  0  0  0
  -25.2554  -13.8141   20.5655 C   0  0  0  0  0  0
  -24.1825  -13.0422   20.9183 C   0  0  0  0  0  0
  -24.6398  -11.6895   20.8748 C   0  0  0  0  0  0
  -23.9066  -10.4281   21.0411 C   0  0  0  0  0  0
  -24.3616   -9.4195   21.9190 C   0  0  0  0  0  0
  -23.6286   -8.2234   22.0760 C   0  0  0  0  0  0
  -22.4271   -8.0274   21.3547 C   0  0  0  0  0  0
  -21.9906   -9.0250   20.4654 C   0  0  0  0  0  0
  -22.7236  -10.2128   20.3063 C   0  0  0  0  0  0
  -21.6851   -6.0731   22.5278 C   0  0  0  0  0  0
  -21.4014   -6.5640   23.8211 C   0  0  0  0  0  0
  -21.3659   -5.6794   24.9173 C   0  0  0  0  0  0
  -21.6044   -4.3056   24.7224 C   0  0  0  0  0  0
  -21.8820   -3.8147   23.4345 C   0  0  0  0  0  0
  -21.9191   -4.6960   22.3400 C   0  0  0  0  0  0
  -22.7849  -13.5219   21.1846 C   0  0  0  0  0  0
  -22.1662   -4.2149   21.0975 F   0  0  0  0  0  0
  -21.5629   -3.4540   25.7736 F   0  0  0  0  0  0
  -30.0169  -13.4011   20.4370 N   0  0  0  0  0  0
  -26.3000  -12.9336   20.3341 N   0  0  0  0  0  0
  -25.9333  -11.6494   20.5785 N   0  0  0  0  0  0
  -22.0495  -12.8213   22.0407 N   0  0  0  0  0  0
  -25.4239  -15.1837   20.3984 N   0  0  0  0  0  0
  -31.7783  -14.7944   20.1006 O   0  0  0  0  0  0
  -21.6636   -6.8872   21.4239 O   0  0  0  0  0  0
  -22.3537  -14.5528   20.6699 O   0  0  0  0  0  0
  -24.6249  -31.8615   23.2038 C   0  0  0  0  0  0
  -25.9109  -32.4781   23.8360 C   0  0  1  0  0  0
  -27.2279  -27.3343   20.1091 C   0  0  0  0  0  0
  -25.5932  -33.8582   24.2285 N   0  0  0  0  0  0
  -23.4176  -30.4851   21.5461 C   0  0  2  0  0  0
  -24.8641  -28.9425   20.1123 C   0  0  0  0  0  0
  -22.7471  -29.4628   22.4946 C   0  0  0  0  0  0
  -18.0287  -28.1371   22.8484 C   0  0  0  0  0  0
  -24.1491  -36.7291   23.2639 C   0  0  0  0  0  0
  -25.9577  -30.7962   21.3738 C   0  0  0  0  0  0
  -26.0328  -29.4257   20.7136 C   0  0  0  0  0  0
  -27.2186  -28.6339   20.7003 C   0  0  0  0  0  0
  -26.0324  -26.8988   19.4912 C   0  0  0  0  0  0
  -24.8644  -27.6833   19.4940 C   0  0  0  0  0  0
  -23.6315  -29.8211   20.1610 C   0  0  0  0  0  0
  -25.4113  -36.3081   24.0333 C   0  0  1  0  0  0
  -20.5885  -28.3679   23.1283 C   0  0  2  0  0  0
  -20.6777  -26.9407   22.5404 C   0  0  0  0  0  0
  -19.5749  -26.6377   21.5204 C   0  0  0  0  0  0
  -18.1933  -26.7914   22.1619 C   0  0  0  0  0  0
  -19.1540  -28.8845   23.2873 C   0  0  0  0  0  0
  -18.9464  -30.1448   23.8889 C   0  0  0  0  0  0
  -17.6465  -30.6582   24.0559 C   0  0  0  0  0  0
  -25.9052  -34.9453   23.5107 C   0  0  0  0  0  0
  -16.5355  -29.9079   23.6323 C   0  0  0  0  0  0
  -16.7275  -28.6492   23.0348 C   0  0  0  0  0  0
  -26.4499  -31.6586   25.0725 C   0  0  0  0  0  0
  -25.3734  -31.3724   26.1453 C   0  0  0  0  0  0
  -27.0344  -30.3013   24.6168 C   0  0  0  0  0  0
  -27.6061  -32.4323   25.7495 C   0  0  0  0  0  0
  -27.5582  -37.1799   24.8467 C   0  0  0  0  0  0
  -21.4188  -29.3036   22.3690 N   0  0  0  0  0  0
  -26.4294  -37.3775   23.9414 N   0  0  0  0  0  0
  -24.6850  -31.0646   22.0977 N   0  0  0  0  0  0
  -23.4197  -28.8165   23.3022 O   0  0  0  0  0  0
  -28.3569  -26.5025   20.1497 O   0  0  0  0  0  0
  -26.5619  -34.8921   22.4669 O   0  0  0  0  0  0
  -23.5421  -32.1414   23.7376 O   0  0  0  0  0  0
  -28.8966  -19.3789   21.1430 C   0  0  0  0  0  0
  -30.8380  -17.7809   19.9250 C   0  0  0  0  0  0
  -29.8647  -20.0393   20.3475 C   0  0  0  0  0  0
  -28.8793  -17.9584   21.3299 C   0  0  0  0  0  0
  -29.8699  -17.1170   20.7247 C   0  0  0  0  0  0
  -30.8334  -19.1927   19.7407 C   0  0  0  0  0  0
  -29.9293  -21.5487   20.1514 C   0  0  0  0  0  0
  -29.1117  -22.5625   20.5769 C   0  0  0  0  0  0
  -26.3989  -17.9897   22.0469 C   0  0  0  0  0  0
  -27.7908  -17.3605   22.2264 C   0  0  0  0  0  0
  -29.3693  -24.0989   20.3964 C   0  0  0  0  0  0
  -28.1471  -25.0432   20.0552 C   0  0  0  0  0  0
  -29.8242  -15.6620   20.9160 N   0  0  0  0  0  0
  -31.7982  -19.7421   18.9624 F   0  0  0  0  0  0
  -31.4788  -12.5096   19.1494 H   0  0  0  0  0  0
  -30.3712  -11.3875   19.8863 H   0  0  0  0  0  0
  -29.7690  -11.7615   17.4749 H   0  0  0  0  0  0
  -29.6502  -13.4807   17.7480 H   0  0  0  0  0  0
  -27.8626  -11.2954   18.8624 H   0  0  0  0  0  0
  -27.3752  -12.5860   17.7954 H   0  0  0  0  0  0
  -27.6772  -14.2529   19.5352 H   0  0  0  0  0  0
  -28.7067  -12.0334   21.3713 H   0  0  0  0  0  0
  -28.4437  -13.6820   21.8541 H   0  0  0  0  0  0
  -25.2762   -9.5667   22.4765 H   0  0  0  0  0  0
  -23.9997   -7.4623   22.7480 H   0  0  0  0  0  0
  -21.0839   -8.8768   19.8957 H   0  0  0  0  0  0
  -22.3699  -10.9667   19.6173 H   0  0  0  0  0  0
  -21.2011   -7.6151   23.9713 H   0  0  0  0  0  0
  -21.1483   -6.0526   25.9076 H   0  0  0  0  0  0
  -22.0600   -2.7609   23.2845 H   0  0  0  0  0  0
  -22.4117  -11.9868   22.4781 H   0  0  0  0  0  0
  -21.1128  -13.1259   22.2642 H   0  0  0  0  0  0
  -24.6539  -15.8337   20.5075 H   0  0  0  0  0  0
  -26.2672  -15.6232   20.0546 H   0  0  0  0  0  0
  -26.7178  -32.5460   23.1112 H   0  0  0  0  0  0
  -25.0091  -33.9726   25.0437 H   0  0  0  0  0  0
  -22.7096  -31.3043   21.4040 H   0  0  0  0  0  0
  -23.3754  -35.9623   23.3304 H   0  0  0  0  0  0
  -24.3584  -36.8909   22.2055 H   0  0  0  0  0  0
  -23.7241  -37.6491   23.6659 H   0  0  0  0  0  0
  -26.0891  -31.5631   20.6095 H   0  0  0  0  0  0
  -26.8376  -30.8416   22.0040 H   0  0  0  0  0  0
  -28.1170  -29.0013   21.1766 H   0  0  0  0  0  0
  -25.9702  -25.9385   19.0026 H   0  0  0  0  0  0
  -23.9678  -27.3056   19.0213 H   0  0  0  0  0  0
  -23.7506  -30.5987   19.4054 H   0  0  0  0  0  0
  -22.7518  -29.2502   19.8585 H   0  0  0  0  0  0
  -25.1286  -36.1939   25.0823 H   0  0  0  0  0  0
  -20.9967  -28.3257   24.1408 H   0  0  0  0  0  0
  -20.5671  -26.2294   23.3602 H   0  0  0  0  0  0
  -21.6646  -26.7434   22.1200 H   0  0  0  0  0  0
  -19.6913  -25.6285   21.1238 H   0  0  0  0  0  0
  -19.6688  -27.3189   20.6736 H   0  0  0  0  0  0
  -17.4196  -26.6664   21.4026 H   0  0  0  0  0  0
  -18.0333  -26.0049   22.9012 H   0  0  0  0  0  0
  -19.7949  -30.7256   24.2259 H   0  0  0  0  0  0
  -17.5028  -31.6264   24.5160 H   0  0  0  0  0  0
  -15.5356  -30.2978   23.7656 H   0  0  0  0  0  0
  -15.8674  -28.0814   22.7060 H   0  0  0  0  0  0
  -24.5907  -30.7070   25.7794 H   0  0  0  0  0  0
  -24.8921  -32.2888   26.4880 H   0  0  0  0  0  0
  -25.8060  -30.8906   27.0230 H   0  0  0  0  0  0
  -26.2913  -29.6760   24.1204 H   0  0  0  0  0  0
  -27.4065  -29.7270   25.4665 H   0  0  0  0  0  0
  -27.8773  -30.4302   23.9371 H   0  0  0  0  0  0
  -27.2669  -33.3630   26.2056 H   0  0  0  0  0  0
  -28.3877  -32.6878   25.0325 H   0  0  0  0  0  0
  -28.0716  -31.8454   26.5422 H   0  0  0  0  0  0
  -28.2592  -38.0105   24.7516 H   0  0  0  0  0  0
  -28.1081  -36.2632   24.6282 H   0  0  0  0  0  0
  -27.2299  -37.1434   25.8871 H   0  0  0  0  0  0
  -20.9375  -29.8769   21.6904 H   0  0  0  0  0  0
  -26.0177  -38.2849   24.1415 H   0  0  0  0  0  0
  -28.1560  -19.9900   21.6342 H   0  0  0  0  0  0
  -31.6100  -17.2159   19.4255 H   0  0  0  0  0  0
  -30.8005  -21.8677   19.5964 H   0  0  0  0  0  0
  -28.2205  -22.3103   21.1333 H   0  0  0  0  0  0
  -25.6574  -17.4409   22.6282 H   0  0  0  0  0  0
  -26.0854  -17.9630   21.0026 H   0  0  0  0  0  0
  -26.3627  -19.0245   22.3858 H   0  0  0  0  0  0
  -28.1081  -17.4623   23.2651 H   0  0  0  0  0  0
  -27.6829  -16.2914   22.0525 H   0  0  0  0  0  0
  -30.1537  -24.2411   19.6514 H   0  0  0  0  0  0
  -29.7912  -24.4448   21.3406 H   0  0  0  0  0  0
  -27.3240  -24.7759   20.7209 H   0  0  0  0  0  0
  -27.8242  -24.8009   19.0429 H   0  0  0  0  0  0
  -28.9650  -15.3303   21.3238 H   0  0  0  0  0  0
  1 25  1  0  0  0
  1 30  2  0  0  0
  1 83  1  0  0  0
  2  3  1  0  0  0
  2 25  1  0  0  0
  2 85  1  0  0  0
  2 86  1  0  0  0
  3  4  1  0  0  0
  3 87  1  0  0  0
  3 88  1  0  0  0
  4  5  1  0  0  0
  4 89  1  0  0  0
  4 90  1  0  0  0
  5  6  1  0  0  0
  5 26  1  0  0  0
  5 91  1  0  0  0
  6 25  1  0  0  0
  6 92  1  0  0  0
  6 93  1  0  0  0
  7  8  2  0  0  0
  7 26  1  0  0  0
  7 29  1  0  0  0
  8  9  1  0  0  0
  8 22  1  0  0  0
  9 10  1  0  0  0
  9 27  2  0  0  0
 10 11  2  0  0  0
 10 15  1  0  0  0
 11 12  1  0  0  0
 11 94  1  0  0  0
 12 13  2  0  0  0
 12 95  1  0  0  0
 13 14  1  0  0  0
 13 31  1  0  0  0
 14 15  2  0  0  0
 14 96  1  0  0  0
 15 97  1  0  0  0
 16 17  2  0  0  0
 16 21  1  0  0  0
 16 31  1  0  0  0
 17 18  1  0  0  0
 17 98  1  0  0  0
 18 19  2  0  0  0
 18 99  1  0  0  0
 19 20  1  0  0  0
 19 24  1  0  0  0
 20 21  2  0  0  0
 20100  1  0  0  0
 21 23  1  0  0  0
 22 28  1  0  0  0
 22 32  2  0  0  0
 26 27  1  0  0  0
 28101  1  0  0  0
 28102  1  0  0  0
 29103  1  0  0  0
 29104  1  0  0  0
 33 34  1  0  0  0
 33 66  1  0  0  0
 33 70  2  0  0  0
 34 36  1  0  0  0
 34 59  1  0  0  0
 34105  1  0  0  0
 35 44  2  0  0  0
 35 45  1  0  0  0
 35 68  1  0  0  0
 36 56  1  0  0  0
 36106  1  0  0  0
 37 39  1  0  0  0
 37 47  1  0  0  0
 37 66  1  0  0  0
 37107  1  0  0  0
 38 43  2  0  0  0
 38 46  1  0  0  0
 38 47  1  0  0  0
 39 64  1  0  0  0
 39 67  2  0  0  0
 40 52  1  0  0  0
 40 53  2  0  0  0
 40 58  1  0  0  0
 41108  1  0  0  0
 41109  1  0  0  0
 41110  1  0  0  0
 41 48  1  0  0  0
 42 43  1  0  0  0
 42 66  1  0  0  0
 42111  1  0  0  0
 42112  1  0  0  0
 43 44  1  0  0  0
 44113  1  0  0  0
 45 46  2  0  0  0
 45114  1  0  0  0
 46115  1  0  0  0
 47116  1  0  0  0
 47117  1  0  0  0
 48 56  1  0  0  0
 48 65  1  0  0  0
 48118  1  0  0  0
 49 50  1  0  0  0
 49 53  1  0  0  0
 49 64  1  0  0  0
 49119  1  0  0  0
 50 51  1  0  0  0
 50120  1  0  0  0
 50121  1  0  0  0
 51 52  1  0  0  0
 51122  1  0  0  0
 51123  1  0  0  0
 52124  1  0  0  0
 52125  1  0  0  0
 53 54  1  0  0  0
 54 55  2  0  0  0
 54126  1  0  0  0
 55 57  1  0  0  0
 55127  1  0  0  0
 56 69  2  0  0  0
 57 58  2  0  0  0
 57128  1  0  0  0
 58129  1  0  0  0
 59 60  1  0  0  0
 59 61  1  0  0  0
 59 62  1  0  0  0
 60130  1  0  0  0
 60131  1  0  0  0
 60132  1  0  0  0
 61133  1  0  0  0
 61134  1  0  0  0
 61135  1  0  0  0
 62136  1  0  0  0
 62137  1  0  0  0
 62138  1  0  0  0
 63 65  1  0  0  0
 63139  1  0  0  0
 63140  1  0  0  0
 63141  1  0  0  0
 64142  1  0  0  0
 65143  1  0  0  0
 68 82  1  0  0  0
 71 73  2  0  0  0
 71 74  1  0  0  0
 71144  1  0  0  0
 72 75  1  0  0  0
 72 76  2  0  0  0
 72145  1  0  0  0
 73 76  1  0  0  0
 73 77  1  0  0  0
 74 75  2  0  0  0
 74 80  1  0  0  0
 75 83  1  0  0  0
 76 84  1  0  0  0
 77 78  2  0  0  0
 77146  1  0  0  0
 78 81  1  0  0  0
 78147  1  0  0  0
 79 80  1  0  0  0
 79148  1  0  0  0
 79149  1  0  0  0
 79150  1  0  0  0
 80151  1  0  0  0
 80152  1  0  0  0
 81 82  1  0  0  0
 81153  1  0  0  0
 81154  1  0  0  0
 82155  1  0  0  0
 82156  1  0  0  0
 83157  1  0  0  0
M  ISO  4   1 100  68 101  82 101  83 100
M  END
> <chiral flag>
0

> <version>
0

> <s_m_source_file>
/data/baiqing/PycharmProjects/Reinvent-master-3.2/result/LINK_invent/BTK/process_docking_weight1_custom_product_contain_oxygen_bond_distance_aromatic_linkinvent_7_9_3/rearranged_h_0122.sdf

> <i_m_source_file_index>
32

> <r_mmod_Potential_Energy-OPLS-2005>
55.6189994812012

> <r_mmod_Stretch_Energy-OPLS-2005>
75.131477355957

> <r_mmod_Bend_Energy-OPLS-2005>
129.371978759766

> <r_mmod_Torsional_Energy-OPLS-2005>
210.500411987305

> <r_mmod_Improper_Torsional_Energy-OPLS-2005>
3.96867680549622

> <r_mmod_Van_der_Waal_Energy-OPLS-2005>
147.35285949707

> <r_mmod_Electrostatic_Energy-OPLS-2005>
-355.554168701172

> <r_mmod_Solvation_Energy-OPLS-2005>
-197.750686645508

> <b_mmod_Minimization_Converged-OPLS-2005>
0

> <r_mmod_RMS_Derivative-OPLS-2005>
1.00894391536713

$$$$
32
                    3D
 Structure written by MMmdl.
165173  0  0  1  0            999 V2000
  -30.7672  -14.5007   20.5657 C   0  0  0  0  0  0
  -30.4124  -12.3208   19.4729 C   0  0  0  0  0  0
  -29.5171  -12.5027   18.2332 C   0  0  0  0  0  0
  -28.0311  -12.3836   18.6207 C   0  0  0  0  0  0
  -27.6608  -13.2296   19.8674 C   0  0  2  0  0  0
  -28.6975  -13.0762   21.0033 C   0  0  0  0  0  0
  -25.2582  -13.8247   20.5681 C   0  0  0  0  0  0
  -24.1852  -13.0482   20.9190 C   0  0  0  0  0  0
  -24.6423  -11.6951   20.8695 C   0  0  0  0  0  0
  -23.9093  -10.4318   21.0386 C   0  0  0  0  0  0
  -24.3650   -9.4232   21.9179 C   0  0  0  0  0  0
  -23.6324   -8.2256   22.0748 C   0  0  0  0  0  0
  -22.4305   -8.0287   21.3545 C   0  0  0  0  0  0
  -21.9927   -9.0260   20.4663 C   0  0  0  0  0  0
  -22.7250  -10.2143   20.3054 C   0  0  0  0  0  0
  -21.6868   -6.0719   22.5263 C   0  0  0  0  0  0
  -21.4010   -6.5614   23.8200 C   0  0  0  0  0  0
  -21.3697   -5.6776   24.9179 C   0  0  0  0  0  0
  -21.6057   -4.3031   24.7212 C   0  0  0  0  0  0
  -21.8822   -3.8120   23.4322 C   0  0  0  0  0  0
  -21.9202   -4.6944   22.3382 C   0  0  0  0  0  0
  -22.7852  -13.5223   21.1834 C   0  0  0  0  0  0
  -22.1657   -4.2139   21.0953 F   0  0  0  0  0  0
  -21.5701   -3.4519   25.7718 F   0  0  0  0  0  0
  -30.0371  -13.3506   20.4592 N   0  0  0  0  0  0
  -26.3032  -12.9439   20.3293 N   0  0  0  0  0  0
  -25.9364  -11.6582   20.5688 N   0  0  0  0  0  0
  -22.0477  -12.8240   22.0406 N   0  0  0  0  0  0
  -25.4298  -15.1991   20.4157 N   0  0  0  0  0  0
  -31.8635  -14.6004   20.0062 O   0  0  0  0  0  0
  -21.6653   -6.8892   21.4236 O   0  0  0  0  0  0
  -22.3503  -14.5494   20.6650 O   0  0  0  0  0  0
  -24.6114  -31.8685   23.2129 C   0  0  0  0  0  0
  -25.9004  -32.4839   23.8416 C   0  0  1  0  0  0
  -27.2365  -27.4534   20.0952 C   0  0  0  0  0  0
  -25.5851  -33.8653   24.2336 N   0  0  0  0  0  0
  -23.4004  -30.4931   21.5527 C   0  0  2  0  0  0
  -24.8489  -28.9684   20.1087 C   0  0  0  0  0  0
  -22.7387  -29.4664   22.4991 C   0  0  0  0  0  0
  -18.0252  -28.1391   22.8508 C   0  0  0  0  0  0
  -24.1465  -36.7335   23.2637 C   0  0  0  0  0  0
  -25.9252  -30.8426   21.3615 C   0  0  0  0  0  0
  -26.0053  -29.4757   20.7137 C   0  0  0  0  0  0
  -27.1966  -28.7202   20.7155 C   0  0  0  0  0  0
  -26.0605  -26.9508   19.4983 C   0  0  0  0  0  0
  -24.8690  -27.7018   19.4974 C   0  0  0  0  0  0
  -23.6096  -29.8293   20.1638 C   0  0  0  0  0  0
  -25.4095  -36.3143   24.0343 C   0  0  1  0  0  0
  -20.5846  -28.3662   23.1326 C   0  0  2  0  0  0
  -20.6757  -26.9394   22.5445 C   0  0  0  0  0  0
  -19.5744  -26.6396   21.5233 C   0  0  0  0  0  0
  -18.1908  -26.7933   22.1628 C   0  0  0  0  0  0
  -19.1509  -28.8845   23.2925 C   0  0  0  0  0  0
  -18.9444  -30.1444   23.8923 C   0  0  0  0  0  0
  -17.6450  -30.6603   24.0569 C   0  0  0  0  0  0
  -25.9029  -34.9501   23.5147 C   0  0  0  0  0  0
  -16.5344  -29.9113   23.6312 C   0  0  0  0  0  0
  -16.7237  -28.6538   23.0333 C   0  0  0  0  0  0
  -26.4449  -31.6593   25.0704 C   0  0  0  0  0  0
  -25.3737  -31.3664   26.1451 C   0  0  0  0  0  0
  -27.0265  -30.3032   24.6048 C   0  0  0  0  0  0
  -27.6037  -32.4274   25.7483 C   0  0  0  0  0  0
  -27.5573  -37.1829   24.8461 C   0  0  0  0  0  0
  -21.4108  -29.3031   22.3726 N   0  0  0  0  0  0
  -26.4284  -37.3827   23.9419 N   0  0  0  0  0  0
  -24.6659  -31.0781   22.1037 N   0  0  0  0  0  0
  -23.4167  -28.8217   23.3017 O   0  0  0  0  0  0
  -28.3907  -26.7026   20.1518 O   0  0  0  0  0  0
  -26.5625  -34.8925   22.4716 O   0  0  0  0  0  0
  -23.5317  -32.1439   23.7504 O   0  0  0  0  0  0
  -29.5523  -19.2507   20.5920 C   0  0  0  0  0  0
  -30.7795  -18.5777   22.5787 C   0  0  0  0  0  0
  -30.1411  -20.9186   22.2611 C   0  0  0  0  0  0
  -30.1998  -18.2342   21.3376 C   0  0  0  0  0  0
  -29.4942  -20.5904   21.0485 C   0  0  0  0  0  0
  -30.7763  -19.9222   23.0275 C   0  0  0  0  0  0
  -30.3973  -16.8855   20.7495 C   0  0  0  0  0  0
  -28.7905  -21.6060   20.2340 C   0  0  0  0  0  0
  -30.2339  -15.6517   21.3006 C   0  0  0  0  0  0
  -28.8165  -22.9520   20.3659 C   0  0  0  0  0  0
  -31.4775  -20.3122   24.3180 C   0  0  0  0  0  0
  -30.0803  -24.1402   18.0891 C   0  0  0  0  0  0
  -27.8971  -24.8387   17.1574 C   0  0  0  0  0  0
  -27.9764  -23.8950   19.5015 C   0  0  0  0  0  0
  -28.9751  -26.2743   18.9219 C   0  0  0  0  0  0
  -28.7296  -24.7933   18.4617 C   0  0  0  0  0  0
  -31.4664  -12.3601   19.1927 H   0  0  0  0  0  0
  -30.2681  -11.3293   19.9033 H   0  0  0  0  0  0
  -29.7692  -11.7584   17.4777 H   0  0  0  0  0  0
  -29.7039  -13.4781   17.7821 H   0  0  0  0  0  0
  -27.8278  -11.3287   18.8162 H   0  0  0  0  0  0
  -27.4052  -12.6760   17.7756 H   0  0  0  0  0  0
  -27.6851  -14.2703   19.5492 H   0  0  0  0  0  0
  -28.6701  -12.0610   21.3957 H   0  0  0  0  0  0
  -28.4459  -13.7332   21.8372 H   0  0  0  0  0  0
  -25.2821   -9.5716   22.4729 H   0  0  0  0  0  0
  -24.0093   -7.4622   22.7392 H   0  0  0  0  0  0
  -21.0901   -8.8752   19.8920 H   0  0  0  0  0  0
  -22.3737  -10.9678   19.6144 H   0  0  0  0  0  0
  -21.1927   -7.6110   23.9712 H   0  0  0  0  0  0
  -21.1577   -6.0491   25.9104 H   0  0  0  0  0  0
  -22.0571   -2.7574   23.2808 H   0  0  0  0  0  0
  -22.4064  -11.9980   22.4981 H   0  0  0  0  0  0
  -21.1040  -13.1263   22.2423 H   0  0  0  0  0  0
  -24.6743  -15.8652   20.5414 H   0  0  0  0  0  0
  -26.3050  -15.6387   20.1610 H   0  0  0  0  0  0
  -26.7060  -32.5564   23.1196 H   0  0  0  0  0  0
  -24.9940  -33.9813   25.0428 H   0  0  0  0  0  0
  -22.6883  -31.3098   21.4128 H   0  0  0  0  0  0
  -23.3746  -35.9650   23.3287 H   0  0  0  0  0  0
  -24.3550  -36.8964   22.2049 H   0  0  0  0  0  0
  -23.7176  -37.6521   23.6654 H   0  0  0  0  0  0
  -26.0146  -31.6035   20.5876 H   0  0  0  0  0  0
  -26.8252  -30.9128   21.9620 H   0  0  0  0  0  0
  -28.0874  -29.1074   21.1934 H   0  0  0  0  0  0
  -26.0360  -25.9646   19.0717 H   0  0  0  0  0  0
  -23.9771  -27.2954   19.0399 H   0  0  0  0  0  0
  -23.7161  -30.6070   19.4076 H   0  0  0  0  0  0
  -22.7366  -29.2434   19.8651 H   0  0  0  0  0  0
  -25.1256  -36.2046   25.0844 H   0  0  0  0  0  0
  -20.9927  -28.3232   24.1445 H   0  0  0  0  0  0
  -20.5635  -26.2268   23.3634 H   0  0  0  0  0  0
  -21.6639  -26.7435   22.1250 H   0  0  0  0  0  0
  -19.6918  -25.6314   21.1237 H   0  0  0  0  0  0
  -19.6699  -27.3228   20.6776 H   0  0  0  0  0  0
  -17.4191  -26.6671   21.4008 H   0  0  0  0  0  0
  -18.0296  -26.0069   22.9014 H   0  0  0  0  0  0
  -19.7933  -30.7255   24.2291 H   0  0  0  0  0  0
  -17.5010  -31.6264   24.5198 H   0  0  0  0  0  0
  -15.5342  -30.3043   23.7598 H   0  0  0  0  0  0
  -15.8629  -28.0857   22.7016 H   0  0  0  0  0  0
  -24.6005  -30.6885   25.7810 H   0  0  0  0  0  0
  -24.8824  -32.2791   26.4816 H   0  0  0  0  0  0
  -25.8136  -30.8946   27.0249 H   0  0  0  0  0  0
  -26.2808  -29.6809   24.1098 H   0  0  0  0  0  0
  -27.4016  -29.7214   25.4476 H   0  0  0  0  0  0
  -27.8630  -30.4299   23.9188 H   0  0  0  0  0  0
  -27.2700  -33.3610   26.2019 H   0  0  0  0  0  0
  -28.3926  -32.6756   25.0372 H   0  0  0  0  0  0
  -28.0619  -31.8404   26.5454 H   0  0  0  0  0  0
  -28.2611  -38.0105   24.7546 H   0  0  0  0  0  0
  -28.1061  -36.2657   24.6284 H   0  0  0  0  0  0
  -27.2294  -37.1473   25.8859 H   0  0  0  0  0  0
  -20.9233  -29.8756   21.6978 H   0  0  0  0  0  0
  -26.0182  -38.2900   24.1485 H   0  0  0  0  0  0
  -29.1019  -19.0001   19.6395 H   0  0  0  0  0  0
  -31.2989  -17.8223   23.1538 H   0  0  0  0  0  0
  -30.1507  -21.9404   22.6202 H   0  0  0  0  0  0
  -30.8143  -16.9319   19.7497 H   0  0  0  0  0  0
  -28.1643  -21.1976   19.4545 H   0  0  0  0  0  0
  -29.7911  -15.5335   22.2755 H   0  0  0  0  0  0
  -29.4366  -23.4301   21.1119 H   0  0  0  0  0  0
  -31.7244  -19.4472   24.9327 H   0  0  0  0  0  0
  -30.8511  -20.9768   24.9127 H   0  0  0  0  0  0
  -32.4091  -20.8392   24.1053 H   0  0  0  0  0  0
  -29.9552  -23.0764   17.8698 H   0  0  0  0  0  0
  -30.8104  -24.2231   18.8986 H   0  0  0  0  0  0
  -30.5291  -24.6024   17.2120 H   0  0  0  0  0  0
  -27.8059  -23.8476   16.7111 H   0  0  0  0  0  0
  -28.3572  -25.4854   16.4092 H   0  0  0  0  0  0
  -26.8862  -25.2122   17.3172 H   0  0  0  0  0  0
  -27.3578  -24.4871   20.1710 H   0  0  0  0  0  0
  -27.2643  -23.2652   18.9687 H   0  0  0  0  0  0
  -28.7284  -26.9805   18.1266 H   0  0  0  0  0  0
  -30.0447  -26.4272   19.0736 H   0  0  0  0  0  0
  1 25  1  0  0  0
  1 30  2  0  0  0
  1 79  1  0  0  0
  2  3  1  0  0  0
  2 25  1  0  0  0
  2 87  1  0  0  0
  2 88  1  0  0  0
  3  4  1  0  0  0
  3 89  1  0  0  0
  3 90  1  0  0  0
  4  5  1  0  0  0
  4 91  1  0  0  0
  4 92  1  0  0  0
  5  6  1  0  0  0
  5 26  1  0  0  0
  5 93  1  0  0  0
  6 25  1  0  0  0
  6 94  1  0  0  0
  6 95  1  0  0  0
  7  8  2  0  0  0
  7 26  1  0  0  0
  7 29  1  0  0  0
  8  9  1  0  0  0
  8 22  1  0  0  0
  9 10  1  0  0  0
  9 27  2  0  0  0
 10 11  2  0  0  0
 10 15  1  0  0  0
 11 12  1  0  0  0
 11 96  1  0  0  0
 12 13  2  0  0  0
 12 97  1  0  0  0
 13 14  1  0  0  0
 13 31  1  0  0  0
 14 15  2  0  0  0
 14 98  1  0  0  0
 15 99  1  0  0  0
 16 17  2  0  0  0
 16 21  1  0  0  0
 16 31  1  0  0  0
 17 18  1  0  0  0
 17100  1  0  0  0
 18 19  2  0  0  0
 18101  1  0  0  0
 19 20  1  0  0  0
 19 24  1  0  0  0
 20 21  2  0  0  0
 20102  1  0  0  0
 21 23  1  0  0  0
 22 28  1  0  0  0
 22 32  2  0  0  0
 26 27  1  0  0  0
 28103  1  0  0  0
 28104  1  0  0  0
 29105  1  0  0  0
 29106  1  0  0  0
 33 34  1  0  0  0
 33 66  1  0  0  0
 33 70  2  0  0  0
 34 36  1  0  0  0
 34 59  1  0  0  0
 34107  1  0  0  0
 35 44  2  0  0  0
 35 45  1  0  0  0
 35 68  1  0  0  0
 36 56  1  0  0  0
 36108  1  0  0  0
 37 39  1  0  0  0
 37 47  1  0  0  0
 37 66  1  0  0  0
 37109  1  0  0  0
 38 43  2  0  0  0
 38 46  1  0  0  0
 38 47  1  0  0  0
 39 64  1  0  0  0
 39 67  2  0  0  0
 40 52  1  0  0  0
 40 53  2  0  0  0
 40 58  1  0  0  0
 41110  1  0  0  0
 41111  1  0  0  0
 41112  1  0  0  0
 41 48  1  0  0  0
 42 43  1  0  0  0
 42 66  1  0  0  0
 42113  1  0  0  0
 42114  1  0  0  0
 43 44  1  0  0  0
 44115  1  0  0  0
 45 46  2  0  0  0
 45116  1  0  0  0
 46117  1  0  0  0
 47118  1  0  0  0
 47119  1  0  0  0
 48 56  1  0  0  0
 48 65  1  0  0  0
 48120  1  0  0  0
 49 50  1  0  0  0
 49 53  1  0  0  0
 49 64  1  0  0  0
 49121  1  0  0  0
 50 51  1  0  0  0
 50122  1  0  0  0
 50123  1  0  0  0
 51 52  1  0  0  0
 51124  1  0  0  0
 51125  1  0  0  0
 52126  1  0  0  0
 52127  1  0  0  0
 53 54  1  0  0  0
 54 55  2  0  0  0
 54128  1  0  0  0
 55 57  1  0  0  0
 55129  1  0  0  0
 56 69  2  0  0  0
 57 58  2  0  0  0
 57130  1  0  0  0
 58131  1  0  0  0
 59 60  1  0  0  0
 59 61  1  0  0  0
 59 62  1  0  0  0
 60132  1  0  0  0
 60133  1  0  0  0
 60134  1  0  0  0
 61135  1  0  0  0
 61136  1  0  0  0
 61137  1  0  0  0
 62138  1  0  0  0
 62139  1  0  0  0
 62140  1  0  0  0
 63 65  1  0  0  0
 63141  1  0  0  0
 63142  1  0  0  0
 63143  1  0  0  0
 64144  1  0  0  0
 65145  1  0  0  0
 68 85  1  0  0  0
 71 74  2  0  0  0
 71 75  1  0  0  0
 71146  1  0  0  0
 72 74  1  0  0  0
 72 76  2  0  0  0
 72147  1  0  0  0
 73 75  2  0  0  0
 73 76  1  0  0  0
 73148  1  0  0  0
 74 77  1  0  0  0
 75 78  1  0  0  0
 76 81  1  0  0  0
 77 79  2  0  0  0
 77149  1  0  0  0
 78 80  2  0  0  0
 78150  1  0  0  0
 79151  1  0  0  0
 80 84  1  0  0  0
 80152  1  0  0  0
 81153  1  0  0  0
 81154  1  0  0  0
 81155  1  0  0  0
 82156  1  0  0  0
 82157  1  0  0  0
 82158  1  0  0  0
 82 86  1  0  0  0
 83 86  1  0  0  0
 83159  1  0  0  0
 83160  1  0  0  0
 83161  1  0  0  0
 84 86  1  0  0  0
 84162  1  0  0  0
 84163  1  0  0  0
 85 86  1  0  0  0
 85164  1  0  0  0
 85165  1  0  0  0
M  ISO  4   1 100  68 101  79 100  85 101
M  END
> <chiral flag>
0

> <version>
0

> <s_m_source_file>
/data/baiqing/PycharmProjects/Reinvent-master-3.2/result/LINK_invent/BTK/process_docking_weight1_custom_product_contain_oxygen_bond_distance_aromatic_linkinvent_7_9_3/rearranged_h_0122.sdf

> <i_m_source_file_index>
33

> <r_mmod_Potential_Energy-OPLS-2005>
82.3292236328125

> <r_mmod_Stretch_Energy-OPLS-2005>
41.721736907959

> <r_mmod_Bend_Energy-OPLS-2005>
125.232444763184

> <r_mmod_Torsional_Energy-OPLS-2005>
251.633438110352

> <r_mmod_Improper_Torsional_Energy-OPLS-2005>
4.37251329421997

> <r_mmod_Van_der_Waal_Energy-OPLS-2005>
159.776550292969

> <r_mmod_Electrostatic_Energy-OPLS-2005>
-337.735778808594

> <r_mmod_Solvation_Energy-OPLS-2005>
-180.88151550293

> <b_mmod_Minimization_Converged-OPLS-2005>
0

> <r_mmod_RMS_Derivative-OPLS-2005>
6.07743167877197

$$$$
33
                    3D
 Structure written by MMmdl.
160168  0  0  1  0            999 V2000
  -30.6150  -14.7259   20.5864 C   0  0  0  0  0  0
  -30.4382  -12.4787   19.4635 C   0  0  0  0  0  0
  -29.5073  -12.5595   18.2321 C   0  0  0  0  0  0
  -28.0310  -12.3749   18.6361 C   0  0  0  0  0  0
  -27.6527  -13.2262   19.8773 C   0  0  2  0  0  0
  -28.7029  -13.0484   20.9952 C   0  0  0  0  0  0
  -25.2460  -13.8128   20.5459 C   0  0  0  0  0  0
  -24.1790  -13.0410   20.9131 C   0  0  0  0  0  0
  -24.6409  -11.6896   20.8766 C   0  0  0  0  0  0
  -23.9084  -10.4282   21.0430 C   0  0  0  0  0  0
  -24.3623   -9.4197   21.9215 C   0  0  0  0  0  0
  -23.6285   -8.2240   22.0770 C   0  0  0  0  0  0
  -22.4273   -8.0283   21.3548 C   0  0  0  0  0  0
  -21.9919   -9.0264   20.4655 C   0  0  0  0  0  0
  -22.7255  -10.2138   20.3070 C   0  0  0  0  0  0
  -21.6850   -6.0740   22.5274 C   0  0  0  0  0  0
  -21.4021   -6.5647   23.8212 C   0  0  0  0  0  0
  -21.3656   -5.6792   24.9172 C   0  0  0  0  0  0
  -21.6032   -4.3054   24.7216 C   0  0  0  0  0  0
  -21.8819   -3.8151   23.4340 C   0  0  0  0  0  0
  -21.9198   -4.6969   22.3399 C   0  0  0  0  0  0
  -22.7817  -13.5219   21.1816 C   0  0  0  0  0  0
  -22.1660   -4.2161   21.0972 F   0  0  0  0  0  0
  -21.5624   -3.4535   25.7733 F   0  0  0  0  0  0
  -29.9944  -13.4904   20.4611 N   0  0  0  0  0  0
  -26.2983  -12.9371   20.3382 N   0  0  0  0  0  0
  -25.9363  -11.6519   20.5856 N   0  0  0  0  0  0
  -22.0468  -12.8215   22.0383 N   0  0  0  0  0  0
  -25.3994  -15.1792   20.3444 N   0  0  0  0  0  0
  -31.6927  -14.9060   20.0043 O   0  0  0  0  0  0
  -21.6631   -6.8880   21.4236 O   0  0  0  0  0  0
  -22.3507  -14.5544   20.6703 O   0  0  0  0  0  0
  -24.6336  -31.8537   23.1996 C   0  0  0  0  0  0
  -25.9152  -32.4750   23.8342 C   0  0  1  0  0  0
  -27.2141  -27.2445   20.1296 C   0  0  0  0  0  0
  -25.5928  -33.8552   24.2249 N   0  0  0  0  0  0
  -23.4306  -30.4794   21.5429 C   0  0  2  0  0  0
  -24.8759  -28.9274   20.1111 C   0  0  0  0  0  0
  -22.7515  -29.4601   22.4903 C   0  0  0  0  0  0
  -18.0300  -28.1386   22.8478 C   0  0  0  0  0  0
  -24.1486  -36.7274   23.2644 C   0  0  0  0  0  0
  -25.9797  -30.7614   21.3823 C   0  0  0  0  0  0
  -26.0521  -29.3835   20.7229 C   0  0  0  0  0  0
  -27.2243  -28.5563   20.7207 C   0  0  0  0  0  0
  -26.0215  -26.8756   19.4664 C   0  0  0  0  0  0
  -24.8689  -27.6813   19.4700 C   0  0  0  0  0  0
  -23.6489  -29.8181   20.1586 C   0  0  0  0  0  0
  -25.4106  -36.3064   24.0336 C   0  0  1  0  0  0
  -20.5904  -28.3698   23.1259 C   0  0  2  0  0  0
  -20.6786  -26.9405   22.5413 C   0  0  0  0  0  0
  -19.5761  -26.6372   21.5217 C   0  0  0  0  0  0
  -18.1938  -26.7931   22.1607 C   0  0  0  0  0  0
  -19.1553  -28.8859   23.2872 C   0  0  0  0  0  0
  -18.9480  -30.1458   23.8894 C   0  0  0  0  0  0
  -17.6475  -30.6584   24.0568 C   0  0  0  0  0  0
  -25.9050  -34.9439   23.5098 C   0  0  0  0  0  0
  -16.5365  -29.9080   23.6335 C   0  0  0  0  0  0
  -16.7288  -28.6497   23.0347 C   0  0  0  0  0  0
  -26.4493  -31.6585   25.0746 C   0  0  0  0  0  0
  -25.3684  -31.3747   26.1452 C   0  0  0  0  0  0
  -27.0343  -30.3003   24.6247 C   0  0  0  0  0  0
  -27.6064  -32.4317   25.7502 C   0  0  0  0  0  0
  -27.5576  -37.1782   24.8459 C   0  0  0  0  0  0
  -21.4217  -29.3051   22.3652 N   0  0  0  0  0  0
  -26.4270  -37.3770   23.9426 N   0  0  0  0  0  0
  -24.7010  -31.0485   22.0978 N   0  0  0  0  0  0
  -23.4209  -28.8132   23.3005 O   0  0  0  0  0  0
  -28.2802  -26.3092   20.1848 O   0  0  0  0  0  0
  -26.5636  -34.8920   22.4672 O   0  0  0  0  0  0
  -23.5473  -32.1352   23.7278 O   0  0  0  0  0  0
  -29.6880  -18.4204   20.8165 C   0  0  0  0  0  0
  -27.5503  -19.4976   21.1707 C   0  0  0  0  0  0
  -29.2232  -17.1318   21.3447 C   0  0  0  0  0  0
  -27.0548  -18.3077   21.7222 C   0  0  0  0  0  0
  -27.9006  -17.1787   21.9198 C   0  0  0  0  0  0
  -28.8947  -19.6536   20.7853 C   0  0  0  0  0  0
  -30.1274  -15.8589   21.6206 C   0  0  0  0  0  0
  -28.9418  -23.6575   20.2905 C   0  0  0  0  0  0
  -25.5973  -18.3397   22.1768 C   0  0  0  0  0  0
  -27.4275  -16.5601   24.3640 C   0  0  0  0  0  0
  -27.3806  -16.1095   22.8963 C   0  0  0  0  0  0
  -27.8977  -24.8685   20.4655 C   0  0  0  0  0  0
  -28.4329  -22.1567   20.5785 C   0  0  0  0  0  0
  -30.5574  -15.7396   22.8080 N   0  0  0  0  0  0
  -30.1056  -23.8731   19.9342 O   0  0  0  0  0  0
  -29.3535  -20.9684   20.4272 O   0  0  0  0  0  0
  -31.4744  -12.6232   19.1567 H   0  0  0  0  0  0
  -30.4075  -11.4776   19.8963 H   0  0  0  0  0  0
  -29.7902  -11.8100   17.4923 H   0  0  0  0  0  0
  -29.6302  -13.5296   17.7483 H   0  0  0  0  0  0
  -27.8722  -11.3177   18.8509 H   0  0  0  0  0  0
  -27.3772  -12.6157   17.7963 H   0  0  0  0  0  0
  -27.6765  -14.2694   19.5630 H   0  0  0  0  0  0
  -28.7522  -11.9998   21.2918 H   0  0  0  0  0  0
  -28.4397  -13.5594   21.9038 H   0  0  0  0  0  0
  -25.2765   -9.5672   22.4796 H   0  0  0  0  0  0
  -23.9988   -7.4632   22.7495 H   0  0  0  0  0  0
  -21.0849   -8.8792   19.8956 H   0  0  0  0  0  0
  -22.3724  -10.9686   19.6176 H   0  0  0  0  0  0
  -21.2011   -7.6156   23.9719 H   0  0  0  0  0  0
  -21.1470   -6.0524   25.9077 H   0  0  0  0  0  0
  -22.0598   -2.7616   23.2834 H   0  0  0  0  0  0
  -22.4061  -11.9847   22.4732 H   0  0  0  0  0  0
  -21.1108  -13.1278   22.2635 H   0  0  0  0  0  0
  -24.6179  -15.8184   20.4177 H   0  0  0  0  0  0
  -26.2532  -15.6317   20.0450 H   0  0  0  0  0  0
  -26.7221  -32.5385   23.1078 H   0  0  0  0  0  0
  -25.0093  -33.9694   25.0401 H   0  0  0  0  0  0
  -22.7296  -31.3043   21.3975 H   0  0  0  0  0  0
  -23.3769  -35.9589   23.3285 H   0  0  0  0  0  0
  -24.3585  -36.8909   22.2062 H   0  0  0  0  0  0
  -23.7219  -37.6457   23.6678 H   0  0  0  0  0  0
  -26.1221  -31.5201   20.6116 H   0  0  0  0  0  0
  -26.8569  -30.8064   22.0162 H   0  0  0  0  0  0
  -28.1213  -28.8971   21.2181 H   0  0  0  0  0  0
  -25.9463  -25.9411   18.9316 H   0  0  0  0  0  0
  -23.9764  -27.3313   18.9690 H   0  0  0  0  0  0
  -23.7750  -30.5981   19.4063 H   0  0  0  0  0  0
  -22.7642  -29.2574   19.8505 H   0  0  0  0  0  0
  -25.1281  -36.1901   25.0825 H   0  0  0  0  0  0
  -21.0006  -28.3278   24.1376 H   0  0  0  0  0  0
  -20.5663  -26.2317   23.3630 H   0  0  0  0  0  0
  -21.6654  -26.7405   22.1221 H   0  0  0  0  0  0
  -19.6942  -25.6289   21.1238 H   0  0  0  0  0  0
  -19.6719  -27.3197   20.6768 H   0  0  0  0  0  0
  -17.4219  -26.6722   21.3987 H   0  0  0  0  0  0
  -18.0300  -26.0056   22.8976 H   0  0  0  0  0  0
  -19.7960  -30.7278   24.2248 H   0  0  0  0  0  0
  -17.5028  -31.6258   24.5184 H   0  0  0  0  0  0
  -15.5364  -30.2979   23.7662 H   0  0  0  0  0  0
  -15.8684  -28.0816   22.7056 H   0  0  0  0  0  0
  -24.5988  -30.6914   25.7823 H   0  0  0  0  0  0
  -24.8701  -32.2894   26.4681 H   0  0  0  0  0  0
  -25.7989  -30.9134   27.0350 H   0  0  0  0  0  0
  -26.2940  -29.6749   24.1239 H   0  0  0  0  0  0
  -27.3996  -29.7261   25.4774 H   0  0  0  0  0  0
  -27.8825  -30.4285   23.9520 H   0  0  0  0  0  0
  -27.2730  -33.3690   26.1964 H   0  0  0  0  0  0
  -28.3921  -32.6740   25.0331 H   0  0  0  0  0  0
  -28.0668  -31.8491   26.5487 H   0  0  0  0  0  0
  -28.2566  -38.0105   24.7530 H   0  0  0  0  0  0
  -28.1093  -36.2636   24.6224 H   0  0  0  0  0  0
  -27.2315  -37.1357   25.8868 H   0  0  0  0  0  0
  -20.9404  -29.8784   21.6860 H   0  0  0  0  0  0
  -26.0148  -38.2838   24.1450 H   0  0  0  0  0  0
  -30.7196  -18.4823   20.5024 H   0  0  0  0  0  0
  -26.8584  -20.3242   21.1224 H   0  0  0  0  0  0
  -25.0233  -19.0570   21.5897 H   0  0  0  0  0  0
  -25.5203  -18.6515   23.2171 H   0  0  0  0  0  0
  -25.0865  -17.3869   22.0576 H   0  0  0  0  0  0
  -27.0466  -15.7728   25.0144 H   0  0  0  0  0  0
  -26.8289  -17.4495   24.5520 H   0  0  0  0  0  0
  -28.4475  -16.7788   24.6773 H   0  0  0  0  0  0
  -27.9528  -15.2034   22.8646 H   0  0  0  0  0  0
  -26.3720  -15.7934   22.6468 H   0  0  0  0  0  0
  -27.5490  -24.8272   21.4967 H   0  0  0  0  0  0
  -27.0438  -24.5716   19.8634 H   0  0  0  0  0  0
  -27.5766  -22.0011   19.9221 H   0  0  0  0  0  0
  -28.0465  -22.1577   21.5980 H   0  0  0  0  0  0
  -30.2129  -16.4989   23.3830 H   0  0  0  0  0  0
  1 25  1  0  0  0
  1 30  2  0  0  0
  1 77  1  0  0  0
  2  3  1  0  0  0
  2 25  1  0  0  0
  2 87  1  0  0  0
  2 88  1  0  0  0
  3  4  1  0  0  0
  3 89  1  0  0  0
  3 90  1  0  0  0
  4  5  1  0  0  0
  4 91  1  0  0  0
  4 92  1  0  0  0
  5  6  1  0  0  0
  5 26  1  0  0  0
  5 93  1  0  0  0
  6 25  1  0  0  0
  6 94  1  0  0  0
  6 95  1  0  0  0
  7  8  2  0  0  0
  7 26  1  0  0  0
  7 29  1  0  0  0
  8  9  1  0  0  0
  8 22  1  0  0  0
  9 10  1  0  0  0
  9 27  2  0  0  0
 10 11  2  0  0  0
 10 15  1  0  0  0
 11 12  1  0  0  0
 11 96  1  0  0  0
 12 13  2  0  0  0
 12 97  1  0  0  0
 13 14  1  0  0  0
 13 31  1  0  0  0
 14 15  2  0  0  0
 14 98  1  0  0  0
 15 99  1  0  0  0
 16 17  2  0  0  0
 16 21  1  0  0  0
 16 31  1  0  0  0
 17 18  1  0  0  0
 17100  1  0  0  0
 18 19  2  0  0  0
 18101  1  0  0  0
 19 20  1  0  0  0
 19 24  1  0  0  0
 20 21  2  0  0  0
 20102  1  0  0  0
 21 23  1  0  0  0
 22 28  1  0  0  0
 22 32  2  0  0  0
 26 27  1  0  0  0
 28103  1  0  0  0
 28104  1  0  0  0
 29105  1  0  0  0
 29106  1  0  0  0
 33 34  1  0  0  0
 33 66  1  0  0  0
 33 70  2  0  0  0
 34 36  1  0  0  0
 34 59  1  0  0  0
 34107  1  0  0  0
 35 44  2  0  0  0
 35 45  1  0  0  0
 35 68  1  0  0  0
 36 56  1  0  0  0
 36108  1  0  0  0
 37 39  1  0  0  0
 37 47  1  0  0  0
 37 66  1  0  0  0
 37109  1  0  0  0
 38 43  2  0  0  0
 38 46  1  0  0  0
 38 47  1  0  0  0
 39 64  1  0  0  0
 39 67  2  0  0  0
 40 52  1  0  0  0
 40 53  2  0  0  0
 40 58  1  0  0  0
 41110  1  0  0  0
 41111  1  0  0  0
 41112  1  0  0  0
 41 48  1  0  0  0
 42 43  1  0  0  0
 42 66  1  0  0  0
 42113  1  0  0  0
 42114  1  0  0  0
 43 44  1  0  0  0
 44115  1  0  0  0
 45 46  2  0  0  0
 45116  1  0  0  0
 46117  1  0  0  0
 47118  1  0  0  0
 47119  1  0  0  0
 48 56  1  0  0  0
 48 65  1  0  0  0
 48120  1  0  0  0
 49 50  1  0  0  0
 49 53  1  0  0  0
 49 64  1  0  0  0
 49121  1  0  0  0
 50 51  1  0  0  0
 50122  1  0  0  0
 50123  1  0  0  0
 51 52  1  0  0  0
 51124  1  0  0  0
 51125  1  0  0  0
 52126  1  0  0  0
 52127  1  0  0  0
 53 54  1  0  0  0
 54 55  2  0  0  0
 54128  1  0  0  0
 55 57  1  0  0  0
 55129  1  0  0  0
 56 69  2  0  0  0
 57 58  2  0  0  0
 57130  1  0  0  0
 58131  1  0  0  0
 59 60  1  0  0  0
 59 61  1  0  0  0
 59 62  1  0  0  0
 60132  1  0  0  0
 60133  1  0  0  0
 60134  1  0  0  0
 61135  1  0  0  0
 61136  1  0  0  0
 61137  1  0  0  0
 62138  1  0  0  0
 62139  1  0  0  0
 62140  1  0  0  0
 63 65  1  0  0  0
 63141  1  0  0  0
 63142  1  0  0  0
 63143  1  0  0  0
 64144  1  0  0  0
 65145  1  0  0  0
 68 82  1  0  0  0
 71 73  2  0  0  0
 71 76  1  0  0  0
 71146  1  0  0  0
 72 74  1  0  0  0
 72 76  2  0  0  0
 72147  1  0  0  0
 73 75  1  0  0  0
 73 77  1  0  0  0
 74 75  2  0  0  0
 74 79  1  0  0  0
 75 81  1  0  0  0
 76 86  1  0  0  0
 77 84  2  0  0  0
 78 82  1  0  0  0
 78 83  1  0  0  0
 78 85  2  0  0  0
 79148  1  0  0  0
 79149  1  0  0  0
 79150  1  0  0  0
 80 81  1  0  0  0
 80151  1  0  0  0
 80152  1  0  0  0
 80153  1  0  0  0
 81154  1  0  0  0
 81155  1  0  0  0
 82156  1  0  0  0
 82157  1  0  0  0
 83 86  1  0  0  0
 83158  1  0  0  0
 83159  1  0  0  0
 84160  1  0  0  0
M  ISO  4   1 100  68 101  77 100  82 101
M  END
> <chiral flag>
0

> <version>
0

> <s_m_source_file>
/data/baiqing/PycharmProjects/Reinvent-master-3.2/result/LINK_invent/BTK/process_docking_weight1_custom_product_contain_oxygen_bond_distance_aromatic_linkinvent_7_9_3/rearranged_h_0122.sdf

> <i_m_source_file_index>
34

> <r_mmod_Potential_Energy-OPLS-2005>
465.309814453125

> <r_mmod_Stretch_Energy-OPLS-2005>
167.716506958008

> <r_mmod_Bend_Energy-OPLS-2005>
218.899948120117

> <r_mmod_Torsional_Energy-OPLS-2005>
253.452911376953

> <r_mmod_Improper_Torsional_Energy-OPLS-2005>
7.32051753997803

> <r_mmod_Van_der_Waal_Energy-OPLS-2005>
153.568923950195

> <r_mmod_Electrostatic_Energy-OPLS-2005>
-189.939895629883

> <r_mmod_Solvation_Energy-OPLS-2005>
-231.710327148438

> <b_mmod_Minimization_Converged-OPLS-2005>
0

> <r_mmod_RMS_Derivative-OPLS-2005>
1.91837930679321

$$$$
34
                    3D
 Structure written by MMmdl.
157165  0  0  1  0            999 V2000
  -30.6448  -14.7327   20.4086 C   0  0  0  0  0  0
  -30.4319  -12.4386   19.4741 C   0  0  0  0  0  0
  -29.5096  -12.4874   18.2365 C   0  0  0  0  0  0
  -28.0367  -12.3155   18.6528 C   0  0  0  0  0  0
  -27.6415  -13.2308   19.8421 C   0  0  2  0  0  0
  -28.6921  -13.1892   20.9733 C   0  0  0  0  0  0
  -25.2509  -13.8209   20.5714 C   0  0  0  0  0  0
  -24.1801  -13.0447   20.9234 C   0  0  0  0  0  0
  -24.6394  -11.6941   20.8768 C   0  0  0  0  0  0
  -23.9051  -10.4318   21.0411 C   0  0  0  0  0  0
  -24.3615   -9.4222   21.9164 C   0  0  0  0  0  0
  -23.6308   -8.2238   22.0712 C   0  0  0  0  0  0
  -22.4277   -8.0285   21.3522 C   0  0  0  0  0  0
  -21.9918   -9.0250   20.4607 C   0  0  0  0  0  0
  -22.7232  -10.2146   20.3038 C   0  0  0  0  0  0
  -21.6864   -6.0738   22.5279 C   0  0  0  0  0  0
  -21.4012   -6.5634   23.8212 C   0  0  0  0  0  0
  -21.3667   -5.6779   24.9171 C   0  0  0  0  0  0
  -21.6057   -4.3040   24.7230 C   0  0  0  0  0  0
  -21.8817   -3.8143   23.4343 C   0  0  0  0  0  0
  -21.9192   -4.6962   22.3402 C   0  0  0  0  0  0
  -22.7826  -13.5232   21.1913 C   0  0  0  0  0  0
  -22.1656   -4.2144   21.0975 F   0  0  0  0  0  0
  -21.5648   -3.4517   25.7742 F   0  0  0  0  0  0
  -29.9935  -13.5207   20.3813 N   0  0  0  0  0  0
  -26.2941  -12.9417   20.3270 N   0  0  0  0  0  0
  -25.9324  -11.6574   20.5770 N   0  0  0  0  0  0
  -22.0460  -12.8198   22.0453 N   0  0  0  0  0  0
  -25.4181  -15.1933   20.4137 N   0  0  0  0  0  0
  -31.8608  -14.7612   20.2230 O   0  0  0  0  0  0
  -21.6647   -6.8883   21.4236 O   0  0  0  0  0  0
  -22.3523  -14.5543   20.6764 O   0  0  0  0  0  0
  -24.6326  -31.8570   23.1999 C   0  0  0  0  0  0
  -25.9141  -32.4762   23.8356 C   0  0  1  0  0  0
  -27.2193  -27.2742   20.1144 C   0  0  0  0  0  0
  -25.5932  -33.8567   24.2269 N   0  0  0  0  0  0
  -23.4263  -30.4843   21.5430 C   0  0  2  0  0  0
  -24.8721  -28.9368   20.1123 C   0  0  0  0  0  0
  -22.7526  -29.4616   22.4910 C   0  0  0  0  0  0
  -18.0292  -28.1399   22.8497 C   0  0  0  0  0  0
  -24.1481  -36.7290   23.2642 C   0  0  0  0  0  0
  -25.9760  -30.7776   21.3762 C   0  0  0  0  0  0
  -26.0478  -29.4009   20.7173 C   0  0  0  0  0  0
  -27.2253  -28.5827   20.7078 C   0  0  0  0  0  0
  -26.0200  -26.8874   19.4709 C   0  0  0  0  0  0
  -24.8642  -27.6865   19.4794 C   0  0  0  0  0  0
  -23.6432  -29.8224   20.1581 C   0  0  0  0  0  0
  -25.4103  -36.3076   24.0330 C   0  0  1  0  0  0
  -20.5909  -28.3700   23.1279 C   0  0  2  0  0  0
  -20.6764  -26.9427   22.5395 C   0  0  0  0  0  0
  -19.5722  -26.6386   21.5227 C   0  0  0  0  0  0
  -18.1908  -26.7930   22.1655 C   0  0  0  0  0  0
  -19.1554  -28.8864   23.2881 C   0  0  0  0  0  0
  -18.9480  -30.1469   23.8887 C   0  0  0  0  0  0
  -17.6475  -30.6582   24.0581 C   0  0  0  0  0  0
  -25.9058  -34.9442   23.5091 C   0  0  0  0  0  0
  -16.5360  -29.9091   23.6342 C   0  0  0  0  0  0
  -16.7279  -28.6522   23.0341 C   0  0  0  0  0  0
  -26.4494  -31.6579   25.0738 C   0  0  0  0  0  0
  -25.3707  -31.3750   26.1457 C   0  0  0  0  0  0
  -27.0327  -30.2983   24.6206 C   0  0  0  0  0  0
  -27.6049  -32.4330   25.7499 C   0  0  0  0  0  0
  -27.5572  -37.1805   24.8478 C   0  0  0  0  0  0
  -21.4234  -29.3053   22.3674 N   0  0  0  0  0  0
  -26.4280  -37.3774   23.9420 N   0  0  0  0  0  0
  -24.6975  -31.0563   22.0957 N   0  0  0  0  0  0
  -23.4244  -28.8148   23.2983 O   0  0  0  0  0  0
  -28.3105  -26.3722   20.1495 O   0  0  0  0  0  0
  -26.5656  -34.8926   22.4679 O   0  0  0  0  0  0
  -23.5468  -32.1374   23.7291 O   0  0  0  0  0  0
  -29.4777  -18.4469   20.5925 C   0  0  0  0  0  0
  -31.3515  -18.9998   18.6585 C   0  0  0  0  0  0
  -29.6850  -19.8490   20.2394 C   0  0  0  0  0  0
  -30.6912  -20.0835   19.2740 C   0  0  0  0  0  0
  -31.0849  -17.6476   18.9643 C   0  0  0  0  0  0
  -30.1783  -17.3075   20.0173 C   0  0  0  0  0  0
  -28.8551  -20.9655   20.9128 C   0  0  0  0  0  0
  -28.6239  -22.3424   20.9530 C   0  0  0  0  0  0
  -31.1041  -21.4766   18.8488 C   0  0  0  0  0  0
  -31.7748  -16.6395   18.0546 C   0  0  0  0  0  0
  -29.0894  -23.7110   20.2960 C   0  0  0  0  0  0
  -28.0072  -24.9116   20.3523 C   0  0  0  0  0  0
  -29.8869  -15.8994   20.4348 N   0  0  0  0  0  0
  -31.4737  -12.5444   19.1643 H   0  0  0  0  0  0
  -30.3632  -11.4731   19.9791 H   0  0  0  0  0  0
  -29.7928  -11.7064   17.5306 H   0  0  0  0  0  0
  -29.6332  -13.4390   17.7167 H   0  0  0  0  0  0
  -27.9011  -11.2700   18.9333 H   0  0  0  0  0  0
  -27.3778  -12.4895   17.8005 H   0  0  0  0  0  0
  -27.6265  -14.2453   19.4446 H   0  0  0  0  0  0
  -28.7264  -12.2016   21.4355 H   0  0  0  0  0  0
  -28.4406  -13.8948   21.7683 H   0  0  0  0  0  0
  -25.2761   -9.5721   22.4741 H   0  0  0  0  0  0
  -24.0032   -7.4643   22.7426 H   0  0  0  0  0  0
  -21.0853   -8.8774   19.8921 H   0  0  0  0  0  0
  -22.3680  -10.9685   19.6166 H   0  0  0  0  0  0
  -21.1970   -7.6135   23.9723 H   0  0  0  0  0  0
  -21.1505   -6.0497   25.9081 H   0  0  0  0  0  0
  -22.0587   -2.7597   23.2841 H   0  0  0  0  0  0
  -22.4085  -11.9901   22.4909 H   0  0  0  0  0  0
  -21.1056  -13.1195   22.2591 H   0  0  0  0  0  0
  -24.6500  -15.8469   20.5275 H   0  0  0  0  0  0
  -26.2578  -15.6330   20.0607 H   0  0  0  0  0  0
  -26.7225  -32.5410   23.1122 H   0  0  0  0  0  0
  -25.0042  -33.9702   25.0383 H   0  0  0  0  0  0
  -22.7191  -31.3047   21.3990 H   0  0  0  0  0  0
  -23.3731  -35.9641   23.3309 H   0  0  0  0  0  0
  -24.3589  -36.8901   22.2063 H   0  0  0  0  0  0
  -23.7235  -37.6493   23.6662 H   0  0  0  0  0  0
  -26.1145  -31.5372   20.6051 H   0  0  0  0  0  0
  -26.8532  -30.8266   22.0081 H   0  0  0  0  0  0
  -28.1243  -28.9393   21.1939 H   0  0  0  0  0  0
  -25.9360  -25.9516   18.9414 H   0  0  0  0  0  0
  -23.9689  -27.3260   18.9903 H   0  0  0  0  0  0
  -23.7723  -30.5999   19.4025 H   0  0  0  0  0  0
  -22.7628  -29.2571   19.8492 H   0  0  0  0  0  0
  -25.1276  -36.1931   25.0820 H   0  0  0  0  0  0
  -21.0020  -28.3259   24.1399 H   0  0  0  0  0  0
  -20.5671  -26.2332   23.3602 H   0  0  0  0  0  0
  -21.6630  -26.7428   22.1204 H   0  0  0  0  0  0
  -19.6878  -25.6303   21.1239 H   0  0  0  0  0  0
  -19.6634  -27.3214   20.6772 H   0  0  0  0  0  0
  -17.4186  -26.6714   21.4037 H   0  0  0  0  0  0
  -18.0307  -26.0063   22.9049 H   0  0  0  0  0  0
  -19.7947  -30.7304   24.2244 H   0  0  0  0  0  0
  -17.5013  -31.6260   24.5195 H   0  0  0  0  0  0
  -15.5357  -30.2989   23.7626 H   0  0  0  0  0  0
  -15.8698  -28.0825   22.7038 H   0  0  0  0  0  0
  -24.5908  -30.7053   25.7804 H   0  0  0  0  0  0
  -24.8867  -32.2931   26.4807 H   0  0  0  0  0  0
  -25.8024  -30.9002   27.0273 H   0  0  0  0  0  0
  -26.2905  -29.6743   24.1203 H   0  0  0  0  0  0
  -27.3984  -29.7232   25.4725 H   0  0  0  0  0  0
  -27.8798  -30.4251   23.9458 H   0  0  0  0  0  0
  -27.2649  -33.3652   26.2022 H   0  0  0  0  0  0
  -28.3873  -32.6847   25.0327 H   0  0  0  0  0  0
  -28.0689  -31.8485   26.5454 H   0  0  0  0  0  0
  -28.2608  -38.0086   24.7507 H   0  0  0  0  0  0
  -28.1047  -36.2619   24.6306 H   0  0  0  0  0  0
  -27.2320  -37.1465   25.8894 H   0  0  0  0  0  0
  -20.9421  -29.8835   21.6929 H   0  0  0  0  0  0
  -26.0154  -38.2854   24.1381 H   0  0  0  0  0  0
  -28.7374  -18.2385   21.3513 H   0  0  0  0  0  0
  -32.0837  -19.2167   17.8916 H   0  0  0  0  0  0
  -28.2101  -20.4945   21.6406 H   0  0  0  0  0  0
  -27.8863  -22.5827   21.7072 H   0  0  0  0  0  0
  -30.3548  -21.8994   18.1815 H   0  0  0  0  0  0
  -32.0517  -21.4660   18.3097 H   0  0  0  0  0  0
  -31.2419  -22.1165   19.7197 H   0  0  0  0  0  0
  -32.7591  -16.3782   18.4452 H   0  0  0  0  0  0
  -31.9296  -17.0546   17.0565 H   0  0  0  0  0  0
  -31.1827  -15.7384   17.9091 H   0  0  0  0  0  0
  -29.4014  -23.5624   19.2660 H   0  0  0  0  0  0
  -29.9794  -24.0325   20.8386 H   0  0  0  0  0  0
  -27.5287  -24.8594   21.3309 H   0  0  0  0  0  0
  -27.2494  -24.5881   19.6470 H   0  0  0  0  0  0
  -28.9405  -15.7457   20.7424 H   0  0  0  0  0  0
  1 25  1  0  0  0
  1 30  2  0  0  0
  1 83  1  0  0  0
  2  3  1  0  0  0
  2 25  1  0  0  0
  2 84  1  0  0  0
  2 85  1  0  0  0
  3  4  1  0  0  0
  3 86  1  0  0  0
  3 87  1  0  0  0
  4  5  1  0  0  0
  4 88  1  0  0  0
  4 89  1  0  0  0
  5  6  1  0  0  0
  5 26  1  0  0  0
  5 90  1  0  0  0
  6 25  1  0  0  0
  6 91  1  0  0  0
  6 92  1  0  0  0
  7  8  2  0  0  0
  7 26  1  0  0  0
  7 29  1  0  0  0
  8  9  1  0  0  0
  8 22  1  0  0  0
  9 10  1  0  0  0
  9 27  2  0  0  0
 10 11  2  0  0  0
 10 15  1  0  0  0
 11 12  1  0  0  0
 11 93  1  0  0  0
 12 13  2  0  0  0
 12 94  1  0  0  0
 13 14  1  0  0  0
 13 31  1  0  0  0
 14 15  2  0  0  0
 14 95  1  0  0  0
 15 96  1  0  0  0
 16 17  2  0  0  0
 16 21  1  0  0  0
 16 31  1  0  0  0
 17 18  1  0  0  0
 17 97  1  0  0  0
 18 19  2  0  0  0
 18 98  1  0  0  0
 19 20  1  0  0  0
 19 24  1  0  0  0
 20 21  2  0  0  0
 20 99  1  0  0  0
 21 23  1  0  0  0
 22 28  1  0  0  0
 22 32  2  0  0  0
 26 27  1  0  0  0
 28100  1  0  0  0
 28101  1  0  0  0
 29102  1  0  0  0
 29103  1  0  0  0
 33 34  1  0  0  0
 33 66  1  0  0  0
 33 70  2  0  0  0
 34 36  1  0  0  0
 34 59  1  0  0  0
 34104  1  0  0  0
 35 44  2  0  0  0
 35 45  1  0  0  0
 35 68  1  0  0  0
 36 56  1  0  0  0
 36105  1  0  0  0
 37 39  1  0  0  0
 37 47  1  0  0  0
 37 66  1  0  0  0
 37106  1  0  0  0
 38 43  2  0  0  0
 38 46  1  0  0  0
 38 47  1  0  0  0
 39 64  1  0  0  0
 39 67  2  0  0  0
 40 52  1  0  0  0
 40 53  2  0  0  0
 40 58  1  0  0  0
 41107  1  0  0  0
 41108  1  0  0  0
 41109  1  0  0  0
 41 48  1  0  0  0
 42 43  1  0  0  0
 42 66  1  0  0  0
 42110  1  0  0  0
 42111  1  0  0  0
 43 44  1  0  0  0
 44112  1  0  0  0
 45 46  2  0  0  0
 45113  1  0  0  0
 46114  1  0  0  0
 47115  1  0  0  0
 47116  1  0  0  0
 48 56  1  0  0  0
 48 65  1  0  0  0
 48117  1  0  0  0
 49 50  1  0  0  0
 49 53  1  0  0  0
 49 64  1  0  0  0
 49118  1  0  0  0
 50 51  1  0  0  0
 50119  1  0  0  0
 50120  1  0  0  0
 51 52  1  0  0  0
 51121  1  0  0  0
 51122  1  0  0  0
 52123  1  0  0  0
 52124  1  0  0  0
 53 54  1  0  0  0
 54 55  2  0  0  0
 54125  1  0  0  0
 55 57  1  0  0  0
 55126  1  0  0  0
 56 69  2  0  0  0
 57 58  2  0  0  0
 57127  1  0  0  0
 58128  1  0  0  0
 59 60  1  0  0  0
 59 61  1  0  0  0
 59 62  1  0  0  0
 60129  1  0  0  0
 60130  1  0  0  0
 60131  1  0  0  0
 61132  1  0  0  0
 61133  1  0  0  0
 61134  1  0  0  0
 62135  1  0  0  0
 62136  1  0  0  0
 62137  1  0  0  0
 63 65  1  0  0  0
 63138  1  0  0  0
 63139  1  0  0  0
 63140  1  0  0  0
 64141  1  0  0  0
 65142  1  0  0  0
 68 82  1  0  0  0
 71 73  2  0  0  0
 71 76  1  0  0  0
 71143  1  0  0  0
 72 74  2  0  0  0
 72 75  1  0  0  0
 72144  1  0  0  0
 73 74  1  0  0  0
 73 77  1  0  0  0
 74 79  1  0  0  0
 75 76  2  0  0  0
 75 80  1  0  0  0
 76 83  1  0  0  0
 77 78  2  0  0  0
 77145  1  0  0  0
 78 81  1  0  0  0
 78146  1  0  0  0
 79147  1  0  0  0
 79148  1  0  0  0
 79149  1  0  0  0
 80150  1  0  0  0
 80151  1  0  0  0
 80152  1  0  0  0
 81 82  1  0  0  0
 81153  1  0  0  0
 81154  1  0  0  0
 82155  1  0  0  0
 82156  1  0  0  0
 83157  1  0  0  0
M  ISO  4   1 100  68 101  82 101  83 100
M  END
> <chiral flag>
0

> <version>
0

> <s_m_source_file>
/data/baiqing/PycharmProjects/Reinvent-master-3.2/result/LINK_invent/BTK/process_docking_weight1_custom_product_contain_oxygen_bond_distance_aromatic_linkinvent_7_9_3/rearranged_h_0122.sdf

> <i_m_source_file_index>
35

> <r_mmod_Potential_Energy-OPLS-2005>
255.917663574219

> <r_mmod_Stretch_Energy-OPLS-2005>
125.317405700684

> <r_mmod_Bend_Energy-OPLS-2005>
232.518447875977

> <r_mmod_Torsional_Energy-OPLS-2005>
240.958541870117

> <r_mmod_Improper_Torsional_Energy-OPLS-2005>
4.94608783721924

> <r_mmod_Van_der_Waal_Energy-OPLS-2005>
152.861999511719

> <r_mmod_Electrostatic_Energy-OPLS-2005>
-380.752349853516

> <r_mmod_Solvation_Energy-OPLS-2005>
-204.692260742188

> <b_mmod_Minimization_Converged-OPLS-2005>
0

> <r_mmod_RMS_Derivative-OPLS-2005>
3.36972975730896

$$$$
35
                    3D
 Structure written by MMmdl.
152160  0  0  1  0            999 V2000
  -30.6310  -14.5373   20.7002 C   0  0  0  0  0  0
  -30.4633  -12.4141   19.3973 C   0  0  0  0  0  0
  -29.5095  -12.6013   18.1959 C   0  0  0  0  0  0
  -28.0275  -12.4413   18.5949 C   0  0  0  0  0  0
  -27.6709  -13.2127   19.8917 C   0  0  2  0  0  0
  -28.7127  -12.8882   20.9815 C   0  0  0  0  0  0
  -25.2614  -13.8136   20.5657 C   0  0  0  0  0  0
  -24.1892  -13.0432   20.9206 C   0  0  0  0  0  0
  -24.6466  -11.6899   20.8726 C   0  0  0  0  0  0
  -23.9139  -10.4273   21.0407 C   0  0  0  0  0  0
  -24.3663   -9.4166   21.9173 C   0  0  0  0  0  0
  -23.6309   -8.2231   22.0746 C   0  0  0  0  0  0
  -22.4268   -8.0300   21.3573 C   0  0  0  0  0  0
  -21.9942   -9.0279   20.4660 C   0  0  0  0  0  0
  -22.7316  -10.2119   20.3062 C   0  0  0  0  0  0
  -21.6827   -6.0752   22.5295 C   0  0  0  0  0  0
  -21.3994   -6.5647   23.8243 C   0  0  0  0  0  0
  -21.3666   -5.6789   24.9210 C   0  0  0  0  0  0
  -21.6053   -4.3060   24.7228 C   0  0  0  0  0  0
  -21.8807   -3.8157   23.4353 C   0  0  0  0  0  0
  -21.9173   -4.6975   22.3416 C   0  0  0  0  0  0
  -22.7886  -13.5192   21.1859 C   0  0  0  0  0  0
  -22.1645   -4.2177   21.0992 F   0  0  0  0  0  0
  -21.5640   -3.4529   25.7754 F   0  0  0  0  0  0
  -30.0337  -13.3202   20.4779 N   0  0  0  0  0  0
  -26.3092  -12.9348   20.3377 N   0  0  0  0  0  0
  -25.9383  -11.6497   20.5757 N   0  0  0  0  0  0
  -22.0503  -12.8238   22.0427 N   0  0  0  0  0  0
  -25.4282  -15.1875   20.4049 N   0  0  0  0  0  0
  -31.6790  -14.8500   20.1253 O   0  0  0  0  0  0
  -21.6622   -6.8898   21.4273 O   0  0  0  0  0  0
  -22.3578  -14.5489   20.6672 O   0  0  0  0  0  0
  -24.6223  -31.8583   23.2038 C   0  0  0  0  0  0
  -25.9086  -32.4746   23.8383 C   0  0  1  0  0  0
  -27.2277  -27.3443   20.1272 C   0  0  0  0  0  0
  -25.5908  -33.8551   24.2307 N   0  0  0  0  0  0
  -23.4202  -30.4853   21.5344 C   0  0  2  0  0  0
  -24.8739  -28.9439   20.1079 C   0  0  0  0  0  0
  -22.7486  -29.4632   22.4817 C   0  0  0  0  0  0
  -18.0278  -28.1429   22.8467 C   0  0  0  0  0  0
  -24.1473  -36.7237   23.2646 C   0  0  0  0  0  0
  -25.9599  -30.8013   21.3784 C   0  0  0  0  0  0
  -26.0371  -29.4302   20.7213 C   0  0  0  0  0  0
  -27.2201  -28.6377   20.7284 C   0  0  0  0  0  0
  -26.0527  -26.9132   19.4800 C   0  0  0  0  0  0
  -24.8815  -27.6886   19.4821 C   0  0  0  0  0  0
  -23.6447  -29.8203   20.1503 C   0  0  0  0  0  0
  -25.4095  -36.3045   24.0354 C   0  0  1  0  0  0
  -20.5911  -28.3731   23.1248 C   0  0  2  0  0  0
  -20.6806  -26.9455   22.5398 C   0  0  0  0  0  0
  -19.5780  -26.6432   21.5209 C   0  0  0  0  0  0
  -18.1936  -26.7967   22.1618 C   0  0  0  0  0  0
  -19.1544  -28.8884   23.2872 C   0  0  0  0  0  0
  -18.9463  -30.1481   23.8913 C   0  0  0  0  0  0
  -17.6454  -30.6614   24.0569 C   0  0  0  0  0  0
  -25.9044  -34.9412   23.5123 C   0  0  0  0  0  0
  -16.5349  -29.9121   23.6325 C   0  0  0  0  0  0
  -16.7274  -28.6552   23.0343 C   0  0  0  0  0  0
  -26.4522  -31.6532   25.0715 C   0  0  0  0  0  0
  -25.3811  -31.3601   26.1474 C   0  0  0  0  0  0
  -27.0363  -30.2959   24.6125 C   0  0  0  0  0  0
  -27.6103  -32.4253   25.7454 C   0  0  0  0  0  0
  -27.5555  -37.1764   24.8475 C   0  0  0  0  0  0
  -21.4188  -29.3079   22.3615 N   0  0  0  0  0  0
  -26.4244  -37.3758   23.9447 N   0  0  0  0  0  0
  -24.6841  -31.0673   22.0949 N   0  0  0  0  0  0
  -23.4205  -28.8165   23.2912 O   0  0  0  0  0  0
  -28.3173  -26.4739   20.1762 O   0  0  0  0  0  0
  -26.5584  -34.8882   22.4672 O   0  0  0  0  0  0
  -23.5390  -32.1337   23.7378 O   0  0  0  0  0  0
  -31.5266  -19.7048   20.4395 C   0  0  0  0  0  0
  -30.4921  -20.6402   20.2117 C   0  0  0  0  0  0
  -31.2446  -18.3908   20.8718 C   0  0  0  0  0  0
  -28.8804  -18.9314   20.8146 C   0  0  0  0  0  0
  -29.1408  -20.2855   20.3977 C   0  0  0  0  0  0
  -29.9173  -17.9755   21.0749 C   0  0  0  0  0  0
  -27.9945  -21.2617   20.2388 C   0  0  0  0  0  0
  -29.6505  -16.6969   21.8146 C   0  0  0  0  0  0
  -27.7650  -22.6187   20.1340 C   0  0  0  0  0  0
  -29.9480  -15.3611   21.7212 C   0  0  0  0  0  0
  -28.6139  -23.8686   20.1201 C   0  0  0  0  0  0
  -27.9999  -25.1623   20.7799 C   0  0  0  0  0  0
  -29.7281  -23.9215   19.5908 O   0  0  0  0  0  0
  -31.4854  -12.6212   19.0853 H   0  0  0  0  0  0
  -30.4613  -11.3793   19.7419 H   0  0  0  0  0  0
  -29.7593  -11.8980   17.4014 H   0  0  0  0  0  0
  -29.6695  -13.5955   17.7716 H   0  0  0  0  0  0
  -27.8194  -11.3784   18.7226 H   0  0  0  0  0  0
  -27.3926  -12.7886   17.7787 H   0  0  0  0  0  0
  -27.7415  -14.2825   19.6859 H   0  0  0  0  0  0
  -28.7308  -11.8113   21.1551 H   0  0  0  0  0  0
  -28.4114  -13.3078   21.9391 H   0  0  0  0  0  0
  -25.2792   -9.5606   22.4772 H   0  0  0  0  0  0
  -23.9997   -7.4581   22.7428 H   0  0  0  0  0  0
  -21.0882   -8.8830   19.8944 H   0  0  0  0  0  0
  -22.3797  -10.9687   19.6178 H   0  0  0  0  0  0
  -21.1977   -7.6149   23.9768 H   0  0  0  0  0  0
  -21.1503   -6.0509   25.9111 H   0  0  0  0  0  0
  -22.0575   -2.7626   23.2846 H   0  0  0  0  0  0
  -22.4093  -11.9923   22.4905 H   0  0  0  0  0  0
  -21.1112  -13.1291   22.2583 H   0  0  0  0  0  0
  -24.6549  -15.8366   20.5041 H   0  0  0  0  0  0
  -26.2841  -15.6330   20.0991 H   0  0  0  0  0  0
  -26.7133  -32.5457   23.1134 H   0  0  0  0  0  0
  -25.0145  -33.9682   25.0513 H   0  0  0  0  0  0
  -22.7135  -31.3036   21.3789 H   0  0  0  0  0  0
  -23.3744  -35.9557   23.3313 H   0  0  0  0  0  0
  -24.3593  -36.8826   22.2062 H   0  0  0  0  0  0
  -23.7198  -37.6436   23.6653 H   0  0  0  0  0  0
  -26.0998  -31.5726   20.6186 H   0  0  0  0  0  0
  -26.8398  -30.8428   22.0114 H   0  0  0  0  0  0
  -28.1056  -28.9957   21.2341 H   0  0  0  0  0  0
  -26.0295  -25.9546   18.9824 H   0  0  0  0  0  0
  -23.9918  -27.3093   19.0024 H   0  0  0  0  0  0
  -23.7776  -30.5904   19.3901 H   0  0  0  0  0  0
  -22.7752  -29.2420   19.8357 H   0  0  0  0  0  0
  -25.1259  -36.1878   25.0837 H   0  0  0  0  0  0
  -21.0008  -28.3340   24.1385 H   0  0  0  0  0  0
  -20.5716  -26.2352   23.3615 H   0  0  0  0  0  0
  -21.6658  -26.7505   22.1186 H   0  0  0  0  0  0
  -19.6958  -25.6350   21.1227 H   0  0  0  0  0  0
  -19.6718  -27.3257   20.6759 H   0  0  0  0  0  0
  -17.4219  -26.6696   21.4020 H   0  0  0  0  0  0
  -18.0351  -26.0118   22.9034 H   0  0  0  0  0  0
  -19.7953  -30.7281   24.2326 H   0  0  0  0  0  0
  -17.5035  -31.6302   24.5178 H   0  0  0  0  0  0
  -15.5377  -30.3040   23.7673 H   0  0  0  0  0  0
  -15.8676  -28.0889   22.7065 H   0  0  0  0  0  0
  -24.6082  -30.6804   25.7862 H   0  0  0  0  0  0
  -24.8906  -32.2717   26.4895 H   0  0  0  0  0  0
  -25.8264  -30.8862   27.0237 H   0  0  0  0  0  0
  -26.2901  -29.6685   24.1233 H   0  0  0  0  0  0
  -27.4176  -29.7216   25.4588 H   0  0  0  0  0  0
  -27.8729  -30.4266   23.9258 H   0  0  0  0  0  0
  -27.2766  -33.3614   26.1953 H   0  0  0  0  0  0
  -28.3966  -32.6692   25.0288 H   0  0  0  0  0  0
  -28.0703  -31.8391   26.5432 H   0  0  0  0  0  0
  -28.2554  -38.0079   24.7550 H   0  0  0  0  0  0
  -28.1058  -36.2617   24.6247 H   0  0  0  0  0  0
  -27.2287  -37.1318   25.8876 H   0  0  0  0  0  0
  -20.9373  -29.8751   21.6762 H   0  0  0  0  0  0
  -26.0109  -38.2791   24.1548 H   0  0  0  0  0  0
  -32.5577  -20.0131   20.3292 H   0  0  0  0  0  0
  -30.7468  -21.6373   19.8953 H   0  0  0  0  0  0
  -32.0596  -17.7289   21.1260 H   0  0  0  0  0  0
  -27.8561  -18.6342   20.9984 H   0  0  0  0  0  0
  -27.0580  -20.7219   20.1945 H   0  0  0  0  0  0
  -29.1262  -16.9095   22.7356 H   0  0  0  0  0  0
  -26.7152  -22.8607   20.0430 H   0  0  0  0  0  0
  -29.6245  -14.8144   22.5939 H   0  0  0  0  0  0
  -28.3152  -25.1826   21.8258 H   0  0  0  0  0  0
  -26.9237  -25.0120   20.8243 H   0  0  0  0  0  0
  1 25  1  0  0  0
  1 30  2  0  0  0
  1 80  1  0  0  0
  2  3  1  0  0  0
  2 25  1  0  0  0
  2 84  1  0  0  0
  2 85  1  0  0  0
  3  4  1  0  0  0
  3 86  1  0  0  0
  3 87  1  0  0  0
  4  5  1  0  0  0
  4 88  1  0  0  0
  4 89  1  0  0  0
  5  6  1  0  0  0
  5 26  1  0  0  0
  5 90  1  0  0  0
  6 25  1  0  0  0
  6 91  1  0  0  0
  6 92  1  0  0  0
  7  8  2  0  0  0
  7 26  1  0  0  0
  7 29  1  0  0  0
  8  9  1  0  0  0
  8 22  1  0  0  0
  9 10  1  0  0  0
  9 27  2  0  0  0
 10 11  2  0  0  0
 10 15  1  0  0  0
 11 12  1  0  0  0
 11 93  1  0  0  0
 12 13  2  0  0  0
 12 94  1  0  0  0
 13 14  1  0  0  0
 13 31  1  0  0  0
 14 15  2  0  0  0
 14 95  1  0  0  0
 15 96  1  0  0  0
 16 17  2  0  0  0
 16 21  1  0  0  0
 16 31  1  0  0  0
 17 18  1  0  0  0
 17 97  1  0  0  0
 18 19  2  0  0  0
 18 98  1  0  0  0
 19 20  1  0  0  0
 19 24  1  0  0  0
 20 21  2  0  0  0
 20 99  1  0  0  0
 21 23  1  0  0  0
 22 28  1  0  0  0
 22 32  2  0  0  0
 26 27  1  0  0  0
 28100  1  0  0  0
 28101  1  0  0  0
 29102  1  0  0  0
 29103  1  0  0  0
 33 34  1  0  0  0
 33 66  1  0  0  0
 33 70  2  0  0  0
 34 36  1  0  0  0
 34 59  1  0  0  0
 34104  1  0  0  0
 35 44  2  0  0  0
 35 45  1  0  0  0
 35 68  1  0  0  0
 36 56  1  0  0  0
 36105  1  0  0  0
 37 39  1  0  0  0
 37 47  1  0  0  0
 37 66  1  0  0  0
 37106  1  0  0  0
 38 43  2  0  0  0
 38 46  1  0  0  0
 38 47  1  0  0  0
 39 64  1  0  0  0
 39 67  2  0  0  0
 40 52  1  0  0  0
 40 53  2  0  0  0
 40 58  1  0  0  0
 41107  1  0  0  0
 41108  1  0  0  0
 41109  1  0  0  0
 41 48  1  0  0  0
 42 43  1  0  0  0
 42 66  1  0  0  0
 42110  1  0  0  0
 42111  1  0  0  0
 43 44  1  0  0  0
 44112  1  0  0  0
 45 46  2  0  0  0
 45113  1  0  0  0
 46114  1  0  0  0
 47115  1  0  0  0
 47116  1  0  0  0
 48 56  1  0  0  0
 48 65  1  0  0  0
 48117  1  0  0  0
 49 50  1  0  0  0
 49 53  1  0  0  0
 49 64  1  0  0  0
 49118  1  0  0  0
 50 51  1  0  0  0
 50119  1  0  0  0
 50120  1  0  0  0
 51 52  1  0  0  0
 51121  1  0  0  0
 51122  1  0  0  0
 52123  1  0  0  0
 52124  1  0  0  0
 53 54  1  0  0  0
 54 55  2  0  0  0
 54125  1  0  0  0
 55 57  1  0  0  0
 55126  1  0  0  0
 56 69  2  0  0  0
 57 58  2  0  0  0
 57127  1  0  0  0
 58128  1  0  0  0
 59 60  1  0  0  0
 59 61  1  0  0  0
 59 62  1  0  0  0
 60129  1  0  0  0
 60130  1  0  0  0
 60131  1  0  0  0
 61132  1  0  0  0
 61133  1  0  0  0
 61134  1  0  0  0
 62135  1  0  0  0
 62136  1  0  0  0
 62137  1  0  0  0
 63 65  1  0  0  0
 63138  1  0  0  0
 63139  1  0  0  0
 63140  1  0  0  0
 64141  1  0  0  0
 65142  1  0  0  0
 68 82  1  0  0  0
 71 72  2  0  0  0
 71 73  1  0  0  0
 71143  1  0  0  0
 72 75  1  0  0  0
 72144  1  0  0  0
 73 76  2  0  0  0
 73145  1  0  0  0
 74 75  2  0  0  0
 74 76  1  0  0  0
 74146  1  0  0  0
 75 77  1  0  0  0
 76 78  1  0  0  0
 77 79  2  0  0  0
 77147  1  0  0  0
 78 80  2  0  0  0
 78148  1  0  0  0
 79 81  1  0  0  0
 79149  1  0  0  0
 80150  1  0  0  0
 81 82  1  0  0  0
 81 83  2  0  0  0
 82151  1  0  0  0
 82152  1  0  0  0
M  ISO  4   1 100  68 101  80 100  82 101
M  END
> <chiral flag>
0

> <version>
0

> <s_m_source_file>
/data/baiqing/PycharmProjects/Reinvent-master-3.2/result/LINK_invent/BTK/process_docking_weight1_custom_product_contain_oxygen_bond_distance_aromatic_linkinvent_7_9_3/rearranged_h_0122.sdf

> <i_m_source_file_index>
36

> <r_mmod_Potential_Energy-OPLS-2005>
172.644515991211

> <r_mmod_Stretch_Energy-OPLS-2005>
70.3236770629883

> <r_mmod_Bend_Energy-OPLS-2005>
205.721130371094

> <r_mmod_Torsional_Energy-OPLS-2005>
236.550323486328

> <r_mmod_Improper_Torsional_Energy-OPLS-2005>
5.13242721557617

> <r_mmod_Van_der_Waal_Energy-OPLS-2005>
144.397155761719

> <r_mmod_Electrostatic_Energy-OPLS-2005>
-308.760711669922

> <r_mmod_Solvation_Energy-OPLS-2005>
-219.375091552734

> <b_mmod_Minimization_Converged-OPLS-2005>
0

> <r_mmod_RMS_Derivative-OPLS-2005>
6.44451522827148

$$$$
36
                    3D
 Structure written by MMmdl.
167175  0  0  1  0            999 V2000
  -30.6576  -14.5488   20.4942 C   0  0  0  0  0  0
  -30.4190  -12.3473   19.4199 C   0  0  0  0  0  0
  -29.4827  -12.5102   18.2013 C   0  0  0  0  0  0
  -28.0009  -12.3607   18.6018 C   0  0  0  0  0  0
  -27.6470  -13.1757   19.8696 C   0  0  2  0  0  0
  -28.7010  -12.9595   20.9824 C   0  0  0  0  0  0
  -25.2578  -13.8046   20.5691 C   0  0  0  0  0  0
  -24.1760  -13.0410   20.9042 C   0  0  0  0  0  0
  -24.6222  -11.6836   20.8567 C   0  0  0  0  0  0
  -23.8868  -10.4278   21.0328 C   0  0  0  0  0  0
  -24.3480   -9.4263   21.9152 C   0  0  0  0  0  0
  -23.6245   -8.2263   22.0763 C   0  0  0  0  0  0
  -22.4246   -8.0214   21.3532 C   0  0  0  0  0  0
  -21.9776   -9.0126   20.4628 C   0  0  0  0  0  0
  -22.7013  -10.2055   20.3034 C   0  0  0  0  0  0
  -21.6880   -6.0672   22.5245 C   0  0  0  0  0  0
  -21.4031   -6.5609   23.8151 C   0  0  0  0  0  0
  -21.3648   -5.6784   24.9123 C   0  0  0  0  0  0
  -21.6044   -4.3045   24.7221 C   0  0  0  0  0  0
  -21.8843   -3.8115   23.4362 C   0  0  0  0  0  0
  -21.9231   -4.6906   22.3395 C   0  0  0  0  0  0
  -22.7823  -13.5225   21.1819 C   0  0  0  0  0  0
  -22.1708   -4.2085   21.0978 F   0  0  0  0  0  0
  -21.5599   -3.4543   25.7761 F   0  0  0  0  0  0
  -30.0130  -13.3367   20.4317 N   0  0  0  0  0  0
  -26.2929  -12.9115   20.3369 N   0  0  0  0  0  0
  -25.9146  -11.6297   20.5660 N   0  0  0  0  0  0
  -22.0544  -12.8157   22.0341 N   0  0  0  0  0  0
  -25.4555  -15.1772   20.4299 N   0  0  0  0  0  0
  -31.8447  -14.6656   20.1686 O   0  0  0  0  0  0
  -21.6678   -6.8781   21.4193 O   0  0  0  0  0  0
  -22.3514  -14.5588   20.6764 O   0  0  0  0  0  0
  -24.6132  -31.8740   23.2194 C   0  0  0  0  0  0
  -25.9089  -32.4815   23.8421 C   0  0  1  0  0  0
  -27.2182  -27.4887   20.0899 C   0  0  0  0  0  0
  -25.6044  -33.8620   24.2417 N   0  0  0  0  0  0
  -23.3889  -30.5044   21.5603 C   0  0  2  0  0  0
  -24.8263  -28.9868   20.1148 C   0  0  0  0  0  0
  -22.7344  -29.4745   22.5064 C   0  0  0  0  0  0
  -18.0268  -28.1392   22.8500 C   0  0  0  0  0  0
  -24.1488  -36.7228   23.2609 C   0  0  0  0  0  0
  -25.9054  -30.8697   21.3473 C   0  0  0  0  0  0
  -25.9863  -29.5061   20.7024 C   0  0  0  0  0  0
  -27.1831  -28.7639   20.6888 C   0  0  0  0  0  0
  -26.0405  -26.9862   19.4823 C   0  0  0  0  0  0
  -24.8458  -27.7222   19.5081 C   0  0  0  0  0  0
  -23.5844  -29.8432   20.1721 C   0  0  0  0  0  0
  -25.4107  -36.3089   24.0346 C   0  0  1  0  0  0
  -20.5838  -28.3679   23.1313 C   0  0  2  0  0  0
  -20.6783  -26.9407   22.5445 C   0  0  0  0  0  0
  -19.5785  -26.6415   21.5205 C   0  0  0  0  0  0
  -18.1915  -26.7984   22.1516 C   0  0  0  0  0  0
  -19.1509  -28.8852   23.2903 C   0  0  0  0  0  0
  -18.9448  -30.1471   23.8892 C   0  0  0  0  0  0
  -17.6459  -30.6601   24.0586 C   0  0  0  0  0  0
  -25.9062  -34.9465   23.5152 C   0  0  0  0  0  0
  -16.5361  -29.9090   23.6362 C   0  0  0  0  0  0
  -16.7263  -28.6520   23.0357 C   0  0  0  0  0  0
  -26.4586  -31.6486   25.0641 C   0  0  0  0  0  0
  -25.3883  -31.3399   26.1363 C   0  0  0  0  0  0
  -27.0429  -30.2997   24.5810 C   0  0  0  0  0  0
  -27.6251  -32.4106   25.7379 C   0  0  0  0  0  0
  -27.5607  -37.1740   24.8444 C   0  0  0  0  0  0
  -21.4093  -29.3043   22.3723 N   0  0  0  0  0  0
  -26.4268  -37.3805   23.9478 N   0  0  0  0  0  0
  -24.6548  -31.0926   22.1050 N   0  0  0  0  0  0
  -23.4118  -28.8324   23.3132 O   0  0  0  0  0  0
  -28.4052  -26.7960   20.1311 O   0  0  0  0  0  0
  -26.5513  -34.8919   22.4644 O   0  0  0  0  0  0
  -23.5360  -32.1509   23.7627 O   0  0  0  0  0  0
  -30.3625  -18.1239   21.4626 C   0  0  0  0  0  0
  -30.6276  -19.4880   21.2710 C   0  0  0  0  0  0
  -30.3932  -17.1926   20.3958 C   0  0  0  0  0  0
  -30.7989  -17.6723   19.1017 C   0  0  0  0  0  0
  -31.1216  -19.0591   18.9330 C   0  0  0  0  0  0
  -30.9545  -19.9804   19.9929 C   0  0  0  0  0  0
  -29.8043  -15.8391   20.7298 C   0  0  0  0  0  0
  -31.6031  -19.6348   17.5973 C   0  0  0  0  0  0
  -29.9936  -16.1493   15.5401 C   0  0  0  0  0  0
  -30.8675  -16.7505   17.8731 C   0  0  0  0  0  0
  -29.8287  -17.0563   16.7711 C   0  0  0  0  0  0
  -29.5134  -24.6717   20.4342 C   0  0  0  0  0  0
  -29.7703  -23.3430   19.7133 C   0  0  0  0  0  0
  -28.3753  -25.4320   19.7543 C   0  0  0  0  0  0
  -30.5377  -22.3129   20.5631 C   0  0  0  0  0  0
  -28.6295  -15.8670   21.2173 N   0  0  0  0  0  0
  -31.1209  -21.3234   19.7105 O   0  0  0  0  0  0
  -31.4598  -12.4648   19.1118 H   0  0  0  0  0  0
  -30.3355  -11.3389   19.8250 H   0  0  0  0  0  0
  -29.7291  -11.7755   17.4353 H   0  0  0  0  0  0
  -29.6445  -13.4908   17.7459 H   0  0  0  0  0  0
  -27.7947  -11.3028   18.7650 H   0  0  0  0  0  0
  -27.3610  -12.6666   17.7726 H   0  0  0  0  0  0
  -27.6666  -14.2152   19.5537 H   0  0  0  0  0  0
  -28.7062  -11.9112   21.2872 H   0  0  0  0  0  0
  -28.4619  -13.4995   21.8971 H   0  0  0  0  0  0
  -25.2631   -9.5846   22.4689 H   0  0  0  0  0  0
  -24.0024   -7.4681   22.7485 H   0  0  0  0  0  0
  -21.0724   -8.8502   19.8916 H   0  0  0  0  0  0
  -22.3375  -10.9538   19.6145 H   0  0  0  0  0  0
  -21.2034   -7.6110   23.9632 H   0  0  0  0  0  0
  -21.1428   -6.0523   25.8994 H   0  0  0  0  0  0
  -22.0639   -2.7575   23.2883 H   0  0  0  0  0  0
  -22.4217  -11.9732   22.4486 H   0  0  0  0  0  0
  -21.1213  -13.1145   22.2777 H   0  0  0  0  0  0
  -24.7365  -15.8566   20.6452 H   0  0  0  0  0  0
  -26.3937  -15.5685   20.4024 H   0  0  0  0  0  0
  -26.7167  -32.5578   23.1193 H   0  0  0  0  0  0
  -25.0583  -33.9826   25.0808 H   0  0  0  0  0  0
  -22.6773  -31.3219   21.4277 H   0  0  0  0  0  0
  -23.3900  -35.9399   23.3038 H   0  0  0  0  0  0
  -24.3682  -36.9066   22.2089 H   0  0  0  0  0  0
  -23.7026  -37.6266   23.6747 H   0  0  0  0  0  0
  -25.9846  -31.6286   20.5669 H   0  0  0  0  0  0
  -26.8085  -30.9438   21.9386 H   0  0  0  0  0  0
  -28.0810  -29.1617   21.1420 H   0  0  0  0  0  0
  -26.0089  -26.0323   18.9796 H   0  0  0  0  0  0
  -23.9502  -27.3137   19.0616 H   0  0  0  0  0  0
  -23.6758  -30.6178   19.4115 H   0  0  0  0  0  0
  -22.7096  -29.2570   19.8855 H   0  0  0  0  0  0
  -25.1257  -36.1965   25.0835 H   0  0  0  0  0  0
  -20.9951  -28.3307   24.1418 H   0  0  0  0  0  0
  -20.5707  -26.2279   23.3652 H   0  0  0  0  0  0
  -21.6658  -26.7485   22.1231 H   0  0  0  0  0  0
  -19.6951  -25.6330   21.1218 H   0  0  0  0  0  0
  -19.6785  -27.3246   20.6769 H   0  0  0  0  0  0
  -17.4268  -26.6913   21.3812 H   0  0  0  0  0  0
  -18.0156  -26.0053   22.8789 H   0  0  0  0  0  0
  -19.7920  -30.7325   24.2210 H   0  0  0  0  0  0
  -17.4997  -31.6262   24.5220 H   0  0  0  0  0  0
  -15.5360  -30.2981   23.7703 H   0  0  0  0  0  0
  -15.8672  -28.0863   22.7024 H   0  0  0  0  0  0
  -24.6608  -30.6082   25.7803 H   0  0  0  0  0  0
  -24.8384  -32.2319   26.4360 H   0  0  0  0  0  0
  -25.8374  -30.9173   27.0352 H   0  0  0  0  0  0
  -26.2909  -29.6692   24.1041 H   0  0  0  0  0  0
  -27.4553  -29.7254   25.4107 H   0  0  0  0  0  0
  -27.8549  -30.4415   23.8675 H   0  0  0  0  0  0
  -27.3135  -33.3616   26.1701 H   0  0  0  0  0  0
  -28.4216  -32.6232   25.0226 H   0  0  0  0  0  0
  -28.0694  -31.8267   26.5447 H   0  0  0  0  0  0
  -28.2500  -38.0155   24.7725 H   0  0  0  0  0  0
  -28.1237  -36.2720   24.5984 H   0  0  0  0  0  0
  -27.2370  -37.1068   25.8841 H   0  0  0  0  0  0
  -20.9275  -29.8673   21.6857 H   0  0  0  0  0  0
  -26.0141  -38.2828   24.1688 H   0  0  0  0  0  0
  -30.0563  -17.8016   22.4502 H   0  0  0  0  0  0
  -30.5455  -20.1428   22.1271 H   0  0  0  0  0  0
  -32.0665  -18.9044   16.9371 H   0  0  0  0  0  0
  -32.3548  -20.4116   17.7514 H   0  0  0  0  0  0
  -30.7688  -20.0910   17.0622 H   0  0  0  0  0  0
  -29.5444  -16.6062   14.6580 H   0  0  0  0  0  0
  -29.5267  -15.1747   15.6851 H   0  0  0  0  0  0
  -31.0469  -15.9805   15.3097 H   0  0  0  0  0  0
  -30.7539  -15.7053   18.1347 H   0  0  0  0  0  0
  -31.8796  -16.8166   17.4669 H   0  0  0  0  0  0
  -28.8157  -16.9714   17.1634 H   0  0  0  0  0  0
  -29.9241  -18.0817   16.4242 H   0  0  0  0  0  0
  -30.4240  -25.2749   20.4614 H   0  0  0  0  0  0
  -29.2301  -24.4854   21.4715 H   0  0  0  0  0  0
  -30.2923  -23.5568   18.7791 H   0  0  0  0  0  0
  -28.8093  -22.9068   19.4267 H   0  0  0  0  0  0
  -27.4552  -24.9413   20.0786 H   0  0  0  0  0  0
  -28.4287  -25.3819   18.6659 H   0  0  0  0  0  0
  -29.8126  -21.9120   21.2709 H   0  0  0  0  0  0
  -31.3358  -22.7797   21.1434 H   0  0  0  0  0  0
  -28.2976  -16.8237   21.2794 H   0  0  0  0  0  0
  1 25  1  0  0  0
  1 30  2  0  0  0
  1 77  1  0  0  0
  2  3  1  0  0  0
  2 25  1  0  0  0
  2 88  1  0  0  0
  2 89  1  0  0  0
  3  4  1  0  0  0
  3 90  1  0  0  0
  3 91  1  0  0  0
  4  5  1  0  0  0
  4 92  1  0  0  0
  4 93  1  0  0  0
  5  6  1  0  0  0
  5 26  1  0  0  0
  5 94  1  0  0  0
  6 25  1  0  0  0
  6 95  1  0  0  0
  6 96  1  0  0  0
  7  8  2  0  0  0
  7 26  1  0  0  0
  7 29  1  0  0  0
  8  9  1  0  0  0
  8 22  1  0  0  0
  9 10  1  0  0  0
  9 27  2  0  0  0
 10 11  2  0  0  0
 10 15  1  0  0  0
 11 12  1  0  0  0
 11 97  1  0  0  0
 12 13  2  0  0  0
 12 98  1  0  0  0
 13 14  1  0  0  0
 13 31  1  0  0  0
 14 15  2  0  0  0
 14 99  1  0  0  0
 15100  1  0  0  0
 16 17  2  0  0  0
 16 21  1  0  0  0
 16 31  1  0  0  0
 17 18  1  0  0  0
 17101  1  0  0  0
 18 19  2  0  0  0
 18102  1  0  0  0
 19 20  1  0  0  0
 19 24  1  0  0  0
 20 21  2  0  0  0
 20103  1  0  0  0
 21 23  1  0  0  0
 22 28  1  0  0  0
 22 32  2  0  0  0
 26 27  1  0  0  0
 28104  1  0  0  0
 28105  1  0  0  0
 29106  1  0  0  0
 29107  1  0  0  0
 33 34  1  0  0  0
 33 66  1  0  0  0
 33 70  2  0  0  0
 34 36  1  0  0  0
 34 59  1  0  0  0
 34108  1  0  0  0
 35 44  2  0  0  0
 35 45  1  0  0  0
 35 68  1  0  0  0
 36 56  1  0  0  0
 36109  1  0  0  0
 37 39  1  0  0  0
 37 47  1  0  0  0
 37 66  1  0  0  0
 37110  1  0  0  0
 38 43  2  0  0  0
 38 46  1  0  0  0
 38 47  1  0  0  0
 39 64  1  0  0  0
 39 67  2  0  0  0
 40 52  1  0  0  0
 40 53  2  0  0  0
 40 58  1  0  0  0
 41111  1  0  0  0
 41112  1  0  0  0
 41113  1  0  0  0
 41 48  1  0  0  0
 42 43  1  0  0  0
 42 66  1  0  0  0
 42114  1  0  0  0
 42115  1  0  0  0
 43 44  1  0  0  0
 44116  1  0  0  0
 45 46  2  0  0  0
 45117  1  0  0  0
 46118  1  0  0  0
 47119  1  0  0  0
 47120  1  0  0  0
 48 56  1  0  0  0
 48 65  1  0  0  0
 48121  1  0  0  0
 49 50  1  0  0  0
 49 53  1  0  0  0
 49 64  1  0  0  0
 49122  1  0  0  0
 50 51  1  0  0  0
 50123  1  0  0  0
 50124  1  0  0  0
 51 52  1  0  0  0
 51125  1  0  0  0
 51126  1  0  0  0
 52127  1  0  0  0
 52128  1  0  0  0
 53 54  1  0  0  0
 54 55  2  0  0  0
 54129  1  0  0  0
 55 57  1  0  0  0
 55130  1  0  0  0
 56 69  2  0  0  0
 57 58  2  0  0  0
 57131  1  0  0  0
 58132  1  0  0  0
 59 60  1  0  0  0
 59 61  1  0  0  0
 59 62  1  0  0  0
 60133  1  0  0  0
 60134  1  0  0  0
 60135  1  0  0  0
 61136  1  0  0  0
 61137  1  0  0  0
 61138  1  0  0  0
 62139  1  0  0  0
 62140  1  0  0  0
 62141  1  0  0  0
 63 65  1  0  0  0
 63142  1  0  0  0
 63143  1  0  0  0
 63144  1  0  0  0
 64145  1  0  0  0
 65146  1  0  0  0
 68 84  1  0  0  0
 71 72  2  0  0  0
 71 73  1  0  0  0
 71147  1  0  0  0
 72 76  1  0  0  0
 72148  1  0  0  0
 73 74  2  0  0  0
 73 77  1  0  0  0
 74 75  1  0  0  0
 74 80  1  0  0  0
 75 76  2  0  0  0
 75 78  1  0  0  0
 76 87  1  0  0  0
 77 86  2  0  0  0
 78149  1  0  0  0
 78150  1  0  0  0
 78151  1  0  0  0
 79 81  1  0  0  0
 79152  1  0  0  0
 79153  1  0  0  0
 79154  1  0  0  0
 80 81  1  0  0  0
 80155  1  0  0  0
 80156  1  0  0  0
 81157  1  0  0  0
 81158  1  0  0  0
 82 83  1  0  0  0
 82 84  1  0  0  0
 82159  1  0  0  0
 82160  1  0  0  0
 83 85  1  0  0  0
 83161  1  0  0  0
 83162  1  0  0  0
 84163  1  0  0  0
 84164  1  0  0  0
 85 87  1  0  0  0
 85165  1  0  0  0
 85166  1  0  0  0
 86167  1  0  0  0
M  ISO  4   1 100  68 101  77 100  84 101
M  END
> <chiral flag>
0

> <version>
0

> <s_m_source_file>
/data/baiqing/PycharmProjects/Reinvent-master-3.2/result/LINK_invent/BTK/process_docking_weight1_custom_product_contain_oxygen_bond_distance_aromatic_linkinvent_7_9_3/rearranged_h_0122.sdf

> <i_m_source_file_index>
37

> <r_mmod_Potential_Energy-OPLS-2005>
189.137298583984

> <r_mmod_Stretch_Energy-OPLS-2005>
49.4816207885742

> <r_mmod_Bend_Energy-OPLS-2005>
133.437118530273

> <r_mmod_Torsional_Energy-OPLS-2005>
220.489898681641

> <r_mmod_Improper_Torsional_Energy-OPLS-2005>
6.96521759033203

> <r_mmod_Van_der_Waal_Energy-OPLS-2005>
188.828994750977

> <r_mmod_Electrostatic_Energy-OPLS-2005>
-244.596908569336

> <r_mmod_Solvation_Energy-OPLS-2005>
-187.451416015625

> <b_mmod_Minimization_Converged-OPLS-2005>
0

> <r_mmod_RMS_Derivative-OPLS-2005>
6.50778913497925

$$$$
37
                    3D
 Structure written by MMmdl.
152160  0  0  1  0            999 V2000
  -30.7418  -14.3985   20.6800 C   0  0  0  0  0  0
  -30.4249  -12.3067   19.3951 C   0  0  0  0  0  0
  -29.4866  -12.5313   18.1931 C   0  0  0  0  0  0
  -28.0111  -12.3794   18.6103 C   0  0  0  0  0  0
  -27.6678  -13.1986   19.8815 C   0  0  2  0  0  0
  -28.7062  -12.9326   20.9933 C   0  0  0  0  0  0
  -25.2613  -13.8139   20.5673 C   0  0  0  0  0  0
  -24.1850  -13.0428   20.9159 C   0  0  0  0  0  0
  -24.6394  -11.6893   20.8721 C   0  0  0  0  0  0
  -23.9057  -10.4286   21.0398 C   0  0  0  0  0  0
  -24.3612   -9.4205   21.9176 C   0  0  0  0  0  0
  -23.6288   -8.2243   22.0752 C   0  0  0  0  0  0
  -22.4268   -8.0280   21.3545 C   0  0  0  0  0  0
  -21.9902   -9.0252   20.4645 C   0  0  0  0  0  0
  -22.7230  -10.2130   20.3048 C   0  0  0  0  0  0
  -21.6852   -6.0734   22.5280 C   0  0  0  0  0  0
  -21.4014   -6.5639   23.8214 C   0  0  0  0  0  0
  -21.3660   -5.6793   24.9176 C   0  0  0  0  0  0
  -21.6045   -4.3057   24.7229 C   0  0  0  0  0  0
  -21.8820   -3.8147   23.4351 C   0  0  0  0  0  0
  -21.9191   -4.6961   22.3406 C   0  0  0  0  0  0
  -22.7874  -13.5233   21.1837 C   0  0  0  0  0  0
  -22.1655   -4.2147   21.0982 F   0  0  0  0  0  0
  -21.5632   -3.4541   25.7743 F   0  0  0  0  0  0
  -30.0465  -13.2481   20.4602 N   0  0  0  0  0  0
  -26.3053  -12.9299   20.3387 N   0  0  0  0  0  0
  -25.9319  -11.6462   20.5754 N   0  0  0  0  0  0
  -22.0516  -12.8229   22.0399 N   0  0  0  0  0  0
  -25.4346  -15.1856   20.4086 N   0  0  0  0  0  0
  -31.7550  -14.6975   20.0407 O   0  0  0  0  0  0
  -21.6637   -6.8875   21.4240 O   0  0  0  0  0  0
  -22.3556  -14.5540   20.6690 O   0  0  0  0  0  0
  -24.6132  -31.8686   23.2107 C   0  0  0  0  0  0
  -25.9030  -32.4824   23.8399 C   0  0  1  0  0  0
  -27.2363  -27.4497   20.0944 C   0  0  0  0  0  0
  -25.5894  -33.8621   24.2332 N   0  0  0  0  0  0
  -23.4006  -30.4915   21.5508 C   0  0  2  0  0  0
  -24.8484  -28.9584   20.1155 C   0  0  0  0  0  0
  -22.7400  -29.4660   22.4996 C   0  0  0  0  0  0
  -18.0269  -28.1373   22.8493 C   0  0  0  0  0  0
  -24.1487  -36.7319   23.2635 C   0  0  0  0  0  0
  -25.9277  -30.8395   21.3608 C   0  0  0  0  0  0
  -26.0078  -29.4747   20.7085 C   0  0  0  0  0  0
  -27.2077  -28.7287   20.6920 C   0  0  0  0  0  0
  -26.0627  -26.9451   19.4934 C   0  0  0  0  0  0
  -24.8699  -27.6922   19.5046 C   0  0  0  0  0  0
  -23.6085  -29.8221   20.1658 C   0  0  0  0  0  0
  -25.4105  -36.3112   24.0338 C   0  0  1  0  0  0
  -20.5857  -28.3657   23.1322 C   0  0  2  0  0  0
  -20.6758  -26.9395   22.5417 C   0  0  0  0  0  0
  -19.5740  -26.6383   21.5211 C   0  0  0  0  0  0
  -18.1918  -26.7921   22.1622 C   0  0  0  0  0  0
  -19.1517  -28.8833   23.2904 C   0  0  0  0  0  0
  -18.9447  -30.1440   23.8912 C   0  0  0  0  0  0
  -17.6450  -30.6580   24.0566 C   0  0  0  0  0  0
  -25.9032  -34.9476   23.5132 C   0  0  0  0  0  0
  -16.5342  -29.9083   23.6324 C   0  0  0  0  0  0
  -16.7259  -28.6500   23.0345 C   0  0  0  0  0  0
  -26.4469  -31.6597   25.0718 C   0  0  0  0  0  0
  -25.3748  -31.3695   26.1475 C   0  0  0  0  0  0
  -27.0293  -30.3043   24.6071 C   0  0  0  0  0  0
  -27.6046  -32.4313   25.7480 C   0  0  0  0  0  0
  -27.5583  -37.1808   24.8460 C   0  0  0  0  0  0
  -21.4129  -29.3031   22.3736 N   0  0  0  0  0  0
  -26.4292  -37.3796   23.9412 N   0  0  0  0  0  0
  -24.6654  -31.0800   22.0998 N   0  0  0  0  0  0
  -23.4180  -28.8196   23.3027 O   0  0  0  0  0  0
  -28.3954  -26.7096   20.0845 O   0  0  0  0  0  0
  -26.5589  -34.8925   22.4689 O   0  0  0  0  0  0
  -23.5329  -32.1425   23.7514 O   0  0  0  0  0  0
  -28.9955  -18.8539   21.8185 C   0  0  0  0  0  0
  -30.7770  -18.4241   20.2290 C   0  0  0  0  0  0
  -28.9496  -20.2031   21.4140 C   0  0  0  0  0  0
  -30.7293  -19.7764   19.8214 C   0  0  0  0  0  0
  -29.9028  -17.9458   21.2357 C   0  0  0  0  0  0
  -29.8226  -20.6861   20.4083 C   0  0  0  0  0  0
  -29.9062  -16.5598   21.7558 C   0  0  0  0  0  0
  -30.2190  -15.2333   21.7694 C   0  0  0  0  0  0
  -29.1220  -24.3487   20.0496 C   0  0  0  0  0  0
  -28.9535  -22.9237   20.6023 C   0  0  0  0  0  0
  -28.2770  -25.4342   20.7353 C   0  0  0  0  0  0
  -29.8886  -24.6054   19.1121 O   0  0  0  0  0  0
  -29.8457  -21.9979   19.9700 O   0  0  0  0  0  0
  -31.4665  -12.4202   19.0898 H   0  0  0  0  0  0
  -30.3371  -11.2821   19.7602 H   0  0  0  0  0  0
  -29.7230  -11.8268   17.3948 H   0  0  0  0  0  0
  -29.6505  -13.5284   17.7810 H   0  0  0  0  0  0
  -27.8219  -11.3203   18.7902 H   0  0  0  0  0  0
  -27.3547  -12.6690   17.7890 H   0  0  0  0  0  0
  -27.7281  -14.2536   19.6136 H   0  0  0  0  0  0
  -28.6781  -11.8832   21.2901 H   0  0  0  0  0  0
  -28.4359  -13.4867   21.8914 H   0  0  0  0  0  0
  -25.2759   -9.5683   22.4747 H   0  0  0  0  0  0
  -23.9999   -7.4632   22.7467 H   0  0  0  0  0  0
  -21.0837   -8.8768   19.8950 H   0  0  0  0  0  0
  -22.3688  -10.9666   19.6155 H   0  0  0  0  0  0
  -21.2005   -7.6147   23.9721 H   0  0  0  0  0  0
  -21.1479   -6.0520   25.9080 H   0  0  0  0  0  0
  -22.0600   -2.7610   23.2851 H   0  0  0  0  0  0
  -22.4122  -11.9884   22.4788 H   0  0  0  0  0  0
  -21.1136  -13.1262   22.2611 H   0  0  0  0  0  0
  -24.6744  -15.8464   20.5265 H   0  0  0  0  0  0
  -26.3024  -15.6249   20.1276 H   0  0  0  0  0  0
  -26.7101  -32.5546   23.1167 H   0  0  0  0  0  0
  -25.0068  -33.9790   25.0493 H   0  0  0  0  0  0
  -22.6889  -31.3076   21.4111 H   0  0  0  0  0  0
  -23.3741  -35.9661   23.3311 H   0  0  0  0  0  0
  -24.3584  -36.8918   22.2048 H   0  0  0  0  0  0
  -23.7249  -37.6532   23.6639 H   0  0  0  0  0  0
  -26.0358  -31.6062   20.5923 H   0  0  0  0  0  0
  -26.8169  -30.8948   21.9768 H   0  0  0  0  0  0
  -28.1046  -29.1244   21.1482 H   0  0  0  0  0  0
  -26.0692  -25.9779   19.0108 H   0  0  0  0  0  0
  -23.9797  -27.2912   19.0399 H   0  0  0  0  0  0
  -23.7131  -30.5955   19.4041 H   0  0  0  0  0  0
  -22.7344  -29.2381   19.8719 H   0  0  0  0  0  0
  -25.1282  -36.1978   25.0831 H   0  0  0  0  0  0
  -20.9949  -28.3216   24.1442 H   0  0  0  0  0  0
  -20.5658  -26.2263   23.3600 H   0  0  0  0  0  0
  -21.6630  -26.7438   22.1209 H   0  0  0  0  0  0
  -19.6901  -25.6297   21.1230 H   0  0  0  0  0  0
  -19.6682  -27.3203   20.6750 H   0  0  0  0  0  0
  -17.4188  -26.6668   21.4023 H   0  0  0  0  0  0
  -18.0322  -26.0056   22.9012 H   0  0  0  0  0  0
  -19.7925  -30.7253   24.2283 H   0  0  0  0  0  0
  -17.5007  -31.6262   24.5163 H   0  0  0  0  0  0
  -15.5343  -30.2993   23.7641 H   0  0  0  0  0  0
  -15.8656  -28.0829   22.7048 H   0  0  0  0  0  0
  -24.5917  -30.7042   25.7820 H   0  0  0  0  0  0
  -24.8946  -32.2849   26.4943 H   0  0  0  0  0  0
  -25.8117  -30.8855   27.0219 H   0  0  0  0  0  0
  -26.2824  -29.6812   24.1133 H   0  0  0  0  0  0
  -27.4082  -29.7267   25.4514 H   0  0  0  0  0  0
  -27.8653  -30.4370   23.9198 H   0  0  0  0  0  0
  -27.2659  -33.3593   26.2100 H   0  0  0  0  0  0
  -28.3835  -32.6905   25.0296 H   0  0  0  0  0  0
  -28.0737  -31.8412   26.5364 H   0  0  0  0  0  0
  -28.2592  -38.0113   24.7523 H   0  0  0  0  0  0
  -28.1087  -36.2647   24.6263 H   0  0  0  0  0  0
  -27.2305  -37.1430   25.8863 H   0  0  0  0  0  0
  -20.9284  -29.8768   21.6975 H   0  0  0  0  0  0
  -26.0181  -38.2873   24.1422 H   0  0  0  0  0  0
  -28.3232  -18.5161   22.5954 H   0  0  0  0  0  0
  -31.4934  -17.7560   19.7706 H   0  0  0  0  0  0
  -28.2322  -20.8456   21.9023 H   0  0  0  0  0  0
  -31.4063  -20.1210   19.0525 H   0  0  0  0  0  0
  -29.7618  -16.4211   20.6956 H   0  0  0  0  0  0
  -30.1024  -14.7373   22.7218 H   0  0  0  0  0  0
  -27.9206  -22.6121   20.4434 H   0  0  0  0  0  0
  -29.1378  -22.9462   21.6768 H   0  0  0  0  0  0
  -28.6150  -25.5370   21.7664 H   0  0  0  0  0  0
  -27.2456  -25.0842   20.7803 H   0  0  0  0  0  0
  1 25  1  0  0  0
  1 30  2  0  0  0
  1 78  1  0  0  0
  2  3  1  0  0  0
  2 25  1  0  0  0
  2 84  1  0  0  0
  2 85  1  0  0  0
  3  4  1  0  0  0
  3 86  1  0  0  0
  3 87  1  0  0  0
  4  5  1  0  0  0
  4 88  1  0  0  0
  4 89  1  0  0  0
  5  6  1  0  0  0
  5 26  1  0  0  0
  5 90  1  0  0  0
  6 25  1  0  0  0
  6 91  1  0  0  0
  6 92  1  0  0  0
  7  8  2  0  0  0
  7 26  1  0  0  0
  7 29  1  0  0  0
  8  9  1  0  0  0
  8 22  1  0  0  0
  9 10  1  0  0  0
  9 27  2  0  0  0
 10 11  2  0  0  0
 10 15  1  0  0  0
 11 12  1  0  0  0
 11 93  1  0  0  0
 12 13  2  0  0  0
 12 94  1  0  0  0
 13 14  1  0  0  0
 13 31  1  0  0  0
 14 15  2  0  0  0
 14 95  1  0  0  0
 15 96  1  0  0  0
 16 17  2  0  0  0
 16 21  1  0  0  0
 16 31  1  0  0  0
 17 18  1  0  0  0
 17 97  1  0  0  0
 18 19  2  0  0  0
 18 98  1  0  0  0
 19 20  1  0  0  0
 19 24  1  0  0  0
 20 21  2  0  0  0
 20 99  1  0  0  0
 21 23  1  0  0  0
 22 28  1  0  0  0
 22 32  2  0  0  0
 26 27  1  0  0  0
 28100  1  0  0  0
 28101  1  0  0  0
 29102  1  0  0  0
 29103  1  0  0  0
 33 34  1  0  0  0
 33 66  1  0  0  0
 33 70  2  0  0  0
 34 36  1  0  0  0
 34 59  1  0  0  0
 34104  1  0  0  0
 35 44  2  0  0  0
 35 45  1  0  0  0
 35 68  1  0  0  0
 36 56  1  0  0  0
 36105  1  0  0  0
 37 39  1  0  0  0
 37 47  1  0  0  0
 37 66  1  0  0  0
 37106  1  0  0  0
 38 43  2  0  0  0
 38 46  1  0  0  0
 38 47  1  0  0  0
 39 64  1  0  0  0
 39 67  2  0  0  0
 40 52  1  0  0  0
 40 53  2  0  0  0
 40 58  1  0  0  0
 41107  1  0  0  0
 41108  1  0  0  0
 41109  1  0  0  0
 41 48  1  0  0  0
 42 43  1  0  0  0
 42 66  1  0  0  0
 42110  1  0  0  0
 42111  1  0  0  0
 43 44  1  0  0  0
 44112  1  0  0  0
 45 46  2  0  0  0
 45113  1  0  0  0
 46114  1  0  0  0
 47115  1  0  0  0
 47116  1  0  0  0
 48 56  1  0  0  0
 48 65  1  0  0  0
 48117  1  0  0  0
 49 50  1  0  0  0
 49 53  1  0  0  0
 49 64  1  0  0  0
 49118  1  0  0  0
 50 51  1  0  0  0
 50119  1  0  0  0
 50120  1  0  0  0
 51 52  1  0  0  0
 51121  1  0  0  0
 51122  1  0  0  0
 52123  1  0  0  0
 52124  1  0  0  0
 53 54  1  0  0  0
 54 55  2  0  0  0
 54125  1  0  0  0
 55 57  1  0  0  0
 55126  1  0  0  0
 56 69  2  0  0  0
 57 58  2  0  0  0
 57127  1  0  0  0
 58128  1  0  0  0
 59 60  1  0  0  0
 59 61  1  0  0  0
 59 62  1  0  0  0
 60129  1  0  0  0
 60130  1  0  0  0
 60131  1  0  0  0
 61132  1  0  0  0
 61133  1  0  0  0
 61134  1  0  0  0
 62135  1  0  0  0
 62136  1  0  0  0
 62137  1  0  0  0
 63 65  1  0  0  0
 63138  1  0  0  0
 63139  1  0  0  0
 63140  1  0  0  0
 64141  1  0  0  0
 65142  1  0  0  0
 68 81  1  0  0  0
 71 73  2  0  0  0
 71 75  1  0  0  0
 71143  1  0  0  0
 72 74  1  0  0  0
 72 75  2  0  0  0
 72144  1  0  0  0
 73 76  1  0  0  0
 73145  1  0  0  0
 74 76  2  0  0  0
 74146  1  0  0  0
 75 77  1  0  0  0
 76 83  1  0  0  0
 77 78  2  0  0  0
 77147  1  0  0  0
 78148  1  0  0  0
 79 80  1  0  0  0
 79 81  1  0  0  0
 79 82  2  0  0  0
 80 83  1  0  0  0
 80149  1  0  0  0
 80150  1  0  0  0
 81151  1  0  0  0
 81152  1  0  0  0
M  ISO  4   1 100  68 101  78 100  81 101
M  END
> <chiral flag>
0

> <version>
0

> <s_m_source_file>
/data/baiqing/PycharmProjects/Reinvent-master-3.2/result/LINK_invent/BTK/process_docking_weight1_custom_product_contain_oxygen_bond_distance_aromatic_linkinvent_7_9_3/rearranged_h_0122.sdf

> <i_m_source_file_index>
38

> <r_mmod_Potential_Energy-OPLS-2005>
252.034896850586

> <r_mmod_Stretch_Energy-OPLS-2005>
37.3817291259766

> <r_mmod_Bend_Energy-OPLS-2005>
321.375396728516

> <r_mmod_Torsional_Energy-OPLS-2005>
231.450912475586

> <r_mmod_Improper_Torsional_Energy-OPLS-2005>
11.2531900405884

> <r_mmod_Van_der_Waal_Energy-OPLS-2005>
169.440948486328

> <r_mmod_Electrostatic_Energy-OPLS-2005>
-297.700286865234

> <r_mmod_Solvation_Energy-OPLS-2005>
-229.186218261719

> <b_mmod_Minimization_Converged-OPLS-2005>
0

> <r_mmod_RMS_Derivative-OPLS-2005>
0.527175664901733

$$$$
38
                    3D
 Structure written by MMmdl.
162170  0  0  1  0            999 V2000
  -30.7826  -14.4398   20.5002 C   0  0  0  0  0  0
  -30.3432  -12.2816   19.4234 C   0  0  0  0  0  0
  -29.4694  -12.5764   18.1940 C   0  0  0  0  0  0
  -27.9924  -12.4237   18.5920 C   0  0  0  0  0  0
  -27.6420  -13.2435   19.8655 C   0  0  2  0  0  0
  -28.6840  -13.0702   20.9942 C   0  0  0  0  0  0
  -25.2493  -13.8224   20.5738 C   0  0  0  0  0  0
  -24.1799  -13.0450   20.9150 C   0  0  0  0  0  0
  -24.6430  -11.6911   20.8706 C   0  0  0  0  0  0
  -23.9121  -10.4265   21.0380 C   0  0  0  0  0  0
  -24.3706   -9.4181   21.9153 C   0  0  0  0  0  0
  -23.6338   -8.2228   22.0721 C   0  0  0  0  0  0
  -22.4312   -8.0273   21.3533 C   0  0  0  0  0  0
  -21.9971   -9.0241   20.4633 C   0  0  0  0  0  0
  -22.7281  -10.2101   20.3040 C   0  0  0  0  0  0
  -21.6860   -6.0763   22.5295 C   0  0  0  0  0  0
  -21.4004   -6.5661   23.8204 C   0  0  0  0  0  0
  -21.3662   -5.6830   24.9180 C   0  0  0  0  0  0
  -21.6054   -4.3079   24.7224 C   0  0  0  0  0  0
  -21.8817   -3.8161   23.4336 C   0  0  0  0  0  0
  -21.9183   -4.6988   22.3411 C   0  0  0  0  0  0
  -22.7807  -13.5173   21.1831 C   0  0  0  0  0  0
  -22.1658   -4.2160   21.0997 F   0  0  0  0  0  0
  -21.5640   -3.4568   25.7750 F   0  0  0  0  0  0
  -30.0161  -13.3117   20.4294 N   0  0  0  0  0  0
  -26.2927  -12.9489   20.3344 N   0  0  0  0  0  0
  -25.9373  -11.6587   20.5716 N   0  0  0  0  0  0
  -22.0519  -12.8140   22.0410 N   0  0  0  0  0  0
  -25.4213  -15.1940   20.4267 N   0  0  0  0  0  0
  -31.9125  -14.4205   20.0045 O   0  0  0  0  0  0
  -21.6676   -6.8870   21.4243 O   0  0  0  0  0  0
  -22.3464  -14.5481   20.6657 O   0  0  0  0  0  0
  -24.6127  -31.8624   23.2128 C   0  0  0  0  0  0
  -25.9069  -32.4742   23.8377 C   0  0  1  0  0  0
  -27.2612  -27.4549   20.0688 C   0  0  0  0  0  0
  -25.5961  -33.8547   24.2316 N   0  0  0  0  0  0
  -23.3973  -30.4861   21.5503 C   0  0  2  0  0  0
  -24.8476  -28.9435   20.1211 C   0  0  0  0  0  0
  -22.7406  -29.4574   22.4988 C   0  0  0  0  0  0
  -18.0241  -28.1322   22.8414 C   0  0  0  0  0  0
  -24.1456  -36.7242   23.2580 C   0  0  0  0  0  0
  -25.9264  -30.8291   21.3690 C   0  0  0  0  0  0
  -26.0061  -29.4693   20.7010 C   0  0  0  0  0  0
  -27.2074  -28.7339   20.6632 C   0  0  0  0  0  0
  -26.0709  -26.9137   19.5218 C   0  0  0  0  0  0
  -24.8703  -27.6616   19.5409 C   0  0  0  0  0  0
  -23.6124  -29.8205   20.1623 C   0  0  0  0  0  0
  -25.4025  -36.3020   24.0354 C   0  0  1  0  0  0
  -20.5833  -28.3539   23.1304 C   0  0  2  0  0  0
  -20.6695  -26.9249   22.5427 C   0  0  0  0  0  0
  -19.5741  -26.6296   21.5136 C   0  0  0  0  0  0
  -18.1871  -26.7884   22.1461 C   0  0  0  0  0  0
  -19.1506  -28.8753   23.2840 C   0  0  0  0  0  0
  -18.9455  -30.1396   23.8801 C   0  0  0  0  0  0
  -17.6457  -30.6506   24.0540 C   0  0  0  0  0  0
  -25.9041  -34.9435   23.5119 C   0  0  0  0  0  0
  -16.5329  -29.8982   23.6371 C   0  0  0  0  0  0
  -16.7241  -28.6443   23.0285 C   0  0  0  0  0  0
  -26.4499  -31.6529   25.0718 C   0  0  0  0  0  0
  -25.3871  -31.3789   26.1605 C   0  0  0  0  0  0
  -27.0203  -30.2860   24.6195 C   0  0  0  0  0  0
  -27.6090  -32.4243   25.7421 C   0  0  0  0  0  0
  -27.5693  -37.1555   24.8297 C   0  0  0  0  0  0
  -21.4131  -29.2927   22.3754 N   0  0  0  0  0  0
  -26.4088  -37.3850   23.9729 N   0  0  0  0  0  0
  -24.6606  -31.0749   22.0998 N   0  0  0  0  0  0
  -23.4226  -28.8130   23.2991 O   0  0  0  0  0  0
  -28.4988  -26.8395   20.0613 O   0  0  0  0  0  0
  -26.5585  -34.8933   22.4660 O   0  0  0  0  0  0
  -23.5346  -32.1364   23.7579 O   0  0  0  0  0  0
  -32.3512  -18.6588   21.3695 C   0  0  0  0  0  0
  -32.6251  -19.9716   21.7671 C   0  0  0  0  0  0
  -29.9546  -19.1100   21.4234 C   0  0  0  0  0  0
  -31.0255  -18.2061   21.1857 C   0  0  0  0  0  0
  -31.5752  -20.8863   21.9524 C   0  0  0  0  0  0
  -30.2266  -20.4674   21.7749 C   0  0  0  0  0  0
  -33.9341  -23.5920   21.1934 C   0  0  0  0  0  0
  -30.9746  -16.8065   20.7274 C   0  0  0  0  0  0
  -30.2733  -15.6927   21.0808 C   0  0  0  0  0  0
  -32.8069  -22.8692   21.1066 C   0  0  0  0  0  0
  -28.8909  -24.4577   20.5655 C   0  0  0  0  0  0
  -31.9654  -22.3269   22.2558 C   0  0  0  0  0  0
  -29.2150  -23.0233   20.0999 C   0  0  0  0  0  0
  -28.7274  -25.5487   19.4729 C   0  0  0  0  0  0
  -28.4963  -21.8709   20.8551 C   0  0  0  0  0  0
  -28.8452  -24.7384   21.7673 O   0  0  0  0  0  0
  -29.2144  -21.3777   21.9963 O   0  0  0  0  0  0
  -31.3964  -12.2444   19.1492 H   0  0  0  0  0  0
  -30.1053  -11.2855   19.8057 H   0  0  0  0  0  0
  -29.7219  -11.9345   17.3506 H   0  0  0  0  0  0
  -29.6392  -13.5995   17.8483 H   0  0  0  0  0  0
  -27.7977  -11.3601   18.7484 H   0  0  0  0  0  0
  -27.3462  -12.7337   17.7687 H   0  0  0  0  0  0
  -27.6666  -14.2944   19.5691 H   0  0  0  0  0  0
  -28.6396  -12.0561   21.3958 H   0  0  0  0  0  0
  -28.4667  -13.7362   21.8311 H   0  0  0  0  0  0
  -25.2875   -9.5688   22.4671 H   0  0  0  0  0  0
  -24.0081   -7.4666   22.7462 H   0  0  0  0  0  0
  -21.0868   -8.8754   19.8954 H   0  0  0  0  0  0
  -22.3732  -10.9667   19.6144 H   0  0  0  0  0  0
  -21.1991   -7.6157   23.9711 H   0  0  0  0  0  0
  -21.1491   -6.0559   25.9078 H   0  0  0  0  0  0
  -22.0581   -2.7611   23.2866 H   0  0  0  0  0  0
  -22.4184  -11.9799   22.4779 H   0  0  0  0  0  0
  -21.1150  -13.1138   22.2702 H   0  0  0  0  0  0
  -24.6596  -15.8550   20.5223 H   0  0  0  0  0  0
  -26.3037  -15.6320   20.1985 H   0  0  0  0  0  0
  -26.7115  -32.5413   23.1100 H   0  0  0  0  0  0
  -25.0240  -33.9709   25.0556 H   0  0  0  0  0  0
  -22.6806  -31.2961   21.4075 H   0  0  0  0  0  0
  -23.3986  -35.9286   23.2542 H   0  0  0  0  0  0
  -24.3794  -36.9571   22.2184 H   0  0  0  0  0  0
  -23.6772  -37.6021   23.7027 H   0  0  0  0  0  0
  -26.0694  -31.6205   20.6317 H   0  0  0  0  0  0
  -26.7961  -30.8464   22.0120 H   0  0  0  0  0  0
  -28.1126  -29.1543   21.0764 H   0  0  0  0  0  0
  -26.0468  -25.9286   19.0793 H   0  0  0  0  0  0
  -23.9647  -27.2447   19.1196 H   0  0  0  0  0  0
  -23.7525  -30.6024   19.4123 H   0  0  0  0  0  0
  -22.7294  -29.2640   19.8419 H   0  0  0  0  0  0
  -25.1095  -36.1686   25.0793 H   0  0  0  0  0  0
  -20.9847  -28.3044   24.1452 H   0  0  0  0  0  0
  -20.5334  -26.2158   23.3613 H   0  0  0  0  0  0
  -21.6606  -26.7124   22.1378 H   0  0  0  0  0  0
  -19.6856  -25.6190   21.1189 H   0  0  0  0  0  0
  -19.6775  -27.3091   20.6667 H   0  0  0  0  0  0
  -17.4185  -26.6712   21.3786 H   0  0  0  0  0  0
  -18.0160  -25.9962   22.8761 H   0  0  0  0  0  0
  -19.7960  -30.7256   24.2037 H   0  0  0  0  0  0
  -17.5012  -31.6181   24.5135 H   0  0  0  0  0  0
  -15.5335  -30.2819   23.7802 H   0  0  0  0  0  0
  -15.8629  -28.0784   22.6933 H   0  0  0  0  0  0
  -24.6085  -30.6927   25.8271 H   0  0  0  0  0  0
  -24.9041  -32.2986   26.4911 H   0  0  0  0  0  0
  -25.8412  -30.9284   27.0443 H   0  0  0  0  0  0
  -26.2678  -29.6626   24.1332 H   0  0  0  0  0  0
  -27.3894  -29.7113   25.4713 H   0  0  0  0  0  0
  -27.8604  -30.3978   23.9328 H   0  0  0  0  0  0
  -27.2698  -33.3569   26.1937 H   0  0  0  0  0  0
  -28.3927  -32.6734   25.0257 H   0  0  0  0  0  0
  -28.0685  -31.8399   26.5399 H   0  0  0  0  0  0
  -28.2006  -38.0458   24.8496 H   0  0  0  0  0  0
  -28.1821  -36.3317   24.4612 H   0  0  0  0  0  0
  -27.2781  -36.9320   25.8579 H   0  0  0  0  0  0
  -20.9236  -29.8767   21.7127 H   0  0  0  0  0  0
  -25.9894  -38.2660   24.2560 H   0  0  0  0  0  0
  -33.1934  -18.0007   21.1965 H   0  0  0  0  0  0
  -33.6580  -20.2769   21.8855 H   0  0  0  0  0  0
  -28.9329  -18.7805   21.3077 H   0  0  0  0  0  0
  -34.4577  -23.8851   20.2909 H   0  0  0  0  0  0
  -34.3631  -23.8976   22.1366 H   0  0  0  0  0  0
  -31.7157  -16.6879   19.9463 H   0  0  0  0  0  0
  -29.4599  -15.7346   21.7890 H   0  0  0  0  0  0
  -32.4452  -22.6209   20.1195 H   0  0  0  0  0  0
  -32.5229  -22.3725   23.1950 H   0  0  0  0  0  0
  -31.0780  -22.9476   22.3964 H   0  0  0  0  0  0
  -30.2907  -22.8777   20.1442 H   0  0  0  0  0  0
  -28.9541  -22.9718   19.0435 H   0  0  0  0  0  0
  -28.0124  -25.2922   18.6902 H   0  0  0  0  0  0
  -29.6870  -25.6283   18.9553 H   0  0  0  0  0  0
  -28.2826  -21.0617   20.1560 H   0  0  0  0  0  0
  -27.5159  -22.2118   21.1965 H   0  0  0  0  0  0
  1 25  1  0  0  0
  1 30  2  0  0  0
  1 79  1  0  0  0
  2  3  1  0  0  0
  2 25  1  0  0  0
  2 88  1  0  0  0
  2 89  1  0  0  0
  3  4  1  0  0  0
  3 90  1  0  0  0
  3 91  1  0  0  0
  4  5  1  0  0  0
  4 92  1  0  0  0
  4 93  1  0  0  0
  5  6  1  0  0  0
  5 26  1  0  0  0
  5 94  1  0  0  0
  6 25  1  0  0  0
  6 95  1  0  0  0
  6 96  1  0  0  0
  7  8  2  0  0  0
  7 26  1  0  0  0
  7 29  1  0  0  0
  8  9  1  0  0  0
  8 22  1  0  0  0
  9 10  1  0  0  0
  9 27  2  0  0  0
 10 11  2  0  0  0
 10 15  1  0  0  0
 11 12  1  0  0  0
 11 97  1  0  0  0
 12 13  2  0  0  0
 12 98  1  0  0  0
 13 14  1  0  0  0
 13 31  1  0  0  0
 14 15  2  0  0  0
 14 99  1  0  0  0
 15100  1  0  0  0
 16 17  2  0  0  0
 16 21  1  0  0  0
 16 31  1  0  0  0
 17 18  1  0  0  0
 17101  1  0  0  0
 18 19  2  0  0  0
 18102  1  0  0  0
 19 20  1  0  0  0
 19 24  1  0  0  0
 20 21  2  0  0  0
 20103  1  0  0  0
 21 23  1  0  0  0
 22 28  1  0  0  0
 22 32  2  0  0  0
 26 27  1  0  0  0
 28104  1  0  0  0
 28105  1  0  0  0
 29106  1  0  0  0
 29107  1  0  0  0
 33 34  1  0  0  0
 33 66  1  0  0  0
 33 70  2  0  0  0
 34 36  1  0  0  0
 34 59  1  0  0  0
 34108  1  0  0  0
 35 44  2  0  0  0
 35 45  1  0  0  0
 35 68  1  0  0  0
 36 56  1  0  0  0
 36109  1  0  0  0
 37 39  1  0  0  0
 37 47  1  0  0  0
 37 66  1  0  0  0
 37110  1  0  0  0
 38 43  2  0  0  0
 38 46  1  0  0  0
 38 47  1  0  0  0
 39 64  1  0  0  0
 39 67  2  0  0  0
 40 52  1  0  0  0
 40 53  2  0  0  0
 40 58  1  0  0  0
 41111  1  0  0  0
 41112  1  0  0  0
 41113  1  0  0  0
 41 48  1  0  0  0
 42 43  1  0  0  0
 42 66  1  0  0  0
 42114  1  0  0  0
 42115  1  0  0  0
 43 44  1  0  0  0
 44116  1  0  0  0
 45 46  2  0  0  0
 45117  1  0  0  0
 46118  1  0  0  0
 47119  1  0  0  0
 47120  1  0  0  0
 48 56  1  0  0  0
 48 65  1  0  0  0
 48121  1  0  0  0
 49 50  1  0  0  0
 49 53  1  0  0  0
 49 64  1  0  0  0
 49122  1  0  0  0
 50 51  1  0  0  0
 50123  1  0  0  0
 50124  1  0  0  0
 51 52  1  0  0  0
 51125  1  0  0  0
 51126  1  0  0  0
 52127  1  0  0  0
 52128  1  0  0  0
 53 54  1  0  0  0
 54 55  2  0  0  0
 54129  1  0  0  0
 55 57  1  0  0  0
 55130  1  0  0  0
 56 69  2  0  0  0
 57 58  2  0  0  0
 57131  1  0  0  0
 58132  1  0  0  0
 59 60  1  0  0  0
 59 61  1  0  0  0
 59 62  1  0  0  0
 60133  1  0  0  0
 60134  1  0  0  0
 60135  1  0  0  0
 61136  1  0  0  0
 61137  1  0  0  0
 61138  1  0  0  0
 62139  1  0  0  0
 62140  1  0  0  0
 62141  1  0  0  0
 63 65  1  0  0  0
 63142  1  0  0  0
 63143  1  0  0  0
 63144  1  0  0  0
 64145  1  0  0  0
 65146  1  0  0  0
 68 84  1  0  0  0
 71 72  2  0  0  0
 71 74  1  0  0  0
 71147  1  0  0  0
 72 75  1  0  0  0
 72148  1  0  0  0
 73 74  2  0  0  0
 73 76  1  0  0  0
 73149  1  0  0  0
 74 78  1  0  0  0
 75 76  2  0  0  0
 75 82  1  0  0  0
 76 87  1  0  0  0
 77 80  2  0  0  0
 77150  1  0  0  0
 77151  1  0  0  0
 78 79  2  0  0  0
 78152  1  0  0  0
 79153  1  0  0  0
 80 82  1  0  0  0
 80154  1  0  0  0
 81 83  1  0  0  0
 81 84  1  0  0  0
 81 86  2  0  0  0
 82155  1  0  0  0
 82156  1  0  0  0
 83 85  1  0  0  0
 83157  1  0  0  0
 83158  1  0  0  0
 84159  1  0  0  0
 84160  1  0  0  0
 85 87  1  0  0  0
 85161  1  0  0  0
 85162  1  0  0  0
M  ISO  4   1 100  68 101  79 100  84 101
M  END
> <chiral flag>
0

> <version>
0

> <s_m_source_file>
/data/baiqing/PycharmProjects/Reinvent-master-3.2/result/LINK_invent/BTK/process_docking_weight1_custom_product_contain_oxygen_bond_distance_aromatic_linkinvent_7_9_3/rearranged_h_0122.sdf

> <i_m_source_file_index>
39

> <r_mmod_Potential_Energy-OPLS-2005>
73.7484436035156

> <r_mmod_Stretch_Energy-OPLS-2005>
43.3980026245117

> <r_mmod_Bend_Energy-OPLS-2005>
166.627502441406

> <r_mmod_Torsional_Energy-OPLS-2005>
221.372802734375

> <r_mmod_Improper_Torsional_Energy-OPLS-2005>
3.85997462272644

> <r_mmod_Van_der_Waal_Energy-OPLS-2005>
158.563613891602

> <r_mmod_Electrostatic_Energy-OPLS-2005>
-323.880249023438

> <r_mmod_Solvation_Energy-OPLS-2005>
-223.132110595703

> <b_mmod_Minimization_Converged-OPLS-2005>
0

> <r_mmod_RMS_Derivative-OPLS-2005>
7.94188165664673

$$$$
39
                    3D
 Structure written by MMmdl.
155163  0  0  1  0            999 V2000
  -30.6646  -14.5670   20.5861 C   0  0  0  0  0  0
  -30.4377  -12.3720   19.4311 C   0  0  0  0  0  0
  -29.5028  -12.5269   18.2106 C   0  0  0  0  0  0
  -28.0238  -12.3667   18.6171 C   0  0  0  0  0  0
  -27.6624  -13.2048   19.8719 C   0  0  2  0  0  0
  -28.7031  -12.9880   20.9887 C   0  0  0  0  0  0
  -25.2615  -13.8137   20.5658 C   0  0  0  0  0  0
  -24.1857  -13.0433   20.9136 C   0  0  0  0  0  0
  -24.6404  -11.6897   20.8707 C   0  0  0  0  0  0
  -23.9063  -10.4296   21.0394 C   0  0  0  0  0  0
  -24.3621   -9.4213   21.9173 C   0  0  0  0  0  0
  -23.6289   -8.2254   22.0761 C   0  0  0  0  0  0
  -22.4268   -8.0294   21.3549 C   0  0  0  0  0  0
  -21.9901   -9.0265   20.4647 C   0  0  0  0  0  0
  -22.7231  -10.2141   20.3048 C   0  0  0  0  0  0
  -21.6862   -6.0735   22.5279 C   0  0  0  0  0  0
  -21.4014   -6.5638   23.8210 C   0  0  0  0  0  0
  -21.3662   -5.6791   24.9176 C   0  0  0  0  0  0
  -21.6044   -4.3054   24.7225 C   0  0  0  0  0  0
  -21.8821   -3.8143   23.4349 C   0  0  0  0  0  0
  -21.9195   -4.6961   22.3402 C   0  0  0  0  0  0
  -22.7887  -13.5263   21.1807 C   0  0  0  0  0  0
  -22.1666   -4.2144   21.0981 F   0  0  0  0  0  0
  -21.5629   -3.4542   25.7741 F   0  0  0  0  0  0
  -30.0253  -13.3596   20.4493 N   0  0  0  0  0  0
  -26.3042  -12.9297   20.3332 N   0  0  0  0  0  0
  -25.9333  -11.6462   20.5728 N   0  0  0  0  0  0
  -22.0528  -12.8274   22.0369 N   0  0  0  0  0  0
  -25.4358  -15.1860   20.4106 N   0  0  0  0  0  0
  -31.7816  -14.7449   20.0900 O   0  0  0  0  0  0
  -21.6643   -6.8886   21.4243 O   0  0  0  0  0  0
  -22.3589  -14.5576   20.6662 O   0  0  0  0  0  0
  -24.6215  -31.8617   23.2069 C   0  0  0  0  0  0
  -25.9079  -32.4786   23.8383 C   0  0  1  0  0  0
  -27.2325  -27.3626   20.1149 C   0  0  0  0  0  0
  -25.5924  -33.8594   24.2309 N   0  0  0  0  0  0
  -23.4144  -30.4855   21.5450 C   0  0  2  0  0  0
  -24.8630  -28.9452   20.1155 C   0  0  0  0  0  0
  -22.7440  -29.4625   22.4929 C   0  0  0  0  0  0
  -18.0279  -28.1397   22.8461 C   0  0  0  0  0  0
  -24.1491  -36.7304   23.2637 C   0  0  0  0  0  0
  -25.9511  -30.8074   21.3720 C   0  0  0  0  0  0
  -26.0285  -29.4366   20.7182 C   0  0  0  0  0  0
  -27.2166  -28.6550   20.7101 C   0  0  0  0  0  0
  -26.0463  -26.9135   19.4902 C   0  0  0  0  0  0
  -24.8718  -27.6877   19.4932 C   0  0  0  0  0  0
  -23.6299  -29.8212   20.1597 C   0  0  0  0  0  0
  -25.4111  -36.3090   24.0334 C   0  0  1  0  0  0
  -20.5873  -28.3690   23.1282 C   0  0  2  0  0  0
  -20.6777  -26.9418   22.5406 C   0  0  0  0  0  0
  -19.5760  -26.6390   21.5200 C   0  0  0  0  0  0
  -18.1933  -26.7938   22.1605 C   0  0  0  0  0  0
  -19.1530  -28.8857   23.2867 C   0  0  0  0  0  0
  -18.9459  -30.1462   23.8877 C   0  0  0  0  0  0
  -17.6462  -30.6593   24.0563 C   0  0  0  0  0  0
  -25.9042  -34.9456   23.5114 C   0  0  0  0  0  0
  -16.5350  -29.9093   23.6334 C   0  0  0  0  0  0
  -16.7265  -28.6523   23.0324 C   0  0  0  0  0  0
  -26.4502  -31.6582   25.0722 C   0  0  0  0  0  0
  -25.3784  -31.3693   26.1480 C   0  0  0  0  0  0
  -27.0342  -30.3012   24.6144 C   0  0  0  0  0  0
  -27.6060  -32.4314   25.7494 C   0  0  0  0  0  0
  -27.5575  -37.1811   24.8463 C   0  0  0  0  0  0
  -21.4154  -29.3050   22.3676 N   0  0  0  0  0  0
  -26.4289  -37.3775   23.9406 N   0  0  0  0  0  0
  -24.6803  -31.0673   22.0987 N   0  0  0  0  0  0
  -23.4175  -28.8159   23.2996 O   0  0  0  0  0  0
  -28.3716  -26.5604   20.1306 O   0  0  0  0  0  0
  -26.5583  -34.8908   22.4661 O   0  0  0  0  0  0
  -23.5385  -32.1395   23.7418 O   0  0  0  0  0  0
  -29.9720  -19.4026   20.4108 C   0  0  0  0  0  0
  -31.1848  -20.0263   18.4081 C   0  0  0  0  0  0
  -30.9935  -17.6733   19.0266 C   0  0  0  0  0  0
  -30.4455  -20.4342   19.5382 C   0  0  0  0  0  0
  -30.2635  -18.0092   20.1859 C   0  0  0  0  0  0
  -31.4566  -18.6702   18.1480 C   0  0  0  0  0  0
  -30.2588  -21.9271   19.6422 C   0  0  0  0  0  0
  -29.8093  -16.9643   21.1709 C   0  0  0  0  0  0
  -29.3148  -22.7300   20.2103 C   0  0  0  0  0  0
  -29.9385  -15.6070   21.3509 C   0  0  0  0  0  0
  -29.4130  -24.2381   20.1134 C   0  0  0  0  0  0
  -32.2576  -18.2787   16.9221 C   0  0  0  0  0  0
  -28.1674  -25.1308   20.3985 C   0  0  0  0  0  0
  -30.4692  -24.8003   19.8001 O   0  0  0  0  0  0
  -31.4774  -12.4947   19.1236 H   0  0  0  0  0  0
  -30.3702  -11.3607   19.8353 H   0  0  0  0  0  0
  -29.7598  -11.7964   17.4420 H   0  0  0  0  0  0
  -29.6520  -13.5094   17.7583 H   0  0  0  0  0  0
  -27.8465  -11.3082   18.8138 H   0  0  0  0  0  0
  -27.3753  -12.6343   17.7823 H   0  0  0  0  0  0
  -27.7087  -14.2548   19.5835 H   0  0  0  0  0  0
  -28.7130  -11.9404   21.2928 H   0  0  0  0  0  0
  -28.4160  -13.5251   21.8890 H   0  0  0  0  0  0
  -25.2786   -9.5689   22.4735 H   0  0  0  0  0  0
  -24.0001   -7.4653   22.7495 H   0  0  0  0  0  0
  -21.0828   -8.8774   19.8965 H   0  0  0  0  0  0
  -22.3687  -10.9673   19.6149 H   0  0  0  0  0  0
  -21.2007   -7.6149   23.9709 H   0  0  0  0  0  0
  -21.1480   -6.0526   25.9074 H   0  0  0  0  0  0
  -22.0598   -2.7608   23.2850 H   0  0  0  0  0  0
  -22.4159  -11.9947   22.4759 H   0  0  0  0  0  0
  -21.1146  -13.1300   22.2581 H   0  0  0  0  0  0
  -24.6744  -15.8453   20.5313 H   0  0  0  0  0  0
  -26.3028  -15.6257   20.1259 H   0  0  0  0  0  0
  -26.7143  -32.5486   23.1139 H   0  0  0  0  0  0
  -25.0130  -33.9766   25.0491 H   0  0  0  0  0  0
  -22.7074  -31.3051   21.4019 H   0  0  0  0  0  0
  -23.3740  -35.9651   23.3305 H   0  0  0  0  0  0
  -24.3584  -36.8910   22.2050 H   0  0  0  0  0  0
  -23.7273  -37.6519   23.6653 H   0  0  0  0  0  0
  -26.0772  -31.5715   20.6040 H   0  0  0  0  0  0
  -26.8342  -30.8587   21.9969 H   0  0  0  0  0  0
  -28.1146  -29.0238   21.1864 H   0  0  0  0  0  0
  -26.0084  -25.9637   18.9799 H   0  0  0  0  0  0
  -23.9817  -27.3101   19.0082 H   0  0  0  0  0  0
  -23.7508  -30.5988   19.4043 H   0  0  0  0  0  0
  -22.7530  -29.2482   19.8516 H   0  0  0  0  0  0
  -25.1299  -36.1939   25.0829 H   0  0  0  0  0  0
  -20.9973  -28.3280   24.1397 H   0  0  0  0  0  0
  -20.5681  -26.2299   23.3601 H   0  0  0  0  0  0
  -21.6651  -26.7455   22.1201 H   0  0  0  0  0  0
  -19.6931  -25.6297   21.1236 H   0  0  0  0  0  0
  -19.6721  -27.3193   20.6724 H   0  0  0  0  0  0
  -17.4206  -26.6651   21.4011 H   0  0  0  0  0  0
  -18.0345  -26.0099   22.9021 H   0  0  0  0  0  0
  -19.7939  -30.7280   24.2231 H   0  0  0  0  0  0
  -17.5022  -31.6269   24.5179 H   0  0  0  0  0  0
  -15.5354  -30.2991   23.7693 H   0  0  0  0  0  0
  -15.8655  -28.0865   22.7019 H   0  0  0  0  0  0
  -24.5955  -30.7032   25.7835 H   0  0  0  0  0  0
  -24.8991  -32.2848   26.4954 H   0  0  0  0  0  0
  -25.8172  -30.8857   27.0218 H   0  0  0  0  0  0
  -26.2894  -29.6747   24.1217 H   0  0  0  0  0  0
  -27.4100  -29.7281   25.4631 H   0  0  0  0  0  0
  -27.8741  -30.4294   23.9312 H   0  0  0  0  0  0
  -27.2657  -33.3596   26.2096 H   0  0  0  0  0  0
  -28.3865  -32.6902   25.0328 H   0  0  0  0  0  0
  -28.0732  -31.8427   26.5396 H   0  0  0  0  0  0
  -28.2595  -38.0102   24.7485 H   0  0  0  0  0  0
  -28.1071  -36.2633   24.6320 H   0  0  0  0  0  0
  -27.2290  -37.1494   25.8864 H   0  0  0  0  0  0
  -20.9316  -29.8790   21.6911 H   0  0  0  0  0  0
  -26.0167  -38.2844   24.1412 H   0  0  0  0  0  0
  -29.4016  -19.6874   21.2831 H   0  0  0  0  0  0
  -31.5514  -20.7737   17.7171 H   0  0  0  0  0  0
  -31.2075  -16.6455   18.7865 H   0  0  0  0  0  0
  -31.0641  -22.4609   19.1537 H   0  0  0  0  0  0
  -29.2079  -17.4090   21.9506 H   0  0  0  0  0  0
  -28.4660  -22.3090   20.7294 H   0  0  0  0  0  0
  -29.4373  -15.2601   22.2401 H   0  0  0  0  0  0
  -32.7020  -19.1497   16.4389 H   0  0  0  0  0  0
  -31.6224  -17.7728   16.1946 H   0  0  0  0  0  0
  -33.0669  -17.6018   17.1973 H   0  0  0  0  0  0
  -27.8993  -25.0133   21.4489 H   0  0  0  0  0  0
  -27.3569  -24.7125   19.8064 H   0  0  0  0  0  0
  1 25  1  0  0  0
  1 30  2  0  0  0
  1 80  1  0  0  0
  2  3  1  0  0  0
  2 25  1  0  0  0
  2 85  1  0  0  0
  2 86  1  0  0  0
  3  4  1  0  0  0
  3 87  1  0  0  0
  3 88  1  0  0  0
  4  5  1  0  0  0
  4 89  1  0  0  0
  4 90  1  0  0  0
  5  6  1  0  0  0
  5 26  1  0  0  0
  5 91  1  0  0  0
  6 25  1  0  0  0
  6 92  1  0  0  0
  6 93  1  0  0  0
  7  8  2  0  0  0
  7 26  1  0  0  0
  7 29  1  0  0  0
  8  9  1  0  0  0
  8 22  1  0  0  0
  9 10  1  0  0  0
  9 27  2  0  0  0
 10 11  2  0  0  0
 10 15  1  0  0  0
 11 12  1  0  0  0
 11 94  1  0  0  0
 12 13  2  0  0  0
 12 95  1  0  0  0
 13 14  1  0  0  0
 13 31  1  0  0  0
 14 15  2  0  0  0
 14 96  1  0  0  0
 15 97  1  0  0  0
 16 17  2  0  0  0
 16 21  1  0  0  0
 16 31  1  0  0  0
 17 18  1  0  0  0
 17 98  1  0  0  0
 18 19  2  0  0  0
 18 99  1  0  0  0
 19 20  1  0  0  0
 19 24  1  0  0  0
 20 21  2  0  0  0
 20100  1  0  0  0
 21 23  1  0  0  0
 22 28  1  0  0  0
 22 32  2  0  0  0
 26 27  1  0  0  0
 28101  1  0  0  0
 28102  1  0  0  0
 29103  1  0  0  0
 29104  1  0  0  0
 33 34  1  0  0  0
 33 66  1  0  0  0
 33 70  2  0  0  0
 34 36  1  0  0  0
 34 59  1  0  0  0
 34105  1  0  0  0
 35 44  2  0  0  0
 35 45  1  0  0  0
 35 68  1  0  0  0
 36 56  1  0  0  0
 36106  1  0  0  0
 37 39  1  0  0  0
 37 47  1  0  0  0
 37 66  1  0  0  0
 37107  1  0  0  0
 38 43  2  0  0  0
 38 46  1  0  0  0
 38 47  1  0  0  0
 39 64  1  0  0  0
 39 67  2  0  0  0
 40 52  1  0  0  0
 40 53  2  0  0  0
 40 58  1  0  0  0
 41108  1  0  0  0
 41109  1  0  0  0
 41110  1  0  0  0
 41 48  1  0  0  0
 42 43  1  0  0  0
 42 66  1  0  0  0
 42111  1  0  0  0
 42112  1  0  0  0
 43 44  1  0  0  0
 44113  1  0  0  0
 45 46  2  0  0  0
 45114  1  0  0  0
 46115  1  0  0  0
 47116  1  0  0  0
 47117  1  0  0  0
 48 56  1  0  0  0
 48 65  1  0  0  0
 48118  1  0  0  0
 49 50  1  0  0  0
 49 53  1  0  0  0
 49 64  1  0  0  0
 49119  1  0  0  0
 50 51  1  0  0  0
 50120  1  0  0  0
 50121  1  0  0  0
 51 52  1  0  0  0
 51122  1  0  0  0
 51123  1  0  0  0
 52124  1  0  0  0
 52125  1  0  0  0
 53 54  1  0  0  0
 54 55  2  0  0  0
 54126  1  0  0  0
 55 57  1  0  0  0
 55127  1  0  0  0
 56 69  2  0  0  0
 57 58  2  0  0  0
 57128  1  0  0  0
 58129  1  0  0  0
 59 60  1  0  0  0
 59 61  1  0  0  0
 59 62  1  0  0  0
 60130  1  0  0  0
 60131  1  0  0  0
 60132  1  0  0  0
 61133  1  0  0  0
 61134  1  0  0  0
 61135  1  0  0  0
 62136  1  0  0  0
 62137  1  0  0  0
 62138  1  0  0  0
 63 65  1  0  0  0
 63139  1  0  0  0
 63140  1  0  0  0
 63141  1  0  0  0
 64142  1  0  0  0
 65143  1  0  0  0
 68 83  1  0  0  0
 71 74  2  0  0  0
 71 75  1  0  0  0
 71144  1  0  0  0
 72 74  1  0  0  0
 72 76  2  0  0  0
 72145  1  0  0  0
 73 75  2  0  0  0
 73 76  1  0  0  0
 73146  1  0  0  0
 74 77  1  0  0  0
 75 78  1  0  0  0
 76 82  1  0  0  0
 77 79  2  0  0  0
 77147  1  0  0  0
 78 80  2  0  0  0
 78148  1  0  0  0
 79 81  1  0  0  0
 79149  1  0  0  0
 80150  1  0  0  0
 81 83  1  0  0  0
 81 84  2  0  0  0
 82151  1  0  0  0
 82152  1  0  0  0
 82153  1  0  0  0
 83154  1  0  0  0
 83155  1  0  0  0
M  ISO  4   1 100  68 101  80 100  83 101
M  END
> <chiral flag>
0

> <version>
0

> <s_m_source_file>
/data/baiqing/PycharmProjects/Reinvent-master-3.2/result/LINK_invent/BTK/process_docking_weight1_custom_product_contain_oxygen_bond_distance_aromatic_linkinvent_7_9_3/rearranged_h_0122.sdf

> <i_m_source_file_index>
40

> <r_mmod_Potential_Energy-OPLS-2005>
69.2755584716797

> <r_mmod_Stretch_Energy-OPLS-2005>
63.7347793579102

> <r_mmod_Bend_Energy-OPLS-2005>
157.100204467773

> <r_mmod_Torsional_Energy-OPLS-2005>
195.385620117188

> <r_mmod_Improper_Torsional_Energy-OPLS-2005>
1.95292520523071

> <r_mmod_Van_der_Waal_Energy-OPLS-2005>
154.194686889648

> <r_mmod_Electrostatic_Energy-OPLS-2005>
-311.874450683594

> <r_mmod_Solvation_Energy-OPLS-2005>
-218.05094909668

> <b_mmod_Minimization_Converged-OPLS-2005>
0

> <r_mmod_RMS_Derivative-OPLS-2005>
2.09699583053589

$$$$
40
                    3D
 Structure written by MMmdl.
158166  0  0  1  0            999 V2000
  -30.7266  -14.4593   20.5346 C   0  0  0  0  0  0
  -30.4085  -12.2800   19.4520 C   0  0  0  0  0  0
  -29.5021  -12.4781   18.2211 C   0  0  0  0  0  0
  -28.0188  -12.3528   18.6221 C   0  0  0  0  0  0
  -27.6570  -13.2095   19.8648 C   0  0  2  0  0  0
  -28.6916  -13.0297   20.9983 C   0  0  0  0  0  0
  -25.2582  -13.8177   20.5669 C   0  0  0  0  0  0
  -24.1823  -13.0446   20.9143 C   0  0  0  0  0  0
  -24.6374  -11.6918   20.8708 C   0  0  0  0  0  0
  -23.9037  -10.4298   21.0397 C   0  0  0  0  0  0
  -24.3597   -9.4221   21.9182 C   0  0  0  0  0  0
  -23.6273   -8.2256   22.0759 C   0  0  0  0  0  0
  -22.4258   -8.0280   21.3549 C   0  0  0  0  0  0
  -21.9893   -9.0251   20.4655 C   0  0  0  0  0  0
  -22.7212  -10.2131   20.3055 C   0  0  0  0  0  0
  -21.6859   -6.0733   22.5286 C   0  0  0  0  0  0
  -21.4010   -6.5636   23.8219 C   0  0  0  0  0  0
  -21.3664   -5.6785   24.9179 C   0  0  0  0  0  0
  -21.6040   -4.3045   24.7234 C   0  0  0  0  0  0
  -21.8816   -3.8142   23.4355 C   0  0  0  0  0  0
  -21.9186   -4.6956   22.3408 C   0  0  0  0  0  0
  -22.7854  -13.5258   21.1825 C   0  0  0  0  0  0
  -22.1658   -4.2142   21.0985 F   0  0  0  0  0  0
  -21.5633   -3.4538   25.7752 F   0  0  0  0  0  0
  -30.0299  -13.2940   20.4502 N   0  0  0  0  0  0
  -26.2993  -12.9342   20.3293 N   0  0  0  0  0  0
  -25.9293  -11.6499   20.5710 N   0  0  0  0  0  0
  -22.0481  -12.8264   22.0393 N   0  0  0  0  0  0
  -25.4332  -15.1897   20.4150 N   0  0  0  0  0  0
  -31.8605  -14.5767   20.0630 O   0  0  0  0  0  0
  -21.6637   -6.8873   21.4246 O   0  0  0  0  0  0
  -22.3543  -14.5562   20.6668 O   0  0  0  0  0  0
  -24.6142  -31.8705   23.2119 C   0  0  0  0  0  0
  -25.9040  -32.4833   23.8413 C   0  0  1  0  0  0
  -27.2298  -27.4501   20.0978 C   0  0  0  0  0  0
  -25.5891  -33.8636   24.2346 N   0  0  0  0  0  0
  -23.4004  -30.4935   21.5536 C   0  0  2  0  0  0
  -24.8473  -28.9635   20.1144 C   0  0  0  0  0  0
  -22.7409  -29.4670   22.5020 C   0  0  0  0  0  0
  -18.0269  -28.1381   22.8507 C   0  0  0  0  0  0
  -24.1446  -36.7353   23.2632 C   0  0  0  0  0  0
  -25.9285  -30.8389   21.3664 C   0  0  0  0  0  0
  -26.0069  -29.4768   20.7101 C   0  0  0  0  0  0
  -27.2044  -28.7280   20.6981 C   0  0  0  0  0  0
  -26.0590  -26.9489   19.4917 C   0  0  0  0  0  0
  -24.8672  -27.6975   19.5025 C   0  0  0  0  0  0
  -23.6071  -29.8267   20.1667 C   0  0  0  0  0  0
  -25.4068  -36.3138   24.0336 C   0  0  1  0  0  0
  -20.5862  -28.3656   23.1338 C   0  0  2  0  0  0
  -20.6759  -26.9392   22.5418 C   0  0  0  0  0  0
  -19.5724  -26.6389   21.5218 C   0  0  0  0  0  0
  -18.1906  -26.7929   22.1637 C   0  0  0  0  0  0
  -19.1518  -28.8837   23.2910 C   0  0  0  0  0  0
  -18.9455  -30.1448   23.8909 C   0  0  0  0  0  0
  -17.6456  -30.6586   24.0573 C   0  0  0  0  0  0
  -25.9000  -34.9495   23.5139 C   0  0  0  0  0  0
  -16.5344  -29.9088   23.6333 C   0  0  0  0  0  0
  -16.7259  -28.6505   23.0358 C   0  0  0  0  0  0
  -26.4483  -31.6606   25.0722 C   0  0  0  0  0  0
  -25.3720  -31.3624   26.1427 C   0  0  0  0  0  0
  -27.0423  -30.3090   24.6111 C   0  0  0  0  0  0
  -27.6010  -32.4377   25.7508 C   0  0  0  0  0  0
  -27.5563  -37.1810   24.8449 C   0  0  0  0  0  0
  -21.4142  -29.3019   22.3744 N   0  0  0  0  0  0
  -26.4263  -37.3829   23.9422 N   0  0  0  0  0  0
  -24.6658  -31.0812   22.1026 N   0  0  0  0  0  0
  -23.4184  -28.8233   23.3069 O   0  0  0  0  0  0
  -28.3737  -26.6896   20.1051 O   0  0  0  0  0  0
  -26.5557  -34.8959   22.4696 O   0  0  0  0  0  0
  -23.5340  -32.1489   23.7504 O   0  0  0  0  0  0
  -29.0828  -18.9418   19.5807 C   0  0  0  0  0  0
  -28.6954  -20.2689   19.8586 C   0  0  0  0  0  0
  -29.4906  -18.5630   21.9425 C   0  0  0  0  0  0
  -29.5036  -18.0822   20.6159 C   0  0  0  0  0  0
  -28.7227  -20.7732   21.1772 C   0  0  0  0  0  0
  -29.1277  -19.9016   22.2269 C   0  0  0  0  0  0
  -29.9810  -16.7293   20.2774 C   0  0  0  0  0  0
  -30.0269  -15.6266   21.0617 C   0  0  0  0  0  0
  -28.3196  -22.1883   21.4081 C   0  0  0  0  0  0
  -29.2024  -20.3788   23.6694 C   0  0  0  0  0  0
  -29.4245  -23.2438   21.4589 C   0  0  0  0  0  0
  -29.2667  -24.4304   20.4696 C   0  0  0  0  0  0
  -28.2767  -25.5198   20.9269 C   0  0  0  0  0  0
  -27.1080  -22.5134   21.5611 N   0  0  0  0  0  0
  -31.4591  -12.3372   19.1641 H   0  0  0  0  0  0
  -30.2751  -11.2806   19.8720 H   0  0  0  0  0  0
  -29.7439  -11.7392   17.4550 H   0  0  0  0  0  0
  -29.6906  -13.4556   17.7753 H   0  0  0  0  0  0
  -27.8243  -11.3003   18.8294 H   0  0  0  0  0  0
  -27.3753  -12.6168   17.7830 H   0  0  0  0  0  0
  -27.6928  -14.2502   19.5418 H   0  0  0  0  0  0
  -28.6558  -12.0143   21.3949 H   0  0  0  0  0  0
  -28.4515  -13.6814   21.8392 H   0  0  0  0  0  0
  -25.2752   -9.5702   22.4747 H   0  0  0  0  0  0
  -23.9993   -7.4655   22.7482 H   0  0  0  0  0  0
  -21.0831   -8.8754   19.8971 H   0  0  0  0  0  0
  -22.3667  -10.9657   19.6157 H   0  0  0  0  0  0
  -21.2003   -7.6145   23.9723 H   0  0  0  0  0  0
  -21.1491   -6.0518   25.9082 H   0  0  0  0  0  0
  -22.0589   -2.7609   23.2856 H   0  0  0  0  0  0
  -22.4068  -11.9925   22.4794 H   0  0  0  0  0  0
  -21.1109  -13.1328   22.2599 H   0  0  0  0  0  0
  -24.6758  -15.8515   20.5442 H   0  0  0  0  0  0
  -26.3027  -15.6320   20.1438 H   0  0  0  0  0  0
  -26.7099  -32.5588   23.1167 H   0  0  0  0  0  0
  -25.0046  -33.9786   25.0499 H   0  0  0  0  0  0
  -22.6879  -31.3097   21.4169 H   0  0  0  0  0  0
  -23.3704  -35.9688   23.3304 H   0  0  0  0  0  0
  -24.3517  -36.8981   22.2040 H   0  0  0  0  0  0
  -23.7197  -37.6555   23.6664 H   0  0  0  0  0  0
  -26.0461  -31.6096   20.6040 H   0  0  0  0  0  0
  -26.8124  -30.8846   21.9913 H   0  0  0  0  0  0
  -28.1008  -29.1170   21.1615 H   0  0  0  0  0  0
  -26.0665  -25.9757   19.0215 H   0  0  0  0  0  0
  -23.9754  -27.2948   19.0409 H   0  0  0  0  0  0
  -23.7124  -30.6034   19.4082 H   0  0  0  0  0  0
  -22.7319  -29.2431   19.8726 H   0  0  0  0  0  0
  -25.1233  -36.2020   25.0826 H   0  0  0  0  0  0
  -20.9952  -28.3214   24.1465 H   0  0  0  0  0  0
  -20.5678  -26.2259   23.3605 H   0  0  0  0  0  0
  -21.6637  -26.7451   22.1202 H   0  0  0  0  0  0
  -19.6870  -25.6307   21.1229 H   0  0  0  0  0  0
  -19.6657  -27.3228   20.6771 H   0  0  0  0  0  0
  -17.4180  -26.6699   21.4025 H   0  0  0  0  0  0
  -18.0283  -26.0055   22.9019 H   0  0  0  0  0  0
  -19.7921  -30.7254   24.2299 H   0  0  0  0  0  0
  -17.5007  -31.6273   24.5169 H   0  0  0  0  0  0
  -15.5342  -30.2996   23.7657 H   0  0  0  0  0  0
  -15.8659  -28.0825   22.7087 H   0  0  0  0  0  0
  -24.6053  -30.6783   25.7750 H   0  0  0  0  0  0
  -24.8685  -32.2712   26.4755 H   0  0  0  0  0  0
  -25.8066  -30.8941   27.0269 H   0  0  0  0  0  0
  -26.3029  -29.6755   24.1186 H   0  0  0  0  0  0
  -27.4306  -29.7397   25.4572 H   0  0  0  0  0  0
  -27.8778  -30.4473   23.9240 H   0  0  0  0  0  0
  -27.2533  -33.3513   26.2330 H   0  0  0  0  0  0
  -28.3660  -32.7257   25.0288 H   0  0  0  0  0  0
  -28.0910  -31.8430   26.5218 H   0  0  0  0  0  0
  -28.2578  -38.0110   24.7541 H   0  0  0  0  0  0
  -28.1049  -36.2653   24.6209 H   0  0  0  0  0  0
  -27.2285  -37.1398   25.8846 H   0  0  0  0  0  0
  -20.9316  -29.8722   21.6945 H   0  0  0  0  0  0
  -26.0155  -38.2904   24.1447 H   0  0  0  0  0  0
  -29.0702  -18.5935   18.5558 H   0  0  0  0  0  0
  -28.3865  -20.9119   19.0452 H   0  0  0  0  0  0
  -29.8096  -17.9141   22.7458 H   0  0  0  0  0  0
  -30.3954  -16.6514   19.2795 H   0  0  0  0  0  0
  -29.6092  -15.6186   22.0571 H   0  0  0  0  0  0
  -29.5235  -19.5794   24.3382 H   0  0  0  0  0  0
  -28.2298  -20.7276   24.0154 H   0  0  0  0  0  0
  -29.9201  -21.1945   23.7700 H   0  0  0  0  0  0
  -30.3733  -22.7481   21.2484 H   0  0  0  0  0  0
  -29.5090  -23.6173   22.4797 H   0  0  0  0  0  0
  -28.9902  -24.0632   19.4801 H   0  0  0  0  0  0
  -30.2437  -24.9004   20.3517 H   0  0  0  0  0  0
  -28.4921  -25.8166   21.9551 H   0  0  0  0  0  0
  -27.2677  -25.1081   20.9325 H   0  0  0  0  0  0
  -26.4992  -21.7045   21.5012 H   0  0  0  0  0  0
  1 25  1  0  0  0
  1 30  2  0  0  0
  1 78  1  0  0  0
  2  3  1  0  0  0
  2 25  1  0  0  0
  2 85  1  0  0  0
  2 86  1  0  0  0
  3  4  1  0  0  0
  3 87  1  0  0  0
  3 88  1  0  0  0
  4  5  1  0  0  0
  4 89  1  0  0  0
  4 90  1  0  0  0
  5  6  1  0  0  0
  5 26  1  0  0  0
  5 91  1  0  0  0
  6 25  1  0  0  0
  6 92  1  0  0  0
  6 93  1  0  0  0
  7  8  2  0  0  0
  7 26  1  0  0  0
  7 29  1  0  0  0
  8  9  1  0  0  0
  8 22  1  0  0  0
  9 10  1  0  0  0
  9 27  2  0  0  0
 10 11  2  0  0  0
 10 15  1  0  0  0
 11 12  1  0  0  0
 11 94  1  0  0  0
 12 13  2  0  0  0
 12 95  1  0  0  0
 13 14  1  0  0  0
 13 31  1  0  0  0
 14 15  2  0  0  0
 14 96  1  0  0  0
 15 97  1  0  0  0
 16 17  2  0  0  0
 16 21  1  0  0  0
 16 31  1  0  0  0
 17 18  1  0  0  0
 17 98  1  0  0  0
 18 19  2  0  0  0
 18 99  1  0  0  0
 19 20  1  0  0  0
 19 24  1  0  0  0
 20 21  2  0  0  0
 20100  1  0  0  0
 21 23  1  0  0  0
 22 28  1  0  0  0
 22 32  2  0  0  0
 26 27  1  0  0  0
 28101  1  0  0  0
 28102  1  0  0  0
 29103  1  0  0  0
 29104  1  0  0  0
 33 34  1  0  0  0
 33 66  1  0  0  0
 33 70  2  0  0  0
 34 36  1  0  0  0
 34 59  1  0  0  0
 34105  1  0  0  0
 35 44  2  0  0  0
 35 45  1  0  0  0
 35 68  1  0  0  0
 36 56  1  0  0  0
 36106  1  0  0  0
 37 39  1  0  0  0
 37 47  1  0  0  0
 37 66  1  0  0  0
 37107  1  0  0  0
 38 43  2  0  0  0
 38 46  1  0  0  0
 38 47  1  0  0  0
 39 64  1  0  0  0
 39 67  2  0  0  0
 40 52  1  0  0  0
 40 53  2  0  0  0
 40 58  1  0  0  0
 41108  1  0  0  0
 41109  1  0  0  0
 41110  1  0  0  0
 41 48  1  0  0  0
 42 43  1  0  0  0
 42 66  1  0  0  0
 42111  1  0  0  0
 42112  1  0  0  0
 43 44  1  0  0  0
 44113  1  0  0  0
 45 46  2  0  0  0
 45114  1  0  0  0
 46115  1  0  0  0
 47116  1  0  0  0
 47117  1  0  0  0
 48 56  1  0  0  0
 48 65  1  0  0  0
 48118  1  0  0  0
 49 50  1  0  0  0
 49 53  1  0  0  0
 49 64  1  0  0  0
 49119  1  0  0  0
 50 51  1  0  0  0
 50120  1  0  0  0
 50121  1  0  0  0
 51 52  1  0  0  0
 51122  1  0  0  0
 51123  1  0  0  0
 52124  1  0  0  0
 52125  1  0  0  0
 53 54  1  0  0  0
 54 55  2  0  0  0
 54126  1  0  0  0
 55 57  1  0  0  0
 55127  1  0  0  0
 56 69  2  0  0  0
 57 58  2  0  0  0
 57128  1  0  0  0
 58129  1  0  0  0
 59 60  1  0  0  0
 59 61  1  0  0  0
 59 62  1  0  0  0
 60130  1  0  0  0
 60131  1  0  0  0
 60132  1  0  0  0
 61133  1  0  0  0
 61134  1  0  0  0
 61135  1  0  0  0
 62136  1  0  0  0
 62137  1  0  0  0
 62138  1  0  0  0
 63 65  1  0  0  0
 63139  1  0  0  0
 63140  1  0  0  0
 63141  1  0  0  0
 64142  1  0  0  0
 65143  1  0  0  0
 68 83  1  0  0  0
 71 72  2  0  0  0
 71 74  1  0  0  0
 71144  1  0  0  0
 72 75  1  0  0  0
 72145  1  0  0  0
 73 74  2  0  0  0
 73 76  1  0  0  0
 73146  1  0  0  0
 74 77  1  0  0  0
 75 76  2  0  0  0
 75 79  1  0  0  0
 76 80  1  0  0  0
 77 78  2  0  0  0
 77147  1  0  0  0
 78148  1  0  0  0
 79 81  1  0  0  0
 79 84  2  0  0  0
 80149  1  0  0  0
 80150  1  0  0  0
 80151  1  0  0  0
 81 82  1  0  0  0
 81152  1  0  0  0
 81153  1  0  0  0
 82 83  1  0  0  0
 82154  1  0  0  0
 82155  1  0  0  0
 83156  1  0  0  0
 83157  1  0  0  0
 84158  1  0  0  0
M  ISO  4   1 100  68 101  78 100  83 101
M  END
> <chiral flag>
0

> <version>
0

> <s_m_source_file>
/data/baiqing/PycharmProjects/Reinvent-master-3.2/result/LINK_invent/BTK/process_docking_weight1_custom_product_contain_oxygen_bond_distance_aromatic_linkinvent_7_9_3/rearranged_h_0122.sdf

> <i_m_source_file_index>
41

> <r_mmod_Potential_Energy-OPLS-2005>
-10.1705150604248

> <r_mmod_Stretch_Energy-OPLS-2005>
35.2442932128906

> <r_mmod_Bend_Energy-OPLS-2005>
93.1321563720703

> <r_mmod_Torsional_Energy-OPLS-2005>
239.448135375977

> <r_mmod_Improper_Torsional_Energy-OPLS-2005>
4.05815887451172

> <r_mmod_Van_der_Waal_Energy-OPLS-2005>
151.188217163086

> <r_mmod_Electrostatic_Energy-OPLS-2005>
-352.803009033203

> <r_mmod_Solvation_Energy-OPLS-2005>
-194.990875244141

> <b_mmod_Minimization_Converged-OPLS-2005>
0

> <r_mmod_RMS_Derivative-OPLS-2005>
2.33868479728699

$$$$
41
                    3D
 Structure written by MMmdl.
164172  0  0  1  0            999 V2000
  -30.6931  -14.4178   20.5589 C   0  0  0  0  0  0
  -30.4249  -12.2704   19.4070 C   0  0  0  0  0  0
  -29.4964  -12.5064   18.1970 C   0  0  0  0  0  0
  -28.0139  -12.3786   18.6051 C   0  0  0  0  0  0
  -27.6664  -13.1990   19.8772 C   0  0  2  0  0  0
  -28.7043  -12.9361   20.9928 C   0  0  0  0  0  0
  -25.2612  -13.8138   20.5665 C   0  0  0  0  0  0
  -24.1851  -13.0429   20.9154 C   0  0  0  0  0  0
  -24.6392  -11.6892   20.8714 C   0  0  0  0  0  0
  -23.9061  -10.4274   21.0399 C   0  0  0  0  0  0
  -24.3613   -9.4191   21.9174 C   0  0  0  0  0  0
  -23.6273   -8.2234   22.0746 C   0  0  0  0  0  0
  -22.4257   -8.0274   21.3539 C   0  0  0  0  0  0
  -21.9895   -9.0256   20.4656 C   0  0  0  0  0  0
  -22.7235  -10.2125   20.3059 C   0  0  0  0  0  0
  -21.6847   -6.0729   22.5284 C   0  0  0  0  0  0
  -21.4018   -6.5629   23.8219 C   0  0  0  0  0  0
  -21.3660   -5.6776   24.9180 C   0  0  0  0  0  0
  -21.6038   -4.3036   24.7230 C   0  0  0  0  0  0
  -21.8818   -3.8138   23.4346 C   0  0  0  0  0  0
  -21.9191   -4.6961   22.3406 C   0  0  0  0  0  0
  -22.7877  -13.5252   21.1822 C   0  0  0  0  0  0
  -22.1660   -4.2151   21.0982 F   0  0  0  0  0  0
  -21.5620   -3.4516   25.7736 F   0  0  0  0  0  0
  -30.0448  -13.2303   20.4522 N   0  0  0  0  0  0
  -26.3045  -12.9297   20.3344 N   0  0  0  0  0  0
  -25.9312  -11.6469   20.5731 N   0  0  0  0  0  0
  -22.0498  -12.8278   22.0385 N   0  0  0  0  0  0
  -25.4343  -15.1853   20.4096 N   0  0  0  0  0  0
  -31.8297  -14.6179   20.1147 O   0  0  0  0  0  0
  -21.6620   -6.8873   21.4244 O   0  0  0  0  0  0
  -22.3567  -14.5562   20.6670 O   0  0  0  0  0  0
  -24.6109  -31.8707   23.2122 C   0  0  0  0  0  0
  -25.9020  -32.4836   23.8405 C   0  0  1  0  0  0
  -27.2361  -27.4671   20.1039 C   0  0  0  0  0  0
  -25.5896  -33.8635   24.2338 N   0  0  0  0  0  0
  -23.3970  -30.4939   21.5510 C   0  0  2  0  0  0
  -24.8442  -28.9617   20.1176 C   0  0  0  0  0  0
  -22.7392  -29.4672   22.5005 C   0  0  0  0  0  0
  -18.0268  -28.1369   22.8486 C   0  0  0  0  0  0
  -24.1493  -36.7323   23.2629 C   0  0  0  0  0  0
  -25.9207  -30.8487   21.3576 C   0  0  0  0  0  0
  -26.0003  -29.4836   20.7099 C   0  0  0  0  0  0
  -27.2005  -28.7445   20.6972 C   0  0  0  0  0  0
  -26.0663  -26.9523   19.5019 C   0  0  0  0  0  0
  -24.8697  -27.6932   19.5112 C   0  0  0  0  0  0
  -23.6046  -29.8244   20.1655 C   0  0  0  0  0  0
  -25.4107  -36.3116   24.0336 C   0  0  1  0  0  0
  -20.5853  -28.3652   23.1323 C   0  0  2  0  0  0
  -20.6760  -26.9393   22.5413 C   0  0  0  0  0  0
  -19.5745  -26.6389   21.5199 C   0  0  0  0  0  0
  -18.1921  -26.7921   22.1613 C   0  0  0  0  0  0
  -19.1514  -28.8829   23.2906 C   0  0  0  0  0  0
  -18.9446  -30.1431   23.8920 C   0  0  0  0  0  0
  -17.6448  -30.6578   24.0564 C   0  0  0  0  0  0
  -25.9031  -34.9482   23.5135 C   0  0  0  0  0  0
  -16.5340  -29.9081   23.6313 C   0  0  0  0  0  0
  -16.7257  -28.6497   23.0339 C   0  0  0  0  0  0
  -26.4461  -31.6590   25.0709 C   0  0  0  0  0  0
  -25.3747  -31.3693   26.1467 C   0  0  0  0  0  0
  -27.0255  -30.3032   24.6031 C   0  0  0  0  0  0
  -27.6053  -32.4288   25.7478 C   0  0  0  0  0  0
  -27.5584  -37.1814   24.8461 C   0  0  0  0  0  0
  -21.4118  -29.3032   22.3739 N   0  0  0  0  0  0
  -26.4296  -37.3794   23.9406 N   0  0  0  0  0  0
  -24.6608  -31.0839   22.0997 N   0  0  0  0  0  0
  -23.4178  -28.8207   23.3025 O   0  0  0  0  0  0
  -28.4207  -26.7746   20.0983 O   0  0  0  0  0  0
  -26.5583  -34.8926   22.4685 O   0  0  0  0  0  0
  -23.5313  -32.1448   23.7537 O   0  0  0  0  0  0
  -29.7786  -18.1422   18.4393 C   0  0  0  0  0  0
  -30.2605  -17.0386   19.1646 C   0  0  0  0  0  0
  -28.4836  -17.3479   20.7995 C   0  0  0  0  0  0
  -28.6324  -18.8444   18.8656 C   0  0  0  0  0  0
  -27.9933  -18.4621   20.0773 C   0  0  0  0  0  0
  -29.5953  -16.6093   20.3383 C   0  0  0  0  0  0
  -30.2305  -23.8728   19.8783 C   0  0  0  0  0  0
  -27.4247  -22.1352   17.6653 C   0  0  0  0  0  0
  -28.0926  -19.9113   17.9807 C   0  0  0  0  0  0
  -29.0997  -24.5199   19.5531 C   0  0  0  0  0  0
  -26.7641  -19.1935   20.6076 C   0  0  0  0  0  0
  -27.1922  -23.5486   18.1470 C   0  0  0  0  0  0
  -28.4766  -24.4046   18.1721 C   0  0  0  0  0  0
  -28.3733  -25.4187   20.5385 C   0  0  0  0  0  0
  -27.8999  -21.2000   18.3965 N   0  0  0  0  0  0
  -29.9368  -15.4165   21.0397 N   0  0  0  0  0  0
  -27.7814  -19.5207   16.7774 N   0  3  0  0  0  0
  -31.4695  -12.3682   19.1069 H   0  0  0  0  0  0
  -30.3179  -11.2496   19.7774 H   0  0  0  0  0  0
  -29.7255  -11.7988   17.3995 H   0  0  0  0  0  0
  -29.6770  -13.5003   17.7814 H   0  0  0  0  0  0
  -27.8021  -11.3219   18.7745 H   0  0  0  0  0  0
  -27.3751  -12.6858   17.7773 H   0  0  0  0  0  0
  -27.7246  -14.2526   19.6021 H   0  0  0  0  0  0
  -28.6627  -11.8908   21.3032 H   0  0  0  0  0  0
  -28.4729  -13.5107   21.8912 H   0  0  0  0  0  0
  -25.2762   -9.5654   22.4744 H   0  0  0  0  0  0
  -23.9978   -7.4620   22.7462 H   0  0  0  0  0  0
  -21.0815   -8.8799   19.8958 H   0  0  0  0  0  0
  -22.3704  -10.9670   19.6168 H   0  0  0  0  0  0
  -21.2022   -7.6132   23.9740 H   0  0  0  0  0  0
  -21.1479   -6.0488   25.9084 H   0  0  0  0  0  0
  -22.0603   -2.7600   23.2848 H   0  0  0  0  0  0
  -22.4095  -11.9954   22.4810 H   0  0  0  0  0  0
  -21.1137  -13.1353   22.2618 H   0  0  0  0  0  0
  -24.6645  -15.8367   20.5178 H   0  0  0  0  0  0
  -26.2852  -15.6202   20.0802 H   0  0  0  0  0  0
  -26.7092  -32.5569   23.1177 H   0  0  0  0  0  0
  -25.0082  -33.9803   25.0513 H   0  0  0  0  0  0
  -22.6836  -31.3092   21.4123 H   0  0  0  0  0  0
  -23.3750  -35.9663   23.3302 H   0  0  0  0  0  0
  -24.3598  -36.8924   22.2041 H   0  0  0  0  0  0
  -23.7263  -37.6541   23.6634 H   0  0  0  0  0  0
  -26.0227  -31.6126   20.5857 H   0  0  0  0  0  0
  -26.8135  -30.9088   21.9679 H   0  0  0  0  0  0
  -28.0962  -29.1449   21.1506 H   0  0  0  0  0  0
  -26.0755  -25.9878   19.0171 H   0  0  0  0  0  0
  -23.9810  -27.2865   19.0477 H   0  0  0  0  0  0
  -23.7131  -30.5986   19.4052 H   0  0  0  0  0  0
  -22.7305  -29.2416   19.8693 H   0  0  0  0  0  0
  -25.1283  -36.1981   25.0830 H   0  0  0  0  0  0
  -20.9941  -28.3214   24.1445 H   0  0  0  0  0  0
  -20.5652  -26.2253   23.3591 H   0  0  0  0  0  0
  -21.6634  -26.7438   22.1212 H   0  0  0  0  0  0
  -19.6908  -25.6308   21.1210 H   0  0  0  0  0  0
  -19.6684  -27.3212   20.6738 H   0  0  0  0  0  0
  -17.4184  -26.6654   21.4021 H   0  0  0  0  0  0
  -18.0335  -26.0061   22.9009 H   0  0  0  0  0  0
  -19.7920  -30.7236   24.2309 H   0  0  0  0  0  0
  -17.5005  -31.6260   24.5159 H   0  0  0  0  0  0
  -15.5342  -30.2993   23.7632 H   0  0  0  0  0  0
  -15.8653  -28.0830   22.7042 H   0  0  0  0  0  0
  -24.5946  -30.6989   25.7836 H   0  0  0  0  0  0
  -24.8899  -32.2840   26.4887 H   0  0  0  0  0  0
  -25.8126  -30.8915   27.0238 H   0  0  0  0  0  0
  -26.2757  -29.6839   24.1077 H   0  0  0  0  0  0
  -27.4031  -29.7212   25.4451 H   0  0  0  0  0  0
  -27.8603  -30.4356   23.9143 H   0  0  0  0  0  0
  -27.2683  -33.3586   26.2073 H   0  0  0  0  0  0
  -28.3860  -32.6838   25.0302 H   0  0  0  0  0  0
  -28.0707  -31.8387   26.5381 H   0  0  0  0  0  0
  -28.2599  -38.0111   24.7499 H   0  0  0  0  0  0
  -28.1079  -36.2641   24.6289 H   0  0  0  0  0  0
  -27.2302  -37.1470   25.8864 H   0  0  0  0  0  0
  -20.9268  -29.8763   21.6981 H   0  0  0  0  0  0
  -26.0188  -38.2877   24.1397 H   0  0  0  0  0  0
  -30.2761  -18.4309   17.5262 H   0  0  0  0  0  0
  -31.1190  -16.5177   18.7662 H   0  0  0  0  0  0
  -27.9721  -17.0372   21.7000 H   0  0  0  0  0  0
  -30.7387  -23.2397   19.1659 H   0  0  0  0  0  0
  -30.6689  -23.9662   20.8618 H   0  0  0  0  0  0
  -27.1385  -21.9903   16.6190 H   0  0  0  0  0  0
  -26.3104  -18.6647   21.4467 H   0  0  0  0  0  0
  -26.0015  -19.2952   19.8343 H   0  0  0  0  0  0
  -27.0342  -20.1934   20.9507 H   0  0  0  0  0  0
  -26.6989  -23.5172   19.1178 H   0  0  0  0  0  0
  -26.4760  -24.0070   17.4640 H   0  0  0  0  0  0
  -29.2101  -24.0253   17.4583 H   0  0  0  0  0  0
  -28.2425  -25.4147   17.8332 H   0  0  0  0  0  0
  -28.8610  -25.3691   21.5128 H   0  0  0  0  0  0
  -27.3630  -25.0442   20.7051 H   0  0  0  0  0  0
  -29.2091  -15.0823   21.6531 H   0  0  0  0  0  0
  -27.8838  -18.5523   16.4810 H   0  0  0  0  0  0
  -27.3875  -20.1307   16.0688 H   0  0  0  0  0  0
  1 25  1  0  0  0
  1 30  2  0  0  0
  1 86  1  0  0  0
  2  3  1  0  0  0
  2 25  1  0  0  0
  2 88  1  0  0  0
  2 89  1  0  0  0
  3  4  1  0  0  0
  3 90  1  0  0  0
  3 91  1  0  0  0
  4  5  1  0  0  0
  4 92  1  0  0  0
  4 93  1  0  0  0
  5  6  1  0  0  0
  5 26  1  0  0  0
  5 94  1  0  0  0
  6 25  1  0  0  0
  6 95  1  0  0  0
  6 96  1  0  0  0
  7  8  2  0  0  0
  7 26  1  0  0  0
  7 29  1  0  0  0
  8  9  1  0  0  0
  8 22  1  0  0  0
  9 10  1  0  0  0
  9 27  2  0  0  0
 10 11  2  0  0  0
 10 15  1  0  0  0
 11 12  1  0  0  0
 11 97  1  0  0  0
 12 13  2  0  0  0
 12 98  1  0  0  0
 13 14  1  0  0  0
 13 31  1  0  0  0
 14 15  2  0  0  0
 14 99  1  0  0  0
 15100  1  0  0  0
 16 17  2  0  0  0
 16 21  1  0  0  0
 16 31  1  0  0  0
 17 18  1  0  0  0
 17101  1  0  0  0
 18 19  2  0  0  0
 18102  1  0  0  0
 19 20  1  0  0  0
 19 24  1  0  0  0
 20 21  2  0  0  0
 20103  1  0  0  0
 21 23  1  0  0  0
 22 28  1  0  0  0
 22 32  2  0  0  0
 26 27  1  0  0  0
 28104  1  0  0  0
 28105  1  0  0  0
 29106  1  0  0  0
 29107  1  0  0  0
 33 34  1  0  0  0
 33 66  1  0  0  0
 33 70  2  0  0  0
 34 36  1  0  0  0
 34 59  1  0  0  0
 34108  1  0  0  0
 35 44  2  0  0  0
 35 45  1  0  0  0
 35 68  1  0  0  0
 36 56  1  0  0  0
 36109  1  0  0  0
 37 39  1  0  0  0
 37 47  1  0  0  0
 37 66  1  0  0  0
 37110  1  0  0  0
 38 43  2  0  0  0
 38 46  1  0  0  0
 38 47  1  0  0  0
 39 64  1  0  0  0
 39 67  2  0  0  0
 40 52  1  0  0  0
 40 53  2  0  0  0
 40 58  1  0  0  0
 41111  1  0  0  0
 41112  1  0  0  0
 41113  1  0  0  0
 41 48  1  0  0  0
 42 43  1  0  0  0
 42 66  1  0  0  0
 42114  1  0  0  0
 42115  1  0  0  0
 43 44  1  0  0  0
 44116  1  0  0  0
 45 46  2  0  0  0
 45117  1  0  0  0
 46118  1  0  0  0
 47119  1  0  0  0
 47120  1  0  0  0
 48 56  1  0  0  0
 48 65  1  0  0  0
 48121  1  0  0  0
 49 50  1  0  0  0
 49 53  1  0  0  0
 49 64  1  0  0  0
 49122  1  0  0  0
 50 51  1  0  0  0
 50123  1  0  0  0
 50124  1  0  0  0
 51 52  1  0  0  0
 51125  1  0  0  0
 51126  1  0  0  0
 52127  1  0  0  0
 52128  1  0  0  0
 53 54  1  0  0  0
 54 55  2  0  0  0
 54129  1  0  0  0
 55 57  1  0  0  0
 55130  1  0  0  0
 56 69  2  0  0  0
 57 58  2  0  0  0
 57131  1  0  0  0
 58132  1  0  0  0
 59 60  1  0  0  0
 59 61  1  0  0  0
 59 62  1  0  0  0
 60133  1  0  0  0
 60134  1  0  0  0
 60135  1  0  0  0
 61136  1  0  0  0
 61137  1  0  0  0
 61138  1  0  0  0
 62139  1  0  0  0
 62140  1  0  0  0
 62141  1  0  0  0
 63 65  1  0  0  0
 63142  1  0  0  0
 63143  1  0  0  0
 63144  1  0  0  0
 64145  1  0  0  0
 65146  1  0  0  0
 68 84  1  0  0  0
 71 72  2  0  0  0
 71 74  1  0  0  0
 71147  1  0  0  0
 72 76  1  0  0  0
 72148  1  0  0  0
 73 75  1  0  0  0
 73 76  2  0  0  0
 73149  1  0  0  0
 74 75  2  0  0  0
 74 79  1  0  0  0
 75 81  1  0  0  0
 76 86  1  0  0  0
 77 80  2  0  0  0
 77150  1  0  0  0
 77151  1  0  0  0
 78 82  1  0  0  0
 78 85  2  0  0  0
 78152  1  0  0  0
 79 85  1  0  0  0
 79 87  2  0  0  0
 80 83  1  0  0  0
 80 84  1  0  0  0
 81153  1  0  0  0
 81154  1  0  0  0
 81155  1  0  0  0
 82 83  1  0  0  0
 82156  1  0  0  0
 82157  1  0  0  0
 83158  1  0  0  0
 83159  1  0  0  0
 84160  1  0  0  0
 84161  1  0  0  0
 86162  1  0  0  0
 87163  1  0  0  0
 87164  1  0  0  0
M  CHG  1  87   1
M  ISO  4   1 100  68 101  84 101  86 100
M  END
> <chiral flag>
0

> <version>
0

> <s_m_source_file>
/data/baiqing/PycharmProjects/Reinvent-master-3.2/result/LINK_invent/BTK/process_docking_weight1_custom_product_contain_oxygen_bond_distance_aromatic_linkinvent_7_9_3/rearranged_h_0122.sdf

> <i_m_source_file_index>
42

> <r_mmod_Potential_Energy-OPLS-2005>
13.8169775009155

> <r_mmod_Stretch_Energy-OPLS-2005>
37.7445907592773

> <r_mmod_Bend_Energy-OPLS-2005>
104.885879516602

> <r_mmod_Torsional_Energy-OPLS-2005>
268.837524414062

> <r_mmod_Improper_Torsional_Energy-OPLS-2005>
7.02384328842163

> <r_mmod_Van_der_Waal_Energy-OPLS-2005>
164.357788085938

> <r_mmod_Electrostatic_Energy-OPLS-2005>
-122.869041442871

> <r_mmod_Solvation_Energy-OPLS-2005>
-455.945831298828

> <b_mmod_Minimization_Converged-OPLS-2005>
0

> <r_mmod_RMS_Derivative-OPLS-2005>
2.05670595169067

$$$$
42
                    3D
 Structure written by MMmdl.
155163  0  0  1  0            999 V2000
  -30.6209  -14.6839   20.5513 C   0  0  0  0  0  0
  -30.4615  -12.4384   19.4582 C   0  0  0  0  0  0
  -29.5175  -12.5108   18.2322 C   0  0  0  0  0  0
  -28.0414  -12.3099   18.6424 C   0  0  0  0  0  0
  -27.6537  -13.1813   19.8611 C   0  0  2  0  0  0
  -28.7048  -13.0019   20.9821 C   0  0  0  0  0  0
  -25.2616  -13.8045   20.5686 C   0  0  0  0  0  0
  -24.1820  -13.0391   20.9117 C   0  0  0  0  0  0
  -24.6337  -11.6839   20.8714 C   0  0  0  0  0  0
  -23.8988  -10.4260   21.0393 C   0  0  0  0  0  0
  -24.3563   -9.4196   21.9174 C   0  0  0  0  0  0
  -23.6273   -8.2222   22.0743 C   0  0  0  0  0  0
  -22.4258   -8.0254   21.3529 C   0  0  0  0  0  0
  -21.9868   -9.0209   20.4632 C   0  0  0  0  0  0
  -22.7164  -10.2096   20.3051 C   0  0  0  0  0  0
  -21.6836   -6.0735   22.5278 C   0  0  0  0  0  0
  -21.3983   -6.5632   23.8213 C   0  0  0  0  0  0
  -21.3659   -5.6788   24.9169 C   0  0  0  0  0  0
  -21.6057   -4.3053   24.7216 C   0  0  0  0  0  0
  -21.8836   -3.8143   23.4333 C   0  0  0  0  0  0
  -21.9196   -4.6967   22.3399 C   0  0  0  0  0  0
  -22.7868  -13.5234   21.1839 C   0  0  0  0  0  0
  -22.1657   -4.2168   21.0978 F   0  0  0  0  0  0
  -21.5643   -3.4537   25.7729 F   0  0  0  0  0  0
  -30.0041  -13.4459   20.4426 N   0  0  0  0  0  0
  -26.3004  -12.9150   20.3312 N   0  0  0  0  0  0
  -25.9245  -11.6338   20.5739 N   0  0  0  0  0  0
  -22.0540  -12.8221   22.0397 N   0  0  0  0  0  0
  -25.4497  -15.1766   20.4286 N   0  0  0  0  0  0
  -31.8236  -14.7698   20.2903 O   0  0  0  0  0  0
  -21.6617   -6.8855   21.4232 O   0  0  0  0  0  0
  -22.3554  -14.5567   20.6720 O   0  0  0  0  0  0
  -24.6192  -31.8630   23.2088 C   0  0  0  0  0  0
  -25.9072  -32.4790   23.8393 C   0  0  1  0  0  0
  -27.2402  -27.3792   20.1042 C   0  0  0  0  0  0
  -25.5912  -33.8595   24.2305 N   0  0  0  0  0  0
  -23.4086  -30.4863   21.5476 C   0  0  2  0  0  0
  -24.8577  -28.9485   20.1107 C   0  0  0  0  0  0
  -22.7416  -29.4645   22.4978 C   0  0  0  0  0  0
  -18.0277  -28.1381   22.8498 C   0  0  0  0  0  0
  -24.1472  -36.7281   23.2645 C   0  0  0  0  0  0
  -25.9435  -30.8083   21.3724 C   0  0  0  0  0  0
  -26.0201  -29.4387   20.7188 C   0  0  0  0  0  0
  -27.2086  -28.6628   20.7119 C   0  0  0  0  0  0
  -26.0572  -26.9239   19.4749 C   0  0  0  0  0  0
  -24.8769  -27.6915   19.4842 C   0  0  0  0  0  0
  -23.6185  -29.8171   20.1636 C   0  0  0  0  0  0
  -25.4106  -36.3083   24.0336 C   0  0  1  0  0  0
  -20.5864  -28.3675   23.1297 C   0  0  2  0  0  0
  -20.6743  -26.9388   22.5435 C   0  0  0  0  0  0
  -19.5737  -26.6374   21.5209 C   0  0  0  0  0  0
  -18.1903  -26.7938   22.1599 C   0  0  0  0  0  0
  -19.1525  -28.8847   23.2904 C   0  0  0  0  0  0
  -18.9451  -30.1449   23.8914 C   0  0  0  0  0  0
  -17.6461  -30.6585   24.0575 C   0  0  0  0  0  0
  -25.9037  -34.9455   23.5115 C   0  0  0  0  0  0
  -16.5356  -29.9089   23.6332 C   0  0  0  0  0  0
  -16.7265  -28.6496   23.0366 C   0  0  0  0  0  0
  -26.4485  -31.6585   25.0745 C   0  0  0  0  0  0
  -25.3725  -31.3713   26.1480 C   0  0  0  0  0  0
  -27.0328  -30.3024   24.6172 C   0  0  0  0  0  0
  -27.6071  -32.4313   25.7493 C   0  0  0  0  0  0
  -27.5576  -37.1795   24.8464 C   0  0  0  0  0  0
  -21.4141  -29.3041   22.3697 N   0  0  0  0  0  0
  -26.4278  -37.3783   23.9422 N   0  0  0  0  0  0
  -24.6747  -31.0686   22.1002 N   0  0  0  0  0  0
  -23.4165  -28.8153   23.3018 O   0  0  0  0  0  0
  -28.4001  -26.6064   20.1445 O   0  0  0  0  0  0
  -26.5617  -34.8915   22.4692 O   0  0  0  0  0  0
  -23.5368  -32.1422   23.7442 O   0  0  0  0  0  0
  -29.5209  -19.7823   21.6450 C   0  0  0  0  0  0
  -29.4967  -18.3663   21.6977 C   0  0  0  0  0  0
  -31.1049  -19.6332   19.8666 C   0  0  0  0  0  0
  -30.3114  -20.4542   20.6991 C   0  0  0  0  0  0
  -30.1889  -17.4968   20.7859 C   0  0  0  0  0  0
  -31.0534  -18.1965   19.8579 C   0  0  0  0  0  0
  -32.6134  -18.0881   17.8480 C   0  0  0  0  0  0
  -30.3581  -21.9565   20.5984 C   0  0  0  0  0  0
  -31.8849  -17.5242   18.8302 C   0  0  0  0  0  0
  -29.3124  -22.8148   20.4249 C   0  0  0  0  0  0
  -29.7282  -15.9951   20.8427 C   0  0  0  0  0  0
  -29.4583  -24.3151   20.3825 C   0  0  0  0  0  0
  -28.2964  -25.1886   19.8126 C   0  0  0  0  0  0
  -28.5017  -15.8769   21.1601 N   0  0  0  0  0  0
  -30.4795  -24.8797   20.7938 O   0  0  0  0  0  0
  -31.4925  -12.6116   19.1478 H   0  0  0  0  0  0
  -30.4523  -11.4397   19.8971 H   0  0  0  0  0  0
  -29.8030  -11.7615   17.4932 H   0  0  0  0  0  0
  -29.6313  -13.4816   17.7509 H   0  0  0  0  0  0
  -27.9113  -11.2568   18.8984 H   0  0  0  0  0  0
  -27.3781  -12.5081   17.8013 H   0  0  0  0  0  0
  -27.6655  -14.2074   19.4984 H   0  0  0  0  0  0
  -28.7568  -11.9493   21.2606 H   0  0  0  0  0  0
  -28.4372  -13.5050   21.9094 H   0  0  0  0  0  0
  -25.2716   -9.5674   22.4725 H   0  0  0  0  0  0
  -24.0015   -7.4600   22.7451 H   0  0  0  0  0  0
  -21.0788   -8.8650   19.8951 H   0  0  0  0  0  0
  -22.3578  -10.9603   19.6146 H   0  0  0  0  0  0
  -21.1919   -7.6127   23.9696 H   0  0  0  0  0  0
  -21.1471   -6.0517   25.9070 H   0  0  0  0  0  0
  -22.0611   -2.7611   23.2817 H   0  0  0  0  0  0
  -22.4155  -11.9863   22.4756 H   0  0  0  0  0  0
  -21.1173  -13.1236   22.2665 H   0  0  0  0  0  0
  -24.7340  -15.8496   20.6743 H   0  0  0  0  0  0
  -26.3874  -15.5699   20.4234 H   0  0  0  0  0  0
  -26.7138  -32.5453   23.1138 H   0  0  0  0  0  0
  -25.0073  -33.9770   25.0457 H   0  0  0  0  0  0
  -22.6991  -31.3052   21.4069 H   0  0  0  0  0  0
  -23.3735  -35.9599   23.3280 H   0  0  0  0  0  0
  -24.3547  -36.8937   22.2055 H   0  0  0  0  0  0
  -23.7195  -37.6467   23.6687 H   0  0  0  0  0  0
  -26.0651  -31.5697   20.6007 H   0  0  0  0  0  0
  -26.8276  -30.8634   21.9956 H   0  0  0  0  0  0
  -28.0971  -29.0386   21.2005 H   0  0  0  0  0  0
  -26.0143  -25.9697   18.9699 H   0  0  0  0  0  0
  -23.9899  -27.3086   18.9993 H   0  0  0  0  0  0
  -23.7164  -30.5902   19.4014 H   0  0  0  0  0  0
  -22.7426  -29.2339   19.8730 H   0  0  0  0  0  0
  -25.1270  -36.1951   25.0825 H   0  0  0  0  0  0
  -20.9992  -28.3270   24.1410 H   0  0  0  0  0  0
  -20.5585  -26.2302   23.3647 H   0  0  0  0  0  0
  -21.6622  -26.7378   22.1278 H   0  0  0  0  0  0
  -19.6890  -25.6280   21.1240 H   0  0  0  0  0  0
  -19.6691  -27.3186   20.6741 H   0  0  0  0  0  0
  -17.4193  -26.6759   21.3969 H   0  0  0  0  0  0
  -18.0257  -26.0054   22.8955 H   0  0  0  0  0  0
  -19.7936  -30.7281   24.2289 H   0  0  0  0  0  0
  -17.5004  -31.6265   24.5174 H   0  0  0  0  0  0
  -15.5360  -30.3000   23.7640 H   0  0  0  0  0  0
  -15.8670  -28.0821   22.7093 H   0  0  0  0  0  0
  -24.5997  -30.6943   25.7835 H   0  0  0  0  0  0
  -24.8794  -32.2847   26.4818 H   0  0  0  0  0  0
  -25.8080  -30.9005   27.0303 H   0  0  0  0  0  0
  -26.2907  -29.6780   24.1202 H   0  0  0  0  0  0
  -27.4042  -29.7302   25.4679 H   0  0  0  0  0  0
  -27.8750  -30.4330   23.9384 H   0  0  0  0  0  0
  -27.2738  -33.3636   26.2084 H   0  0  0  0  0  0
  -28.3886  -32.6849   25.0306 H   0  0  0  0  0  0
  -28.0743  -31.8418   26.5397 H   0  0  0  0  0  0
  -28.2608  -38.0086   24.7518 H   0  0  0  0  0  0
  -28.1075  -36.2622   24.6273 H   0  0  0  0  0  0
  -27.2309  -37.1448   25.8878 H   0  0  0  0  0  0
  -20.9301  -29.8797   21.6931 H   0  0  0  0  0  0
  -26.0149  -38.2848   24.1473 H   0  0  0  0  0  0
  -28.9326  -20.3566   22.3517 H   0  0  0  0  0  0
  -28.8516  -17.9505   22.4615 H   0  0  0  0  0  0
  -31.7563  -20.1618   19.1930 H   0  0  0  0  0  0
  -33.1957  -17.4549   17.1917 H   0  0  0  0  0  0
  -32.6620  -19.1505   17.6543 H   0  0  0  0  0  0
  -31.3424  -22.3911   20.7067 H   0  0  0  0  0  0
  -31.9515  -16.4571   18.8465 H   0  0  0  0  0  0
  -28.3159  -22.4190   20.3053 H   0  0  0  0  0  0
  -27.3595  -24.7671   20.1759 H   0  0  0  0  0  0
  -28.2988  -25.0844   18.7275 H   0  0  0  0  0  0
  -28.0965  -16.7933   21.3063 H   0  0  0  0  0  0
  1 25  1  0  0  0
  1 30  2  0  0  0
  1 81  1  0  0  0
  2  3  1  0  0  0
  2 25  1  0  0  0
  2 86  1  0  0  0
  2 87  1  0  0  0
  3  4  1  0  0  0
  3 88  1  0  0  0
  3 89  1  0  0  0
  4  5  1  0  0  0
  4 90  1  0  0  0
  4 91  1  0  0  0
  5  6  1  0  0  0
  5 26  1  0  0  0
  5 92  1  0  0  0
  6 25  1  0  0  0
  6 93  1  0  0  0
  6 94  1  0  0  0
  7  8  2  0  0  0
  7 26  1  0  0  0
  7 29  1  0  0  0
  8  9  1  0  0  0
  8 22  1  0  0  0
  9 10  1  0  0  0
  9 27  2  0  0  0
 10 11  2  0  0  0
 10 15  1  0  0  0
 11 12  1  0  0  0
 11 95  1  0  0  0
 12 13  2  0  0  0
 12 96  1  0  0  0
 13 14  1  0  0  0
 13 31  1  0  0  0
 14 15  2  0  0  0
 14 97  1  0  0  0
 15 98  1  0  0  0
 16 17  2  0  0  0
 16 21  1  0  0  0
 16 31  1  0  0  0
 17 18  1  0  0  0
 17 99  1  0  0  0
 18 19  2  0  0  0
 18100  1  0  0  0
 19 20  1  0  0  0
 19 24  1  0  0  0
 20 21  2  0  0  0
 20101  1  0  0  0
 21 23  1  0  0  0
 22 28  1  0  0  0
 22 32  2  0  0  0
 26 27  1  0  0  0
 28102  1  0  0  0
 28103  1  0  0  0
 29104  1  0  0  0
 29105  1  0  0  0
 33 34  1  0  0  0
 33 66  1  0  0  0
 33 70  2  0  0  0
 34 36  1  0  0  0
 34 59  1  0  0  0
 34106  1  0  0  0
 35 44  2  0  0  0
 35 45  1  0  0  0
 35 68  1  0  0  0
 36 56  1  0  0  0
 36107  1  0  0  0
 37 39  1  0  0  0
 37 47  1  0  0  0
 37 66  1  0  0  0
 37108  1  0  0  0
 38 43  2  0  0  0
 38 46  1  0  0  0
 38 47  1  0  0  0
 39 64  1  0  0  0
 39 67  2  0  0  0
 40 52  1  0  0  0
 40 53  2  0  0  0
 40 58  1  0  0  0
 41109  1  0  0  0
 41110  1  0  0  0
 41111  1  0  0  0
 41 48  1  0  0  0
 42 43  1  0  0  0
 42 66  1  0  0  0
 42112  1  0  0  0
 42113  1  0  0  0
 43 44  1  0  0  0
 44114  1  0  0  0
 45 46  2  0  0  0
 45115  1  0  0  0
 46116  1  0  0  0
 47117  1  0  0  0
 47118  1  0  0  0
 48 56  1  0  0  0
 48 65  1  0  0  0
 48119  1  0  0  0
 49 50  1  0  0  0
 49 53  1  0  0  0
 49 64  1  0  0  0
 49120  1  0  0  0
 50 51  1  0  0  0
 50121  1  0  0  0
 50122  1  0  0  0
 51 52  1  0  0  0
 51123  1  0  0  0
 51124  1  0  0  0
 52125  1  0  0  0
 52126  1  0  0  0
 53 54  1  0  0  0
 54 55  2  0  0  0
 54127  1  0  0  0
 55 57  1  0  0  0
 55128  1  0  0  0
 56 69  2  0  0  0
 57 58  2  0  0  0
 57129  1  0  0  0
 58130  1  0  0  0
 59 60  1  0  0  0
 59 61  1  0  0  0
 59 62  1  0  0  0
 60131  1  0  0  0
 60132  1  0  0  0
 60133  1  0  0  0
 61134  1  0  0  0
 61135  1  0  0  0
 61136  1  0  0  0
 62137  1  0  0  0
 62138  1  0  0  0
 62139  1  0  0  0
 63 65  1  0  0  0
 63140  1  0  0  0
 63141  1  0  0  0
 63142  1  0  0  0
 64143  1  0  0  0
 65144  1  0  0  0
 68 83  1  0  0  0
 71 72  2  0  0  0
 71 74  1  0  0  0
 71145  1  0  0  0
 72 75  1  0  0  0
 72146  1  0  0  0
 73 74  2  0  0  0
 73 76  1  0  0  0
 73147  1  0  0  0
 74 78  1  0  0  0
 75 76  2  0  0  0
 75 81  1  0  0  0
 76 79  1  0  0  0
 77 79  2  0  0  0
 77148  1  0  0  0
 77149  1  0  0  0
 78 80  2  0  0  0
 78150  1  0  0  0
 79151  1  0  0  0
 80 82  1  0  0  0
 80152  1  0  0  0
 81 84  2  0  0  0
 82 83  1  0  0  0
 82 85  2  0  0  0
 83153  1  0  0  0
 83154  1  0  0  0
 84155  1  0  0  0
M  ISO  4   1 100  68 101  81 100  83 101
M  END
> <chiral flag>
0

> <version>
0

> <s_m_source_file>
/data/baiqing/PycharmProjects/Reinvent-master-3.2/result/LINK_invent/BTK/process_docking_weight1_custom_product_contain_oxygen_bond_distance_aromatic_linkinvent_7_9_3/rearranged_h_0122.sdf

> <i_m_source_file_index>
43

> <r_mmod_Potential_Energy-OPLS-2005>
288.764129638672

> <r_mmod_Stretch_Energy-OPLS-2005>
95.1244888305664

> <r_mmod_Bend_Energy-OPLS-2005>
166.301330566406

> <r_mmod_Torsional_Energy-OPLS-2005>
219.050247192383

> <r_mmod_Improper_Torsional_Energy-OPLS-2005>
5.54671716690063

> <r_mmod_Van_der_Waal_Energy-OPLS-2005>
186.109924316406

> <r_mmod_Electrostatic_Energy-OPLS-2005>
-216.422882080078

> <r_mmod_Solvation_Energy-OPLS-2005>
-213.404891967773

> <b_mmod_Minimization_Converged-OPLS-2005>
0

> <r_mmod_RMS_Derivative-OPLS-2005>
5.10004186630249

$$$$
43
                    3D
 Structure written by MMmdl.
164172  0  0  1  0            999 V2000
  -30.6157  -14.5919   20.4904 C   0  0  0  0  0  0
  -30.4162  -12.3480   19.4420 C   0  0  0  0  0  0
  -29.4821  -12.4501   18.2107 C   0  0  0  0  0  0
  -28.0084  -12.2417   18.6248 C   0  0  0  0  0  0
  -27.6127  -13.1217   19.8321 C   0  0  2  0  0  0
  -28.6661  -13.0509   20.9651 C   0  0  0  0  0  0
  -25.2478  -13.7648   20.5470 C   0  0  0  0  0  0
  -24.1665  -13.0144   20.9236 C   0  0  0  0  0  0
  -24.6193  -11.6649   20.8821 C   0  0  0  0  0  0
  -23.8817  -10.4162   21.0506 C   0  0  0  0  0  0
  -24.3457   -9.4139   21.9274 C   0  0  0  0  0  0
  -23.6203   -8.2142   22.0781 C   0  0  0  0  0  0
  -22.4216   -8.0184   21.3511 C   0  0  0  0  0  0
  -21.9772   -9.0138   20.4631 C   0  0  0  0  0  0
  -22.7027  -10.2064   20.3112 C   0  0  0  0  0  0
  -21.6822   -6.0697   22.5284 C   0  0  0  0  0  0
  -21.3958   -6.5596   23.8203 C   0  0  0  0  0  0
  -21.3671   -5.6763   24.9188 C   0  0  0  0  0  0
  -21.6066   -4.3025   24.7250 C   0  0  0  0  0  0
  -21.8812   -3.8132   23.4360 C   0  0  0  0  0  0
  -21.9188   -4.6940   22.3420 C   0  0  0  0  0  0
  -22.7828  -13.5288   21.1916 C   0  0  0  0  0  0
  -22.1676   -4.2157   21.0988 F   0  0  0  0  0  0
  -21.5684   -3.4480   25.7740 F   0  0  0  0  0  0
  -29.9804  -13.3780   20.4091 N   0  0  0  0  0  0
  -26.2752  -12.8662   20.3156 N   0  0  0  0  0  0
  -25.9099  -11.5952   20.5792 N   0  0  0  0  0  0
  -22.0425  -12.8426   22.0641 N   0  0  0  0  0  0
  -25.4202  -15.1106   20.3471 N   0  0  0  0  0  0
  -31.8149  -14.7210   20.2481 O   0  0  0  0  0  0
  -21.6587   -6.8806   21.4233 O   0  0  0  0  0  0
  -22.3618  -14.5581   20.6673 O   0  0  0  0  0  0
  -24.6058  -31.8660   23.2156 C   0  0  0  0  0  0
  -25.8925  -32.4840   23.8405 C   0  0  1  0  0  0
  -27.1926  -27.4084   20.1451 C   0  0  0  0  0  0
  -25.5806  -33.8662   24.2330 N   0  0  0  0  0  0
  -23.3873  -30.4933   21.5682 C   0  0  2  0  0  0
  -24.8364  -28.9706   20.1044 C   0  0  0  0  0  0
  -22.7316  -29.4443   22.4974 C   0  0  0  0  0  0
  -18.0258  -28.1184   22.8434 C   0  0  0  0  0  0
  -24.1471  -36.7297   23.2653 C   0  0  0  0  0  0
  -25.9169  -30.8306   21.3710 C   0  0  0  0  0  0
  -25.9939  -29.4699   20.7150 C   0  0  0  0  0  0
  -27.1759  -28.6918   20.7382 C   0  0  0  0  0  0
  -26.0302  -26.9426   19.4866 C   0  0  0  0  0  0
  -24.8504  -27.7120   19.4762 C   0  0  0  0  0  0
  -23.6026  -29.8478   20.1711 C   0  0  0  0  0  0
  -25.4080  -36.3132   24.0387 C   0  0  1  0  0  0
  -20.5899  -28.3234   23.1257 C   0  0  2  0  0  0
  -20.6388  -26.8873   22.5133 C   0  0  0  0  0  0
  -19.5507  -26.6188   21.4799 C   0  0  0  0  0  0
  -18.1752  -26.7847   22.1367 C   0  0  0  0  0  0
  -19.1607  -28.8499   23.2962 C   0  0  0  0  0  0
  -18.9612  -30.1146   23.8961 C   0  0  0  0  0  0
  -17.6558  -30.6204   24.0587 C   0  0  0  0  0  0
  -25.8978  -34.9499   23.5146 C   0  0  0  0  0  0
  -16.5384  -29.8795   23.6362 C   0  0  0  0  0  0
  -16.7266  -28.6279   23.0273 C   0  0  0  0  0  0
  -26.4379  -31.6675   25.0783 C   0  0  0  0  0  0
  -25.3682  -31.3718   26.1573 C   0  0  0  0  0  0
  -27.0202  -30.3164   24.6146 C   0  0  0  0  0  0
  -27.5965  -32.4354   25.7522 C   0  0  0  0  0  0
  -27.5588  -37.1808   24.8481 C   0  0  0  0  0  0
  -21.4094  -29.2648   22.3506 N   0  0  0  0  0  0
  -26.4286  -37.3808   23.9453 N   0  0  0  0  0  0
  -24.6563  -31.0734   22.1093 N   0  0  0  0  0  0
  -23.4073  -28.7925   23.2990 O   0  0  0  0  0  0
  -28.2973  -26.5939   20.2553 O   0  0  0  0  0  0
  -26.5540  -34.8926   22.4711 O   0  0  0  0  0  0
  -23.5233  -32.1430   23.7534 O   0  0  0  0  0  0
  -30.9662  -17.2151   22.1724 C   0  0  0  0  0  0
  -30.2331  -19.4696   22.8206 C   0  0  0  0  0  0
  -29.8376  -17.0478   21.3405 C   0  0  0  0  0  0
  -28.8147  -18.0563   21.4451 C   0  0  0  0  0  0
  -29.0944  -19.3665   21.9891 C   0  0  0  0  0  0
  -31.1190  -18.3749   22.9649 C   0  0  0  0  0  0
  -29.7116  -15.8610   20.3802 C   0  0  0  0  0  0
  -25.6127  -18.8755   22.5447 C   0  0  0  0  0  0
  -27.3809  -17.4942   21.4660 C   0  0  0  0  0  0
  -26.1630  -18.3751   21.1938 C   0  0  0  0  0  0
  -28.7668  -24.1394   20.1714 C   0  0  0  0  0  0
  -28.3332  -22.6438   20.4637 C   0  0  0  0  0  0
  -28.0731  -25.3203   20.9191 C   0  0  0  0  0  0
  -28.8899  -21.8175   21.6725 C   0  0  0  0  0  0
  -28.9297  -15.9967   19.3828 N   0  0  0  0  0  0
  -28.2712  -20.4883   21.7772 O   0  0  0  0  0  0
  -32.1431  -18.4439   23.8521 F   0  0  0  0  0  0
  -31.4585  -12.4770   19.1469 H   0  0  0  0  0  0
  -30.3379  -11.3613   19.8984 H   0  0  0  0  0  0
  -29.7658  -11.7093   17.4614 H   0  0  0  0  0  0
  -29.5886  -13.4378   17.7541 H   0  0  0  0  0  0
  -27.8774  -11.1896   18.8605 H   0  0  0  0  0  0
  -27.3340  -12.4497   17.7923 H   0  0  0  0  0  0
  -27.5476  -14.1038   19.4029 H   0  0  0  0  0  0
  -28.7087  -12.0367   21.3550 H   0  0  0  0  0  0
  -28.3955  -13.6839   21.8128 H   0  0  0  0  0  0
  -25.2570   -9.5682   22.4894 H   0  0  0  0  0  0
  -23.9951   -7.4511   22.7464 H   0  0  0  0  0  0
  -21.0751   -8.8639   19.8874 H   0  0  0  0  0  0
  -22.3444  -10.9631   19.6259 H   0  0  0  0  0  0
  -21.1870   -7.6082   23.9703 H   0  0  0  0  0  0
  -21.1500   -6.0493   25.9080 H   0  0  0  0  0  0
  -22.0568   -2.7607   23.2801 H   0  0  0  0  0  0
  -22.3835  -11.9797   22.4554 H   0  0  0  0  0  0
  -21.1021  -13.1452   22.2845 H   0  0  0  0  0  0
  -24.6781  -15.7887   20.4157 H   0  0  0  0  0  0
  -26.2775  -15.4617   19.9332 H   0  0  0  0  0  0
  -26.6917  -32.5584   23.1072 H   0  0  0  0  0  0
  -24.9962  -33.9857   25.0499 H   0  0  0  0  0  0
  -22.6657  -31.3033   21.4417 H   0  0  0  0  0  0
  -23.3762  -35.9609   23.3292 H   0  0  0  0  0  0
  -24.3535  -36.8922   22.2065 H   0  0  0  0  0  0
  -23.7177  -37.6499   23.6649 H   0  0  0  0  0  0
  -26.0140  -31.6059   20.6002 H   0  0  0  0  0  0
  -26.8013  -30.8833   21.9907 H   0  0  0  0  0  0
  -28.0524  -29.0634   21.2496 H   0  0  0  0  0  0
  -26.0071  -25.9789   18.9955 H   0  0  0  0  0  0
  -23.9629  -27.3328   18.9917 H   0  0  0  0  0  0
  -23.7112  -30.6418   19.4299 H   0  0  0  0  0  0
  -22.7085  -29.3088   19.8470 H   0  0  0  0  0  0
  -25.1253  -36.1991   25.0893 H   0  0  0  0  0  0
  -21.0113  -28.2548   24.1305 H   0  0  0  0  0  0
  -20.4816  -26.1655   23.3146 H   0  0  0  0  0  0
  -21.6313  -26.6461   22.1007 H   0  0  0  0  0  0
  -19.6353  -25.6189   21.0656 H   0  0  0  0  0  0
  -19.6770  -27.3079   20.6325 H   0  0  0  0  0  0
  -17.3986  -26.7013   21.3696 H   0  0  0  0  0  0
  -17.9748  -25.9824   22.8452 H   0  0  0  0  0  0
  -19.8068  -30.7031   24.2395 H   0  0  0  0  0  0
  -17.5186  -31.5769   24.5260 H   0  0  0  0  0  0
  -15.5383  -30.2644   23.8006 H   0  0  0  0  0  0
  -15.8662  -28.0582   22.6986 H   0  0  0  0  0  0
  -24.5839  -30.7042   25.7956 H   0  0  0  0  0  0
  -24.8862  -32.2840   26.5122 H   0  0  0  0  0  0
  -25.8110  -30.8888   27.0284 H   0  0  0  0  0  0
  -26.2793  -29.6944   24.1097 H   0  0  0  0  0  0
  -27.3828  -29.7389   25.4639 H   0  0  0  0  0  0
  -27.8644  -30.4518   23.9360 H   0  0  0  0  0  0
  -27.2620  -33.3623   26.2145 H   0  0  0  0  0  0
  -28.3748  -32.6904   25.0331 H   0  0  0  0  0  0
  -28.0613  -31.8451   26.5424 H   0  0  0  0  0  0
  -28.2604  -38.0095   24.7522 H   0  0  0  0  0  0
  -28.1056  -36.2634   24.6291 H   0  0  0  0  0  0
  -27.2293  -37.1435   25.8871 H   0  0  0  0  0  0
  -20.9179  -29.8406   21.6757 H   0  0  0  0  0  0
  -26.0168  -38.2895   24.1456 H   0  0  0  0  0  0
  -31.6930  -16.4262   22.2453 H   0  0  0  0  0  0
  -30.4058  -20.3533   23.4218 H   0  0  0  0  0  0
  -24.5847  -19.2264   22.4579 H   0  0  0  0  0  0
  -26.2260  -19.6710   22.9728 H   0  0  0  0  0  0
  -25.5878  -18.0675   23.2800 H   0  0  0  0  0  0
  -27.3065  -17.0735   22.4695 H   0  0  0  0  0  0
  -27.2584  -16.5917   20.9083 H   0  0  0  0  0  0
  -26.3829  -19.1449   20.4468 H   0  0  0  0  0  0
  -25.3708  -17.7631   20.7461 H   0  0  0  0  0  0
  -28.4896  -24.3435   19.1294 H   0  0  0  0  0  0
  -29.8459  -24.2697   20.2142 H   0  0  0  0  0  0
  -28.6390  -22.0803   19.5718 H   0  0  0  0  0  0
  -27.2456  -22.6153   20.5195 H   0  0  0  0  0  0
  -28.4690  -25.4146   21.9301 H   0  0  0  0  0  0
  -27.0029  -25.1114   21.0243 H   0  0  0  0  0  0
  -28.7443  -22.4209   22.5712 H   0  0  0  0  0  0
  -29.9655  -21.7001   21.5513 H   0  0  0  0  0  0
  -28.4125  -16.8614   19.5245 H   0  0  0  0  0  0
  1 25  1  0  0  0
  1 30  2  0  0  0
  1 77  1  0  0  0
  2  3  1  0  0  0
  2 25  1  0  0  0
  2 88  1  0  0  0
  2 89  1  0  0  0
  3  4  1  0  0  0
  3 90  1  0  0  0
  3 91  1  0  0  0
  4  5  1  0  0  0
  4 92  1  0  0  0
  4 93  1  0  0  0
  5  6  1  0  0  0
  5 26  1  0  0  0
  5 94  1  0  0  0
  6 25  1  0  0  0
  6 95  1  0  0  0
  6 96  1  0  0  0
  7  8  2  0  0  0
  7 26  1  0  0  0
  7 29  1  0  0  0
  8  9  1  0  0  0
  8 22  1  0  0  0
  9 10  1  0  0  0
  9 27  2  0  0  0
 10 11  2  0  0  0
 10 15  1  0  0  0
 11 12  1  0  0  0
 11 97  1  0  0  0
 12 13  2  0  0  0
 12 98  1  0  0  0
 13 14  1  0  0  0
 13 31  1  0  0  0
 14 15  2  0  0  0
 14 99  1  0  0  0
 15100  1  0  0  0
 16 17  2  0  0  0
 16 21  1  0  0  0
 16 31  1  0  0  0
 17 18  1  0  0  0
 17101  1  0  0  0
 18 19  2  0  0  0
 18102  1  0  0  0
 19 20  1  0  0  0
 19 24  1  0  0  0
 20 21  2  0  0  0
 20103  1  0  0  0
 21 23  1  0  0  0
 22 28  1  0  0  0
 22 32  2  0  0  0
 26 27  1  0  0  0
 28104  1  0  0  0
 28105  1  0  0  0
 29106  1  0  0  0
 29107  1  0  0  0
 33 34  1  0  0  0
 33 66  1  0  0  0
 33 70  2  0  0  0
 34 36  1  0  0  0
 34 59  1  0  0  0
 34108  1  0  0  0
 35 44  2  0  0  0
 35 45  1  0  0  0
 35 68  1  0  0  0
 36 56  1  0  0  0
 36109  1  0  0  0
 37 39  1  0  0  0
 37 47  1  0  0  0
 37 66  1  0  0  0
 37110  1  0  0  0
 38 43  2  0  0  0
 38 46  1  0  0  0
 38 47  1  0  0  0
 39 64  1  0  0  0
 39 67  2  0  0  0
 40 52  1  0  0  0
 40 53  2  0  0  0
 40 58  1  0  0  0
 41111  1  0  0  0
 41112  1  0  0  0
 41113  1  0  0  0
 41 48  1  0  0  0
 42 43  1  0  0  0
 42 66  1  0  0  0
 42114  1  0  0  0
 42115  1  0  0  0
 43 44  1  0  0  0
 44116  1  0  0  0
 45 46  2  0  0  0
 45117  1  0  0  0
 46118  1  0  0  0
 47119  1  0  0  0
 47120  1  0  0  0
 48 56  1  0  0  0
 48 65  1  0  0  0
 48121  1  0  0  0
 49 50  1  0  0  0
 49 53  1  0  0  0
 49 64  1  0  0  0
 49122  1  0  0  0
 50 51  1  0  0  0
 50123  1  0  0  0
 50124  1  0  0  0
 51 52  1  0  0  0
 51125  1  0  0  0
 51126  1  0  0  0
 52127  1  0  0  0
 52128  1  0  0  0
 53 54  1  0  0  0
 54 55  2  0  0  0
 54129  1  0  0  0
 55 57  1  0  0  0
 55130  1  0  0  0
 56 69  2  0  0  0
 57 58  2  0  0  0
 57131  1  0  0  0
 58132  1  0  0  0
 59 60  1  0  0  0
 59 61  1  0  0  0
 59 62  1  0  0  0
 60133  1  0  0  0
 60134  1  0  0  0
 60135  1  0  0  0
 61136  1  0  0  0
 61137  1  0  0  0
 61138  1  0  0  0
 62139  1  0  0  0
 62140  1  0  0  0
 62141  1  0  0  0
 63 65  1  0  0  0
 63142  1  0  0  0
 63143  1  0  0  0
 63144  1  0  0  0
 64145  1  0  0  0
 65146  1  0  0  0
 68 83  1  0  0  0
 71 73  2  0  0  0
 71 76  1  0  0  0
 71147  1  0  0  0
 72 75  1  0  0  0
 72 76  2  0  0  0
 72148  1  0  0  0
 73 74  1  0  0  0
 73 77  1  0  0  0
 74 75  2  0  0  0
 74 79  1  0  0  0
 75 86  1  0  0  0
 76 87  1  0  0  0
 77 85  2  0  0  0
 78 80  1  0  0  0
 78149  1  0  0  0
 78150  1  0  0  0
 78151  1  0  0  0
 79 80  1  0  0  0
 79152  1  0  0  0
 79153  1  0  0  0
 80154  1  0  0  0
 80155  1  0  0  0
 81 82  1  0  0  0
 81 83  1  0  0  0
 81156  1  0  0  0
 81157  1  0  0  0
 82 84  1  0  0  0
 82158  1  0  0  0
 82159  1  0  0  0
 83160  1  0  0  0
 83161  1  0  0  0
 84 86  1  0  0  0
 84162  1  0  0  0
 84163  1  0  0  0
 85164  1  0  0  0
M  ISO  4   1 100  68 101  77 100  83 101
M  END
> <chiral flag>
0

> <version>
0

> <s_m_source_file>
/data/baiqing/PycharmProjects/Reinvent-master-3.2/result/LINK_invent/BTK/process_docking_weight1_custom_product_contain_oxygen_bond_distance_aromatic_linkinvent_7_9_3/rearranged_h_0122.sdf

> <i_m_source_file_index>
44

> <r_mmod_Potential_Energy-OPLS-2005>
390.331695556641

> <r_mmod_Stretch_Energy-OPLS-2005>
73.2686462402344

> <r_mmod_Bend_Energy-OPLS-2005>
158.795806884766

> <r_mmod_Torsional_Energy-OPLS-2005>
349.101623535156

> <r_mmod_Improper_Torsional_Energy-OPLS-2005>
20.0821628570557

> <r_mmod_Van_der_Waal_Energy-OPLS-2005>
179.353134155273

> <r_mmod_Electrostatic_Energy-OPLS-2005>
-256.408264160156

> <r_mmod_Solvation_Energy-OPLS-2005>
-182.378662109375

> <b_mmod_Minimization_Converged-OPLS-2005>
0

> <r_mmod_RMS_Derivative-OPLS-2005>
18.6971092224121

$$$$
44
                    3D
 Structure written by MMmdl.
153161  0  0  1  0            999 V2000
  -30.6567  -14.5697   20.5010 C   0  0  0  0  0  0
  -30.4333  -12.3436   19.4577 C   0  0  0  0  0  0
  -29.5108  -12.5034   18.2290 C   0  0  0  0  0  0
  -28.0319  -12.3568   18.6341 C   0  0  0  0  0  0
  -27.6608  -13.2140   19.8725 C   0  0  2  0  0  0
  -28.7022  -13.0466   21.0047 C   0  0  0  0  0  0
  -25.2595  -13.8160   20.5674 C   0  0  0  0  0  0
  -24.1851  -13.0431   20.9164 C   0  0  0  0  0  0
  -24.6406  -11.6903   20.8712 C   0  0  0  0  0  0
  -23.9066  -10.4293   21.0384 C   0  0  0  0  0  0
  -24.3608   -9.4212   21.9169 C   0  0  0  0  0  0
  -23.6298   -8.2241   22.0742 C   0  0  0  0  0  0
  -22.4281   -8.0278   21.3538 C   0  0  0  0  0  0
  -21.9916   -9.0245   20.4631 C   0  0  0  0  0  0
  -22.7238  -10.2130   20.3032 C   0  0  0  0  0  0
  -21.6852   -6.0739   22.5284 C   0  0  0  0  0  0
  -21.3996   -6.5642   23.8209 C   0  0  0  0  0  0
  -21.3655   -5.6791   24.9172 C   0  0  0  0  0  0
  -21.6051   -4.3058   24.7223 C   0  0  0  0  0  0
  -21.8829   -3.8154   23.4349 C   0  0  0  0  0  0
  -21.9181   -4.6969   22.3403 C   0  0  0  0  0  0
  -22.7870  -13.5213   21.1848 C   0  0  0  0  0  0
  -22.1661   -4.2147   21.0986 F   0  0  0  0  0  0
  -21.5648   -3.4546   25.7737 F   0  0  0  0  0  0
  -30.0300  -13.3567   20.4513 N   0  0  0  0  0  0
  -26.3024  -12.9332   20.3335 N   0  0  0  0  0  0
  -25.9336  -11.6484   20.5742 N   0  0  0  0  0  0
  -22.0531  -12.8176   22.0400 N   0  0  0  0  0  0
  -25.4346  -15.1876   20.4101 N   0  0  0  0  0  0
  -31.8088  -14.7285   20.0887 O   0  0  0  0  0  0
  -21.6644   -6.8881   21.4243 O   0  0  0  0  0  0
  -22.3544  -14.5530   20.6723 O   0  0  0  0  0  0
  -24.6224  -31.8621   23.2063 C   0  0  0  0  0  0
  -25.9089  -32.4776   23.8373 C   0  0  1  0  0  0
  -27.2121  -27.3613   20.1003 C   0  0  0  0  0  0
  -25.5922  -33.8579   24.2299 N   0  0  0  0  0  0
  -23.4114  -30.4897   21.5486 C   0  0  2  0  0  0
  -24.8527  -28.9560   20.1080 C   0  0  0  0  0  0
  -22.7463  -29.4625   22.4957 C   0  0  0  0  0  0
  -18.0285  -28.1358   22.8486 C   0  0  0  0  0  0
  -24.1497  -36.7307   23.2640 C   0  0  0  0  0  0
  -25.9497  -30.8079   21.3688 C   0  0  0  0  0  0
  -26.0217  -29.4405   20.7090 C   0  0  0  0  0  0
  -27.2058  -28.6529   20.6967 C   0  0  0  0  0  0
  -26.0178  -26.9206   19.4788 C   0  0  0  0  0  0
  -24.8497  -27.7007   19.4861 C   0  0  0  0  0  0
  -23.6200  -29.8308   20.1604 C   0  0  0  0  0  0
  -25.4109  -36.3082   24.0336 C   0  0  1  0  0  0
  -20.5888  -28.3648   23.1307 C   0  0  2  0  0  0
  -20.6767  -26.9380   22.5408 C   0  0  0  0  0  0
  -19.5739  -26.6367   21.5211 C   0  0  0  0  0  0
  -18.1924  -26.7905   22.1626 C   0  0  0  0  0  0
  -19.1537  -28.8824   23.2893 C   0  0  0  0  0  0
  -18.9456  -30.1438   23.8890 C   0  0  0  0  0  0
  -17.6453  -30.6563   24.0551 C   0  0  0  0  0  0
  -25.9040  -34.9447   23.5114 C   0  0  0  0  0  0
  -16.5345  -29.9048   23.6334 C   0  0  0  0  0  0
  -16.7278  -28.6471   23.0347 C   0  0  0  0  0  0
  -26.4492  -31.6554   25.0722 C   0  0  0  0  0  0
  -25.3751  -31.3652   26.1469 C   0  0  0  0  0  0
  -27.0309  -30.2982   24.6116 C   0  0  0  0  0  0
  -27.6074  -32.4263   25.7489 C   0  0  0  0  0  0
  -27.5580  -37.1801   24.8460 C   0  0  0  0  0  0
  -21.4178  -29.3004   22.3701 N   0  0  0  0  0  0
  -26.4288  -37.3776   23.9414 N   0  0  0  0  0  0
  -24.6800  -31.0689   22.0987 N   0  0  0  0  0  0
  -23.4218  -28.8165   23.3006 O   0  0  0  0  0  0
  -28.3383  -26.5383   20.1469 O   0  0  0  0  0  0
  -26.5611  -34.8905   22.4680 O   0  0  0  0  0  0
  -23.5400  -32.1405   23.7421 O   0  0  0  0  0  0
  -29.5403  -19.5509   20.2161 C   0  0  0  0  0  0
  -30.0371  -18.2724   20.6703 C   0  0  0  0  0  0
  -30.7504  -18.5747   21.8058 C   0  0  0  0  0  0
  -30.0158  -20.5104   21.0782 C   0  0  0  0  0  0
  -29.2426  -24.1603   20.4361 C   0  0  0  0  0  0
  -31.5396  -17.7396   22.7591 C   0  0  0  0  0  0
  -29.8615  -16.9052   19.9737 C   0  0  0  0  0  0
  -28.0861  -25.1022   19.9882 C   0  0  0  0  0  0
  -29.0021  -22.6129   20.3768 C   0  0  0  0  0  0
  -29.8594  -15.6379   20.7589 N   0  0  0  0  0  0
  -30.3273  -24.6234   20.8098 O   0  0  0  0  0  0
  -30.7490  -19.9236   22.0591 O   0  0  0  0  0  0
  -29.9794  -21.8814   21.1534 O   0  0  0  0  0  0
  -31.4802  -12.4431   19.1641 H   0  0  0  0  0  0
  -30.3404  -11.3439   19.8823 H   0  0  0  0  0  0
  -29.7650  -11.7642   17.4677 H   0  0  0  0  0  0
  -29.6708  -13.4834   17.7748 H   0  0  0  0  0  0
  -27.8535  -11.3030   18.8500 H   0  0  0  0  0  0
  -27.3813  -12.6084   17.7956 H   0  0  0  0  0  0
  -27.6872  -14.2531   19.5456 H   0  0  0  0  0  0
  -28.6911  -12.0252   21.3885 H   0  0  0  0  0  0
  -28.4596  -13.6843   21.8544 H   0  0  0  0  0  0
  -25.2754   -9.5691   22.4752 H   0  0  0  0  0  0
  -24.0010   -7.4636   22.7463 H   0  0  0  0  0  0
  -21.0839   -8.8744   19.8944 H   0  0  0  0  0  0
  -22.3682  -10.9652   19.6144 H   0  0  0  0  0  0
  -21.1967   -7.6148   23.9696 H   0  0  0  0  0  0
  -21.1474   -6.0530   25.9067 H   0  0  0  0  0  0
  -22.0602   -2.7612   23.2838 H   0  0  0  0  0  0
  -22.4111  -11.9790   22.4736 H   0  0  0  0  0  0
  -21.1167  -13.1198   22.2658 H   0  0  0  0  0  0
  -24.6767  -15.8517   20.5301 H   0  0  0  0  0  0
  -26.2922  -15.6242   20.0948 H   0  0  0  0  0  0
  -26.7157  -32.5456   23.1124 H   0  0  0  0  0  0
  -25.0047  -33.9721   25.0427 H   0  0  0  0  0  0
  -22.7030  -31.3090   21.4122 H   0  0  0  0  0  0
  -23.3746  -35.9653   23.3283 H   0  0  0  0  0  0
  -24.3610  -36.8944   22.2062 H   0  0  0  0  0  0
  -23.7264  -37.6510   23.6671 H   0  0  0  0  0  0
  -26.0744  -31.5753   20.6025 H   0  0  0  0  0  0
  -26.8342  -30.8520   21.9932 H   0  0  0  0  0  0
  -28.1037  -29.0166   21.1755 H   0  0  0  0  0  0
  -25.9495  -25.9627   18.9857 H   0  0  0  0  0  0
  -23.9519  -27.3285   19.0109 H   0  0  0  0  0  0
  -23.7299  -30.6083   19.4031 H   0  0  0  0  0  0
  -22.7414  -29.2547   19.8638 H   0  0  0  0  0  0
  -25.1288  -36.1933   25.0833 H   0  0  0  0  0  0
  -20.9990  -28.3189   24.1426 H   0  0  0  0  0  0
  -20.5666  -26.2245   23.3587 H   0  0  0  0  0  0
  -21.6632  -26.7393   22.1199 H   0  0  0  0  0  0
  -19.6885  -25.6285   21.1215 H   0  0  0  0  0  0
  -19.6677  -27.3198   20.6762 H   0  0  0  0  0  0
  -17.4197  -26.6683   21.4024 H   0  0  0  0  0  0
  -18.0307  -26.0041   22.9018 H   0  0  0  0  0  0
  -19.7933  -30.7264   24.2241 H   0  0  0  0  0  0
  -17.4999  -31.6246   24.5145 H   0  0  0  0  0  0
  -15.5340  -30.2930   23.7659 H   0  0  0  0  0  0
  -15.8691  -28.0785   22.7040 H   0  0  0  0  0  0
  -24.5943  -30.6983   25.7797 H   0  0  0  0  0  0
  -24.8929  -32.2795   26.4937 H   0  0  0  0  0  0
  -25.8124  -30.8807   27.0207 H   0  0  0  0  0  0
  -26.2841  -29.6746   24.1189 H   0  0  0  0  0  0
  -27.4066  -29.7231   25.4585 H   0  0  0  0  0  0
  -27.8700  -30.4270   23.9277 H   0  0  0  0  0  0
  -27.2703  -33.3556   26.2083 H   0  0  0  0  0  0
  -28.3887  -32.6803   25.0318 H   0  0  0  0  0  0
  -28.0728  -31.8359   26.5386 H   0  0  0  0  0  0
  -28.2571  -38.0118   24.7518 H   0  0  0  0  0  0
  -28.1096  -36.2649   24.6260 H   0  0  0  0  0  0
  -27.2304  -37.1422   25.8862 H   0  0  0  0  0  0
  -20.9346  -29.8736   21.6931 H   0  0  0  0  0  0
  -26.0162  -38.2851   24.1410 H   0  0  0  0  0  0
  -28.9436  -19.7359   19.3347 H   0  0  0  0  0  0
  -32.2277  -17.0851   22.2248 H   0  0  0  0  0  0
  -30.8764  -17.1147   23.3588 H   0  0  0  0  0  0
  -32.1335  -18.3535   23.4373 H   0  0  0  0  0  0
  -30.6073  -16.8478   19.1777 H   0  0  0  0  0  0
  -28.9041  -16.9428   19.4539 H   0  0  0  0  0  0
  -27.2097  -24.8187   20.5732 H   0  0  0  0  0  0
  -27.8612  -24.8859   18.9440 H   0  0  0  0  0  0
  -29.0315  -22.2920   19.3359 H   0  0  0  0  0  0
  -28.0050  -22.3932   20.7610 H   0  0  0  0  0  0
  -28.9718  -15.4017   21.1730 H   0  0  0  0  0  0
  1 25  1  0  0  0
  1 30  2  0  0  0
  1 80  1  0  0  0
  2  3  1  0  0  0
  2 25  1  0  0  0
  2 84  1  0  0  0
  2 85  1  0  0  0
  3  4  1  0  0  0
  3 86  1  0  0  0
  3 87  1  0  0  0
  4  5  1  0  0  0
  4 88  1  0  0  0
  4 89  1  0  0  0
  5  6  1  0  0  0
  5 26  1  0  0  0
  5 90  1  0  0  0
  6 25  1  0  0  0
  6 91  1  0  0  0
  6 92  1  0  0  0
  7  8  2  0  0  0
  7 26  1  0  0  0
  7 29  1  0  0  0
  8  9  1  0  0  0
  8 22  1  0  0  0
  9 10  1  0  0  0
  9 27  2  0  0  0
 10 11  2  0  0  0
 10 15  1  0  0  0
 11 12  1  0  0  0
 11 93  1  0  0  0
 12 13  2  0  0  0
 12 94  1  0  0  0
 13 14  1  0  0  0
 13 31  1  0  0  0
 14 15  2  0  0  0
 14 95  1  0  0  0
 15 96  1  0  0  0
 16 17  2  0  0  0
 16 21  1  0  0  0
 16 31  1  0  0  0
 17 18  1  0  0  0
 17 97  1  0  0  0
 18 19  2  0  0  0
 18 98  1  0  0  0
 19 20  1  0  0  0
 19 24  1  0  0  0
 20 21  2  0  0  0
 20 99  1  0  0  0
 21 23  1  0  0  0
 22 28  1  0  0  0
 22 32  2  0  0  0
 26 27  1  0  0  0
 28100  1  0  0  0
 28101  1  0  0  0
 29102  1  0  0  0
 29103  1  0  0  0
 33 34  1  0  0  0
 33 66  1  0  0  0
 33 70  2  0  0  0
 34 36  1  0  0  0
 34 59  1  0  0  0
 34104  1  0  0  0
 35 44  2  0  0  0
 35 45  1  0  0  0
 35 68  1  0  0  0
 36 56  1  0  0  0
 36105  1  0  0  0
 37 39  1  0  0  0
 37 47  1  0  0  0
 37 66  1  0  0  0
 37106  1  0  0  0
 38 43  2  0  0  0
 38 46  1  0  0  0
 38 47  1  0  0  0
 39 64  1  0  0  0
 39 67  2  0  0  0
 40 52  1  0  0  0
 40 53  2  0  0  0
 40 58  1  0  0  0
 41107  1  0  0  0
 41108  1  0  0  0
 41109  1  0  0  0
 41 48  1  0  0  0
 42 43  1  0  0  0
 42 66  1  0  0  0
 42110  1  0  0  0
 42111  1  0  0  0
 43 44  1  0  0  0
 44112  1  0  0  0
 45 46  2  0  0  0
 45113  1  0  0  0
 46114  1  0  0  0
 47115  1  0  0  0
 47116  1  0  0  0
 48 56  1  0  0  0
 48 65  1  0  0  0
 48117  1  0  0  0
 49 50  1  0  0  0
 49 53  1  0  0  0
 49 64  1  0  0  0
 49118  1  0  0  0
 50 51  1  0  0  0
 50119  1  0  0  0
 50120  1  0  0  0
 51 52  1  0  0  0
 51121  1  0  0  0
 51122  1  0  0  0
 52123  1  0  0  0
 52124  1  0  0  0
 53 54  1  0  0  0
 54 55  2  0  0  0
 54125  1  0  0  0
 55 57  1  0  0  0
 55126  1  0  0  0
 56 69  2  0  0  0
 57 58  2  0  0  0
 57127  1  0  0  0
 58128  1  0  0  0
 59 60  1  0  0  0
 59 61  1  0  0  0
 59 62  1  0  0  0
 60129  1  0  0  0
 60130  1  0  0  0
 60131  1  0  0  0
 61132  1  0  0  0
 61133  1  0  0  0
 61134  1  0  0  0
 62135  1  0  0  0
 62136  1  0  0  0
 62137  1  0  0  0
 63 65  1  0  0  0
 63138  1  0  0  0
 63139  1  0  0  0
 63140  1  0  0  0
 64141  1  0  0  0
 65142  1  0  0  0
 68 78  1  0  0  0
 71 72  1  0  0  0
 71 74  2  0  0  0
 71143  1  0  0  0
 72 73  2  0  0  0
 72 77  1  0  0  0
 73 76  1  0  0  0
 73 82  1  0  0  0
 74 82  1  0  0  0
 74 83  1  0  0  0
 75 78  1  0  0  0
 75 79  1  0  0  0
 75 81  2  0  0  0
 76144  1  0  0  0
 76145  1  0  0  0
 76146  1  0  0  0
 77 80  1  0  0  0
 77147  1  0  0  0
 77148  1  0  0  0
 78149  1  0  0  0
 78150  1  0  0  0
 79 83  1  0  0  0
 79151  1  0  0  0
 79152  1  0  0  0
 80153  1  0  0  0
M  ISO  4   1 100  68 101  78 101  80 100
M  END
> <chiral flag>
0

> <version>
0

> <s_m_source_file>
/data/baiqing/PycharmProjects/Reinvent-master-3.2/result/LINK_invent/BTK/process_docking_weight1_custom_product_contain_oxygen_bond_distance_aromatic_linkinvent_7_9_3/rearranged_h_0122.sdf

> <i_m_source_file_index>
45

> <r_mmod_Potential_Energy-OPLS-2005>
-77.8412094116211

> <r_mmod_Stretch_Energy-OPLS-2005>
53.4087829589844

> <r_mmod_Bend_Energy-OPLS-2005>
119.742820739746

> <r_mmod_Torsional_Energy-OPLS-2005>
216.854431152344

> <r_mmod_Improper_Torsional_Energy-OPLS-2005>
9.28458118438721

> <r_mmod_Van_der_Waal_Energy-OPLS-2005>
123.964851379395

> <r_mmod_Electrostatic_Energy-OPLS-2005>
-372.535217285156

> <r_mmod_Solvation_Energy-OPLS-2005>
-260.331085205078

> <b_mmod_Minimization_Converged-OPLS-2005>
0

> <r_mmod_RMS_Derivative-OPLS-2005>
2.55713033676147

$$$$
45
                    3D
 Structure written by MMmdl.
157165  0  0  1  0            999 V2000
  -30.6441  -14.6746   20.4440 C   0  0  0  0  0  0
  -30.4174  -12.4005   19.4772 C   0  0  0  0  0  0
  -29.5084  -12.5076   18.2345 C   0  0  0  0  0  0
  -28.0276  -12.3533   18.6339 C   0  0  0  0  0  0
  -27.6422  -13.2324   19.8545 C   0  0  2  0  0  0
  -28.6836  -13.1354   20.9876 C   0  0  0  0  0  0
  -25.2504  -13.8196   20.5687 C   0  0  0  0  0  0
  -24.1801  -13.0443   20.9190 C   0  0  0  0  0  0
  -24.6381  -11.6914   20.8725 C   0  0  0  0  0  0
  -23.9065  -10.4296   21.0393 C   0  0  0  0  0  0
  -24.3614   -9.4220   21.9175 C   0  0  0  0  0  0
  -23.6292   -8.2254   22.0744 C   0  0  0  0  0  0
  -22.4273   -8.0272   21.3544 C   0  0  0  0  0  0
  -21.9909   -9.0243   20.4647 C   0  0  0  0  0  0
  -22.7234  -10.2125   20.3050 C   0  0  0  0  0  0
  -21.6860   -6.0732   22.5276 C   0  0  0  0  0  0
  -21.4031   -6.5640   23.8212 C   0  0  0  0  0  0
  -21.3673   -5.6789   24.9174 C   0  0  0  0  0  0
  -21.6046   -4.3051   24.7230 C   0  0  0  0  0  0
  -21.8820   -3.8146   23.4346 C   0  0  0  0  0  0
  -21.9196   -4.6961   22.3401 C   0  0  0  0  0  0
  -22.7831  -13.5229   21.1869 C   0  0  0  0  0  0
  -22.1654   -4.2153   21.0978 F   0  0  0  0  0  0
  -21.5637   -3.4528   25.7743 F   0  0  0  0  0  0
  -29.9987  -13.4603   20.4226 N   0  0  0  0  0  0
  -26.2938  -12.9411   20.3292 N   0  0  0  0  0  0
  -25.9317  -11.6551   20.5744 N   0  0  0  0  0  0
  -22.0484  -12.8207   22.0424 N   0  0  0  0  0  0
  -25.4221  -15.1926   20.4131 N   0  0  0  0  0  0
  -31.8314  -14.7204   20.1106 O   0  0  0  0  0  0
  -21.6645   -6.8865   21.4233 O   0  0  0  0  0  0
  -22.3520  -14.5549   20.6720 O   0  0  0  0  0  0
  -24.6289  -31.8579   23.2018 C   0  0  0  0  0  0
  -25.9135  -32.4759   23.8352 C   0  0  1  0  0  0
  -27.2270  -27.3071   20.1022 C   0  0  0  0  0  0
  -25.5935  -33.8565   24.2270 N   0  0  0  0  0  0
  -23.4213  -30.4791   21.5465 C   0  0  2  0  0  0
  -24.8672  -28.9319   20.1087 C   0  0  0  0  0  0
  -22.7469  -29.4617   22.4963 C   0  0  0  0  0  0
  -18.0274  -28.1394   22.8505 C   0  0  0  0  0  0
  -24.1482  -36.7280   23.2635 C   0  0  0  0  0  0
  -25.9638  -30.7803   21.3753 C   0  0  0  0  0  0
  -26.0353  -29.4071   20.7166 C   0  0  0  0  0  0
  -27.2138  -28.6015   20.7123 C   0  0  0  0  0  0
  -26.0272  -26.8768   19.4928 C   0  0  0  0  0  0
  -24.8635  -27.6695   19.4949 C   0  0  0  0  0  0
  -23.6348  -29.8113   20.1625 C   0  0  0  0  0  0
  -25.4109  -36.3064   24.0325 C   0  0  1  0  0  0
  -20.5870  -28.3688   23.1305 C   0  0  2  0  0  0
  -20.6767  -26.9415   22.5441 C   0  0  0  0  0  0
  -19.5736  -26.6389   21.5240 C   0  0  0  0  0  0
  -18.1906  -26.7936   22.1644 C   0  0  0  0  0  0
  -19.1530  -28.8851   23.2897 C   0  0  0  0  0  0
  -18.9455  -30.1452   23.8911 C   0  0  0  0  0  0
  -17.6453  -30.6591   24.0569 C   0  0  0  0  0  0
  -25.9062  -34.9436   23.5096 C   0  0  0  0  0  0
  -16.5342  -29.9101   23.6327 C   0  0  0  0  0  0
  -16.7256  -28.6520   23.0348 C   0  0  0  0  0  0
  -26.4494  -31.6568   25.0731 C   0  0  0  0  0  0
  -25.3733  -31.3724   26.1450 C   0  0  0  0  0  0
  -27.0321  -30.2969   24.6211 C   0  0  0  0  0  0
  -27.6022  -32.4299   25.7529 C   0  0  0  0  0  0
  -27.5575  -37.1784   24.8448 C   0  0  0  0  0  0
  -21.4182  -29.3045   22.3709 N   0  0  0  0  0  0
  -26.4273  -37.3779   23.9420 N   0  0  0  0  0  0
  -24.6902  -31.0567   22.0977 N   0  0  0  0  0  0
  -23.4177  -28.8179   23.3063 O   0  0  0  0  0  0
  -28.3354  -26.4455   20.1793 O   0  0  0  0  0  0
  -26.5649  -34.8902   22.4675 O   0  0  0  0  0  0
  -23.5449  -32.1395   23.7335 O   0  0  0  0  0  0
  -29.7998  -20.9181   19.2430 C   0  0  0  0  0  0
  -28.8912  -19.1299   21.1721 C   0  0  0  0  0  0
  -28.9813  -21.4754   20.2606 C   0  0  0  0  0  0
  -29.7589  -18.5920   20.1808 C   0  0  0  0  0  0
  -30.1578  -19.5361   19.1818 C   0  0  0  0  0  0
  -28.5002  -20.5126   21.2051 C   0  0  0  0  0  0
  -28.6179  -22.9756   20.3058 C   0  0  0  0  0  0
  -30.2554  -17.1351   20.1251 C   0  0  0  0  0  0
  -29.8580  -15.9359   20.6837 C   0  0  0  0  0  0
  -28.8792  -23.9229   19.3457 C   0  0  0  0  0  0
  -30.9850  -19.0876   17.9835 C   0  0  0  0  0  0
  -26.2885  -21.0507   21.7443 C   0  0  0  0  0  0
  -28.5895  -25.4607   19.1157 C   0  0  0  0  0  0
  -27.6305  -20.8921   22.1944 O   0  0  0  0  0  0
  -31.4658  -12.4827   19.1876 H   0  0  0  0  0  0
  -30.3192  -11.4196   19.9417 H   0  0  0  0  0  0
  -29.7781  -11.7466   17.5017 H   0  0  0  0  0  0
  -29.6623  -13.4706   17.7460 H   0  0  0  0  0  0
  -27.8582  -11.3003   18.8617 H   0  0  0  0  0  0
  -27.3813  -12.5874   17.7858 H   0  0  0  0  0  0
  -27.6460  -14.2650   19.5034 H   0  0  0  0  0  0
  -28.6953  -12.1322   21.4143 H   0  0  0  0  0  0
  -28.4277  -13.8037   21.8107 H   0  0  0  0  0  0
  -25.2757   -9.5713   22.4749 H   0  0  0  0  0  0
  -24.0016   -7.4656   22.7451 H   0  0  0  0  0  0
  -21.0855   -8.8744   19.8947 H   0  0  0  0  0  0
  -22.3670  -10.9659   19.6157 H   0  0  0  0  0  0
  -21.2020   -7.6146   23.9725 H   0  0  0  0  0  0
  -21.1507   -6.0511   25.9074 H   0  0  0  0  0  0
  -22.0590   -2.7610   23.2843 H   0  0  0  0  0  0
  -22.4078  -11.9857   22.4816 H   0  0  0  0  0  0
  -21.1107  -13.1247   22.2639 H   0  0  0  0  0  0
  -24.6602  -15.8518   20.5234 H   0  0  0  0  0  0
  -26.2877  -15.6316   20.1245 H   0  0  0  0  0  0
  -26.7208  -32.5415   23.1104 H   0  0  0  0  0  0
  -25.0015  -33.9713   25.0359 H   0  0  0  0  0  0
  -22.7156  -31.2989   21.4028 H   0  0  0  0  0  0
  -23.3751  -35.9600   23.3271 H   0  0  0  0  0  0
  -24.3562  -36.8938   22.2046 H   0  0  0  0  0  0
  -23.7207  -37.6461   23.6688 H   0  0  0  0  0  0
  -26.0983  -31.5425   20.6071 H   0  0  0  0  0  0
  -26.8444  -30.8289   22.0057 H   0  0  0  0  0  0
  -28.1075  -28.9599   21.2035 H   0  0  0  0  0  0
  -25.9502  -25.8931   19.0534 H   0  0  0  0  0  0
  -23.9611  -27.2884   19.0346 H   0  0  0  0  0  0
  -23.7516  -30.5868   19.4049 H   0  0  0  0  0  0
  -22.7547  -29.2376   19.8648 H   0  0  0  0  0  0
  -25.1285  -36.1917   25.0818 H   0  0  0  0  0  0
  -20.9943  -28.3273   24.1431 H   0  0  0  0  0  0
  -20.5659  -26.2308   23.3648 H   0  0  0  0  0  0
  -21.6635  -26.7445   22.1234 H   0  0  0  0  0  0
  -19.6893  -25.6304   21.1248 H   0  0  0  0  0  0
  -19.6664  -27.3218   20.6783 H   0  0  0  0  0  0
  -17.4186  -26.6675   21.4044 H   0  0  0  0  0  0
  -18.0303  -26.0090   22.9052 H   0  0  0  0  0  0
  -19.7926  -30.7269   24.2287 H   0  0  0  0  0  0
  -17.5006  -31.6264   24.5184 H   0  0  0  0  0  0
  -15.5343  -30.3002   23.7648 H   0  0  0  0  0  0
  -15.8659  -28.0840   22.7054 H   0  0  0  0  0  0
  -24.5874  -30.7109   25.7789 H   0  0  0  0  0  0
  -24.8967  -32.2910   26.4897 H   0  0  0  0  0  0
  -25.8048  -30.8875   27.0210 H   0  0  0  0  0  0
  -26.2893  -29.6714   24.1253 H   0  0  0  0  0  0
  -27.3984  -29.7231   25.4732 H   0  0  0  0  0  0
  -27.8778  -30.4196   23.9444 H   0  0  0  0  0  0
  -27.2586  -33.3573   26.2127 H   0  0  0  0  0  0
  -28.3855  -32.6910   25.0400 H   0  0  0  0  0  0
  -28.0678  -31.8424   26.5451 H   0  0  0  0  0  0
  -28.2567  -38.0116   24.7560 H   0  0  0  0  0  0
  -28.1108  -36.2649   24.6201 H   0  0  0  0  0  0
  -27.2304  -37.1327   25.8854 H   0  0  0  0  0  0
  -20.9358  -29.8766   21.6915 H   0  0  0  0  0  0
  -26.0146  -38.2840   24.1478 H   0  0  0  0  0  0
  -30.1749  -21.5672   18.4672 H   0  0  0  0  0  0
  -28.5157  -18.4693   21.9404 H   0  0  0  0  0  0
  -28.1036  -23.3024   21.1996 H   0  0  0  0  0  0
  -31.1439  -17.0440   19.5188 H   0  0  0  0  0  0
  -28.9765  -15.9142   21.3063 H   0  0  0  0  0  0
  -29.3963  -23.5470   18.4760 H   0  0  0  0  0  0
  -31.0179  -19.8525   17.2058 H   0  0  0  0  0  0
  -30.5518  -18.1951   17.5303 H   0  0  0  0  0  0
  -32.0100  -18.8646   18.2786 H   0  0  0  0  0  0
  -26.1071  -22.0648   21.3824 H   0  0  0  0  0  0
  -25.6039  -20.8780   22.5757 H   0  0  0  0  0  0
  -26.0282  -20.3427   20.9516 H   0  0  0  0  0  0
  -27.8901  -25.5421   18.2865 H   0  0  0  0  0  0
  -29.5191  -25.8275   18.6799 H   0  0  0  0  0  0
  1 25  1  0  0  0
  1 30  2  0  0  0
  1 79  1  0  0  0
  2  3  1  0  0  0
  2 25  1  0  0  0
  2 85  1  0  0  0
  2 86  1  0  0  0
  3  4  1  0  0  0
  3 87  1  0  0  0
  3 88  1  0  0  0
  4  5  1  0  0  0
  4 89  1  0  0  0
  4 90  1  0  0  0
  5  6  1  0  0  0
  5 26  1  0  0  0
  5 91  1  0  0  0
  6 25  1  0  0  0
  6 92  1  0  0  0
  6 93  1  0  0  0
  7  8  2  0  0  0
  7 26  1  0  0  0
  7 29  1  0  0  0
  8  9  1  0  0  0
  8 22  1  0  0  0
  9 10  1  0  0  0
  9 27  2  0  0  0
 10 11  2  0  0  0
 10 15  1  0  0  0
 11 12  1  0  0  0
 11 94  1  0  0  0
 12 13  2  0  0  0
 12 95  1  0  0  0
 13 14  1  0  0  0
 13 31  1  0  0  0
 14 15  2  0  0  0
 14 96  1  0  0  0
 15 97  1  0  0  0
 16 17  2  0  0  0
 16 21  1  0  0  0
 16 31  1  0  0  0
 17 18  1  0  0  0
 17 98  1  0  0  0
 18 19  2  0  0  0
 18 99  1  0  0  0
 19 20  1  0  0  0
 19 24  1  0  0  0
 20 21  2  0  0  0
 20100  1  0  0  0
 21 23  1  0  0  0
 22 28  1  0  0  0
 22 32  2  0  0  0
 26 27  1  0  0  0
 28101  1  0  0  0
 28102  1  0  0  0
 29103  1  0  0  0
 29104  1  0  0  0
 33 34  1  0  0  0
 33 66  1  0  0  0
 33 70  2  0  0  0
 34 36  1  0  0  0
 34 59  1  0  0  0
 34105  1  0  0  0
 35 44  2  0  0  0
 35 45  1  0  0  0
 35 68  1  0  0  0
 36 56  1  0  0  0
 36106  1  0  0  0
 37 39  1  0  0  0
 37 47  1  0  0  0
 37 66  1  0  0  0
 37107  1  0  0  0
 38 43  2  0  0  0
 38 46  1  0  0  0
 38 47  1  0  0  0
 39 64  1  0  0  0
 39 67  2  0  0  0
 40 52  1  0  0  0
 40 53  2  0  0  0
 40 58  1  0  0  0
 41108  1  0  0  0
 41109  1  0  0  0
 41110  1  0  0  0
 41 48  1  0  0  0
 42 43  1  0  0  0
 42 66  1  0  0  0
 42111  1  0  0  0
 42112  1  0  0  0
 43 44  1  0  0  0
 44113  1  0  0  0
 45 46  2  0  0  0
 45114  1  0  0  0
 46115  1  0  0  0
 47116  1  0  0  0
 47117  1  0  0  0
 48 56  1  0  0  0
 48 65  1  0  0  0
 48118  1  0  0  0
 49 50  1  0  0  0
 49 53  1  0  0  0
 49 64  1  0  0  0
 49119  1  0  0  0
 50 51  1  0  0  0
 50120  1  0  0  0
 50121  1  0  0  0
 51 52  1  0  0  0
 51122  1  0  0  0
 51123  1  0  0  0
 52124  1  0  0  0
 52125  1  0  0  0
 53 54  1  0  0  0
 54 55  2  0  0  0
 54126  1  0  0  0
 55 57  1  0  0  0
 55127  1  0  0  0
 56 69  2  0  0  0
 57 58  2  0  0  0
 57128  1  0  0  0
 58129  1  0  0  0
 59 60  1  0  0  0
 59 61  1  0  0  0
 59 62  1  0  0  0
 60130  1  0  0  0
 60131  1  0  0  0
 60132  1  0  0  0
 61133  1  0  0  0
 61134  1  0  0  0
 61135  1  0  0  0
 62136  1  0  0  0
 62137  1  0  0  0
 62138  1  0  0  0
 63 65  1  0  0  0
 63139  1  0  0  0
 63140  1  0  0  0
 63141  1  0  0  0
 64142  1  0  0  0
 65143  1  0  0  0
 68 83  1  0  0  0
 71 73  2  0  0  0
 71 75  1  0  0  0
 71144  1  0  0  0
 72 74  1  0  0  0
 72 76  2  0  0  0
 72145  1  0  0  0
 73 76  1  0  0  0
 73 77  1  0  0  0
 74 75  2  0  0  0
 74 78  1  0  0  0
 75 81  1  0  0  0
 76 84  1  0  0  0
 77 80  2  0  0  0
 77146  1  0  0  0
 78 79  2  0  0  0
 78147  1  0  0  0
 79148  1  0  0  0
 80 83  1  0  0  0
 80149  1  0  0  0
 81150  1  0  0  0
 81151  1  0  0  0
 81152  1  0  0  0
 82 84  1  0  0  0
 82153  1  0  0  0
 82154  1  0  0  0
 82155  1  0  0  0
 83156  1  0  0  0
 83157  1  0  0  0
M  ISO  4   1 100  68 101  79 100  83 101
M  END
> <chiral flag>
0

> <version>
0

> <s_m_source_file>
/data/baiqing/PycharmProjects/Reinvent-master-3.2/result/LINK_invent/BTK/process_docking_weight1_custom_product_contain_oxygen_bond_distance_aromatic_linkinvent_7_9_3/rearranged_h_0122.sdf

> <i_m_source_file_index>
46

> <r_mmod_Potential_Energy-OPLS-2005>
173.999053955078

> <r_mmod_Stretch_Energy-OPLS-2005>
92.3935470581055

> <r_mmod_Bend_Energy-OPLS-2005>
180.928665161133

> <r_mmod_Torsional_Energy-OPLS-2005>
227.363861083984

> <r_mmod_Improper_Torsional_Energy-OPLS-2005>
4.35706186294556

> <r_mmod_Van_der_Waal_Energy-OPLS-2005>
152.746963500977

> <r_mmod_Electrostatic_Energy-OPLS-2005>
-345.919647216797

> <r_mmod_Solvation_Energy-OPLS-2005>
-197.714538574219

> <b_mmod_Minimization_Converged-OPLS-2005>
0

> <r_mmod_RMS_Derivative-OPLS-2005>
2.72840929031372

$$$$
46
                    3D
 Structure written by MMmdl.
161169  0  0  1  0            999 V2000
  -30.7320  -14.5602   20.4501 C   0  0  0  0  0  0
  -30.4015  -12.3325   19.4695 C   0  0  0  0  0  0
  -29.4896  -12.4550   18.2323 C   0  0  0  0  0  0
  -28.0138  -12.3151   18.6448 C   0  0  0  0  0  0
  -27.6322  -13.2257   19.8408 C   0  0  2  0  0  0
  -28.6793  -13.1636   20.9716 C   0  0  0  0  0  0
  -25.2448  -13.8191   20.5714 C   0  0  0  0  0  0
  -24.1731  -13.0447   20.9219 C   0  0  0  0  0  0
  -24.6314  -11.6924   20.8781 C   0  0  0  0  0  0
  -23.8970  -10.4305   21.0456 C   0  0  0  0  0  0
  -24.3528   -9.4221   21.9222 C   0  0  0  0  0  0
  -23.6233   -8.2241   22.0771 C   0  0  0  0  0  0
  -22.4226   -8.0257   21.3575 C   0  0  0  0  0  0
  -21.9834   -9.0229   20.4705 C   0  0  0  0  0  0
  -22.7130  -10.2134   20.3127 C   0  0  0  0  0  0
  -21.6827   -6.0708   22.5289 C   0  0  0  0  0  0
  -21.4013   -6.5635   23.8217 C   0  0  0  0  0  0
  -21.3676   -5.6816   24.9198 C   0  0  0  0  0  0
  -21.6040   -4.3075   24.7251 C   0  0  0  0  0  0
  -21.8802   -3.8139   23.4385 C   0  0  0  0  0  0
  -21.9181   -4.6935   22.3426 C   0  0  0  0  0  0
  -22.7757  -13.5249   21.1867 C   0  0  0  0  0  0
  -22.1660   -4.2101   21.1003 F   0  0  0  0  0  0
  -21.5616   -3.4570   25.7779 F   0  0  0  0  0  0
  -30.0064  -13.4044   20.3967 N   0  0  0  0  0  0
  -26.2861  -12.9385   20.3259 N   0  0  0  0  0  0
  -25.9237  -11.6543   20.5774 N   0  0  0  0  0  0
  -22.0343  -12.8303   22.0430 N   0  0  0  0  0  0
  -25.4083  -15.1940   20.4219 N   0  0  0  0  0  0
  -31.9529  -14.5378   20.3017 O   0  0  0  0  0  0
  -21.6619   -6.8844   21.4254 O   0  0  0  0  0  0
  -22.3478  -14.5549   20.6694 O   0  0  0  0  0  0
  -24.6180  -31.8659   23.2100 C   0  0  0  0  0  0
  -25.9061  -32.4825   23.8402 C   0  0  1  0  0  0
  -27.2339  -27.3969   20.1282 C   0  0  0  0  0  0
  -25.5925  -33.8625   24.2339 N   0  0  0  0  0  0
  -23.4121  -30.4873   21.5468 C   0  0  2  0  0  0
  -24.8627  -28.9446   20.1194 C   0  0  0  0  0  0
  -22.7432  -29.4660   22.4947 C   0  0  0  0  0  0
  -18.0281  -28.1386   22.8479 C   0  0  0  0  0  0
  -24.1485  -36.7293   23.2638 C   0  0  0  0  0  0
  -25.9458  -30.8153   21.3786 C   0  0  0  0  0  0
  -26.0222  -29.4459   20.7292 C   0  0  0  0  0  0
  -27.2123  -28.6783   20.7337 C   0  0  0  0  0  0
  -26.0653  -26.9186   19.5047 C   0  0  0  0  0  0
  -24.8818  -27.6808   19.5017 C   0  0  0  0  0  0
  -23.6272  -29.8160   20.1628 C   0  0  0  0  0  0
  -25.4117  -36.3118   24.0336 C   0  0  1  0  0  0
  -20.5874  -28.3696   23.1285 C   0  0  2  0  0  0
  -20.6779  -26.9426   22.5403 C   0  0  0  0  0  0
  -19.5760  -26.6392   21.5200 C   0  0  0  0  0  0
  -18.1933  -26.7938   22.1604 C   0  0  0  0  0  0
  -19.1530  -28.8850   23.2886 C   0  0  0  0  0  0
  -18.9461  -30.1447   23.8919 C   0  0  0  0  0  0
  -17.6461  -30.6587   24.0568 C   0  0  0  0  0  0
  -25.9045  -34.9480   23.5131 C   0  0  0  0  0  0
  -16.5351  -29.9087   23.6332 C   0  0  0  0  0  0
  -16.7269  -28.6500   23.0360 C   0  0  0  0  0  0
  -26.4484  -31.6636   25.0758 C   0  0  0  0  0  0
  -25.3744  -31.3744   26.1502 C   0  0  0  0  0  0
  -27.0359  -30.3083   24.6210 C   0  0  0  0  0  0
  -27.6062  -32.4380   25.7489 C   0  0  0  0  0  0
  -27.5592  -37.1805   24.8458 C   0  0  0  0  0  0
  -21.4156  -29.3046   22.3673 N   0  0  0  0  0  0
  -26.4306  -37.3805   23.9404 N   0  0  0  0  0  0
  -24.6761  -31.0713   22.1023 N   0  0  0  0  0  0
  -23.4169  -28.8209   23.3024 O   0  0  0  0  0  0
  -28.3667  -26.6105   20.0929 O   0  0  0  0  0  0
  -26.5581  -34.8919   22.4674 O   0  0  0  0  0  0
  -23.5354  -32.1420   23.7452 O   0  0  0  0  0  0
  -29.8392  -19.4811   20.6044 C   0  0  0  0  0  0
  -31.1557  -19.9335   18.1907 C   0  0  0  0  0  0
  -30.4365  -18.3705   19.9366 C   0  0  0  0  0  0
  -29.8781  -20.8181   20.0857 C   0  0  0  0  0  0
  -31.1051  -18.6309   18.7146 C   0  0  0  0  0  0
  -30.5726  -21.0332   18.8529 C   0  0  0  0  0  0
  -30.6508  -17.0112   20.5230 C   0  0  0  0  0  0
  -30.0342  -15.8359   20.2016 C   0  0  0  0  0  0
  -31.8578  -17.5313   17.9745 C   0  0  0  0  0  0
  -30.7745  -22.3880   18.1762 C   0  0  0  0  0  0
  -29.2099  -21.9354   20.9441 C   0  0  0  0  0  0
  -28.9147  -23.3540   20.3452 C   0  0  0  0  0  0
  -28.1454  -24.3388   21.2698 C   0  0  0  0  0  0
  -28.6315  -25.8247   21.2717 C   0  0  0  0  0  0
  -31.4525  -12.3841   19.1786 H   0  0  0  0  0  0
  -30.2664  -11.3626   19.9506 H   0  0  0  0  0  0
  -29.7372  -11.6852   17.5016 H   0  0  0  0  0  0
  -29.6494  -13.4146   17.7378 H   0  0  0  0  0  0
  -27.8477  -11.2705   18.9083 H   0  0  0  0  0  0
  -27.3563  -12.5137   17.8011 H   0  0  0  0  0  0
  -27.6123  -14.2383   19.4443 H   0  0  0  0  0  0
  -28.6605  -12.1867   21.4585 H   0  0  0  0  0  0
  -28.4501  -13.9030   21.7423 H   0  0  0  0  0  0
  -25.2663   -9.5695   22.4820 H   0  0  0  0  0  0
  -23.9938   -7.4631   22.7497 H   0  0  0  0  0  0
  -21.0737   -8.8725   19.9042 H   0  0  0  0  0  0
  -22.3530  -10.9666   19.6269 H   0  0  0  0  0  0
  -21.2018   -7.6164   23.9693 H   0  0  0  0  0  0
  -21.1522   -6.0581   25.9090 H   0  0  0  0  0  0
  -22.0556   -2.7590   23.2915 H   0  0  0  0  0  0
  -22.3902  -12.0001   22.4911 H   0  0  0  0  0  0
  -21.0993  -13.1456   22.2607 H   0  0  0  0  0  0
  -24.6304  -15.8318   20.5517 H   0  0  0  0  0  0
  -26.2603  -15.6571   20.1302 H   0  0  0  0  0  0
  -26.7148  -32.5516   23.1174 H   0  0  0  0  0  0
  -25.0161  -33.9805   25.0547 H   0  0  0  0  0  0
  -22.7056  -31.3067   21.4018 H   0  0  0  0  0  0
  -23.3772  -35.9603   23.3311 H   0  0  0  0  0  0
  -24.3566  -36.8892   22.2050 H   0  0  0  0  0  0
  -23.7205  -37.6485   23.6639 H   0  0  0  0  0  0
  -26.0770  -31.5773   20.6088 H   0  0  0  0  0  0
  -26.8264  -30.8597   22.0091 H   0  0  0  0  0  0
  -28.1070  -29.0574   21.2084 H   0  0  0  0  0  0
  -26.0734  -25.9458   19.0321 H   0  0  0  0  0  0
  -23.9949  -27.2934   19.0198 H   0  0  0  0  0  0
  -23.7406  -30.5875   19.4005 H   0  0  0  0  0  0
  -22.7529  -29.2345   19.8650 H   0  0  0  0  0  0
  -25.1295  -36.1994   25.0831 H   0  0  0  0  0  0
  -20.9973  -28.3272   24.1404 H   0  0  0  0  0  0
  -20.5682  -26.2305   23.3594 H   0  0  0  0  0  0
  -21.6654  -26.7451   22.1201 H   0  0  0  0  0  0
  -19.6929  -25.6297   21.1237 H   0  0  0  0  0  0
  -19.6715  -27.3197   20.6724 H   0  0  0  0  0  0
  -17.4208  -26.6685   21.4000 H   0  0  0  0  0  0
  -18.0335  -26.0067   22.8985 H   0  0  0  0  0  0
  -19.7937  -30.7251   24.2319 H   0  0  0  0  0  0
  -17.5016  -31.6277   24.5158 H   0  0  0  0  0  0
  -15.5353  -30.3001   23.7653 H   0  0  0  0  0  0
  -15.8665  -28.0822   22.7086 H   0  0  0  0  0  0
  -24.5854  -30.7199   25.7790 H   0  0  0  0  0  0
  -24.9023  -32.2907   26.5051 H   0  0  0  0  0  0
  -25.8060  -30.8780   27.0205 H   0  0  0  0  0  0
  -26.2953  -29.6804   24.1256 H   0  0  0  0  0  0
  -27.4103  -29.7371   25.4716 H   0  0  0  0  0  0
  -27.8787  -30.4402   23.9426 H   0  0  0  0  0  0
  -27.2700  -33.3665   26.2106 H   0  0  0  0  0  0
  -28.3817  -32.6977   25.0277 H   0  0  0  0  0  0
  -28.0811  -31.8509   26.5357 H   0  0  0  0  0  0
  -28.2615  -38.0105   24.7523 H   0  0  0  0  0  0
  -28.1082  -36.2629   24.6267 H   0  0  0  0  0  0
  -27.2295  -37.1435   25.8859 H   0  0  0  0  0  0
  -20.9339  -29.8744   21.6861 H   0  0  0  0  0  0
  -26.0194  -38.2882   24.1409 H   0  0  0  0  0  0
  -29.3698  -19.3117   21.5620 H   0  0  0  0  0  0
  -31.6967  -20.0972   17.2679 H   0  0  0  0  0  0
  -31.5182  -16.9541   21.1687 H   0  0  0  0  0  0
  -29.1262  -15.8479   19.6216 H   0  0  0  0  0  0
  -32.2773  -17.8889   17.0347 H   0  0  0  0  0  0
  -31.1982  -16.6974   17.7368 H   0  0  0  0  0  0
  -32.6836  -17.1661   18.5876 H   0  0  0  0  0  0
  -31.2804  -22.2846   17.2152 H   0  0  0  0  0  0
  -31.4051  -23.0467   18.7747 H   0  0  0  0  0  0
  -29.8324  -22.8769   17.9371 H   0  0  0  0  0  0
  -29.8299  -22.0711   21.8332 H   0  0  0  0  0  0
  -28.2665  -21.5273   21.3119 H   0  0  0  0  0  0
  -28.3365  -23.2457   19.4267 H   0  0  0  0  0  0
  -29.8515  -23.8424   20.0936 H   0  0  0  0  0  0
  -28.2606  -23.9779   22.2928 H   0  0  0  0  0  0
  -27.0733  -24.2857   21.0706 H   0  0  0  0  0  0
  -29.7094  -25.8300   21.4381 H   0  0  0  0  0  0
  -28.2133  -26.3248   22.1467 H   0  0  0  0  0  0
  1 25  1  0  0  0
  1 30  2  0  0  0
  1 78  1  0  0  0
  2  3  1  0  0  0
  2 25  1  0  0  0
  2 85  1  0  0  0
  2 86  1  0  0  0
  3  4  1  0  0  0
  3 87  1  0  0  0
  3 88  1  0  0  0
  4  5  1  0  0  0
  4 89  1  0  0  0
  4 90  1  0  0  0
  5  6  1  0  0  0
  5 26  1  0  0  0
  5 91  1  0  0  0
  6 25  1  0  0  0
  6 92  1  0  0  0
  6 93  1  0  0  0
  7  8  2  0  0  0
  7 26  1  0  0  0
  7 29  1  0  0  0
  8  9  1  0  0  0
  8 22  1  0  0  0
  9 10  1  0  0  0
  9 27  2  0  0  0
 10 11  2  0  0  0
 10 15  1  0  0  0
 11 12  1  0  0  0
 11 94  1  0  0  0
 12 13  2  0  0  0
 12 95  1  0  0  0
 13 14  1  0  0  0
 13 31  1  0  0  0
 14 15  2  0  0  0
 14 96  1  0  0  0
 15 97  1  0  0  0
 16 17  2  0  0  0
 16 21  1  0  0  0
 16 31  1  0  0  0
 17 18  1  0  0  0
 17 98  1  0  0  0
 18 19  2  0  0  0
 18 99  1  0  0  0
 19 20  1  0  0  0
 19 24  1  0  0  0
 20 21  2  0  0  0
 20100  1  0  0  0
 21 23  1  0  0  0
 22 28  1  0  0  0
 22 32  2  0  0  0
 26 27  1  0  0  0
 28101  1  0  0  0
 28102  1  0  0  0
 29103  1  0  0  0
 29104  1  0  0  0
 33 34  1  0  0  0
 33 66  1  0  0  0
 33 70  2  0  0  0
 34 36  1  0  0  0
 34 59  1  0  0  0
 34105  1  0  0  0
 35 44  2  0  0  0
 35 45  1  0  0  0
 35 68  1  0  0  0
 36 56  1  0  0  0
 36106  1  0  0  0
 37 39  1  0  0  0
 37 47  1  0  0  0
 37 66  1  0  0  0
 37107  1  0  0  0
 38 43  2  0  0  0
 38 46  1  0  0  0
 38 47  1  0  0  0
 39 64  1  0  0  0
 39 67  2  0  0  0
 40 52  1  0  0  0
 40 53  2  0  0  0
 40 58  1  0  0  0
 41108  1  0  0  0
 41109  1  0  0  0
 41110  1  0  0  0
 41 48  1  0  0  0
 42 43  1  0  0  0
 42 66  1  0  0  0
 42111  1  0  0  0
 42112  1  0  0  0
 43 44  1  0  0  0
 44113  1  0  0  0
 45 46  2  0  0  0
 45114  1  0  0  0
 46115  1  0  0  0
 47116  1  0  0  0
 47117  1  0  0  0
 48 56  1  0  0  0
 48 65  1  0  0  0
 48118  1  0  0  0
 49 50  1  0  0  0
 49 53  1  0  0  0
 49 64  1  0  0  0
 49119  1  0  0  0
 50 51  1  0  0  0
 50120  1  0  0  0
 50121  1  0  0  0
 51 52  1  0  0  0
 51122  1  0  0  0
 51123  1  0  0  0
 52124  1  0  0  0
 52125  1  0  0  0
 53 54  1  0  0  0
 54 55  2  0  0  0
 54126  1  0  0  0
 55 57  1  0  0  0
 55127  1  0  0  0
 56 69  2  0  0  0
 57 58  2  0  0  0
 57128  1  0  0  0
 58129  1  0  0  0
 59 60  1  0  0  0
 59 61  1  0  0  0
 59 62  1  0  0  0
 60130  1  0  0  0
 60131  1  0  0  0
 60132  1  0  0  0
 61133  1  0  0  0
 61134  1  0  0  0
 61135  1  0  0  0
 62136  1  0  0  0
 62137  1  0  0  0
 62138  1  0  0  0
 63 65  1  0  0  0
 63139  1  0  0  0
 63140  1  0  0  0
 63141  1  0  0  0
 64142  1  0  0  0
 65143  1  0  0  0
 68 84  1  0  0  0
 71 73  2  0  0  0
 71 74  1  0  0  0
 71144  1  0  0  0
 72 75  2  0  0  0
 72 76  1  0  0  0
 72145  1  0  0  0
 73 75  1  0  0  0
 73 77  1  0  0  0
 74 76  2  0  0  0
 74 81  1  0  0  0
 75 79  1  0  0  0
 76 80  1  0  0  0
 77 78  2  0  0  0
 77146  1  0  0  0
 78147  1  0  0  0
 79148  1  0  0  0
 79149  1  0  0  0
 79150  1  0  0  0
 80151  1  0  0  0
 80152  1  0  0  0
 80153  1  0  0  0
 81 82  1  0  0  0
 81154  1  0  0  0
 81155  1  0  0  0
 82 83  1  0  0  0
 82156  1  0  0  0
 82157  1  0  0  0
 83 84  1  0  0  0
 83158  1  0  0  0
 83159  1  0  0  0
 84160  1  0  0  0
 84161  1  0  0  0
M  ISO  4   1 100  68 101  78 100  84 101
M  END
> <chiral flag>
0

> <version>
0

> <s_m_source_file>
/data/baiqing/PycharmProjects/Reinvent-master-3.2/result/LINK_invent/BTK/process_docking_weight1_custom_product_contain_oxygen_bond_distance_aromatic_linkinvent_7_9_3/rearranged_h_0122.sdf

> <i_m_source_file_index>
47

> <r_mmod_Potential_Energy-OPLS-2005>
135.873809814453

> <r_mmod_Stretch_Energy-OPLS-2005>
50.2790184020996

> <r_mmod_Bend_Energy-OPLS-2005>
128.904815673828

> <r_mmod_Torsional_Energy-OPLS-2005>
281.431365966797

> <r_mmod_Improper_Torsional_Energy-OPLS-2005>
22.0306148529053

> <r_mmod_Van_der_Waal_Energy-OPLS-2005>
152.765274047852

> <r_mmod_Electrostatic_Energy-OPLS-2005>
-357.233062744141

> <r_mmod_Solvation_Energy-OPLS-2005>
-185.818344116211

> <b_mmod_Minimization_Converged-OPLS-2005>
0

> <r_mmod_RMS_Derivative-OPLS-2005>
4.80543661117554

$$$$
47
                    3D
 Structure written by MMmdl.
158166  0  0  1  0            999 V2000
  -30.7435  -14.4337   20.5233 C   0  0  0  0  0  0
  -30.4001  -12.2640   19.4453 C   0  0  0  0  0  0
  -29.4948  -12.4856   18.2170 C   0  0  0  0  0  0
  -28.0128  -12.3649   18.6191 C   0  0  0  0  0  0
  -27.6582  -13.2163   19.8685 C   0  0  2  0  0  0
  -28.6952  -13.0285   20.9980 C   0  0  0  0  0  0
  -25.2580  -13.8191   20.5691 C   0  0  0  0  0  0
  -24.1836  -13.0453   20.9168 C   0  0  0  0  0  0
  -24.6401  -11.6921   20.8723 C   0  0  0  0  0  0
  -23.9073  -10.4301   21.0396 C   0  0  0  0  0  0
  -24.3625   -9.4218   21.9179 C   0  0  0  0  0  0
  -23.6301   -8.2252   22.0757 C   0  0  0  0  0  0
  -22.4283   -8.0285   21.3547 C   0  0  0  0  0  0
  -21.9919   -9.0260   20.4647 C   0  0  0  0  0  0
  -22.7243  -10.2141   20.3052 C   0  0  0  0  0  0
  -21.6857   -6.0736   22.5276 C   0  0  0  0  0  0
  -21.4013   -6.5640   23.8207 C   0  0  0  0  0  0
  -21.3666   -5.6795   24.9172 C   0  0  0  0  0  0
  -21.6047   -4.3056   24.7223 C   0  0  0  0  0  0
  -21.8820   -3.8146   23.4345 C   0  0  0  0  0  0
  -21.9198   -4.6965   22.3402 C   0  0  0  0  0  0
  -22.7858  -13.5241   21.1835 C   0  0  0  0  0  0
  -22.1668   -4.2150   21.0981 F   0  0  0  0  0  0
  -21.5633   -3.4541   25.7735 F   0  0  0  0  0  0
  -30.0333  -13.2776   20.4471 N   0  0  0  0  0  0
  -26.3013  -12.9380   20.3340 N   0  0  0  0  0  0
  -25.9326  -11.6527   20.5743 N   0  0  0  0  0  0
  -22.0510  -12.8231   22.0394 N   0  0  0  0  0  0
  -25.4324  -15.1909   20.4140 N   0  0  0  0  0  0
  -31.9001  -14.5183   20.1038 O   0  0  0  0  0  0
  -21.6647   -6.8881   21.4239 O   0  0  0  0  0  0
  -22.3538  -14.5548   20.6683 O   0  0  0  0  0  0
  -24.6116  -31.8702   23.2123 C   0  0  0  0  0  0
  -25.9020  -32.4835   23.8411 C   0  0  1  0  0  0
  -27.2271  -27.4545   20.1071 C   0  0  0  0  0  0
  -25.5887  -33.8633   24.2343 N   0  0  0  0  0  0
  -23.3984  -30.4943   21.5517 C   0  0  2  0  0  0
  -24.8452  -28.9642   20.1133 C   0  0  0  0  0  0
  -22.7394  -29.4671   22.4998 C   0  0  0  0  0  0
  -18.0267  -28.1380   22.8493 C   0  0  0  0  0  0
  -24.1482  -36.7322   23.2638 C   0  0  0  0  0  0
  -25.9239  -30.8447   21.3607 C   0  0  0  0  0  0
  -26.0027  -29.4798   20.7112 C   0  0  0  0  0  0
  -27.2001  -28.7325   20.7053 C   0  0  0  0  0  0
  -26.0610  -26.9550   19.4873 C   0  0  0  0  0  0
  -24.8676  -27.7003   19.4978 C   0  0  0  0  0  0
  -23.6056  -29.8276   20.1652 C   0  0  0  0  0  0
  -25.4101  -36.3120   24.0341 C   0  0  1  0  0  0
  -20.5856  -28.3665   23.1324 C   0  0  2  0  0  0
  -20.6758  -26.9404   22.5423 C   0  0  0  0  0  0
  -19.5739  -26.6390   21.5214 C   0  0  0  0  0  0
  -18.1917  -26.7928   22.1623 C   0  0  0  0  0  0
  -19.1516  -28.8839   23.2905 C   0  0  0  0  0  0
  -18.9446  -30.1444   23.8918 C   0  0  0  0  0  0
  -17.6452  -30.6590   24.0570 C   0  0  0  0  0  0
  -25.9030  -34.9484   23.5141 C   0  0  0  0  0  0
  -16.5343  -29.9096   23.6324 C   0  0  0  0  0  0
  -16.7258  -28.6510   23.0348 C   0  0  0  0  0  0
  -26.4463  -31.6602   25.0724 C   0  0  0  0  0  0
  -25.3740  -31.3693   26.1480 C   0  0  0  0  0  0
  -27.0286  -30.3050   24.6071 C   0  0  0  0  0  0
  -27.6052  -32.4308   25.7475 C   0  0  0  0  0  0
  -27.5582  -37.1808   24.8461 C   0  0  0  0  0  0
  -21.4126  -29.3034   22.3732 N   0  0  0  0  0  0
  -26.4289  -37.3803   23.9417 N   0  0  0  0  0  0
  -24.6629  -31.0828   22.1009 N   0  0  0  0  0  0
  -23.4179  -28.8216   23.3034 O   0  0  0  0  0  0
  -28.3791  -26.7056   20.1061 O   0  0  0  0  0  0
  -26.5598  -34.8931   22.4706 O   0  0  0  0  0  0
  -23.5315  -32.1442   23.7535 O   0  0  0  0  0  0
  -29.2921  -18.7211   18.9035 C   0  0  0  0  0  0
  -29.7722  -18.7765   21.2754 C   0  0  0  0  0  0
  -29.6597  -18.0436   20.0792 C   0  0  0  0  0  0
  -29.4338  -20.8897   20.0466 C   0  0  0  0  0  0
  -29.1681  -20.1258   18.8729 C   0  0  0  0  0  0
  -29.6777  -20.1848   21.2590 C   0  0  0  0  0  0
  -30.0339  -16.6269   19.9724 C   0  0  0  0  0  0
  -29.5016  -22.3746   19.9536 C   0  0  0  0  0  0
  -30.0341  -15.6469   20.9034 C   0  0  0  0  0  0
  -29.5785  -23.3003   20.9289 C   0  0  0  0  0  0
  -28.4260  -25.5624   20.8456 C   0  0  0  0  0  0
  -27.3646  -21.3396   17.5448 C   0  0  0  0  0  0
  -28.7876  -20.7632   17.5382 C   0  0  0  0  0  0
  -29.7308  -24.7903   20.6480 C   0  0  0  0  0  0
  -27.5440  -25.1594   21.6118 O   0  0  0  0  0  0
  -29.8999  -20.8438   22.4207 F   0  0  0  0  0  0
  -31.4509  -12.3075   19.1544 H   0  0  0  0  0  0
  -30.2503  -11.2639   19.8552 H   0  0  0  0  0  0
  -29.7304  -11.7584   17.4386 H   0  0  0  0  0  0
  -29.6843  -13.4700   17.7862 H   0  0  0  0  0  0
  -27.8113  -11.3118   18.8181 H   0  0  0  0  0  0
  -27.3720  -12.6418   17.7814 H   0  0  0  0  0  0
  -27.6972  -14.2604   19.5563 H   0  0  0  0  0  0
  -28.6501  -12.0123   21.3918 H   0  0  0  0  0  0
  -28.4740  -13.6843   21.8409 H   0  0  0  0  0  0
  -25.2774   -9.5694   22.4749 H   0  0  0  0  0  0
  -24.0015   -7.4651   22.7484 H   0  0  0  0  0  0
  -21.0849   -8.8777   19.8959 H   0  0  0  0  0  0
  -22.3701  -10.9679   19.6160 H   0  0  0  0  0  0
  -21.1995   -7.6148   23.9705 H   0  0  0  0  0  0
  -21.1491   -6.0527   25.9075 H   0  0  0  0  0  0
  -22.0591   -2.7605   23.2844 H   0  0  0  0  0  0
  -22.4142  -11.9888   22.4758 H   0  0  0  0  0  0
  -21.1130  -13.1249   22.2616 H   0  0  0  0  0  0
  -24.6732  -15.8526   20.5323 H   0  0  0  0  0  0
  -26.2999  -15.6289   20.1292 H   0  0  0  0  0  0
  -26.7095  -32.5564   23.1185 H   0  0  0  0  0  0
  -25.0027  -33.9800   25.0480 H   0  0  0  0  0  0
  -22.6856  -31.3100   21.4146 H   0  0  0  0  0  0
  -23.3747  -35.9651   23.3292 H   0  0  0  0  0  0
  -24.3578  -36.8947   22.2054 H   0  0  0  0  0  0
  -23.7227  -37.6522   23.6656 H   0  0  0  0  0  0
  -26.0286  -31.6100   20.5905 H   0  0  0  0  0  0
  -26.8144  -30.9020   21.9746 H   0  0  0  0  0  0
  -28.0944  -29.1242   21.1695 H   0  0  0  0  0  0
  -26.0744  -25.9840   19.0121 H   0  0  0  0  0  0
  -23.9785  -27.2996   19.0309 H   0  0  0  0  0  0
  -23.7114  -30.6035   19.4062 H   0  0  0  0  0  0
  -22.7303  -29.2459   19.8702 H   0  0  0  0  0  0
  -25.1272  -36.1990   25.0833 H   0  0  0  0  0  0
  -20.9945  -28.3234   24.1445 H   0  0  0  0  0  0
  -20.5661  -26.2275   23.3608 H   0  0  0  0  0  0
  -21.6631  -26.7454   22.1216 H   0  0  0  0  0  0
  -19.6905  -25.6305   21.1230 H   0  0  0  0  0  0
  -19.6679  -27.3208   20.6751 H   0  0  0  0  0  0
  -17.4189  -26.6677   21.4025 H   0  0  0  0  0  0
  -18.0319  -26.0065   22.9015 H   0  0  0  0  0  0
  -19.7925  -30.7249   24.2302 H   0  0  0  0  0  0
  -17.5012  -31.6268   24.5172 H   0  0  0  0  0  0
  -15.5345  -30.3011   23.7635 H   0  0  0  0  0  0
  -15.8655  -28.0839   22.7055 H   0  0  0  0  0  0
  -24.5906  -30.7050   25.7815 H   0  0  0  0  0  0
  -24.8940  -32.2843   26.4961 H   0  0  0  0  0  0
  -25.8103  -30.8836   27.0218 H   0  0  0  0  0  0
  -26.2817  -29.6815   24.1142 H   0  0  0  0  0  0
  -27.4087  -29.7279   25.4512 H   0  0  0  0  0  0
  -27.8639  -30.4381   23.9191 H   0  0  0  0  0  0
  -27.2692  -33.3601   26.2085 H   0  0  0  0  0  0
  -28.3843  -32.6873   25.0284 H   0  0  0  0  0  0
  -28.0741  -31.8407   26.5362 H   0  0  0  0  0  0
  -28.2592  -38.0114   24.7534 H   0  0  0  0  0  0
  -28.1086  -36.2649   24.6249 H   0  0  0  0  0  0
  -27.2307  -37.1417   25.8865 H   0  0  0  0  0  0
  -20.9284  -29.8759   21.6958 H   0  0  0  0  0  0
  -26.0181  -38.2879   24.1436 H   0  0  0  0  0  0
  -29.1642  -18.1556   17.9902 H   0  0  0  0  0  0
  -30.0374  -18.2782   22.1960 H   0  0  0  0  0  0
  -30.4498  -16.3829   19.0017 H   0  0  0  0  0  0
  -29.5337  -22.7790   18.9555 H   0  0  0  0  0  0
  -29.6046  -15.7711   21.8861 H   0  0  0  0  0  0
  -29.5350  -23.0310   21.9724 H   0  0  0  0  0  0
  -27.1167  -21.7699   16.5742 H   0  0  0  0  0  0
  -27.2466  -22.1249   18.2912 H   0  0  0  0  0  0
  -26.6297  -20.5636   17.7617 H   0  0  0  0  0  0
  -28.8500  -20.0151   16.7471 H   0  0  0  0  0  0
  -29.5166  -21.5217   17.2532 H   0  0  0  0  0  0
  -30.0656  -24.9354   19.6208 H   0  0  0  0  0  0
  -30.5004  -25.2064   21.2979 H   0  0  0  0  0  0
  1 25  1  0  0  0
  1 30  2  0  0  0
  1 79  1  0  0  0
  2  3  1  0  0  0
  2 25  1  0  0  0
  2 87  1  0  0  0
  2 88  1  0  0  0
  3  4  1  0  0  0
  3 89  1  0  0  0
  3 90  1  0  0  0
  4  5  1  0  0  0
  4 91  1  0  0  0
  4 92  1  0  0  0
  5  6  1  0  0  0
  5 26  1  0  0  0
  5 93  1  0  0  0
  6 25  1  0  0  0
  6 94  1  0  0  0
  6 95  1  0  0  0
  7  8  2  0  0  0
  7 26  1  0  0  0
  7 29  1  0  0  0
  8  9  1  0  0  0
  8 22  1  0  0  0
  9 10  1  0  0  0
  9 27  2  0  0  0
 10 11  2  0  0  0
 10 15  1  0  0  0
 11 12  1  0  0  0
 11 96  1  0  0  0
 12 13  2  0  0  0
 12 97  1  0  0  0
 13 14  1  0  0  0
 13 31  1  0  0  0
 14 15  2  0  0  0
 14 98  1  0  0  0
 15 99  1  0  0  0
 16 17  2  0  0  0
 16 21  1  0  0  0
 16 31  1  0  0  0
 17 18  1  0  0  0
 17100  1  0  0  0
 18 19  2  0  0  0
 18101  1  0  0  0
 19 20  1  0  0  0
 19 24  1  0  0  0
 20 21  2  0  0  0
 20102  1  0  0  0
 21 23  1  0  0  0
 22 28  1  0  0  0
 22 32  2  0  0  0
 26 27  1  0  0  0
 28103  1  0  0  0
 28104  1  0  0  0
 29105  1  0  0  0
 29106  1  0  0  0
 33 34  1  0  0  0
 33 66  1  0  0  0
 33 70  2  0  0  0
 34 36  1  0  0  0
 34 59  1  0  0  0
 34107  1  0  0  0
 35 44  2  0  0  0
 35 45  1  0  0  0
 35 68  1  0  0  0
 36 56  1  0  0  0
 36108  1  0  0  0
 37 39  1  0  0  0
 37 47  1  0  0  0
 37 66  1  0  0  0
 37109  1  0  0  0
 38 43  2  0  0  0
 38 46  1  0  0  0
 38 47  1  0  0  0
 39 64  1  0  0  0
 39 67  2  0  0  0
 40 52  1  0  0  0
 40 53  2  0  0  0
 40 58  1  0  0  0
 41110  1  0  0  0
 41111  1  0  0  0
 41112  1  0  0  0
 41 48  1  0  0  0
 42 43  1  0  0  0
 42 66  1  0  0  0
 42113  1  0  0  0
 42114  1  0  0  0
 43 44  1  0  0  0
 44115  1  0  0  0
 45 46  2  0  0  0
 45116  1  0  0  0
 46117  1  0  0  0
 47118  1  0  0  0
 47119  1  0  0  0
 48 56  1  0  0  0
 48 65  1  0  0  0
 48120  1  0  0  0
 49 50  1  0  0  0
 49 53  1  0  0  0
 49 64  1  0  0  0
 49121  1  0  0  0
 50 51  1  0  0  0
 50122  1  0  0  0
 50123  1  0  0  0
 51 52  1  0  0  0
 51124  1  0  0  0
 51125  1  0  0  0
 52126  1  0  0  0
 52127  1  0  0  0
 53 54  1  0  0  0
 54 55  2  0  0  0
 54128  1  0  0  0
 55 57  1  0  0  0
 55129  1  0  0  0
 56 69  2  0  0  0
 57 58  2  0  0  0
 57130  1  0  0  0
 58131  1  0  0  0
 59 60  1  0  0  0
 59 61  1  0  0  0
 59 62  1  0  0  0
 60132  1  0  0  0
 60133  1  0  0  0
 60134  1  0  0  0
 61135  1  0  0  0
 61136  1  0  0  0
 61137  1  0  0  0
 62138  1  0  0  0
 62139  1  0  0  0
 62140  1  0  0  0
 63 65  1  0  0  0
 63141  1  0  0  0
 63142  1  0  0  0
 63143  1  0  0  0
 64144  1  0  0  0
 65145  1  0  0  0
 68 81  1  0  0  0
 71 73  2  0  0  0
 71 75  1  0  0  0
 71146  1  0  0  0
 72 73  1  0  0  0
 72 76  2  0  0  0
 72147  1  0  0  0
 73 77  1  0  0  0
 74 75  2  0  0  0
 74 76  1  0  0  0
 74 78  1  0  0  0
 75 83  1  0  0  0
 76 86  1  0  0  0
 77 79  2  0  0  0
 77148  1  0  0  0
 78 80  2  0  0  0
 78149  1  0  0  0
 79150  1  0  0  0
 80 84  1  0  0  0
 80151  1  0  0  0
 81 84  1  0  0  0
 81 85  2  0  0  0
 82 83  1  0  0  0
 82152  1  0  0  0
 82153  1  0  0  0
 82154  1  0  0  0
 83155  1  0  0  0
 83156  1  0  0  0
 84157  1  0  0  0
 84158  1  0  0  0
M  ISO  4   1 100  68 101  79 100  81 101
M  END
> <chiral flag>
0

> <version>
0

> <s_m_source_file>
/data/baiqing/PycharmProjects/Reinvent-master-3.2/result/LINK_invent/BTK/process_docking_weight1_custom_product_contain_oxygen_bond_distance_aromatic_linkinvent_7_9_3/rearranged_h_0122.sdf

> <i_m_source_file_index>
48

> <r_mmod_Potential_Energy-OPLS-2005>
37.6331939697266

> <r_mmod_Stretch_Energy-OPLS-2005>
35.2601585388184

> <r_mmod_Bend_Energy-OPLS-2005>
103.978912353516

> <r_mmod_Torsional_Energy-OPLS-2005>
215.502151489258

> <r_mmod_Improper_Torsional_Energy-OPLS-2005>
7.31970882415771

> <r_mmod_Van_der_Waal_Energy-OPLS-2005>
162.006866455078

> <r_mmod_Electrostatic_Energy-OPLS-2005>
-306.345794677734

> <r_mmod_Solvation_Energy-OPLS-2005>
-195.679321289062

> <b_mmod_Minimization_Converged-OPLS-2005>
0

> <r_mmod_RMS_Derivative-OPLS-2005>
0.681389808654785

$$$$
48
                    3D
 Structure written by MMmdl.
153161  0  0  1  0            999 V2000
  -30.6425  -14.5325   20.4924 C   0  0  0  0  0  0
  -30.4251  -12.3148   19.4432 C   0  0  0  0  0  0
  -29.5038  -12.4908   18.2134 C   0  0  0  0  0  0
  -28.0185  -12.3467   18.6083 C   0  0  0  0  0  0
  -27.6518  -13.1932   19.8558 C   0  0  2  0  0  0
  -28.6935  -13.0057   20.9851 C   0  0  0  0  0  0
  -25.2601  -13.8114   20.5666 C   0  0  0  0  0  0
  -24.1854  -13.0424   20.9221 C   0  0  0  0  0  0
  -24.6387  -11.6889   20.8756 C   0  0  0  0  0  0
  -23.9033  -10.4287   21.0418 C   0  0  0  0  0  0
  -24.3612   -9.4210   21.9184 C   0  0  0  0  0  0
  -23.6319   -8.2237   22.0725 C   0  0  0  0  0  0
  -22.4288   -8.0281   21.3522 C   0  0  0  0  0  0
  -21.9910   -9.0235   20.4616 C   0  0  0  0  0  0
  -22.7219  -10.2141   20.3044 C   0  0  0  0  0  0
  -21.6852   -6.0745   22.5291 C   0  0  0  0  0  0
  -21.4027   -6.5633   23.8233 C   0  0  0  0  0  0
  -21.3675   -5.6774   24.9183 C   0  0  0  0  0  0
  -21.6037   -4.3043   24.7217 C   0  0  0  0  0  0
  -21.8818   -3.8145   23.4336 C   0  0  0  0  0  0
  -21.9203   -4.6973   22.3404 C   0  0  0  0  0  0
  -22.7883  -13.5260   21.1873 C   0  0  0  0  0  0
  -22.1658   -4.2162   21.0966 F   0  0  0  0  0  0
  -21.5636   -3.4520   25.7723 F   0  0  0  0  0  0
  -30.0200  -13.3197   20.4402 N   0  0  0  0  0  0
  -26.2988  -12.9242   20.3266 N   0  0  0  0  0  0
  -25.9283  -11.6422   20.5715 N   0  0  0  0  0  0
  -22.0494  -12.8274   22.0425 N   0  0  0  0  0  0
  -25.4335  -15.1820   20.4095 N   0  0  0  0  0  0
  -31.8215  -14.6655   20.1516 O   0  0  0  0  0  0
  -21.6645   -6.8891   21.4241 O   0  0  0  0  0  0
  -22.3581  -14.5559   20.6691 O   0  0  0  0  0  0
  -24.6190  -31.8650   23.2102 C   0  0  0  0  0  0
  -25.9072  -32.4802   23.8399 C   0  0  1  0  0  0
  -27.2331  -27.4144   20.0636 C   0  0  0  0  0  0
  -25.5880  -33.8593   24.2299 N   0  0  0  0  0  0
  -23.4055  -30.4940   21.5534 C   0  0  2  0  0  0
  -24.8476  -28.9631   20.1080 C   0  0  0  0  0  0
  -22.7417  -29.4666   22.4998 C   0  0  0  0  0  0
  -18.0277  -28.1384   22.8514 C   0  0  0  0  0  0
  -24.1471  -36.7340   23.2639 C   0  0  0  0  0  0
  -25.9400  -30.8182   21.3703 C   0  0  0  0  0  0
  -26.0105  -29.4535   20.7120 C   0  0  0  0  0  0
  -27.2021  -28.6851   20.6922 C   0  0  0  0  0  0
  -26.0473  -26.9611   19.4324 C   0  0  0  0  0  0
  -24.8632  -27.7168   19.4645 C   0  0  0  0  0  0
  -23.6107  -29.8326   20.1653 C   0  0  0  0  0  0
  -25.4087  -36.3122   24.0344 C   0  0  1  0  0  0
  -20.5875  -28.3670   23.1321 C   0  0  2  0  0  0
  -20.6756  -26.9414   22.5401 C   0  0  0  0  0  0
  -19.5712  -26.6404   21.5221 C   0  0  0  0  0  0
  -18.1914  -26.7931   22.1659 C   0  0  0  0  0  0
  -19.1526  -28.8848   23.2921 C   0  0  0  0  0  0
  -18.9450  -30.1458   23.8934 C   0  0  0  0  0  0
  -17.6445  -30.6590   24.0583 C   0  0  0  0  0  0
  -25.9032  -34.9475   23.5144 C   0  0  0  0  0  0
  -16.5344  -29.9108   23.6309 C   0  0  0  0  0  0
  -16.7268  -28.6522   23.0339 C   0  0  0  0  0  0
  -26.4467  -31.6585   25.0736 C   0  0  0  0  0  0
  -25.3719  -31.3700   26.1486 C   0  0  0  0  0  0
  -27.0259  -30.3004   24.6136 C   0  0  0  0  0  0
  -27.6046  -32.4307   25.7477 C   0  0  0  0  0  0
  -27.5581  -37.1819   24.8471 C   0  0  0  0  0  0
  -21.4142  -29.3038   22.3729 N   0  0  0  0  0  0
  -26.4289  -37.3803   23.9428 N   0  0  0  0  0  0
  -24.6746  -31.0724   22.1032 N   0  0  0  0  0  0
  -23.4184  -28.8205   23.3040 O   0  0  0  0  0  0
  -28.4097  -26.6708   20.0842 O   0  0  0  0  0  0
  -26.5630  -34.8939   22.4724 O   0  0  0  0  0  0
  -23.5375  -32.1441   23.7467 O   0  0  0  0  0  0
  -28.0448  -18.4318   20.3914 C   0  0  0  0  0  0
  -27.8918  -19.8507   20.3552 C   0  0  0  0  0  0
  -29.3878  -18.1807   20.4819 C   0  0  0  0  0  0
  -29.1441  -20.3943   20.4575 C   0  0  0  0  0  0
  -30.1664  -16.9672   20.5137 C   0  0  0  0  0  0
  -29.6241  -21.7581   20.4881 C   0  0  0  0  0  0
  -29.7468  -15.6906   20.6861 C   0  0  0  0  0  0
  -28.8853  -22.8916   20.4015 C   0  0  0  0  0  0
  -30.8187  -24.5764   20.0788 C   0  0  0  0  0  0
  -28.3876  -25.2902   19.6486 C   0  0  0  0  0  0
  -29.3419  -24.3641   20.4583 C   0  0  1  0  0  0
  -30.0636  -19.3770   20.5369 O   0  0  0  0  0  0
  -31.4711  -12.4110   19.1444 H   0  0  0  0  0  0
  -30.3206  -11.3104   19.8569 H   0  0  0  0  0  0
  -29.7620  -11.7580   17.4473 H   0  0  0  0  0  0
  -29.6715  -13.4709   17.7631 H   0  0  0  0  0  0
  -27.8250  -11.2905   18.8017 H   0  0  0  0  0  0
  -27.3795  -12.6203   17.7665 H   0  0  0  0  0  0
  -27.6732  -14.2292   19.5235 H   0  0  0  0  0  0
  -28.6820  -11.9758   21.3453 H   0  0  0  0  0  0
  -28.4535  -13.6160   21.8547 H   0  0  0  0  0  0
  -25.2755   -9.5714   22.4756 H   0  0  0  0  0  0
  -24.0040   -7.4617   22.7437 H   0  0  0  0  0  0
  -21.0833   -8.8761   19.8927 H   0  0  0  0  0  0
  -22.3662  -10.9687   19.6166 H   0  0  0  0  0  0
  -21.2006   -7.6154   23.9753 H   0  0  0  0  0  0
  -21.1507   -6.0489   25.9086 H   0  0  0  0  0  0
  -22.0586   -2.7612   23.2820 H   0  0  0  0  0  0
  -22.4080  -11.9968   22.4894 H   0  0  0  0  0  0
  -21.1093  -13.1295   22.2540 H   0  0  0  0  0  0
  -24.6673  -15.8371   20.5290 H   0  0  0  0  0  0
  -26.2795  -15.6175   20.0679 H   0  0  0  0  0  0
  -26.7130  -32.5486   23.1142 H   0  0  0  0  0  0
  -24.9908  -33.9715   25.0371 H   0  0  0  0  0  0
  -22.6996  -31.3170   21.4180 H   0  0  0  0  0  0
  -23.3706  -35.9706   23.3318 H   0  0  0  0  0  0
  -24.3563  -36.8932   22.2050 H   0  0  0  0  0  0
  -23.7238  -37.6566   23.6622 H   0  0  0  0  0  0
  -26.0545  -31.5831   20.6017 H   0  0  0  0  0  0
  -26.8280  -30.8662   21.9890 H   0  0  0  0  0  0
  -28.1002  -29.0603   21.1627 H   0  0  0  0  0  0
  -25.9990  -26.0342   18.8824 H   0  0  0  0  0  0
  -23.9785  -27.3471   18.9646 H   0  0  0  0  0  0
  -23.7176  -30.6119   19.4084 H   0  0  0  0  0  0
  -22.7297  -29.2592   19.8705 H   0  0  0  0  0  0
  -25.1250  -36.1997   25.0836 H   0  0  0  0  0  0
  -20.9983  -28.3226   24.1442 H   0  0  0  0  0  0
  -20.5663  -26.2292   23.3598 H   0  0  0  0  0  0
  -21.6623  -26.7467   22.1185 H   0  0  0  0  0  0
  -19.6871  -25.6324   21.1234 H   0  0  0  0  0  0
  -19.6625  -27.3234   20.6765 H   0  0  0  0  0  0
  -17.4178  -26.6700   21.4083 H   0  0  0  0  0  0
  -18.0331  -26.0070   22.9043 H   0  0  0  0  0  0
  -19.7923  -30.7276   24.2323 H   0  0  0  0  0  0
  -17.4997  -31.6270   24.5179 H   0  0  0  0  0  0
  -15.5343  -30.3026   23.7579 H   0  0  0  0  0  0
  -15.8682  -28.0853   22.7018 H   0  0  0  0  0  0
  -24.5869  -30.7071   25.7830 H   0  0  0  0  0  0
  -24.8928  -32.2847   26.4981 H   0  0  0  0  0  0
  -25.8062  -30.8828   27.0225 H   0  0  0  0  0  0
  -26.2791  -29.6792   24.1171 H   0  0  0  0  0  0
  -27.3964  -29.7219   25.4607 H   0  0  0  0  0  0
  -27.8668  -30.4275   23.9315 H   0  0  0  0  0  0
  -27.2661  -33.3577   26.2117 H   0  0  0  0  0  0
  -28.3805  -32.6923   25.0269 H   0  0  0  0  0  0
  -28.0779  -31.8403   26.5334 H   0  0  0  0  0  0
  -28.2628  -38.0093   24.7500 H   0  0  0  0  0  0
  -28.1048  -36.2624   24.6298 H   0  0  0  0  0  0
  -27.2317  -37.1493   25.8885 H   0  0  0  0  0  0
  -20.9320  -29.8774   21.6954 H   0  0  0  0  0  0
  -26.0183  -38.2901   24.1389 H   0  0  0  0  0  0
  -27.2590  -17.6917   20.3210 H   0  0  0  0  0  0
  -26.9702  -20.4079   20.2664 H   0  0  0  0  0  0
  -31.2177  -17.1278   20.3190 H   0  0  0  0  0  0
  -30.6946  -21.8490   20.6100 H   0  0  0  0  0  0
  -28.7052  -15.5571   20.9182 H   0  0  0  0  0  0
  -27.8179  -22.7667   20.2896 H   0  0  0  0  0  0
  -31.4889  -24.0202   20.7357 H   0  0  0  0  0  0
  -31.0886  -25.6292   20.1732 H   0  0  0  0  0  0
  -31.0298  -24.2774   19.0497 H   0  0  0  0  0  0
  -27.4003  -24.8556   19.7695 H   0  0  0  0  0  0
  -28.6213  -25.2420   18.5823 H   0  0  0  0  0  0
  -29.2303  -24.6481   21.5045 H   0  0  0  0  0  0
  1 25  1  0  0  0
  1 30  2  0  0  0
  1 77  1  0  0  0
  2  3  1  0  0  0
  2 25  1  0  0  0
  2 83  1  0  0  0
  2 84  1  0  0  0
  3  4  1  0  0  0
  3 85  1  0  0  0
  3 86  1  0  0  0
  4  5  1  0  0  0
  4 87  1  0  0  0
  4 88  1  0  0  0
  5  6  1  0  0  0
  5 26  1  0  0  0
  5 89  1  0  0  0
  6 25  1  0  0  0
  6 90  1  0  0  0
  6 91  1  0  0  0
  7  8  2  0  0  0
  7 26  1  0  0  0
  7 29  1  0  0  0
  8  9  1  0  0  0
  8 22  1  0  0  0
  9 10  1  0  0  0
  9 27  2  0  0  0
 10 11  2  0  0  0
 10 15  1  0  0  0
 11 12  1  0  0  0
 11 92  1  0  0  0
 12 13  2  0  0  0
 12 93  1  0  0  0
 13 14  1  0  0  0
 13 31  1  0  0  0
 14 15  2  0  0  0
 14 94  1  0  0  0
 15 95  1  0  0  0
 16 17  2  0  0  0
 16 21  1  0  0  0
 16 31  1  0  0  0
 17 18  1  0  0  0
 17 96  1  0  0  0
 18 19  2  0  0  0
 18 97  1  0  0  0
 19 20  1  0  0  0
 19 24  1  0  0  0
 20 21  2  0  0  0
 20 98  1  0  0  0
 21 23  1  0  0  0
 22 28  1  0  0  0
 22 32  2  0  0  0
 26 27  1  0  0  0
 28 99  1  0  0  0
 28100  1  0  0  0
 29101  1  0  0  0
 29102  1  0  0  0
 33 34  1  0  0  0
 33 66  1  0  0  0
 33 70  2  0  0  0
 34 36  1  0  0  0
 34 59  1  0  0  0
 34103  1  0  0  0
 35 44  2  0  0  0
 35 45  1  0  0  0
 35 68  1  0  0  0
 36 56  1  0  0  0
 36104  1  0  0  0
 37 39  1  0  0  0
 37 47  1  0  0  0
 37 66  1  0  0  0
 37105  1  0  0  0
 38 43  2  0  0  0
 38 46  1  0  0  0
 38 47  1  0  0  0
 39 64  1  0  0  0
 39 67  2  0  0  0
 40 52  1  0  0  0
 40 53  2  0  0  0
 40 58  1  0  0  0
 41106  1  0  0  0
 41107  1  0  0  0
 41108  1  0  0  0
 41 48  1  0  0  0
 42 43  1  0  0  0
 42 66  1  0  0  0
 42109  1  0  0  0
 42110  1  0  0  0
 43 44  1  0  0  0
 44111  1  0  0  0
 45 46  2  0  0  0
 45112  1  0  0  0
 46113  1  0  0  0
 47114  1  0  0  0
 47115  1  0  0  0
 48 56  1  0  0  0
 48 65  1  0  0  0
 48116  1  0  0  0
 49 50  1  0  0  0
 49 53  1  0  0  0
 49 64  1  0  0  0
 49117  1  0  0  0
 50 51  1  0  0  0
 50118  1  0  0  0
 50119  1  0  0  0
 51 52  1  0  0  0
 51120  1  0  0  0
 51121  1  0  0  0
 52122  1  0  0  0
 52123  1  0  0  0
 53 54  1  0  0  0
 54 55  2  0  0  0
 54124  1  0  0  0
 55 57  1  0  0  0
 55125  1  0  0  0
 56 69  2  0  0  0
 57 58  2  0  0  0
 57126  1  0  0  0
 58127  1  0  0  0
 59 60  1  0  0  0
 59 61  1  0  0  0
 59 62  1  0  0  0
 60128  1  0  0  0
 60129  1  0  0  0
 60130  1  0  0  0
 61131  1  0  0  0
 61132  1  0  0  0
 61133  1  0  0  0
 62134  1  0  0  0
 62135  1  0  0  0
 62136  1  0  0  0
 63 65  1  0  0  0
 63137  1  0  0  0
 63138  1  0  0  0
 63139  1  0  0  0
 64140  1  0  0  0
 65141  1  0  0  0
 68 80  1  0  0  0
 71 72  1  0  0  0
 71 73  2  0  0  0
 71142  1  0  0  0
 72 74  2  0  0  0
 72143  1  0  0  0
 73 75  1  0  0  0
 73 82  1  0  0  0
 74 76  1  0  0  0
 74 82  1  0  0  0
 75 77  2  0  0  0
 75144  1  0  0  0
 76 78  2  0  0  0
 76145  1  0  0  0
 77146  1  0  0  0
 78 81  1  0  0  0
 78147  1  0  0  0
 79148  1  0  0  0
 79149  1  0  0  0
 79150  1  0  0  0
 79 81  1  0  0  0
 80 81  1  0  0  0
 80151  1  0  0  0
 80152  1  0  0  0
 81153  1  0  0  0
M  ISO  4   1 100  68 101  77 100  80 101
M  END
> <chiral flag>
0

> <version>
0

> <s_m_source_file>
/data/baiqing/PycharmProjects/Reinvent-master-3.2/result/LINK_invent/BTK/process_docking_weight1_custom_product_contain_oxygen_bond_distance_aromatic_linkinvent_7_9_3/rearranged_h_0122.sdf

> <i_m_source_file_index>
49

> <r_mmod_Potential_Energy-OPLS-2005>
-45.2674255371094

> <r_mmod_Stretch_Energy-OPLS-2005>
41.0959815979004

> <r_mmod_Bend_Energy-OPLS-2005>
100.895393371582

> <r_mmod_Torsional_Energy-OPLS-2005>
182.670669555664

> <r_mmod_Improper_Torsional_Energy-OPLS-2005>
7.71601963043213

> <r_mmod_Van_der_Waal_Energy-OPLS-2005>
140.327407836914

> <r_mmod_Electrostatic_Energy-OPLS-2005>
-343.944702148438

> <r_mmod_Solvation_Energy-OPLS-2005>
-196.244598388672

> <b_mmod_Minimization_Converged-OPLS-2005>
0

> <r_mmod_RMS_Derivative-OPLS-2005>
4.46903610229492

$$$$
49
                    3D
 Structure written by MMmdl.
152161  0  0  1  0            999 V2000
  -30.3993  -15.4620   20.3536 C   0  0  0  0  0  0
  -30.4212  -12.9519   19.5400 C   0  0  0  0  0  0
  -29.5385  -12.6158   18.3095 C   0  0  0  0  0  0
  -28.1006  -12.2994   18.7463 C   0  0  0  0  0  0
  -27.5996  -13.2967   19.8178 C   0  0  2  0  0  0
  -28.6224  -13.5719   20.9445 C   0  0  0  0  0  0
  -25.2342  -13.8283   20.5788 C   0  0  0  0  0  0
  -24.1715  -13.0445   20.9275 C   0  0  0  0  0  0
  -24.6398  -11.6949   20.8765 C   0  0  0  0  0  0
  -23.9102  -10.4295   21.0399 C   0  0  0  0  0  0
  -24.3644   -9.4208   21.9176 C   0  0  0  0  0  0
  -23.6310   -8.2247   22.0751 C   0  0  0  0  0  0
  -22.4290   -8.0285   21.3544 C   0  0  0  0  0  0
  -21.9933   -9.0259   20.4645 C   0  0  0  0  0  0
  -22.7270  -10.2134   20.3051 C   0  0  0  0  0  0
  -21.6858   -6.0739   22.5276 C   0  0  0  0  0  0
  -21.4017   -6.5643   23.8209 C   0  0  0  0  0  0
  -21.3661   -5.6796   24.9171 C   0  0  0  0  0  0
  -21.6044   -4.3058   24.7221 C   0  0  0  0  0  0
  -21.8819   -3.8150   23.4343 C   0  0  0  0  0  0
  -21.9194   -4.6967   22.3399 C   0  0  0  0  0  0
  -22.7730  -13.5180   21.1910 C   0  0  0  0  0  0
  -22.1662   -4.2152   21.0977 F   0  0  0  0  0  0
  -21.5628   -3.4541   25.7735 F   0  0  0  0  0  0
  -29.8233  -14.1352   20.2962 N   0  0  0  0  0  0
  -26.2775  -12.9592   20.3242 N   0  0  0  0  0  0
  -25.9341  -11.6674   20.5718 N   0  0  0  0  0  0
  -22.0397  -12.8157   22.0467 N   0  0  0  0  0  0
  -25.3980  -15.2020   20.4246 N   0  0  0  0  0  0
  -31.6184  -15.3766   20.1145 O   0  0  0  0  0  0
  -21.6649   -6.8886   21.4240 O   0  0  0  0  0  0
  -22.3404  -14.5475   20.6744 O   0  0  0  0  0  0
  -24.6748  -31.8100   23.1593 C   0  0  0  0  0  0
  -25.9376  -32.4516   23.8101 C   0  0  1  0  0  0
  -27.2192  -26.7986   20.1958 C   0  0  0  0  0  0
  -25.5998  -33.8337   24.2000 N   0  0  0  0  0  0
  -23.4963  -30.4162   21.5104 C   0  0  2  0  0  0
  -24.9531  -28.7806   20.1074 C   0  0  0  0  0  0
  -22.7726  -29.4365   22.4730 C   0  0  0  0  0  0
  -18.0332  -28.1421   22.8463 C   0  0  0  0  0  0
  -24.1488  -36.7166   23.2649 C   0  0  0  0  0  0
  -26.0713  -30.5724   21.4118 C   0  0  0  0  0  0
  -26.1365  -29.1491   20.7577 C   0  0  0  0  0  0
  -27.2553  -28.1793   20.7807 C   0  0  0  0  0  0
  -26.0130  -26.6239   19.4754 C   0  0  0  0  0  0
  -24.9248  -27.5423   19.4440 C   0  0  0  0  0  0
  -23.7443  -29.7234   20.1399 C   0  0  0  0  0  0
  -25.4136  -36.2921   24.0288 C   0  0  1  0  0  0
  -20.5965  -28.3772   23.1162 C   0  0  2  0  0  0
  -20.6801  -26.9441   22.5406 C   0  0  0  0  0  0
  -19.5776  -26.6375   21.5218 C   0  0  0  0  0  0
  -18.1957  -26.7952   22.1620 C   0  0  0  0  0  0
  -19.1598  -28.8920   23.2794 C   0  0  0  0  0  0
  -18.9507  -30.1506   23.8834 C   0  0  0  0  0  0
  -17.6498  -30.6606   24.0556 C   0  0  0  0  0  0
  -25.9114  -34.9312   23.4971 C   0  0  0  0  0  0
  -16.5386  -29.9092   23.6352 C   0  0  0  0  0  0
  -16.7314  -28.6514   23.0367 C   0  0  0  0  0  0
  -26.4587  -31.6514   25.0686 C   0  0  0  0  0  0
  -25.3675  -31.3819   26.1319 C   0  0  0  0  0  0
  -27.0507  -30.2861   24.6524 C   0  0  0  0  0  0
  -27.6052  -32.4356   25.7498 C   0  0  0  0  0  0
  -27.5559  -37.1740   24.8468 C   0  0  0  0  0  0
  -21.4382  -29.3033   22.3488 N   0  0  0  0  0  0
  -26.4266  -37.3675   23.9413 N   0  0  0  0  0  0
  -24.7697  -30.9641   22.0797 N   0  0  0  0  0  0
  -23.4214  -28.7953   23.3031 O   0  0  0  0  0  0
  -28.1708  -25.6105   20.3358 O   0  0  0  0  0  0
  -26.5738  -34.8875   22.4576 O   0  0  0  0  0  0
  -23.5791  -32.1130   23.6611 O   0  0  0  0  0  0
  -27.9107  -21.6603   21.4929 C   0  0  0  0  0  0
  -29.2599  -21.1447   19.6475 C   0  0  0  0  0  0
  -27.9706  -20.2367   21.8878 C   0  0  0  0  0  0
  -29.3650  -19.6522   20.0498 C   0  0  0  0  0  0
  -28.6916  -19.2116   21.1580 C   0  0  0  0  0  0
  -28.5153  -22.3013   20.3448 C   0  0  0  0  0  0
  -26.5054  -20.5207   23.9303 C   0  0  0  0  0  0
  -27.2427  -19.7761   23.0873 C   0  0  0  0  0  0
  -30.0660  -18.2192   19.5466 C   0  0  0  0  0  0
  -28.8616  -17.5990   21.3707 C   0  0  0  0  0  0
  -28.0510  -23.9850   19.8251 C   0  0  0  0  0  0
  -29.7227  -16.8417   20.3248 N   0  0  0  0  0  0
  -31.4325  -13.1632   19.1915 H   0  0  0  0  0  0
  -30.5245  -12.0818   20.1905 H   0  0  0  0  0  0
  -29.9580  -11.7758   17.7543 H   0  0  0  0  0  0
  -29.5338  -13.4661   17.6257 H   0  0  0  0  0  0
  -28.0948  -11.2891   19.1571 H   0  0  0  0  0  0
  -27.4307  -12.2852   17.8857 H   0  0  0  0  0  0
  -27.4823  -14.2364   19.2761 H   0  0  0  0  0  0
  -28.8399  -12.6729   21.5235 H   0  0  0  0  0  0
  -28.2200  -14.3042   21.6464 H   0  0  0  0  0  0
  -25.2782   -9.5685   22.4759 H   0  0  0  0  0  0
  -24.0016   -7.4640   22.7475 H   0  0  0  0  0  0
  -21.0862   -8.8782   19.8951 H   0  0  0  0  0  0
  -22.3723  -10.9675   19.6166 H   0  0  0  0  0  0
  -21.2010   -7.6152   23.9713 H   0  0  0  0  0  0
  -21.1483   -6.0525   25.9075 H   0  0  0  0  0  0
  -22.0597   -2.7613   23.2838 H   0  0  0  0  0  0
  -22.4040  -11.9832   22.4858 H   0  0  0  0  0  0
  -21.1001  -13.1148   22.2666 H   0  0  0  0  0  0
  -24.6292  -15.8529   20.5413 H   0  0  0  0  0  0
  -26.2444  -15.6444   20.0907 H   0  0  0  0  0  0
  -26.7451  -32.5016   23.0814 H   0  0  0  0  0  0
  -25.0095  -33.9390   25.0119 H   0  0  0  0  0  0
  -22.8158  -31.2508   21.3299 H   0  0  0  0  0  0
  -23.3767  -35.9480   23.3278 H   0  0  0  0  0  0
  -24.3560  -36.8855   22.2070 H   0  0  0  0  0  0
  -23.7228  -37.6333   23.6738 H   0  0  0  0  0  0
  -26.2673  -31.3054   20.6280 H   0  0  0  0  0  0
  -26.9252  -30.6335   22.0741 H   0  0  0  0  0  0
  -28.1391  -28.4555   21.3380 H   0  0  0  0  0  0
  -25.8601  -25.6845   18.9650 H   0  0  0  0  0  0
  -24.0307  -27.2553   18.9078 H   0  0  0  0  0  0
  -23.9091  -30.4888   19.3805 H   0  0  0  0  0  0
  -22.8512  -29.1845   19.8190 H   0  0  0  0  0  0
  -25.1340  -36.1692   25.0778 H   0  0  0  0  0  0
  -21.0049  -28.3392   24.1284 H   0  0  0  0  0  0
  -20.5668  -26.2397   23.3660 H   0  0  0  0  0  0
  -21.6662  -26.7395   22.1220 H   0  0  0  0  0  0
  -19.6931  -25.6269   21.1287 H   0  0  0  0  0  0
  -19.6718  -27.3154   20.6724 H   0  0  0  0  0  0
  -17.4228  -26.6702   21.4021 H   0  0  0  0  0  0
  -18.0341  -26.0109   22.9027 H   0  0  0  0  0  0
  -19.7984  -30.7342   24.2168 H   0  0  0  0  0  0
  -17.5051  -31.6277   24.5173 H   0  0  0  0  0  0
  -15.5385  -30.2974   23.7714 H   0  0  0  0  0  0
  -15.8712  -28.0813   22.7114 H   0  0  0  0  0  0
  -24.5884  -30.7138   25.7632 H   0  0  0  0  0  0
  -24.8837  -32.3040   26.4548 H   0  0  0  0  0  0
  -25.7871  -30.9120   27.0221 H   0  0  0  0  0  0
  -26.3214  -29.6496   24.1502 H   0  0  0  0  0  0
  -27.3957  -29.7279   25.5237 H   0  0  0  0  0  0
  -27.9185  -30.4012   24.0027 H   0  0  0  0  0  0
  -27.2606  -33.3722   26.1894 H   0  0  0  0  0  0
  -28.3955  -32.6809   25.0390 H   0  0  0  0  0  0
  -28.0617  -31.8601   26.5561 H   0  0  0  0  0  0
  -28.2555  -38.0054   24.7508 H   0  0  0  0  0  0
  -28.1071  -36.2577   24.6298 H   0  0  0  0  0  0
  -27.2278  -37.1390   25.8871 H   0  0  0  0  0  0
  -20.9662  -29.8706   21.6585 H   0  0  0  0  0  0
  -26.0096  -38.2724   24.1429 H   0  0  0  0  0  0
  -27.3000  -22.3223   22.0863 H   0  0  0  0  0  0
  -29.7532  -21.4091   18.7226 H   0  0  0  0  0  0
  -26.0192  -20.0569   24.7769 H   0  0  0  0  0  0
  -26.3617  -21.5838   23.8149 H   0  0  0  0  0  0
  -27.3122  -18.7202   23.3090 H   0  0  0  0  0  0
  -31.1484  -18.3501   19.5725 H   0  0  0  0  0  0
  -29.8100  -18.0738   18.4967 H   0  0  0  0  0  0
  -27.8687  -17.1479   21.3816 H   0  0  0  0  0  0
  -29.2907  -17.4246   22.3580 H   0  0  0  0  0  0
  -26.9787  -23.8624   19.6780 H   0  0  0  0  0  0
  -28.4431  -24.0331   18.8095 H   0  0  0  0  0  0
  1 25  1  0  0  0
  1 30  2  0  0  0
  1 82  1  0  0  0
  2  3  1  0  0  0
  2 25  1  0  0  0
  2 83  1  0  0  0
  2 84  1  0  0  0
  3  4  1  0  0  0
  3 85  1  0  0  0
  3 86  1  0  0  0
  4  5  1  0  0  0
  4 87  1  0  0  0
  4 88  1  0  0  0
  5  6  1  0  0  0
  5 26  1  0  0  0
  5 89  1  0  0  0
  6 25  1  0  0  0
  6 90  1  0  0  0
  6 91  1  0  0  0
  7  8  2  0  0  0
  7 26  1  0  0  0
  7 29  1  0  0  0
  8  9  1  0  0  0
  8 22  1  0  0  0
  9 10  1  0  0  0
  9 27  2  0  0  0
 10 11  2  0  0  0
 10 15  1  0  0  0
 11 12  1  0  0  0
 11 92  1  0  0  0
 12 13  2  0  0  0
 12 93  1  0  0  0
 13 14  1  0  0  0
 13 31  1  0  0  0
 14 15  2  0  0  0
 14 94  1  0  0  0
 15 95  1  0  0  0
 16 17  2  0  0  0
 16 21  1  0  0  0
 16 31  1  0  0  0
 17 18  1  0  0  0
 17 96  1  0  0  0
 18 19  2  0  0  0
 18 97  1  0  0  0
 19 20  1  0  0  0
 19 24  1  0  0  0
 20 21  2  0  0  0
 20 98  1  0  0  0
 21 23  1  0  0  0
 22 28  1  0  0  0
 22 32  2  0  0  0
 26 27  1  0  0  0
 28 99  1  0  0  0
 28100  1  0  0  0
 29101  1  0  0  0
 29102  1  0  0  0
 33 34  1  0  0  0
 33 66  1  0  0  0
 33 70  2  0  0  0
 34 36  1  0  0  0
 34 59  1  0  0  0
 34103  1  0  0  0
 35 44  2  0  0  0
 35 45  1  0  0  0
 35 68  1  0  0  0
 36 56  1  0  0  0
 36104  1  0  0  0
 37 39  1  0  0  0
 37 47  1  0  0  0
 37 66  1  0  0  0
 37105  1  0  0  0
 38 43  2  0  0  0
 38 46  1  0  0  0
 38 47  1  0  0  0
 39 64  1  0  0  0
 39 67  2  0  0  0
 40 52  1  0  0  0
 40 53  2  0  0  0
 40 58  1  0  0  0
 41106  1  0  0  0
 41107  1  0  0  0
 41108  1  0  0  0
 41 48  1  0  0  0
 42 43  1  0  0  0
 42 66  1  0  0  0
 42109  1  0  0  0
 42110  1  0  0  0
 43 44  1  0  0  0
 44111  1  0  0  0
 45 46  2  0  0  0
 45112  1  0  0  0
 46113  1  0  0  0
 47114  1  0  0  0
 47115  1  0  0  0
 48 56  1  0  0  0
 48 65  1  0  0  0
 48116  1  0  0  0
 49 50  1  0  0  0
 49 53  1  0  0  0
 49 64  1  0  0  0
 49117  1  0  0  0
 50 51  1  0  0  0
 50118  1  0  0  0
 50119  1  0  0  0
 51 52  1  0  0  0
 51120  1  0  0  0
 51121  1  0  0  0
 52122  1  0  0  0
 52123  1  0  0  0
 53 54  1  0  0  0
 54 55  2  0  0  0
 54124  1  0  0  0
 55 57  1  0  0  0
 55125  1  0  0  0
 56 69  2  0  0  0
 57 58  2  0  0  0
 57126  1  0  0  0
 58127  1  0  0  0
 59 60  1  0  0  0
 59 61  1  0  0  0
 59 62  1  0  0  0
 60128  1  0  0  0
 60129  1  0  0  0
 60130  1  0  0  0
 61131  1  0  0  0
 61132  1  0  0  0
 61133  1  0  0  0
 62134  1  0  0  0
 62135  1  0  0  0
 62136  1  0  0  0
 63 65  1  0  0  0
 63137  1  0  0  0
 63138  1  0  0  0
 63139  1  0  0  0
 64140  1  0  0  0
 65141  1  0  0  0
 68 81  1  0  0  0
 71 73  2  0  0  0
 71 76  1  0  0  0
 71142  1  0  0  0
 72 74  1  0  0  0
 72 76  2  0  0  0
 72143  1  0  0  0
 73 75  1  0  0  0
 73 78  1  0  0  0
 74 75  2  0  0  0
 74 79  1  0  0  0
 75 80  1  0  0  0
 76 81  1  0  0  0
 77 78  2  0  0  0
 77144  1  0  0  0
 77145  1  0  0  0
 78146  1  0  0  0
 79 82  1  0  0  0
 79147  1  0  0  0
 79148  1  0  0  0
 80 82  1  0  0  0
 80149  1  0  0  0
 80150  1  0  0  0
 81151  1  0  0  0
 81152  1  0  0  0
M  ISO  4   1 100  68 101  81 101  82 100
M  END
> <chiral flag>
0

> <version>
0

> <s_m_source_file>
/data/baiqing/PycharmProjects/Reinvent-master-3.2/result/LINK_invent/BTK/process_docking_weight1_custom_product_contain_oxygen_bond_distance_aromatic_linkinvent_7_9_3/rearranged_h_0122.sdf

> <i_m_source_file_index>
50

> <r_mmod_Potential_Energy-OPLS-2005>
1837.06372070312

> <r_mmod_Stretch_Energy-OPLS-2005>
709.878112792969

> <r_mmod_Bend_Energy-OPLS-2005>
564.455383300781

> <r_mmod_Torsional_Energy-OPLS-2005>
270.25634765625

> <r_mmod_Improper_Torsional_Energy-OPLS-2005>
13.9514379501343

> <r_mmod_Van_der_Waal_Energy-OPLS-2005>
122.774940490723

> <r_mmod_Electrostatic_Energy-OPLS-2005>
-316.647766113281

> <r_mmod_Solvation_Energy-OPLS-2005>
-211.152877807617

> <b_mmod_Minimization_Converged-OPLS-2005>
0

> <r_mmod_RMS_Derivative-OPLS-2005>
0.613042175769806

$$$$
50
                    3D
 Structure written by MMmdl.
159167  0  0  1  0            999 V2000
  -30.6272  -14.6933   20.4682 C   0  0  0  0  0  0
  -30.4333  -12.4254   19.4534 C   0  0  0  0  0  0
  -29.5050  -12.4983   18.2217 C   0  0  0  0  0  0
  -28.0309  -12.3300   18.6389 C   0  0  0  0  0  0
  -27.6436  -13.2245   19.8473 C   0  0  2  0  0  0
  -28.6922  -13.1361   20.9780 C   0  0  0  0  0  0
  -25.2522  -13.8174   20.5672 C   0  0  0  0  0  0
  -24.1816  -13.0427   20.9224 C   0  0  0  0  0  0
  -24.6410  -11.6911   20.8772 C   0  0  0  0  0  0
  -23.9086  -10.4285   21.0423 C   0  0  0  0  0  0
  -24.3633   -9.4196   21.9197 C   0  0  0  0  0  0
  -23.6300   -8.2234   22.0760 C   0  0  0  0  0  0
  -22.4279   -8.0286   21.3553 C   0  0  0  0  0  0
  -21.9927   -9.0259   20.4652 C   0  0  0  0  0  0
  -22.7264  -10.2136   20.3065 C   0  0  0  0  0  0
  -21.6850   -6.0749   22.5279 C   0  0  0  0  0  0
  -21.4010   -6.5647   23.8218 C   0  0  0  0  0  0
  -21.3656   -5.6800   24.9179 C   0  0  0  0  0  0
  -21.6042   -4.3061   24.7229 C   0  0  0  0  0  0
  -21.8818   -3.8156   23.4347 C   0  0  0  0  0  0
  -21.9191   -4.6974   22.3406 C   0  0  0  0  0  0
  -22.7840  -13.5218   21.1867 C   0  0  0  0  0  0
  -22.1660   -4.2163   21.0983 F   0  0  0  0  0  0
  -21.5629   -3.4543   25.7738 F   0  0  0  0  0  0
  -29.9955  -13.4772   20.3934 N   0  0  0  0  0  0
  -26.2946  -12.9378   20.3258 N   0  0  0  0  0  0
  -25.9334  -11.6531   20.5753 N   0  0  0  0  0  0
  -22.0476  -12.8209   22.0422 N   0  0  0  0  0  0
  -25.4163  -15.1889   20.4031 N   0  0  0  0  0  0
  -31.8206  -14.7931   20.1703 O   0  0  0  0  0  0
  -21.6638   -6.8888   21.4246 O   0  0  0  0  0  0
  -22.3527  -14.5524   20.6712 O   0  0  0  0  0  0
  -24.6258  -31.8577   23.1998 C   0  0  0  0  0  0
  -25.9106  -32.4763   23.8325 C   0  0  1  0  0  0
  -27.2294  -27.3066   20.1322 C   0  0  0  0  0  0
  -25.5924  -33.8559   24.2269 N   0  0  0  0  0  0
  -23.4215  -30.4769   21.5405 C   0  0  2  0  0  0
  -24.8715  -28.9218   20.1151 C   0  0  0  0  0  0
  -22.7467  -29.4600   22.4916 C   0  0  0  0  0  0
  -18.0285  -28.1380   22.8465 C   0  0  0  0  0  0
  -24.1505  -36.7282   23.2639 C   0  0  0  0  0  0
  -25.9612  -30.7862   21.3707 C   0  0  0  0  0  0
  -26.0387  -29.4091   20.7183 C   0  0  0  0  0  0
  -27.2236  -28.6138   20.7124 C   0  0  0  0  0  0
  -26.0406  -26.8626   19.5191 C   0  0  0  0  0  0
  -24.8737  -27.6544   19.5072 C   0  0  0  0  0  0
  -23.6393  -29.8041   20.1590 C   0  0  0  0  0  0
  -25.4131  -36.3072   24.0333 C   0  0  1  0  0  0
  -20.5883  -28.3674   23.1289 C   0  0  2  0  0  0
  -20.6783  -26.9395   22.5415 C   0  0  0  0  0  0
  -19.5772  -26.6378   21.5204 C   0  0  0  0  0  0
  -18.1940  -26.7916   22.1605 C   0  0  0  0  0  0
  -19.1534  -28.8846   23.2866 C   0  0  0  0  0  0
  -18.9466  -30.1447   23.8885 C   0  0  0  0  0  0
  -17.6466  -30.6579   24.0550 C   0  0  0  0  0  0
  -25.9064  -34.9434   23.5100 C   0  0  0  0  0  0
  -16.5351  -29.9079   23.6327 C   0  0  0  0  0  0
  -16.7270  -28.6505   23.0334 C   0  0  0  0  0  0
  -26.4502  -31.6573   25.0689 C   0  0  0  0  0  0
  -25.3735  -31.3723   26.1418 C   0  0  0  0  0  0
  -27.0353  -30.3002   24.6143 C   0  0  0  0  0  0
  -27.6056  -32.4306   25.7468 C   0  0  0  0  0  0
  -27.5587  -37.1797   24.8464 C   0  0  0  0  0  0
  -21.4180  -29.3026   22.3671 N   0  0  0  0  0  0
  -26.4305  -37.3765   23.9402 N   0  0  0  0  0  0
  -24.6877  -31.0574   22.0945 N   0  0  0  0  0  0
  -23.4180  -28.8148   23.3009 O   0  0  0  0  0  0
  -28.3556  -26.4723   20.1117 O   0  0  0  0  0  0
  -26.5616  -34.8897   22.4655 O   0  0  0  0  0  0
  -23.5420  -32.1379   23.7325 O   0  0  0  0  0  0
  -30.9422  -19.9832   21.1509 C   0  0  0  0  0  0
  -31.3630  -17.5884   21.4491 C   0  0  0  0  0  0
  -29.7429  -19.7472   20.4455 C   0  0  0  0  0  0
  -29.3618  -18.3463   20.2676 C   0  0  0  0  0  0
  -30.1834  -17.2440   20.7540 C   0  0  0  0  0  0
  -31.7311  -18.9314   21.6505 C   0  0  0  0  0  0
  -28.3387  -17.6788   18.0383 C   0  0  0  0  0  0
  -29.0229  -21.0234   19.8161 C   0  0  0  0  0  0
  -28.0826  -17.9893   19.5195 C   0  0  0  0  0  0
  -28.9176  -22.4184   20.6193 C   0  0  0  0  0  0
  -28.5654  -23.7870   19.8414 C   0  0  0  0  0  0
  -28.2678  -25.1105   20.6996 C   0  0  0  0  0  0
  -29.8314  -15.8122   20.6259 N   0  0  0  0  0  0
  -32.8666  -19.2151   22.3326 F   0  0  0  0  0  0
  -31.4732  -12.5505   19.1465 H   0  0  0  0  0  0
  -30.3741  -11.4435   19.9263 H   0  0  0  0  0  0
  -29.7780  -11.7288   17.4985 H   0  0  0  0  0  0
  -29.6361  -13.4544   17.7125 H   0  0  0  0  0  0
  -27.8818  -11.2806   18.8961 H   0  0  0  0  0  0
  -27.3719  -12.5310   17.7927 H   0  0  0  0  0  0
  -27.6431  -14.2481   19.4741 H   0  0  0  0  0  0
  -28.7186  -12.1327   21.4058 H   0  0  0  0  0  0
  -28.4374  -13.8105   21.7972 H   0  0  0  0  0  0
  -25.2779   -9.5668   22.4771 H   0  0  0  0  0  0
  -24.0010   -7.4626   22.7476 H   0  0  0  0  0  0
  -21.0863   -8.8790   19.8951 H   0  0  0  0  0  0
  -22.3736  -10.9682   19.6174 H   0  0  0  0  0  0
  -21.1997   -7.6154   23.9727 H   0  0  0  0  0  0
  -21.1478   -6.0528   25.9085 H   0  0  0  0  0  0
  -22.0597   -2.7619   23.2845 H   0  0  0  0  0  0
  -22.4096  -11.9875   22.4807 H   0  0  0  0  0  0
  -21.1089  -13.1230   22.2609 H   0  0  0  0  0  0
  -24.6350  -15.8292   20.4946 H   0  0  0  0  0  0
  -26.2352  -15.6209   19.9983 H   0  0  0  0  0  0
  -26.7144  -32.5435   23.1043 H   0  0  0  0  0  0
  -25.0069  -33.9708   25.0414 H   0  0  0  0  0  0
  -22.7152  -31.2964   21.3922 H   0  0  0  0  0  0
  -23.3764  -35.9617   23.3306 H   0  0  0  0  0  0
  -24.3586  -36.8906   22.2050 H   0  0  0  0  0  0
  -23.7261  -37.6484   23.6662 H   0  0  0  0  0  0
  -26.0865  -31.5487   20.6003 H   0  0  0  0  0  0
  -26.8421  -30.8416   21.9986 H   0  0  0  0  0  0
  -28.1236  -28.9842   21.1815 H   0  0  0  0  0  0
  -26.0149  -25.8884   19.0515 H   0  0  0  0  0  0
  -23.9788  -27.2756   19.0336 H   0  0  0  0  0  0
  -23.7587  -30.5776   19.3985 H   0  0  0  0  0  0
  -22.7616  -29.2318   19.8545 H   0  0  0  0  0  0
  -25.1310  -36.1918   25.0827 H   0  0  0  0  0  0
  -20.9963  -28.3248   24.1420 H   0  0  0  0  0  0
  -20.5707  -26.2259   23.3601 H   0  0  0  0  0  0
  -21.6648  -26.7446   22.1193 H   0  0  0  0  0  0
  -19.6938  -25.6293   21.1230 H   0  0  0  0  0  0
  -19.6737  -27.3189   20.6733 H   0  0  0  0  0  0
  -17.4213  -26.6649   21.4001 H   0  0  0  0  0  0
  -18.0343  -26.0078   22.9025 H   0  0  0  0  0  0
  -19.7948  -30.7255   24.2254 H   0  0  0  0  0  0
  -17.5027  -31.6264   24.5141 H   0  0  0  0  0  0
  -15.5351  -30.2967   23.7688 H   0  0  0  0  0  0
  -15.8669  -28.0827   22.7042 H   0  0  0  0  0  0
  -24.5909  -30.7078   25.7752 H   0  0  0  0  0  0
  -24.8912  -32.2894   26.4808 H   0  0  0  0  0  0
  -25.8048  -30.8923   27.0209 H   0  0  0  0  0  0
  -26.2929  -29.6733   24.1192 H   0  0  0  0  0  0
  -27.4089  -29.7277   25.4640 H   0  0  0  0  0  0
  -27.8771  -30.4302   23.9338 H   0  0  0  0  0  0
  -27.2673  -33.3623   26.2011 H   0  0  0  0  0  0
  -28.3883  -32.6830   25.0304 H   0  0  0  0  0  0
  -28.0689  -31.8434   26.5411 H   0  0  0  0  0  0
  -28.2594  -38.0097   24.7499 H   0  0  0  0  0  0
  -28.1093  -36.2623   24.6312 H   0  0  0  0  0  0
  -27.2288  -37.1456   25.8861 H   0  0  0  0  0  0
  -20.9356  -29.8739   21.6880 H   0  0  0  0  0  0
  -26.0191  -38.2842   24.1399 H   0  0  0  0  0  0
  -31.2979  -20.9909   21.3026 H   0  0  0  0  0  0
  -32.0039  -16.8203   21.8561 H   0  0  0  0  0  0
  -27.4218  -17.3546   17.5452 H   0  0  0  0  0  0
  -29.0743  -16.8817   17.9223 H   0  0  0  0  0  0
  -28.7101  -18.5552   17.5062 H   0  0  0  0  0  0
  -28.0185  -20.7661   19.4856 H   0  0  0  0  0  0
  -29.5669  -21.2248   18.8926 H   0  0  0  0  0  0
  -27.3327  -18.7713   19.6216 H   0  0  0  0  0  0
  -27.6287  -17.1225   19.9971 H   0  0  0  0  0  0
  -29.8634  -22.6096   21.1227 H   0  0  0  0  0  0
  -28.1935  -22.2805   21.4231 H   0  0  0  0  0  0
  -27.7057  -23.6130   19.1953 H   0  0  0  0  0  0
  -29.3942  -24.0065   19.1668 H   0  0  0  0  0  0
  -28.9963  -25.1206   21.5112 H   0  0  0  0  0  0
  -27.3064  -24.9894   21.1996 H   0  0  0  0  0  0
  -28.8457  -15.6077   20.6472 H   0  0  0  0  0  0
  1 25  1  0  0  0
  1 30  2  0  0  0
  1 83  1  0  0  0
  2  3  1  0  0  0
  2 25  1  0  0  0
  2 85  1  0  0  0
  2 86  1  0  0  0
  3  4  1  0  0  0
  3 87  1  0  0  0
  3 88  1  0  0  0
  4  5  1  0  0  0
  4 89  1  0  0  0
  4 90  1  0  0  0
  5  6  1  0  0  0
  5 26  1  0  0  0
  5 91  1  0  0  0
  6 25  1  0  0  0
  6 92  1  0  0  0
  6 93  1  0  0  0
  7  8  2  0  0  0
  7 26  1  0  0  0
  7 29  1  0  0  0
  8  9  1  0  0  0
  8 22  1  0  0  0
  9 10  1  0  0  0
  9 27  2  0  0  0
 10 11  2  0  0  0
 10 15  1  0  0  0
 11 12  1  0  0  0
 11 94  1  0  0  0
 12 13  2  0  0  0
 12 95  1  0  0  0
 13 14  1  0  0  0
 13 31  1  0  0  0
 14 15  2  0  0  0
 14 96  1  0  0  0
 15 97  1  0  0  0
 16 17  2  0  0  0
 16 21  1  0  0  0
 16 31  1  0  0  0
 17 18  1  0  0  0
 17 98  1  0  0  0
 18 19  2  0  0  0
 18 99  1  0  0  0
 19 20  1  0  0  0
 19 24  1  0  0  0
 20 21  2  0  0  0
 20100  1  0  0  0
 21 23  1  0  0  0
 22 28  1  0  0  0
 22 32  2  0  0  0
 26 27  1  0  0  0
 28101  1  0  0  0
 28102  1  0  0  0
 29103  1  0  0  0
 29104  1  0  0  0
 33 34  1  0  0  0
 33 66  1  0  0  0
 33 70  2  0  0  0
 34 36  1  0  0  0
 34 59  1  0  0  0
 34105  1  0  0  0
 35 44  2  0  0  0
 35 45  1  0  0  0
 35 68  1  0  0  0
 36 56  1  0  0  0
 36106  1  0  0  0
 37 39  1  0  0  0
 37 47  1  0  0  0
 37 66  1  0  0  0
 37107  1  0  0  0
 38 43  2  0  0  0
 38 46  1  0  0  0
 38 47  1  0  0  0
 39 64  1  0  0  0
 39 67  2  0  0  0
 40 52  1  0  0  0
 40 53  2  0  0  0
 40 58  1  0  0  0
 41108  1  0  0  0
 41109  1  0  0  0
 41110  1  0  0  0
 41 48  1  0  0  0
 42 43  1  0  0  0
 42 66  1  0  0  0
 42111  1  0  0  0
 42112  1  0  0  0
 43 44  1  0  0  0
 44113  1  0  0  0
 45 46  2  0  0  0
 45114  1  0  0  0
 46115  1  0  0  0
 47116  1  0  0  0
 47117  1  0  0  0
 48 56  1  0  0  0
 48 65  1  0  0  0
 48118  1  0  0  0
 49 50  1  0  0  0
 49 53  1  0  0  0
 49 64  1  0  0  0
 49119  1  0  0  0
 50 51  1  0  0  0
 50120  1  0  0  0
 50121  1  0  0  0
 51 52  1  0  0  0
 51122  1  0  0  0
 51123  1  0  0  0
 52124  1  0  0  0
 52125  1  0  0  0
 53 54  1  0  0  0
 54 55  2  0  0  0
 54126  1  0  0  0
 55 57  1  0  0  0
 55127  1  0  0  0
 56 69  2  0  0  0
 57 58  2  0  0  0
 57128  1  0  0  0
 58129  1  0  0  0
 59 60  1  0  0  0
 59 61  1  0  0  0
 59 62  1  0  0  0
 60130  1  0  0  0
 60131  1  0  0  0
 60132  1  0  0  0
 61133  1  0  0  0
 61134  1  0  0  0
 61135  1  0  0  0
 62136  1  0  0  0
 62137  1  0  0  0
 62138  1  0  0  0
 63 65  1  0  0  0
 63139  1  0  0  0
 63140  1  0  0  0
 63141  1  0  0  0
 64142  1  0  0  0
 65143  1  0  0  0
 68 82  1  0  0  0
 71 73  2  0  0  0
 71 76  1  0  0  0
 71144  1  0  0  0
 72 75  1  0  0  0
 72 76  2  0  0  0
 72145  1  0  0  0
 73 74  1  0  0  0
 73 78  1  0  0  0
 74 75  2  0  0  0
 74 79  1  0  0  0
 75 83  1  0  0  0
 76 84  1  0  0  0
 77 79  1  0  0  0
 77146  1  0  0  0
 77147  1  0  0  0
 77148  1  0  0  0
 78 80  1  0  0  0
 78149  1  0  0  0
 78150  1  0  0  0
 79151  1  0  0  0
 79152  1  0  0  0
 80 81  1  0  0  0
 80153  1  0  0  0
 80154  1  0  0  0
 81 82  1  0  0  0
 81155  1  0  0  0
 81156  1  0  0  0
 82157  1  0  0  0
 82158  1  0  0  0
 83159  1  0  0  0
M  ISO  4   1 100  68 101  82 101  83 100
M  END
> <chiral flag>
0

> <version>
0

> <s_m_source_file>
/data/baiqing/PycharmProjects/Reinvent-master-3.2/result/LINK_invent/BTK/process_docking_weight1_custom_product_contain_oxygen_bond_distance_aromatic_linkinvent_7_9_3/rearranged_h_0122.sdf

> <i_m_source_file_index>
51

> <r_mmod_Potential_Energy-OPLS-2005>
138.366439819336

> <r_mmod_Stretch_Energy-OPLS-2005>
105.757987976074

> <r_mmod_Bend_Energy-OPLS-2005>
145.76383972168

> <r_mmod_Torsional_Energy-OPLS-2005>
242.166610717773

> <r_mmod_Improper_Torsional_Energy-OPLS-2005>
6.75179529190063

> <r_mmod_Van_der_Waal_Energy-OPLS-2005>
131.560470581055

> <r_mmod_Electrostatic_Energy-OPLS-2005>
-357.016967773438

> <r_mmod_Solvation_Energy-OPLS-2005>
-197.270202636719

> <b_mmod_Minimization_Converged-OPLS-2005>
0

> <r_mmod_RMS_Derivative-OPLS-2005>
1.69810211658478

$$$$
51
                    3D
 Structure written by MMmdl.
154162  0  0  1  0            999 V2000
  -30.6868  -14.5653   20.4998 C   0  0  0  0  0  0
  -30.4153  -12.3487   19.4518 C   0  0  0  0  0  0
  -29.4962  -12.4932   18.2212 C   0  0  0  0  0  0
  -28.0201  -12.3437   18.6344 C   0  0  0  0  0  0
  -27.6484  -13.2203   19.8608 C   0  0  2  0  0  0
  -28.6916  -13.0886   20.9943 C   0  0  0  0  0  0
  -25.2551  -13.8172   20.5686 C   0  0  0  0  0  0
  -24.1821  -13.0432   20.9174 C   0  0  0  0  0  0
  -24.6391  -11.6908   20.8744 C   0  0  0  0  0  0
  -23.9063  -10.4298   21.0412 C   0  0  0  0  0  0
  -24.3617   -9.4216   21.9198 C   0  0  0  0  0  0
  -23.6290   -8.2251   22.0778 C   0  0  0  0  0  0
  -22.4274   -8.0285   21.3561 C   0  0  0  0  0  0
  -21.9903   -9.0259   20.4671 C   0  0  0  0  0  0
  -22.7229  -10.2138   20.3075 C   0  0  0  0  0  0
  -21.6851   -6.0738   22.5282 C   0  0  0  0  0  0
  -21.4015   -6.5648   23.8215 C   0  0  0  0  0  0
  -21.3658   -5.6805   24.9178 C   0  0  0  0  0  0
  -21.6032   -4.3066   24.7230 C   0  0  0  0  0  0
  -21.8813   -3.8156   23.4354 C   0  0  0  0  0  0
  -21.9196   -4.6969   22.3410 C   0  0  0  0  0  0
  -22.7844  -13.5229   21.1817 C   0  0  0  0  0  0
  -22.1655   -4.2153   21.0988 F   0  0  0  0  0  0
  -21.5623   -3.4552   25.7747 F   0  0  0  0  0  0
  -30.0124  -13.3825   20.4231 N   0  0  0  0  0  0
  -26.2971  -12.9366   20.3324 N   0  0  0  0  0  0
  -25.9325  -11.6518   20.5771 N   0  0  0  0  0  0
  -22.0481  -12.8260   22.0394 N   0  0  0  0  0  0
  -25.4263  -15.1891   20.4122 N   0  0  0  0  0  0
  -31.8572  -14.6640   20.1252 O   0  0  0  0  0  0
  -21.6642   -6.8878   21.4242 O   0  0  0  0  0  0
  -22.3551  -14.5537   20.6655 O   0  0  0  0  0  0
  -24.6186  -31.8617   23.2055 C   0  0  0  0  0  0
  -25.9067  -32.4791   23.8368 C   0  0  1  0  0  0
  -27.2398  -27.3759   20.1014 C   0  0  0  0  0  0
  -25.5920  -33.8599   24.2297 N   0  0  0  0  0  0
  -23.4098  -30.4816   21.5459 C   0  0  2  0  0  0
  -24.8562  -28.9352   20.1171 C   0  0  0  0  0  0
  -22.7424  -29.4625   22.4978 C   0  0  0  0  0  0
  -18.0298  -28.1356   22.8468 C   0  0  0  0  0  0
  -24.1493  -36.7292   23.2633 C   0  0  0  0  0  0
  -25.9431  -30.8089   21.3675 C   0  0  0  0  0  0
  -26.0196  -29.4388   20.7122 C   0  0  0  0  0  0
  -27.2083  -28.6660   20.6993 C   0  0  0  0  0  0
  -26.0493  -26.8963   19.5095 C   0  0  0  0  0  0
  -24.8684  -27.6659   19.5165 C   0  0  0  0  0  0
  -23.6201  -29.8062   20.1642 C   0  0  0  0  0  0
  -25.4117  -36.3076   24.0318 C   0  0  1  0  0  0
  -20.5885  -28.3658   23.1304 C   0  0  2  0  0  0
  -20.6805  -26.9434   22.5327 C   0  0  0  0  0  0
  -19.5781  -26.6467   21.5115 C   0  0  0  0  0  0
  -18.1959  -26.7933   22.1532 C   0  0  0  0  0  0
  -19.1544  -28.8825   23.2897 C   0  0  0  0  0  0
  -18.9456  -30.1419   23.8912 C   0  0  0  0  0  0
  -17.6461  -30.6552   24.0554 C   0  0  0  0  0  0
  -25.9044  -34.9446   23.5101 C   0  0  0  0  0  0
  -16.5359  -29.9044   23.6307 C   0  0  0  0  0  0
  -16.7288  -28.6459   23.0326 C   0  0  0  0  0  0
  -26.4482  -31.6593   25.0721 C   0  0  0  0  0  0
  -25.3743  -31.3733   26.1463 C   0  0  0  0  0  0
  -27.0328  -30.3033   24.6154 C   0  0  0  0  0  0
  -27.6057  -32.4306   25.7493 C   0  0  0  0  0  0
  -27.5579  -37.1803   24.8465 C   0  0  0  0  0  0
  -21.4137  -29.3064   22.3740 N   0  0  0  0  0  0
  -26.4299  -37.3768   23.9395 N   0  0  0  0  0  0
  -24.6754  -31.0654   22.0983 N   0  0  0  0  0  0
  -23.4172  -28.8142   23.3013 O   0  0  0  0  0  0
  -28.4228  -26.6445   20.1319 O   0  0  0  0  0  0
  -26.5601  -34.8899   22.4659 O   0  0  0  0  0  0
  -23.5364  -32.1403   23.7404 O   0  0  0  0  0  0
  -28.0093  -19.3837   21.6722 C   0  0  0  0  0  0
  -29.8522  -19.6406   20.4656 C   0  0  0  0  0  0
  -28.7725  -20.3615   21.0921 C   0  0  0  0  0  0
  -29.6649  -18.2949   20.7487 C   0  0  0  0  0  0
  -31.0095  -20.2258   19.6954 C   0  0  0  0  0  0
  -30.5095  -17.0503   20.4649 C   0  0  0  0  0  0
  -28.3116  -24.1253   20.6187 C   0  0  0  0  0  0
  -28.5388  -25.2924   19.5995 C   0  0  0  0  0  0
  -28.8204  -22.6942   20.1979 C   0  0  0  0  0  0
  -29.9743  -15.6924   20.7684 N   0  0  0  0  0  0
  -28.5282  -18.1337   21.4763 O   0  0  0  0  0  0
  -28.5232  -21.7291   21.2324 O   0  0  0  0  0  0
  -31.4615  -12.4373   19.1543 H   0  0  0  0  0  0
  -30.3158  -11.3561   19.8932 H   0  0  0  0  0  0
  -29.7540  -11.7438   17.4711 H   0  0  0  0  0  0
  -29.6528  -13.4653   17.7520 H   0  0  0  0  0  0
  -27.8507  -11.2903   18.8655 H   0  0  0  0  0  0
  -27.3652  -12.5752   17.7938 H   0  0  0  0  0  0
  -27.6640  -14.2531   19.5135 H   0  0  0  0  0  0
  -28.6812  -12.0799   21.4098 H   0  0  0  0  0  0
  -28.4559  -13.7615   21.8210 H   0  0  0  0  0  0
  -25.2756   -9.5694   22.4780 H   0  0  0  0  0  0
  -23.9995   -7.4649   22.7507 H   0  0  0  0  0  0
  -21.0830   -8.8771   19.8984 H   0  0  0  0  0  0
  -22.3671  -10.9680   19.6199 H   0  0  0  0  0  0
  -21.2004   -7.6162   23.9711 H   0  0  0  0  0  0
  -21.1481   -6.0546   25.9079 H   0  0  0  0  0  0
  -22.0594   -2.7621   23.2854 H   0  0  0  0  0  0
  -22.4087  -11.9923   22.4797 H   0  0  0  0  0  0
  -21.1119  -13.1334   22.2602 H   0  0  0  0  0  0
  -24.6616  -15.8440   20.5359 H   0  0  0  0  0  0
  -26.2858  -15.6354   20.1181 H   0  0  0  0  0  0
  -26.7141  -32.5480   23.1125 H   0  0  0  0  0  0
  -25.0113  -33.9786   25.0472 H   0  0  0  0  0  0
  -22.7031  -31.2998   21.4006 H   0  0  0  0  0  0
  -23.3743  -35.9641   23.3305 H   0  0  0  0  0  0
  -24.3597  -36.8903   22.2049 H   0  0  0  0  0  0
  -23.7260  -37.6505   23.6654 H   0  0  0  0  0  0
  -26.0636  -31.5760   20.6007 H   0  0  0  0  0  0
  -26.8278  -30.8577   21.9922 H   0  0  0  0  0  0
  -28.1055  -29.0494   21.1655 H   0  0  0  0  0  0
  -26.0010  -25.9204   19.0525 H   0  0  0  0  0  0
  -23.9699  -27.2663   19.0667 H   0  0  0  0  0  0
  -23.7362  -30.5764   19.3995 H   0  0  0  0  0  0
  -22.7422  -29.2284   19.8662 H   0  0  0  0  0  0
  -25.1298  -36.1925   25.0813 H   0  0  0  0  0  0
  -20.9975  -28.3146   24.1419 H   0  0  0  0  0  0
  -20.5726  -26.2243   23.3459 H   0  0  0  0  0  0
  -21.6671  -26.7510   22.1089 H   0  0  0  0  0  0
  -19.6991  -25.6441   21.1000 H   0  0  0  0  0  0
  -19.6695  -27.3365   20.6717 H   0  0  0  0  0  0
  -17.4266  -26.6676   21.3898 H   0  0  0  0  0  0
  -18.0373  -26.0024   22.8871 H   0  0  0  0  0  0
  -19.7915  -30.7224   24.2332 H   0  0  0  0  0  0
  -17.5010  -31.6216   24.5190 H   0  0  0  0  0  0
  -15.5353  -30.2960   23.7610 H   0  0  0  0  0  0
  -15.8708  -28.0764   22.7047 H   0  0  0  0  0  0
  -24.5914  -30.7073   25.7812 H   0  0  0  0  0  0
  -24.8939  -32.2907   26.4881 H   0  0  0  0  0  0
  -25.8087  -30.8932   27.0240 H   0  0  0  0  0  0
  -26.2908  -29.6790   24.1171 H   0  0  0  0  0  0
  -27.4037  -29.7274   25.4639 H   0  0  0  0  0  0
  -27.8757  -30.4337   23.9364 H   0  0  0  0  0  0
  -27.2690  -33.3598   26.2098 H   0  0  0  0  0  0
  -28.3873  -32.6872   25.0330 H   0  0  0  0  0  0
  -28.0725  -31.8411   26.5392 H   0  0  0  0  0  0
  -28.2592  -38.0101   24.7490 H   0  0  0  0  0  0
  -28.1070  -36.2626   24.6307 H   0  0  0  0  0  0
  -27.2299  -37.1472   25.8871 H   0  0  0  0  0  0
  -20.9298  -29.8846   21.7022 H   0  0  0  0  0  0
  -26.0161  -38.2840   24.1397 H   0  0  0  0  0  0
  -27.1092  -19.4103   22.2718 H   0  0  0  0  0  0
  -30.6585  -20.6869   18.7717 H   0  0  0  0  0  0
  -31.7393  -19.4598   19.4344 H   0  0  0  0  0  0
  -31.5206  -20.9831   20.2905 H   0  0  0  0  0  0
  -31.4548  -17.1612   21.0000 H   0  0  0  0  0  0
  -30.7776  -17.0617   19.4065 H   0  0  0  0  0  0
  -27.2495  -24.0726   20.8564 H   0  0  0  0  0  0
  -28.8101  -24.3910   21.5516 H   0  0  0  0  0  0
  -27.9486  -25.1470   18.6954 H   0  0  0  0  0  0
  -29.5702  -25.2148   19.2536 H   0  0  0  0  0  0
  -29.8964  -22.7368   20.0280 H   0  0  0  0  0  0
  -28.3558  -22.3847   19.2622 H   0  0  0  0  0  0
  -29.0081  -15.6113   21.0465 H   0  0  0  0  0  0
  1 25  1  0  0  0
  1 30  2  0  0  0
  1 80  1  0  0  0
  2  3  1  0  0  0
  2 25  1  0  0  0
  2 83  1  0  0  0
  2 84  1  0  0  0
  3  4  1  0  0  0
  3 85  1  0  0  0
  3 86  1  0  0  0
  4  5  1  0  0  0
  4 87  1  0  0  0
  4 88  1  0  0  0
  5  6  1  0  0  0
  5 26  1  0  0  0
  5 89  1  0  0  0
  6 25  1  0  0  0
  6 90  1  0  0  0
  6 91  1  0  0  0
  7  8  2  0  0  0
  7 26  1  0  0  0
  7 29  1  0  0  0
  8  9  1  0  0  0
  8 22  1  0  0  0
  9 10  1  0  0  0
  9 27  2  0  0  0
 10 11  2  0  0  0
 10 15  1  0  0  0
 11 12  1  0  0  0
 11 92  1  0  0  0
 12 13  2  0  0  0
 12 93  1  0  0  0
 13 14  1  0  0  0
 13 31  1  0  0  0
 14 15  2  0  0  0
 14 94  1  0  0  0
 15 95  1  0  0  0
 16 17  2  0  0  0
 16 21  1  0  0  0
 16 31  1  0  0  0
 17 18  1  0  0  0
 17 96  1  0  0  0
 18 19  2  0  0  0
 18 97  1  0  0  0
 19 20  1  0  0  0
 19 24  1  0  0  0
 20 21  2  0  0  0
 20 98  1  0  0  0
 21 23  1  0  0  0
 22 28  1  0  0  0
 22 32  2  0  0  0
 26 27  1  0  0  0
 28 99  1  0  0  0
 28100  1  0  0  0
 29101  1  0  0  0
 29102  1  0  0  0
 33 34  1  0  0  0
 33 66  1  0  0  0
 33 70  2  0  0  0
 34 36  1  0  0  0
 34 59  1  0  0  0
 34103  1  0  0  0
 35 44  2  0  0  0
 35 45  1  0  0  0
 35 68  1  0  0  0
 36 56  1  0  0  0
 36104  1  0  0  0
 37 39  1  0  0  0
 37 47  1  0  0  0
 37 66  1  0  0  0
 37105  1  0  0  0
 38 43  2  0  0  0
 38 46  1  0  0  0
 38 47  1  0  0  0
 39 64  1  0  0  0
 39 67  2  0  0  0
 40 52  1  0  0  0
 40 53  2  0  0  0
 40 58  1  0  0  0
 41106  1  0  0  0
 41107  1  0  0  0
 41108  1  0  0  0
 41 48  1  0  0  0
 42 43  1  0  0  0
 42 66  1  0  0  0
 42109  1  0  0  0
 42110  1  0  0  0
 43 44  1  0  0  0
 44111  1  0  0  0
 45 46  2  0  0  0
 45112  1  0  0  0
 46113  1  0  0  0
 47114  1  0  0  0
 47115  1  0  0  0
 48 56  1  0  0  0
 48 65  1  0  0  0
 48116  1  0  0  0
 49 50  1  0  0  0
 49 53  1  0  0  0
 49 64  1  0  0  0
 49117  1  0  0  0
 50 51  1  0  0  0
 50118  1  0  0  0
 50119  1  0  0  0
 51 52  1  0  0  0
 51120  1  0  0  0
 51121  1  0  0  0
 52122  1  0  0  0
 52123  1  0  0  0
 53 54  1  0  0  0
 54 55  2  0  0  0
 54124  1  0  0  0
 55 57  1  0  0  0
 55125  1  0  0  0
 56 69  2  0  0  0
 57 58  2  0  0  0
 57126  1  0  0  0
 58127  1  0  0  0
 59 60  1  0  0  0
 59 61  1  0  0  0
 59 62  1  0  0  0
 60128  1  0  0  0
 60129  1  0  0  0
 60130  1  0  0  0
 61131  1  0  0  0
 61132  1  0  0  0
 61133  1  0  0  0
 62134  1  0  0  0
 62135  1  0  0  0
 62136  1  0  0  0
 63 65  1  0  0  0
 63137  1  0  0  0
 63138  1  0  0  0
 63139  1  0  0  0
 64140  1  0  0  0
 65141  1  0  0  0
 68 78  1  0  0  0
 71 73  2  0  0  0
 71 81  1  0  0  0
 71142  1  0  0  0
 72 73  1  0  0  0
 72 74  2  0  0  0
 72 75  1  0  0  0
 73 82  1  0  0  0
 74 76  1  0  0  0
 74 81  1  0  0  0
 75143  1  0  0  0
 75144  1  0  0  0
 75145  1  0  0  0
 76 80  1  0  0  0
 76146  1  0  0  0
 76147  1  0  0  0
 77 78  1  0  0  0
 77 79  1  0  0  0
 77148  1  0  0  0
 77149  1  0  0  0
 78150  1  0  0  0
 78151  1  0  0  0
 79 82  1  0  0  0
 79152  1  0  0  0
 79153  1  0  0  0
 80154  1  0  0  0
M  ISO  4   1 100  68 101  78 101  80 100
M  END
> <chiral flag>
0

> <version>
0

> <s_m_source_file>
/data/baiqing/PycharmProjects/Reinvent-master-3.2/result/LINK_invent/BTK/process_docking_weight1_custom_product_contain_oxygen_bond_distance_aromatic_linkinvent_7_9_3/rearranged_h_0122.sdf

> <i_m_source_file_index>
52

> <r_mmod_Potential_Energy-OPLS-2005>
-112.154098510742

> <r_mmod_Stretch_Energy-OPLS-2005>
50.8093185424805

> <r_mmod_Bend_Energy-OPLS-2005>
135.278228759766

> <r_mmod_Torsional_Energy-OPLS-2005>
199.336822509766

> <r_mmod_Improper_Torsional_Energy-OPLS-2005>
6.06181573867798

> <r_mmod_Van_der_Waal_Energy-OPLS-2005>
121.561424255371

> <r_mmod_Electrostatic_Energy-OPLS-2005>
-442.5146484375

> <r_mmod_Solvation_Energy-OPLS-2005>
-211.302719116211

> <b_mmod_Minimization_Converged-OPLS-2005>
0

> <r_mmod_RMS_Derivative-OPLS-2005>
2.54519748687744

$$$$
52
                    3D
 Structure written by MMmdl.
158166  0  0  1  0            999 V2000
  -30.7460  -14.3852   20.5647 C   0  0  0  0  0  0
  -30.4063  -12.2477   19.4231 C   0  0  0  0  0  0
  -29.4896  -12.4887   18.2066 C   0  0  0  0  0  0
  -28.0087  -12.3678   18.6144 C   0  0  0  0  0  0
  -27.6616  -13.2034   19.8760 C   0  0  2  0  0  0
  -28.7005  -12.9782   20.9982 C   0  0  0  0  0  0
  -25.2595  -13.8158   20.5690 C   0  0  0  0  0  0
  -24.1835  -13.0434   20.9156 C   0  0  0  0  0  0
  -24.6383  -11.6899   20.8722 C   0  0  0  0  0  0
  -23.9050  -10.4286   21.0397 C   0  0  0  0  0  0
  -24.3607   -9.4205   21.9176 C   0  0  0  0  0  0
  -23.6287   -8.2236   22.0751 C   0  0  0  0  0  0
  -22.4265   -8.0276   21.3543 C   0  0  0  0  0  0
  -21.9896   -9.0245   20.4643 C   0  0  0  0  0  0
  -22.7224  -10.2123   20.3050 C   0  0  0  0  0  0
  -21.6845   -6.0738   22.5283 C   0  0  0  0  0  0
  -21.4012   -6.5646   23.8217 C   0  0  0  0  0  0
  -21.3655   -5.6797   24.9176 C   0  0  0  0  0  0
  -21.6042   -4.3060   24.7222 C   0  0  0  0  0  0
  -21.8823   -3.8151   23.4344 C   0  0  0  0  0  0
  -21.9188   -4.6967   22.3401 C   0  0  0  0  0  0
  -22.7861  -13.5237   21.1838 C   0  0  0  0  0  0
  -22.1657   -4.2155   21.0978 F   0  0  0  0  0  0
  -21.5623   -3.4544   25.7735 F   0  0  0  0  0  0
  -30.0412  -13.2323   20.4492 N   0  0  0  0  0  0
  -26.3027  -12.9324   20.3382 N   0  0  0  0  0  0
  -25.9312  -11.6482   20.5768 N   0  0  0  0  0  0
  -22.0511  -12.8226   22.0400 N   0  0  0  0  0  0
  -25.4332  -15.1877   20.4159 N   0  0  0  0  0  0
  -31.8866  -14.5246   20.1176 O   0  0  0  0  0  0
  -21.6629   -6.8877   21.4243 O   0  0  0  0  0  0
  -22.3541  -14.5548   20.6703 O   0  0  0  0  0  0
  -24.6071  -31.8725   23.2151 C   0  0  0  0  0  0
  -25.8994  -32.4845   23.8427 C   0  0  1  0  0  0
  -27.2429  -27.4964   20.0960 C   0  0  0  0  0  0
  -25.5883  -33.8644   24.2363 N   0  0  0  0  0  0
  -23.3928  -30.4950   21.5523 C   0  0  2  0  0  0
  -24.8433  -28.9652   20.1181 C   0  0  0  0  0  0
  -22.7371  -29.4672   22.5012 C   0  0  0  0  0  0
  -18.0260  -28.1373   22.8497 C   0  0  0  0  0  0
  -24.1483  -36.7329   23.2636 C   0  0  0  0  0  0
  -25.9129  -30.8569   21.3595 C   0  0  0  0  0  0
  -25.9942  -29.4917   20.7181 C   0  0  0  0  0  0
  -27.1965  -28.7611   20.7156 C   0  0  0  0  0  0
  -26.0864  -26.9729   19.4855 C   0  0  0  0  0  0
  -24.8798  -27.6998   19.5031 C   0  0  0  0  0  0
  -23.6005  -29.8237   20.1669 C   0  0  0  0  0  0
  -25.4099  -36.3128   24.0346 C   0  0  1  0  0  0
  -20.5845  -28.3647   23.1341 C   0  0  2  0  0  0
  -20.6750  -26.9393   22.5423 C   0  0  0  0  0  0
  -19.5732  -26.6387   21.5213 C   0  0  0  0  0  0
  -18.1910  -26.7923   22.1620 C   0  0  0  0  0  0
  -19.1507  -28.8825   23.2918 C   0  0  0  0  0  0
  -18.9441  -30.1434   23.8922 C   0  0  0  0  0  0
  -17.6446  -30.6582   24.0566 C   0  0  0  0  0  0
  -25.9023  -34.9490   23.5148 C   0  0  0  0  0  0
  -16.5335  -29.9088   23.6323 C   0  0  0  0  0  0
  -16.7251  -28.6505   23.0344 C   0  0  0  0  0  0
  -26.4459  -31.6600   25.0720 C   0  0  0  0  0  0
  -25.3763  -31.3691   26.1501 C   0  0  0  0  0  0
  -27.0267  -30.3047   24.6042 C   0  0  0  0  0  0
  -27.6058  -32.4299   25.7469 C   0  0  0  0  0  0
  -27.5585  -37.1811   24.8461 C   0  0  0  0  0  0
  -21.4106  -29.3025   22.3758 N   0  0  0  0  0  0
  -26.4289  -37.3807   23.9418 N   0  0  0  0  0  0
  -24.6551  -31.0881   22.1018 N   0  0  0  0  0  0
  -23.4173  -28.8217   23.3029 O   0  0  0  0  0  0
  -28.3997  -26.7705   20.0450 O   0  0  0  0  0  0
  -26.5576  -34.8932   22.4704 O   0  0  0  0  0  0
  -23.5281  -32.1444   23.7587 O   0  0  0  0  0  0
  -29.1461  -19.8772   21.2587 C   0  0  0  0  0  0
  -29.4074  -18.4974   21.2603 C   0  0  0  0  0  0
  -27.8916  -19.6354   19.1871 C   0  0  0  0  0  0
  -28.4283  -20.4605   20.1944 C   0  0  0  0  0  0
  -28.9948  -17.6969   20.1749 C   0  0  0  0  0  0
  -28.1713  -18.2546   19.1668 C   0  0  0  0  0  0
  -28.3814  -21.9113   20.0099 C   0  0  0  0  0  0
  -29.5394  -16.3461   20.0324 C   0  0  0  0  0  0
  -30.0025  -15.5422   21.0070 C   0  0  0  0  0  0
  -29.3520  -22.7483   20.4147 C   0  0  0  0  0  0
  -29.3554  -25.0666   21.4476 C   0  0  0  0  0  0
  -27.6515  -17.4151   18.0098 C   0  0  0  0  0  0
  -29.3353  -24.2372   20.1600 C   0  0  0  0  0  0
  -29.0227  -26.5525   21.3087 C   0  0  0  0  0  0
  -29.6393  -24.5719   22.5440 O   0  0  0  0  0  0
  -31.4548  -12.3101   19.1260 H   0  0  0  0  0  0
  -30.2701  -11.2375   19.8119 H   0  0  0  0  0  0
  -29.7177  -11.7714   17.4172 H   0  0  0  0  0  0
  -29.6784  -13.4778   17.7873 H   0  0  0  0  0  0
  -27.8041  -11.3129   18.8009 H   0  0  0  0  0  0
  -27.3635  -12.6580   17.7843 H   0  0  0  0  0  0
  -27.7064  -14.2510   19.5825 H   0  0  0  0  0  0
  -28.6512  -11.9512   21.3627 H   0  0  0  0  0  0
  -28.4816  -13.6073   21.8622 H   0  0  0  0  0  0
  -25.2758   -9.5685   22.4744 H   0  0  0  0  0  0
  -23.9992   -7.4624   22.7470 H   0  0  0  0  0  0
  -21.0824   -8.8762   19.8951 H   0  0  0  0  0  0
  -22.3682  -10.9652   19.6150 H   0  0  0  0  0  0
  -21.2016   -7.6157   23.9726 H   0  0  0  0  0  0
  -21.1469   -6.0525   25.9079 H   0  0  0  0  0  0
  -22.0609   -2.7614   23.2835 H   0  0  0  0  0  0
  -22.4124  -11.9867   22.4758 H   0  0  0  0  0  0
  -21.1136  -13.1251   22.2643 H   0  0  0  0  0  0
  -24.6745  -15.8473   20.5502 H   0  0  0  0  0  0
  -26.3126  -15.6341   20.1868 H   0  0  0  0  0  0
  -26.7071  -32.5597   23.1208 H   0  0  0  0  0  0
  -25.0057  -33.9819   25.0522 H   0  0  0  0  0  0
  -22.6783  -31.3091   21.4138 H   0  0  0  0  0  0
  -23.3744  -35.9664   23.3298 H   0  0  0  0  0  0
  -24.3585  -36.8938   22.2052 H   0  0  0  0  0  0
  -23.7230  -37.6537   23.6639 H   0  0  0  0  0  0
  -26.0114  -31.6200   20.5860 H   0  0  0  0  0  0
  -26.8063  -30.9194   21.9687 H   0  0  0  0  0  0
  -28.0861  -29.1756   21.1698 H   0  0  0  0  0  0
  -26.1219  -26.0057   19.0037 H   0  0  0  0  0  0
  -23.9958  -27.2889   19.0348 H   0  0  0  0  0  0
  -23.7024  -30.5966   19.4039 H   0  0  0  0  0  0
  -22.7281  -29.2361   19.8751 H   0  0  0  0  0  0
  -25.1267  -36.2002   25.0838 H   0  0  0  0  0  0
  -20.9938  -28.3202   24.1460 H   0  0  0  0  0  0
  -20.5647  -26.2253   23.3599 H   0  0  0  0  0  0
  -21.6621  -26.7441   22.1216 H   0  0  0  0  0  0
  -19.6896  -25.6306   21.1223 H   0  0  0  0  0  0
  -19.6681  -27.3214   20.6758 H   0  0  0  0  0  0
  -17.4185  -26.6678   21.4016 H   0  0  0  0  0  0
  -18.0308  -26.0055   22.9005 H   0  0  0  0  0  0
  -19.7920  -30.7238   24.2305 H   0  0  0  0  0  0
  -17.5006  -31.6266   24.5164 H   0  0  0  0  0  0
  -15.5339  -30.3001   23.7635 H   0  0  0  0  0  0
  -15.8648  -28.0838   22.7038 H   0  0  0  0  0  0
  -24.5916  -30.7051   25.7856 H   0  0  0  0  0  0
  -24.8980  -32.2844   26.4996 H   0  0  0  0  0  0
  -25.8150  -30.8834   27.0226 H   0  0  0  0  0  0
  -26.2774  -29.6821   24.1134 H   0  0  0  0  0  0
  -27.4095  -29.7264   25.4461 H   0  0  0  0  0  0
  -27.8590  -30.4375   23.9125 H   0  0  0  0  0  0
  -27.2699  -33.3594   26.2079 H   0  0  0  0  0  0
  -28.3853  -32.6863   25.0280 H   0  0  0  0  0  0
  -28.0742  -31.8399   26.5355 H   0  0  0  0  0  0
  -28.2597  -38.0114   24.7522 H   0  0  0  0  0  0
  -28.1081  -36.2647   24.6254 H   0  0  0  0  0  0
  -27.2311  -37.1428   25.8866 H   0  0  0  0  0  0
  -20.9251  -29.8763   21.7005 H   0  0  0  0  0  0
  -26.0184  -38.2887   24.1431 H   0  0  0  0  0  0
  -29.5561  -20.4900   22.0486 H   0  0  0  0  0  0
  -30.0281  -18.0886   22.0446 H   0  0  0  0  0  0
  -27.3393  -20.0803   18.3706 H   0  0  0  0  0  0
  -27.5134  -22.3068   19.4998 H   0  0  0  0  0  0
  -29.6594  -16.0152   19.0085 H   0  0  0  0  0  0
  -29.8976  -15.7672   22.0572 H   0  0  0  0  0  0
  -30.2230  -22.3726   20.9338 H   0  0  0  0  0  0
  -26.8581  -17.9313   17.4687 H   0  0  0  0  0  0
  -27.2421  -16.4696   18.3654 H   0  0  0  0  0  0
  -28.4536  -17.1991   17.3038 H   0  0  0  0  0  0
  -28.4466  -24.4797   19.5777 H   0  0  0  0  0  0
  -30.2010  -24.5096   19.5563 H   0  0  0  0  0  0
  -29.9399  -27.1380   21.3715 H   0  0  0  0  0  0
  -28.3812  -26.8453   22.1411 H   0  0  0  0  0  0
  1 25  1  0  0  0
  1 30  2  0  0  0
  1 79  1  0  0  0
  2  3  1  0  0  0
  2 25  1  0  0  0
  2 86  1  0  0  0
  2 87  1  0  0  0
  3  4  1  0  0  0
  3 88  1  0  0  0
  3 89  1  0  0  0
  4  5  1  0  0  0
  4 90  1  0  0  0
  4 91  1  0  0  0
  5  6  1  0  0  0
  5 26  1  0  0  0
  5 92  1  0  0  0
  6 25  1  0  0  0
  6 93  1  0  0  0
  6 94  1  0  0  0
  7  8  2  0  0  0
  7 26  1  0  0  0
  7 29  1  0  0  0
  8  9  1  0  0  0
  8 22  1  0  0  0
  9 10  1  0  0  0
  9 27  2  0  0  0
 10 11  2  0  0  0
 10 15  1  0  0  0
 11 12  1  0  0  0
 11 95  1  0  0  0
 12 13  2  0  0  0
 12 96  1  0  0  0
 13 14  1  0  0  0
 13 31  1  0  0  0
 14 15  2  0  0  0
 14 97  1  0  0  0
 15 98  1  0  0  0
 16 17  2  0  0  0
 16 21  1  0  0  0
 16 31  1  0  0  0
 17 18  1  0  0  0
 17 99  1  0  0  0
 18 19  2  0  0  0
 18100  1  0  0  0
 19 20  1  0  0  0
 19 24  1  0  0  0
 20 21  2  0  0  0
 20101  1  0  0  0
 21 23  1  0  0  0
 22 28  1  0  0  0
 22 32  2  0  0  0
 26 27  1  0  0  0
 28102  1  0  0  0
 28103  1  0  0  0
 29104  1  0  0  0
 29105  1  0  0  0
 33 34  1  0  0  0
 33 66  1  0  0  0
 33 70  2  0  0  0
 34 36  1  0  0  0
 34 59  1  0  0  0
 34106  1  0  0  0
 35 44  2  0  0  0
 35 45  1  0  0  0
 35 68  1  0  0  0
 36 56  1  0  0  0
 36107  1  0  0  0
 37 39  1  0  0  0
 37 47  1  0  0  0
 37 66  1  0  0  0
 37108  1  0  0  0
 38 43  2  0  0  0
 38 46  1  0  0  0
 38 47  1  0  0  0
 39 64  1  0  0  0
 39 67  2  0  0  0
 40 52  1  0  0  0
 40 53  2  0  0  0
 40 58  1  0  0  0
 41109  1  0  0  0
 41110  1  0  0  0
 41111  1  0  0  0
 41 48  1  0  0  0
 42 43  1  0  0  0
 42 66  1  0  0  0
 42112  1  0  0  0
 42113  1  0  0  0
 43 44  1  0  0  0
 44114  1  0  0  0
 45 46  2  0  0  0
 45115  1  0  0  0
 46116  1  0  0  0
 47117  1  0  0  0
 47118  1  0  0  0
 48 56  1  0  0  0
 48 65  1  0  0  0
 48119  1  0  0  0
 49 50  1  0  0  0
 49 53  1  0  0  0
 49 64  1  0  0  0
 49120  1  0  0  0
 50 51  1  0  0  0
 50121  1  0  0  0
 50122  1  0  0  0
 51 52  1  0  0  0
 51123  1  0  0  0
 51124  1  0  0  0
 52125  1  0  0  0
 52126  1  0  0  0
 53 54  1  0  0  0
 54 55  2  0  0  0
 54127  1  0  0  0
 55 57  1  0  0  0
 55128  1  0  0  0
 56 69  2  0  0  0
 57 58  2  0  0  0
 57129  1  0  0  0
 58130  1  0  0  0
 59 60  1  0  0  0
 59 61  1  0  0  0
 59 62  1  0  0  0
 60131  1  0  0  0
 60132  1  0  0  0
 60133  1  0  0  0
 61134  1  0  0  0
 61135  1  0  0  0
 61136  1  0  0  0
 62137  1  0  0  0
 62138  1  0  0  0
 62139  1  0  0  0
 63 65  1  0  0  0
 63140  1  0  0  0
 63141  1  0  0  0
 63142  1  0  0  0
 64143  1  0  0  0
 65144  1  0  0  0
 68 84  1  0  0  0
 71 72  2  0  0  0
 71 74  1  0  0  0
 71145  1  0  0  0
 72 75  1  0  0  0
 72146  1  0  0  0
 73 74  2  0  0  0
 73 76  1  0  0  0
 73147  1  0  0  0
 74 77  1  0  0  0
 75 76  2  0  0  0
 75 78  1  0  0  0
 76 82  1  0  0  0
 77 80  2  0  0  0
 77148  1  0  0  0
 78 79  2  0  0  0
 78149  1  0  0  0
 79150  1  0  0  0
 80 83  1  0  0  0
 80151  1  0  0  0
 81 83  1  0  0  0
 81 84  1  0  0  0
 81 85  2  0  0  0
 82152  1  0  0  0
 82153  1  0  0  0
 82154  1  0  0  0
 83155  1  0  0  0
 83156  1  0  0  0
 84157  1  0  0  0
 84158  1  0  0  0
M  ISO  4   1 100  68 101  79 100  84 101
M  END
> <chiral flag>
0

> <version>
0

> <s_m_source_file>
/data/baiqing/PycharmProjects/Reinvent-master-3.2/result/LINK_invent/BTK/process_docking_weight1_custom_product_contain_oxygen_bond_distance_aromatic_linkinvent_7_9_3/rearranged_h_0122.sdf

> <i_m_source_file_index>
53

> <r_mmod_Potential_Energy-OPLS-2005>
10.7728633880615

> <r_mmod_Stretch_Energy-OPLS-2005>
29.4221630096436

> <r_mmod_Bend_Energy-OPLS-2005>
88.3319931030273

> <r_mmod_Torsional_Energy-OPLS-2005>
244.507278442383

> <r_mmod_Improper_Torsional_Energy-OPLS-2005>
9.02202129364014

> <r_mmod_Van_der_Waal_Energy-OPLS-2005>
157.093124389648

> <r_mmod_Electrostatic_Energy-OPLS-2005>
-328.108978271484

> <r_mmod_Solvation_Energy-OPLS-2005>
-200.131332397461

> <b_mmod_Minimization_Converged-OPLS-2005>
0

> <r_mmod_RMS_Derivative-OPLS-2005>
0.824373781681061

$$$$
53
                    3D
 Structure written by MMmdl.
157165  0  0  1  0            999 V2000
  -30.6719  -14.4828   20.6225 C   0  0  0  0  0  0
  -30.4267  -12.3270   19.4211 C   0  0  0  0  0  0
  -29.4966  -12.5408   18.2086 C   0  0  0  0  0  0
  -28.0185  -12.3942   18.6162 C   0  0  0  0  0  0
  -27.6678  -13.2090   19.8884 C   0  0  2  0  0  0
  -28.7046  -12.9531   21.0039 C   0  0  0  0  0  0
  -25.2610  -13.8156   20.5668 C   0  0  0  0  0  0
  -24.1854  -13.0443   20.9165 C   0  0  0  0  0  0
  -24.6403  -11.6907   20.8739 C   0  0  0  0  0  0
  -23.9063  -10.4291   21.0403 C   0  0  0  0  0  0
  -24.3610   -9.4204   21.9178 C   0  0  0  0  0  0
  -23.6286   -8.2236   22.0745 C   0  0  0  0  0  0
  -22.4262   -8.0275   21.3537 C   0  0  0  0  0  0
  -21.9898   -9.0254   20.4636 C   0  0  0  0  0  0
  -22.7235  -10.2132   20.3052 C   0  0  0  0  0  0
  -21.6853   -6.0729   22.5268 C   0  0  0  0  0  0
  -21.4029   -6.5639   23.8203 C   0  0  0  0  0  0
  -21.3660   -5.6789   24.9167 C   0  0  0  0  0  0
  -21.6045   -4.3050   24.7219 C   0  0  0  0  0  0
  -21.8821   -3.8140   23.4345 C   0  0  0  0  0  0
  -21.9198   -4.6956   22.3401 C   0  0  0  0  0  0
  -22.7884  -13.5238   21.1855 C   0  0  0  0  0  0
  -22.1662   -4.2140   21.0978 F   0  0  0  0  0  0
  -21.5628   -3.4532   25.7734 F   0  0  0  0  0  0
  -30.0406  -13.2826   20.4742 N   0  0  0  0  0  0
  -26.3061  -12.9330   20.3415 N   0  0  0  0  0  0
  -25.9331  -11.6487   20.5764 N   0  0  0  0  0  0
  -22.0530  -12.8216   22.0411 N   0  0  0  0  0  0
  -25.4375  -15.1871   20.4059 N   0  0  0  0  0  0
  -31.7398  -14.7502   20.0612 O   0  0  0  0  0  0
  -21.6641   -6.8864   21.4225 O   0  0  0  0  0  0
  -22.3559  -14.5548   20.6710 O   0  0  0  0  0  0
  -24.6172  -31.8647   23.2096 C   0  0  0  0  0  0
  -25.9047  -32.4812   23.8391 C   0  0  1  0  0  0
  -27.2319  -27.3955   20.1198 C   0  0  0  0  0  0
  -25.5888  -33.8611   24.2336 N   0  0  0  0  0  0
  -23.4086  -30.4865   21.5521 C   0  0  2  0  0  0
  -24.8545  -28.9429   20.1219 C   0  0  0  0  0  0
  -22.7420  -29.4654   22.5015 C   0  0  0  0  0  0
  -18.0265  -28.1407   22.8483 C   0  0  0  0  0  0
  -24.1472  -36.7304   23.2638 C   0  0  0  0  0  0
  -25.9402  -30.8195   21.3660 C   0  0  0  0  0  0
  -26.0178  -29.4496   20.7154 C   0  0  0  0  0  0
  -27.2124  -28.6879   20.7003 C   0  0  0  0  0  0
  -26.0550  -26.9090   19.5150 C   0  0  0  0  0  0
  -24.8699  -27.6735   19.5157 C   0  0  0  0  0  0
  -23.6168  -29.8145   20.1694 C   0  0  0  0  0  0
  -25.4100  -36.3113   24.0340 C   0  0  1  0  0  0
  -20.5853  -28.3702   23.1334 C   0  0  2  0  0  0
  -20.6767  -26.9445   22.5423 C   0  0  0  0  0  0
  -19.5751  -26.6416   21.5217 C   0  0  0  0  0  0
  -18.1932  -26.7950   22.1627 C   0  0  0  0  0  0
  -19.1512  -28.8872   23.2890 C   0  0  0  0  0  0
  -18.9440  -30.1477   23.8899 C   0  0  0  0  0  0
  -17.6442  -30.6610   24.0572 C   0  0  0  0  0  0
  -25.9035  -34.9474   23.5144 C   0  0  0  0  0  0
  -16.5334  -29.9112   23.6332 C   0  0  0  0  0  0
  -16.7252  -28.6530   23.0349 C   0  0  0  0  0  0
  -26.4456  -31.6587   25.0722 C   0  0  0  0  0  0
  -25.3718  -31.3679   26.1473 C   0  0  0  0  0  0
  -27.0284  -30.3020   24.6129 C   0  0  0  0  0  0
  -27.6028  -32.4312   25.7470 C   0  0  0  0  0  0
  -27.5580  -37.1808   24.8471 C   0  0  0  0  0  0
  -21.4147  -29.3042   22.3720 N   0  0  0  0  0  0
  -26.4294  -37.3794   23.9420 N   0  0  0  0  0  0
  -24.6743  -31.0735   22.0998 N   0  0  0  0  0  0
  -23.4154  -28.8214   23.3103 O   0  0  0  0  0  0
  -28.3825  -26.6275   20.1121 O   0  0  0  0  0  0
  -26.5605  -34.8925   22.4710 O   0  0  0  0  0  0
  -23.5355  -32.1417   23.7478 O   0  0  0  0  0  0
  -29.0416  -18.8420   22.3494 C   0  0  0  0  0  0
  -29.5440  -17.5235   22.4435 C   0  0  0  0  0  0
  -28.7905  -19.4487   21.0974 C   0  0  0  0  0  0
  -29.1148  -18.7059   19.9300 C   0  0  0  0  0  0
  -29.8048  -16.7559   21.2876 C   0  0  0  0  0  0
  -29.6111  -17.3734   20.0223 C   0  0  0  0  0  0
  -27.8590  -20.6181   21.0528 C   0  0  0  0  0  0
  -28.0025  -21.9649   20.9426 C   0  0  0  0  0  0
  -28.8342  -19.3009   18.5602 C   0  0  0  0  0  0
  -29.2478  -22.8414   20.8093 C   0  0  0  0  0  0
  -29.0349  -24.1904   20.0317 C   0  0  0  0  0  0
  -28.3096  -25.3461   20.7887 C   0  0  0  0  0  0
  -30.0673  -15.3521   21.4596 N   0  0  0  0  0  0
  -29.7905  -16.6570   18.8852 F   0  0  0  0  0  0
  -31.4692  -12.4426   19.1215 H   0  0  0  0  0  0
  -30.3371  -11.3040   19.7884 H   0  0  0  0  0  0
  -29.7351  -11.8332   17.4140 H   0  0  0  0  0  0
  -29.6640  -13.5336   17.7872 H   0  0  0  0  0  0
  -27.8264  -11.3364   18.7939 H   0  0  0  0  0  0
  -27.3675  -12.6881   17.7917 H   0  0  0  0  0  0
  -27.7229  -14.2644   19.6198 H   0  0  0  0  0  0
  -28.6839  -11.9034   21.3035 H   0  0  0  0  0  0
  -28.4424  -13.5102   21.9032 H   0  0  0  0  0  0
  -25.2750   -9.5689   22.4755 H   0  0  0  0  0  0
  -24.0000   -7.4630   22.7469 H   0  0  0  0  0  0
  -21.0824   -8.8780   19.8939 H   0  0  0  0  0  0
  -22.3689  -10.9678   19.6165 H   0  0  0  0  0  0
  -21.2021   -7.6144   23.9705 H   0  0  0  0  0  0
  -21.1486   -6.0520   25.9071 H   0  0  0  0  0  0
  -22.0598   -2.7600   23.2848 H   0  0  0  0  0  0
  -22.4137  -11.9856   22.4766 H   0  0  0  0  0  0
  -21.1157  -13.1258   22.2647 H   0  0  0  0  0  0
  -24.6768  -15.8518   20.4956 H   0  0  0  0  0  0
  -26.2997  -15.6126   20.0894 H   0  0  0  0  0  0
  -26.7115  -32.5510   23.1151 H   0  0  0  0  0  0
  -25.0031  -33.9754   25.0476 H   0  0  0  0  0  0
  -22.6968  -31.3028   21.4108 H   0  0  0  0  0  0
  -23.3733  -35.9636   23.3317 H   0  0  0  0  0  0
  -24.3567  -36.8895   22.2051 H   0  0  0  0  0  0
  -23.7220  -37.6512   23.6640 H   0  0  0  0  0  0
  -26.0617  -31.5843   20.5974 H   0  0  0  0  0  0
  -26.8240  -30.8719   21.9886 H   0  0  0  0  0  0
  -28.1160  -29.0754   21.1482 H   0  0  0  0  0  0
  -26.0518  -25.9356   19.0436 H   0  0  0  0  0  0
  -23.9758  -27.2765   19.0546 H   0  0  0  0  0  0
  -23.7253  -30.5879   19.4079 H   0  0  0  0  0  0
  -22.7371  -29.2374   19.8801 H   0  0  0  0  0  0
  -25.1271  -36.1977   25.0829 H   0  0  0  0  0  0
  -20.9928  -28.3292   24.1463 H   0  0  0  0  0  0
  -20.5726  -26.2310   23.3608 H   0  0  0  0  0  0
  -21.6639  -26.7522   22.1195 H   0  0  0  0  0  0
  -19.6932  -25.6329   21.1265 H   0  0  0  0  0  0
  -19.6707  -27.3215   20.6744 H   0  0  0  0  0  0
  -17.4199  -26.6677   21.4043 H   0  0  0  0  0  0
  -18.0339  -26.0104   22.9037 H   0  0  0  0  0  0
  -19.7909  -30.7295   24.2281 H   0  0  0  0  0  0
  -17.4995  -31.6292   24.5178 H   0  0  0  0  0  0
  -15.5341  -30.3020   23.7673 H   0  0  0  0  0  0
  -15.8640  -28.0862   22.7075 H   0  0  0  0  0  0
  -24.5870  -30.7055   25.7799 H   0  0  0  0  0  0
  -24.8918  -32.2820   26.4984 H   0  0  0  0  0  0
  -25.8054  -30.8786   27.0207 H   0  0  0  0  0  0
  -26.2842  -29.6803   24.1145 H   0  0  0  0  0  0
  -27.3983  -29.7249   25.4616 H   0  0  0  0  0  0
  -27.8709  -30.4318   23.9334 H   0  0  0  0  0  0
  -27.2641  -33.3595   26.2095 H   0  0  0  0  0  0
  -28.3790  -32.6922   25.0258 H   0  0  0  0  0  0
  -28.0762  -31.8418   26.5335 H   0  0  0  0  0  0
  -28.2611  -38.0093   24.7510 H   0  0  0  0  0  0
  -28.1065  -36.2631   24.6305 H   0  0  0  0  0  0
  -27.2304  -37.1457   25.8875 H   0  0  0  0  0  0
  -20.9351  -29.8646   21.6803 H   0  0  0  0  0  0
  -26.0186  -38.2875   24.1406 H   0  0  0  0  0  0
  -28.7499  -19.3518   23.2575 H   0  0  0  0  0  0
  -29.6537  -17.0767   23.4228 H   0  0  0  0  0  0
  -26.8301  -20.2948   21.1306 H   0  0  0  0  0  0
  -27.0790  -22.5287   20.9652 H   0  0  0  0  0  0
  -29.0586  -20.3670   18.5441 H   0  0  0  0  0  0
  -27.7849  -19.1621   18.2991 H   0  0  0  0  0  0
  -29.4484  -18.8322   17.7928 H   0  0  0  0  0  0
  -30.0135  -22.2489   20.3096 H   0  0  0  0  0  0
  -29.6341  -23.0510   21.8072 H   0  0  0  0  0  0
  -30.0236  -24.5640   19.7615 H   0  0  0  0  0  0
  -28.5270  -23.9965   19.0856 H   0  0  0  0  0  0
  -27.2824  -25.0501   21.0086 H   0  0  0  0  0  0
  -28.7923  -25.4876   21.7566 H   0  0  0  0  0  0
  -29.4543  -14.9032   22.1244 H   0  0  0  0  0  0
  1 25  1  0  0  0
  1 30  2  0  0  0
  1 83  1  0  0  0
  2  3  1  0  0  0
  2 25  1  0  0  0
  2 85  1  0  0  0
  2 86  1  0  0  0
  3  4  1  0  0  0
  3 87  1  0  0  0
  3 88  1  0  0  0
  4  5  1  0  0  0
  4 89  1  0  0  0
  4 90  1  0  0  0
  5  6  1  0  0  0
  5 26  1  0  0  0
  5 91  1  0  0  0
  6 25  1  0  0  0
  6 92  1  0  0  0
  6 93  1  0  0  0
  7  8  2  0  0  0
  7 26  1  0  0  0
  7 29  1  0  0  0
  8  9  1  0  0  0
  8 22  1  0  0  0
  9 10  1  0  0  0
  9 27  2  0  0  0
 10 11  2  0  0  0
 10 15  1  0  0  0
 11 12  1  0  0  0
 11 94  1  0  0  0
 12 13  2  0  0  0
 12 95  1  0  0  0
 13 14  1  0  0  0
 13 31  1  0  0  0
 14 15  2  0  0  0
 14 96  1  0  0  0
 15 97  1  0  0  0
 16 17  2  0  0  0
 16 21  1  0  0  0
 16 31  1  0  0  0
 17 18  1  0  0  0
 17 98  1  0  0  0
 18 19  2  0  0  0
 18 99  1  0  0  0
 19 20  1  0  0  0
 19 24  1  0  0  0
 20 21  2  0  0  0
 20100  1  0  0  0
 21 23  1  0  0  0
 22 28  1  0  0  0
 22 32  2  0  0  0
 26 27  1  0  0  0
 28101  1  0  0  0
 28102  1  0  0  0
 29103  1  0  0  0
 29104  1  0  0  0
 33 34  1  0  0  0
 33 66  1  0  0  0
 33 70  2  0  0  0
 34 36  1  0  0  0
 34 59  1  0  0  0
 34105  1  0  0  0
 35 44  2  0  0  0
 35 45  1  0  0  0
 35 68  1  0  0  0
 36 56  1  0  0  0
 36106  1  0  0  0
 37 39  1  0  0  0
 37 47  1  0  0  0
 37 66  1  0  0  0
 37107  1  0  0  0
 38 43  2  0  0  0
 38 46  1  0  0  0
 38 47  1  0  0  0
 39 64  1  0  0  0
 39 67  2  0  0  0
 40 52  1  0  0  0
 40 53  2  0  0  0
 40 58  1  0  0  0
 41108  1  0  0  0
 41109  1  0  0  0
 41110  1  0  0  0
 41 48  1  0  0  0
 42 43  1  0  0  0
 42 66  1  0  0  0
 42111  1  0  0  0
 42112  1  0  0  0
 43 44  1  0  0  0
 44113  1  0  0  0
 45 46  2  0  0  0
 45114  1  0  0  0
 46115  1  0  0  0
 47116  1  0  0  0
 47117  1  0  0  0
 48 56  1  0  0  0
 48 65  1  0  0  0
 48118  1  0  0  0
 49 50  1  0  0  0
 49 53  1  0  0  0
 49 64  1  0  0  0
 49119  1  0  0  0
 50 51  1  0  0  0
 50120  1  0  0  0
 50121  1  0  0  0
 51 52  1  0  0  0
 51122  1  0  0  0
 51123  1  0  0  0
 52124  1  0  0  0
 52125  1  0  0  0
 53 54  1  0  0  0
 54 55  2  0  0  0
 54126  1  0  0  0
 55 57  1  0  0  0
 55127  1  0  0  0
 56 69  2  0  0  0
 57 58  2  0  0  0
 57128  1  0  0  0
 58129  1  0  0  0
 59 60  1  0  0  0
 59 61  1  0  0  0
 59 62  1  0  0  0
 60130  1  0  0  0
 60131  1  0  0  0
 60132  1  0  0  0
 61133  1  0  0  0
 61134  1  0  0  0
 61135  1  0  0  0
 62136  1  0  0  0
 62137  1  0  0  0
 62138  1  0  0  0
 63 65  1  0  0  0
 63139  1  0  0  0
 63140  1  0  0  0
 63141  1  0  0  0
 64142  1  0  0  0
 65143  1  0  0  0
 68 82  1  0  0  0
 71 72  2  0  0  0
 71 73  1  0  0  0
 71144  1  0  0  0
 72 75  1  0  0  0
 72145  1  0  0  0
 73 74  2  0  0  0
 73 77  1  0  0  0
 74 76  1  0  0  0
 74 79  1  0  0  0
 75 76  2  0  0  0
 75 83  1  0  0  0
 76 84  1  0  0  0
 77 78  2  0  0  0
 77146  1  0  0  0
 78 80  1  0  0  0
 78147  1  0  0  0
 79148  1  0  0  0
 79149  1  0  0  0
 79150  1  0  0  0
 80 81  1  0  0  0
 80151  1  0  0  0
 80152  1  0  0  0
 81 82  1  0  0  0
 81153  1  0  0  0
 81154  1  0  0  0
 82155  1  0  0  0
 82156  1  0  0  0
 83157  1  0  0  0
M  ISO  4   1 100  68 101  82 101  83 100
M  END
> <chiral flag>
0

> <version>
0

> <s_m_source_file>
/data/baiqing/PycharmProjects/Reinvent-master-3.2/result/LINK_invent/BTK/process_docking_weight1_custom_product_contain_oxygen_bond_distance_aromatic_linkinvent_7_9_3/rearranged_h_0122.sdf

> <i_m_source_file_index>
54

> <r_mmod_Potential_Energy-OPLS-2005>
24.7994289398193

> <r_mmod_Stretch_Energy-OPLS-2005>
45.9349555969238

> <r_mmod_Bend_Energy-OPLS-2005>
119.863998413086

> <r_mmod_Torsional_Energy-OPLS-2005>
293.233795166016

> <r_mmod_Improper_Torsional_Energy-OPLS-2005>
8.35921955108643

> <r_mmod_Van_der_Waal_Energy-OPLS-2005>
141.144943237305

> <r_mmod_Electrostatic_Energy-OPLS-2005>
-398.031646728516

> <r_mmod_Solvation_Energy-OPLS-2005>
-201.53938293457

> <b_mmod_Minimization_Converged-OPLS-2005>
0

> <r_mmod_RMS_Derivative-OPLS-2005>
3.09533071517944

$$$$
54
                    3D
 Structure written by MMmdl.
160168  0  0  1  0            999 V2000
  -30.6843  -14.4666   20.5307 C   0  0  0  0  0  0
  -30.4228  -12.2783   19.4364 C   0  0  0  0  0  0
  -29.5039  -12.4723   18.2117 C   0  0  0  0  0  0
  -28.0143  -12.3667   18.6084 C   0  0  0  0  0  0
  -27.6600  -13.1877   19.8791 C   0  0  2  0  0  0
  -28.7040  -12.9751   20.9986 C   0  0  0  0  0  0
  -25.2582  -13.8077   20.5678 C   0  0  0  0  0  0
  -24.1819  -13.0385   20.9154 C   0  0  0  0  0  0
  -24.6363  -11.6857   20.8733 C   0  0  0  0  0  0
  -23.9037  -10.4256   21.0392 C   0  0  0  0  0  0
  -24.3602   -9.4179   21.9175 C   0  0  0  0  0  0
  -23.6294   -8.2216   22.0760 C   0  0  0  0  0  0
  -22.4287   -8.0238   21.3537 C   0  0  0  0  0  0
  -21.9898   -9.0208   20.4641 C   0  0  0  0  0  0
  -22.7211  -10.2097   20.3038 C   0  0  0  0  0  0
  -21.6838   -6.0722   22.5281 C   0  0  0  0  0  0
  -21.4005   -6.5633   23.8204 C   0  0  0  0  0  0
  -21.3659   -5.6792   24.9180 C   0  0  0  0  0  0
  -21.6041   -4.3051   24.7230 C   0  0  0  0  0  0
  -21.8822   -3.8148   23.4352 C   0  0  0  0  0  0
  -21.9192   -4.6958   22.3406 C   0  0  0  0  0  0
  -22.7857  -13.5199   21.1811 C   0  0  0  0  0  0
  -22.1660   -4.2138   21.0993 F   0  0  0  0  0  0
  -21.5645   -3.4538   25.7743 F   0  0  0  0  0  0
  -30.0343  -13.2746   20.4419 N   0  0  0  0  0  0
  -26.3005  -12.9218   20.3387 N   0  0  0  0  0  0
  -25.9281  -11.6403   20.5794 N   0  0  0  0  0  0
  -22.0483  -12.8224   22.0382 N   0  0  0  0  0  0
  -25.4294  -15.1795   20.4144 N   0  0  0  0  0  0
  -31.8355  -14.6453   20.1232 O   0  0  0  0  0  0
  -21.6639   -6.8852   21.4241 O   0  0  0  0  0  0
  -22.3573  -14.5511   20.6640 O   0  0  0  0  0  0
  -24.6118  -31.8679   23.2095 C   0  0  0  0  0  0
  -25.9027  -32.4814   23.8382 C   0  0  1  0  0  0
  -27.2511  -27.4544   20.0825 C   0  0  0  0  0  0
  -25.5899  -33.8614   24.2313 N   0  0  0  0  0  0
  -23.3979  -30.4886   21.5499 C   0  0  2  0  0  0
  -24.8459  -28.9516   20.1160 C   0  0  0  0  0  0
  -22.7389  -29.4652   22.5013 C   0  0  0  0  0  0
  -18.0266  -28.1376   22.8486 C   0  0  0  0  0  0
  -24.1492  -36.7295   23.2637 C   0  0  0  0  0  0
  -25.9237  -30.8372   21.3607 C   0  0  0  0  0  0
  -26.0012  -29.4722   20.7086 C   0  0  0  0  0  0
  -27.1990  -28.7282   20.6925 C   0  0  0  0  0  0
  -26.0697  -26.9329   19.5040 C   0  0  0  0  0  0
  -24.8733  -27.6794   19.5163 C   0  0  0  0  0  0
  -23.6044  -29.8135   20.1662 C   0  0  0  0  0  0
  -25.4115  -36.3095   24.0332 C   0  0  1  0  0  0
  -20.5851  -28.3655   23.1329 C   0  0  2  0  0  0
  -20.6758  -26.9399   22.5419 C   0  0  0  0  0  0
  -19.5744  -26.6391   21.5208 C   0  0  0  0  0  0
  -18.1921  -26.7925   22.1609 C   0  0  0  0  0  0
  -19.1510  -28.8833   23.2900 C   0  0  0  0  0  0
  -18.9443  -30.1446   23.8907 C   0  0  0  0  0  0
  -17.6441  -30.6584   24.0568 C   0  0  0  0  0  0
  -25.9038  -34.9466   23.5116 C   0  0  0  0  0  0
  -16.5333  -29.9079   23.6333 C   0  0  0  0  0  0
  -16.7256  -28.6497   23.0349 C   0  0  0  0  0  0
  -26.4472  -31.6598   25.0713 C   0  0  0  0  0  0
  -25.3739  -31.3689   26.1457 C   0  0  0  0  0  0
  -27.0302  -30.3040   24.6090 C   0  0  0  0  0  0
  -27.6064  -32.4305   25.7464 C   0  0  0  0  0  0
  -27.5578  -37.1798   24.8464 C   0  0  0  0  0  0
  -21.4123  -29.3013   22.3738 N   0  0  0  0  0  0
  -26.4295  -37.3782   23.9404 N   0  0  0  0  0  0
  -24.6620  -31.0795   22.0981 N   0  0  0  0  0  0
  -23.4171  -28.8218   23.3066 O   0  0  0  0  0  0
  -28.4697  -26.8054   20.0967 O   0  0  0  0  0  0
  -26.5602  -34.8917   22.4678 O   0  0  0  0  0  0
  -23.5317  -32.1428   23.7504 O   0  0  0  0  0  0
  -29.5782  -18.7349   19.0745 C   0  0  0  0  0  0
  -30.3586  -19.5831   19.8748 C   0  0  0  0  0  0
  -30.8711  -17.7134   21.3460 C   0  0  0  0  0  0
  -29.4446  -17.3717   19.3927 C   0  0  0  0  0  0
  -30.0941  -16.8477   20.5414 C   0  0  0  0  0  0
  -31.0153  -19.0829   21.0223 C   0  0  0  0  0  0
  -29.8981  -23.7877   20.6432 C   0  0  0  0  0  0
  -28.7581  -24.3890   20.2422 C   0  0  0  0  0  0
  -29.8983  -22.6019   21.5211 C   0  0  0  0  0  0
  -28.6027  -16.5147   18.4678 C   0  0  0  0  0  0
  -28.7086  -25.6149   19.3446 C   0  0  0  0  0  0
  -31.2068  -22.2394   22.2317 C   0  0  0  0  0  0
  -32.1088  -21.2056   21.5218 C   0  0  0  0  0  0
  -29.9105  -15.4911   20.9294 N   0  0  0  0  0  0
  -28.8913  -21.9208   21.7330 O   0  0  0  0  0  0
  -31.7905  -19.8526   21.8652 O   0  0  0  0  0  0
  -31.4723  -12.3659   19.1502 H   0  0  0  0  0  0
  -30.3090  -11.2720   19.8449 H   0  0  0  0  0  0
  -29.7385  -11.7283   17.4490 H   0  0  0  0  0  0
  -29.6990  -13.4406   17.7522 H   0  0  0  0  0  0
  -27.7896  -11.3148   18.7814 H   0  0  0  0  0  0
  -27.3858  -12.6746   17.7706 H   0  0  0  0  0  0
  -27.6954  -14.2312   19.5935 H   0  0  0  0  0  0
  -28.6772  -11.9433   21.3504 H   0  0  0  0  0  0
  -28.4728  -13.5842   21.8749 H   0  0  0  0  0  0
  -25.2741   -9.5683   22.4760 H   0  0  0  0  0  0
  -23.9982   -7.4614   22.7502 H   0  0  0  0  0  0
  -21.0805   -8.8709   19.8967 H   0  0  0  0  0  0
  -22.3627  -10.9639   19.6155 H   0  0  0  0  0  0
  -21.1996   -7.6140   23.9697 H   0  0  0  0  0  0
  -21.1485   -6.0538   25.9068 H   0  0  0  0  0  0
  -22.0610   -2.7612   23.2856 H   0  0  0  0  0  0
  -22.4092  -11.9893   22.4792 H   0  0  0  0  0  0
  -21.1088  -13.1249   22.2539 H   0  0  0  0  0  0
  -24.6584  -15.8288   20.5269 H   0  0  0  0  0  0
  -26.2872  -15.6294   20.1245 H   0  0  0  0  0  0
  -26.7102  -32.5525   23.1148 H   0  0  0  0  0  0
  -25.0084  -33.9784   25.0480 H   0  0  0  0  0  0
  -22.6845  -31.3034   21.4094 H   0  0  0  0  0  0
  -23.3755  -35.9626   23.3305 H   0  0  0  0  0  0
  -24.3587  -36.8906   22.2048 H   0  0  0  0  0  0
  -23.7245  -37.6500   23.6653 H   0  0  0  0  0  0
  -26.0386  -31.6064   20.5954 H   0  0  0  0  0  0
  -26.8091  -30.8849   21.9829 H   0  0  0  0  0  0
  -28.0944  -29.1348   21.1423 H   0  0  0  0  0  0
  -26.0446  -25.9557   19.0463 H   0  0  0  0  0  0
  -23.9808  -27.2671   19.0678 H   0  0  0  0  0  0
  -23.7011  -30.5831   19.3995 H   0  0  0  0  0  0
  -22.7309  -29.2251   19.8805 H   0  0  0  0  0  0
  -25.1297  -36.1949   25.0826 H   0  0  0  0  0  0
  -20.9934  -28.3217   24.1452 H   0  0  0  0  0  0
  -20.5665  -26.2265   23.3599 H   0  0  0  0  0  0
  -21.6632  -26.7453   22.1207 H   0  0  0  0  0  0
  -19.6908  -25.6307   21.1228 H   0  0  0  0  0  0
  -19.6694  -27.3212   20.6747 H   0  0  0  0  0  0
  -17.4197  -26.6681   21.4006 H   0  0  0  0  0  0
  -18.0315  -26.0065   22.8999 H   0  0  0  0  0  0
  -19.7923  -30.7261   24.2277 H   0  0  0  0  0  0
  -17.5000  -31.6267   24.5161 H   0  0  0  0  0  0
  -15.5333  -30.2976   23.7666 H   0  0  0  0  0  0
  -15.8658  -28.0823   22.7051 H   0  0  0  0  0  0
  -24.5932  -30.7018   25.7778 H   0  0  0  0  0  0
  -24.8911  -32.2837   26.4902 H   0  0  0  0  0  0
  -25.8093  -30.8856   27.0214 H   0  0  0  0  0  0
  -26.2837  -29.6788   24.1176 H   0  0  0  0  0  0
  -27.4104  -29.7289   25.4545 H   0  0  0  0  0  0
  -27.8661  -30.4353   23.9213 H   0  0  0  0  0  0
  -27.2718  -33.3617   26.2038 H   0  0  0  0  0  0
  -28.3875  -32.6827   25.0282 H   0  0  0  0  0  0
  -28.0729  -31.8423   26.5376 H   0  0  0  0  0  0
  -28.2599  -38.0092   24.7509 H   0  0  0  0  0  0
  -28.1071  -36.2623   24.6294 H   0  0  0  0  0  0
  -27.2297  -37.1451   25.8868 H   0  0  0  0  0  0
  -20.9294  -29.8708   21.6931 H   0  0  0  0  0  0
  -26.0178  -38.2857   24.1407 H   0  0  0  0  0  0
  -29.0748  -19.1440   18.2099 H   0  0  0  0  0  0
  -30.4146  -20.6196   19.5808 H   0  0  0  0  0  0
  -31.3645  -17.3272   22.2268 H   0  0  0  0  0  0
  -30.8578  -24.1748   20.3327 H   0  0  0  0  0  0
  -27.8015  -24.0025   20.5646 H   0  0  0  0  0  0
  -27.6114  -16.3634   18.8914 H   0  0  0  0  0  0
  -29.0772  -15.5536   18.2857 H   0  0  0  0  0  0
  -28.4726  -16.9963   17.4992 H   0  0  0  0  0  0
  -28.0300  -25.4586   18.5074 H   0  0  0  0  0  0
  -29.6901  -25.7388   18.8861 H   0  0  0  0  0  0
  -30.9860  -21.9060   23.2444 H   0  0  0  0  0  0
  -31.7718  -23.1648   22.3406 H   0  0  0  0  0  0
  -33.1248  -21.3641   21.8840 H   0  0  0  0  0  0
  -32.1922  -21.3818   20.4497 H   0  0  0  0  0  0
  -28.9749  -15.2247   21.1951 H   0  0  0  0  0  0
  1 25  1  0  0  0
  1 30  2  0  0  0
  1 84  1  0  0  0
  2  3  1  0  0  0
  2 25  1  0  0  0
  2 87  1  0  0  0
  2 88  1  0  0  0
  3  4  1  0  0  0
  3 89  1  0  0  0
  3 90  1  0  0  0
  4  5  1  0  0  0
  4 91  1  0  0  0
  4 92  1  0  0  0
  5  6  1  0  0  0
  5 26  1  0  0  0
  5 93  1  0  0  0
  6 25  1  0  0  0
  6 94  1  0  0  0
  6 95  1  0  0  0
  7  8  2  0  0  0
  7 26  1  0  0  0
  7 29  1  0  0  0
  8  9  1  0  0  0
  8 22  1  0  0  0
  9 10  1  0  0  0
  9 27  2  0  0  0
 10 11  2  0  0  0
 10 15  1  0  0  0
 11 12  1  0  0  0
 11 96  1  0  0  0
 12 13  2  0  0  0
 12 97  1  0  0  0
 13 14  1  0  0  0
 13 31  1  0  0  0
 14 15  2  0  0  0
 14 98  1  0  0  0
 15 99  1  0  0  0
 16 17  2  0  0  0
 16 21  1  0  0  0
 16 31  1  0  0  0
 17 18  1  0  0  0
 17100  1  0  0  0
 18 19  2  0  0  0
 18101  1  0  0  0
 19 20  1  0  0  0
 19 24  1  0  0  0
 20 21  2  0  0  0
 20102  1  0  0  0
 21 23  1  0  0  0
 22 28  1  0  0  0
 22 32  2  0  0  0
 26 27  1  0  0  0
 28103  1  0  0  0
 28104  1  0  0  0
 29105  1  0  0  0
 29106  1  0  0  0
 33 34  1  0  0  0
 33 66  1  0  0  0
 33 70  2  0  0  0
 34 36  1  0  0  0
 34 59  1  0  0  0
 34107  1  0  0  0
 35 44  2  0  0  0
 35 45  1  0  0  0
 35 68  1  0  0  0
 36 56  1  0  0  0
 36108  1  0  0  0
 37 39  1  0  0  0
 37 47  1  0  0  0
 37 66  1  0  0  0
 37109  1  0  0  0
 38 43  2  0  0  0
 38 46  1  0  0  0
 38 47  1  0  0  0
 39 64  1  0  0  0
 39 67  2  0  0  0
 40 52  1  0  0  0
 40 53  2  0  0  0
 40 58  1  0  0  0
 41110  1  0  0  0
 41111  1  0  0  0
 41112  1  0  0  0
 41 48  1  0  0  0
 42 43  1  0  0  0
 42 66  1  0  0  0
 42113  1  0  0  0
 42114  1  0  0  0
 43 44  1  0  0  0
 44115  1  0  0  0
 45 46  2  0  0  0
 45116  1  0  0  0
 46117  1  0  0  0
 47118  1  0  0  0
 47119  1  0  0  0
 48 56  1  0  0  0
 48 65  1  0  0  0
 48120  1  0  0  0
 49 50  1  0  0  0
 49 53  1  0  0  0
 49 64  1  0  0  0
 49121  1  0  0  0
 50 51  1  0  0  0
 50122  1  0  0  0
 50123  1  0  0  0
 51 52  1  0  0  0
 51124  1  0  0  0
 51125  1  0  0  0
 52126  1  0  0  0
 52127  1  0  0  0
 53 54  1  0  0  0
 54 55  2  0  0  0
 54128  1  0  0  0
 55 57  1  0  0  0
 55129  1  0  0  0
 56 69  2  0  0  0
 57 58  2  0  0  0
 57130  1  0  0  0
 58131  1  0  0  0
 59 60  1  0  0  0
 59 61  1  0  0  0
 59 62  1  0  0  0
 60132  1  0  0  0
 60133  1  0  0  0
 60134  1  0  0  0
 61135  1  0  0  0
 61136  1  0  0  0
 61137  1  0  0  0
 62138  1  0  0  0
 62139  1  0  0  0
 62140  1  0  0  0
 63 65  1  0  0  0
 63141  1  0  0  0
 63142  1  0  0  0
 63143  1  0  0  0
 64144  1  0  0  0
 65145  1  0  0  0
 68 81  1  0  0  0
 71 72  2  0  0  0
 71 74  1  0  0  0
 71146  1  0  0  0
 72 76  1  0  0  0
 72147  1  0  0  0
 73 75  1  0  0  0
 73 76  2  0  0  0
 73148  1  0  0  0
 74 75  2  0  0  0
 74 80  1  0  0  0
 75 84  1  0  0  0
 76 86  1  0  0  0
 77 78  2  0  0  0
 77 79  1  0  0  0
 77149  1  0  0  0
 78 81  1  0  0  0
 78150  1  0  0  0
 79 82  1  0  0  0
 79 85  2  0  0  0
 80151  1  0  0  0
 80152  1  0  0  0
 80153  1  0  0  0
 81154  1  0  0  0
 81155  1  0  0  0
 82 83  1  0  0  0
 82156  1  0  0  0
 82157  1  0  0  0
 83 86  1  0  0  0
 83158  1  0  0  0
 83159  1  0  0  0
 84160  1  0  0  0
M  ISO  4   1 100  68 101  81 101  84 100
M  END
> <chiral flag>
0

> <version>
0

> <s_m_source_file>
/data/baiqing/PycharmProjects/Reinvent-master-3.2/result/LINK_invent/BTK/process_docking_weight1_custom_product_contain_oxygen_bond_distance_aromatic_linkinvent_7_9_3/rearranged_h_0122.sdf

> <i_m_source_file_index>
55

> <r_mmod_Potential_Energy-OPLS-2005>
-80.4373550415039

> <r_mmod_Stretch_Energy-OPLS-2005>
34.8279113769531

> <r_mmod_Bend_Energy-OPLS-2005>
117.866874694824

> <r_mmod_Torsional_Energy-OPLS-2005>
228.905151367188

> <r_mmod_Improper_Torsional_Energy-OPLS-2005>
5.67117071151733

> <r_mmod_Van_der_Waal_Energy-OPLS-2005>
151.212707519531

> <r_mmod_Electrostatic_Energy-OPLS-2005>
-399.726806640625

> <r_mmod_Solvation_Energy-OPLS-2005>
-233.164276123047

> <b_mmod_Minimization_Converged-OPLS-2005>
0

> <r_mmod_RMS_Derivative-OPLS-2005>
2.21133470535278

$$$$
55
                    3D
 Structure written by MMmdl.
158166  0  0  1  0            999 V2000
  -30.7400  -14.3599   20.5532 C   0  0  0  0  0  0
  -30.3726  -12.2138   19.4359 C   0  0  0  0  0  0
  -29.4871  -12.4893   18.2078 C   0  0  0  0  0  0
  -28.0039  -12.3688   18.6008 C   0  0  0  0  0  0
  -27.6540  -13.1969   19.8693 C   0  0  2  0  0  0
  -28.6838  -12.9621   20.9996 C   0  0  0  0  0  0
  -25.2563  -13.8178   20.5619 C   0  0  0  0  0  0
  -24.1811  -13.0448   20.9163 C   0  0  0  0  0  0
  -24.6343  -11.6918   20.8724 C   0  0  0  0  0  0
  -23.8991  -10.4290   21.0395 C   0  0  0  0  0  0
  -24.3554   -9.4227   21.9190 C   0  0  0  0  0  0
  -23.6251   -8.2238   22.0772 C   0  0  0  0  0  0
  -22.4247   -8.0270   21.3547 C   0  0  0  0  0  0
  -21.9885   -9.0227   20.4632 C   0  0  0  0  0  0
  -22.7174  -10.2128   20.3031 C   0  0  0  0  0  0
  -21.6842   -6.0722   22.5272 C   0  0  0  0  0  0
  -21.4011   -6.5612   23.8202 C   0  0  0  0  0  0
  -21.3680   -5.6779   24.9189 C   0  0  0  0  0  0
  -21.6051   -4.3038   24.7217 C   0  0  0  0  0  0
  -21.8829   -3.8132   23.4348 C   0  0  0  0  0  0
  -21.9207   -4.6952   22.3394 C   0  0  0  0  0  0
  -22.7864  -13.5300   21.1838 C   0  0  0  0  0  0
  -22.1670   -4.2132   21.0981 F   0  0  0  0  0  0
  -21.5632   -3.4535   25.7737 F   0  0  0  0  0  0
  -30.0182  -13.2173   20.4483 N   0  0  0  0  0  0
  -26.2948  -12.9303   20.3263 N   0  0  0  0  0  0
  -25.9256  -11.6471   20.5688 N   0  0  0  0  0  0
  -22.0517  -12.8223   22.0369 N   0  0  0  0  0  0
  -25.4372  -15.1860   20.4032 N   0  0  0  0  0  0
  -31.8706  -14.4484   20.0651 O   0  0  0  0  0  0
  -21.6637   -6.8838   21.4232 O   0  0  0  0  0  0
  -22.3577  -14.5648   20.6774 O   0  0  0  0  0  0
  -24.6156  -31.8716   23.2226 C   0  0  0  0  0  0
  -25.9099  -32.4801   23.8488 C   0  0  1  0  0  0
  -27.1988  -27.4282   20.0687 C   0  0  0  0  0  0
  -25.5996  -33.8600   24.2422 N   0  0  0  0  0  0
  -23.4041  -30.5048   21.5572 C   0  0  2  0  0  0
  -24.8435  -28.9929   20.1001 C   0  0  0  0  0  0
  -22.7403  -29.4705   22.4939 C   0  0  0  0  0  0
  -18.0264  -28.1384   22.8516 C   0  0  0  0  0  0
  -24.1476  -36.7242   23.2663 C   0  0  0  0  0  0
  -25.9426  -30.8211   21.3966 C   0  0  0  0  0  0
  -26.0068  -29.4719   20.7154 C   0  0  0  0  0  0
  -27.1903  -28.6944   20.7043 C   0  0  0  0  0  0
  -26.0206  -26.9951   19.4130 C   0  0  0  0  0  0
  -24.8491  -27.7572   19.4422 C   0  0  0  0  0  0
  -23.6111  -29.8613   20.1633 C   0  0  0  0  0  0
  -25.4102  -36.3070   24.0370 C   0  0  1  0  0  0
  -20.5873  -28.3734   23.1265 C   0  0  2  0  0  0
  -20.6753  -26.9459   22.5384 C   0  0  0  0  0  0
  -19.5702  -26.6396   21.5200 C   0  0  0  0  0  0
  -18.1896  -26.7942   22.1615 C   0  0  0  0  0  0
  -19.1531  -28.8869   23.2865 C   0  0  0  0  0  0
  -18.9443  -30.1464   23.8870 C   0  0  0  0  0  0
  -17.6462  -30.6601   24.0564 C   0  0  0  0  0  0
  -25.9077  -34.9440   23.5186 C   0  0  0  0  0  0
  -16.5344  -29.9099   23.6340 C   0  0  0  0  0  0
  -16.7259  -28.6487   23.0410 C   0  0  0  0  0  0
  -26.4554  -31.6564   25.0795 C   0  0  0  0  0  0
  -25.3832  -31.3528   26.1525 C   0  0  0  0  0  0
  -27.0548  -30.3040   24.6266 C   0  0  0  0  0  0
  -27.6105  -32.4353   25.7515 C   0  0  0  0  0  0
  -27.5610  -37.1716   24.8462 C   0  0  0  0  0  0
  -21.4141  -29.3068   22.3624 N   0  0  0  0  0  0
  -26.4257  -37.3798   23.9503 N   0  0  0  0  0  0
  -24.6698  -31.0816   22.1121 N   0  0  0  0  0  0
  -23.4142  -28.8268   23.3038 O   0  0  0  0  0  0
  -28.3189  -26.6218   20.1362 O   0  0  0  0  0  0
  -26.5585  -34.8892   22.4709 O   0  0  0  0  0  0
  -23.5326  -32.1509   23.7577 O   0  0  0  0  0  0
  -29.4151  -18.6644   21.4139 C   0  0  0  0  0  0
  -31.6340  -18.6034   22.4487 C   0  0  0  0  0  0
  -30.4427  -20.7011   22.2779 C   0  0  0  0  0  0
  -30.5871  -17.9499   21.7737 C   0  0  0  0  0  0
  -29.3493  -20.0657   21.6395 C   0  0  0  0  0  0
  -31.5588  -19.9749   22.7127 C   0  0  0  0  0  0
  -30.8714  -16.5581   21.4320 C   0  0  0  0  0  0
  -28.1746  -20.8612   21.2121 C   0  0  0  0  0  0
  -30.0623  -15.5452   21.0711 C   0  0  0  0  0  0
  -28.0882  -22.2011   21.3458 C   0  0  0  0  0  0
  -27.2973  -24.5555   21.1123 C   0  0  0  0  0  0
  -32.6510  -20.6699   23.4911 C   0  0  0  0  0  0
  -26.9008  -23.0738   20.9909 C   0  0  0  0  0  0
  -28.1071  -25.1985   19.9522 C   0  0  0  0  0  0
  -26.9804  -25.1940   22.1226 O   0  0  0  0  0  0
  -31.4283  -12.2251   19.1654 H   0  0  0  0  0  0
  -30.1799  -11.2096   19.8188 H   0  0  0  0  0  0
  -29.7181  -11.7939   17.4017 H   0  0  0  0  0  0
  -29.6959  -13.4895   17.8234 H   0  0  0  0  0  0
  -27.7953  -11.3115   18.7751 H   0  0  0  0  0  0
  -27.3690  -12.6647   17.7651 H   0  0  0  0  0  0
  -27.7099  -14.2459   19.5836 H   0  0  0  0  0  0
  -28.6262  -11.9330   21.3566 H   0  0  0  0  0  0
  -28.4644  -13.5788   21.8725 H   0  0  0  0  0  0
  -25.2710   -9.5713   22.4767 H   0  0  0  0  0  0
  -23.9975   -7.4649   22.7506 H   0  0  0  0  0  0
  -21.0836   -8.8713   19.8925 H   0  0  0  0  0  0
  -22.3630  -10.9642   19.6117 H   0  0  0  0  0  0
  -21.1996   -7.6112   23.9692 H   0  0  0  0  0  0
  -21.1485   -6.0523   25.9102 H   0  0  0  0  0  0
  -22.0591   -2.7591   23.2863 H   0  0  0  0  0  0
  -22.4132  -11.9836   22.4649 H   0  0  0  0  0  0
  -21.1137  -13.1194   22.2631 H   0  0  0  0  0  0
  -24.6836  -15.8537   20.5268 H   0  0  0  0  0  0
  -26.2975  -15.6108   20.0777 H   0  0  0  0  0  0
  -26.7143  -32.5527   23.1233 H   0  0  0  0  0  0
  -25.0201  -33.9749   25.0600 H   0  0  0  0  0  0
  -22.6921  -31.3204   21.4317 H   0  0  0  0  0  0
  -23.3824  -35.9469   23.3147 H   0  0  0  0  0  0
  -24.3610  -36.9049   22.2105 H   0  0  0  0  0  0
  -23.7059  -37.6332   23.6770 H   0  0  0  0  0  0
  -26.1200  -31.6113   20.6630 H   0  0  0  0  0  0
  -26.8025  -30.8194   22.0551 H   0  0  0  0  0  0
  -28.0777  -29.0472   21.2164 H   0  0  0  0  0  0
  -25.9563  -26.0685   18.8674 H   0  0  0  0  0  0
  -23.9668  -27.3988   18.9282 H   0  0  0  0  0  0
  -23.7199  -30.6519   19.4176 H   0  0  0  0  0  0
  -22.7314  -29.2877   19.8639 H   0  0  0  0  0  0
  -25.1218  -36.1927   25.0852 H   0  0  0  0  0  0
  -20.9983  -28.3338   24.1364 H   0  0  0  0  0  0
  -20.5726  -26.2346   23.3580 H   0  0  0  0  0  0
  -21.6614  -26.7504   22.1158 H   0  0  0  0  0  0
  -19.6871  -25.6315   21.1246 H   0  0  0  0  0  0
  -19.6609  -27.3166   20.6693 H   0  0  0  0  0  0
  -17.4183  -26.6749   21.3989 H   0  0  0  0  0  0
  -18.0242  -26.0033   22.8958 H   0  0  0  0  0  0
  -19.7943  -30.7263   24.2241 H   0  0  0  0  0  0
  -17.5043  -31.6270   24.5204 H   0  0  0  0  0  0
  -15.5358  -30.3009   23.7665 H   0  0  0  0  0  0
  -15.8655  -28.0772   22.7206 H   0  0  0  0  0  0
  -24.6025  -30.6904   25.7776 H   0  0  0  0  0  0
  -24.8983  -32.2595   26.5117 H   0  0  0  0  0  0
  -25.8229  -30.8562   27.0183 H   0  0  0  0  0  0
  -26.3128  -29.6545   24.1626 H   0  0  0  0  0  0
  -27.4656  -29.7547   25.4761 H   0  0  0  0  0  0
  -27.8807  -30.4402   23.9288 H   0  0  0  0  0  0
  -27.2753  -33.3700   26.2018 H   0  0  0  0  0  0
  -28.3894  -32.6859   25.0296 H   0  0  0  0  0  0
  -28.0822  -31.8553   26.5460 H   0  0  0  0  0  0
  -28.2458  -38.0197   24.7866 H   0  0  0  0  0  0
  -28.1304  -36.2760   24.5889 H   0  0  0  0  0  0
  -27.2373  -37.0874   25.8865 H   0  0  0  0  0  0
  -20.9307  -29.8770   21.6803 H   0  0  0  0  0  0
  -26.0143  -38.2837   24.1682 H   0  0  0  0  0  0
  -28.5984  -18.1574   20.9101 H   0  0  0  0  0  0
  -32.5176  -18.0489   22.7418 H   0  0  0  0  0  0
  -30.4629  -21.7581   22.4851 H   0  0  0  0  0  0
  -31.9388  -16.3613   21.4224 H   0  0  0  0  0  0
  -27.3434  -20.3179   20.7817 H   0  0  0  0  0  0
  -28.9877  -15.6325   21.1001 H   0  0  0  0  0  0
  -28.9134  -22.7566   21.7655 H   0  0  0  0  0  0
  -33.4861  -19.9994   23.6969 H   0  0  0  0  0  0
  -32.2398  -20.9988   24.4456 H   0  0  0  0  0  0
  -33.0255  -21.5432   22.9558 H   0  0  0  0  0  0
  -26.1168  -22.8545   21.7182 H   0  0  0  0  0  0
  -26.4983  -22.8376   20.0042 H   0  0  0  0  0  0
  -27.6087  -24.9936   19.0073 H   0  0  0  0  0  0
  -29.0695  -24.6945   19.8590 H   0  0  0  0  0  0
  1 25  1  0  0  0
  1 30  2  0  0  0
  1 79  1  0  0  0
  2  3  1  0  0  0
  2 25  1  0  0  0
  2 86  1  0  0  0
  2 87  1  0  0  0
  3  4  1  0  0  0
  3 88  1  0  0  0
  3 89  1  0  0  0
  4  5  1  0  0  0
  4 90  1  0  0  0
  4 91  1  0  0  0
  5  6  1  0  0  0
  5 26  1  0  0  0
  5 92  1  0  0  0
  6 25  1  0  0  0
  6 93  1  0  0  0
  6 94  1  0  0  0
  7  8  2  0  0  0
  7 26  1  0  0  0
  7 29  1  0  0  0
  8  9  1  0  0  0
  8 22  1  0  0  0
  9 10  1  0  0  0
  9 27  2  0  0  0
 10 11  2  0  0  0
 10 15  1  0  0  0
 11 12  1  0  0  0
 11 95  1  0  0  0
 12 13  2  0  0  0
 12 96  1  0  0  0
 13 14  1  0  0  0
 13 31  1  0  0  0
 14 15  2  0  0  0
 14 97  1  0  0  0
 15 98  1  0  0  0
 16 17  2  0  0  0
 16 21  1  0  0  0
 16 31  1  0  0  0
 17 18  1  0  0  0
 17 99  1  0  0  0
 18 19  2  0  0  0
 18100  1  0  0  0
 19 20  1  0  0  0
 19 24  1  0  0  0
 20 21  2  0  0  0
 20101  1  0  0  0
 21 23  1  0  0  0
 22 28  1  0  0  0
 22 32  2  0  0  0
 26 27  1  0  0  0
 28102  1  0  0  0
 28103  1  0  0  0
 29104  1  0  0  0
 29105  1  0  0  0
 33 34  1  0  0  0
 33 66  1  0  0  0
 33 70  2  0  0  0
 34 36  1  0  0  0
 34 59  1  0  0  0
 34106  1  0  0  0
 35 44  2  0  0  0
 35 45  1  0  0  0
 35 68  1  0  0  0
 36 56  1  0  0  0
 36107  1  0  0  0
 37 39  1  0  0  0
 37 47  1  0  0  0
 37 66  1  0  0  0
 37108  1  0  0  0
 38 43  2  0  0  0
 38 46  1  0  0  0
 38 47  1  0  0  0
 39 64  1  0  0  0
 39 67  2  0  0  0
 40 52  1  0  0  0
 40 53  2  0  0  0
 40 58  1  0  0  0
 41109  1  0  0  0
 41110  1  0  0  0
 41111  1  0  0  0
 41 48  1  0  0  0
 42 43  1  0  0  0
 42 66  1  0  0  0
 42112  1  0  0  0
 42113  1  0  0  0
 43 44  1  0  0  0
 44114  1  0  0  0
 45 46  2  0  0  0
 45115  1  0  0  0
 46116  1  0  0  0
 47117  1  0  0  0
 47118  1  0  0  0
 48 56  1  0  0  0
 48 65  1  0  0  0
 48119  1  0  0  0
 49 50  1  0  0  0
 49 53  1  0  0  0
 49 64  1  0  0  0
 49120  1  0  0  0
 50 51  1  0  0  0
 50121  1  0  0  0
 50122  1  0  0  0
 51 52  1  0  0  0
 51123  1  0  0  0
 51124  1  0  0  0
 52125  1  0  0  0
 52126  1  0  0  0
 53 54  1  0  0  0
 54 55  2  0  0  0
 54127  1  0  0  0
 55 57  1  0  0  0
 55128  1  0  0  0
 56 69  2  0  0  0
 57 58  2  0  0  0
 57129  1  0  0  0
 58130  1  0  0  0
 59 60  1  0  0  0
 59 61  1  0  0  0
 59 62  1  0  0  0
 60131  1  0  0  0
 60132  1  0  0  0
 60133  1  0  0  0
 61134  1  0  0  0
 61135  1  0  0  0
 61136  1  0  0  0
 62137  1  0  0  0
 62138  1  0  0  0
 62139  1  0  0  0
 63 65  1  0  0  0
 63140  1  0  0  0
 63141  1  0  0  0
 63142  1  0  0  0
 64143  1  0  0  0
 65144  1  0  0  0
 68 84  1  0  0  0
 71 74  2  0  0  0
 71 75  1  0  0  0
 71145  1  0  0  0
 72 74  1  0  0  0
 72 76  2  0  0  0
 72146  1  0  0  0
 73 75  2  0  0  0
 73 76  1  0  0  0
 73147  1  0  0  0
 74 77  1  0  0  0
 75 78  1  0  0  0
 76 82  1  0  0  0
 77 79  2  0  0  0
 77148  1  0  0  0
 78 80  2  0  0  0
 78149  1  0  0  0
 79150  1  0  0  0
 80 83  1  0  0  0
 80151  1  0  0  0
 81 83  1  0  0  0
 81 84  1  0  0  0
 81 85  2  0  0  0
 82152  1  0  0  0
 82153  1  0  0  0
 82154  1  0  0  0
 83155  1  0  0  0
 83156  1  0  0  0
 84157  1  0  0  0
 84158  1  0  0  0
M  ISO  4   1 100  68 101  79 100  84 101
M  END
> <chiral flag>
0

> <version>
0

> <s_m_source_file>
/data/baiqing/PycharmProjects/Reinvent-master-3.2/result/LINK_invent/BTK/process_docking_weight1_custom_product_contain_oxygen_bond_distance_aromatic_linkinvent_7_9_3/rearranged_h_0122.sdf

> <i_m_source_file_index>
56

> <r_mmod_Potential_Energy-OPLS-2005>
37.0986251831055

> <r_mmod_Stretch_Energy-OPLS-2005>
36.7183570861816

> <r_mmod_Bend_Energy-OPLS-2005>
108.791610717773

> <r_mmod_Torsional_Energy-OPLS-2005>
190.562301635742

> <r_mmod_Improper_Torsional_Energy-OPLS-2005>
5.82956600189209

> <r_mmod_Van_der_Waal_Energy-OPLS-2005>
185.93180847168

> <r_mmod_Electrostatic_Energy-OPLS-2005>
-296.791229248047

> <r_mmod_Solvation_Energy-OPLS-2005>
-216.962158203125

> <b_mmod_Minimization_Converged-OPLS-2005>
0

> <r_mmod_RMS_Derivative-OPLS-2005>
6.99398803710938

$$$$
56
                    3D
 Structure written by MMmdl.
164172  0  0  1  0            999 V2000
  -30.6592  -14.7946   20.3940 C   0  0  0  0  0  0
  -30.4369  -12.4804   19.4650 C   0  0  0  0  0  0
  -29.5041  -12.4341   18.2354 C   0  0  0  0  0  0
  -28.0421  -12.2057   18.6716 C   0  0  0  0  0  0
  -27.6106  -13.1448   19.8208 C   0  0  2  0  0  0
  -28.6820  -13.2555   20.9421 C   0  0  0  0  0  0
  -25.2514  -13.7906   20.5771 C   0  0  0  0  0  0
  -24.1746  -13.0276   20.9290 C   0  0  0  0  0  0
  -24.6264  -11.6743   20.8865 C   0  0  0  0  0  0
  -23.8955  -10.4195   21.0493 C   0  0  0  0  0  0
  -24.3529   -9.4105   21.9248 C   0  0  0  0  0  0
  -23.6217   -8.2139   22.0752 C   0  0  0  0  0  0
  -22.4211   -8.0221   21.3527 C   0  0  0  0  0  0
  -21.9847   -9.0201   20.4636 C   0  0  0  0  0  0
  -22.7166  -10.2083   20.3088 C   0  0  0  0  0  0
  -21.6805   -6.0718   22.5309 C   0  0  0  0  0  0
  -21.4007   -6.5633   23.8252 C   0  0  0  0  0  0
  -21.3628   -5.6775   24.9205 C   0  0  0  0  0  0
  -21.6026   -4.3039   24.7248 C   0  0  0  0  0  0
  -21.8822   -3.8137   23.4373 C   0  0  0  0  0  0
  -21.9162   -4.6954   22.3425 C   0  0  0  0  0  0
  -22.7776  -13.5155   21.1898 C   0  0  0  0  0  0
  -22.1641   -4.2149   21.0996 F   0  0  0  0  0  0
  -21.5597   -3.4513   25.7754 F   0  0  0  0  0  0
  -29.9779  -13.5898   20.3256 N   0  0  0  0  0  0
  -26.2812  -12.8898   20.3320 N   0  0  0  0  0  0
  -25.9156  -11.6161   20.5883 N   0  0  0  0  0  0
  -22.0407  -12.8180   22.0451 N   0  0  0  0  0  0
  -25.4202  -15.1635   20.4154 N   0  0  0  0  0  0
  -31.8869  -14.7972   20.2818 O   0  0  0  0  0  0
  -21.6573   -6.8839   21.4250 O   0  0  0  0  0  0
  -22.3494  -14.5464   20.6731 O   0  0  0  0  0  0
  -24.6223  -31.8619   23.2022 C   0  0  0  0  0  0
  -25.9074  -32.4806   23.8359 C   0  0  1  0  0  0
  -27.2400  -27.3414   20.1279 C   0  0  0  0  0  0
  -25.5892  -33.8603   24.2279 N   0  0  0  0  0  0
  -23.4166  -30.4809   21.5457 C   0  0  2  0  0  0
  -24.8674  -28.9355   20.1124 C   0  0  0  0  0  0
  -22.7469  -29.4607   22.4966 C   0  0  0  0  0  0
  -18.0280  -28.1385   22.8499 C   0  0  0  0  0  0
  -24.1487  -36.7308   23.2640 C   0  0  0  0  0  0
  -25.9542  -30.7979   21.3711 C   0  0  0  0  0  0
  -26.0300  -29.4253   20.7179 C   0  0  0  0  0  0
  -27.2150  -28.6394   20.7161 C   0  0  0  0  0  0
  -26.0564  -26.8963   19.4929 C   0  0  0  0  0  0
  -24.8811  -27.6752   19.4907 C   0  0  0  0  0  0
  -23.6310  -29.8109   20.1618 C   0  0  0  0  0  0
  -25.4116  -36.3106   24.0332 C   0  0  1  0  0  0
  -20.5880  -28.3672   23.1310 C   0  0  2  0  0  0
  -20.6771  -26.9394   22.5426 C   0  0  0  0  0  0
  -19.5747  -26.6374   21.5233 C   0  0  0  0  0  0
  -18.1926  -26.7929   22.1632 C   0  0  0  0  0  0
  -19.1533  -28.8848   23.2893 C   0  0  0  0  0  0
  -18.9460  -30.1457   23.8907 C   0  0  0  0  0  0
  -17.6459  -30.6591   24.0566 C   0  0  0  0  0  0
  -25.9046  -34.9474   23.5110 C   0  0  0  0  0  0
  -16.5350  -29.9093   23.6332 C   0  0  0  0  0  0
  -16.7265  -28.6507   23.0359 C   0  0  0  0  0  0
  -26.4444  -31.6631   25.0737 C   0  0  0  0  0  0
  -25.3676  -31.3776   26.1466 C   0  0  0  0  0  0
  -27.0289  -30.3062   24.6177 C   0  0  0  0  0  0
  -27.5994  -32.4374   25.7515 C   0  0  0  0  0  0
  -27.5588  -37.1816   24.8458 C   0  0  0  0  0  0
  -21.4188  -29.3020   22.3712 N   0  0  0  0  0  0
  -26.4301  -37.3797   23.9400 N   0  0  0  0  0  0
  -24.6828  -31.0643   22.0968 N   0  0  0  0  0  0
  -23.4206  -28.8159   23.3048 O   0  0  0  0  0  0
  -28.3920  -26.5481   20.2007 O   0  0  0  0  0  0
  -26.5632  -34.8931   22.4686 O   0  0  0  0  0  0
  -23.5388  -32.1415   23.7358 O   0  0  0  0  0  0
  -30.7938  -19.7152   20.1994 C   0  0  0  0  0  0
  -29.4960  -17.8466   21.8147 C   0  0  0  0  0  0
  -31.0004  -18.3128   19.9709 C   0  0  0  0  0  0
  -29.9290  -20.2166   21.2051 C   0  0  0  0  0  0
  -30.2872  -17.3408   20.7501 C   0  0  0  0  0  0
  -29.3245  -19.2399   22.0372 C   0  0  0  0  0  0
  -32.1879  -18.6510   17.7746 C   0  0  0  0  0  0
  -31.8157  -17.8825   18.8143 C   0  0  0  0  0  0
  -29.5973  -21.6890   21.4015 C   0  0  0  0  0  0
  -29.6020  -22.7418   20.5252 C   0  0  0  0  0  0
  -27.2021  -17.2117   17.7061 C   0  0  0  0  0  0
  -29.3284  -24.2440   20.8798 C   0  0  0  0  0  0
  -28.4635  -17.3562   18.5624 C   0  0  0  0  0  0
  -28.7923  -16.0542   19.3363 C   0  0  0  0  0  0
  -28.3286  -25.0906   19.9931 C   0  0  0  0  0  0
  -29.9577  -16.0015   20.2420 N   0  0  0  0  0  0
  -28.5005  -19.6414   23.0354 F   0  0  0  0  0  0
  -31.4718  -12.6134   19.1457 H   0  0  0  0  0  0
  -30.4070  -11.5375   20.0129 H   0  0  0  0  0  0
  -29.8179  -11.6333   17.5651 H   0  0  0  0  0  0
  -29.5910  -13.3540   17.6569 H   0  0  0  0  0  0
  -27.9485  -11.1667   18.9887 H   0  0  0  0  0  0
  -27.3777  -12.3257   17.8181 H   0  0  0  0  0  0
  -27.4574  -14.0537   19.2783 H   0  0  0  0  0  0
  -28.7633  -12.3209   21.4989 H   0  0  0  0  0  0
  -28.3968  -14.0240   21.6634 H   0  0  0  0  0  0
  -25.2656   -9.5559   22.4867 H   0  0  0  0  0  0
  -23.9913   -7.4479   22.7414 H   0  0  0  0  0  0
  -21.0804   -8.8724   19.8908 H   0  0  0  0  0  0
  -22.3644  -10.9651   19.6222 H   0  0  0  0  0  0
  -21.2070   -7.6156   23.9768 H   0  0  0  0  0  0
  -21.1416   -6.0509   25.9097 H   0  0  0  0  0  0
  -22.0640   -2.7602   23.2885 H   0  0  0  0  0  0
  -22.4032  -11.9843   22.4839 H   0  0  0  0  0  0
  -21.1059  -13.1283   22.2714 H   0  0  0  0  0  0
  -24.6523  -15.8167   20.5334 H   0  0  0  0  0  0
  -26.2632  -15.6056   20.0766 H   0  0  0  0  0  0
  -26.7150  -32.5474   23.1119 H   0  0  0  0  0  0
  -25.0024  -33.9767   25.0411 H   0  0  0  0  0  0
  -22.7082  -31.2980   21.4009 H   0  0  0  0  0  0
  -23.3765  -35.9625   23.3295 H   0  0  0  0  0  0
  -24.3564  -36.8943   22.2054 H   0  0  0  0  0  0
  -23.7227  -37.6498   23.6672 H   0  0  0  0  0  0
  -26.0819  -31.5588   20.5995 H   0  0  0  0  0  0
  -26.8352  -30.8499   21.9984 H   0  0  0  0  0  0
  -28.1059  -29.0138   21.1993 H   0  0  0  0  0  0
  -26.0180  -25.9376   18.9984 H   0  0  0  0  0  0
  -23.9894  -27.2950   19.0097 H   0  0  0  0  0  0
  -23.7452  -30.5859   19.4023 H   0  0  0  0  0  0
  -22.7539  -29.2353   19.8624 H   0  0  0  0  0  0
  -25.1299  -36.1971   25.0832 H   0  0  0  0  0  0
  -20.9961  -28.3234   24.1432 H   0  0  0  0  0  0
  -20.5688  -26.2275   23.3615 H   0  0  0  0  0  0
  -21.6640  -26.7434   22.1203 H   0  0  0  0  0  0
  -19.6898  -25.6286   21.1258 H   0  0  0  0  0  0
  -19.6691  -27.3197   20.6774 H   0  0  0  0  0  0
  -17.4191  -26.6698   21.4019 H   0  0  0  0  0  0
  -18.0289  -26.0068   22.9022 H   0  0  0  0  0  0
  -19.7937  -30.7277   24.2273 H   0  0  0  0  0  0
  -17.5013  -31.6272   24.5164 H   0  0  0  0  0  0
  -15.5353  -30.2999   23.7652 H   0  0  0  0  0  0
  -15.8661  -28.0830   22.7076 H   0  0  0  0  0  0
  -24.5813  -30.7176   25.7777 H   0  0  0  0  0  0
  -24.8916  -32.2966   26.4906 H   0  0  0  0  0  0
  -25.7987  -30.8917   27.0233 H   0  0  0  0  0  0
  -26.2874  -29.6849   24.1141 H   0  0  0  0  0  0
  -27.3935  -29.7270   25.4672 H   0  0  0  0  0  0
  -27.8758  -30.4354   23.9431 H   0  0  0  0  0  0
  -27.2581  -33.3672   26.2082 H   0  0  0  0  0  0
  -28.3813  -32.6964   25.0360 H   0  0  0  0  0  0
  -28.0657  -31.8526   26.5453 H   0  0  0  0  0  0
  -28.2595  -38.0123   24.7526 H   0  0  0  0  0  0
  -28.1102  -36.2659   24.6273 H   0  0  0  0  0  0
  -27.2301  -37.1450   25.8858 H   0  0  0  0  0  0
  -20.9374  -29.8744   21.6918 H   0  0  0  0  0  0
  -26.0192  -38.2874   24.1408 H   0  0  0  0  0  0
  -31.2935  -20.4423   19.5788 H   0  0  0  0  0  0
  -28.9039  -17.1649   22.4076 H   0  0  0  0  0  0
  -32.7998  -18.2425   16.9835 H   0  0  0  0  0  0
  -31.8979  -19.6867   17.6757 H   0  0  0  0  0  0
  -32.1499  -16.8552   18.8149 H   0  0  0  0  0  0
  -29.3420  -21.9344   22.4234 H   0  0  0  0  0  0
  -29.8494  -22.5505   19.4886 H   0  0  0  0  0  0
  -27.0163  -18.1231   17.1371 H   0  0  0  0  0  0
  -26.3214  -17.0221   18.3194 H   0  0  0  0  0  0
  -27.3037  -16.3910   16.9938 H   0  0  0  0  0  0
  -30.2943  -24.7454   20.8485 H   0  0  0  0  0  0
  -28.9973  -24.3052   21.9174 H   0  0  0  0  0  0
  -28.3043  -18.1977   19.2378 H   0  0  0  0  0  0
  -29.2853  -17.6223   17.8984 H   0  0  0  0  0  0
  -28.9021  -15.2871   18.5710 H   0  0  0  0  0  0
  -27.9392  -15.8795   19.9800 H   0  0  0  0  0  0
  -27.3307  -24.7032   20.1939 H   0  0  0  0  0  0
  -28.5364  -24.9056   18.9380 H   0  0  0  0  0  0
  1 25  1  0  0  0
  1 30  2  0  0  0
  1 86  1  0  0  0
  2  3  1  0  0  0
  2 25  1  0  0  0
  2 88  1  0  0  0
  2 89  1  0  0  0
  3  4  1  0  0  0
  3 90  1  0  0  0
  3 91  1  0  0  0
  4  5  1  0  0  0
  4 92  1  0  0  0
  4 93  1  0  0  0
  5  6  1  0  0  0
  5 26  1  0  0  0
  5 94  1  0  0  0
  6 25  1  0  0  0
  6 95  1  0  0  0
  6 96  1  0  0  0
  7  8  2  0  0  0
  7 26  1  0  0  0
  7 29  1  0  0  0
  8  9  1  0  0  0
  8 22  1  0  0  0
  9 10  1  0  0  0
  9 27  2  0  0  0
 10 11  2  0  0  0
 10 15  1  0  0  0
 11 12  1  0  0  0
 11 97  1  0  0  0
 12 13  2  0  0  0
 12 98  1  0  0  0
 13 14  1  0  0  0
 13 31  1  0  0  0
 14 15  2  0  0  0
 14 99  1  0  0  0
 15100  1  0  0  0
 16 17  2  0  0  0
 16 21  1  0  0  0
 16 31  1  0  0  0
 17 18  1  0  0  0
 17101  1  0  0  0
 18 19  2  0  0  0
 18102  1  0  0  0
 19 20  1  0  0  0
 19 24  1  0  0  0
 20 21  2  0  0  0
 20103  1  0  0  0
 21 23  1  0  0  0
 22 28  1  0  0  0
 22 32  2  0  0  0
 26 27  1  0  0  0
 28104  1  0  0  0
 28105  1  0  0  0
 29106  1  0  0  0
 29107  1  0  0  0
 33 34  1  0  0  0
 33 66  1  0  0  0
 33 70  2  0  0  0
 34 36  1  0  0  0
 34 59  1  0  0  0
 34108  1  0  0  0
 35 44  2  0  0  0
 35 45  1  0  0  0
 35 68  1  0  0  0
 36 56  1  0  0  0
 36109  1  0  0  0
 37 39  1  0  0  0
 37 47  1  0  0  0
 37 66  1  0  0  0
 37110  1  0  0  0
 38 43  2  0  0  0
 38 46  1  0  0  0
 38 47  1  0  0  0
 39 64  1  0  0  0
 39 67  2  0  0  0
 40 52  1  0  0  0
 40 53  2  0  0  0
 40 58  1  0  0  0
 41111  1  0  0  0
 41112  1  0  0  0
 41113  1  0  0  0
 41 48  1  0  0  0
 42 43  1  0  0  0
 42 66  1  0  0  0
 42114  1  0  0  0
 42115  1  0  0  0
 43 44  1  0  0  0
 44116  1  0  0  0
 45 46  2  0  0  0
 45117  1  0  0  0
 46118  1  0  0  0
 47119  1  0  0  0
 47120  1  0  0  0
 48 56  1  0  0  0
 48 65  1  0  0  0
 48121  1  0  0  0
 49 50  1  0  0  0
 49 53  1  0  0  0
 49 64  1  0  0  0
 49122  1  0  0  0
 50 51  1  0  0  0
 50123  1  0  0  0
 50124  1  0  0  0
 51 52  1  0  0  0
 51125  1  0  0  0
 51126  1  0  0  0
 52127  1  0  0  0
 52128  1  0  0  0
 53 54  1  0  0  0
 54 55  2  0  0  0
 54129  1  0  0  0
 55 57  1  0  0  0
 55130  1  0  0  0
 56 69  2  0  0  0
 57 58  2  0  0  0
 57131  1  0  0  0
 58132  1  0  0  0
 59 60  1  0  0  0
 59 61  1  0  0  0
 59 62  1  0  0  0
 60133  1  0  0  0
 60134  1  0  0  0
 60135  1  0  0  0
 61136  1  0  0  0
 61137  1  0  0  0
 61138  1  0  0  0
 62139  1  0  0  0
 62140  1  0  0  0
 62141  1  0  0  0
 63 65  1  0  0  0
 63142  1  0  0  0
 63143  1  0  0  0
 63144  1  0  0  0
 64145  1  0  0  0
 65146  1  0  0  0
 68 85  1  0  0  0
 71 73  2  0  0  0
 71 74  1  0  0  0
 71147  1  0  0  0
 72 75  2  0  0  0
 72 76  1  0  0  0
 72148  1  0  0  0
 73 75  1  0  0  0
 73 78  1  0  0  0
 74 76  2  0  0  0
 74 79  1  0  0  0
 75 86  1  0  0  0
 76 87  1  0  0  0
 77 78  2  0  0  0
 77149  1  0  0  0
 77150  1  0  0  0
 78151  1  0  0  0
 79 80  2  0  0  0
 79152  1  0  0  0
 80 82  1  0  0  0
 80153  1  0  0  0
 81 83  1  0  0  0
 81154  1  0  0  0
 81155  1  0  0  0
 81156  1  0  0  0
 82 85  1  0  0  0
 82157  1  0  0  0
 82158  1  0  0  0
 83 84  1  0  0  0
 83159  1  0  0  0
 83160  1  0  0  0
 84 86  1  0  0  0
 84161  1  0  0  0
 84162  1  0  0  0
 85163  1  0  0  0
 85164  1  0  0  0
M  ISO  4   1 100  68 101  85 101  86 100
M  END
> <chiral flag>
0

> <version>
0

> <s_m_source_file>
/data/baiqing/PycharmProjects/Reinvent-master-3.2/result/LINK_invent/BTK/process_docking_weight1_custom_product_contain_oxygen_bond_distance_aromatic_linkinvent_7_9_3/rearranged_h_0122.sdf

> <i_m_source_file_index>
57

> <r_mmod_Potential_Energy-OPLS-2005>
402.004974365234

> <r_mmod_Stretch_Energy-OPLS-2005>
85.464599609375

> <r_mmod_Bend_Energy-OPLS-2005>
160.502426147461

> <r_mmod_Torsional_Energy-OPLS-2005>
346.642669677734

> <r_mmod_Improper_Torsional_Energy-OPLS-2005>
14.6208152770996

> <r_mmod_Van_der_Waal_Energy-OPLS-2005>
161.951766967773

> <r_mmod_Electrostatic_Energy-OPLS-2005>
-283.492950439453

> <r_mmod_Solvation_Energy-OPLS-2005>
-178.903778076172

> <b_mmod_Minimization_Converged-OPLS-2005>
0

> <r_mmod_RMS_Derivative-OPLS-2005>
3.06976509094238

$$$$
57
                    3D
 Structure written by MMmdl.
153162  0  0  1  0            999 V2000
  -30.6845  -14.5729   20.5431 C   0  0  0  0  0  0
  -30.4200  -12.3619   19.4500 C   0  0  0  0  0  0
  -29.4990  -12.5084   18.2208 C   0  0  0  0  0  0
  -28.0214  -12.3563   18.6305 C   0  0  0  0  0  0
  -27.6511  -13.2207   19.8655 C   0  0  2  0  0  0
  -28.6924  -13.0668   20.9955 C   0  0  0  0  0  0
  -25.2542  -13.8184   20.5700 C   0  0  0  0  0  0
  -24.1813  -13.0439   20.9193 C   0  0  0  0  0  0
  -24.6388  -11.6913   20.8740 C   0  0  0  0  0  0
  -23.9064  -10.4292   21.0404 C   0  0  0  0  0  0
  -24.3617   -9.4208   21.9182 C   0  0  0  0  0  0
  -23.6293   -8.2241   22.0755 C   0  0  0  0  0  0
  -22.4277   -8.0278   21.3546 C   0  0  0  0  0  0
  -21.9909   -9.0251   20.4648 C   0  0  0  0  0  0
  -22.7237  -10.2131   20.3056 C   0  0  0  0  0  0
  -21.6854   -6.0732   22.5279 C   0  0  0  0  0  0
  -21.4012   -6.5639   23.8214 C   0  0  0  0  0  0
  -21.3661   -5.6795   24.9175 C   0  0  0  0  0  0
  -21.6043   -4.3054   24.7226 C   0  0  0  0  0  0
  -21.8820   -3.8145   23.4349 C   0  0  0  0  0  0
  -21.9193   -4.6961   22.3401 C   0  0  0  0  0  0
  -22.7836  -13.5229   21.1859 C   0  0  0  0  0  0
  -22.1661   -4.2147   21.0980 F   0  0  0  0  0  0
  -21.5631   -3.4538   25.7739 F   0  0  0  0  0  0
  -30.0129  -13.3840   20.4345 N   0  0  0  0  0  0
  -26.2971  -12.9375   20.3330 N   0  0  0  0  0  0
  -25.9315  -11.6521   20.5761 N   0  0  0  0  0  0
  -22.0481  -12.8217   22.0414 N   0  0  0  0  0  0
  -25.4255  -15.1906   20.4130 N   0  0  0  0  0  0
  -31.8363  -14.6893   20.1108 O   0  0  0  0  0  0
  -21.6644   -6.8877   21.4242 O   0  0  0  0  0  0
  -22.3515  -14.5535   20.6711 O   0  0  0  0  0  0
  -24.6217  -31.8626   23.2056 C   0  0  0  0  0  0
  -25.9086  -32.4783   23.8375 C   0  0  1  0  0  0
  -27.2304  -27.3531   20.1114 C   0  0  0  0  0  0
  -25.5933  -33.8588   24.2310 N   0  0  0  0  0  0
  -23.4124  -30.4857   21.5471 C   0  0  2  0  0  0
  -24.8580  -28.9415   20.1136 C   0  0  0  0  0  0
  -22.7442  -29.4632   22.4963 C   0  0  0  0  0  0
  -18.0278  -28.1359   22.8493 C   0  0  0  0  0  0
  -24.1499  -36.7292   23.2639 C   0  0  0  0  0  0
  -25.9485  -30.8048   21.3683 C   0  0  0  0  0  0
  -26.0224  -29.4324   20.7143 C   0  0  0  0  0  0
  -27.2073  -28.6479   20.7055 C   0  0  0  0  0  0
  -26.0385  -26.8985   19.4986 C   0  0  0  0  0  0
  -24.8660  -27.6782   19.5006 C   0  0  0  0  0  0
  -23.6241  -29.8180   20.1622 C   0  0  0  0  0  0
  -25.4116  -36.3088   24.0340 C   0  0  1  0  0  0
  -20.5874  -28.3659   23.1295 C   0  0  2  0  0  0
  -20.6769  -26.9389   22.5409 C   0  0  0  0  0  0
  -19.5748  -26.6369   21.5206 C   0  0  0  0  0  0
  -18.1927  -26.7907   22.1615 C   0  0  0  0  0  0
  -19.1532  -28.8829   23.2889 C   0  0  0  0  0  0
  -18.9457  -30.1436   23.8893 C   0  0  0  0  0  0
  -17.6457  -30.6570   24.0559 C   0  0  0  0  0  0
  -25.9054  -34.9453   23.5119 C   0  0  0  0  0  0
  -16.5349  -29.9071   23.6321 C   0  0  0  0  0  0
  -16.7270  -28.6484   23.0353 C   0  0  0  0  0  0
  -26.4495  -31.6569   25.0716 C   0  0  0  0  0  0
  -25.3758  -31.3653   26.1464 C   0  0  0  0  0  0
  -27.0326  -30.3010   24.6105 C   0  0  0  0  0  0
  -27.6090  -32.4271   25.7473 C   0  0  0  0  0  0
  -27.5581  -37.1798   24.8465 C   0  0  0  0  0  0
  -21.4163  -29.3027   22.3703 N   0  0  0  0  0  0
  -26.4287  -37.3783   23.9418 N   0  0  0  0  0  0
  -24.6795  -31.0670   22.0980 N   0  0  0  0  0  0
  -23.4185  -28.8178   23.3034 O   0  0  0  0  0  0
  -28.3982  -26.5891   20.1532 O   0  0  0  0  0  0
  -26.5619  -34.8915   22.4680 O   0  0  0  0  0  0
  -23.5395  -32.1412   23.7406 O   0  0  0  0  0  0
  -29.4401  -19.8419   23.1404 C   0  0  0  0  0  0
  -29.6941  -18.4837   23.4406 C   0  0  0  0  0  0
  -29.3499  -19.3583   20.7475 C   0  0  0  0  0  0
  -29.6022  -17.9846   21.0725 C   0  0  0  0  0  0
  -29.2580  -20.3210   21.8102 C   0  0  0  0  0  0
  -29.7692  -17.5753   22.3760 C   0  0  0  0  0  0
  -29.7706  -16.7763   20.1900 C   0  0  0  0  0  0
  -28.9986  -21.8085   21.7085 C   0  0  0  0  0  0
  -28.8476  -22.6874   20.6737 C   0  0  0  0  0  0
  -28.5972  -24.1640   20.9241 C   0  0  0  0  0  0
  -30.0338  -16.0838   22.3989 C   0  0  0  0  0  0
  -28.4420  -25.1752   19.7407 C   0  0  0  0  0  0
  -29.9896  -15.6701   20.9743 N   0  0  0  0  0  0
  -29.7152  -16.8295   18.9563 O   0  0  0  0  0  0
  -28.5177  -24.6155   22.0726 O   0  0  0  0  0  0
  -31.4649  -12.4560   19.1501 H   0  0  0  0  0  0
  -30.3268  -11.3641   19.8818 H   0  0  0  0  0  0
  -29.7553  -11.7638   17.4656 H   0  0  0  0  0  0
  -29.6546  -13.4833   17.7558 H   0  0  0  0  0  0
  -27.8482  -11.3024   18.8516 H   0  0  0  0  0  0
  -27.3695  -12.5998   17.7907 H   0  0  0  0  0  0
  -27.6749  -14.2596   19.5353 H   0  0  0  0  0  0
  -28.6873  -12.0477   21.3855 H   0  0  0  0  0  0
  -28.4396  -13.7091   21.8389 H   0  0  0  0  0  0
  -25.2764   -9.5679   22.4757 H   0  0  0  0  0  0
  -24.0005   -7.4630   22.7471 H   0  0  0  0  0  0
  -21.0842   -8.8764   19.8954 H   0  0  0  0  0  0
  -22.3697  -10.9664   19.6164 H   0  0  0  0  0  0
  -21.2004   -7.6148   23.9714 H   0  0  0  0  0  0
  -21.1483   -6.0525   25.9078 H   0  0  0  0  0  0
  -22.0599   -2.7609   23.2850 H   0  0  0  0  0  0
  -22.4093  -11.9874   22.4793 H   0  0  0  0  0  0
  -21.1106  -13.1240   22.2636 H   0  0  0  0  0  0
  -24.6605  -15.8466   20.5301 H   0  0  0  0  0  0
  -26.2788  -15.6314   20.0947 H   0  0  0  0  0  0
  -26.7155  -32.5469   23.1132 H   0  0  0  0  0  0
  -25.0119  -33.9755   25.0482 H   0  0  0  0  0  0
  -22.7043  -31.3044   21.4048 H   0  0  0  0  0  0
  -23.3759  -35.9626   23.3305 H   0  0  0  0  0  0
  -24.3595  -36.8897   22.2050 H   0  0  0  0  0  0
  -23.7253  -37.6500   23.6651 H   0  0  0  0  0  0
  -26.0710  -31.5669   20.5970 H   0  0  0  0  0  0
  -26.8331  -30.8582   21.9908 H   0  0  0  0  0  0
  -28.1040  -29.0242   21.1773 H   0  0  0  0  0  0
  -25.9697  -25.9390   19.0132 H   0  0  0  0  0  0
  -23.9705  -27.2942   19.0309 H   0  0  0  0  0  0
  -23.7386  -30.5939   19.4043 H   0  0  0  0  0  0
  -22.7458  -29.2440   19.8621 H   0  0  0  0  0  0
  -25.1282  -36.1951   25.0831 H   0  0  0  0  0  0
  -20.9969  -28.3225   24.1413 H   0  0  0  0  0  0
  -20.5650  -26.2270   23.3602 H   0  0  0  0  0  0
  -21.6640  -26.7417   22.1208 H   0  0  0  0  0  0
  -19.6913  -25.6284   21.1223 H   0  0  0  0  0  0
  -19.6683  -27.3188   20.6742 H   0  0  0  0  0  0
  -17.4197  -26.6658   21.4020 H   0  0  0  0  0  0
  -18.0335  -26.0033   22.8994 H   0  0  0  0  0  0
  -19.7938  -30.7253   24.2257 H   0  0  0  0  0  0
  -17.5015  -31.6254   24.5156 H   0  0  0  0  0  0
  -15.5353  -30.2973   23.7642 H   0  0  0  0  0  0
  -15.8666  -28.0799   22.7074 H   0  0  0  0  0  0
  -24.5989  -30.6925   25.7806 H   0  0  0  0  0  0
  -24.8877  -32.2779   26.4897 H   0  0  0  0  0  0
  -25.8135  -30.8859   27.0232 H   0  0  0  0  0  0
  -26.2861  -29.6759   24.1189 H   0  0  0  0  0  0
  -27.4125  -29.7261   25.4560 H   0  0  0  0  0  0
  -27.8692  -30.4320   23.9236 H   0  0  0  0  0  0
  -27.2758  -33.3594   26.2048 H   0  0  0  0  0  0
  -28.3913  -32.6778   25.0291 H   0  0  0  0  0  0
  -28.0746  -31.8370   26.5380 H   0  0  0  0  0  0
  -28.2589  -38.0108   24.7538 H   0  0  0  0  0  0
  -28.1085  -36.2637   24.6256 H   0  0  0  0  0  0
  -27.2302  -37.1408   25.8869 H   0  0  0  0  0  0
  -20.9333  -29.8767   21.6932 H   0  0  0  0  0  0
  -26.0168  -38.2853   24.1430 H   0  0  0  0  0  0
  -29.3874  -20.5326   23.9712 H   0  0  0  0  0  0
  -29.8289  -18.1581   24.4633 H   0  0  0  0  0  0
  -29.2299  -19.6585   19.7164 H   0  0  0  0  0  0
  -28.9153  -22.2647   22.6856 H   0  0  0  0  0  0
  -28.9087  -22.3504   19.6498 H   0  0  0  0  0  0
  -29.2669  -15.5745   22.9826 H   0  0  0  0  0  0
  -31.0073  -15.8798   22.8495 H   0  0  0  0  0  0
  -27.6073  -24.8641   19.1205 H   0  0  0  0  0  0
  -29.3231  -25.0597   19.1098 H   0  0  0  0  0  0
  1 25  1  0  0  0
  1 30  2  0  0  0
  1 83  1  0  0  0
  2  3  1  0  0  0
  2 25  1  0  0  0
  2 86  1  0  0  0
  2 87  1  0  0  0
  3  4  1  0  0  0
  3 88  1  0  0  0
  3 89  1  0  0  0
  4  5  1  0  0  0
  4 90  1  0  0  0
  4 91  1  0  0  0
  5  6  1  0  0  0
  5 26  1  0  0  0
  5 92  1  0  0  0
  6 25  1  0  0  0
  6 93  1  0  0  0
  6 94  1  0  0  0
  7  8  2  0  0  0
  7 26  1  0  0  0
  7 29  1  0  0  0
  8  9  1  0  0  0
  8 22  1  0  0  0
  9 10  1  0  0  0
  9 27  2  0  0  0
 10 11  2  0  0  0
 10 15  1  0  0  0
 11 12  1  0  0  0
 11 95  1  0  0  0
 12 13  2  0  0  0
 12 96  1  0  0  0
 13 14  1  0  0  0
 13 31  1  0  0  0
 14 15  2  0  0  0
 14 97  1  0  0  0
 15 98  1  0  0  0
 16 17  2  0  0  0
 16 21  1  0  0  0
 16 31  1  0  0  0
 17 18  1  0  0  0
 17 99  1  0  0  0
 18 19  2  0  0  0
 18100  1  0  0  0
 19 20  1  0  0  0
 19 24  1  0  0  0
 20 21  2  0  0  0
 20101  1  0  0  0
 21 23  1  0  0  0
 22 28  1  0  0  0
 22 32  2  0  0  0
 26 27  1  0  0  0
 28102  1  0  0  0
 28103  1  0  0  0
 29104  1  0  0  0
 29105  1  0  0  0
 33 34  1  0  0  0
 33 66  1  0  0  0
 33 70  2  0  0  0
 34 36  1  0  0  0
 34 59  1  0  0  0
 34106  1  0  0  0
 35 44  2  0  0  0
 35 45  1  0  0  0
 35 68  1  0  0  0
 36 56  1  0  0  0
 36107  1  0  0  0
 37 39  1  0  0  0
 37 47  1  0  0  0
 37 66  1  0  0  0
 37108  1  0  0  0
 38 43  2  0  0  0
 38 46  1  0  0  0
 38 47  1  0  0  0
 39 64  1  0  0  0
 39 67  2  0  0  0
 40 52  1  0  0  0
 40 53  2  0  0  0
 40 58  1  0  0  0
 41109  1  0  0  0
 41110  1  0  0  0
 41111  1  0  0  0
 41 48  1  0  0  0
 42 43  1  0  0  0
 42 66  1  0  0  0
 42112  1  0  0  0
 42113  1  0  0  0
 43 44  1  0  0  0
 44114  1  0  0  0
 45 46  2  0  0  0
 45115  1  0  0  0
 46116  1  0  0  0
 47117  1  0  0  0
 47118  1  0  0  0
 48 56  1  0  0  0
 48 65  1  0  0  0
 48119  1  0  0  0
 49 50  1  0  0  0
 49 53  1  0  0  0
 49 64  1  0  0  0
 49120  1  0  0  0
 50 51  1  0  0  0
 50121  1  0  0  0
 50122  1  0  0  0
 51 52  1  0  0  0
 51123  1  0  0  0
 51124  1  0  0  0
 52125  1  0  0  0
 52126  1  0  0  0
 53 54  1  0  0  0
 54 55  2  0  0  0
 54127  1  0  0  0
 55 57  1  0  0  0
 55128  1  0  0  0
 56 69  2  0  0  0
 57 58  2  0  0  0
 57129  1  0  0  0
 58130  1  0  0  0
 59 60  1  0  0  0
 59 61  1  0  0  0
 59 62  1  0  0  0
 60131  1  0  0  0
 60132  1  0  0  0
 60133  1  0  0  0
 61134  1  0  0  0
 61135  1  0  0  0
 61136  1  0  0  0
 62137  1  0  0  0
 62138  1  0  0  0
 62139  1  0  0  0
 63 65  1  0  0  0
 63140  1  0  0  0
 63141  1  0  0  0
 63142  1  0  0  0
 64143  1  0  0  0
 65144  1  0  0  0
 68 82  1  0  0  0
 71 72  2  0  0  0
 71 75  1  0  0  0
 71145  1  0  0  0
 72 76  1  0  0  0
 72146  1  0  0  0
 73 74  1  0  0  0
 73 75  2  0  0  0
 73147  1  0  0  0
 74 76  2  0  0  0
 74 77  1  0  0  0
 75 78  1  0  0  0
 76 81  1  0  0  0
 77 83  1  0  0  0
 77 84  2  0  0  0
 78 79  2  0  0  0
 78148  1  0  0  0
 79 80  1  0  0  0
 79149  1  0  0  0
 80 82  1  0  0  0
 80 85  2  0  0  0
 81 83  1  0  0  0
 81150  1  0  0  0
 81151  1  0  0  0
 82152  1  0  0  0
 82153  1  0  0  0
M  ISO  4   1 100  68 101  82 101  83 100
M  END
> <chiral flag>
0

> <version>
0

> <s_m_source_file>
/data/baiqing/PycharmProjects/Reinvent-master-3.2/result/LINK_invent/BTK/process_docking_weight1_custom_product_contain_oxygen_bond_distance_aromatic_linkinvent_7_9_3/rearranged_h_0122.sdf

> <i_m_source_file_index>
58

> <r_mmod_Potential_Energy-OPLS-2005>
173.905136108398

> <r_mmod_Stretch_Energy-OPLS-2005>
67.6247024536133

> <r_mmod_Bend_Energy-OPLS-2005>
197.327758789062

> <r_mmod_Torsional_Energy-OPLS-2005>
288.578338623047

> <r_mmod_Improper_Torsional_Energy-OPLS-2005>
6.13381433486938

> <r_mmod_Van_der_Waal_Energy-OPLS-2005>
141.832824707031

> <r_mmod_Electrostatic_Energy-OPLS-2005>
-335.99658203125

> <r_mmod_Solvation_Energy-OPLS-2005>
-221.50129699707

> <b_mmod_Minimization_Converged-OPLS-2005>
0

> <r_mmod_RMS_Derivative-OPLS-2005>
1.07368111610413

$$$$
58
                    3D
 Structure written by MMmdl.
163171  0  0  1  0            999 V2000
  -30.7367  -14.5219   20.5945 C   0  0  0  0  0  0
  -30.4010  -12.3537   19.4614 C   0  0  0  0  0  0
  -29.5021  -12.5153   18.2251 C   0  0  0  0  0  0
  -28.0212  -12.3752   18.6220 C   0  0  0  0  0  0
  -27.6459  -13.2251   19.8676 C   0  0  2  0  0  0
  -28.6762  -13.0431   20.9968 C   0  0  0  0  0  0
  -25.2502  -13.8214   20.5641 C   0  0  0  0  0  0
  -24.1778  -13.0452   20.9103 C   0  0  0  0  0  0
  -24.6337  -11.6922   20.8611 C   0  0  0  0  0  0
  -23.8998  -10.4306   21.0295 C   0  0  0  0  0  0
  -24.3576   -9.4272   21.9101 C   0  0  0  0  0  0
  -23.6283   -8.2293   22.0730 C   0  0  0  0  0  0
  -22.4257   -8.0281   21.3541 C   0  0  0  0  0  0
  -21.9854   -9.0225   20.4627 C   0  0  0  0  0  0
  -22.7150  -10.2117   20.2993 C   0  0  0  0  0  0
  -21.6880   -6.0711   22.5265 C   0  0  0  0  0  0
  -21.4036   -6.5627   23.8193 C   0  0  0  0  0  0
  -21.3670   -5.6790   24.9163 C   0  0  0  0  0  0
  -21.6042   -4.3045   24.7214 C   0  0  0  0  0  0
  -21.8840   -3.8125   23.4343 C   0  0  0  0  0  0
  -21.9214   -4.6937   22.3396 C   0  0  0  0  0  0
  -22.7834  -13.5257   21.1883 C   0  0  0  0  0  0
  -22.1685   -4.2132   21.0966 F   0  0  0  0  0  0
  -21.5619   -3.4529   25.7719 F   0  0  0  0  0  0
  -29.9989  -13.3776   20.4542 N   0  0  0  0  0  0
  -26.2912  -12.9398   20.3265 N   0  0  0  0  0  0
  -25.9252  -11.6520   20.5633 N   0  0  0  0  0  0
  -22.0510  -12.8179   22.0435 N   0  0  0  0  0  0
  -25.4253  -15.1903   20.4105 N   0  0  0  0  0  0
  -31.8530  -14.6078   20.0799 O   0  0  0  0  0  0
  -21.6686   -6.8842   21.4215 O   0  0  0  0  0  0
  -22.3509  -14.5604   20.6827 O   0  0  0  0  0  0
  -24.6166  -31.8688   23.2170 C   0  0  0  0  0  0
  -25.9040  -32.4825   23.8453 C   0  0  1  0  0  0
  -27.1814  -27.3764   20.1106 C   0  0  0  0  0  0
  -25.5885  -33.8632   24.2349 N   0  0  0  0  0  0
  -23.4008  -30.4957   21.5626 C   0  0  2  0  0  0
  -24.8333  -28.9750   20.1062 C   0  0  0  0  0  0
  -22.7417  -29.4680   22.5074 C   0  0  0  0  0  0
  -18.0341  -28.1251   22.8431 C   0  0  0  0  0  0
  -24.1479  -36.7294   23.2641 C   0  0  0  0  0  0
  -25.9375  -30.8189   21.3725 C   0  0  0  0  0  0
  -26.0037  -29.4560   20.7102 C   0  0  0  0  0  0
  -27.1820  -28.6639   20.7066 C   0  0  0  0  0  0
  -25.9968  -26.9540   19.4513 C   0  0  0  0  0  0
  -24.8282  -27.7298   19.4701 C   0  0  0  0  0  0
  -23.5970  -29.8398   20.1743 C   0  0  0  0  0  0
  -25.4112  -36.3127   24.0349 C   0  0  1  0  0  0
  -20.5874  -28.3604   23.1286 C   0  0  2  0  0  0
  -20.6838  -26.9334   22.5312 C   0  0  0  0  0  0
  -19.5844  -26.6279   21.5114 C   0  0  0  0  0  0
  -18.2057  -26.7795   22.1563 C   0  0  0  0  0  0
  -19.1535  -28.8755   23.2826 C   0  0  0  0  0  0
  -18.9411  -30.1321   23.8895 C   0  0  0  0  0  0
  -17.6393  -30.6475   24.0520 C   0  0  0  0  0  0
  -25.9037  -34.9488   23.5166 C   0  0  0  0  0  0
  -16.5352  -29.8968   23.6185 C   0  0  0  0  0  0
  -16.7298  -28.6382   23.0213 C   0  0  0  0  0  0
  -26.4458  -31.6572   25.0762 C   0  0  0  0  0  0
  -25.3729  -31.3618   26.1510 C   0  0  0  0  0  0
  -27.0267  -30.3024   24.6093 C   0  0  0  0  0  0
  -27.6074  -32.4272   25.7480 C   0  0  0  0  0  0
  -27.5588  -37.1812   24.8478 C   0  0  0  0  0  0
  -21.4162  -29.2933   22.3702 N   0  0  0  0  0  0
  -26.4310  -37.3798   23.9408 N   0  0  0  0  0  0
  -24.6718  -31.0760   22.1088 N   0  0  0  0  0  0
  -23.4199  -28.8315   23.3203 O   0  0  0  0  0  0
  -28.3073  -26.5649   20.2018 O   0  0  0  0  0  0
  -26.5648  -34.8949   22.4754 O   0  0  0  0  0  0
  -23.5360  -32.1467   23.7554 O   0  0  0  0  0  0
  -27.3667  -16.6266   23.2780 C   0  0  0  0  0  0
  -26.8987  -17.7652   22.6082 C   0  0  0  0  0  0
  -28.4719  -15.9156   22.7864 C   0  0  0  0  0  0
  -27.5488  -18.2495   21.4538 C   0  0  0  0  0  0
  -28.6551  -17.5089   20.9347 C   0  0  0  0  0  0
  -29.0936  -16.3046   21.5827 C   0  0  0  0  0  0
  -26.8688  -19.3735   20.7591 C   0  0  0  0  0  0
  -27.0406  -20.7195   20.7820 C   0  0  0  0  0  0
  -30.5960  -18.9039   20.0373 C   0  0  0  0  0  0
  -29.3828  -18.0209   19.6928 C   0  0  0  0  0  0
  -28.0476  -21.6239   21.4959 C   0  0  0  0  0  0
  -28.6719  -22.6667   20.5143 C   0  0  0  0  0  0
  -28.8105  -24.1603   20.9662 C   0  0  0  0  0  0
  -28.1577  -25.1390   19.9505 C   0  0  0  0  0  0
  -30.3213  -15.6677   21.1977 N   0  0  0  0  0  0
  -31.4503  -12.4247   19.1664 H   0  0  0  0  0  0
  -30.2900  -11.3525   19.8796 H   0  0  0  0  0  0
  -29.7608  -11.7674   17.4721 H   0  0  0  0  0  0
  -29.6869  -13.4859   17.7618 H   0  0  0  0  0  0
  -27.8349  -11.3229   18.8214 H   0  0  0  0  0  0
  -27.3841  -12.6345   17.7763 H   0  0  0  0  0  0
  -27.6801  -14.2719   19.5625 H   0  0  0  0  0  0
  -28.6648  -12.0146   21.3554 H   0  0  0  0  0  0
  -28.4000  -13.6236   21.8636 H   0  0  0  0  0  0
  -25.2702   -9.5836   22.4680 H   0  0  0  0  0  0
  -24.0033   -7.4719   22.7457 H   0  0  0  0  0  0
  -21.0798   -8.8684   19.8935 H   0  0  0  0  0  0
  -22.3532  -10.9633   19.6121 H   0  0  0  0  0  0
  -21.2054   -7.6141   23.9694 H   0  0  0  0  0  0
  -21.1462   -6.0509   25.9066 H   0  0  0  0  0  0
  -22.0609   -2.7583   23.2837 H   0  0  0  0  0  0
  -22.4154  -11.9772   22.4674 H   0  0  0  0  0  0
  -21.1164  -13.1195   22.2754 H   0  0  0  0  0  0
  -24.6777  -15.8557   20.5722 H   0  0  0  0  0  0
  -26.3201  -15.6285   20.2212 H   0  0  0  0  0  0
  -26.7083  -32.5480   23.1186 H   0  0  0  0  0  0
  -24.9901  -33.9729   25.0408 H   0  0  0  0  0  0
  -22.6906  -31.3172   21.4379 H   0  0  0  0  0  0
  -23.3766  -35.9593   23.3334 H   0  0  0  0  0  0
  -24.3551  -36.8881   22.2041 H   0  0  0  0  0  0
  -23.7208  -37.6507   23.6622 H   0  0  0  0  0  0
  -26.0519  -31.5844   20.6015 H   0  0  0  0  0  0
  -26.8269  -30.8619   21.9926 H   0  0  0  0  0  0
  -28.0772  -29.0266   21.1922 H   0  0  0  0  0  0
  -25.9243  -26.0234   18.9116 H   0  0  0  0  0  0
  -23.9315  -27.3625   18.9873 H   0  0  0  0  0  0
  -23.6906  -30.6188   19.4198 H   0  0  0  0  0  0
  -22.7148  -29.2586   19.8848 H   0  0  0  0  0  0
  -25.1285  -36.2025   25.0842 H   0  0  0  0  0  0
  -20.9873  -28.3118   24.1440 H   0  0  0  0  0  0
  -20.5896  -26.2168   23.3492 H   0  0  0  0  0  0
  -21.6669  -26.7504   22.0978 H   0  0  0  0  0  0
  -19.7068  -25.6173   21.1195 H   0  0  0  0  0  0
  -19.6788  -27.3070   20.6620 H   0  0  0  0  0  0
  -17.4332  -26.6429   21.3970 H   0  0  0  0  0  0
  -18.0674  -25.9933   22.8936 H   0  0  0  0  0  0
  -19.7835  -30.7089   24.2384 H   0  0  0  0  0  0
  -17.4902  -31.6143   24.5162 H   0  0  0  0  0  0
  -15.5331  -30.2777   23.7536 H   0  0  0  0  0  0
  -15.8724  -28.0686   22.6866 H   0  0  0  0  0  0
  -24.5955  -30.6890   25.7852 H   0  0  0  0  0  0
  -24.8833  -32.2702   26.5019 H   0  0  0  0  0  0
  -25.8122  -30.8786   27.0240 H   0  0  0  0  0  0
  -26.2783  -29.6856   24.1094 H   0  0  0  0  0  0
  -27.3966  -29.7196   25.4538 H   0  0  0  0  0  0
  -27.8658  -30.4366   23.9266 H   0  0  0  0  0  0
  -27.2741  -33.3590   26.2062 H   0  0  0  0  0  0
  -28.3844  -32.6797   25.0248 H   0  0  0  0  0  0
  -28.0753  -31.8382   26.5371 H   0  0  0  0  0  0
  -28.2666  -38.0065   24.7547 H   0  0  0  0  0  0
  -28.1052  -36.2624   24.6312 H   0  0  0  0  0  0
  -27.2293  -37.1448   25.8879 H   0  0  0  0  0  0
  -20.9382  -29.8265   21.6615 H   0  0  0  0  0  0
  -26.0238  -38.2892   24.1412 H   0  0  0  0  0  0
  -26.8757  -16.3077   24.1845 H   0  0  0  0  0  0
  -26.0266  -18.2731   22.9958 H   0  0  0  0  0  0
  -28.8432  -15.0887   23.3772 H   0  0  0  0  0  0
  -26.0561  -19.0404   20.1251 H   0  0  0  0  0  0
  -26.3287  -21.2771   20.1875 H   0  0  0  0  0  0
  -30.3292  -19.7457   20.6686 H   0  0  0  0  0  0
  -31.0540  -19.3104   19.1344 H   0  0  0  0  0  0
  -31.3584  -18.3320   20.5648 H   0  0  0  0  0  0
  -29.7068  -17.1733   19.0925 H   0  0  0  0  0  0
  -28.6968  -18.5736   19.0506 H   0  0  0  0  0  0
  -28.8210  -21.0274   21.9880 H   0  0  0  0  0  0
  -27.5160  -22.1503   22.2917 H   0  0  0  0  0  0
  -28.1025  -22.6444   19.5864 H   0  0  0  0  0  0
  -29.6520  -22.2959   20.2190 H   0  0  0  0  0  0
  -28.3631  -24.3143   21.9483 H   0  0  0  0  0  0
  -29.8681  -24.4058   21.0854 H   0  0  0  0  0  0
  -27.1225  -24.8086   19.9536 H   0  0  0  0  0  0
  -28.5501  -24.9478   18.9532 H   0  0  0  0  0  0
  -31.0555  -16.3458   21.0686 H   0  0  0  0  0  0
  1 25  1  0  0  0
  1 30  2  0  0  0
  1 85  1  0  0  0
  2  3  1  0  0  0
  2 25  1  0  0  0
  2 86  1  0  0  0
  2 87  1  0  0  0
  3  4  1  0  0  0
  3 88  1  0  0  0
  3 89  1  0  0  0
  4  5  1  0  0  0
  4 90  1  0  0  0
  4 91  1  0  0  0
  5  6  1  0  0  0
  5 26  1  0  0  0
  5 92  1  0  0  0
  6 25  1  0  0  0
  6 93  1  0  0  0
  6 94  1  0  0  0
  7  8  2  0  0  0
  7 26  1  0  0  0
  7 29  1  0  0  0
  8  9  1  0  0  0
  8 22  1  0  0  0
  9 10  1  0  0  0
  9 27  2  0  0  0
 10 11  2  0  0  0
 10 15  1  0  0  0
 11 12  1  0  0  0
 11 95  1  0  0  0
 12 13  2  0  0  0
 12 96  1  0  0  0
 13 14  1  0  0  0
 13 31  1  0  0  0
 14 15  2  0  0  0
 14 97  1  0  0  0
 15 98  1  0  0  0
 16 17  2  0  0  0
 16 21  1  0  0  0
 16 31  1  0  0  0
 17 18  1  0  0  0
 17 99  1  0  0  0
 18 19  2  0  0  0
 18100  1  0  0  0
 19 20  1  0  0  0
 19 24  1  0  0  0
 20 21  2  0  0  0
 20101  1  0  0  0
 21 23  1  0  0  0
 22 28  1  0  0  0
 22 32  2  0  0  0
 26 27  1  0  0  0
 28102  1  0  0  0
 28103  1  0  0  0
 29104  1  0  0  0
 29105  1  0  0  0
 33 34  1  0  0  0
 33 66  1  0  0  0
 33 70  2  0  0  0
 34 36  1  0  0  0
 34 59  1  0  0  0
 34106  1  0  0  0
 35 44  2  0  0  0
 35 45  1  0  0  0
 35 68  1  0  0  0
 36 56  1  0  0  0
 36107  1  0  0  0
 37 39  1  0  0  0
 37 47  1  0  0  0
 37 66  1  0  0  0
 37108  1  0  0  0
 38 43  2  0  0  0
 38 46  1  0  0  0
 38 47  1  0  0  0
 39 64  1  0  0  0
 39 67  2  0  0  0
 40 52  1  0  0  0
 40 53  2  0  0  0
 40 58  1  0  0  0
 41109  1  0  0  0
 41110  1  0  0  0
 41111  1  0  0  0
 41 48  1  0  0  0
 42 43  1  0  0  0
 42 66  1  0  0  0
 42112  1  0  0  0
 42113  1  0  0  0
 43 44  1  0  0  0
 44114  1  0  0  0
 45 46  2  0  0  0
 45115  1  0  0  0
 46116  1  0  0  0
 47117  1  0  0  0
 47118  1  0  0  0
 48 56  1  0  0  0
 48 65  1  0  0  0
 48119  1  0  0  0
 49 50  1  0  0  0
 49 53  1  0  0  0
 49 64  1  0  0  0
 49120  1  0  0  0
 50 51  1  0  0  0
 50121  1  0  0  0
 50122  1  0  0  0
 51 52  1  0  0  0
 51123  1  0  0  0
 51124  1  0  0  0
 52125  1  0  0  0
 52126  1  0  0  0
 53 54  1  0  0  0
 54 55  2  0  0  0
 54127  1  0  0  0
 55 57  1  0  0  0
 55128  1  0  0  0
 56 69  2  0  0  0
 57 58  2  0  0  0
 57129  1  0  0  0
 58130  1  0  0  0
 59 60  1  0  0  0
 59 61  1  0  0  0
 59 62  1  0  0  0
 60131  1  0  0  0
 60132  1  0  0  0
 60133  1  0  0  0
 61134  1  0  0  0
 61135  1  0  0  0
 61136  1  0  0  0
 62137  1  0  0  0
 62138  1  0  0  0
 62139  1  0  0  0
 63 65  1  0  0  0
 63140  1  0  0  0
 63141  1  0  0  0
 63142  1  0  0  0
 64143  1  0  0  0
 65144  1  0  0  0
 68 84  1  0  0  0
 71 72  2  0  0  0
 71 73  1  0  0  0
 71145  1  0  0  0
 72 74  1  0  0  0
 72146  1  0  0  0
 73 76  2  0  0  0
 73147  1  0  0  0
 74 75  2  0  0  0
 74 77  1  0  0  0
 75 76  1  0  0  0
 75 80  1  0  0  0
 76 85  1  0  0  0
 77 78  2  0  0  0
 77148  1  0  0  0
 78 81  1  0  0  0
 78149  1  0  0  0
 79 80  1  0  0  0
 79150  1  0  0  0
 79151  1  0  0  0
 79152  1  0  0  0
 80153  1  0  0  0
 80154  1  0  0  0
 81 82  1  0  0  0
 81155  1  0  0  0
 81156  1  0  0  0
 82 83  1  0  0  0
 82157  1  0  0  0
 82158  1  0  0  0
 83 84  1  0  0  0
 83159  1  0  0  0
 83160  1  0  0  0
 84161  1  0  0  0
 84162  1  0  0  0
 85163  1  0  0  0
M  ISO  4   1 100  68 101  84 101  85 100
M  END
> <chiral flag>
0

> <version>
0

> <s_m_source_file>
/data/baiqing/PycharmProjects/Reinvent-master-3.2/result/LINK_invent/BTK/process_docking_weight1_custom_product_contain_oxygen_bond_distance_aromatic_linkinvent_7_9_3/rearranged_h_0122.sdf

> <i_m_source_file_index>
59

> <r_mmod_Potential_Energy-OPLS-2005>
147.495941162109

> <r_mmod_Stretch_Energy-OPLS-2005>
49.3834419250488

> <r_mmod_Bend_Energy-OPLS-2005>
192.92887878418

> <r_mmod_Torsional_Energy-OPLS-2005>
283.598358154297

> <r_mmod_Improper_Torsional_Energy-OPLS-2005>
6.53214645385742

> <r_mmod_Van_der_Waal_Energy-OPLS-2005>
144.827987670898

> <r_mmod_Electrostatic_Energy-OPLS-2005>
-379.914489746094

> <r_mmod_Solvation_Energy-OPLS-2005>
-179.604309082031

> <b_mmod_Minimization_Converged-OPLS-2005>
0

> <r_mmod_RMS_Derivative-OPLS-2005>
7.63815402984619

$$$$
59
                    3D
 Structure written by MMmdl.
158166  0  0  1  0            999 V2000
  -30.6555  -14.5370   20.4777 C   0  0  0  0  0  0
  -30.4325  -12.3189   19.4362 C   0  0  0  0  0  0
  -29.5024  -12.4885   18.2138 C   0  0  0  0  0  0
  -28.0212  -12.3364   18.6191 C   0  0  0  0  0  0
  -27.6540  -13.1931   19.8576 C   0  0  2  0  0  0
  -28.7007  -13.0076   20.9827 C   0  0  0  0  0  0
  -25.2584  -13.8113   20.5667 C   0  0  0  0  0  0
  -24.1827  -13.0411   20.9163 C   0  0  0  0  0  0
  -24.6375  -11.6879   20.8717 C   0  0  0  0  0  0
  -23.9046  -10.4282   21.0402 C   0  0  0  0  0  0
  -24.3609   -9.4203   21.9178 C   0  0  0  0  0  0
  -23.6287   -8.2239   22.0748 C   0  0  0  0  0  0
  -22.4268   -8.0278   21.3541 C   0  0  0  0  0  0
  -21.9899   -9.0250   20.4643 C   0  0  0  0  0  0
  -22.7224  -10.2129   20.3049 C   0  0  0  0  0  0
  -21.6851   -6.0735   22.5281 C   0  0  0  0  0  0
  -21.4009   -6.5640   23.8216 C   0  0  0  0  0  0
  -21.3652   -5.6792   24.9179 C   0  0  0  0  0  0
  -21.6046   -4.3056   24.7227 C   0  0  0  0  0  0
  -21.8822   -3.8147   23.4350 C   0  0  0  0  0  0
  -21.9189   -4.6962   22.3404 C   0  0  0  0  0  0
  -22.7857  -13.5218   21.1850 C   0  0  0  0  0  0
  -22.1659   -4.2151   21.0982 F   0  0  0  0  0  0
  -21.5633   -3.4537   25.7735 F   0  0  0  0  0  0
  -30.0314  -13.3224   20.4364 N   0  0  0  0  0  0
  -26.2990  -12.9251   20.3284 N   0  0  0  0  0  0
  -25.9290  -11.6434   20.5727 N   0  0  0  0  0  0
  -22.0494  -12.8214   22.0409 N   0  0  0  0  0  0
  -25.4308  -15.1834   20.4142 N   0  0  0  0  0  0
  -31.8448  -14.6656   20.1732 O   0  0  0  0  0  0
  -21.6635   -6.8878   21.4245 O   0  0  0  0  0  0
  -22.3544  -14.5532   20.6709 O   0  0  0  0  0  0
  -24.6151  -31.8670   23.2079 C   0  0  0  0  0  0
  -25.9041  -32.4817   23.8382 C   0  0  1  0  0  0
  -27.2403  -27.4141   20.0883 C   0  0  0  0  0  0
  -25.5895  -33.8614   24.2311 N   0  0  0  0  0  0
  -23.4038  -30.4897   21.5496 C   0  0  2  0  0  0
  -24.8496  -28.9517   20.1175 C   0  0  0  0  0  0
  -22.7413  -29.4654   22.4993 C   0  0  0  0  0  0
  -18.0277  -28.1370   22.8491 C   0  0  0  0  0  0
  -24.1489  -36.7314   23.2637 C   0  0  0  0  0  0
  -25.9351  -30.8247   21.3646 C   0  0  0  0  0  0
  -26.0106  -29.4562   20.7135 C   0  0  0  0  0  0
  -27.2029  -28.6935   20.6993 C   0  0  0  0  0  0
  -26.0471  -26.9215   19.5068 C   0  0  0  0  0  0
  -24.8634  -27.6831   19.5168 C   0  0  0  0  0  0
  -23.6125  -29.8200   20.1656 C   0  0  0  0  0  0
  -25.4111  -36.3111   24.0334 C   0  0  1  0  0  0
  -20.5865  -28.3663   23.1326 C   0  0  2  0  0  0
  -20.6772  -26.9397   22.5430 C   0  0  0  0  0  0
  -19.5761  -26.6380   21.5216 C   0  0  0  0  0  0
  -18.1931  -26.7918   22.1614 C   0  0  0  0  0  0
  -19.1521  -28.8830   23.2907 C   0  0  0  0  0  0
  -18.9448  -30.1436   23.8919 C   0  0  0  0  0  0
  -17.6450  -30.6575   24.0565 C   0  0  0  0  0  0
  -25.9038  -34.9476   23.5122 C   0  0  0  0  0  0
  -16.5343  -29.9081   23.6320 C   0  0  0  0  0  0
  -16.7264  -28.6497   23.0342 C   0  0  0  0  0  0
  -26.4462  -31.6599   25.0714 C   0  0  0  0  0  0
  -25.3722  -31.3715   26.1462 C   0  0  0  0  0  0
  -27.0288  -30.3038   24.6098 C   0  0  0  0  0  0
  -27.6034  -32.4318   25.7476 C   0  0  0  0  0  0
  -27.5580  -37.1811   24.8462 C   0  0  0  0  0  0
  -21.4136  -29.3034   22.3732 N   0  0  0  0  0  0
  -26.4294  -37.3795   23.9403 N   0  0  0  0  0  0
  -24.6696  -31.0758   22.0988 N   0  0  0  0  0  0
  -23.4176  -28.8203   23.3040 O   0  0  0  0  0  0
  -28.4346  -26.7070   20.1035 O   0  0  0  0  0  0
  -26.5610  -34.8930   22.4688 O   0  0  0  0  0  0
  -23.5343  -32.1433   23.7471 O   0  0  0  0  0  0
  -27.8518  -17.7120   19.4880 C   0  0  0  0  0  0
  -26.8938  -18.6952   19.2194 C   0  0  0  0  0  0
  -29.3610  -19.4250   20.2938 C   0  0  0  0  0  0
  -29.1066  -18.0528   20.0210 C   0  0  0  0  0  0
  -27.1452  -20.0608   19.4642 C   0  0  0  0  0  0
  -28.4094  -20.4552   20.0212 C   0  0  0  0  0  0
  -30.0906  -16.9528   20.2221 C   0  0  0  0  0  0
  -29.7438  -15.6882   20.5777 C   0  0  0  0  0  0
  -28.7978  -24.2421   20.2508 C   0  0  0  0  0  0
  -25.1416  -21.3525   20.3622 C   0  0  0  0  0  0
  -25.9741  -20.9814   19.1270 C   0  0  0  0  0  0
  -28.5859  -25.4819   19.3497 C   0  0  0  0  0  0
  -28.2175  -22.9060   19.7417 C   0  0  0  0  0  0
  -29.4004  -24.3201   21.3282 O   0  0  0  0  0  0
  -28.8091  -21.7492   20.3650 O   0  0  0  0  0  0
  -31.4756  -12.4248   19.1336 H   0  0  0  0  0  0
  -30.3424  -11.3135   19.8511 H   0  0  0  0  0  0
  -29.7554  -11.7566   17.4456 H   0  0  0  0  0  0
  -29.6608  -13.4700   17.7638 H   0  0  0  0  0  0
  -27.8431  -11.2820   18.8334 H   0  0  0  0  0  0
  -27.3722  -12.5906   17.7801 H   0  0  0  0  0  0
  -27.6732  -14.2250   19.5138 H   0  0  0  0  0  0
  -28.6876  -11.9777   21.3427 H   0  0  0  0  0  0
  -28.4647  -13.6187   21.8545 H   0  0  0  0  0  0
  -25.2762   -9.5685   22.4739 H   0  0  0  0  0  0
  -24.0004   -7.4634   22.7466 H   0  0  0  0  0  0
  -21.0829   -8.8769   19.8949 H   0  0  0  0  0  0
  -22.3688  -10.9667   19.6151 H   0  0  0  0  0  0
  -21.2002   -7.6147   23.9718 H   0  0  0  0  0  0
  -21.1465   -6.0522   25.9083 H   0  0  0  0  0  0
  -22.0606   -2.7607   23.2850 H   0  0  0  0  0  0
  -22.4104  -11.9864   22.4783 H   0  0  0  0  0  0
  -21.1120  -13.1257   22.2631 H   0  0  0  0  0  0
  -24.6704  -15.8402   20.5497 H   0  0  0  0  0  0
  -26.3003  -15.6327   20.1638 H   0  0  0  0  0  0
  -26.7109  -32.5520   23.1143 H   0  0  0  0  0  0
  -25.0024  -33.9769   25.0445 H   0  0  0  0  0  0
  -22.6934  -31.3070   21.4097 H   0  0  0  0  0  0
  -23.3748  -35.9651   23.3314 H   0  0  0  0  0  0
  -24.3580  -36.8913   22.2047 H   0  0  0  0  0  0
  -23.7248  -37.6525   23.6647 H   0  0  0  0  0  0
  -26.0501  -31.5889   20.5944 H   0  0  0  0  0  0
  -26.8217  -30.8782   21.9845 H   0  0  0  0  0  0
  -28.0993  -29.0847   21.1602 H   0  0  0  0  0  0
  -25.9823  -25.9456   19.0529 H   0  0  0  0  0  0
  -23.9656  -27.2812   19.0673 H   0  0  0  0  0  0
  -23.7207  -30.5933   19.4038 H   0  0  0  0  0  0
  -22.7361  -29.2386   19.8723 H   0  0  0  0  0  0
  -25.1292  -36.1975   25.0828 H   0  0  0  0  0  0
  -20.9954  -28.3229   24.1448 H   0  0  0  0  0  0
  -20.5672  -26.2266   23.3616 H   0  0  0  0  0  0
  -21.6651  -26.7446   22.1233 H   0  0  0  0  0  0
  -19.6926  -25.6298   21.1229 H   0  0  0  0  0  0
  -19.6709  -27.3205   20.6760 H   0  0  0  0  0  0
  -17.4212  -26.6677   21.4000 H   0  0  0  0  0  0
  -18.0321  -26.0048   22.8997 H   0  0  0  0  0  0
  -19.7922  -30.7244   24.2303 H   0  0  0  0  0  0
  -17.5006  -31.6257   24.5170 H   0  0  0  0  0  0
  -15.5343  -30.2987   23.7638 H   0  0  0  0  0  0
  -15.8665  -28.0823   22.7046 H   0  0  0  0  0  0
  -24.5893  -30.7066   25.7800 H   0  0  0  0  0  0
  -24.8920  -32.2876   26.4910 H   0  0  0  0  0  0
  -25.8067  -30.8882   27.0223 H   0  0  0  0  0  0
  -26.2835  -29.6806   24.1145 H   0  0  0  0  0  0
  -27.4043  -29.7268   25.4558 H   0  0  0  0  0  0
  -27.8680  -30.4348   23.9262 H   0  0  0  0  0  0
  -27.2649  -33.3604   26.2087 H   0  0  0  0  0  0
  -28.3827  -32.6899   25.0293 H   0  0  0  0  0  0
  -28.0728  -31.8427   26.5364 H   0  0  0  0  0  0
  -28.2612  -38.0095   24.7505 H   0  0  0  0  0  0
  -28.1065  -36.2629   24.6304 H   0  0  0  0  0  0
  -27.2298  -37.1478   25.8865 H   0  0  0  0  0  0
  -20.9294  -29.8748   21.6949 H   0  0  0  0  0  0
  -26.0189  -38.2876   24.1398 H   0  0  0  0  0  0
  -27.6204  -16.6882   19.2352 H   0  0  0  0  0  0
  -25.9433  -18.3791   18.8119 H   0  0  0  0  0  0
  -30.3191  -19.7008   20.7111 H   0  0  0  0  0  0
  -31.1175  -17.1768   19.9656 H   0  0  0  0  0  0
  -28.7241  -15.5417   20.8876 H   0  0  0  0  0  0
  -24.3189  -22.0134   20.0890 H   0  0  0  0  0  0
  -25.7346  -21.8533   21.1274 H   0  0  0  0  0  0
  -24.7107  -20.4612   20.8190 H   0  0  0  0  0  0
  -25.3095  -20.4633   18.4341 H   0  0  0  0  0  0
  -26.2820  -21.8439   18.5424 H   0  0  0  0  0  0
  -27.7969  -25.2939   18.6270 H   0  0  0  0  0  0
  -29.4904  -25.5913   18.7517 H   0  0  0  0  0  0
  -28.3212  -22.8486   18.6575 H   0  0  0  0  0  0
  -27.1667  -22.9781   19.9950 H   0  0  0  0  0  0
  1 25  1  0  0  0
  1 30  2  0  0  0
  1 78  1  0  0  0
  2  3  1  0  0  0
  2 25  1  0  0  0
  2 86  1  0  0  0
  2 87  1  0  0  0
  3  4  1  0  0  0
  3 88  1  0  0  0
  3 89  1  0  0  0
  4  5  1  0  0  0
  4 90  1  0  0  0
  4 91  1  0  0  0
  5  6  1  0  0  0
  5 26  1  0  0  0
  5 92  1  0  0  0
  6 25  1  0  0  0
  6 93  1  0  0  0
  6 94  1  0  0  0
  7  8  2  0  0  0
  7 26  1  0  0  0
  7 29  1  0  0  0
  8  9  1  0  0  0
  8 22  1  0  0  0
  9 10  1  0  0  0
  9 27  2  0  0  0
 10 11  2  0  0  0
 10 15  1  0  0  0
 11 12  1  0  0  0
 11 95  1  0  0  0
 12 13  2  0  0  0
 12 96  1  0  0  0
 13 14  1  0  0  0
 13 31  1  0  0  0
 14 15  2  0  0  0
 14 97  1  0  0  0
 15 98  1  0  0  0
 16 17  2  0  0  0
 16 21  1  0  0  0
 16 31  1  0  0  0
 17 18  1  0  0  0
 17 99  1  0  0  0
 18 19  2  0  0  0
 18100  1  0  0  0
 19 20  1  0  0  0
 19 24  1  0  0  0
 20 21  2  0  0  0
 20101  1  0  0  0
 21 23  1  0  0  0
 22 28  1  0  0  0
 22 32  2  0  0  0
 26 27  1  0  0  0
 28102  1  0  0  0
 28103  1  0  0  0
 29104  1  0  0  0
 29105  1  0  0  0
 33 34  1  0  0  0
 33 66  1  0  0  0
 33 70  2  0  0  0
 34 36  1  0  0  0
 34 59  1  0  0  0
 34106  1  0  0  0
 35 44  2  0  0  0
 35 45  1  0  0  0
 35 68  1  0  0  0
 36 56  1  0  0  0
 36107  1  0  0  0
 37 39  1  0  0  0
 37 47  1  0  0  0
 37 66  1  0  0  0
 37108  1  0  0  0
 38 43  2  0  0  0
 38 46  1  0  0  0
 38 47  1  0  0  0
 39 64  1  0  0  0
 39 67  2  0  0  0
 40 52  1  0  0  0
 40 53  2  0  0  0
 40 58  1  0  0  0
 41109  1  0  0  0
 41110  1  0  0  0
 41111  1  0  0  0
 41 48  1  0  0  0
 42 43  1  0  0  0
 42 66  1  0  0  0
 42112  1  0  0  0
 42113  1  0  0  0
 43 44  1  0  0  0
 44114  1  0  0  0
 45 46  2  0  0  0
 45115  1  0  0  0
 46116  1  0  0  0
 47117  1  0  0  0
 47118  1  0  0  0
 48 56  1  0  0  0
 48 65  1  0  0  0
 48119  1  0  0  0
 49 50  1  0  0  0
 49 53  1  0  0  0
 49 64  1  0  0  0
 49120  1  0  0  0
 50 51  1  0  0  0
 50121  1  0  0  0
 50122  1  0  0  0
 51 52  1  0  0  0
 51123  1  0  0  0
 51124  1  0  0  0
 52125  1  0  0  0
 52126  1  0  0  0
 53 54  1  0  0  0
 54 55  2  0  0  0
 54127  1  0  0  0
 55 57  1  0  0  0
 55128  1  0  0  0
 56 69  2  0  0  0
 57 58  2  0  0  0
 57129  1  0  0  0
 58130  1  0  0  0
 59 60  1  0  0  0
 59 61  1  0  0  0
 59 62  1  0  0  0
 60131  1  0  0  0
 60132  1  0  0  0
 60133  1  0  0  0
 61134  1  0  0  0
 61135  1  0  0  0
 61136  1  0  0  0
 62137  1  0  0  0
 62138  1  0  0  0
 62139  1  0  0  0
 63 65  1  0  0  0
 63140  1  0  0  0
 63141  1  0  0  0
 63142  1  0  0  0
 64143  1  0  0  0
 65144  1  0  0  0
 68 82  1  0  0  0
 71 72  2  0  0  0
 71 74  1  0  0  0
 71145  1  0  0  0
 72 75  1  0  0  0
 72146  1  0  0  0
 73 74  2  0  0  0
 73 76  1  0  0  0
 73147  1  0  0  0
 74 77  1  0  0  0
 75 76  2  0  0  0
 75 81  1  0  0  0
 76 85  1  0  0  0
 77 78  2  0  0  0
 77148  1  0  0  0
 78149  1  0  0  0
 79 82  1  0  0  0
 79 83  1  0  0  0
 79 84  2  0  0  0
 80 81  1  0  0  0
 80150  1  0  0  0
 80151  1  0  0  0
 80152  1  0  0  0
 81153  1  0  0  0
 81154  1  0  0  0
 82155  1  0  0  0
 82156  1  0  0  0
 83 85  1  0  0  0
 83157  1  0  0  0
 83158  1  0  0  0
M  ISO  4   1 100  68 101  78 100  82 101
M  END
> <chiral flag>
0

> <version>
0

> <s_m_source_file>
/data/baiqing/PycharmProjects/Reinvent-master-3.2/result/LINK_invent/BTK/process_docking_weight1_custom_product_contain_oxygen_bond_distance_aromatic_linkinvent_7_9_3/rearranged_h_0122.sdf

> <i_m_source_file_index>
60

> <r_mmod_Potential_Energy-OPLS-2005>
58.4613418579102

> <r_mmod_Stretch_Energy-OPLS-2005>
47.5870246887207

> <r_mmod_Bend_Energy-OPLS-2005>
131.666427612305

> <r_mmod_Torsional_Energy-OPLS-2005>
205.777328491211

> <r_mmod_Improper_Torsional_Energy-OPLS-2005>
9.81423187255859

> <r_mmod_Van_der_Waal_Energy-OPLS-2005>
162.404342651367

> <r_mmod_Electrostatic_Energy-OPLS-2005>
-291.657928466797

> <r_mmod_Solvation_Energy-OPLS-2005>
-229.204544067383

> <b_mmod_Minimization_Converged-OPLS-2005>
0

> <r_mmod_RMS_Derivative-OPLS-2005>
1.20941567420959

$$$$
60
                    3D
 Structure written by MMmdl.
151159  0  0  1  0            999 V2000
  -30.6604  -14.4927   20.4770 C   0  0  0  0  0  0
  -30.3979  -12.2897   19.4294 C   0  0  0  0  0  0
  -29.4961  -12.5304   18.1993 C   0  0  0  0  0  0
  -28.0011  -12.4370   18.5800 C   0  0  0  0  0  0
  -27.6488  -13.2300   19.8699 C   0  0  2  0  0  0
  -28.6922  -13.0012   20.9867 C   0  0  0  0  0  0
  -25.2456  -13.8137   20.5737 C   0  0  0  0  0  0
  -24.1729  -13.0409   20.9164 C   0  0  0  0  0  0
  -24.6324  -11.6907   20.8661 C   0  0  0  0  0  0
  -23.9023  -10.4277   21.0337 C   0  0  0  0  0  0
  -24.3605   -9.4223   21.9136 C   0  0  0  0  0  0
  -23.6285   -8.2241   22.0713 C   0  0  0  0  0  0
  -22.4230   -8.0271   21.3558 C   0  0  0  0  0  0
  -21.9854   -9.0245   20.4691 C   0  0  0  0  0  0
  -22.7164  -10.2129   20.3045 C   0  0  0  0  0  0
  -21.6859   -6.0733   22.5259 C   0  0  0  0  0  0
  -21.4046   -6.5635   23.8203 C   0  0  0  0  0  0
  -21.3687   -5.6800   24.9161 C   0  0  0  0  0  0
  -21.6011   -4.3051   24.7206 C   0  0  0  0  0  0
  -21.8828   -3.8149   23.4339 C   0  0  0  0  0  0
  -21.9186   -4.6979   22.3411 C   0  0  0  0  0  0
  -22.7767  -13.5221   21.1841 C   0  0  0  0  0  0
  -22.1660   -4.2178   21.0973 F   0  0  0  0  0  0
  -21.5611   -3.4531   25.7730 F   0  0  0  0  0  0
  -30.0246  -13.2851   20.4424 N   0  0  0  0  0  0
  -26.2922  -12.9404   20.3323 N   0  0  0  0  0  0
  -25.9248  -11.6541   20.5620 N   0  0  0  0  0  0
  -22.0430  -12.8281   22.0472 N   0  0  0  0  0  0
  -25.4157  -15.1845   20.4310 N   0  0  0  0  0  0
  -31.8434  -14.6234   20.1482 O   0  0  0  0  0  0
  -21.6621   -6.8863   21.4216 O   0  0  0  0  0  0
  -22.3484  -14.5486   20.6669 O   0  0  0  0  0  0
  -24.6228  -31.8656   23.2060 C   0  0  0  0  0  0
  -25.9112  -32.4793   23.8369 C   0  0  1  0  0  0
  -27.2073  -27.3772   20.0741 C   0  0  0  0  0  0
  -25.5940  -33.8593   24.2285 N   0  0  0  0  0  0
  -23.4088  -30.4946   21.5500 C   0  0  2  0  0  0
  -24.8456  -28.9571   20.1157 C   0  0  0  0  0  0
  -22.7444  -29.4667   22.4953 C   0  0  0  0  0  0
  -18.0303  -28.1392   22.8475 C   0  0  0  0  0  0
  -24.1475  -36.7273   23.2636 C   0  0  0  0  0  0
  -25.9481  -30.8058   21.3757 C   0  0  0  0  0  0
  -26.0158  -29.4412   20.7135 C   0  0  0  0  0  0
  -27.2030  -28.6604   20.6889 C   0  0  0  0  0  0
  -26.0212  -26.9448   19.4407 C   0  0  0  0  0  0
  -24.8430  -27.7067   19.4812 C   0  0  0  0  0  0
  -23.6152  -29.8351   20.1653 C   0  0  0  0  0  0
  -25.4105  -36.3067   24.0317 C   0  0  1  0  0  0
  -20.5895  -28.3684   23.1298 C   0  0  2  0  0  0
  -20.6774  -26.9406   22.5455 C   0  0  0  0  0  0
  -19.5759  -26.6353   21.5239 C   0  0  0  0  0  0
  -18.1926  -26.7928   22.1618 C   0  0  0  0  0  0
  -19.1549  -28.8852   23.2873 C   0  0  0  0  0  0
  -18.9472  -30.1453   23.8884 C   0  0  0  0  0  0
  -17.6470  -30.6599   24.0552 C   0  0  0  0  0  0
  -25.9050  -34.9456   23.5083 C   0  0  0  0  0  0
  -16.5364  -29.9092   23.6344 C   0  0  0  0  0  0
  -16.7273  -28.6525   23.0340 C   0  0  0  0  0  0
  -26.4488  -31.6623   25.0723 C   0  0  0  0  0  0
  -25.3741  -31.3836   26.1488 C   0  0  0  0  0  0
  -27.0304  -30.3020   24.6230 C   0  0  0  0  0  0
  -27.6057  -32.4344   25.7490 C   0  0  0  0  0  0
  -27.5571  -37.1780   24.8451 C   0  0  0  0  0  0
  -21.4175  -29.3040   22.3693 N   0  0  0  0  0  0
  -26.4274  -37.3771   23.9408 N   0  0  0  0  0  0
  -24.6771  -31.0739   22.0980 N   0  0  0  0  0  0
  -23.4215  -28.8228   23.3024 O   0  0  0  0  0  0
  -28.3294  -26.5556   20.0764 O   0  0  0  0  0  0
  -26.5634  -34.8921   22.4663 O   0  0  0  0  0  0
  -23.5406  -32.1444   23.7450 O   0  0  0  0  0  0
  -27.7531  -18.1409   20.0228 C   0  0  0  0  0  0
  -27.5792  -19.5576   19.9099 C   0  0  0  0  0  0
  -29.0844  -17.8979   19.7824 C   0  0  0  0  0  0
  -28.8198  -20.1065   19.6716 C   0  0  0  0  0  0
  -29.8944  -16.7177   19.8397 C   0  0  0  0  0  0
  -29.7753  -15.6427   20.6576 C   0  0  0  0  0  0
  -28.9827  -24.1442   19.5663 C   0  0  0  0  0  0
  -29.4109  -21.5179   19.6385 C   0  0  0  0  0  0
  -28.4443  -22.7048   19.3060 C   0  0  0  0  0  0
  -28.0654  -25.1365   20.3365 C   0  0  0  0  0  0
  -30.0914  -24.4923   19.1470 O   0  0  0  0  0  0
  -29.7297  -19.0882   19.5558 O   0  0  0  0  0  0
  -31.4536  -12.3428   19.1628 H   0  0  0  0  0  0
  -30.2366  -11.2845   19.8161 H   0  0  0  0  0  0
  -29.7325  -11.8224   17.4065 H   0  0  0  0  0  0
  -29.7054  -13.5183   17.7826 H   0  0  0  0  0  0
  -27.7349  -11.3862   18.7004 H   0  0  0  0  0  0
  -27.3933  -12.8145   17.7555 H   0  0  0  0  0  0
  -27.6878  -14.2845   19.5952 H   0  0  0  0  0  0
  -28.6526  -11.9702   21.3448 H   0  0  0  0  0  0
  -28.4776  -13.6161   21.8597 H   0  0  0  0  0  0
  -25.2791   -9.5726   22.4673 H   0  0  0  0  0  0
  -24.0084   -7.4605   22.7381 H   0  0  0  0  0  0
  -21.0788   -8.8728   19.8999 H   0  0  0  0  0  0
  -22.3581  -10.9660   19.6152 H   0  0  0  0  0  0
  -21.2072   -7.6160   23.9732 H   0  0  0  0  0  0
  -21.1486   -6.0518   25.9084 H   0  0  0  0  0  0
  -22.0582   -2.7622   23.2793 H   0  0  0  0  0  0
  -22.4103  -12.0068   22.5035 H   0  0  0  0  0  0
  -21.1041  -13.1287   22.2636 H   0  0  0  0  0  0
  -24.6526  -15.8438   20.5473 H   0  0  0  0  0  0
  -26.2964  -15.6258   20.2022 H   0  0  0  0  0  0
  -26.7188  -32.5445   23.1111 H   0  0  0  0  0  0
  -25.0063  -33.9736   25.0408 H   0  0  0  0  0  0
  -22.6999  -31.3122   21.4144 H   0  0  0  0  0  0
  -23.3744  -35.9599   23.3308 H   0  0  0  0  0  0
  -24.3570  -36.8901   22.2052 H   0  0  0  0  0  0
  -23.7229  -37.6469   23.6673 H   0  0  0  0  0  0
  -26.0958  -31.5747   20.6167 H   0  0  0  0  0  0
  -26.8256  -30.8362   22.0096 H   0  0  0  0  0  0
  -28.1039  -29.0251   21.1632 H   0  0  0  0  0  0
  -25.9837  -26.0149   18.8939 H   0  0  0  0  0  0
  -23.9447  -27.3332   19.0084 H   0  0  0  0  0  0
  -23.7368  -30.6103   19.4079 H   0  0  0  0  0  0
  -22.7341  -29.2652   19.8628 H   0  0  0  0  0  0
  -25.1282  -36.1897   25.0808 H   0  0  0  0  0  0
  -20.9983  -28.3285   24.1403 H   0  0  0  0  0  0
  -20.5652  -26.2300   23.3656 H   0  0  0  0  0  0
  -21.6649  -26.7399   22.1268 H   0  0  0  0  0  0
  -19.6909  -25.6247   21.1288 H   0  0  0  0  0  0
  -19.6729  -27.3138   20.6748 H   0  0  0  0  0  0
  -17.4208  -26.6684   21.4007 H   0  0  0  0  0  0
  -18.0310  -26.0095   22.9030 H   0  0  0  0  0  0
  -19.7951  -30.7269   24.2249 H   0  0  0  0  0  0
  -17.5036  -31.6272   24.5140 H   0  0  0  0  0  0
  -15.5371  -30.2972   23.7672 H   0  0  0  0  0  0
  -15.8669  -28.0812   22.7055 H   0  0  0  0  0  0
  -24.5804  -30.7302   25.7842 H   0  0  0  0  0  0
  -24.9061  -32.3064   26.4942 H   0  0  0  0  0  0
  -25.8038  -30.8964   27.0247 H   0  0  0  0  0  0
  -26.2887  -29.6818   24.1176 H   0  0  0  0  0  0
  -27.3893  -29.7241   25.4757 H   0  0  0  0  0  0
  -27.8815  -30.4278   23.9524 H   0  0  0  0  0  0
  -27.2668  -33.3641   26.2092 H   0  0  0  0  0  0
  -28.3845  -32.6951   25.0298 H   0  0  0  0  0  0
  -28.0766  -31.8474   26.5385 H   0  0  0  0  0  0
  -28.2585  -38.0076   24.7482 H   0  0  0  0  0  0
  -28.1056  -36.2602   24.6259 H   0  0  0  0  0  0
  -27.2306  -37.1435   25.8863 H   0  0  0  0  0  0
  -20.9343  -29.8779   21.6910 H   0  0  0  0  0  0
  -26.0136  -38.2830   24.1467 H   0  0  0  0  0  0
  -26.9958  -17.3969   20.2604 H   0  0  0  0  0  0
  -26.6458  -20.0873   20.0486 H   0  0  0  0  0  0
  -30.6737  -16.6891   19.0866 H   0  0  0  0  0  0
  -29.0150  -15.6550   21.4242 H   0  0  0  0  0  0
  -30.2568  -21.5220   18.9471 H   0  0  0  0  0  0
  -29.8465  -21.7050   20.6219 H   0  0  0  0  0  0
  -28.1547  -22.6621   18.2562 H   0  0  0  0  0  0
  -27.5290  -22.5902   19.8832 H   0  0  0  0  0  0
  -28.1710  -24.9670   21.4086 H   0  0  0  0  0  0
  -27.0480  -24.8340   20.1026 H   0  0  0  0  0  0
  1 25  1  0  0  0
  1 30  2  0  0  0
  1 76  1  0  0  0
  2  3  1  0  0  0
  2 25  1  0  0  0
  2 83  1  0  0  0
  2 84  1  0  0  0
  3  4  1  0  0  0
  3 85  1  0  0  0
  3 86  1  0  0  0
  4  5  1  0  0  0
  4 87  1  0  0  0
  4 88  1  0  0  0
  5  6  1  0  0  0
  5 26  1  0  0  0
  5 89  1  0  0  0
  6 25  1  0  0  0
  6 90  1  0  0  0
  6 91  1  0  0  0
  7  8  2  0  0  0
  7 26  1  0  0  0
  7 29  1  0  0  0
  8  9  1  0  0  0
  8 22  1  0  0  0
  9 10  1  0  0  0
  9 27  2  0  0  0
 10 11  2  0  0  0
 10 15  1  0  0  0
 11 12  1  0  0  0
 11 92  1  0  0  0
 12 13  2  0  0  0
 12 93  1  0  0  0
 13 14  1  0  0  0
 13 31  1  0  0  0
 14 15  2  0  0  0
 14 94  1  0  0  0
 15 95  1  0  0  0
 16 17  2  0  0  0
 16 21  1  0  0  0
 16 31  1  0  0  0
 17 18  1  0  0  0
 17 96  1  0  0  0
 18 19  2  0  0  0
 18 97  1  0  0  0
 19 20  1  0  0  0
 19 24  1  0  0  0
 20 21  2  0  0  0
 20 98  1  0  0  0
 21 23  1  0  0  0
 22 28  1  0  0  0
 22 32  2  0  0  0
 26 27  1  0  0  0
 28 99  1  0  0  0
 28100  1  0  0  0
 29101  1  0  0  0
 29102  1  0  0  0
 33 34  1  0  0  0
 33 66  1  0  0  0
 33 70  2  0  0  0
 34 36  1  0  0  0
 34 59  1  0  0  0
 34103  1  0  0  0
 35 44  2  0  0  0
 35 45  1  0  0  0
 35 68  1  0  0  0
 36 56  1  0  0  0
 36104  1  0  0  0
 37 39  1  0  0  0
 37 47  1  0  0  0
 37 66  1  0  0  0
 37105  1  0  0  0
 38 43  2  0  0  0
 38 46  1  0  0  0
 38 47  1  0  0  0
 39 64  1  0  0  0
 39 67  2  0  0  0
 40 52  1  0  0  0
 40 53  2  0  0  0
 40 58  1  0  0  0
 41106  1  0  0  0
 41107  1  0  0  0
 41108  1  0  0  0
 41 48  1  0  0  0
 42 43  1  0  0  0
 42 66  1  0  0  0
 42109  1  0  0  0
 42110  1  0  0  0
 43 44  1  0  0  0
 44111  1  0  0  0
 45 46  2  0  0  0
 45112  1  0  0  0
 46113  1  0  0  0
 47114  1  0  0  0
 47115  1  0  0  0
 48 56  1  0  0  0
 48 65  1  0  0  0
 48116  1  0  0  0
 49 50  1  0  0  0
 49 53  1  0  0  0
 49 64  1  0  0  0
 49117  1  0  0  0
 50 51  1  0  0  0
 50118  1  0  0  0
 50119  1  0  0  0
 51 52  1  0  0  0
 51120  1  0  0  0
 51121  1  0  0  0
 52122  1  0  0  0
 52123  1  0  0  0
 53 54  1  0  0  0
 54 55  2  0  0  0
 54124  1  0  0  0
 55 57  1  0  0  0
 55125  1  0  0  0
 56 69  2  0  0  0
 57 58  2  0  0  0
 57126  1  0  0  0
 58127  1  0  0  0
 59 60  1  0  0  0
 59 61  1  0  0  0
 59 62  1  0  0  0
 60128  1  0  0  0
 60129  1  0  0  0
 60130  1  0  0  0
 61131  1  0  0  0
 61132  1  0  0  0
 61133  1  0  0  0
 62134  1  0  0  0
 62135  1  0  0  0
 62136  1  0  0  0
 63 65  1  0  0  0
 63137  1  0  0  0
 63138  1  0  0  0
 63139  1  0  0  0
 64140  1  0  0  0
 65141  1  0  0  0
 68 80  1  0  0  0
 71 72  1  0  0  0
 71 73  2  0  0  0
 71142  1  0  0  0
 72 74  2  0  0  0
 72143  1  0  0  0
 73 75  1  0  0  0
 73 82  1  0  0  0
 74 78  1  0  0  0
 74 82  1  0  0  0
 75 76  2  0  0  0
 75144  1  0  0  0
 76145  1  0  0  0
 77 79  1  0  0  0
 77 80  1  0  0  0
 77 81  2  0  0  0
 78 79  1  0  0  0
 78146  1  0  0  0
 78147  1  0  0  0
 79148  1  0  0  0
 79149  1  0  0  0
 80150  1  0  0  0
 80151  1  0  0  0
M  ISO  4   1 100  68 101  76 100  80 101
M  END
> <chiral flag>
0

> <version>
0

> <s_m_source_file>
/data/baiqing/PycharmProjects/Reinvent-master-3.2/result/LINK_invent/BTK/process_docking_weight1_custom_product_contain_oxygen_bond_distance_aromatic_linkinvent_7_9_3/rearranged_h_0122.sdf

> <i_m_source_file_index>
61

> <r_mmod_Potential_Energy-OPLS-2005>
-37.4646034240723

> <r_mmod_Stretch_Energy-OPLS-2005>
45.2319107055664

> <r_mmod_Bend_Energy-OPLS-2005>
96.653923034668

> <r_mmod_Torsional_Energy-OPLS-2005>
224.829223632812

> <r_mmod_Improper_Torsional_Energy-OPLS-2005>
7.1965184211731

> <r_mmod_Van_der_Waal_Energy-OPLS-2005>
130.938461303711

> <r_mmod_Electrostatic_Energy-OPLS-2005>
-345.483703613281

> <r_mmod_Solvation_Energy-OPLS-2005>
-222.824676513672

> <b_mmod_Minimization_Converged-OPLS-2005>
0

> <r_mmod_RMS_Derivative-OPLS-2005>
8.69717597961426

$$$$
61
                    3D
 Structure written by MMmdl.
155163  0  0  1  0            999 V2000
  -30.7594  -14.4203   20.6920 C   0  0  0  0  0  0
  -30.4280  -12.3245   19.4088 C   0  0  0  0  0  0
  -29.4905  -12.5243   18.2024 C   0  0  0  0  0  0
  -28.0162  -12.3620   18.6165 C   0  0  0  0  0  0
  -27.6662  -13.2000   19.8717 C   0  0  2  0  0  0
  -28.7038  -12.9567   20.9890 C   0  0  0  0  0  0
  -25.2618  -13.8156   20.5660 C   0  0  0  0  0  0
  -24.1846  -13.0442   20.9179 C   0  0  0  0  0  0
  -24.6385  -11.6905   20.8721 C   0  0  0  0  0  0
  -23.9041  -10.4296   21.0399 C   0  0  0  0  0  0
  -24.3599   -9.4215   21.9165 C   0  0  0  0  0  0
  -23.6291   -8.2252   22.0743 C   0  0  0  0  0  0
  -22.4272   -8.0281   21.3544 C   0  0  0  0  0  0
  -21.9900   -9.0255   20.4648 C   0  0  0  0  0  0
  -22.7227  -10.2134   20.3050 C   0  0  0  0  0  0
  -21.6837   -6.0734   22.5284 C   0  0  0  0  0  0
  -21.4017   -6.5640   23.8223 C   0  0  0  0  0  0
  -21.3666   -5.6791   24.9177 C   0  0  0  0  0  0
  -21.6040   -4.3052   24.7225 C   0  0  0  0  0  0
  -21.8830   -3.8146   23.4348 C   0  0  0  0  0  0
  -21.9201   -4.6963   22.3409 C   0  0  0  0  0  0
  -22.7865  -13.5242   21.1856 C   0  0  0  0  0  0
  -22.1662   -4.2154   21.0981 F   0  0  0  0  0  0
  -21.5632   -3.4540   25.7742 F   0  0  0  0  0  0
  -30.0467  -13.2791   20.4629 N   0  0  0  0  0  0
  -26.3044  -12.9304   20.3333 N   0  0  0  0  0  0
  -25.9311  -11.6464   20.5735 N   0  0  0  0  0  0
  -22.0491  -12.8245   22.0422 N   0  0  0  0  0  0
  -25.4390  -15.1863   20.4063 N   0  0  0  0  0  0
  -31.7706  -14.6950   20.0407 O   0  0  0  0  0  0
  -21.6630   -6.8868   21.4244 O   0  0  0  0  0  0
  -22.3561  -14.5544   20.6693 O   0  0  0  0  0  0
  -24.6142  -31.8693   23.2105 C   0  0  0  0  0  0
  -25.9023  -32.4838   23.8399 C   0  0  1  0  0  0
  -27.2408  -27.4361   20.0825 C   0  0  0  0  0  0
  -25.5897  -33.8625   24.2337 N   0  0  0  0  0  0
  -23.4021  -30.4941   21.5502 C   0  0  2  0  0  0
  -24.8469  -28.9605   20.1157 C   0  0  0  0  0  0
  -22.7416  -29.4659   22.4976 C   0  0  0  0  0  0
  -18.0270  -28.1385   22.8481 C   0  0  0  0  0  0
  -24.1476  -36.7320   23.2639 C   0  0  0  0  0  0
  -25.9298  -30.8352   21.3608 C   0  0  0  0  0  0
  -26.0062  -29.4683   20.7109 C   0  0  0  0  0  0
  -27.2001  -28.7113   20.6961 C   0  0  0  0  0  0
  -26.0495  -26.9332   19.5018 C   0  0  0  0  0  0
  -24.8622  -27.6906   19.5171 C   0  0  0  0  0  0
  -23.6109  -29.8305   20.1631 C   0  0  0  0  0  0
  -25.4096  -36.3119   24.0343 C   0  0  1  0  0  0
  -20.5875  -28.3655   23.1322 C   0  0  2  0  0  0
  -20.6767  -26.9391   22.5423 C   0  0  0  0  0  0
  -19.5750  -26.6384   21.5209 C   0  0  0  0  0  0
  -18.1921  -26.7928   22.1608 C   0  0  0  0  0  0
  -19.1533  -28.8828   23.2898 C   0  0  0  0  0  0
  -18.9466  -30.1435   23.8910 C   0  0  0  0  0  0
  -17.6474  -30.6590   24.0571 C   0  0  0  0  0  0
  -25.9021  -34.9483   23.5134 C   0  0  0  0  0  0
  -16.5362  -29.9107   23.6328 C   0  0  0  0  0  0
  -16.7261  -28.6526   23.0330 C   0  0  0  0  0  0
  -26.4461  -31.6619   25.0722 C   0  0  0  0  0  0
  -25.3758  -31.3732   26.1514 C   0  0  0  0  0  0
  -27.0295  -30.3076   24.6047 C   0  0  0  0  0  0
  -27.6040  -32.4356   25.7477 C   0  0  0  0  0  0
  -27.5578  -37.1821   24.8466 C   0  0  0  0  0  0
  -21.4146  -29.3032   22.3736 N   0  0  0  0  0  0
  -26.4288  -37.3810   23.9419 N   0  0  0  0  0  0
  -24.6675  -31.0817   22.0996 N   0  0  0  0  0  0
  -23.4189  -28.8177   23.2995 O   0  0  0  0  0  0
  -28.4420  -26.7492   20.1024 O   0  0  0  0  0  0
  -26.5579  -34.8936   22.4690 O   0  0  0  0  0  0
  -23.5342  -32.1421   23.7508 O   0  0  0  0  0  0
  -31.8343  -19.2401   19.8599 C   0  0  0  0  0  0
  -32.0371  -18.0207   20.5744 C   0  0  0  0  0  0
  -30.7917  -17.6350   21.0025 C   0  0  0  0  0  0
  -30.4974  -19.5204   19.8971 C   0  0  0  0  0  0
  -30.3103  -16.5912   21.8616 C   0  0  0  0  0  0
  -30.2817  -15.2392   21.8033 C   0  0  0  0  0  0
  -29.2229  -23.0776   19.4288 C   0  0  0  0  0  0
  -29.6135  -21.9262   20.0162 C   0  0  0  0  0  0
  -29.1271  -24.3758   20.1302 C   0  0  0  0  0  0
  -33.3620  -17.3429   20.8267 C   0  0  0  0  0  0
  -29.6390  -20.5911   19.2839 C   0  0  0  0  0  0
  -28.6451  -25.5773   19.2922 C   0  0  0  0  0  0
  -29.4082  -24.5202   21.3257 O   0  0  0  0  0  0
  -29.8563  -18.5506   20.6069 O   0  0  0  0  0  0
  -31.4658  -12.4419   19.0963 H   0  0  0  0  0  0
  -30.3524  -11.3041   19.7900 H   0  0  0  0  0  0
  -29.7380  -11.8083   17.4174 H   0  0  0  0  0  0
  -29.6442  -13.5175   17.7764 H   0  0  0  0  0  0
  -27.8397  -11.3036   18.8183 H   0  0  0  0  0  0
  -27.3586  -12.6280   17.7890 H   0  0  0  0  0  0
  -27.7215  -14.2491   19.5813 H   0  0  0  0  0  0
  -28.6847  -11.9095   21.2991 H   0  0  0  0  0  0
  -28.4097  -13.5192   21.8720 H   0  0  0  0  0  0
  -25.2734   -9.5701   22.4734 H   0  0  0  0  0  0
  -24.0015   -7.4635   22.7443 H   0  0  0  0  0  0
  -21.0840   -8.8766   19.8931 H   0  0  0  0  0  0
  -22.3683  -10.9666   19.6168 H   0  0  0  0  0  0
  -21.1997   -7.6144   23.9732 H   0  0  0  0  0  0
  -21.1471   -6.0505   25.9081 H   0  0  0  0  0  0
  -22.0598   -2.7614   23.2846 H   0  0  0  0  0  0
  -22.4099  -11.9921   22.4837 H   0  0  0  0  0  0
  -21.1120  -13.1281   22.2599 H   0  0  0  0  0  0
  -24.6814  -15.8513   20.5119 H   0  0  0  0  0  0
  -26.3064  -15.6155   20.1076 H   0  0  0  0  0  0
  -26.7083  -32.5562   23.1163 H   0  0  0  0  0  0
  -25.0105  -33.9773   25.0515 H   0  0  0  0  0  0
  -22.6913  -31.3123   21.4133 H   0  0  0  0  0  0
  -23.3744  -35.9652   23.3314 H   0  0  0  0  0  0
  -24.3574  -36.8918   22.2055 H   0  0  0  0  0  0
  -23.7222  -37.6529   23.6634 H   0  0  0  0  0  0
  -26.0322  -31.5973   20.5873 H   0  0  0  0  0  0
  -26.8218  -30.8968   21.9727 H   0  0  0  0  0  0
  -28.0981  -29.1068   21.1510 H   0  0  0  0  0  0
  -25.9866  -25.9574   19.0464 H   0  0  0  0  0  0
  -23.9647  -27.2904   19.0657 H   0  0  0  0  0  0
  -23.7303  -30.6097   19.4088 H   0  0  0  0  0  0
  -22.7323  -29.2584   19.8585 H   0  0  0  0  0  0
  -25.1265  -36.2003   25.0842 H   0  0  0  0  0  0
  -20.9950  -28.3229   24.1454 H   0  0  0  0  0  0
  -20.5659  -26.2271   23.3613 H   0  0  0  0  0  0
  -21.6639  -26.7431   22.1233 H   0  0  0  0  0  0
  -19.6914  -25.6293   21.1237 H   0  0  0  0  0  0
  -19.6708  -27.3200   20.6744 H   0  0  0  0  0  0
  -17.4204  -26.6682   21.4001 H   0  0  0  0  0  0
  -18.0311  -26.0058   22.8986 H   0  0  0  0  0  0
  -19.7942  -30.7231   24.2306 H   0  0  0  0  0  0
  -17.5037  -31.6271   24.5170 H   0  0  0  0  0  0
  -15.5365  -30.3021   23.7636 H   0  0  0  0  0  0
  -15.8658  -28.0860   22.7026 H   0  0  0  0  0  0
  -24.5901  -30.7089   25.7897 H   0  0  0  0  0  0
  -24.8982  -32.2891   26.5000 H   0  0  0  0  0  0
  -25.8151  -30.8907   27.0246 H   0  0  0  0  0  0
  -26.2807  -29.6865   24.1123 H   0  0  0  0  0  0
  -27.4120  -29.7297   25.4466 H   0  0  0  0  0  0
  -27.8607  -30.4426   23.9126 H   0  0  0  0  0  0
  -27.2628  -33.3630   26.2088 H   0  0  0  0  0  0
  -28.3827  -32.6980   25.0298 H   0  0  0  0  0  0
  -28.0727  -31.8473   26.5378 H   0  0  0  0  0  0
  -28.2617  -38.0100   24.7534 H   0  0  0  0  0  0
  -28.1061  -36.2649   24.6269 H   0  0  0  0  0  0
  -27.2310  -37.1450   25.8871 H   0  0  0  0  0  0
  -20.9293  -29.8822   21.7018 H   0  0  0  0  0  0
  -26.0195  -38.2888   24.1453 H   0  0  0  0  0  0
  -32.5836  -19.8453   19.3700 H   0  0  0  0  0  0
  -29.9013  -16.9970   22.7769 H   0  0  0  0  0  0
  -29.8810  -14.7384   22.6713 H   0  0  0  0  0  0
  -28.9437  -23.0755   18.3850 H   0  0  0  0  0  0
  -29.8928  -21.9072   21.0613 H   0  0  0  0  0  0
  -33.6229  -16.6834   19.9980 H   0  0  0  0  0  0
  -33.3255  -16.7471   21.7387 H   0  0  0  0  0  0
  -34.1599  -18.0777   20.9417 H   0  0  0  0  0  0
  -28.6094  -20.2330   19.2326 H   0  0  0  0  0  0
  -29.9496  -20.7577   18.2506 H   0  0  0  0  0  0
  -29.4200  -25.8100   18.5634 H   0  0  0  0  0  0
  -27.7814  -25.2653   18.7149 H   0  0  0  0  0  0
  1 25  1  0  0  0
  1 30  2  0  0  0
  1 76  1  0  0  0
  2  3  1  0  0  0
  2 25  1  0  0  0
  2 85  1  0  0  0
  2 86  1  0  0  0
  3  4  1  0  0  0
  3 87  1  0  0  0
  3 88  1  0  0  0
  4  5  1  0  0  0
  4 89  1  0  0  0
  4 90  1  0  0  0
  5  6  1  0  0  0
  5 26  1  0  0  0
  5 91  1  0  0  0
  6 25  1  0  0  0
  6 92  1  0  0  0
  6 93  1  0  0  0
  7  8  2  0  0  0
  7 26  1  0  0  0
  7 29  1  0  0  0
  8  9  1  0  0  0
  8 22  1  0  0  0
  9 10  1  0  0  0
  9 27  2  0  0  0
 10 11  2  0  0  0
 10 15  1  0  0  0
 11 12  1  0  0  0
 11 94  1  0  0  0
 12 13  2  0  0  0
 12 95  1  0  0  0
 13 14  1  0  0  0
 13 31  1  0  0  0
 14 15  2  0  0  0
 14 96  1  0  0  0
 15 97  1  0  0  0
 16 17  2  0  0  0
 16 21  1  0  0  0
 16 31  1  0  0  0
 17 18  1  0  0  0
 17 98  1  0  0  0
 18 19  2  0  0  0
 18 99  1  0  0  0
 19 20  1  0  0  0
 19 24  1  0  0  0
 20 21  2  0  0  0
 20100  1  0  0  0
 21 23  1  0  0  0
 22 28  1  0  0  0
 22 32  2  0  0  0
 26 27  1  0  0  0
 28101  1  0  0  0
 28102  1  0  0  0
 29103  1  0  0  0
 29104  1  0  0  0
 33 34  1  0  0  0
 33 66  1  0  0  0
 33 70  2  0  0  0
 34 36  1  0  0  0
 34 59  1  0  0  0
 34105  1  0  0  0
 35 44  2  0  0  0
 35 45  1  0  0  0
 35 68  1  0  0  0
 36 56  1  0  0  0
 36106  1  0  0  0
 37 39  1  0  0  0
 37 47  1  0  0  0
 37 66  1  0  0  0
 37107  1  0  0  0
 38 43  2  0  0  0
 38 46  1  0  0  0
 38 47  1  0  0  0
 39 64  1  0  0  0
 39 67  2  0  0  0
 40 52  1  0  0  0
 40 53  2  0  0  0
 40 58  1  0  0  0
 41108  1  0  0  0
 41109  1  0  0  0
 41110  1  0  0  0
 41 48  1  0  0  0
 42 43  1  0  0  0
 42 66  1  0  0  0
 42111  1  0  0  0
 42112  1  0  0  0
 43 44  1  0  0  0
 44113  1  0  0  0
 45 46  2  0  0  0
 45114  1  0  0  0
 46115  1  0  0  0
 47116  1  0  0  0
 47117  1  0  0  0
 48 56  1  0  0  0
 48 65  1  0  0  0
 48118  1  0  0  0
 49 50  1  0  0  0
 49 53  1  0  0  0
 49 64  1  0  0  0
 49119  1  0  0  0
 50 51  1  0  0  0
 50120  1  0  0  0
 50121  1  0  0  0
 51 52  1  0  0  0
 51122  1  0  0  0
 51123  1  0  0  0
 52124  1  0  0  0
 52125  1  0  0  0
 53 54  1  0  0  0
 54 55  2  0  0  0
 54126  1  0  0  0
 55 57  1  0  0  0
 55127  1  0  0  0
 56 69  2  0  0  0
 57 58  2  0  0  0
 57128  1  0  0  0
 58129  1  0  0  0
 59 60  1  0  0  0
 59 61  1  0  0  0
 59 62  1  0  0  0
 60130  1  0  0  0
 60131  1  0  0  0
 60132  1  0  0  0
 61133  1  0  0  0
 61134  1  0  0  0
 61135  1  0  0  0
 62136  1  0  0  0
 62137  1  0  0  0
 62138  1  0  0  0
 63 65  1  0  0  0
 63139  1  0  0  0
 63140  1  0  0  0
 63141  1  0  0  0
 64142  1  0  0  0
 65143  1  0  0  0
 68 82  1  0  0  0
 71 72  1  0  0  0
 71 74  2  0  0  0
 71144  1  0  0  0
 72 73  2  0  0  0
 72 80  1  0  0  0
 73 75  1  0  0  0
 73 84  1  0  0  0
 74 81  1  0  0  0
 74 84  1  0  0  0
 75 76  2  0  0  0
 75145  1  0  0  0
 76146  1  0  0  0
 77 78  2  0  0  0
 77 79  1  0  0  0
 77147  1  0  0  0
 78 81  1  0  0  0
 78148  1  0  0  0
 79 82  1  0  0  0
 79 83  2  0  0  0
 80149  1  0  0  0
 80150  1  0  0  0
 80151  1  0  0  0
 81152  1  0  0  0
 81153  1  0  0  0
 82154  1  0  0  0
 82155  1  0  0  0
M  ISO  4   1 100  68 101  76 100  82 101
M  END
> <chiral flag>
0

> <version>
0

> <s_m_source_file>
/data/baiqing/PycharmProjects/Reinvent-master-3.2/result/LINK_invent/BTK/process_docking_weight1_custom_product_contain_oxygen_bond_distance_aromatic_linkinvent_7_9_3/rearranged_h_0122.sdf

> <i_m_source_file_index>
62

> <r_mmod_Potential_Energy-OPLS-2005>
-52.6122207641602

> <r_mmod_Stretch_Energy-OPLS-2005>
35.265510559082

> <r_mmod_Bend_Energy-OPLS-2005>
113.428291320801

> <r_mmod_Torsional_Energy-OPLS-2005>
202.498916625977

> <r_mmod_Improper_Torsional_Energy-OPLS-2005>
2.69360136985779

> <r_mmod_Van_der_Waal_Energy-OPLS-2005>
129.950531005859

> <r_mmod_Electrostatic_Energy-OPLS-2005>
-327.911468505859

> <r_mmod_Solvation_Energy-OPLS-2005>
-218.80078125

> <b_mmod_Minimization_Converged-OPLS-2005>
0

> <r_mmod_RMS_Derivative-OPLS-2005>
2.85564684867859

$$$$
62
                    3D
 Structure written by MMmdl.
166174  0  0  1  0            999 V2000
  -30.7715  -14.3848   20.6848 C   0  0  0  0  0  0
  -30.4137  -12.3031   19.3978 C   0  0  0  0  0  0
  -29.4810  -12.5332   18.1948 C   0  0  0  0  0  0
  -28.0099  -12.3709   18.6165 C   0  0  0  0  0  0
  -27.6643  -13.2068   19.8768 C   0  0  2  0  0  0
  -28.7057  -12.9819   20.9981 C   0  0  0  0  0  0
  -25.2587  -13.8159   20.5686 C   0  0  0  0  0  0
  -24.1842  -13.0432   20.9165 C   0  0  0  0  0  0
  -24.6398  -11.6896   20.8718 C   0  0  0  0  0  0
  -23.9066  -10.4285   21.0389 C   0  0  0  0  0  0
  -24.3619   -9.4200   21.9169 C   0  0  0  0  0  0
  -23.6291   -8.2238   22.0746 C   0  0  0  0  0  0
  -22.4270   -8.0279   21.3542 C   0  0  0  0  0  0
  -21.9907   -9.0247   20.4640 C   0  0  0  0  0  0
  -22.7235  -10.2125   20.3041 C   0  0  0  0  0  0
  -21.6857   -6.0734   22.5277 C   0  0  0  0  0  0
  -21.4016   -6.5639   23.8208 C   0  0  0  0  0  0
  -21.3657   -5.6793   24.9175 C   0  0  0  0  0  0
  -21.6045   -4.3055   24.7227 C   0  0  0  0  0  0
  -21.8819   -3.8146   23.4348 C   0  0  0  0  0  0
  -21.9190   -4.6962   22.3404 C   0  0  0  0  0  0
  -22.7857  -13.5216   21.1839 C   0  0  0  0  0  0
  -22.1660   -4.2150   21.0977 F   0  0  0  0  0  0
  -21.5629   -3.4536   25.7738 F   0  0  0  0  0  0
  -30.0446  -13.2596   20.4528 N   0  0  0  0  0  0
  -26.3040  -12.9343   20.3378 N   0  0  0  0  0  0
  -25.9332  -11.6499   20.5760 N   0  0  0  0  0  0
  -22.0520  -12.8205   22.0408 N   0  0  0  0  0  0
  -25.4274  -15.1891   20.4111 N   0  0  0  0  0  0
  -31.8022  -14.6341   20.0504 O   0  0  0  0  0  0
  -21.6637   -6.8879   21.4240 O   0  0  0  0  0  0
  -22.3524  -14.5521   20.6688 O   0  0  0  0  0  0
  -24.6131  -31.8672   23.2098 C   0  0  0  0  0  0
  -25.9035  -32.4810   23.8381 C   0  0  1  0  0  0
  -27.2307  -27.4380   20.0771 C   0  0  0  0  0  0
  -25.5888  -33.8610   24.2310 N   0  0  0  0  0  0
  -23.4005  -30.4898   21.5524 C   0  0  2  0  0  0
  -24.8433  -28.9552   20.1156 C   0  0  0  0  0  0
  -22.7408  -29.4635   22.5014 C   0  0  0  0  0  0
  -18.0260  -28.1390   22.8496 C   0  0  0  0  0  0
  -24.1493  -36.7331   23.2637 C   0  0  0  0  0  0
  -25.9302  -30.8273   21.3659 C   0  0  0  0  0  0
  -26.0039  -29.4623   20.7123 C   0  0  0  0  0  0
  -27.1986  -28.7089   20.6941 C   0  0  0  0  0  0
  -26.0530  -26.9498   19.4647 C   0  0  0  0  0  0
  -24.8606  -27.6962   19.4925 C   0  0  0  0  0  0
  -23.6074  -29.8227   20.1680 C   0  0  0  0  0  0
  -25.4104  -36.3104   24.0336 C   0  0  1  0  0  0
  -20.5849  -28.3665   23.1333 C   0  0  2  0  0  0
  -20.6746  -26.9402   22.5437 C   0  0  0  0  0  0
  -19.5727  -26.6384   21.5230 C   0  0  0  0  0  0
  -18.1899  -26.7929   22.1634 C   0  0  0  0  0  0
  -19.1512  -28.8851   23.2896 C   0  0  0  0  0  0
  -18.9454  -30.1459   23.8895 C   0  0  0  0  0  0
  -17.6459  -30.6596   24.0584 C   0  0  0  0  0  0
  -25.9030  -34.9473   23.5121 C   0  0  0  0  0  0
  -16.5345  -29.9103   23.6338 C   0  0  0  0  0  0
  -16.7247  -28.6526   23.0331 C   0  0  0  0  0  0
  -26.4467  -31.6577   25.0703 C   0  0  0  0  0  0
  -25.3742  -31.3681   26.1468 C   0  0  0  0  0  0
  -27.0299  -30.3019   24.6070 C   0  0  0  0  0  0
  -27.6042  -32.4296   25.7473 C   0  0  0  0  0  0
  -27.5593  -37.1797   24.8452 C   0  0  0  0  0  0
  -21.4139  -29.3034   22.3759 N   0  0  0  0  0  0
  -26.4294  -37.3798   23.9411 N   0  0  0  0  0  0
  -24.6661  -31.0759   22.1008 N   0  0  0  0  0  0
  -23.4178  -28.8143   23.3035 O   0  0  0  0  0  0
  -28.4199  -26.7399   20.0573 O   0  0  0  0  0  0
  -26.5611  -34.8931   22.4694 O   0  0  0  0  0  0
  -23.5319  -32.1456   23.7474 O   0  0  0  0  0  0
  -32.6473  -21.9662   21.4007 C   0  0  0  0  0  0
  -31.1898  -20.4854   22.6554 C   0  0  0  0  0  0
  -31.3948  -21.7217   22.0046 C   0  0  0  0  0  0
  -33.7011  -21.0318   21.5039 C   0  0  0  0  0  0
  -33.4997  -19.8177   22.2081 C   0  0  0  0  0  0
  -32.2269  -19.5278   22.7516 C   0  0  0  0  0  0
  -28.8567  -25.2995   22.5295 C   0  0  0  0  0  0
  -30.3068  -22.7208   21.9905 C   0  0  0  0  0  0
  -30.2041  -23.8009   21.1865 C   0  0  0  0  0  0
  -29.1557  -24.8037   21.3161 C   0  0  0  0  0  0
  -35.0402  -21.3658   20.8654 C   0  0  0  0  0  0
  -34.6224  -18.8031   22.4021 C   0  0  0  0  0  0
  -28.3846  -25.3058   20.1046 C   0  0  0  0  0  0
  -30.3224  -15.3901   21.7643 C   0  0  0  0  0  0
  -31.3595  -16.5121   22.0204 C   0  0  0  0  0  0
  -30.9390  -17.5265   23.0958 C   0  0  0  0  0  0
  -32.0607  -18.3437   23.4346 O   0  0  0  0  0  0
  -31.4563  -12.3979   19.0887 H   0  0  0  0  0  0
  -30.3091  -11.2832   19.7713 H   0  0  0  0  0  0
  -29.7198  -11.8380   17.3893 H   0  0  0  0  0  0
  -29.6385  -13.5357   17.7932 H   0  0  0  0  0  0
  -27.8341  -11.3123   18.8131 H   0  0  0  0  0  0
  -27.3484  -12.6402   17.7924 H   0  0  0  0  0  0
  -27.7126  -14.2564   19.5846 H   0  0  0  0  0  0
  -28.6668  -11.9513   21.3530 H   0  0  0  0  0  0
  -28.4570  -13.5997   21.8602 H   0  0  0  0  0  0
  -25.2773   -9.5679   22.4733 H   0  0  0  0  0  0
  -24.0007   -7.4633   22.7462 H   0  0  0  0  0  0
  -21.0842   -8.8763   19.8944 H   0  0  0  0  0  0
  -22.3697  -10.9661   19.6143 H   0  0  0  0  0  0
  -21.2007   -7.6147   23.9718 H   0  0  0  0  0  0
  -21.1482   -6.0519   25.9078 H   0  0  0  0  0  0
  -22.0598   -2.7608   23.2844 H   0  0  0  0  0  0
  -22.4154  -11.9877   22.4808 H   0  0  0  0  0  0
  -21.1126  -13.1200   22.2621 H   0  0  0  0  0  0
  -24.6571  -15.8409   20.5171 H   0  0  0  0  0  0
  -26.2893  -15.6375   20.1256 H   0  0  0  0  0  0
  -26.7102  -32.5504   23.1136 H   0  0  0  0  0  0
  -24.9996  -33.9766   25.0423 H   0  0  0  0  0  0
  -22.6894  -31.3069   21.4116 H   0  0  0  0  0  0
  -23.3742  -35.9675   23.3282 H   0  0  0  0  0  0
  -24.3600  -36.8970   22.2060 H   0  0  0  0  0  0
  -23.7268  -37.6533   23.6673 H   0  0  0  0  0  0
  -26.0440  -31.5924   20.5958 H   0  0  0  0  0  0
  -26.8180  -30.8787   21.9841 H   0  0  0  0  0  0
  -28.0966  -29.0943   21.1575 H   0  0  0  0  0  0
  -26.0412  -26.0045   18.9424 H   0  0  0  0  0  0
  -23.9699  -27.3053   19.0167 H   0  0  0  0  0  0
  -23.7193  -30.5971   19.4089 H   0  0  0  0  0  0
  -22.7296  -29.2443   19.8723 H   0  0  0  0  0  0
  -25.1269  -36.1972   25.0826 H   0  0  0  0  0  0
  -20.9931  -28.3244   24.1455 H   0  0  0  0  0  0
  -20.5682  -26.2270   23.3625 H   0  0  0  0  0  0
  -21.6608  -26.7465   22.1205 H   0  0  0  0  0  0
  -19.6903  -25.6292   21.1255 H   0  0  0  0  0  0
  -19.6680  -27.3205   20.6766 H   0  0  0  0  0  0
  -17.4175  -26.6708   21.4022 H   0  0  0  0  0  0
  -18.0275  -26.0077   22.9031 H   0  0  0  0  0  0
  -19.7937  -30.7274   24.2263 H   0  0  0  0  0  0
  -17.5014  -31.6278   24.5193 H   0  0  0  0  0  0
  -15.5339  -30.3003   23.7675 H   0  0  0  0  0  0
  -15.8644  -28.0867   22.7011 H   0  0  0  0  0  0
  -24.5872  -30.7082   25.7807 H   0  0  0  0  0  0
  -24.8982  -32.2842   26.4974 H   0  0  0  0  0  0
  -25.8099  -30.8798   27.0194 H   0  0  0  0  0  0
  -26.2829  -29.6759   24.1182 H   0  0  0  0  0  0
  -27.4137  -29.7276   25.4506 H   0  0  0  0  0  0
  -27.8635  -30.4320   23.9170 H   0  0  0  0  0  0
  -27.2623  -33.3555   26.2110 H   0  0  0  0  0  0
  -28.3815  -32.6924   25.0282 H   0  0  0  0  0  0
  -28.0755  -31.8392   26.5337 H   0  0  0  0  0  0
  -28.2557  -38.0148   24.7525 H   0  0  0  0  0  0
  -28.1139  -36.2666   24.6209 H   0  0  0  0  0  0
  -27.2317  -37.1365   25.8860 H   0  0  0  0  0  0
  -20.9300  -29.8799   21.7019 H   0  0  0  0  0  0
  -26.0184  -38.2867   24.1438 H   0  0  0  0  0  0
  -32.8259  -22.9002   20.8872 H   0  0  0  0  0  0
  -30.2359  -20.2870   23.1233 H   0  0  0  0  0  0
  -28.0812  -26.0450   22.6455 H   0  0  0  0  0  0
  -29.3769  -24.9812   23.4211 H   0  0  0  0  0  0
  -29.5383  -22.5717   22.7380 H   0  0  0  0  0  0
  -30.9475  -23.9586   20.4184 H   0  0  0  0  0  0
  -34.9773  -22.2538   20.2355 H   0  0  0  0  0  0
  -35.3816  -20.5453   20.2338 H   0  0  0  0  0  0
  -35.7959  -21.5521   21.6294 H   0  0  0  0  0  0
  -35.6035  -19.1647   22.0976 H   0  0  0  0  0  0
  -34.4088  -17.8943   21.8395 H   0  0  0  0  0  0
  -34.7057  -18.5294   23.4547 H   0  0  0  0  0  0
  -27.3835  -24.8833   20.1917 H   0  0  0  0  0  0
  -28.8144  -24.9054   19.1844 H   0  0  0  0  0  0
  -29.3697  -15.8256   21.4604 H   0  0  0  0  0  0
  -30.1475  -14.8498   22.6959 H   0  0  0  0  0  0
  -31.5687  -17.0497   21.0944 H   0  0  0  0  0  0
  -32.3014  -16.0543   22.3258 H   0  0  0  0  0  0
  -30.6364  -16.9980   24.0004 H   0  0  0  0  0  0
  -30.0686  -18.0934   22.7652 H   0  0  0  0  0  0
  1 25  1  0  0  0
  1 30  2  0  0  0
  1 84  1  0  0  0
  2  3  1  0  0  0
  2 25  1  0  0  0
  2 88  1  0  0  0
  2 89  1  0  0  0
  3  4  1  0  0  0
  3 90  1  0  0  0
  3 91  1  0  0  0
  4  5  1  0  0  0
  4 92  1  0  0  0
  4 93  1  0  0  0
  5  6  1  0  0  0
  5 26  1  0  0  0
  5 94  1  0  0  0
  6 25  1  0  0  0
  6 95  1  0  0  0
  6 96  1  0  0  0
  7  8  2  0  0  0
  7 26  1  0  0  0
  7 29  1  0  0  0
  8  9  1  0  0  0
  8 22  1  0  0  0
  9 10  1  0  0  0
  9 27  2  0  0  0
 10 11  2  0  0  0
 10 15  1  0  0  0
 11 12  1  0  0  0
 11 97  1  0  0  0
 12 13  2  0  0  0
 12 98  1  0  0  0
 13 14  1  0  0  0
 13 31  1  0  0  0
 14 15  2  0  0  0
 14 99  1  0  0  0
 15100  1  0  0  0
 16 17  2  0  0  0
 16 21  1  0  0  0
 16 31  1  0  0  0
 17 18  1  0  0  0
 17101  1  0  0  0
 18 19  2  0  0  0
 18102  1  0  0  0
 19 20  1  0  0  0
 19 24  1  0  0  0
 20 21  2  0  0  0
 20103  1  0  0  0
 21 23  1  0  0  0
 22 28  1  0  0  0
 22 32  2  0  0  0
 26 27  1  0  0  0
 28104  1  0  0  0
 28105  1  0  0  0
 29106  1  0  0  0
 29107  1  0  0  0
 33 34  1  0  0  0
 33 66  1  0  0  0
 33 70  2  0  0  0
 34 36  1  0  0  0
 34 59  1  0  0  0
 34108  1  0  0  0
 35 44  2  0  0  0
 35 45  1  0  0  0
 35 68  1  0  0  0
 36 56  1  0  0  0
 36109  1  0  0  0
 37 39  1  0  0  0
 37 47  1  0  0  0
 37 66  1  0  0  0
 37110  1  0  0  0
 38 43  2  0  0  0
 38 46  1  0  0  0
 38 47  1  0  0  0
 39 64  1  0  0  0
 39 67  2  0  0  0
 40 52  1  0  0  0
 40 53  2  0  0  0
 40 58  1  0  0  0
 41111  1  0  0  0
 41112  1  0  0  0
 41113  1  0  0  0
 41 48  1  0  0  0
 42 43  1  0  0  0
 42 66  1  0  0  0
 42114  1  0  0  0
 42115  1  0  0  0
 43 44  1  0  0  0
 44116  1  0  0  0
 45 46  2  0  0  0
 45117  1  0  0  0
 46118  1  0  0  0
 47119  1  0  0  0
 47120  1  0  0  0
 48 56  1  0  0  0
 48 65  1  0  0  0
 48121  1  0  0  0
 49 50  1  0  0  0
 49 53  1  0  0  0
 49 64  1  0  0  0
 49122  1  0  0  0
 50 51  1  0  0  0
 50123  1  0  0  0
 50124  1  0  0  0
 51 52  1  0  0  0
 51125  1  0  0  0
 51126  1  0  0  0
 52127  1  0  0  0
 52128  1  0  0  0
 53 54  1  0  0  0
 54 55  2  0  0  0
 54129  1  0  0  0
 55 57  1  0  0  0
 55130  1  0  0  0
 56 69  2  0  0  0
 57 58  2  0  0  0
 57131  1  0  0  0
 58132  1  0  0  0
 59 60  1  0  0  0
 59 61  1  0  0  0
 59 62  1  0  0  0
 60133  1  0  0  0
 60134  1  0  0  0
 60135  1  0  0  0
 61136  1  0  0  0
 61137  1  0  0  0
 61138  1  0  0  0
 62139  1  0  0  0
 62140  1  0  0  0
 62141  1  0  0  0
 63 65  1  0  0  0
 63142  1  0  0  0
 63143  1  0  0  0
 63144  1  0  0  0
 64145  1  0  0  0
 65146  1  0  0  0
 68 83  1  0  0  0
 71 73  2  0  0  0
 71 74  1  0  0  0
 71147  1  0  0  0
 72 73  1  0  0  0
 72 76  2  0  0  0
 72148  1  0  0  0
 73 78  1  0  0  0
 74 75  2  0  0  0
 74 81  1  0  0  0
 75 76  1  0  0  0
 75 82  1  0  0  0
 76 87  1  0  0  0
 77 80  2  0  0  0
 77149  1  0  0  0
 77150  1  0  0  0
 78 79  2  0  0  0
 78151  1  0  0  0
 79 80  1  0  0  0
 79152  1  0  0  0
 80 83  1  0  0  0
 81153  1  0  0  0
 81154  1  0  0  0
 81155  1  0  0  0
 82156  1  0  0  0
 82157  1  0  0  0
 82158  1  0  0  0
 83159  1  0  0  0
 83160  1  0  0  0
 84 85  1  0  0  0
 84161  1  0  0  0
 84162  1  0  0  0
 85 86  1  0  0  0
 85163  1  0  0  0
 85164  1  0  0  0
 86 87  1  0  0  0
 86165  1  0  0  0
 86166  1  0  0  0
M  ISO  4   1 100  68 101  83 101  84 100
M  END
> <chiral flag>
0

> <version>
0

> <s_m_source_file>
/data/baiqing/PycharmProjects/Reinvent-master-3.2/result/LINK_invent/BTK/process_docking_weight1_custom_product_contain_oxygen_bond_distance_aromatic_linkinvent_7_9_3/rearranged_h_0122.sdf

> <i_m_source_file_index>
63

> <r_mmod_Potential_Energy-OPLS-2005>
-47.3378105163574

> <r_mmod_Stretch_Energy-OPLS-2005>
35.9815444946289

> <r_mmod_Bend_Energy-OPLS-2005>
100.666442871094

> <r_mmod_Torsional_Energy-OPLS-2005>
201.818145751953

> <r_mmod_Improper_Torsional_Energy-OPLS-2005>
2.11054229736328

> <r_mmod_Van_der_Waal_Energy-OPLS-2005>
162.245468139648

> <r_mmod_Electrostatic_Energy-OPLS-2005>
-364.633422851562

> <r_mmod_Solvation_Energy-OPLS-2005>
-194.249557495117

> <b_mmod_Minimization_Converged-OPLS-2005>
0

> <r_mmod_RMS_Derivative-OPLS-2005>
2.43371796607971

$$$$
63
                    3D
 Structure written by MMmdl.
166174  0  0  1  0            999 V2000
  -30.7842  -14.3617   20.6808 C   0  0  0  0  0  0
  -30.4120  -12.2891   19.4008 C   0  0  0  0  0  0
  -29.4892  -12.5333   18.1923 C   0  0  0  0  0  0
  -28.0120  -12.3895   18.6052 C   0  0  0  0  0  0
  -27.6665  -13.2090   19.8775 C   0  0  2  0  0  0
  -28.7040  -12.9517   20.9930 C   0  0  0  0  0  0
  -25.2609  -13.8170   20.5705 C   0  0  0  0  0  0
  -24.1843  -13.0447   20.9189 C   0  0  0  0  0  0
  -24.6388  -11.6906   20.8723 C   0  0  0  0  0  0
  -23.9052  -10.4287   21.0400 C   0  0  0  0  0  0
  -24.3610   -9.4202   21.9174 C   0  0  0  0  0  0
  -23.6284   -8.2247   22.0745 C   0  0  0  0  0  0
  -22.4261   -8.0288   21.3545 C   0  0  0  0  0  0
  -21.9903   -9.0260   20.4652 C   0  0  0  0  0  0
  -22.7237  -10.2133   20.3045 C   0  0  0  0  0  0
  -21.6852   -6.0729   22.5274 C   0  0  0  0  0  0
  -21.4028   -6.5625   23.8211 C   0  0  0  0  0  0
  -21.3663   -5.6774   24.9174 C   0  0  0  0  0  0
  -21.6048   -4.3039   24.7227 C   0  0  0  0  0  0
  -21.8823   -3.8134   23.4347 C   0  0  0  0  0  0
  -21.9202   -4.6955   22.3403 C   0  0  0  0  0  0
  -22.7863  -13.5261   21.1851 C   0  0  0  0  0  0
  -22.1664   -4.2138   21.0981 F   0  0  0  0  0  0
  -21.5631   -3.4520   25.7742 F   0  0  0  0  0  0
  -30.0465  -13.2404   20.4594 N   0  0  0  0  0  0
  -26.3035  -12.9342   20.3362 N   0  0  0  0  0  0
  -25.9314  -11.6489   20.5737 N   0  0  0  0  0  0
  -22.0489  -12.8246   22.0407 N   0  0  0  0  0  0
  -25.4379  -15.1882   20.4158 N   0  0  0  0  0  0
  -31.8023  -14.6150   20.0292 O   0  0  0  0  0  0
  -21.6639   -6.8874   21.4235 O   0  0  0  0  0  0
  -22.3560  -14.5571   20.6706 O   0  0  0  0  0  0
  -24.6129  -31.8702   23.2116 C   0  0  0  0  0  0
  -25.9064  -32.4829   23.8382 C   0  0  1  0  0  0
  -27.2374  -27.4777   20.0687 C   0  0  0  0  0  0
  -25.5910  -33.8612   24.2321 N   0  0  0  0  0  0
  -23.3967  -30.4923   21.5540 C   0  0  2  0  0  0
  -24.8430  -28.9614   20.1136 C   0  0  0  0  0  0
  -22.7402  -29.4673   22.5048 C   0  0  0  0  0  0
  -18.0265  -28.1349   22.8485 C   0  0  0  0  0  0
  -24.1468  -36.7313   23.2627 C   0  0  0  0  0  0
  -25.9197  -30.8468   21.3566 C   0  0  0  0  0  0
  -26.0020  -29.4850   20.7014 C   0  0  0  0  0  0
  -27.2049  -28.7493   20.6771 C   0  0  0  0  0  0
  -26.0668  -26.9555   19.4812 C   0  0  0  0  0  0
  -24.8683  -27.6949   19.5007 C   0  0  0  0  0  0
  -23.6005  -29.8191   20.1687 C   0  0  0  0  0  0
  -25.4097  -36.3114   24.0332 C   0  0  1  0  0  0
  -20.5858  -28.3640   23.1357 C   0  0  2  0  0  0
  -20.6797  -26.9400   22.5424 C   0  0  0  0  0  0
  -19.5768  -26.6375   21.5212 C   0  0  0  0  0  0
  -18.1936  -26.7912   22.1601 C   0  0  0  0  0  0
  -19.1513  -28.8809   23.2902 C   0  0  0  0  0  0
  -18.9450  -30.1417   23.8893 C   0  0  0  0  0  0
  -17.6457  -30.6573   24.0552 C   0  0  0  0  0  0
  -25.9021  -34.9469   23.5121 C   0  0  0  0  0  0
  -16.5341  -29.9088   23.6304 C   0  0  0  0  0  0
  -16.7253  -28.6487   23.0351 C   0  0  0  0  0  0
  -26.4482  -31.6605   25.0699 C   0  0  0  0  0  0
  -25.3753  -31.3729   26.1452 C   0  0  0  0  0  0
  -27.0302  -30.3050   24.6050 C   0  0  0  0  0  0
  -27.6049  -32.4332   25.7472 C   0  0  0  0  0  0
  -27.5579  -37.1809   24.8463 C   0  0  0  0  0  0
  -21.4126  -29.3040   22.3807 N   0  0  0  0  0  0
  -26.4292  -37.3800   23.9409 N   0  0  0  0  0  0
  -24.6626  -31.0819   22.1013 N   0  0  0  0  0  0
  -23.4197  -28.8223   23.3092 O   0  0  0  0  0  0
  -28.3927  -26.7371   20.0717 O   0  0  0  0  0  0
  -26.5566  -34.8933   22.4675 O   0  0  0  0  0  0
  -23.5344  -32.1451   23.7543 O   0  0  0  0  0  0
  -27.0792  -20.6692   22.1180 C   0  0  0  0  0  0
  -29.1705  -19.7165   21.3308 C   0  0  0  0  0  0
  -27.8329  -18.5213   23.0006 C   0  0  0  0  0  0
  -26.8667  -19.5627   22.9740 C   0  0  0  0  0  0
  -28.2317  -20.7641   21.2994 C   0  0  0  0  0  0
  -28.9795  -18.6081   22.1795 C   0  0  0  0  0  0
  -27.6713  -17.2800   25.1589 C   0  0  0  0  0  0
  -27.6653  -17.3096   23.8176 C   0  0  0  0  0  0
  -24.7196  -20.7351   23.8906 C   0  0  0  0  0  0
  -25.6031  -19.4769   23.8371 C   0  0  0  0  0  0
  -30.4197  -15.3688   21.7766 C   0  0  0  0  0  0
  -28.5283  -24.2745   20.1266 C   0  0  0  0  0  0
  -30.0109  -16.7309   21.1931 C   0  0  0  0  0  0
  -28.3023  -25.5811   20.9039 C   0  0  0  0  0  0
  -27.9327  -23.0877   20.8969 C   0  0  0  0  0  0
  -28.4916  -21.8453   20.4806 O   0  0  0  0  0  0
  -29.9482  -17.6428   22.2788 O   0  0  0  0  0  0
  -31.4580  -12.3681   19.1012 H   0  0  0  0  0  0
  -30.2954  -11.2693   19.7688 H   0  0  0  0  0  0
  -29.7246  -11.8303   17.3922 H   0  0  0  0  0  0
  -29.6693  -13.5321   17.7894 H   0  0  0  0  0  0
  -27.8213  -11.3312   18.7849 H   0  0  0  0  0  0
  -27.3582  -12.6813   17.7827 H   0  0  0  0  0  0
  -27.7238  -14.2634   19.6071 H   0  0  0  0  0  0
  -28.6617  -11.9083   21.3103 H   0  0  0  0  0  0
  -28.4356  -13.5206   21.8769 H   0  0  0  0  0  0
  -25.2756   -9.5677   22.4740 H   0  0  0  0  0  0
  -23.9998   -7.4636   22.7452 H   0  0  0  0  0  0
  -21.0837   -8.8792   19.8952 H   0  0  0  0  0  0
  -22.3714  -10.9670   19.6143 H   0  0  0  0  0  0
  -21.2021   -7.6130   23.9718 H   0  0  0  0  0  0
  -21.1479   -6.0498   25.9078 H   0  0  0  0  0  0
  -22.0600   -2.7594   23.2852 H   0  0  0  0  0  0
  -22.4085  -11.9908   22.4793 H   0  0  0  0  0  0
  -21.1119  -13.1288   22.2608 H   0  0  0  0  0  0
  -24.6811  -15.8542   20.5311 H   0  0  0  0  0  0
  -26.3042  -15.6194   20.1176 H   0  0  0  0  0  0
  -26.7167  -32.5534   23.1178 H   0  0  0  0  0  0
  -25.0138  -33.9784   25.0512 H   0  0  0  0  0  0
  -22.6828  -31.3075   21.4157 H   0  0  0  0  0  0
  -23.3736  -35.9655   23.3309 H   0  0  0  0  0  0
  -24.3562  -36.8903   22.2040 H   0  0  0  0  0  0
  -23.7219  -37.6527   23.6621 H   0  0  0  0  0  0
  -26.0134  -31.6156   20.5887 H   0  0  0  0  0  0
  -26.8151  -30.9035   21.9656 H   0  0  0  0  0  0
  -28.1012  -29.1445   21.1354 H   0  0  0  0  0  0
  -26.0810  -25.9817   19.0111 H   0  0  0  0  0  0
  -23.9802  -27.2860   19.0406 H   0  0  0  0  0  0
  -23.6979  -30.5882   19.4011 H   0  0  0  0  0  0
  -22.7248  -29.2319   19.8834 H   0  0  0  0  0  0
  -25.1274  -36.1991   25.0836 H   0  0  0  0  0  0
  -20.9938  -28.3196   24.1486 H   0  0  0  0  0  0
  -20.5714  -26.2253   23.3583 H   0  0  0  0  0  0
  -21.6674  -26.7481   22.1231 H   0  0  0  0  0  0
  -19.6907  -25.6264   21.1283 H   0  0  0  0  0  0
  -19.6728  -27.3192   20.6744 H   0  0  0  0  0  0
  -17.4246  -26.6717   21.3950 H   0  0  0  0  0  0
  -18.0274  -26.0034   22.8953 H   0  0  0  0  0  0
  -19.7920  -30.7197   24.2284 H   0  0  0  0  0  0
  -17.5011  -31.6242   24.5140 H   0  0  0  0  0  0
  -15.5333  -30.3015   23.7589 H   0  0  0  0  0  0
  -15.8639  -28.0831   22.7088 H   0  0  0  0  0  0
  -24.5924  -30.7074   25.7787 H   0  0  0  0  0  0
  -24.8947  -32.2884   26.4901 H   0  0  0  0  0  0
  -25.8113  -30.8897   27.0199 H   0  0  0  0  0  0
  -26.2818  -29.6835   24.1109 H   0  0  0  0  0  0
  -27.4066  -29.7280   25.4503 H   0  0  0  0  0  0
  -27.8654  -30.4372   23.9178 H   0  0  0  0  0  0
  -27.2666  -33.3620   26.2103 H   0  0  0  0  0  0
  -28.3851  -32.6940   25.0297 H   0  0  0  0  0  0
  -28.0739  -31.8421   26.5362 H   0  0  0  0  0  0
  -28.2613  -38.0088   24.7501 H   0  0  0  0  0  0
  -28.1046  -36.2613   24.6294 H   0  0  0  0  0  0
  -27.2276  -37.1475   25.8861 H   0  0  0  0  0  0
  -20.9281  -29.8807   21.7061 H   0  0  0  0  0  0
  -26.0177  -38.2880   24.1439 H   0  0  0  0  0  0
  -26.3409  -21.4514   22.0766 H   0  0  0  0  0  0
  -30.0676  -19.7804   20.7288 H   0  0  0  0  0  0
  -27.5375  -16.3499   25.6928 H   0  0  0  0  0  0
  -27.8111  -18.1793   25.7425 H   0  0  0  0  0  0
  -27.5239  -16.3835   23.2751 H   0  0  0  0  0  0
  -23.8774  -20.5773   24.5666 H   0  0  0  0  0  0
  -24.3059  -20.9792   22.9126 H   0  0  0  0  0  0
  -25.2769  -21.5998   24.2548 H   0  0  0  0  0  0
  -25.8930  -19.2524   24.8613 H   0  0  0  0  0  0
  -25.0095  -18.6292   23.4917 H   0  0  0  0  0  0
  -29.6742  -15.0143   22.4809 H   0  0  0  0  0  0
  -31.3171  -15.5055   22.3822 H   0  0  0  0  0  0
  -29.5959  -24.1319   19.9613 H   0  0  0  0  0  0
  -28.0681  -24.3269   19.1408 H   0  0  0  0  0  0
  -29.0510  -16.6439   20.6798 H   0  0  0  0  0  0
  -30.7447  -17.0868   20.4670 H   0  0  0  0  0  0
  -29.0525  -25.6679   21.6906 H   0  0  0  0  0  0
  -27.3450  -25.5342   21.4279 H   0  0  0  0  0  0
  -26.8531  -23.0831   20.7460 H   0  0  0  0  0  0
  -28.1153  -23.2236   21.9647 H   0  0  0  0  0  0
  1 25  1  0  0  0
  1 30  2  0  0  0
  1 81  1  0  0  0
  2  3  1  0  0  0
  2 25  1  0  0  0
  2 88  1  0  0  0
  2 89  1  0  0  0
  3  4  1  0  0  0
  3 90  1  0  0  0
  3 91  1  0  0  0
  4  5  1  0  0  0
  4 92  1  0  0  0
  4 93  1  0  0  0
  5  6  1  0  0  0
  5 26  1  0  0  0
  5 94  1  0  0  0
  6 25  1  0  0  0
  6 95  1  0  0  0
  6 96  1  0  0  0
  7  8  2  0  0  0
  7 26  1  0  0  0
  7 29  1  0  0  0
  8  9  1  0  0  0
  8 22  1  0  0  0
  9 10  1  0  0  0
  9 27  2  0  0  0
 10 11  2  0  0  0
 10 15  1  0  0  0
 11 12  1  0  0  0
 11 97  1  0  0  0
 12 13  2  0  0  0
 12 98  1  0  0  0
 13 14  1  0  0  0
 13 31  1  0  0  0
 14 15  2  0  0  0
 14 99  1  0  0  0
 15100  1  0  0  0
 16 17  2  0  0  0
 16 21  1  0  0  0
 16 31  1  0  0  0
 17 18  1  0  0  0
 17101  1  0  0  0
 18 19  2  0  0  0
 18102  1  0  0  0
 19 20  1  0  0  0
 19 24  1  0  0  0
 20 21  2  0  0  0
 20103  1  0  0  0
 21 23  1  0  0  0
 22 28  1  0  0  0
 22 32  2  0  0  0
 26 27  1  0  0  0
 28104  1  0  0  0
 28105  1  0  0  0
 29106  1  0  0  0
 29107  1  0  0  0
 33 34  1  0  0  0
 33 66  1  0  0  0
 33 70  2  0  0  0
 34 36  1  0  0  0
 34 59  1  0  0  0
 34108  1  0  0  0
 35 44  2  0  0  0
 35 45  1  0  0  0
 35 68  1  0  0  0
 36 56  1  0  0  0
 36109  1  0  0  0
 37 39  1  0  0  0
 37 47  1  0  0  0
 37 66  1  0  0  0
 37110  1  0  0  0
 38 43  2  0  0  0
 38 46  1  0  0  0
 38 47  1  0  0  0
 39 64  1  0  0  0
 39 67  2  0  0  0
 40 52  1  0  0  0
 40 53  2  0  0  0
 40 58  1  0  0  0
 41111  1  0  0  0
 41112  1  0  0  0
 41113  1  0  0  0
 41 48  1  0  0  0
 42 43  1  0  0  0
 42 66  1  0  0  0
 42114  1  0  0  0
 42115  1  0  0  0
 43 44  1  0  0  0
 44116  1  0  0  0
 45 46  2  0  0  0
 45117  1  0  0  0
 46118  1  0  0  0
 47119  1  0  0  0
 47120  1  0  0  0
 48 56  1  0  0  0
 48 65  1  0  0  0
 48121  1  0  0  0
 49 50  1  0  0  0
 49 53  1  0  0  0
 49 64  1  0  0  0
 49122  1  0  0  0
 50 51  1  0  0  0
 50123  1  0  0  0
 50124  1  0  0  0
 51 52  1  0  0  0
 51125  1  0  0  0
 51126  1  0  0  0
 52127  1  0  0  0
 52128  1  0  0  0
 53 54  1  0  0  0
 54 55  2  0  0  0
 54129  1  0  0  0
 55 57  1  0  0  0
 55130  1  0  0  0
 56 69  2  0  0  0
 57 58  2  0  0  0
 57131  1  0  0  0
 58132  1  0  0  0
 59 60  1  0  0  0
 59 61  1  0  0  0
 59 62  1  0  0  0
 60133  1  0  0  0
 60134  1  0  0  0
 60135  1  0  0  0
 61136  1  0  0  0
 61137  1  0  0  0
 61138  1  0  0  0
 62139  1  0  0  0
 62140  1  0  0  0
 62141  1  0  0  0
 63 65  1  0  0  0
 63142  1  0  0  0
 63143  1  0  0  0
 63144  1  0  0  0
 64145  1  0  0  0
 65146  1  0  0  0
 68 84  1  0  0  0
 71 74  2  0  0  0
 71 75  1  0  0  0
 71147  1  0  0  0
 72 75  2  0  0  0
 72 76  1  0  0  0
 72148  1  0  0  0
 73 74  1  0  0  0
 73 76  2  0  0  0
 73 78  1  0  0  0
 74 80  1  0  0  0
 75 86  1  0  0  0
 76 87  1  0  0  0
 77 78  2  0  0  0
 77149  1  0  0  0
 77150  1  0  0  0
 78151  1  0  0  0
 79 80  1  0  0  0
 79152  1  0  0  0
 79153  1  0  0  0
 79154  1  0  0  0
 80155  1  0  0  0
 80156  1  0  0  0
 81 83  1  0  0  0
 81157  1  0  0  0
 81158  1  0  0  0
 82 84  1  0  0  0
 82 85  1  0  0  0
 82159  1  0  0  0
 82160  1  0  0  0
 83 87  1  0  0  0
 83161  1  0  0  0
 83162  1  0  0  0
 84163  1  0  0  0
 84164  1  0  0  0
 85 86  1  0  0  0
 85165  1  0  0  0
 85166  1  0  0  0
M  ISO  4   1 100  68 101  81 100  84 101
M  END
> <chiral flag>
0

> <version>
0

> <s_m_source_file>
/data/baiqing/PycharmProjects/Reinvent-master-3.2/result/LINK_invent/BTK/process_docking_weight1_custom_product_contain_oxygen_bond_distance_aromatic_linkinvent_7_9_3/rearranged_h_0122.sdf

> <i_m_source_file_index>
64

> <r_mmod_Potential_Energy-OPLS-2005>
22.6987934112549

> <r_mmod_Stretch_Energy-OPLS-2005>
33.9216232299805

> <r_mmod_Bend_Energy-OPLS-2005>
96.2391738891602

> <r_mmod_Torsional_Energy-OPLS-2005>
264.512603759766

> <r_mmod_Improper_Torsional_Energy-OPLS-2005>
1.90228986740112

> <r_mmod_Van_der_Waal_Energy-OPLS-2005>
159.076934814453

> <r_mmod_Electrostatic_Energy-OPLS-2005>
-346.672943115234

> <r_mmod_Solvation_Energy-OPLS-2005>
-193.770492553711

> <b_mmod_Minimization_Converged-OPLS-2005>
0

> <r_mmod_RMS_Derivative-OPLS-2005>
3.83424997329712

$$$$
64
                    3D
 Structure written by MMmdl.
155163  0  0  1  0            999 V2000
  -30.6793  -14.4767   20.5854 C   0  0  0  0  0  0
  -30.4315  -12.3135   19.4158 C   0  0  0  0  0  0
  -29.4957  -12.5098   18.2039 C   0  0  0  0  0  0
  -28.0166  -12.3665   18.6164 C   0  0  0  0  0  0
  -27.6634  -13.2004   19.8765 C   0  0  2  0  0  0
  -28.7046  -12.9620   20.9935 C   0  0  0  0  0  0
  -25.2600  -13.8146   20.5663 C   0  0  0  0  0  0
  -24.1847  -13.0436   20.9183 C   0  0  0  0  0  0
  -24.6389  -11.6900   20.8741 C   0  0  0  0  0  0
  -23.9054  -10.4291   21.0412 C   0  0  0  0  0  0
  -24.3610   -9.4207   21.9186 C   0  0  0  0  0  0
  -23.6290   -8.2240   22.0751 C   0  0  0  0  0  0
  -22.4270   -8.0279   21.3545 C   0  0  0  0  0  0
  -21.9907   -9.0253   20.4645 C   0  0  0  0  0  0
  -22.7232  -10.2135   20.3058 C   0  0  0  0  0  0
  -21.6853   -6.0736   22.5282 C   0  0  0  0  0  0
  -21.4011   -6.5639   23.8215 C   0  0  0  0  0  0
  -21.3658   -5.6791   24.9178 C   0  0  0  0  0  0
  -21.6044   -4.3055   24.7228 C   0  0  0  0  0  0
  -21.8819   -3.8148   23.4349 C   0  0  0  0  0  0
  -21.9192   -4.6965   22.3406 C   0  0  0  0  0  0
  -22.7872  -13.5243   21.1850 C   0  0  0  0  0  0
  -22.1662   -4.2151   21.0984 F   0  0  0  0  0  0
  -21.5629   -3.4538   25.7740 F   0  0  0  0  0  0
  -30.0360  -13.2843   20.4477 N   0  0  0  0  0  0
  -26.3028  -12.9300   20.3359 N   0  0  0  0  0  0
  -25.9312  -11.6469   20.5764 N   0  0  0  0  0  0
  -22.0508  -12.8236   22.0404 N   0  0  0  0  0  0
  -25.4334  -15.1856   20.4013 N   0  0  0  0  0  0
  -31.8023  -14.6872   20.1159 O   0  0  0  0  0  0
  -21.6636   -6.8876   21.4243 O   0  0  0  0  0  0
  -22.3562  -14.5556   20.6706 O   0  0  0  0  0  0
  -24.6128  -31.8689   23.2104 C   0  0  0  0  0  0
  -25.9026  -32.4831   23.8401 C   0  0  1  0  0  0
  -27.2373  -27.4393   20.1029 C   0  0  0  0  0  0
  -25.5891  -33.8627   24.2336 N   0  0  0  0  0  0
  -23.4024  -30.4902   21.5492 C   0  0  2  0  0  0
  -24.8529  -28.9534   20.1181 C   0  0  0  0  0  0
  -22.7409  -29.4656   22.4987 C   0  0  0  0  0  0
  -18.0270  -28.1378   22.8490 C   0  0  0  0  0  0
  -24.1488  -36.7316   23.2640 C   0  0  0  0  0  0
  -25.9300  -30.8338   21.3656 C   0  0  0  0  0  0
  -26.0097  -29.4649   20.7213 C   0  0  0  0  0  0
  -27.2060  -28.7117   20.7189 C   0  0  0  0  0  0
  -26.0707  -26.9411   19.4916 C   0  0  0  0  0  0
  -24.8769  -27.6881   19.5034 C   0  0  0  0  0  0
  -23.6138  -29.8197   20.1647 C   0  0  0  0  0  0
  -25.4108  -36.3117   24.0346 C   0  0  1  0  0  0
  -20.5860  -28.3659   23.1324 C   0  0  2  0  0  0
  -20.6760  -26.9397   22.5420 C   0  0  0  0  0  0
  -19.5742  -26.6388   21.5214 C   0  0  0  0  0  0
  -18.1918  -26.7926   22.1622 C   0  0  0  0  0  0
  -19.1519  -28.8833   23.2904 C   0  0  0  0  0  0
  -18.9455  -30.1438   23.8915 C   0  0  0  0  0  0
  -17.6460  -30.6584   24.0562 C   0  0  0  0  0  0
  -25.9035  -34.9482   23.5140 C   0  0  0  0  0  0
  -16.5346  -29.9090   23.6328 C   0  0  0  0  0  0
  -16.7261  -28.6508   23.0346 C   0  0  0  0  0  0
  -26.4457  -31.6600   25.0720 C   0  0  0  0  0  0
  -25.3732  -31.3708   26.1478 C   0  0  0  0  0  0
  -27.0274  -30.3045   24.6075 C   0  0  0  0  0  0
  -27.6033  -32.4312   25.7481 C   0  0  0  0  0  0
  -27.5581  -37.1809   24.8468 C   0  0  0  0  0  0
  -21.4138  -29.3027   22.3732 N   0  0  0  0  0  0
  -26.4293  -37.3799   23.9415 N   0  0  0  0  0  0
  -24.6661  -31.0791   22.1001 N   0  0  0  0  0  0
  -23.4185  -28.8205   23.3029 O   0  0  0  0  0  0
  -28.3844  -26.6823   20.0466 O   0  0  0  0  0  0
  -26.5593  -34.8931   22.4699 O   0  0  0  0  0  0
  -23.5320  -32.1435   23.7502 O   0  0  0  0  0  0
  -29.0166  -19.0765   21.1514 C   0  0  0  0  0  0
  -31.4303  -18.9153   21.2724 C   0  0  0  0  0  0
  -28.9321  -17.6658   21.1162 C   0  0  0  0  0  0
  -31.3507  -17.5048   21.2238 C   0  0  0  0  0  0
  -30.2695  -19.7242   21.2468 C   0  0  0  0  0  0
  -30.0943  -16.8615   21.1469 C   0  0  0  0  0  0
  -30.4191  -21.1997   21.3493 C   0  0  0  0  0  0
  -29.4622  -22.1543   21.2480 C   0  0  0  0  0  0
  -28.7195  -24.4757   21.0949 C   0  0  0  0  0  0
  -29.6877  -23.5934   21.4501 C   0  0  0  0  0  0
  -30.9803  -24.0820   22.0950 C   0  0  0  0  0  0
  -28.7328  -26.0024   21.2566 C   0  0  0  0  0  0
  -29.9312  -15.4414   21.1611 N   0  0  0  0  0  0
  -31.4734  -12.4308   19.1117 H   0  0  0  0  0  0
  -30.3478  -11.2978   19.8051 H   0  0  0  0  0  0
  -29.7357  -11.7875   17.4227 H   0  0  0  0  0  0
  -29.6596  -13.4969   17.7679 H   0  0  0  0  0  0
  -27.8274  -11.3098   18.8084 H   0  0  0  0  0  0
  -27.3655  -12.6443   17.7868 H   0  0  0  0  0  0
  -27.7126  -14.2503   19.5872 H   0  0  0  0  0  0
  -28.6843  -11.9183   21.3105 H   0  0  0  0  0  0
  -28.4593  -13.5350   21.8889 H   0  0  0  0  0  0
  -25.2755   -9.5684   22.4758 H   0  0  0  0  0  0
  -24.0006   -7.4628   22.7462 H   0  0  0  0  0  0
  -21.0841   -8.8769   19.8945 H   0  0  0  0  0  0
  -22.3693  -10.9673   19.6166 H   0  0  0  0  0  0
  -21.1999   -7.6146   23.9723 H   0  0  0  0  0  0
  -21.1480   -6.0519   25.9082 H   0  0  0  0  0  0
  -22.0599   -2.7610   23.2850 H   0  0  0  0  0  0
  -22.4114  -11.9891   22.4790 H   0  0  0  0  0  0
  -21.1125  -13.1264   22.2607 H   0  0  0  0  0  0
  -24.6617  -15.8385   20.4847 H   0  0  0  0  0  0
  -26.2724  -15.6117   20.0294 H   0  0  0  0  0  0
  -26.7100  -32.5556   23.1169 H   0  0  0  0  0  0
  -25.0041  -33.9795   25.0480 H   0  0  0  0  0  0
  -22.6897  -31.3054   21.4076 H   0  0  0  0  0  0
  -23.3749  -35.9649   23.3317 H   0  0  0  0  0  0
  -24.3581  -36.8910   22.2050 H   0  0  0  0  0  0
  -23.7244  -37.6529   23.6638 H   0  0  0  0  0  0
  -26.0405  -31.5957   20.5927 H   0  0  0  0  0  0
  -26.8189  -30.8921   21.9819 H   0  0  0  0  0  0
  -28.1017  -29.1046   21.1794 H   0  0  0  0  0  0
  -26.0886  -25.9728   19.0107 H   0  0  0  0  0  0
  -23.9886  -27.2887   19.0342 H   0  0  0  0  0  0
  -23.7224  -30.5931   19.4034 H   0  0  0  0  0  0
  -22.7389  -29.2382   19.8692 H   0  0  0  0  0  0
  -25.1280  -36.1983   25.0839 H   0  0  0  0  0  0
  -20.9943  -28.3220   24.1448 H   0  0  0  0  0  0
  -20.5665  -26.2264   23.3601 H   0  0  0  0  0  0
  -21.6632  -26.7442   22.1209 H   0  0  0  0  0  0
  -19.6908  -25.6308   21.1225 H   0  0  0  0  0  0
  -19.6690  -27.3209   20.6753 H   0  0  0  0  0  0
  -17.4190  -26.6672   21.4023 H   0  0  0  0  0  0
  -18.0317  -26.0065   22.9015 H   0  0  0  0  0  0
  -19.7933  -30.7239   24.2295 H   0  0  0  0  0  0
  -17.5023  -31.6269   24.5152 H   0  0  0  0  0  0
  -15.5351  -30.2998   23.7651 H   0  0  0  0  0  0
  -15.8659  -28.0836   22.7054 H   0  0  0  0  0  0
  -24.5903  -30.7053   25.7826 H   0  0  0  0  0  0
  -24.8926  -32.2863   26.4934 H   0  0  0  0  0  0
  -25.8096  -30.8878   27.0231 H   0  0  0  0  0  0
  -26.2805  -29.6830   24.1120 H   0  0  0  0  0  0
  -27.4042  -29.7253   25.4513 H   0  0  0  0  0  0
  -27.8644  -30.4369   23.9217 H   0  0  0  0  0  0
  -27.2653  -33.3607   26.2076 H   0  0  0  0  0  0
  -28.3834  -32.6881   25.0302 H   0  0  0  0  0  0
  -28.0710  -31.8427   26.5385 H   0  0  0  0  0  0
  -28.2602  -38.0100   24.7502 H   0  0  0  0  0  0
  -28.1067  -36.2630   24.6301 H   0  0  0  0  0  0
  -27.2298  -37.1470   25.8871 H   0  0  0  0  0  0
  -20.9297  -29.8750   21.6959 H   0  0  0  0  0  0
  -26.0190  -38.2881   24.1408 H   0  0  0  0  0  0
  -28.1011  -19.6495   21.1309 H   0  0  0  0  0  0
  -32.4051  -19.3764   21.3484 H   0  0  0  0  0  0
  -27.9545  -17.2063   21.0671 H   0  0  0  0  0  0
  -32.2648  -16.9305   21.2711 H   0  0  0  0  0  0
  -31.4319  -21.5199   21.5451 H   0  0  0  0  0  0
  -28.4523  -21.8382   21.0272 H   0  0  0  0  0  0
  -27.8077  -24.0940   20.6570 H   0  0  0  0  0  0
  -31.4273  -23.3228   22.7355 H   0  0  0  0  0  0
  -30.8147  -24.9400   22.7455 H   0  0  0  0  0  0
  -31.7073  -24.3604   21.3312 H   0  0  0  0  0  0
  -29.7148  -26.3675   21.5511 H   0  0  0  0  0  0
  -28.0528  -26.2585   22.0717 H   0  0  0  0  0  0
  -29.0236  -15.1144   21.4538 H   0  0  0  0  0  0
  1 25  1  0  0  0
  1 30  2  0  0  0
  1 83  1  0  0  0
  2  3  1  0  0  0
  2 25  1  0  0  0
  2 84  1  0  0  0
  2 85  1  0  0  0
  3  4  1  0  0  0
  3 86  1  0  0  0
  3 87  1  0  0  0
  4  5  1  0  0  0
  4 88  1  0  0  0
  4 89  1  0  0  0
  5  6  1  0  0  0
  5 26  1  0  0  0
  5 90  1  0  0  0
  6 25  1  0  0  0
  6 91  1  0  0  0
  6 92  1  0  0  0
  7  8  2  0  0  0
  7 26  1  0  0  0
  7 29  1  0  0  0
  8  9  1  0  0  0
  8 22  1  0  0  0
  9 10  1  0  0  0
  9 27  2  0  0  0
 10 11  2  0  0  0
 10 15  1  0  0  0
 11 12  1  0  0  0
 11 93  1  0  0  0
 12 13  2  0  0  0
 12 94  1  0  0  0
 13 14  1  0  0  0
 13 31  1  0  0  0
 14 15  2  0  0  0
 14 95  1  0  0  0
 15 96  1  0  0  0
 16 17  2  0  0  0
 16 21  1  0  0  0
 16 31  1  0  0  0
 17 18  1  0  0  0
 17 97  1  0  0  0
 18 19  2  0  0  0
 18 98  1  0  0  0
 19 20  1  0  0  0
 19 24  1  0  0  0
 20 21  2  0  0  0
 20 99  1  0  0  0
 21 23  1  0  0  0
 22 28  1  0  0  0
 22 32  2  0  0  0
 26 27  1  0  0  0
 28100  1  0  0  0
 28101  1  0  0  0
 29102  1  0  0  0
 29103  1  0  0  0
 33 34  1  0  0  0
 33 66  1  0  0  0
 33 70  2  0  0  0
 34 36  1  0  0  0
 34 59  1  0  0  0
 34104  1  0  0  0
 35 44  2  0  0  0
 35 45  1  0  0  0
 35 68  1  0  0  0
 36 56  1  0  0  0
 36105  1  0  0  0
 37 39  1  0  0  0
 37 47  1  0  0  0
 37 66  1  0  0  0
 37106  1  0  0  0
 38 43  2  0  0  0
 38 46  1  0  0  0
 38 47  1  0  0  0
 39 64  1  0  0  0
 39 67  2  0  0  0
 40 52  1  0  0  0
 40 53  2  0  0  0
 40 58  1  0  0  0
 41107  1  0  0  0
 41108  1  0  0  0
 41109  1  0  0  0
 41 48  1  0  0  0
 42 43  1  0  0  0
 42 66  1  0  0  0
 42110  1  0  0  0
 42111  1  0  0  0
 43 44  1  0  0  0
 44112  1  0  0  0
 45 46  2  0  0  0
 45113  1  0  0  0
 46114  1  0  0  0
 47115  1  0  0  0
 47116  1  0  0  0
 48 56  1  0  0  0
 48 65  1  0  0  0
 48117  1  0  0  0
 49 50  1  0  0  0
 49 53  1  0  0  0
 49 64  1  0  0  0
 49118  1  0  0  0
 50 51  1  0  0  0
 50119  1  0  0  0
 50120  1  0  0  0
 51 52  1  0  0  0
 51121  1  0  0  0
 51122  1  0  0  0
 52123  1  0  0  0
 52124  1  0  0  0
 53 54  1  0  0  0
 54 55  2  0  0  0
 54125  1  0  0  0
 55 57  1  0  0  0
 55126  1  0  0  0
 56 69  2  0  0  0
 57 58  2  0  0  0
 57127  1  0  0  0
 58128  1  0  0  0
 59 60  1  0  0  0
 59 61  1  0  0  0
 59 62  1  0  0  0
 60129  1  0  0  0
 60130  1  0  0  0
 60131  1  0  0  0
 61132  1  0  0  0
 61133  1  0  0  0
 61134  1  0  0  0
 62135  1  0  0  0
 62136  1  0  0  0
 62137  1  0  0  0
 63 65  1  0  0  0
 63138  1  0  0  0
 63139  1  0  0  0
 63140  1  0  0  0
 64141  1  0  0  0
 65142  1  0  0  0
 68 82  1  0  0  0
 71 73  2  0  0  0
 71 75  1  0  0  0
 71143  1  0  0  0
 72 74  1  0  0  0
 72 75  2  0  0  0
 72144  1  0  0  0
 73 76  1  0  0  0
 73145  1  0  0  0
 74 76  2  0  0  0
 74146  1  0  0  0
 75 77  1  0  0  0
 76 83  1  0  0  0
 77 78  2  0  0  0
 77147  1  0  0  0
 78 80  1  0  0  0
 78148  1  0  0  0
 79 80  2  0  0  0
 79 82  1  0  0  0
 79149  1  0  0  0
 80 81  1  0  0  0
 81150  1  0  0  0
 81151  1  0  0  0
 81152  1  0  0  0
 82153  1  0  0  0
 82154  1  0  0  0
 83155  1  0  0  0
M  ISO  4   1 100  68 101  82 101  83 100
M  END
> <chiral flag>
0

> <version>
0

> <s_m_source_file>
/data/baiqing/PycharmProjects/Reinvent-master-3.2/result/LINK_invent/BTK/process_docking_weight1_custom_product_contain_oxygen_bond_distance_aromatic_linkinvent_7_9_3/rearranged_h_0122.sdf

> <i_m_source_file_index>
65

> <r_mmod_Potential_Energy-OPLS-2005>
-31.9835376739502

> <r_mmod_Stretch_Energy-OPLS-2005>
38.1757965087891

> <r_mmod_Bend_Energy-OPLS-2005>
100.188339233398

> <r_mmod_Torsional_Energy-OPLS-2005>
232.757064819336

> <r_mmod_Improper_Torsional_Energy-OPLS-2005>
4.31751298904419

> <r_mmod_Van_der_Waal_Energy-OPLS-2005>
156.904067993164

> <r_mmod_Electrostatic_Energy-OPLS-2005>
-376.290557861328

> <r_mmod_Solvation_Energy-OPLS-2005>
-199.564743041992

> <b_mmod_Minimization_Converged-OPLS-2005>
0

> <r_mmod_RMS_Derivative-OPLS-2005>
0.737998008728027

$$$$
65
                    3D
 Structure written by MMmdl.
155163  0  0  1  0            999 V2000
  -30.5480  -14.8977   20.4318 C   0  0  0  0  0  0
  -30.4507  -12.5600   19.4781 C   0  0  0  0  0  0
  -29.5226  -12.5614   18.2410 C   0  0  0  0  0  0
  -28.0525  -12.3478   18.6516 C   0  0  0  0  0  0
  -27.6412  -13.2412   19.8499 C   0  0  2  0  0  0
  -28.6913  -13.2201   20.9834 C   0  0  0  0  0  0
  -25.2533  -13.8166   20.5733 C   0  0  0  0  0  0
  -24.1815  -13.0403   20.9214 C   0  0  0  0  0  0
  -24.6416  -11.6889   20.8739 C   0  0  0  0  0  0
  -23.9077  -10.4265   21.0400 C   0  0  0  0  0  0
  -24.3612   -9.4183   21.9190 C   0  0  0  0  0  0
  -23.6287   -8.2221   22.0750 C   0  0  0  0  0  0
  -22.4276   -8.0244   21.3529 C   0  0  0  0  0  0
  -21.9919   -9.0220   20.4634 C   0  0  0  0  0  0
  -22.7243  -10.2101   20.3049 C   0  0  0  0  0  0
  -21.6844   -6.0722   22.5284 C   0  0  0  0  0  0
  -21.3986   -6.5634   23.8203 C   0  0  0  0  0  0
  -21.3668   -5.6791   24.9181 C   0  0  0  0  0  0
  -21.6054   -4.3055   24.7230 C   0  0  0  0  0  0
  -21.8818   -3.8137   23.4356 C   0  0  0  0  0  0
  -21.9186   -4.6960   22.3406 C   0  0  0  0  0  0
  -22.7838  -13.5217   21.1845 C   0  0  0  0  0  0
  -22.1659   -4.2152   21.0989 F   0  0  0  0  0  0
  -21.5657   -3.4536   25.7748 F   0  0  0  0  0  0
  -29.9788  -13.6284   20.3994 N   0  0  0  0  0  0
  -26.2958  -12.9386   20.3287 N   0  0  0  0  0  0
  -25.9352  -11.6524   20.5724 N   0  0  0  0  0  0
  -22.0449  -12.8225   22.0402 N   0  0  0  0  0  0
  -25.4188  -15.1887   20.4184 N   0  0  0  0  0  0
  -31.7353  -15.0138   20.1058 O   0  0  0  0  0  0
  -21.6626   -6.8855   21.4229 O   0  0  0  0  0  0
  -22.3529  -14.5510   20.6670 O   0  0  0  0  0  0
  -24.6399  -31.8528   23.2003 C   0  0  0  0  0  0
  -25.9207  -32.4739   23.8365 C   0  0  1  0  0  0
  -27.2027  -27.1548   20.1656 C   0  0  0  0  0  0
  -25.6026  -33.8548   24.2291 N   0  0  0  0  0  0
  -23.4397  -30.4733   21.5450 C   0  0  2  0  0  0
  -24.8923  -28.9141   20.1117 C   0  0  0  0  0  0
  -22.7533  -29.4594   22.4935 C   0  0  0  0  0  0
  -18.0274  -28.1408   22.8480 C   0  0  0  0  0  0
  -24.1454  -36.7170   23.2658 C   0  0  0  0  0  0
  -25.9965  -30.7262   21.4080 C   0  0  0  0  0  0
  -26.0653  -29.3424   20.7452 C   0  0  0  0  0  0
  -27.2203  -28.4761   20.7646 C   0  0  0  0  0  0
  -26.0080  -26.8352   19.4786 C   0  0  0  0  0  0
  -24.8783  -27.6754   19.4599 C   0  0  0  0  0  0
  -23.6671  -29.8134   20.1596 C   0  0  0  0  0  0
  -25.4103  -36.3036   24.0338 C   0  0  1  0  0  0
  -20.5883  -28.3721   23.1272 C   0  0  2  0  0  0
  -20.6783  -26.9438   22.5420 C   0  0  0  0  0  0
  -19.5758  -26.6380   21.5231 C   0  0  0  0  0  0
  -18.1916  -26.7958   22.1603 C   0  0  0  0  0  0
  -19.1533  -28.8879   23.2859 C   0  0  0  0  0  0
  -18.9465  -30.1488   23.8865 C   0  0  0  0  0  0
  -17.6469  -30.6621   24.0561 C   0  0  0  0  0  0
  -25.9081  -34.9420   23.5095 C   0  0  0  0  0  0
  -16.5349  -29.9100   23.6393 C   0  0  0  0  0  0
  -16.7260  -28.6521   23.0397 C   0  0  0  0  0  0
  -26.4560  -31.6605   25.0785 C   0  0  0  0  0  0
  -25.3756  -31.3739   26.1475 C   0  0  0  0  0  0
  -27.0476  -30.3029   24.6377 C   0  0  0  0  0  0
  -27.6118  -32.4368   25.7542 C   0  0  0  0  0  0
  -27.5536  -37.1741   24.8495 C   0  0  0  0  0  0
  -21.4232  -29.3058   22.3665 N   0  0  0  0  0  0
  -26.4253  -37.3766   23.9440 N   0  0  0  0  0  0
  -24.7097  -31.0394   22.1037 N   0  0  0  0  0  0
  -23.4189  -28.8161   23.3085 O   0  0  0  0  0  0
  -28.2330  -26.1519   20.2608 O   0  0  0  0  0  0
  -26.5624  -34.8902   22.4644 O   0  0  0  0  0  0
  -23.5531  -32.1417   23.7241 O   0  0  0  0  0  0
  -28.5222  -19.5080   19.3849 C   0  0  0  0  0  0
  -30.3719  -18.5284   21.1660 C   0  0  0  0  0  0
  -29.1286  -20.5379   20.1773 C   0  0  0  0  0  0
  -28.7682  -18.0807   19.4704 C   0  0  0  0  0  0
  -30.1141  -19.9676   21.0625 C   0  0  0  0  0  0
  -29.7005  -17.5082   20.4017 C   0  0  0  0  0  0
  -26.8483  -17.4387   17.9529 C   0  0  0  0  0  0
  -28.6085  -22.0407   19.9746 C   0  0  0  0  0  0
  -27.9861  -17.1612   18.6139 C   0  0  0  0  0  0
  -28.7186  -23.3452   20.5059 C   0  0  0  0  0  0
  -30.9228  -20.9076   21.9404 C   0  0  0  0  0  0
  -27.8631  -24.6637   20.0466 C   0  0  0  0  0  0
  -29.7154  -16.0059   20.6850 N   0  0  0  0  0  0
  -31.4821  -12.7236   19.1640 H   0  0  0  0  0  0
  -30.4394  -11.5873   19.9729 H   0  0  0  0  0  0
  -29.8345  -11.7989   17.5272 H   0  0  0  0  0  0
  -29.6170  -13.5154   17.7189 H   0  0  0  0  0  0
  -27.9291  -11.2957   18.9091 H   0  0  0  0  0  0
  -27.3941  -12.5340   17.8010 H   0  0  0  0  0  0
  -27.6121  -14.2573   19.4600 H   0  0  0  0  0  0
  -28.7668  -12.2276   21.4330 H   0  0  0  0  0  0
  -28.4009  -13.9003   21.7842 H   0  0  0  0  0  0
  -25.2725   -9.5677   22.4803 H   0  0  0  0  0  0
  -23.9991   -7.4613   22.7471 H   0  0  0  0  0  0
  -21.0858   -8.8714   19.8935 H   0  0  0  0  0  0
  -22.3671  -10.9643   19.6177 H   0  0  0  0  0  0
  -21.1930   -7.6124   23.9717 H   0  0  0  0  0  0
  -21.1514   -6.0513   25.9086 H   0  0  0  0  0  0
  -22.0590   -2.7600   23.2851 H   0  0  0  0  0  0
  -22.4026  -11.9892   22.4844 H   0  0  0  0  0  0
  -21.1042  -13.1247   22.2507 H   0  0  0  0  0  0
  -24.6431  -15.8316   20.5238 H   0  0  0  0  0  0
  -26.2435  -15.6326   20.0351 H   0  0  0  0  0  0
  -26.7260  -32.5349   23.1081 H   0  0  0  0  0  0
  -25.0303  -33.9719   25.0529 H   0  0  0  0  0  0
  -22.7373  -31.2969   21.3980 H   0  0  0  0  0  0
  -23.3795  -35.9424   23.3344 H   0  0  0  0  0  0
  -24.3530  -36.8769   22.2066 H   0  0  0  0  0  0
  -23.7090  -37.6311   23.6685 H   0  0  0  0  0  0
  -26.1694  -31.4906   20.6485 H   0  0  0  0  0  0
  -26.8576  -30.7603   22.0620 H   0  0  0  0  0  0
  -28.0990  -28.7935   21.3094 H   0  0  0  0  0  0
  -25.8984  -25.8929   18.9636 H   0  0  0  0  0  0
  -23.9875  -27.3510   18.9416 H   0  0  0  0  0  0
  -23.8027  -30.5967   19.4125 H   0  0  0  0  0  0
  -22.7811  -29.2594   19.8435 H   0  0  0  0  0  0
  -25.1292  -36.1856   25.0829 H   0  0  0  0  0  0
  -20.9931  -28.3284   24.1415 H   0  0  0  0  0  0
  -20.5714  -26.2322   23.3623 H   0  0  0  0  0  0
  -21.6643  -26.7504   22.1182 H   0  0  0  0  0  0
  -19.6930  -25.6276   21.1295 H   0  0  0  0  0  0
  -19.6710  -27.3168   20.6747 H   0  0  0  0  0  0
  -17.4207  -26.6742   21.3977 H   0  0  0  0  0  0
  -18.0277  -26.0082   22.8970 H   0  0  0  0  0  0
  -19.7942  -30.7321   24.2200 H   0  0  0  0  0  0
  -17.5031  -31.6311   24.5139 H   0  0  0  0  0  0
  -15.5358  -30.2993   23.7787 H   0  0  0  0  0  0
  -15.8639  -28.0841   22.7172 H   0  0  0  0  0  0
  -24.5945  -30.7104   25.7754 H   0  0  0  0  0  0
  -24.8946  -32.2896   26.4928 H   0  0  0  0  0  0
  -25.8041  -30.8865   27.0243 H   0  0  0  0  0  0
  -26.3131  -29.6691   24.1402 H   0  0  0  0  0  0
  -27.4138  -29.7383   25.4960 H   0  0  0  0  0  0
  -27.9016  -30.4318   23.9721 H   0  0  0  0  0  0
  -27.2786  -33.3733   26.2029 H   0  0  0  0  0  0
  -28.3974  -32.6810   25.0375 H   0  0  0  0  0  0
  -28.0749  -31.8541   26.5511 H   0  0  0  0  0  0
  -28.2602  -38.0005   24.7583 H   0  0  0  0  0  0
  -28.0985  -36.2546   24.6299 H   0  0  0  0  0  0
  -27.2267  -37.1348   25.8906 H   0  0  0  0  0  0
  -20.9452  -29.8714   21.6793 H   0  0  0  0  0  0
  -26.0109  -38.2814   24.1519 H   0  0  0  0  0  0
  -27.8028  -19.8448   18.6554 H   0  0  0  0  0  0
  -31.0915  -18.1964   21.9021 H   0  0  0  0  0  0
  -26.3718  -16.6801   17.3475 H   0  0  0  0  0  0
  -26.3614  -18.4016   17.9938 H   0  0  0  0  0  0
  -27.9061  -22.0543   19.1537 H   0  0  0  0  0  0
  -28.3870  -16.1662   18.4885 H   0  0  0  0  0  0
  -29.3747  -23.5082   21.3494 H   0  0  0  0  0  0
  -31.6655  -20.3713   22.5317 H   0  0  0  0  0  0
  -30.2688  -21.4489   22.6235 H   0  0  0  0  0  0
  -31.4545  -21.6405   21.3321 H   0  0  0  0  0  0
  -26.9055  -24.5218   20.5551 H   0  0  0  0  0  0
  -27.6496  -24.5274   18.9852 H   0  0  0  0  0  0
  -28.7966  -15.6713   20.9325 H   0  0  0  0  0  0
  1 25  1  0  0  0
  1 30  2  0  0  0
  1 83  1  0  0  0
  2  3  1  0  0  0
  2 25  1  0  0  0
  2 84  1  0  0  0
  2 85  1  0  0  0
  3  4  1  0  0  0
  3 86  1  0  0  0
  3 87  1  0  0  0
  4  5  1  0  0  0
  4 88  1  0  0  0
  4 89  1  0  0  0
  5  6  1  0  0  0
  5 26  1  0  0  0
  5 90  1  0  0  0
  6 25  1  0  0  0
  6 91  1  0  0  0
  6 92  1  0  0  0
  7  8  2  0  0  0
  7 26  1  0  0  0
  7 29  1  0  0  0
  8  9  1  0  0  0
  8 22  1  0  0  0
  9 10  1  0  0  0
  9 27  2  0  0  0
 10 11  2  0  0  0
 10 15  1  0  0  0
 11 12  1  0  0  0
 11 93  1  0  0  0
 12 13  2  0  0  0
 12 94  1  0  0  0
 13 14  1  0  0  0
 13 31  1  0  0  0
 14 15  2  0  0  0
 14 95  1  0  0  0
 15 96  1  0  0  0
 16 17  2  0  0  0
 16 21  1  0  0  0
 16 31  1  0  0  0
 17 18  1  0  0  0
 17 97  1  0  0  0
 18 19  2  0  0  0
 18 98  1  0  0  0
 19 20  1  0  0  0
 19 24  1  0  0  0
 20 21  2  0  0  0
 20 99  1  0  0  0
 21 23  1  0  0  0
 22 28  1  0  0  0
 22 32  2  0  0  0
 26 27  1  0  0  0
 28100  1  0  0  0
 28101  1  0  0  0
 29102  1  0  0  0
 29103  1  0  0  0
 33 34  1  0  0  0
 33 66  1  0  0  0
 33 70  2  0  0  0
 34 36  1  0  0  0
 34 59  1  0  0  0
 34104  1  0  0  0
 35 44  2  0  0  0
 35 45  1  0  0  0
 35 68  1  0  0  0
 36 56  1  0  0  0
 36105  1  0  0  0
 37 39  1  0  0  0
 37 47  1  0  0  0
 37 66  1  0  0  0
 37106  1  0  0  0
 38 43  2  0  0  0
 38 46  1  0  0  0
 38 47  1  0  0  0
 39 64  1  0  0  0
 39 67  2  0  0  0
 40 52  1  0  0  0
 40 53  2  0  0  0
 40 58  1  0  0  0
 41107  1  0  0  0
 41108  1  0  0  0
 41109  1  0  0  0
 41 48  1  0  0  0
 42 43  1  0  0  0
 42 66  1  0  0  0
 42110  1  0  0  0
 42111  1  0  0  0
 43 44  1  0  0  0
 44112  1  0  0  0
 45 46  2  0  0  0
 45113  1  0  0  0
 46114  1  0  0  0
 47115  1  0  0  0
 47116  1  0  0  0
 48 56  1  0  0  0
 48 65  1  0  0  0
 48117  1  0  0  0
 49 50  1  0  0  0
 49 53  1  0  0  0
 49 64  1  0  0  0
 49118  1  0  0  0
 50 51  1  0  0  0
 50119  1  0  0  0
 50120  1  0  0  0
 51 52  1  0  0  0
 51121  1  0  0  0
 51122  1  0  0  0
 52123  1  0  0  0
 52124  1  0  0  0
 53 54  1  0  0  0
 54 55  2  0  0  0
 54125  1  0  0  0
 55 57  1  0  0  0
 55126  1  0  0  0
 56 69  2  0  0  0
 57 58  2  0  0  0
 57127  1  0  0  0
 58128  1  0  0  0
 59 60  1  0  0  0
 59 61  1  0  0  0
 59 62  1  0  0  0
 60129  1  0  0  0
 60130  1  0  0  0
 60131  1  0  0  0
 61132  1  0  0  0
 61133  1  0  0  0
 61134  1  0  0  0
 62135  1  0  0  0
 62136  1  0  0  0
 62137  1  0  0  0
 63 65  1  0  0  0
 63138  1  0  0  0
 63139  1  0  0  0
 63140  1  0  0  0
 64141  1  0  0  0
 65142  1  0  0  0
 68 82  1  0  0  0
 71 73  2  0  0  0
 71 74  1  0  0  0
 71143  1  0  0  0
 72 75  2  0  0  0
 72 76  1  0  0  0
 72144  1  0  0  0
 73 75  1  0  0  0
 73 78  1  0  0  0
 74 76  2  0  0  0
 74 79  1  0  0  0
 75 81  1  0  0  0
 76 83  1  0  0  0
 77 79  2  0  0  0
 77145  1  0  0  0
 77146  1  0  0  0
 78 80  2  0  0  0
 78147  1  0  0  0
 79148  1  0  0  0
 80 82  1  0  0  0
 80149  1  0  0  0
 81150  1  0  0  0
 81151  1  0  0  0
 81152  1  0  0  0
 82153  1  0  0  0
 82154  1  0  0  0
 83155  1  0  0  0
M  ISO  4   1 100  68 101  82 101  83 100
M  END
> <chiral flag>
0

> <version>
0

> <s_m_source_file>
/data/baiqing/PycharmProjects/Reinvent-master-3.2/result/LINK_invent/BTK/process_docking_weight1_custom_product_contain_oxygen_bond_distance_aromatic_linkinvent_7_9_3/rearranged_h_0122.sdf

> <i_m_source_file_index>
66

> <r_mmod_Potential_Energy-OPLS-2005>
423.561096191406

> <r_mmod_Stretch_Energy-OPLS-2005>
205.858016967773

> <r_mmod_Bend_Energy-OPLS-2005>
247.134063720703

> <r_mmod_Torsional_Energy-OPLS-2005>
250.693618774414

> <r_mmod_Improper_Torsional_Energy-OPLS-2005>
6.99125099182129

> <r_mmod_Van_der_Waal_Energy-OPLS-2005>
135.861389160156

> <r_mmod_Electrostatic_Energy-OPLS-2005>
-388.5

> <r_mmod_Solvation_Energy-OPLS-2005>
-205.891052246094

> <b_mmod_Minimization_Converged-OPLS-2005>
0

> <r_mmod_RMS_Derivative-OPLS-2005>
3.55630564689636

$$$$
66
                    3D
 Structure written by MMmdl.
155163  0  0  1  0            999 V2000
  -30.6613  -14.7372   20.4631 C   0  0  0  0  0  0
  -30.4146  -12.4262   19.5333 C   0  0  0  0  0  0
  -29.5456  -12.5259   18.2579 C   0  0  0  0  0  0
  -28.0453  -12.4167   18.6108 C   0  0  0  0  0  0
  -27.6458  -13.2724   19.8447 C   0  0  2  0  0  0
  -28.6788  -13.2115   20.9952 C   0  0  0  0  0  0
  -25.2471  -13.8309   20.5562 C   0  0  0  0  0  0
  -24.1779  -13.0431   20.9098 C   0  0  0  0  0  0
  -24.6408  -11.6967   20.8602 C   0  0  0  0  0  0
  -23.9067  -10.4316   21.0247 C   0  0  0  0  0  0
  -24.3609   -9.4245   21.9036 C   0  0  0  0  0  0
  -23.6296   -8.2282   22.0630 C   0  0  0  0  0  0
  -22.4300   -8.0273   21.3408 C   0  0  0  0  0  0
  -21.9888   -9.0240   20.4527 C   0  0  0  0  0  0
  -22.7212  -10.2129   20.2917 C   0  0  0  0  0  0
  -21.6908   -6.0723   22.5279 C   0  0  0  0  0  0
  -21.4081   -6.5556   23.8246 C   0  0  0  0  0  0
  -21.3665   -5.6704   24.9196 C   0  0  0  0  0  0
  -21.6064   -4.2984   24.7213 C   0  0  0  0  0  0
  -21.8823   -3.8077   23.4329 C   0  0  0  0  0  0
  -21.9199   -4.6934   22.3400 C   0  0  0  0  0  0
  -22.7822  -13.5187   21.1808 C   0  0  0  0  0  0
  -22.1637   -4.2097   21.1006 F   0  0  0  0  0  0
  -21.5642   -3.4478   25.7710 F   0  0  0  0  0  0
  -30.0002  -13.5240   20.4447 N   0  0  0  0  0  0
  -26.2948  -12.9582   20.3182 N   0  0  0  0  0  0
  -25.9350  -11.6677   20.5522 N   0  0  0  0  0  0
  -22.0520  -12.8146   22.0428 N   0  0  0  0  0  0
  -25.3957  -15.2021   20.3977 N   0  0  0  0  0  0
  -31.8128  -14.8062   20.0298 O   0  0  0  0  0  0
  -21.6662   -6.8840   21.4184 O   0  0  0  0  0  0
  -22.3434  -14.5404   20.6610 O   0  0  0  0  0  0
  -24.6337  -31.8615   23.1932 C   0  0  0  0  0  0
  -25.9196  -32.4765   23.8306 C   0  0  1  0  0  0
  -27.2367  -27.2601   20.1082 C   0  0  0  0  0  0
  -25.5993  -33.8559   24.2265 N   0  0  0  0  0  0
  -23.4265  -30.4801   21.5450 C   0  0  2  0  0  0
  -24.8753  -28.9192   20.1193 C   0  0  0  0  0  0
  -22.7538  -29.4692   22.4973 C   0  0  0  0  0  0
  -18.0270  -28.1295   22.8538 C   0  0  0  0  0  0
  -24.1472  -36.7258   23.2632 C   0  0  0  0  0  0
  -25.9712  -30.7652   21.3769 C   0  0  0  0  0  0
  -26.0483  -29.3847   20.7263 C   0  0  0  0  0  0
  -27.2267  -28.5678   20.7104 C   0  0  0  0  0  0
  -26.0441  -26.8829   19.4539 C   0  0  0  0  0  0
  -24.8856  -27.6790   19.4658 C   0  0  0  0  0  0
  -23.6402  -29.8002   20.1651 C   0  0  0  0  0  0
  -25.4104  -36.3083   24.0325 C   0  0  1  0  0  0
  -20.5869  -28.3694   23.1087 C   0  0  2  0  0  0
  -20.6886  -26.9618   22.4659 C   0  0  0  0  0  0
  -19.5493  -26.6465   21.4945 C   0  0  0  0  0  0
  -18.1986  -26.7660   22.1992 C   0  0  0  0  0  0
  -19.1529  -28.8828   23.2815 C   0  0  0  0  0  0
  -18.9429  -30.1432   23.8801 C   0  0  0  0  0  0
  -17.6441  -30.6551   24.0434 C   0  0  0  0  0  0
  -25.9091  -34.9447   23.5080 C   0  0  0  0  0  0
  -16.5311  -29.9053   23.6286 C   0  0  0  0  0  0
  -16.7248  -28.6397   23.0440 C   0  0  0  0  0  0
  -26.4495  -31.6587   25.0698 C   0  0  0  0  0  0
  -25.3664  -31.3775   26.1383 C   0  0  0  0  0  0
  -27.0292  -30.2979   24.6211 C   0  0  0  0  0  0
  -27.6037  -32.4286   25.7500 C   0  0  0  0  0  0
  -27.5565  -37.1814   24.8465 C   0  0  0  0  0  0
  -21.4208  -29.3257   22.3789 N   0  0  0  0  0  0
  -26.4279  -37.3796   23.9410 N   0  0  0  0  0  0
  -24.6983  -31.0522   22.0969 N   0  0  0  0  0  0
  -23.4309  -28.8142   23.2964 O   0  0  0  0  0  0
  -28.3523  -26.3766   20.1039 O   0  0  0  0  0  0
  -26.5635  -34.8951   22.4638 O   0  0  0  0  0  0
  -23.5490  -32.1416   23.7216 O   0  0  0  0  0  0
  -29.2972  -19.2252   18.0622 C   0  0  0  0  0  0
  -29.4685  -16.8552   18.6432 C   0  0  0  0  0  0
  -29.9260  -18.5552   20.3181 C   0  0  0  0  0  0
  -29.2006  -17.8557   17.6962 C   0  0  0  0  0  0
  -29.6391  -19.6436   19.3771 C   0  0  0  0  0  0
  -29.8455  -17.1295   19.9664 C   0  0  0  0  0  0
  -28.6149  -18.1624   15.2470 C   0  0  0  0  0  0
  -28.8478  -17.4034   16.3347 C   0  0  0  0  0  0
  -29.8647  -21.1814   19.5233 C   0  0  0  0  0  0
  -29.0507  -22.2310   19.9550 C   0  0  0  0  0  0
  -29.3707  -23.8031   19.9867 C   0  0  0  0  0  0
  -28.1567  -24.8770   20.2152 C   0  0  0  0  0  0
  -29.9961  -15.9080   20.8170 N   0  0  0  0  0  0
  -31.4753  -12.4620   19.2912 H   0  0  0  0  0  0
  -30.2539  -11.4625   20.0164 H   0  0  0  0  0  0
  -29.8074  -11.7473   17.5413 H   0  0  0  0  0  0
  -29.7517  -13.4747   17.7574 H   0  0  0  0  0  0
  -27.8106  -11.3629   18.7712 H   0  0  0  0  0  0
  -27.4558  -12.7261   17.7413 H   0  0  0  0  0  0
  -27.6326  -14.2989   19.4755 H   0  0  0  0  0  0
  -28.6873  -12.2252   21.4563 H   0  0  0  0  0  0
  -28.4091  -13.9229   21.7770 H   0  0  0  0  0  0
  -25.2707   -9.5792   22.4618 H   0  0  0  0  0  0
  -24.0000   -7.4700   22.7383 H   0  0  0  0  0  0
  -21.0781   -8.8721   19.8888 H   0  0  0  0  0  0
  -22.3538  -10.9606   19.6065 H   0  0  0  0  0  0
  -21.2101   -7.6074   23.9704 H   0  0  0  0  0  0
  -21.1472   -6.0441   25.9105 H   0  0  0  0  0  0
  -22.0562   -2.7519   23.2846 H   0  0  0  0  0  0
  -22.4165  -11.9931   22.4987 H   0  0  0  0  0  0
  -21.1151  -13.1194   22.2629 H   0  0  0  0  0  0
  -24.5822  -15.8012   20.4087 H   0  0  0  0  0  0
  -26.1949  -15.6325   19.9481 H   0  0  0  0  0  0
  -26.7272  -32.5423   23.1057 H   0  0  0  0  0  0
  -25.0062  -33.9668   25.0344 H   0  0  0  0  0  0
  -22.7261  -31.3047   21.3918 H   0  0  0  0  0  0
  -23.3741  -35.9586   23.3296 H   0  0  0  0  0  0
  -24.3553  -36.8902   22.2054 H   0  0  0  0  0  0
  -23.7242  -37.6461   23.6634 H   0  0  0  0  0  0
  -26.1117  -31.5195   20.6013 H   0  0  0  0  0  0
  -26.8386  -30.8201   22.0192 H   0  0  0  0  0  0
  -28.1202  -28.9249   21.2026 H   0  0  0  0  0  0
  -25.9761  -25.9594   18.8991 H   0  0  0  0  0  0
  -23.9968  -27.3297   18.9566 H   0  0  0  0  0  0
  -23.7680  -30.5650   19.3998 H   0  0  0  0  0  0
  -22.7581  -29.2319   19.8612 H   0  0  0  0  0  0
  -25.1307  -36.1900   25.0830 H   0  0  0  0  0  0
  -21.0008  -28.2954   24.1106 H   0  0  0  0  0  0
  -21.6477  -26.8358   21.9594 H   0  0  0  0  0  0
  -20.6782  -26.2052   23.2531 H   0  0  0  0  0  0
  -19.6741  -25.6458   21.0821 H   0  0  0  0  0  0
  -19.5824  -27.3370   20.6490 H   0  0  0  0  0  0
  -17.3906  -26.5873   21.4880 H   0  0  0  0  0  0
  -18.1130  -25.9959   22.9703 H   0  0  0  0  0  0
  -19.7909  -30.7193   24.2200 H   0  0  0  0  0  0
  -17.5029  -31.6276   24.4926 H   0  0  0  0  0  0
  -15.5338  -30.3011   23.7527 H   0  0  0  0  0  0
  -15.8659  -28.0596   22.7292 H   0  0  0  0  0  0
  -24.5886  -30.7081   25.7703 H   0  0  0  0  0  0
  -24.8754  -32.2945   26.4680 H   0  0  0  0  0  0
  -25.7935  -30.9067   27.0255 H   0  0  0  0  0  0
  -26.2892  -29.6793   24.1119 H   0  0  0  0  0  0
  -27.3808  -29.7229   25.4794 H   0  0  0  0  0  0
  -27.8844  -30.4178   23.9534 H   0  0  0  0  0  0
  -27.2655  -33.3618   26.2003 H   0  0  0  0  0  0
  -28.3885  -32.6820   25.0358 H   0  0  0  0  0  0
  -28.0614  -31.8448   26.5510 H   0  0  0  0  0  0
  -28.2604  -38.0092   24.7528 H   0  0  0  0  0  0
  -28.1071  -36.2649   24.6268 H   0  0  0  0  0  0
  -27.2298  -37.1423   25.8879 H   0  0  0  0  0  0
  -20.9364  -29.9351   21.7379 H   0  0  0  0  0  0
  -26.0149  -38.2873   24.1437 H   0  0  0  0  0  0
  -29.1356  -19.9760   17.2969 H   0  0  0  0  0  0
  -29.3548  -15.8223   18.3318 H   0  0  0  0  0  0
  -30.2430  -18.8514   21.3097 H   0  0  0  0  0  0
  -28.3623  -17.6974   14.3039 H   0  0  0  0  0  0
  -28.6689  -19.2402   15.2502 H   0  0  0  0  0  0
  -28.7684  -16.3330   16.2064 H   0  0  0  0  0  0
  -30.8576  -21.4740   19.1550 H   0  0  0  0  0  0
  -28.0524  -21.9908   20.3229 H   0  0  0  0  0  0
  -29.9061  -24.0420   19.0604 H   0  0  0  0  0  0
  -30.1231  -23.9763   20.7709 H   0  0  0  0  0  0
  -27.8038  -24.7285   21.2420 H   0  0  0  0  0  0
  -27.3224  -24.5339   19.6004 H   0  0  0  0  0  0
  -29.1965  -15.7209   21.4144 H   0  0  0  0  0  0
  1 25  1  0  0  0
  1 30  2  0  0  0
  1 83  1  0  0  0
  2  3  1  0  0  0
  2 25  1  0  0  0
  2 84  1  0  0  0
  2 85  1  0  0  0
  3  4  1  0  0  0
  3 86  1  0  0  0
  3 87  1  0  0  0
  4  5  1  0  0  0
  4 88  1  0  0  0
  4 89  1  0  0  0
  5  6  1  0  0  0
  5 26  1  0  0  0
  5 90  1  0  0  0
  6 25  1  0  0  0
  6 91  1  0  0  0
  6 92  1  0  0  0
  7  8  2  0  0  0
  7 26  1  0  0  0
  7 29  1  0  0  0
  8  9  1  0  0  0
  8 22  1  0  0  0
  9 10  1  0  0  0
  9 27  2  0  0  0
 10 11  2  0  0  0
 10 15  1  0  0  0
 11 12  1  0  0  0
 11 93  1  0  0  0
 12 13  2  0  0  0
 12 94  1  0  0  0
 13 14  1  0  0  0
 13 31  1  0  0  0
 14 15  2  0  0  0
 14 95  1  0  0  0
 15 96  1  0  0  0
 16 17  2  0  0  0
 16 21  1  0  0  0
 16 31  1  0  0  0
 17 18  1  0  0  0
 17 97  1  0  0  0
 18 19  2  0  0  0
 18 98  1  0  0  0
 19 20  1  0  0  0
 19 24  1  0  0  0
 20 21  2  0  0  0
 20 99  1  0  0  0
 21 23  1  0  0  0
 22 28  1  0  0  0
 22 32  2  0  0  0
 26 27  1  0  0  0
 28100  1  0  0  0
 28101  1  0  0  0
 29102  1  0  0  0
 29103  1  0  0  0
 33 34  1  0  0  0
 33 66  1  0  0  0
 33 70  2  0  0  0
 34 36  1  0  0  0
 34 59  1  0  0  0
 34104  1  0  0  0
 35 44  2  0  0  0
 35 45  1  0  0  0
 35 68  1  0  0  0
 36 56  1  0  0  0
 36105  1  0  0  0
 37 39  1  0  0  0
 37 47  1  0  0  0
 37 66  1  0  0  0
 37106  1  0  0  0
 38 43  2  0  0  0
 38 46  1  0  0  0
 38 47  1  0  0  0
 39 64  1  0  0  0
 39 67  2  0  0  0
 40 52  1  0  0  0
 40 53  2  0  0  0
 40 58  1  0  0  0
 41107  1  0  0  0
 41108  1  0  0  0
 41109  1  0  0  0
 41 48  1  0  0  0
 42 43  1  0  0  0
 42 66  1  0  0  0
 42110  1  0  0  0
 42111  1  0  0  0
 43 44  1  0  0  0
 44112  1  0  0  0
 45 46  2  0  0  0
 45113  1  0  0  0
 46114  1  0  0  0
 47115  1  0  0  0
 47116  1  0  0  0
 48 56  1  0  0  0
 48 65  1  0  0  0
 48117  1  0  0  0
 49 50  1  0  0  0
 49 53  1  0  0  0
 49 64  1  0  0  0
 49118  1  0  0  0
 50 51  1  0  0  0
 50119  1  0  0  0
 50120  1  0  0  0
 51 52  1  0  0  0
 51121  1  0  0  0
 51122  1  0  0  0
 52123  1  0  0  0
 52124  1  0  0  0
 53 54  1  0  0  0
 54 55  2  0  0  0
 54125  1  0  0  0
 55 57  1  0  0  0
 55126  1  0  0  0
 56 69  2  0  0  0
 57 58  2  0  0  0
 57127  1  0  0  0
 58128  1  0  0  0
 59 60  1  0  0  0
 59 61  1  0  0  0
 59 62  1  0  0  0
 60129  1  0  0  0
 60130  1  0  0  0
 60131  1  0  0  0
 61132  1  0  0  0
 61133  1  0  0  0
 61134  1  0  0  0
 62135  1  0  0  0
 62136  1  0  0  0
 62137  1  0  0  0
 63 65  1  0  0  0
 63138  1  0  0  0
 63139  1  0  0  0
 63140  1  0  0  0
 64141  1  0  0  0
 65142  1  0  0  0
 68 82  1  0  0  0
 71 74  2  0  0  0
 71 75  1  0  0  0
 71143  1  0  0  0
 72 74  1  0  0  0
 72 76  2  0  0  0
 72144  1  0  0  0
 73 75  2  0  0  0
 73 76  1  0  0  0
 73145  1  0  0  0
 74 78  1  0  0  0
 75 79  1  0  0  0
 76 83  1  0  0  0
 77 78  2  0  0  0
 77146  1  0  0  0
 77147  1  0  0  0
 78148  1  0  0  0
 79 80  2  0  0  0
 79149  1  0  0  0
 80 81  1  0  0  0
 80150  1  0  0  0
 81 82  1  0  0  0
 81151  1  0  0  0
 81152  1  0  0  0
 82153  1  0  0  0
 82154  1  0  0  0
 83155  1  0  0  0
M  ISO  4   1 100  68 101  82 101  83 100
M  END
> <chiral flag>
0

> <version>
0

> <s_m_source_file>
/data/baiqing/PycharmProjects/Reinvent-master-3.2/result/LINK_invent/BTK/process_docking_weight1_custom_product_contain_oxygen_bond_distance_aromatic_linkinvent_7_9_3/rearranged_h_0122.sdf

> <i_m_source_file_index>
67

> <r_mmod_Potential_Energy-OPLS-2005>
298.955902099609

> <r_mmod_Stretch_Energy-OPLS-2005>
149.847152709961

> <r_mmod_Bend_Energy-OPLS-2005>
180.922103881836

> <r_mmod_Torsional_Energy-OPLS-2005>
294.217712402344

> <r_mmod_Improper_Torsional_Energy-OPLS-2005>
9.00663661956787

> <r_mmod_Van_der_Waal_Energy-OPLS-2005>
135.869094848633

> <r_mmod_Electrostatic_Energy-OPLS-2005>
-346.666961669922

> <r_mmod_Solvation_Energy-OPLS-2005>
-206.967330932617

> <b_mmod_Minimization_Converged-OPLS-2005>
0

> <r_mmod_RMS_Derivative-OPLS-2005>
14.9627847671509

$$$$
67
                    3D
 Structure written by MMmdl.
157165  0  0  1  0            999 V2000
  -30.7782  -14.4232   20.6517 C   0  0  0  0  0  0
  -30.4095  -12.3129   19.4184 C   0  0  0  0  0  0
  -29.4846  -12.5228   18.2071 C   0  0  0  0  0  0
  -28.0132  -12.3657   18.6268 C   0  0  0  0  0  0
  -27.6624  -13.2135   19.8777 C   0  0  2  0  0  0
  -28.7035  -13.0133   21.0021 C   0  0  0  0  0  0
  -25.2586  -13.8182   20.5688 C   0  0  0  0  0  0
  -24.1832  -13.0459   20.9168 C   0  0  0  0  0  0
  -24.6391  -11.6924   20.8748 C   0  0  0  0  0  0
  -23.9056  -10.4313   21.0418 C   0  0  0  0  0  0
  -24.3609   -9.4224   21.9185 C   0  0  0  0  0  0
  -23.6290   -8.2257   22.0761 C   0  0  0  0  0  0
  -22.4273   -8.0291   21.3553 C   0  0  0  0  0  0
  -21.9910   -9.0269   20.4659 C   0  0  0  0  0  0
  -22.7237  -10.2149   20.3061 C   0  0  0  0  0  0
  -21.6857   -6.0731   22.5276 C   0  0  0  0  0  0
  -21.4022   -6.5641   23.8205 C   0  0  0  0  0  0
  -21.3660   -5.6800   24.9172 C   0  0  0  0  0  0
  -21.6048   -4.3059   24.7229 C   0  0  0  0  0  0
  -21.8813   -3.8143   23.4349 C   0  0  0  0  0  0
  -21.9198   -4.6960   22.3404 C   0  0  0  0  0  0
  -22.7854  -13.5256   21.1831 C   0  0  0  0  0  0
  -22.1657   -4.2137   21.0983 F   0  0  0  0  0  0
  -21.5635   -3.4546   25.7743 F   0  0  0  0  0  0
  -30.0414  -13.2940   20.4541 N   0  0  0  0  0  0
  -26.3033  -12.9362   20.3402 N   0  0  0  0  0  0
  -25.9324  -11.6513   20.5799 N   0  0  0  0  0  0
  -22.0500  -12.8238   22.0385 N   0  0  0  0  0  0
  -25.4349  -15.1888   20.4084 N   0  0  0  0  0  0
  -31.8180  -14.6580   20.0323 O   0  0  0  0  0  0
  -21.6649   -6.8872   21.4236 O   0  0  0  0  0  0
  -22.3529  -14.5574   20.6710 O   0  0  0  0  0  0
  -24.6156  -31.8674   23.2071 C   0  0  0  0  0  0
  -25.9057  -32.4816   23.8374 C   0  0  1  0  0  0
  -27.2310  -27.4204   20.1076 C   0  0  0  0  0  0
  -25.5918  -33.8612   24.2313 N   0  0  0  0  0  0
  -23.4055  -30.4897   21.5474 C   0  0  2  0  0  0
  -24.8555  -28.9556   20.1102 C   0  0  0  0  0  0
  -22.7424  -29.4656   22.4966 C   0  0  0  0  0  0
  -18.0279  -28.1370   22.8473 C   0  0  0  0  0  0
  -24.1489  -36.7308   23.2631 C   0  0  0  0  0  0
  -25.9348  -30.8303   21.3635 C   0  0  0  0  0  0
  -26.0154  -29.4642   20.7091 C   0  0  0  0  0  0
  -27.2110  -28.7048   20.7026 C   0  0  0  0  0  0
  -26.0579  -26.9329   19.4961 C   0  0  0  0  0  0
  -24.8727  -27.6908   19.4967 C   0  0  0  0  0  0
  -23.6160  -29.8210   20.1613 C   0  0  0  0  0  0
  -25.4112  -36.3104   24.0331 C   0  0  1  0  0  0
  -20.5871  -28.3676   23.1302 C   0  0  2  0  0  0
  -20.6785  -26.9399   22.5425 C   0  0  0  0  0  0
  -19.5785  -26.6393   21.5200 C   0  0  0  0  0  0
  -18.1955  -26.7918   22.1604 C   0  0  0  0  0  0
  -19.1524  -28.8835   23.2886 C   0  0  0  0  0  0
  -18.9446  -30.1437   23.8905 C   0  0  0  0  0  0
  -17.6448  -30.6578   24.0543 C   0  0  0  0  0  0
  -25.9040  -34.9469   23.5115 C   0  0  0  0  0  0
  -16.5344  -29.9078   23.6291 C   0  0  0  0  0  0
  -16.7267  -28.6481   23.0345 C   0  0  0  0  0  0
  -26.4483  -31.6593   25.0702 C   0  0  0  0  0  0
  -25.3735  -31.3734   26.1442 C   0  0  0  0  0  0
  -27.0319  -30.3023   24.6106 C   0  0  0  0  0  0
  -27.6054  -32.4306   25.7474 C   0  0  0  0  0  0
  -27.5578  -37.1819   24.8469 C   0  0  0  0  0  0
  -21.4149  -29.3053   22.3712 N   0  0  0  0  0  0
  -26.4300  -37.3786   23.9395 N   0  0  0  0  0  0
  -24.6702  -31.0771   22.0977 N   0  0  0  0  0  0
  -23.4188  -28.8188   23.3003 O   0  0  0  0  0  0
  -28.3583  -26.6244   20.1360 O   0  0  0  0  0  0
  -26.5597  -34.8923   22.4671 O   0  0  0  0  0  0
  -23.5350  -32.1451   23.7453 O   0  0  0  0  0  0
  -29.7625  -18.8625   20.9558 C   0  0  0  0  0  0
  -30.3865  -17.5940   20.9460 C   0  0  0  0  0  0
  -28.4573  -16.6406   22.0511 C   0  0  0  0  0  0
  -28.4901  -19.0689   21.5479 C   0  0  0  0  0  0
  -27.8242  -17.9072   22.0710 C   0  0  0  0  0  0
  -29.7421  -16.4687   21.5043 C   0  0  0  0  0  0
  -28.3508  -21.5956   20.7146 C   0  0  0  0  0  0
  -28.4762  -22.8822   21.1314 C   0  0  0  0  0  0
  -27.9342  -20.4802   21.6177 C   0  0  0  0  0  0
  -26.4247  -17.9372   22.6789 C   0  0  0  0  0  0
  -28.7735  -24.1194   20.2733 C   0  0  0  0  0  0
  -28.2001  -25.4150   20.9134 C   0  0  0  0  0  0
  -27.0664  -20.7891   22.4869 N   0  0  0  0  0  0
  -30.4254  -15.2283   21.6667 N   0  0  0  0  0  0
  -31.4542  -12.3950   19.1153 H   0  0  0  0  0  0
  -30.2999  -11.3008   19.8153 H   0  0  0  0  0  0
  -29.7276  -11.8150   17.4135 H   0  0  0  0  0  0
  -29.6416  -13.5184   17.7888 H   0  0  0  0  0  0
  -27.8392  -11.3106   18.8402 H   0  0  0  0  0  0
  -27.3520  -12.6232   17.7980 H   0  0  0  0  0  0
  -27.7055  -14.2600   19.5743 H   0  0  0  0  0  0
  -28.6677  -11.9913   21.3810 H   0  0  0  0  0  0
  -28.4578  -13.6484   21.8516 H   0  0  0  0  0  0
  -25.2753   -9.5697   22.4752 H   0  0  0  0  0  0
  -24.0007   -7.4643   22.7474 H   0  0  0  0  0  0
  -21.0837   -8.8782   19.8963 H   0  0  0  0  0  0
  -22.3685  -10.9685   19.6166 H   0  0  0  0  0  0
  -21.2003   -7.6145   23.9696 H   0  0  0  0  0  0
  -21.1493   -6.0535   25.9071 H   0  0  0  0  0  0
  -22.0590   -2.7602   23.2858 H   0  0  0  0  0  0
  -22.4138  -11.9903   22.4760 H   0  0  0  0  0  0
  -21.1137  -13.1286   22.2647 H   0  0  0  0  0  0
  -24.6807  -15.8565   20.5198 H   0  0  0  0  0  0
  -26.3081  -15.6203   20.1347 H   0  0  0  0  0  0
  -26.7114  -32.5527   23.1124 H   0  0  0  0  0  0
  -25.0104  -33.9768   25.0484 H   0  0  0  0  0  0
  -22.6946  -31.3066   21.4056 H   0  0  0  0  0  0
  -23.3732  -35.9663   23.3335 H   0  0  0  0  0  0
  -24.3566  -36.8882   22.2034 H   0  0  0  0  0  0
  -23.7266  -37.6533   23.6622 H   0  0  0  0  0  0
  -26.0497  -31.5975   20.5964 H   0  0  0  0  0  0
  -26.8181  -30.8806   21.9888 H   0  0  0  0  0  0
  -28.1040  -29.0866   21.1768 H   0  0  0  0  0  0
  -26.0616  -25.9548   19.0352 H   0  0  0  0  0  0
  -23.9818  -27.2943   19.0287 H   0  0  0  0  0  0
  -23.7263  -30.5954   19.4018 H   0  0  0  0  0  0
  -22.7410  -29.2414   19.8628 H   0  0  0  0  0  0
  -25.1288  -36.1972   25.0826 H   0  0  0  0  0  0
  -20.9938  -28.3262   24.1431 H   0  0  0  0  0  0
  -20.5678  -26.2276   23.3617 H   0  0  0  0  0  0
  -21.6666  -26.7438   22.1243 H   0  0  0  0  0  0
  -19.6953  -25.6307   21.1211 H   0  0  0  0  0  0
  -19.6745  -27.3225   20.6744 H   0  0  0  0  0  0
  -17.4222  -26.6616   21.4017 H   0  0  0  0  0  0
  -18.0388  -26.0088   22.9030 H   0  0  0  0  0  0
  -19.7930  -30.7238   24.2291 H   0  0  0  0  0  0
  -17.4997  -31.6264   24.5138 H   0  0  0  0  0  0
  -15.5345  -30.2984   23.7584 H   0  0  0  0  0  0
  -15.8669  -28.0776   22.7092 H   0  0  0  0  0  0
  -24.5895  -30.7099   25.7773 H   0  0  0  0  0  0
  -24.8948  -32.2913   26.4866 H   0  0  0  0  0  0
  -25.8068  -30.8909   27.0210 H   0  0  0  0  0  0
  -26.2888  -29.6781   24.1128 H   0  0  0  0  0  0
  -27.4034  -29.7265   25.4591 H   0  0  0  0  0  0
  -27.8740  -30.4305   23.9298 H   0  0  0  0  0  0
  -27.2666  -33.3582   26.2096 H   0  0  0  0  0  0
  -28.3855  -32.6902   25.0305 H   0  0  0  0  0  0
  -28.0735  -31.8403   26.5366 H   0  0  0  0  0  0
  -28.2627  -38.0082   24.7465 H   0  0  0  0  0  0
  -28.1037  -36.2613   24.6357 H   0  0  0  0  0  0
  -27.2288  -37.1548   25.8870 H   0  0  0  0  0  0
  -20.9305  -29.8824   21.6978 H   0  0  0  0  0  0
  -26.0195  -38.2869   24.1367 H   0  0  0  0  0  0
  -30.3101  -19.7024   20.5516 H   0  0  0  0  0  0
  -31.3843  -17.5028   20.5374 H   0  0  0  0  0  0
  -27.9585  -15.7929   22.5022 H   0  0  0  0  0  0
  -28.5230  -21.3186   19.6851 H   0  0  0  0  0  0
  -28.3369  -23.0878   22.1843 H   0  0  0  0  0  0
  -26.0106  -16.9328   22.7765 H   0  0  0  0  0  0
  -25.7318  -18.4985   22.0523 H   0  0  0  0  0  0
  -26.4409  -18.3749   23.6772 H   0  0  0  0  0  0
  -28.3458  -23.9709   19.2815 H   0  0  0  0  0  0
  -29.8517  -24.2139   20.1454 H   0  0  0  0  0  0
  -28.7000  -25.5844   21.8673 H   0  0  0  0  0  0
  -27.1541  -25.2316   21.1704 H   0  0  0  0  0  0
  -26.8381  -19.9847   23.0587 H   0  0  0  0  0  0
  -31.2784  -15.3992   22.1805 H   0  0  0  0  0  0
  1 25  1  0  0  0
  1 30  2  0  0  0
  1 84  1  0  0  0
  2  3  1  0  0  0
  2 25  1  0  0  0
  2 85  1  0  0  0
  2 86  1  0  0  0
  3  4  1  0  0  0
  3 87  1  0  0  0
  3 88  1  0  0  0
  4  5  1  0  0  0
  4 89  1  0  0  0
  4 90  1  0  0  0
  5  6  1  0  0  0
  5 26  1  0  0  0
  5 91  1  0  0  0
  6 25  1  0  0  0
  6 92  1  0  0  0
  6 93  1  0  0  0
  7  8  2  0  0  0
  7 26  1  0  0  0
  7 29  1  0  0  0
  8  9  1  0  0  0
  8 22  1  0  0  0
  9 10  1  0  0  0
  9 27  2  0  0  0
 10 11  2  0  0  0
 10 15  1  0  0  0
 11 12  1  0  0  0
 11 94  1  0  0  0
 12 13  2  0  0  0
 12 95  1  0  0  0
 13 14  1  0  0  0
 13 31  1  0  0  0
 14 15  2  0  0  0
 14 96  1  0  0  0
 15 97  1  0  0  0
 16 17  2  0  0  0
 16 21  1  0  0  0
 16 31  1  0  0  0
 17 18  1  0  0  0
 17 98  1  0  0  0
 18 19  2  0  0  0
 18 99  1  0  0  0
 19 20  1  0  0  0
 19 24  1  0  0  0
 20 21  2  0  0  0
 20100  1  0  0  0
 21 23  1  0  0  0
 22 28  1  0  0  0
 22 32  2  0  0  0
 26 27  1  0  0  0
 28101  1  0  0  0
 28102  1  0  0  0
 29103  1  0  0  0
 29104  1  0  0  0
 33 34  1  0  0  0
 33 66  1  0  0  0
 33 70  2  0  0  0
 34 36  1  0  0  0
 34 59  1  0  0  0
 34105  1  0  0  0
 35 44  2  0  0  0
 35 45  1  0  0  0
 35 68  1  0  0  0
 36 56  1  0  0  0
 36106  1  0  0  0
 37 39  1  0  0  0
 37 47  1  0  0  0
 37 66  1  0  0  0
 37107  1  0  0  0
 38 43  2  0  0  0
 38 46  1  0  0  0
 38 47  1  0  0  0
 39 64  1  0  0  0
 39 67  2  0  0  0
 40 52  1  0  0  0
 40 53  2  0  0  0
 40 58  1  0  0  0
 41108  1  0  0  0
 41109  1  0  0  0
 41110  1  0  0  0
 41 48  1  0  0  0
 42 43  1  0  0  0
 42 66  1  0  0  0
 42111  1  0  0  0
 42112  1  0  0  0
 43 44  1  0  0  0
 44113  1  0  0  0
 45 46  2  0  0  0
 45114  1  0  0  0
 46115  1  0  0  0
 47116  1  0  0  0
 47117  1  0  0  0
 48 56  1  0  0  0
 48 65  1  0  0  0
 48118  1  0  0  0
 49 50  1  0  0  0
 49 53  1  0  0  0
 49 64  1  0  0  0
 49119  1  0  0  0
 50 51  1  0  0  0
 50120  1  0  0  0
 50121  1  0  0  0
 51 52  1  0  0  0
 51122  1  0  0  0
 51123  1  0  0  0
 52124  1  0  0  0
 52125  1  0  0  0
 53 54  1  0  0  0
 54 55  2  0  0  0
 54126  1  0  0  0
 55 57  1  0  0  0
 55127  1  0  0  0
 56 69  2  0  0  0
 57 58  2  0  0  0
 57128  1  0  0  0
 58129  1  0  0  0
 59 60  1  0  0  0
 59 61  1  0  0  0
 59 62  1  0  0  0
 60130  1  0  0  0
 60131  1  0  0  0
 60132  1  0  0  0
 61133  1  0  0  0
 61134  1  0  0  0
 61135  1  0  0  0
 62136  1  0  0  0
 62137  1  0  0  0
 62138  1  0  0  0
 63 65  1  0  0  0
 63139  1  0  0  0
 63140  1  0  0  0
 63141  1  0  0  0
 64142  1  0  0  0
 65143  1  0  0  0
 68 82  1  0  0  0
 71 72  2  0  0  0
 71 74  1  0  0  0
 71144  1  0  0  0
 72 76  1  0  0  0
 72145  1  0  0  0
 73 75  1  0  0  0
 73 76  2  0  0  0
 73146  1  0  0  0
 74 75  2  0  0  0
 74 79  1  0  0  0
 75 80  1  0  0  0
 76 84  1  0  0  0
 77 78  2  0  0  0
 77 79  1  0  0  0
 77147  1  0  0  0
 78 81  1  0  0  0
 78148  1  0  0  0
 79 83  2  0  0  0
 80149  1  0  0  0
 80150  1  0  0  0
 80151  1  0  0  0
 81 82  1  0  0  0
 81152  1  0  0  0
 81153  1  0  0  0
 82154  1  0  0  0
 82155  1  0  0  0
 83156  1  0  0  0
 84157  1  0  0  0
M  ISO  4   1 100  68 101  82 101  84 100
M  END
> <chiral flag>
0

> <version>
0

> <s_m_source_file>
/data/baiqing/PycharmProjects/Reinvent-master-3.2/result/LINK_invent/BTK/process_docking_weight1_custom_product_contain_oxygen_bond_distance_aromatic_linkinvent_7_9_3/rearranged_h_0122.sdf

> <i_m_source_file_index>
68

> <r_mmod_Potential_Energy-OPLS-2005>
71.3531036376953

> <r_mmod_Stretch_Energy-OPLS-2005>
44.8826370239258

> <r_mmod_Bend_Energy-OPLS-2005>
114.607551574707

> <r_mmod_Torsional_Energy-OPLS-2005>
307.801422119141

> <r_mmod_Improper_Torsional_Energy-OPLS-2005>
9.33695411682129

> <r_mmod_Van_der_Waal_Energy-OPLS-2005>
153.258438110352

> <r_mmod_Electrostatic_Energy-OPLS-2005>
-373.671752929688

> <r_mmod_Solvation_Energy-OPLS-2005>
-197.745681762695

> <b_mmod_Minimization_Converged-OPLS-2005>
0

> <r_mmod_RMS_Derivative-OPLS-2005>
2.46804189682007

$$$$
68
                    3D
 Structure written by MMmdl.
153161  0  0  1  0            999 V2000
  -30.6944  -14.4611   20.6326 C   0  0  0  0  0  0
  -30.4304  -12.3258   19.4119 C   0  0  0  0  0  0
  -29.4938  -12.5316   18.2029 C   0  0  0  0  0  0
  -28.0152  -12.3784   18.6116 C   0  0  0  0  0  0
  -27.6644  -13.2004   19.8790 C   0  0  2  0  0  0
  -28.7011  -12.9448   20.9926 C   0  0  0  0  0  0
  -25.2615  -13.8145   20.5668 C   0  0  0  0  0  0
  -24.1852  -13.0434   20.9153 C   0  0  0  0  0  0
  -24.6394  -11.6901   20.8707 C   0  0  0  0  0  0
  -23.9056  -10.4293   21.0386 C   0  0  0  0  0  0
  -24.3620   -9.4208   21.9163 C   0  0  0  0  0  0
  -23.6299   -8.2243   22.0752 C   0  0  0  0  0  0
  -22.4279   -8.0281   21.3544 C   0  0  0  0  0  0
  -21.9900   -9.0251   20.4648 C   0  0  0  0  0  0
  -22.7222  -10.2134   20.3043 C   0  0  0  0  0  0
  -21.6858   -6.0734   22.5275 C   0  0  0  0  0  0
  -21.4013   -6.5638   23.8207 C   0  0  0  0  0  0
  -21.3662   -5.6792   24.9172 C   0  0  0  0  0  0
  -21.6051   -4.3055   24.7221 C   0  0  0  0  0  0
  -21.8826   -3.8146   23.4341 C   0  0  0  0  0  0
  -21.9200   -4.6963   22.3398 C   0  0  0  0  0  0
  -22.7879  -13.5235   21.1837 C   0  0  0  0  0  0
  -22.1669   -4.2150   21.0973 F   0  0  0  0  0  0
  -21.5634   -3.4539   25.7732 F   0  0  0  0  0  0
  -30.0339  -13.2809   20.4590 N   0  0  0  0  0  0
  -26.3039  -12.9299   20.3370 N   0  0  0  0  0  0
  -25.9314  -11.6464   20.5737 N   0  0  0  0  0  0
  -22.0539  -12.8215   22.0407 N   0  0  0  0  0  0
  -25.4384  -15.1857   20.4108 N   0  0  0  0  0  0
  -31.7813  -14.6870   20.0916 O   0  0  0  0  0  0
  -21.6644   -6.8878   21.4240 O   0  0  0  0  0  0
  -22.3558  -14.5545   20.6709 O   0  0  0  0  0  0
  -24.6125  -31.8686   23.2116 C   0  0  0  0  0  0
  -25.9019  -32.4825   23.8409 C   0  0  1  0  0  0
  -27.2306  -27.4374   20.0775 C   0  0  0  0  0  0
  -25.5871  -33.8628   24.2325 N   0  0  0  0  0  0
  -23.3997  -30.4943   21.5513 C   0  0  2  0  0  0
  -24.8423  -28.9596   20.1171 C   0  0  0  0  0  0
  -22.7396  -29.4669   22.4994 C   0  0  0  0  0  0
  -18.0259  -28.1385   22.8490 C   0  0  0  0  0  0
  -24.1473  -36.7323   23.2637 C   0  0  0  0  0  0
  -25.9293  -30.8326   21.3653 C   0  0  0  0  0  0
  -26.0037  -29.4666   20.7118 C   0  0  0  0  0  0
  -27.1971  -28.7092   20.6951 C   0  0  0  0  0  0
  -26.0383  -26.9339   19.5042 C   0  0  0  0  0  0
  -24.8522  -27.6897   19.5175 C   0  0  0  0  0  0
  -23.6073  -29.8297   20.1650 C   0  0  0  0  0  0
  -25.4093  -36.3117   24.0335 C   0  0  1  0  0  0
  -20.5848  -28.3675   23.1329 C   0  0  2  0  0  0
  -20.6757  -26.9414   22.5429 C   0  0  0  0  0  0
  -19.5737  -26.6397   21.5221 C   0  0  0  0  0  0
  -18.1907  -26.7931   22.1621 C   0  0  0  0  0  0
  -19.1508  -28.8840   23.2906 C   0  0  0  0  0  0
  -18.9444  -30.1444   23.8930 C   0  0  0  0  0  0
  -17.6446  -30.6596   24.0572 C   0  0  0  0  0  0
  -25.9019  -34.9483   23.5129 C   0  0  0  0  0  0
  -16.5339  -29.9100   23.6324 C   0  0  0  0  0  0
  -16.7251  -28.6514   23.0350 C   0  0  0  0  0  0
  -26.4442  -31.6607   25.0737 C   0  0  0  0  0  0
  -25.3725  -31.3723   26.1500 C   0  0  0  0  0  0
  -27.0263  -30.3042   24.6128 C   0  0  0  0  0  0
  -27.6026  -32.4327   25.7479 C   0  0  0  0  0  0
  -27.5570  -37.1806   24.8467 C   0  0  0  0  0  0
  -21.4123  -29.3045   22.3742 N   0  0  0  0  0  0
  -26.4285  -37.3797   23.9410 N   0  0  0  0  0  0
  -24.6655  -31.0790   22.1014 N   0  0  0  0  0  0
  -23.4169  -28.8206   23.3030 O   0  0  0  0  0  0
  -28.4232  -26.7387   20.0628 O   0  0  0  0  0  0
  -26.5594  -34.8927   22.4699 O   0  0  0  0  0  0
  -23.5319  -32.1445   23.7509 O   0  0  0  0  0  0
  -30.5875  -17.3393   18.8084 C   0  0  0  0  0  0
  -30.4981  -18.5617   18.0903 C   0  0  0  0  0  0
  -29.9814  -17.5444   20.0175 C   0  0  0  0  0  0
  -29.8311  -19.4470   18.8875 C   0  0  0  0  0  0
  -29.7495  -16.7231   21.1759 C   0  0  0  0  0  0
  -29.4492  -20.8100   18.6343 C   0  0  0  0  0  0
  -30.0173  -15.4309   21.4932 C   0  0  0  0  0  0
  -28.7054  -21.7080   19.3132 C   0  0  0  0  0  0
  -28.4313  -23.1122   18.7694 C   0  0  0  0  0  0
  -28.3995  -24.2554   19.8110 C   0  0  0  0  0  0
  -28.5912  -25.6429   19.1511 C   0  0  0  0  0  0
  -29.4983  -18.8340   20.0672 O   0  0  0  0  0  0
  -31.4708  -12.4473   19.1057 H   0  0  0  0  0  0
  -30.3544  -11.3057   19.7910 H   0  0  0  0  0  0
  -29.7384  -11.8254   17.4080 H   0  0  0  0  0  0
  -29.6537  -13.5280   17.7878 H   0  0  0  0  0  0
  -27.8257  -11.3194   18.7919 H   0  0  0  0  0  0
  -27.3661  -12.6655   17.7843 H   0  0  0  0  0  0
  -27.7221  -14.2548   19.6077 H   0  0  0  0  0  0
  -28.6854  -11.8942   21.2852 H   0  0  0  0  0  0
  -28.4298  -13.4868   21.8970 H   0  0  0  0  0  0
  -25.2776   -9.5687   22.4719 H   0  0  0  0  0  0
  -24.0026   -7.4628   22.7454 H   0  0  0  0  0  0
  -21.0842   -8.8755   19.8937 H   0  0  0  0  0  0
  -22.3681  -10.9671   19.6147 H   0  0  0  0  0  0
  -21.1993   -7.6145   23.9713 H   0  0  0  0  0  0
  -21.1483   -6.0519   25.9078 H   0  0  0  0  0  0
  -22.0605   -2.7608   23.2835 H   0  0  0  0  0  0
  -22.4196  -11.9883   22.4769 H   0  0  0  0  0  0
  -21.1158  -13.1229   22.2645 H   0  0  0  0  0  0
  -24.6814  -15.8503   20.5302 H   0  0  0  0  0  0
  -26.3074  -15.6201   20.1252 H   0  0  0  0  0  0
  -26.7094  -32.5519   23.1168 H   0  0  0  0  0  0
  -25.0020  -33.9792   25.0466 H   0  0  0  0  0  0
  -22.6898  -31.3128   21.4129 H   0  0  0  0  0  0
  -23.3735  -35.9658   23.3312 H   0  0  0  0  0  0
  -24.3583  -36.8925   22.2052 H   0  0  0  0  0  0
  -23.7221  -37.6529   23.6645 H   0  0  0  0  0  0
  -26.0459  -31.6023   20.6005 H   0  0  0  0  0  0
  -26.8148  -30.8819   21.9863 H   0  0  0  0  0  0
  -28.0972  -29.1027   21.1453 H   0  0  0  0  0  0
  -25.9971  -25.9559   19.0487 H   0  0  0  0  0  0
  -23.9528  -27.2875   19.0714 H   0  0  0  0  0  0
  -23.7200  -30.6065   19.4076 H   0  0  0  0  0  0
  -22.7288  -29.2546   19.8656 H   0  0  0  0  0  0
  -25.1261  -36.1989   25.0828 H   0  0  0  0  0  0
  -20.9930  -28.3246   24.1457 H   0  0  0  0  0  0
  -20.5673  -26.2288   23.3617 H   0  0  0  0  0  0
  -21.6628  -26.7476   22.1217 H   0  0  0  0  0  0
  -19.6918  -25.6314   21.1240 H   0  0  0  0  0  0
  -19.6672  -27.3221   20.6759 H   0  0  0  0  0  0
  -17.4177  -26.6676   21.4019 H   0  0  0  0  0  0
  -18.0308  -26.0069   22.9016 H   0  0  0  0  0  0
  -19.7923  -30.7238   24.2328 H   0  0  0  0  0  0
  -17.5009  -31.6280   24.5169 H   0  0  0  0  0  0
  -15.5343  -30.3019   23.7637 H   0  0  0  0  0  0
  -15.8642  -28.0850   22.7060 H   0  0  0  0  0  0
  -24.5893  -30.7051   25.7865 H   0  0  0  0  0  0
  -24.8910  -32.2877   26.4952 H   0  0  0  0  0  0
  -25.8092  -30.8911   27.0260 H   0  0  0  0  0  0
  -26.2812  -29.6811   24.1165 H   0  0  0  0  0  0
  -27.3991  -29.7263   25.4596 H   0  0  0  0  0  0
  -27.8664  -30.4338   23.9306 H   0  0  0  0  0  0
  -27.2656  -33.3618   26.2092 H   0  0  0  0  0  0
  -28.3810  -32.6908   25.0288 H   0  0  0  0  0  0
  -28.0726  -31.8439   26.5363 H   0  0  0  0  0  0
  -28.2600  -38.0090   24.7515 H   0  0  0  0  0  0
  -28.1046  -36.2623   24.6287 H   0  0  0  0  0  0
  -27.2301  -37.1464   25.8875 H   0  0  0  0  0  0
  -20.9282  -29.8785   21.6989 H   0  0  0  0  0  0
  -26.0181  -38.2873   24.1428 H   0  0  0  0  0  0
  -31.0512  -16.4258   18.4685 H   0  0  0  0  0  0
  -30.8756  -18.7685   17.0986 H   0  0  0  0  0  0
  -29.2448  -17.2649   21.9630 H   0  0  0  0  0  0
  -29.8472  -21.1679   17.6954 H   0  0  0  0  0  0
  -29.7140  -15.1013   22.4757 H   0  0  0  0  0  0
  -28.2577  -21.4414   20.2609 H   0  0  0  0  0  0
  -27.4801  -23.0943   18.2355 H   0  0  0  0  0  0
  -29.1888  -23.3393   18.0169 H   0  0  0  0  0  0
  -29.1822  -24.1083   20.5563 H   0  0  0  0  0  0
  -27.4515  -24.2273   20.3491 H   0  0  0  0  0  0
  -27.9798  -25.7495   18.2540 H   0  0  0  0  0  0
  -29.6150  -25.7039   18.7808 H   0  0  0  0  0  0
  1 25  1  0  0  0
  1 30  2  0  0  0
  1 77  1  0  0  0
  2  3  1  0  0  0
  2 25  1  0  0  0
  2 83  1  0  0  0
  2 84  1  0  0  0
  3  4  1  0  0  0
  3 85  1  0  0  0
  3 86  1  0  0  0
  4  5  1  0  0  0
  4 87  1  0  0  0
  4 88  1  0  0  0
  5  6  1  0  0  0
  5 26  1  0  0  0
  5 89  1  0  0  0
  6 25  1  0  0  0
  6 90  1  0  0  0
  6 91  1  0  0  0
  7  8  2  0  0  0
  7 26  1  0  0  0
  7 29  1  0  0  0
  8  9  1  0  0  0
  8 22  1  0  0  0
  9 10  1  0  0  0
  9 27  2  0  0  0
 10 11  2  0  0  0
 10 15  1  0  0  0
 11 12  1  0  0  0
 11 92  1  0  0  0
 12 13  2  0  0  0
 12 93  1  0  0  0
 13 14  1  0  0  0
 13 31  1  0  0  0
 14 15  2  0  0  0
 14 94  1  0  0  0
 15 95  1  0  0  0
 16 17  2  0  0  0
 16 21  1  0  0  0
 16 31  1  0  0  0
 17 18  1  0  0  0
 17 96  1  0  0  0
 18 19  2  0  0  0
 18 97  1  0  0  0
 19 20  1  0  0  0
 19 24  1  0  0  0
 20 21  2  0  0  0
 20 98  1  0  0  0
 21 23  1  0  0  0
 22 28  1  0  0  0
 22 32  2  0  0  0
 26 27  1  0  0  0
 28 99  1  0  0  0
 28100  1  0  0  0
 29101  1  0  0  0
 29102  1  0  0  0
 33 34  1  0  0  0
 33 66  1  0  0  0
 33 70  2  0  0  0
 34 36  1  0  0  0
 34 59  1  0  0  0
 34103  1  0  0  0
 35 44  2  0  0  0
 35 45  1  0  0  0
 35 68  1  0  0  0
 36 56  1  0  0  0
 36104  1  0  0  0
 37 39  1  0  0  0
 37 47  1  0  0  0
 37 66  1  0  0  0
 37105  1  0  0  0
 38 43  2  0  0  0
 38 46  1  0  0  0
 38 47  1  0  0  0
 39 64  1  0  0  0
 39 67  2  0  0  0
 40 52  1  0  0  0
 40 53  2  0  0  0
 40 58  1  0  0  0
 41106  1  0  0  0
 41107  1  0  0  0
 41108  1  0  0  0
 41 48  1  0  0  0
 42 43  1  0  0  0
 42 66  1  0  0  0
 42109  1  0  0  0
 42110  1  0  0  0
 43 44  1  0  0  0
 44111  1  0  0  0
 45 46  2  0  0  0
 45112  1  0  0  0
 46113  1  0  0  0
 47114  1  0  0  0
 47115  1  0  0  0
 48 56  1  0  0  0
 48 65  1  0  0  0
 48116  1  0  0  0
 49 50  1  0  0  0
 49 53  1  0  0  0
 49 64  1  0  0  0
 49117  1  0  0  0
 50 51  1  0  0  0
 50118  1  0  0  0
 50119  1  0  0  0
 51 52  1  0  0  0
 51120  1  0  0  0
 51121  1  0  0  0
 52122  1  0  0  0
 52123  1  0  0  0
 53 54  1  0  0  0
 54 55  2  0  0  0
 54124  1  0  0  0
 55 57  1  0  0  0
 55125  1  0  0  0
 56 69  2  0  0  0
 57 58  2  0  0  0
 57126  1  0  0  0
 58127  1  0  0  0
 59 60  1  0  0  0
 59 61  1  0  0  0
 59 62  1  0  0  0
 60128  1  0  0  0
 60129  1  0  0  0
 60130  1  0  0  0
 61131  1  0  0  0
 61132  1  0  0  0
 61133  1  0  0  0
 62134  1  0  0  0
 62135  1  0  0  0
 62136  1  0  0  0
 63 65  1  0  0  0
 63137  1  0  0  0
 63138  1  0  0  0
 63139  1  0  0  0
 64140  1  0  0  0
 65141  1  0  0  0
 68 81  1  0  0  0
 71 72  1  0  0  0
 71 73  2  0  0  0
 71142  1  0  0  0
 72 74  2  0  0  0
 72143  1  0  0  0
 73 75  1  0  0  0
 73 82  1  0  0  0
 74 76  1  0  0  0
 74 82  1  0  0  0
 75 77  2  0  0  0
 75144  1  0  0  0
 76 78  2  0  0  0
 76145  1  0  0  0
 77146  1  0  0  0
 78 79  1  0  0  0
 78147  1  0  0  0
 79 80  1  0  0  0
 79148  1  0  0  0
 79149  1  0  0  0
 80 81  1  0  0  0
 80150  1  0  0  0
 80151  1  0  0  0
 81152  1  0  0  0
 81153  1  0  0  0
M  ISO  4   1 100  68 101  77 100  81 101
M  END
> <chiral flag>
0

> <version>
0

> <s_m_source_file>
/data/baiqing/PycharmProjects/Reinvent-master-3.2/result/LINK_invent/BTK/process_docking_weight1_custom_product_contain_oxygen_bond_distance_aromatic_linkinvent_7_9_3/rearranged_h_0122.sdf

> <i_m_source_file_index>
69

> <r_mmod_Potential_Energy-OPLS-2005>
-60.3620758056641

> <r_mmod_Stretch_Energy-OPLS-2005>
35.0959968566895

> <r_mmod_Bend_Energy-OPLS-2005>
110.092704772949

> <r_mmod_Torsional_Energy-OPLS-2005>
180.433578491211

> <r_mmod_Improper_Torsional_Energy-OPLS-2005>
1.92541980743408

> <r_mmod_Van_der_Waal_Energy-OPLS-2005>
133.601104736328

> <r_mmod_Electrostatic_Energy-OPLS-2005>
-340.714508056641

> <r_mmod_Solvation_Energy-OPLS-2005>
-191.684555053711

> <b_mmod_Minimization_Converged-OPLS-2005>
0

> <r_mmod_RMS_Derivative-OPLS-2005>
1.71821105480194

$$$$
69
                    3D
 Structure written by MMmdl.
162171  0  0  1  0            999 V2000
  -30.7277  -14.3936   20.6778 C   0  0  0  0  0  0
  -30.4269  -12.3007   19.3864 C   0  0  0  0  0  0
  -29.4842  -12.5226   18.1878 C   0  0  0  0  0  0
  -28.0084  -12.3766   18.6095 C   0  0  0  0  0  0
  -27.6685  -13.1967   19.8822 C   0  0  2  0  0  0
  -28.7120  -12.9264   20.9894 C   0  0  0  0  0  0
  -25.2624  -13.8143   20.5678 C   0  0  0  0  0  0
  -24.1853  -13.0436   20.9162 C   0  0  0  0  0  0
  -24.6393  -11.6898   20.8731 C   0  0  0  0  0  0
  -23.9055  -10.4291   21.0405 C   0  0  0  0  0  0
  -24.3612   -9.4208   21.9182 C   0  0  0  0  0  0
  -23.6291   -8.2242   22.0755 C   0  0  0  0  0  0
  -22.4273   -8.0278   21.3545 C   0  0  0  0  0  0
  -21.9905   -9.0249   20.4645 C   0  0  0  0  0  0
  -22.7230  -10.2129   20.3052 C   0  0  0  0  0  0
  -21.6851   -6.0734   22.5279 C   0  0  0  0  0  0
  -21.4010   -6.5639   23.8212 C   0  0  0  0  0  0
  -21.3658   -5.6792   24.9174 C   0  0  0  0  0  0
  -21.6046   -4.3053   24.7224 C   0  0  0  0  0  0
  -21.8819   -3.8146   23.4345 C   0  0  0  0  0  0
  -21.9193   -4.6964   22.3402 C   0  0  0  0  0  0
  -22.7875  -13.5243   21.1829 C   0  0  0  0  0  0
  -22.1660   -4.2149   21.0978 F   0  0  0  0  0  0
  -21.5635   -3.4537   25.7737 F   0  0  0  0  0  0
  -30.0432  -13.2427   20.4459 N   0  0  0  0  0  0
  -26.3063  -12.9296   20.3411 N   0  0  0  0  0  0
  -25.9322  -11.6464   20.5774 N   0  0  0  0  0  0
  -22.0512  -12.8234   22.0384 N   0  0  0  0  0  0
  -25.4372  -15.1855   20.4087 N   0  0  0  0  0  0
  -31.7791  -14.6636   20.0858 O   0  0  0  0  0  0
  -21.6637   -6.8876   21.4240 O   0  0  0  0  0  0
  -22.3566  -14.5558   20.6690 O   0  0  0  0  0  0
  -24.6103  -31.8706   23.2117 C   0  0  0  0  0  0
  -25.9008  -32.4837   23.8409 C   0  0  1  0  0  0
  -27.2506  -27.4688   20.1013 C   0  0  0  0  0  0
  -25.5882  -33.8633   24.2346 N   0  0  0  0  0  0
  -23.3975  -30.4921   21.5503 C   0  0  2  0  0  0
  -24.8487  -28.9580   20.1203 C   0  0  0  0  0  0
  -22.7391  -29.4669   22.5006 C   0  0  0  0  0  0
  -18.0270  -28.1373   22.8491 C   0  0  0  0  0  0
  -24.1483  -36.7316   23.2638 C   0  0  0  0  0  0
  -25.9206  -30.8499   21.3568 C   0  0  0  0  0  0
  -26.0037  -29.4834   20.7127 C   0  0  0  0  0  0
  -27.2083  -28.7499   20.7002 C   0  0  0  0  0  0
  -26.0811  -26.9529   19.5074 C   0  0  0  0  0  0
  -24.8798  -27.6887   19.5151 C   0  0  0  0  0  0
  -23.6063  -29.8184   20.1668 C   0  0  0  0  0  0
  -25.4100  -36.3120   24.0348 C   0  0  1  0  0  0
  -20.5858  -28.3649   23.1333 C   0  0  2  0  0  0
  -20.6761  -26.9389   22.5421 C   0  0  0  0  0  0
  -19.5747  -26.6386   21.5210 C   0  0  0  0  0  0
  -18.1920  -26.7925   22.1611 C   0  0  0  0  0  0
  -19.1519  -28.8826   23.2913 C   0  0  0  0  0  0
  -18.9449  -30.1433   23.8921 C   0  0  0  0  0  0
  -17.6453  -30.6578   24.0568 C   0  0  0  0  0  0
  -25.9026  -34.9485   23.5145 C   0  0  0  0  0  0
  -16.5342  -29.9083   23.6326 C   0  0  0  0  0  0
  -16.7260  -28.6501   23.0340 C   0  0  0  0  0  0
  -26.4457  -31.6599   25.0714 C   0  0  0  0  0  0
  -25.3743  -31.3695   26.1482 C   0  0  0  0  0  0
  -27.0271  -30.3051   24.6036 C   0  0  0  0  0  0
  -27.6052  -32.4297   25.7463 C   0  0  0  0  0  0
  -27.5586  -37.1807   24.8461 C   0  0  0  0  0  0
  -21.4123  -29.3025   22.3745 N   0  0  0  0  0  0
  -26.4289  -37.3802   23.9420 N   0  0  0  0  0  0
  -24.6608  -31.0845   22.0991 N   0  0  0  0  0  0
  -23.4182  -28.8221   23.3040 O   0  0  0  0  0  0
  -28.3904  -26.7021   20.0277 O   0  0  0  0  0  0
  -26.5582  -34.8932   22.4703 O   0  0  0  0  0  0
  -23.5306  -32.1430   23.7541 O   0  0  0  0  0  0
  -31.4291  -20.9829   22.0141 C   0  0  0  0  0  0
  -31.3623  -19.5826   21.8802 C   0  0  0  0  0  0
  -29.8399  -21.2397   20.2027 C   0  0  0  0  0  0
  -29.7624  -19.8345   20.0701 C   0  0  0  0  0  0
  -30.6568  -21.8364   21.1919 C   0  0  0  0  0  0
  -30.5105  -18.9888   20.9193 C   0  0  0  0  0  0
  -29.8485  -25.4466   21.4336 C   0  0  0  0  0  0
  -29.1826  -26.5769   21.1380 C   0  0  0  0  0  0
  -30.7740  -25.2872   22.6128 C   0  0  0  0  0  0
  -29.7972  -24.1444   20.6670 C   0  0  0  0  0  0
  -31.1310  -23.7991   22.6437 C   0  0  0  0  0  0
  -28.8493  -19.2284   19.0200 C   0  0  0  0  0  0
  -30.1654  -15.3864   21.7136 C   0  0  0  0  0  0
  -30.8526  -16.7649   21.7939 C   0  0  0  0  0  0
  -30.7129  -23.2392   21.3603 N   0  0  0  0  0  0
  -30.3663  -17.6240   20.7613 O   0  0  0  0  0  0
  -31.4670  -12.4189   19.0773 H   0  0  0  0  0  0
  -30.3435  -11.2764   19.7535 H   0  0  0  0  0  0
  -29.7166  -11.8134   17.3923 H   0  0  0  0  0  0
  -29.6492  -13.5168   17.7699 H   0  0  0  0  0  0
  -27.8169  -11.3178   18.7898 H   0  0  0  0  0  0
  -27.3516  -12.6662   17.7887 H   0  0  0  0  0  0
  -27.7292  -14.2516   19.6140 H   0  0  0  0  0  0
  -28.6846  -11.8751   21.2796 H   0  0  0  0  0  0
  -28.4659  -13.4719   21.8992 H   0  0  0  0  0  0
  -25.2763   -9.5684   22.4750 H   0  0  0  0  0  0
  -24.0004   -7.4634   22.7472 H   0  0  0  0  0  0
  -21.0840   -8.8761   19.8947 H   0  0  0  0  0  0
  -22.3693  -10.9666   19.6157 H   0  0  0  0  0  0
  -21.1994   -7.6148   23.9716 H   0  0  0  0  0  0
  -21.1482   -6.0521   25.9078 H   0  0  0  0  0  0
  -22.0601   -2.7609   23.2842 H   0  0  0  0  0  0
  -22.4119  -11.9886   22.4760 H   0  0  0  0  0  0
  -21.1129  -13.1261   22.2591 H   0  0  0  0  0  0
  -24.6769  -15.8470   20.5216 H   0  0  0  0  0  0
  -26.3011  -15.6219   20.1114 H   0  0  0  0  0  0
  -26.7088  -32.5573   23.1191 H   0  0  0  0  0  0
  -25.0056  -33.9804   25.0506 H   0  0  0  0  0  0
  -22.6840  -31.3066   21.4090 H   0  0  0  0  0  0
  -23.3755  -35.9639   23.3287 H   0  0  0  0  0  0
  -24.3594  -36.8935   22.2055 H   0  0  0  0  0  0
  -23.7217  -37.6515   23.6651 H   0  0  0  0  0  0
  -26.0209  -31.6136   20.5842 H   0  0  0  0  0  0
  -26.8126  -30.9129   21.9682 H   0  0  0  0  0  0
  -28.0972  -29.1817   21.1368 H   0  0  0  0  0  0
  -26.1058  -25.9800   19.0375 H   0  0  0  0  0  0
  -23.9930  -27.2765   19.0538 H   0  0  0  0  0  0
  -23.7098  -30.5897   19.4028 H   0  0  0  0  0  0
  -22.7329  -29.2324   19.8748 H   0  0  0  0  0  0
  -25.1273  -36.1992   25.0844 H   0  0  0  0  0  0
  -20.9947  -28.3207   24.1454 H   0  0  0  0  0  0
  -20.5651  -26.2256   23.3601 H   0  0  0  0  0  0
  -21.6635  -26.7432   22.1216 H   0  0  0  0  0  0
  -19.6906  -25.6303   21.1221 H   0  0  0  0  0  0
  -19.6700  -27.3214   20.6757 H   0  0  0  0  0  0
  -17.4196  -26.6686   21.4005 H   0  0  0  0  0  0
  -18.0307  -26.0058   22.8996 H   0  0  0  0  0  0
  -19.7930  -30.7242   24.2299 H   0  0  0  0  0  0
  -17.5012  -31.6264   24.5159 H   0  0  0  0  0  0
  -15.5344  -30.2994   23.7641 H   0  0  0  0  0  0
  -15.8659  -28.0836   22.7033 H   0  0  0  0  0  0
  -24.5910  -30.7044   25.7829 H   0  0  0  0  0  0
  -24.8943  -32.2849   26.4952 H   0  0  0  0  0  0
  -25.8115  -30.8857   27.0225 H   0  0  0  0  0  0
  -26.2791  -29.6826   24.1111 H   0  0  0  0  0  0
  -27.4095  -29.7267   25.4456 H   0  0  0  0  0  0
  -27.8601  -30.4393   23.9130 H   0  0  0  0  0  0
  -27.2693  -33.3597   26.2064 H   0  0  0  0  0  0
  -28.3845  -32.6849   25.0268 H   0  0  0  0  0  0
  -28.0731  -31.8397   26.5355 H   0  0  0  0  0  0
  -28.2588  -38.0118   24.7529 H   0  0  0  0  0  0
  -28.1097  -36.2655   24.6249 H   0  0  0  0  0  0
  -27.2323  -37.1406   25.8867 H   0  0  0  0  0  0
  -20.9268  -29.8745   21.6977 H   0  0  0  0  0  0
  -26.0185  -38.2882   24.1439 H   0  0  0  0  0  0
  -32.0919  -21.3829   22.7670 H   0  0  0  0  0  0
  -31.9780  -18.9844   22.5352 H   0  0  0  0  0  0
  -29.2492  -21.8521   19.5376 H   0  0  0  0  0  0
  -29.2610  -27.4756   21.7313 H   0  0  0  0  0  0
  -30.3080  -25.6184   23.5416 H   0  0  0  0  0  0
  -31.6665  -25.8917   22.4458 H   0  0  0  0  0  0
  -30.1042  -24.2994   19.6312 H   0  0  0  0  0  0
  -28.7743  -23.7640   20.6754 H   0  0  0  0  0  0
  -30.5969  -23.3011   23.4552 H   0  0  0  0  0  0
  -32.2003  -23.6623   22.8118 H   0  0  0  0  0  0
  -28.3787  -19.9940   18.4030 H   0  0  0  0  0  0
  -28.0604  -18.6471   19.4984 H   0  0  0  0  0  0
  -29.4121  -18.5640   18.3636 H   0  0  0  0  0  0
  -29.1036  -15.5537   21.5327 H   0  0  0  0  0  0
  -30.2482  -14.9022   22.6870 H   0  0  0  0  0  0
  -31.9391  -16.6790   21.7422 H   0  0  0  0  0  0
  -30.6108  -17.1849   22.7716 H   0  0  0  0  0  0
  1 25  1  0  0  0
  1 30  2  0  0  0
  1 83  1  0  0  0
  2  3  1  0  0  0
  2 25  1  0  0  0
  2 87  1  0  0  0
  2 88  1  0  0  0
  3  4  1  0  0  0
  3 89  1  0  0  0
  3 90  1  0  0  0
  4  5  1  0  0  0
  4 91  1  0  0  0
  4 92  1  0  0  0
  5  6  1  0  0  0
  5 26  1  0  0  0
  5 93  1  0  0  0
  6 25  1  0  0  0
  6 94  1  0  0  0
  6 95  1  0  0  0
  7  8  2  0  0  0
  7 26  1  0  0  0
  7 29  1  0  0  0
  8  9  1  0  0  0
  8 22  1  0  0  0
  9 10  1  0  0  0
  9 27  2  0  0  0
 10 11  2  0  0  0
 10 15  1  0  0  0
 11 12  1  0  0  0
 11 96  1  0  0  0
 12 13  2  0  0  0
 12 97  1  0  0  0
 13 14  1  0  0  0
 13 31  1  0  0  0
 14 15  2  0  0  0
 14 98  1  0  0  0
 15 99  1  0  0  0
 16 17  2  0  0  0
 16 21  1  0  0  0
 16 31  1  0  0  0
 17 18  1  0  0  0
 17100  1  0  0  0
 18 19  2  0  0  0
 18101  1  0  0  0
 19 20  1  0  0  0
 19 24  1  0  0  0
 20 21  2  0  0  0
 20102  1  0  0  0
 21 23  1  0  0  0
 22 28  1  0  0  0
 22 32  2  0  0  0
 26 27  1  0  0  0
 28103  1  0  0  0
 28104  1  0  0  0
 29105  1  0  0  0
 29106  1  0  0  0
 33 34  1  0  0  0
 33 66  1  0  0  0
 33 70  2  0  0  0
 34 36  1  0  0  0
 34 59  1  0  0  0
 34107  1  0  0  0
 35 44  2  0  0  0
 35 45  1  0  0  0
 35 68  1  0  0  0
 36 56  1  0  0  0
 36108  1  0  0  0
 37 39  1  0  0  0
 37 47  1  0  0  0
 37 66  1  0  0  0
 37109  1  0  0  0
 38 43  2  0  0  0
 38 46  1  0  0  0
 38 47  1  0  0  0
 39 64  1  0  0  0
 39 67  2  0  0  0
 40 52  1  0  0  0
 40 53  2  0  0  0
 40 58  1  0  0  0
 41110  1  0  0  0
 41111  1  0  0  0
 41112  1  0  0  0
 41 48  1  0  0  0
 42 43  1  0  0  0
 42 66  1  0  0  0
 42113  1  0  0  0
 42114  1  0  0  0
 43 44  1  0  0  0
 44115  1  0  0  0
 45 46  2  0  0  0
 45116  1  0  0  0
 46117  1  0  0  0
 47118  1  0  0  0
 47119  1  0  0  0
 48 56  1  0  0  0
 48 65  1  0  0  0
 48120  1  0  0  0
 49 50  1  0  0  0
 49 53  1  0  0  0
 49 64  1  0  0  0
 49121  1  0  0  0
 50 51  1  0  0  0
 50122  1  0  0  0
 50123  1  0  0  0
 51 52  1  0  0  0
 51124  1  0  0  0
 51125  1  0  0  0
 52126  1  0  0  0
 52127  1  0  0  0
 53 54  1  0  0  0
 54 55  2  0  0  0
 54128  1  0  0  0
 55 57  1  0  0  0
 55129  1  0  0  0
 56 69  2  0  0  0
 57 58  2  0  0  0
 57130  1  0  0  0
 58131  1  0  0  0
 59 60  1  0  0  0
 59 61  1  0  0  0
 59 62  1  0  0  0
 60132  1  0  0  0
 60133  1  0  0  0
 60134  1  0  0  0
 61135  1  0  0  0
 61136  1  0  0  0
 61137  1  0  0  0
 62138  1  0  0  0
 62139  1  0  0  0
 62140  1  0  0  0
 63 65  1  0  0  0
 63141  1  0  0  0
 63142  1  0  0  0
 63143  1  0  0  0
 64144  1  0  0  0
 65145  1  0  0  0
 68 78  1  0  0  0
 71 72  2  0  0  0
 71 75  1  0  0  0
 71146  1  0  0  0
 72 76  1  0  0  0
 72147  1  0  0  0
 73 74  1  0  0  0
 73 75  2  0  0  0
 73148  1  0  0  0
 74 76  2  0  0  0
 74 82  1  0  0  0
 75 85  1  0  0  0
 76 86  1  0  0  0
 77 78  2  0  0  0
 77 79  1  0  0  0
 77 80  1  0  0  0
 78149  1  0  0  0
 79 81  1  0  0  0
 79150  1  0  0  0
 79151  1  0  0  0
 80 85  1  0  0  0
 80152  1  0  0  0
 80153  1  0  0  0
 81 85  1  0  0  0
 81154  1  0  0  0
 81155  1  0  0  0
 82156  1  0  0  0
 82157  1  0  0  0
 82158  1  0  0  0
 83 84  1  0  0  0
 83159  1  0  0  0
 83160  1  0  0  0
 84 86  1  0  0  0
 84161  1  0  0  0
 84162  1  0  0  0
M  ISO  4   1 100  68 101  78 101  83 100
M  END
> <chiral flag>
0

> <version>
0

> <s_m_source_file>
/data/baiqing/PycharmProjects/Reinvent-master-3.2/result/LINK_invent/BTK/process_docking_weight1_custom_product_contain_oxygen_bond_distance_aromatic_linkinvent_7_9_3/rearranged_h_0122.sdf

> <i_m_source_file_index>
70

> <r_mmod_Potential_Energy-OPLS-2005>
-56.298511505127

> <r_mmod_Stretch_Energy-OPLS-2005>
34.2701530456543

> <r_mmod_Bend_Energy-OPLS-2005>
131.002822875977

> <r_mmod_Torsional_Energy-OPLS-2005>
180.604675292969

> <r_mmod_Improper_Torsional_Energy-OPLS-2005>
4.0208158493042

> <r_mmod_Van_der_Waal_Energy-OPLS-2005>
160.385879516602

> <r_mmod_Electrostatic_Energy-OPLS-2005>
-350.506256103516

> <r_mmod_Solvation_Energy-OPLS-2005>
-222.625564575195

> <b_mmod_Minimization_Converged-OPLS-2005>
0

> <r_mmod_RMS_Derivative-OPLS-2005>
0.741248846054077

$$$$
70
                    3D
 Structure written by MMmdl.
155163  0  0  1  0            999 V2000
  -30.6431  -14.5865   20.5194 C   0  0  0  0  0  0
  -30.4352  -12.3618   19.4461 C   0  0  0  0  0  0
  -29.5059  -12.5072   18.2209 C   0  0  0  0  0  0
  -28.0275  -12.3536   18.6310 C   0  0  0  0  0  0
  -27.6580  -13.2125   19.8697 C   0  0  2  0  0  0
  -28.7008  -13.0381   20.9973 C   0  0  0  0  0  0
  -25.2578  -13.8166   20.5685 C   0  0  0  0  0  0
  -24.1835  -13.0437   20.9183 C   0  0  0  0  0  0
  -24.6394  -11.6905   20.8733 C   0  0  0  0  0  0
  -23.9060  -10.4290   21.0402 C   0  0  0  0  0  0
  -24.3612   -9.4208   21.9180 C   0  0  0  0  0  0
  -23.6290   -8.2243   22.0751 C   0  0  0  0  0  0
  -22.4272   -8.0279   21.3541 C   0  0  0  0  0  0
  -21.9906   -9.0252   20.4644 C   0  0  0  0  0  0
  -22.7233  -10.2132   20.3052 C   0  0  0  0  0  0
  -21.6854   -6.0734   22.5278 C   0  0  0  0  0  0
  -21.4014   -6.5638   23.8212 C   0  0  0  0  0  0
  -21.3661   -5.6792   24.9174 C   0  0  0  0  0  0
  -21.6044   -4.3054   24.7225 C   0  0  0  0  0  0
  -21.8820   -3.8145   23.4345 C   0  0  0  0  0  0
  -21.9193   -4.6962   22.3403 C   0  0  0  0  0  0
  -22.7858  -13.5233   21.1849 C   0  0  0  0  0  0
  -22.1662   -4.2147   21.0980 F   0  0  0  0  0  0
  -21.5629   -3.4538   25.7738 F   0  0  0  0  0  0
  -30.0239  -13.3694   20.4417 N   0  0  0  0  0  0
  -26.3010  -12.9341   20.3340 N   0  0  0  0  0  0
  -25.9322  -11.6498   20.5756 N   0  0  0  0  0  0
  -22.0498  -12.8226   22.0406 N   0  0  0  0  0  0
  -25.4303  -15.1885   20.4106 N   0  0  0  0  0  0
  -31.7919  -14.7556   20.0997 O   0  0  0  0  0  0
  -21.6637   -6.8875   21.4239 O   0  0  0  0  0  0
  -22.3543  -14.5540   20.6700 O   0  0  0  0  0  0
  -24.6222  -31.8636   23.2056 C   0  0  0  0  0  0
  -25.9085  -32.4799   23.8374 C   0  0  1  0  0  0
  -27.2241  -27.3568   20.1140 C   0  0  0  0  0  0
  -25.5913  -33.8598   24.2301 N   0  0  0  0  0  0
  -23.4138  -30.4882   21.5476 C   0  0  2  0  0  0
  -24.8603  -28.9490   20.1120 C   0  0  0  0  0  0
  -22.7454  -29.4644   22.4952 C   0  0  0  0  0  0
  -18.0286  -28.1385   22.8496 C   0  0  0  0  0  0
  -24.1489  -36.7305   23.2640 C   0  0  0  0  0  0
  -25.9517  -30.8057   21.3719 C   0  0  0  0  0  0
  -26.0270  -29.4357   20.7162 C   0  0  0  0  0  0
  -27.2136  -28.6504   20.7092 C   0  0  0  0  0  0
  -26.0412  -26.9209   19.4752 C   0  0  0  0  0  0
  -24.8672  -27.6950   19.4832 C   0  0  0  0  0  0
  -23.6262  -29.8240   20.1621 C   0  0  0  0  0  0
  -25.4111  -36.3097   24.0335 C   0  0  1  0  0  0
  -20.5884  -28.3683   23.1297 C   0  0  2  0  0  0
  -20.6775  -26.9411   22.5412 C   0  0  0  0  0  0
  -19.5747  -26.6387   21.5217 C   0  0  0  0  0  0
  -18.1928  -26.7931   22.1630 C   0  0  0  0  0  0
  -19.1538  -28.8850   23.2893 C   0  0  0  0  0  0
  -18.9460  -30.1456   23.8903 C   0  0  0  0  0  0
  -17.6460  -30.6588   24.0568 C   0  0  0  0  0  0
  -25.9044  -34.9464   23.5117 C   0  0  0  0  0  0
  -16.5352  -29.9089   23.6328 C   0  0  0  0  0  0
  -16.7273  -28.6507   23.0350 C   0  0  0  0  0  0
  -26.4484  -31.6596   25.0727 C   0  0  0  0  0  0
  -25.3729  -31.3719   26.1460 C   0  0  0  0  0  0
  -27.0322  -30.3026   24.6150 C   0  0  0  0  0  0
  -27.6049  -32.4325   25.7494 C   0  0  0  0  0  0
  -27.5580  -37.1808   24.8468 C   0  0  0  0  0  0
  -21.4173  -29.3044   22.3693 N   0  0  0  0  0  0
  -26.4294  -37.3784   23.9409 N   0  0  0  0  0  0
  -24.6812  -31.0683   22.0990 N   0  0  0  0  0  0
  -23.4194  -28.8181   23.3015 O   0  0  0  0  0  0
  -28.3493  -26.5311   20.1358 O   0  0  0  0  0  0
  -26.5611  -34.8925   22.4681 O   0  0  0  0  0  0
  -23.5395  -32.1413   23.7410 O   0  0  0  0  0  0
  -30.8418  -19.1285   19.7729 C   0  0  0  0  0  0
  -30.8670  -17.7161   19.9311 C   0  0  0  0  0  0
  -29.0002  -17.8892   21.4399 C   0  0  0  0  0  0
  -29.9086  -19.9695   20.4378 C   0  0  0  0  0  0
  -29.9416  -17.0564   20.7767 C   0  0  0  0  0  0
  -28.9772  -19.3081   21.2895 C   0  0  0  0  0  0
  -30.0460  -21.5184   20.1960 C   0  0  0  0  0  0
  -28.9379  -22.5762   20.5802 C   0  0  0  0  0  0
  -29.2275  -24.0748   20.1528 C   0  0  0  0  0  0
  -28.1325  -25.1352   20.5437 C   0  0  0  0  0  0
  -28.0195  -20.0213   22.0061 N   0  0  0  0  0  0
  -29.8656  -15.6135   20.9678 N   0  0  0  0  0  0
  -31.4782  -12.4772   19.1458 H   0  0  0  0  0  0
  -30.3572  -11.3598   19.8709 H   0  0  0  0  0  0
  -29.7623  -11.7652   17.4636 H   0  0  0  0  0  0
  -29.6582  -13.4827   17.7559 H   0  0  0  0  0  0
  -27.8544  -11.2990   18.8488 H   0  0  0  0  0  0
  -27.3750  -12.6004   17.7927 H   0  0  0  0  0  0
  -27.6865  -14.2532   19.5460 H   0  0  0  0  0  0
  -28.6987  -12.0097   21.3620 H   0  0  0  0  0  0
  -28.4495  -13.6548   21.8614 H   0  0  0  0  0  0
  -25.2758   -9.5687   22.4751 H   0  0  0  0  0  0
  -24.0002   -7.4635   22.7468 H   0  0  0  0  0  0
  -21.0838   -8.8770   19.8949 H   0  0  0  0  0  0
  -22.3691  -10.9670   19.6160 H   0  0  0  0  0  0
  -21.2006   -7.6147   23.9715 H   0  0  0  0  0  0
  -21.1483   -6.0521   25.9077 H   0  0  0  0  0  0
  -22.0598   -2.7607   23.2847 H   0  0  0  0  0  0
  -22.4113  -11.9887   22.4799 H   0  0  0  0  0  0
  -21.1114  -13.1248   22.2606 H   0  0  0  0  0  0
  -24.6641  -15.8441   20.5188 H   0  0  0  0  0  0
  -26.2823  -15.6274   20.0848 H   0  0  0  0  0  0
  -26.7155  -32.5485   23.1131 H   0  0  0  0  0  0
  -25.0062  -33.9752   25.0446 H   0  0  0  0  0  0
  -22.7061  -31.3078   21.4072 H   0  0  0  0  0  0
  -23.3748  -35.9642   23.3311 H   0  0  0  0  0  0
  -24.3578  -36.8908   22.2051 H   0  0  0  0  0  0
  -23.7244  -37.6513   23.6653 H   0  0  0  0  0  0
  -26.0780  -31.5697   20.6036 H   0  0  0  0  0  0
  -26.8345  -30.8554   21.9973 H   0  0  0  0  0  0
  -28.1098  -29.0200   21.1874 H   0  0  0  0  0  0
  -26.0090  -25.9747   18.9557 H   0  0  0  0  0  0
  -23.9765  -27.3216   18.9968 H   0  0  0  0  0  0
  -23.7404  -30.6009   19.4052 H   0  0  0  0  0  0
  -22.7479  -29.2500   19.8616 H   0  0  0  0  0  0
  -25.1290  -36.1955   25.0827 H   0  0  0  0  0  0
  -20.9985  -28.3255   24.1414 H   0  0  0  0  0  0
  -20.5680  -26.2292   23.3607 H   0  0  0  0  0  0
  -21.6643  -26.7446   22.1199 H   0  0  0  0  0  0
  -19.6905  -25.6300   21.1239 H   0  0  0  0  0  0
  -19.6682  -27.3206   20.6755 H   0  0  0  0  0  0
  -17.4197  -26.6689   21.4031 H   0  0  0  0  0  0
  -18.0324  -26.0071   22.9024 H   0  0  0  0  0  0
  -19.7934  -30.7278   24.2268 H   0  0  0  0  0  0
  -17.5013  -31.6267   24.5172 H   0  0  0  0  0  0
  -15.5352  -30.2992   23.7649 H   0  0  0  0  0  0
  -15.8675  -28.0828   22.7056 H   0  0  0  0  0  0
  -24.5907  -30.7062   25.7793 H   0  0  0  0  0  0
  -24.8920  -32.2880   26.4901 H   0  0  0  0  0  0
  -25.8064  -30.8890   27.0226 H   0  0  0  0  0  0
  -26.2884  -29.6782   24.1188 H   0  0  0  0  0  0
  -27.4049  -29.7272   25.4635 H   0  0  0  0  0  0
  -27.8742  -30.4328   23.9346 H   0  0  0  0  0  0
  -27.2662  -33.3621   26.2082 H   0  0  0  0  0  0
  -28.3852  -32.6886   25.0315 H   0  0  0  0  0  0
  -28.0727  -31.8444   26.5400 H   0  0  0  0  0  0
  -28.2606  -38.0098   24.7504 H   0  0  0  0  0  0
  -28.1063  -36.2626   24.6307 H   0  0  0  0  0  0
  -27.2296  -37.1476   25.8871 H   0  0  0  0  0  0
  -20.9341  -29.8766   21.6909 H   0  0  0  0  0  0
  -26.0179  -38.2863   24.1399 H   0  0  0  0  0  0
  -31.5752  -19.5783   19.1184 H   0  0  0  0  0  0
  -31.6079  -17.1539   19.3808 H   0  0  0  0  0  0
  -28.2713  -17.4235   22.0887 H   0  0  0  0  0  0
  -30.2360  -21.6382   19.1286 H   0  0  0  0  0  0
  -30.9730  -21.8205   20.6847 H   0  0  0  0  0  0
  -28.7950  -22.5657   21.6602 H   0  0  0  0  0  0
  -27.9899  -22.2667   20.1387 H   0  0  0  0  0  0
  -29.3659  -24.1076   19.0717 H   0  0  0  0  0  0
  -30.1801  -24.3861   20.5826 H   0  0  0  0  0  0
  -27.1865  -24.7426   20.1782 H   0  0  0  0  0  0
  -28.0329  -25.1385   21.6296 H   0  0  0  0  0  0
  -28.1442  -21.0209   22.1142 H   0  0  0  0  0  0
  -27.5685  -19.5837   22.8031 H   0  0  0  0  0  0
  -29.0113  -15.2915   21.3963 H   0  0  0  0  0  0
  1 25  1  0  0  0
  1 30  2  0  0  0
  1 82  1  0  0  0
  2  3  1  0  0  0
  2 25  1  0  0  0
  2 83  1  0  0  0
  2 84  1  0  0  0
  3  4  1  0  0  0
  3 85  1  0  0  0
  3 86  1  0  0  0
  4  5  1  0  0  0
  4 87  1  0  0  0
  4 88  1  0  0  0
  5  6  1  0  0  0
  5 26  1  0  0  0
  5 89  1  0  0  0
  6 25  1  0  0  0
  6 90  1  0  0  0
  6 91  1  0  0  0
  7  8  2  0  0  0
  7 26  1  0  0  0
  7 29  1  0  0  0
  8  9  1  0  0  0
  8 22  1  0  0  0
  9 10  1  0  0  0
  9 27  2  0  0  0
 10 11  2  0  0  0
 10 15  1  0  0  0
 11 12  1  0  0  0
 11 92  1  0  0  0
 12 13  2  0  0  0
 12 93  1  0  0  0
 13 14  1  0  0  0
 13 31  1  0  0  0
 14 15  2  0  0  0
 14 94  1  0  0  0
 15 95  1  0  0  0
 16 17  2  0  0  0
 16 21  1  0  0  0
 16 31  1  0  0  0
 17 18  1  0  0  0
 17 96  1  0  0  0
 18 19  2  0  0  0
 18 97  1  0  0  0
 19 20  1  0  0  0
 19 24  1  0  0  0
 20 21  2  0  0  0
 20 98  1  0  0  0
 21 23  1  0  0  0
 22 28  1  0  0  0
 22 32  2  0  0  0
 26 27  1  0  0  0
 28 99  1  0  0  0
 28100  1  0  0  0
 29101  1  0  0  0
 29102  1  0  0  0
 33 34  1  0  0  0
 33 66  1  0  0  0
 33 70  2  0  0  0
 34 36  1  0  0  0
 34 59  1  0  0  0
 34103  1  0  0  0
 35 44  2  0  0  0
 35 45  1  0  0  0
 35 68  1  0  0  0
 36 56  1  0  0  0
 36104  1  0  0  0
 37 39  1  0  0  0
 37 47  1  0  0  0
 37 66  1  0  0  0
 37105  1  0  0  0
 38 43  2  0  0  0
 38 46  1  0  0  0
 38 47  1  0  0  0
 39 64  1  0  0  0
 39 67  2  0  0  0
 40 52  1  0  0  0
 40 53  2  0  0  0
 40 58  1  0  0  0
 41106  1  0  0  0
 41107  1  0  0  0
 41108  1  0  0  0
 41 48  1  0  0  0
 42 43  1  0  0  0
 42 66  1  0  0  0
 42109  1  0  0  0
 42110  1  0  0  0
 43 44  1  0  0  0
 44111  1  0  0  0
 45 46  2  0  0  0
 45112  1  0  0  0
 46113  1  0  0  0
 47114  1  0  0  0
 47115  1  0  0  0
 48 56  1  0  0  0
 48 65  1  0  0  0
 48116  1  0  0  0
 49 50  1  0  0  0
 49 53  1  0  0  0
 49 64  1  0  0  0
 49117  1  0  0  0
 50 51  1  0  0  0
 50118  1  0  0  0
 50119  1  0  0  0
 51 52  1  0  0  0
 51120  1  0  0  0
 51121  1  0  0  0
 52122  1  0  0  0
 52123  1  0  0  0
 53 54  1  0  0  0
 54 55  2  0  0  0
 54124  1  0  0  0
 55 57  1  0  0  0
 55125  1  0  0  0
 56 69  2  0  0  0
 57 58  2  0  0  0
 57126  1  0  0  0
 58127  1  0  0  0
 59 60  1  0  0  0
 59 61  1  0  0  0
 59 62  1  0  0  0
 60128  1  0  0  0
 60129  1  0  0  0
 60130  1  0  0  0
 61131  1  0  0  0
 61132  1  0  0  0
 61133  1  0  0  0
 62134  1  0  0  0
 62135  1  0  0  0
 62136  1  0  0  0
 63 65  1  0  0  0
 63137  1  0  0  0
 63138  1  0  0  0
 63139  1  0  0  0
 64140  1  0  0  0
 65141  1  0  0  0
 68 80  1  0  0  0
 71 72  2  0  0  0
 71 74  1  0  0  0
 71142  1  0  0  0
 72 75  1  0  0  0
 72143  1  0  0  0
 73 75  2  0  0  0
 73 76  1  0  0  0
 73144  1  0  0  0
 74 76  2  0  0  0
 74 77  1  0  0  0
 75 82  1  0  0  0
 76 81  1  0  0  0
 77 78  1  0  0  0
 77145  1  0  0  0
 77146  1  0  0  0
 78 79  1  0  0  0
 78147  1  0  0  0
 78148  1  0  0  0
 79 80  1  0  0  0
 79149  1  0  0  0
 79150  1  0  0  0
 80151  1  0  0  0
 80152  1  0  0  0
 81153  1  0  0  0
 81154  1  0  0  0
 82155  1  0  0  0
M  ISO  4   1 100  68 101  80 101  82 100
M  END
> <chiral flag>
0

> <version>
0

> <s_m_source_file>
/data/baiqing/PycharmProjects/Reinvent-master-3.2/result/LINK_invent/BTK/process_docking_weight1_custom_product_contain_oxygen_bond_distance_aromatic_linkinvent_7_9_3/rearranged_h_0122.sdf

> <i_m_source_file_index>
71

> <r_mmod_Potential_Energy-OPLS-2005>
33.6306953430176

> <r_mmod_Stretch_Energy-OPLS-2005>
65.1044006347656

> <r_mmod_Bend_Energy-OPLS-2005>
136.477569580078

> <r_mmod_Torsional_Energy-OPLS-2005>
223.989593505859

> <r_mmod_Improper_Torsional_Energy-OPLS-2005>
6.16323471069336

> <r_mmod_Van_der_Waal_Energy-OPLS-2005>
148.741241455078

> <r_mmod_Electrostatic_Energy-OPLS-2005>
-371.186859130859

> <r_mmod_Solvation_Energy-OPLS-2005>
-208.49006652832

> <b_mmod_Minimization_Converged-OPLS-2005>
0

> <r_mmod_RMS_Derivative-OPLS-2005>
0.42518213391304

$$$$
71
                    3D
 Structure written by MMmdl.
156164  0  0  1  0            999 V2000
  -30.6968  -14.5083   20.6398 C   0  0  0  0  0  0
  -30.4330  -12.3535   19.4227 C   0  0  0  0  0  0
  -29.4980  -12.5294   18.2077 C   0  0  0  0  0  0
  -28.0219  -12.3677   18.6198 C   0  0  0  0  0  0
  -27.6629  -13.2066   19.8742 C   0  0  2  0  0  0
  -28.7004  -12.9802   20.9930 C   0  0  0  0  0  0
  -25.2594  -13.8155   20.5662 C   0  0  0  0  0  0
  -24.1838  -13.0432   20.9141 C   0  0  0  0  0  0
  -24.6389  -11.6897   20.8703 C   0  0  0  0  0  0
  -23.9050  -10.4286   21.0389 C   0  0  0  0  0  0
  -24.3605   -9.4205   21.9175 C   0  0  0  0  0  0
  -23.6278   -8.2244   22.0758 C   0  0  0  0  0  0
  -22.4264   -8.0272   21.3542 C   0  0  0  0  0  0
  -21.9885   -9.0245   20.4652 C   0  0  0  0  0  0
  -22.7216  -10.2124   20.3051 C   0  0  0  0  0  0
  -21.6852   -6.0719   22.5273 C   0  0  0  0  0  0
  -21.4021   -6.5633   23.8205 C   0  0  0  0  0  0
  -21.3660   -5.6790   24.9169 C   0  0  0  0  0  0
  -21.6047   -4.3051   24.7220 C   0  0  0  0  0  0
  -21.8824   -3.8135   23.4344 C   0  0  0  0  0  0
  -21.9195   -4.6948   22.3398 C   0  0  0  0  0  0
  -22.7863  -13.5235   21.1811 C   0  0  0  0  0  0
  -22.1663   -4.2136   21.0974 F   0  0  0  0  0  0
  -21.5619   -3.4535   25.7732 F   0  0  0  0  0  0
  -30.0323  -13.3241   20.4588 N   0  0  0  0  0  0
  -26.3027  -12.9324   20.3339 N   0  0  0  0  0  0
  -25.9319  -11.6481   20.5732 N   0  0  0  0  0  0
  -22.0520  -12.8239   22.0391 N   0  0  0  0  0  0
  -25.4335  -15.1872   20.4106 N   0  0  0  0  0  0
  -31.7595  -14.7432   20.0563 O   0  0  0  0  0  0
  -21.6640   -6.8859   21.4233 O   0  0  0  0  0  0
  -22.3543  -14.5538   20.6658 O   0  0  0  0  0  0
  -24.6196  -31.8648   23.2067 C   0  0  0  0  0  0
  -25.9068  -32.4808   23.8377 C   0  0  1  0  0  0
  -27.2295  -27.3808   20.0982 C   0  0  0  0  0  0
  -25.5904  -33.8607   24.2294 N   0  0  0  0  0  0
  -23.4095  -30.4888   21.5494 C   0  0  2  0  0  0
  -24.8544  -28.9519   20.1122 C   0  0  0  0  0  0
  -22.7436  -29.4640   22.4968 C   0  0  0  0  0  0
  -18.0277  -28.1381   22.8485 C   0  0  0  0  0  0
  -24.1489  -36.7315   23.2635 C   0  0  0  0  0  0
  -25.9452  -30.8133   21.3688 C   0  0  0  0  0  0
  -26.0199  -29.4457   20.7106 C   0  0  0  0  0  0
  -27.2087  -28.6694   20.6981 C   0  0  0  0  0  0
  -26.0403  -26.9238   19.4809 C   0  0  0  0  0  0
  -24.8625  -27.6924   19.4935 C   0  0  0  0  0  0
  -23.6198  -29.8249   20.1633 C   0  0  0  0  0  0
  -25.4112  -36.3101   24.0326 C   0  0  1  0  0  0
  -20.5871  -28.3670   23.1303 C   0  0  2  0  0  0
  -20.6768  -26.9401   22.5413 C   0  0  0  0  0  0
  -19.5748  -26.6380   21.5209 C   0  0  0  0  0  0
  -18.1926  -26.7925   22.1622 C   0  0  0  0  0  0
  -19.1529  -28.8843   23.2889 C   0  0  0  0  0  0
  -18.9457  -30.1448   23.8901 C   0  0  0  0  0  0
  -17.6460  -30.6582   24.0567 C   0  0  0  0  0  0
  -25.9043  -34.9469   23.5107 C   0  0  0  0  0  0
  -16.5351  -29.9085   23.6330 C   0  0  0  0  0  0
  -16.7266  -28.6506   23.0342 C   0  0  0  0  0  0
  -26.4465  -31.6613   25.0734 C   0  0  0  0  0  0
  -25.3713  -31.3767   26.1476 C   0  0  0  0  0  0
  -27.0290  -30.3035   24.6160 C   0  0  0  0  0  0
  -27.6026  -32.4346   25.7504 C   0  0  0  0  0  0
  -27.5583  -37.1810   24.8455 C   0  0  0  0  0  0
  -21.4157  -29.3031   22.3705 N   0  0  0  0  0  0
  -26.4292  -37.3791   23.9404 N   0  0  0  0  0  0
  -24.6767  -31.0708   22.0993 N   0  0  0  0  0  0
  -23.4188  -28.8181   23.3025 O   0  0  0  0  0  0
  -28.3810  -26.5971   20.1405 O   0  0  0  0  0  0
  -26.5609  -34.8926   22.4672 O   0  0  0  0  0  0
  -23.5377  -32.1421   23.7433 O   0  0  0  0  0  0
  -30.3998  -17.5849   19.1738 C   0  0  0  0  0  0
  -30.5779  -18.6371   18.2583 C   0  0  0  0  0  0
  -29.8824  -19.2251   20.8817 C   0  0  0  0  0  0
  -30.0612  -17.8552   20.5119 C   0  0  0  0  0  0
  -30.0507  -20.3167   19.9762 C   0  0  0  0  0  0
  -30.4251  -19.9891   18.6406 C   0  0  0  0  0  0
  -29.8792  -16.7816   21.5409 C   0  0  0  0  0  0
  -29.8467  -21.7260   20.4802 C   0  0  0  0  0  0
  -30.0977  -15.4330   21.6137 C   0  0  0  0  0  0
  -29.4911  -22.8528   19.8012 C   0  0  0  0  0  0
  -30.7422  -21.0375   17.5863 C   0  0  0  0  0  0
  -29.4405  -24.2940   20.3575 C   0  0  0  0  0  0
  -28.2631  -25.1768   19.8380 C   0  0  0  0  0  0
  -31.4739  -12.4741   19.1172 H   0  0  0  0  0  0
  -30.3604  -11.3386   19.8157 H   0  0  0  0  0  0
  -29.7484  -11.8068   17.4300 H   0  0  0  0  0  0
  -29.6513  -13.5168   17.7692 H   0  0  0  0  0  0
  -27.8468  -11.3096   18.8193 H   0  0  0  0  0  0
  -27.3673  -12.6336   17.7892 H   0  0  0  0  0  0
  -27.7111  -14.2570   19.5845 H   0  0  0  0  0  0
  -28.6944  -11.9359   21.3070 H   0  0  0  0  0  0
  -28.4137  -13.5412   21.8806 H   0  0  0  0  0  0
  -25.2759   -9.5680   22.4735 H   0  0  0  0  0  0
  -23.9987   -7.4643   22.7485 H   0  0  0  0  0  0
  -21.0807   -8.8754   19.8968 H   0  0  0  0  0  0
  -22.3667  -10.9649   19.6147 H   0  0  0  0  0  0
  -21.2030   -7.6146   23.9699 H   0  0  0  0  0  0
  -21.1476   -6.0526   25.9070 H   0  0  0  0  0  0
  -22.0604   -2.7595   23.2851 H   0  0  0  0  0  0
  -22.4139  -11.9904   22.4782 H   0  0  0  0  0  0
  -21.1150  -13.1272   22.2623 H   0  0  0  0  0  0
  -24.6743  -15.8489   20.5319 H   0  0  0  0  0  0
  -26.3016  -15.6264   20.1293 H   0  0  0  0  0  0
  -26.7138  -32.5489   23.1135 H   0  0  0  0  0  0
  -25.0050  -33.9772   25.0436 H   0  0  0  0  0  0
  -22.6999  -31.3069   21.4102 H   0  0  0  0  0  0
  -23.3742  -35.9656   23.3302 H   0  0  0  0  0  0
  -24.3580  -36.8933   22.2048 H   0  0  0  0  0  0
  -23.7253  -37.6524   23.6657 H   0  0  0  0  0  0
  -26.0677  -31.5799   20.6027 H   0  0  0  0  0  0
  -26.8292  -30.8616   21.9932 H   0  0  0  0  0  0
  -28.1056  -29.0464   21.1695 H   0  0  0  0  0  0
  -25.9921  -25.9656   18.9851 H   0  0  0  0  0  0
  -23.9676  -27.3070   19.0246 H   0  0  0  0  0  0
  -23.7331  -30.6023   19.4069 H   0  0  0  0  0  0
  -22.7413  -29.2508   19.8638 H   0  0  0  0  0  0
  -25.1289  -36.1959   25.0818 H   0  0  0  0  0  0
  -20.9959  -28.3236   24.1425 H   0  0  0  0  0  0
  -20.5666  -26.2275   23.3602 H   0  0  0  0  0  0
  -21.6640  -26.7437   22.1211 H   0  0  0  0  0  0
  -19.6910  -25.6290   21.1237 H   0  0  0  0  0  0
  -19.6691  -27.3192   20.6740 H   0  0  0  0  0  0
  -17.4193  -26.6659   21.4027 H   0  0  0  0  0  0
  -18.0334  -26.0069   22.9022 H   0  0  0  0  0  0
  -19.7935  -30.7260   24.2269 H   0  0  0  0  0  0
  -17.5018  -31.6262   24.5172 H   0  0  0  0  0  0
  -15.5352  -30.2991   23.7657 H   0  0  0  0  0  0
  -15.8664  -28.0835   22.7047 H   0  0  0  0  0  0
  -24.5854  -30.7145   25.7824 H   0  0  0  0  0  0
  -24.8945  -32.2952   26.4912 H   0  0  0  0  0  0
  -25.8043  -30.8938   27.0245 H   0  0  0  0  0  0
  -26.2853  -29.6817   24.1158 H   0  0  0  0  0  0
  -27.3965  -29.7261   25.4655 H   0  0  0  0  0  0
  -27.8733  -30.4324   23.9382 H   0  0  0  0  0  0
  -27.2614  -33.3625   26.2108 H   0  0  0  0  0  0
  -28.3821  -32.6948   25.0331 H   0  0  0  0  0  0
  -28.0705  -31.8462   26.5406 H   0  0  0  0  0  0
  -28.2594  -38.0114   24.7510 H   0  0  0  0  0  0
  -28.1087  -36.2645   24.6267 H   0  0  0  0  0  0
  -27.2305  -37.1442   25.8860 H   0  0  0  0  0  0
  -20.9320  -29.8756   21.6928 H   0  0  0  0  0  0
  -26.0176  -38.2865   24.1414 H   0  0  0  0  0  0
  -30.5277  -16.5727   18.8240 H   0  0  0  0  0  0
  -30.8584  -18.3926   17.2427 H   0  0  0  0  0  0
  -29.6119  -19.4495   21.9042 H   0  0  0  0  0  0
  -29.4456  -17.1729   22.4509 H   0  0  0  0  0  0
  -30.0642  -21.8526   21.5317 H   0  0  0  0  0  0
  -29.8171  -14.9876   22.5569 H   0  0  0  0  0  0
  -29.2426  -22.7824   18.7543 H   0  0  0  0  0  0
  -31.3717  -20.6212   16.7987 H   0  0  0  0  0  0
  -31.2917  -21.8774   18.0121 H   0  0  0  0  0  0
  -29.8299  -21.4025   17.1149 H   0  0  0  0  0  0
  -30.3758  -24.7725   20.0665 H   0  0  0  0  0  0
  -29.4377  -24.2698   21.4477 H   0  0  0  0  0  0
  -27.3488  -24.7670   20.2691 H   0  0  0  0  0  0
  -28.1839  -25.0695   18.7548 H   0  0  0  0  0  0
  1 25  1  0  0  0
  1 30  2  0  0  0
  1 79  1  0  0  0
  2  3  1  0  0  0
  2 25  1  0  0  0
  2 84  1  0  0  0
  2 85  1  0  0  0
  3  4  1  0  0  0
  3 86  1  0  0  0
  3 87  1  0  0  0
  4  5  1  0  0  0
  4 88  1  0  0  0
  4 89  1  0  0  0
  5  6  1  0  0  0
  5 26  1  0  0  0
  5 90  1  0  0  0
  6 25  1  0  0  0
  6 91  1  0  0  0
  6 92  1  0  0  0
  7  8  2  0  0  0
  7 26  1  0  0  0
  7 29  1  0  0  0
  8  9  1  0  0  0
  8 22  1  0  0  0
  9 10  1  0  0  0
  9 27  2  0  0  0
 10 11  2  0  0  0
 10 15  1  0  0  0
 11 12  1  0  0  0
 11 93  1  0  0  0
 12 13  2  0  0  0
 12 94  1  0  0  0
 13 14  1  0  0  0
 13 31  1  0  0  0
 14 15  2  0  0  0
 14 95  1  0  0  0
 15 96  1  0  0  0
 16 17  2  0  0  0
 16 21  1  0  0  0
 16 31  1  0  0  0
 17 18  1  0  0  0
 17 97  1  0  0  0
 18 19  2  0  0  0
 18 98  1  0  0  0
 19 20  1  0  0  0
 19 24  1  0  0  0
 20 21  2  0  0  0
 20 99  1  0  0  0
 21 23  1  0  0  0
 22 28  1  0  0  0
 22 32  2  0  0  0
 26 27  1  0  0  0
 28100  1  0  0  0
 28101  1  0  0  0
 29102  1  0  0  0
 29103  1  0  0  0
 33 34  1  0  0  0
 33 66  1  0  0  0
 33 70  2  0  0  0
 34 36  1  0  0  0
 34 59  1  0  0  0
 34104  1  0  0  0
 35 44  2  0  0  0
 35 45  1  0  0  0
 35 68  1  0  0  0
 36 56  1  0  0  0
 36105  1  0  0  0
 37 39  1  0  0  0
 37 47  1  0  0  0
 37 66  1  0  0  0
 37106  1  0  0  0
 38 43  2  0  0  0
 38 46  1  0  0  0
 38 47  1  0  0  0
 39 64  1  0  0  0
 39 67  2  0  0  0
 40 52  1  0  0  0
 40 53  2  0  0  0
 40 58  1  0  0  0
 41107  1  0  0  0
 41108  1  0  0  0
 41109  1  0  0  0
 41 48  1  0  0  0
 42 43  1  0  0  0
 42 66  1  0  0  0
 42110  1  0  0  0
 42111  1  0  0  0
 43 44  1  0  0  0
 44112  1  0  0  0
 45 46  2  0  0  0
 45113  1  0  0  0
 46114  1  0  0  0
 47115  1  0  0  0
 47116  1  0  0  0
 48 56  1  0  0  0
 48 65  1  0  0  0
 48117  1  0  0  0
 49 50  1  0  0  0
 49 53  1  0  0  0
 49 64  1  0  0  0
 49118  1  0  0  0
 50 51  1  0  0  0
 50119  1  0  0  0
 50120  1  0  0  0
 51 52  1  0  0  0
 51121  1  0  0  0
 51122  1  0  0  0
 52123  1  0  0  0
 52124  1  0  0  0
 53 54  1  0  0  0
 54 55  2  0  0  0
 54125  1  0  0  0
 55 57  1  0  0  0
 55126  1  0  0  0
 56 69  2  0  0  0
 57 58  2  0  0  0
 57127  1  0  0  0
 58128  1  0  0  0
 59 60  1  0  0  0
 59 61  1  0  0  0
 59 62  1  0  0  0
 60129  1  0  0  0
 60130  1  0  0  0
 60131  1  0  0  0
 61132  1  0  0  0
 61133  1  0  0  0
 61134  1  0  0  0
 62135  1  0  0  0
 62136  1  0  0  0
 62137  1  0  0  0
 63 65  1  0  0  0
 63138  1  0  0  0
 63139  1  0  0  0
 63140  1  0  0  0
 64141  1  0  0  0
 65142  1  0  0  0
 68 83  1  0  0  0
 71 72  2  0  0  0
 71 74  1  0  0  0
 71143  1  0  0  0
 72 76  1  0  0  0
 72144  1  0  0  0
 73 74  2  0  0  0
 73 75  1  0  0  0
 73145  1  0  0  0
 74 77  1  0  0  0
 75 76  2  0  0  0
 75 78  1  0  0  0
 76 81  1  0  0  0
 77 79  2  0  0  0
 77146  1  0  0  0
 78 80  2  0  0  0
 78147  1  0  0  0
 79148  1  0  0  0
 80 82  1  0  0  0
 80149  1  0  0  0
 81150  1  0  0  0
 81151  1  0  0  0
 81152  1  0  0  0
 82 83  1  0  0  0
 82153  1  0  0  0
 82154  1  0  0  0
 83155  1  0  0  0
 83156  1  0  0  0
M  ISO  4   1 100  68 101  79 100  83 101
M  END
> <chiral flag>
0

> <version>
0

> <s_m_source_file>
/data/baiqing/PycharmProjects/Reinvent-master-3.2/result/LINK_invent/BTK/process_docking_weight1_custom_product_contain_oxygen_bond_distance_aromatic_linkinvent_7_9_3/rearranged_h_0122.sdf

> <i_m_source_file_index>
72

> <r_mmod_Potential_Energy-OPLS-2005>
32.078987121582

> <r_mmod_Stretch_Energy-OPLS-2005>
54.413703918457

> <r_mmod_Bend_Energy-OPLS-2005>
135.018997192383

> <r_mmod_Torsional_Energy-OPLS-2005>
184.736434936523

> <r_mmod_Improper_Torsional_Energy-OPLS-2005>
2.6592698097229

> <r_mmod_Van_der_Waal_Energy-OPLS-2005>
158.668884277344

> <r_mmod_Electrostatic_Energy-OPLS-2005>
-331.567443847656

> <r_mmod_Solvation_Energy-OPLS-2005>
-191.856033325195

> <b_mmod_Minimization_Converged-OPLS-2005>
0

> <r_mmod_RMS_Derivative-OPLS-2005>
1.07585966587067

$$$$
72
                    3D
 Structure written by MMmdl.
162170  0  0  1  0            999 V2000
  -30.7653  -14.4043   20.6567 C   0  0  0  0  0  0
  -30.4148  -12.3048   19.3987 C   0  0  0  0  0  0
  -29.4802  -12.5232   18.1940 C   0  0  0  0  0  0
  -28.0068  -12.3575   18.6108 C   0  0  0  0  0  0
  -27.6600  -13.1876   19.8714 C   0  0  2  0  0  0
  -28.7048  -12.9496   20.9891 C   0  0  0  0  0  0
  -25.2601  -13.8114   20.5664 C   0  0  0  0  0  0
  -24.1843  -13.0414   20.9182 C   0  0  0  0  0  0
  -24.6380  -11.6870   20.8747 C   0  0  0  0  0  0
  -23.9043  -10.4274   21.0420 C   0  0  0  0  0  0
  -24.3599   -9.4196   21.9201 C   0  0  0  0  0  0
  -23.6285   -8.2231   22.0757 C   0  0  0  0  0  0
  -22.4265   -8.0274   21.3547 C   0  0  0  0  0  0
  -21.9904   -9.0244   20.4644 C   0  0  0  0  0  0
  -22.7223  -10.2132   20.3068 C   0  0  0  0  0  0
  -21.6846   -6.0739   22.5283 C   0  0  0  0  0  0
  -21.4000   -6.5643   23.8215 C   0  0  0  0  0  0
  -21.3660   -5.6798   24.9177 C   0  0  0  0  0  0
  -21.6049   -4.3062   24.7230 C   0  0  0  0  0  0
  -21.8818   -3.8156   23.4348 C   0  0  0  0  0  0
  -21.9184   -4.6968   22.3401 C   0  0  0  0  0  0
  -22.7873  -13.5239   21.1849 C   0  0  0  0  0  0
  -22.1659   -4.2155   21.0980 F   0  0  0  0  0  0
  -21.5636   -3.4544   25.7743 F   0  0  0  0  0  0
  -30.0413  -13.2650   20.4522 N   0  0  0  0  0  0
  -26.3012  -12.9247   20.3351 N   0  0  0  0  0  0
  -25.9297  -11.6423   20.5770 N   0  0  0  0  0  0
  -22.0502  -12.8231   22.0400 N   0  0  0  0  0  0
  -25.4341  -15.1832   20.4067 N   0  0  0  0  0  0
  -31.8173  -14.6258   20.0460 O   0  0  0  0  0  0
  -21.6628   -6.8876   21.4244 O   0  0  0  0  0  0
  -22.3567  -14.5552   20.6704 O   0  0  0  0  0  0
  -24.6113  -31.8706   23.2138 C   0  0  0  0  0  0
  -25.9028  -32.4844   23.8425 C   0  0  1  0  0  0
  -27.2392  -27.4662   20.0994 C   0  0  0  0  0  0
  -25.5906  -33.8651   24.2370 N   0  0  0  0  0  0
  -23.4004  -30.4914   21.5538 C   0  0  2  0  0  0
  -24.8476  -28.9611   20.1157 C   0  0  0  0  0  0
  -22.7388  -29.4664   22.5021 C   0  0  0  0  0  0
  -18.0259  -28.1374   22.8492 C   0  0  0  0  0  0
  -24.1486  -36.7317   23.2641 C   0  0  0  0  0  0
  -25.9225  -30.8454   21.3617 C   0  0  0  0  0  0
  -26.0014  -29.4779   20.7183 C   0  0  0  0  0  0
  -27.1997  -28.7360   20.7163 C   0  0  0  0  0  0
  -26.0783  -26.9603   19.4839 C   0  0  0  0  0  0
  -24.8793  -27.6967   19.4971 C   0  0  0  0  0  0
  -23.6079  -29.8255   20.1664 C   0  0  0  0  0  0
  -25.4107  -36.3134   24.0354 C   0  0  1  0  0  0
  -20.5847  -28.3657   23.1311 C   0  0  2  0  0  0
  -20.6748  -26.9395   22.5422 C   0  0  0  0  0  0
  -19.5731  -26.6385   21.5205 C   0  0  0  0  0  0
  -18.1906  -26.7920   22.1614 C   0  0  0  0  0  0
  -19.1507  -28.8831   23.2896 C   0  0  0  0  0  0
  -18.9444  -30.1442   23.8903 C   0  0  0  0  0  0
  -17.6451  -30.6581   24.0571 C   0  0  0  0  0  0
  -25.9040  -34.9497   23.5154 C   0  0  0  0  0  0
  -16.5339  -29.9087   23.6337 C   0  0  0  0  0  0
  -16.7250  -28.6508   23.0347 C   0  0  0  0  0  0
  -26.4472  -31.6575   25.0713 C   0  0  0  0  0  0
  -25.3774  -31.3603   26.1476 C   0  0  0  0  0  0
  -27.0298  -30.3047   24.6015 C   0  0  0  0  0  0
  -27.6069  -32.4260   25.7479 C   0  0  0  0  0  0
  -27.5591  -37.1811   24.8475 C   0  0  0  0  0  0
  -21.4126  -29.3015   22.3724 N   0  0  0  0  0  0
  -26.4292  -37.3821   23.9440 N   0  0  0  0  0  0
  -24.6639  -31.0826   22.1027 N   0  0  0  0  0  0
  -23.4165  -28.8206   23.3059 O   0  0  0  0  0  0
  -28.3819  -26.7090   20.0369 O   0  0  0  0  0  0
  -26.5585  -34.8940   22.4700 O   0  0  0  0  0  0
  -23.5314  -32.1440   23.7549 O   0  0  0  0  0  0
  -29.7195  -19.7950   22.1614 C   0  0  0  0  0  0
  -29.5858  -18.4148   22.4025 C   0  0  0  0  0  0
  -29.4572  -19.3928   19.7834 C   0  0  0  0  0  0
  -29.6468  -20.3013   20.8462 C   0  0  0  0  0  0
  -29.3898  -17.5056   21.3407 C   0  0  0  0  0  0
  -29.3309  -18.0048   20.0139 C   0  0  0  0  0  0
  -29.7823  -21.7386   20.5413 C   0  0  0  0  0  0
  -30.0941  -22.7182   21.4120 C   0  0  0  0  0  0
  -29.0801  -25.0413   21.6227 C   0  0  0  0  0  0
  -29.1191  -17.0900   18.8179 C   0  0  0  0  0  0
  -31.4622  -15.7005   22.5812 C   0  0  0  0  0  0
  -29.1897  -16.0251   21.6740 C   0  0  0  0  0  0
  -30.2172  -24.1886   21.0426 C   0  0  0  0  0  0
  -29.0815  -26.5294   21.2662 C   0  0  0  0  0  0
  -30.4074  -15.1917   21.6974 N   0  0  0  0  0  0
  -28.1994  -24.5613   22.3454 O   0  0  0  0  0  0
  -31.4567  -12.3999   19.0872 H   0  0  0  0  0  0
  -30.3191  -11.2848   19.7744 H   0  0  0  0  0  0
  -29.7242  -11.8238   17.3927 H   0  0  0  0  0  0
  -29.6336  -13.5244   17.7872 H   0  0  0  0  0  0
  -27.8253  -11.2981   18.7992 H   0  0  0  0  0  0
  -27.3498  -12.6353   17.7856 H   0  0  0  0  0  0
  -27.7036  -14.2277   19.5588 H   0  0  0  0  0  0
  -28.6824  -11.9050   21.3045 H   0  0  0  0  0  0
  -28.4564  -13.5104   21.8882 H   0  0  0  0  0  0
  -25.2742   -9.5679   22.4774 H   0  0  0  0  0  0
  -24.0000   -7.4619   22.7470 H   0  0  0  0  0  0
  -21.0844   -8.8756   19.8945 H   0  0  0  0  0  0
  -22.3683  -10.9671   19.6180 H   0  0  0  0  0  0
  -21.1986   -7.6147   23.9723 H   0  0  0  0  0  0
  -21.1489   -6.0525   25.9081 H   0  0  0  0  0  0
  -22.0597   -2.7615   23.2846 H   0  0  0  0  0  0
  -22.4097  -11.9881   22.4770 H   0  0  0  0  0  0
  -21.1136  -13.1271   22.2610 H   0  0  0  0  0  0
  -24.6656  -15.8360   20.5158 H   0  0  0  0  0  0
  -26.2847  -15.6271   20.0874 H   0  0  0  0  0  0
  -26.7093  -32.5585   23.1195 H   0  0  0  0  0  0
  -25.0118  -33.9823   25.0558 H   0  0  0  0  0  0
  -22.6898  -31.3083   21.4171 H   0  0  0  0  0  0
  -23.3774  -35.9623   23.3291 H   0  0  0  0  0  0
  -24.3598  -36.8939   22.2062 H   0  0  0  0  0  0
  -23.7178  -37.6501   23.6642 H   0  0  0  0  0  0
  -26.0232  -31.6067   20.5867 H   0  0  0  0  0  0
  -26.8141  -30.9068   21.9739 H   0  0  0  0  0  0
  -28.0909  -29.1461   21.1703 H   0  0  0  0  0  0
  -26.1024  -25.9927   19.0022 H   0  0  0  0  0  0
  -23.9947  -27.2908   19.0250 H   0  0  0  0  0  0
  -23.7179  -30.6050   19.4115 H   0  0  0  0  0  0
  -22.7303  -29.2513   19.8648 H   0  0  0  0  0  0
  -25.1260  -36.2026   25.0849 H   0  0  0  0  0  0
  -20.9942  -28.3200   24.1428 H   0  0  0  0  0  0
  -20.5642  -26.2259   23.3602 H   0  0  0  0  0  0
  -21.6619  -26.7422   22.1215 H   0  0  0  0  0  0
  -19.6910  -25.6299   21.1216 H   0  0  0  0  0  0
  -19.6677  -27.3215   20.6757 H   0  0  0  0  0  0
  -17.4185  -26.6671   21.4010 H   0  0  0  0  0  0
  -18.0294  -26.0052   22.8999 H   0  0  0  0  0  0
  -19.7922  -30.7259   24.2265 H   0  0  0  0  0  0
  -17.5005  -31.6260   24.5158 H   0  0  0  0  0  0
  -15.5340  -30.2996   23.7658 H   0  0  0  0  0  0
  -15.8648  -28.0842   22.7050 H   0  0  0  0  0  0
  -24.6000  -30.6884   25.7802 H   0  0  0  0  0  0
  -24.8906  -32.2715   26.4965 H   0  0  0  0  0  0
  -25.8187  -30.8763   27.0206 H   0  0  0  0  0  0
  -26.2797  -29.6798   24.1149 H   0  0  0  0  0  0
  -27.4186  -29.7272   25.4416 H   0  0  0  0  0  0
  -27.8586  -30.4396   23.9057 H   0  0  0  0  0  0
  -27.2716  -33.3562   26.2075 H   0  0  0  0  0  0
  -28.3880  -32.6791   25.0295 H   0  0  0  0  0  0
  -28.0726  -31.8354   26.5381 H   0  0  0  0  0  0
  -28.2578  -38.0142   24.7580 H   0  0  0  0  0  0
  -28.1106  -36.2674   24.6214 H   0  0  0  0  0  0
  -27.2326  -37.1372   25.8880 H   0  0  0  0  0  0
  -20.9283  -29.8758   21.6966 H   0  0  0  0  0  0
  -26.0193  -38.2896   24.1480 H   0  0  0  0  0  0
  -29.8599  -20.4541   23.0057 H   0  0  0  0  0  0
  -29.6259  -18.0575   23.4214 H   0  0  0  0  0  0
  -29.4023  -19.7713   18.7715 H   0  0  0  0  0  0
  -29.6055  -22.0155   19.5103 H   0  0  0  0  0  0
  -30.2717  -22.4950   22.4543 H   0  0  0  0  0  0
  -29.1603  -17.6519   17.8838 H   0  0  0  0  0  0
  -28.1456  -16.6012   18.8613 H   0  0  0  0  0  0
  -29.8954  -16.3286   18.7655 H   0  0  0  0  0  0
  -31.0505  -16.0337   23.5335 H   0  0  0  0  0  0
  -31.9827  -16.5403   22.1169 H   0  0  0  0  0  0
  -32.2030  -14.9288   22.8020 H   0  0  0  0  0  0
  -28.4431  -15.6362   20.9913 H   0  0  0  0  0  0
  -28.7176  -15.9503   22.6545 H   0  0  0  0  0  0
  -30.2088  -24.2922   19.9570 H   0  0  0  0  0  0
  -31.1755  -24.5690   21.3993 H   0  0  0  0  0  0
  -30.1073  -26.8825   21.1632 H   0  0  0  0  0  0
  -28.6266  -27.0826   22.0880 H   0  0  0  0  0  0
  1 25  1  0  0  0
  1 30  2  0  0  0
  1 85  1  0  0  0
  2  3  1  0  0  0
  2 25  1  0  0  0
  2 87  1  0  0  0
  2 88  1  0  0  0
  3  4  1  0  0  0
  3 89  1  0  0  0
  3 90  1  0  0  0
  4  5  1  0  0  0
  4 91  1  0  0  0
  4 92  1  0  0  0
  5  6  1  0  0  0
  5 26  1  0  0  0
  5 93  1  0  0  0
  6 25  1  0  0  0
  6 94  1  0  0  0
  6 95  1  0  0  0
  7  8  2  0  0  0
  7 26  1  0  0  0
  7 29  1  0  0  0
  8  9  1  0  0  0
  8 22  1  0  0  0
  9 10  1  0  0  0
  9 27  2  0  0  0
 10 11  2  0  0  0
 10 15  1  0  0  0
 11 12  1  0  0  0
 11 96  1  0  0  0
 12 13  2  0  0  0
 12 97  1  0  0  0
 13 14  1  0  0  0
 13 31  1  0  0  0
 14 15  2  0  0  0
 14 98  1  0  0  0
 15 99  1  0  0  0
 16 17  2  0  0  0
 16 21  1  0  0  0
 16 31  1  0  0  0
 17 18  1  0  0  0
 17100  1  0  0  0
 18 19  2  0  0  0
 18101  1  0  0  0
 19 20  1  0  0  0
 19 24  1  0  0  0
 20 21  2  0  0  0
 20102  1  0  0  0
 21 23  1  0  0  0
 22 28  1  0  0  0
 22 32  2  0  0  0
 26 27  1  0  0  0
 28103  1  0  0  0
 28104  1  0  0  0
 29105  1  0  0  0
 29106  1  0  0  0
 33 34  1  0  0  0
 33 66  1  0  0  0
 33 70  2  0  0  0
 34 36  1  0  0  0
 34 59  1  0  0  0
 34107  1  0  0  0
 35 44  2  0  0  0
 35 45  1  0  0  0
 35 68  1  0  0  0
 36 56  1  0  0  0
 36108  1  0  0  0
 37 39  1  0  0  0
 37 47  1  0  0  0
 37 66  1  0  0  0
 37109  1  0  0  0
 38 43  2  0  0  0
 38 46  1  0  0  0
 38 47  1  0  0  0
 39 64  1  0  0  0
 39 67  2  0  0  0
 40 52  1  0  0  0
 40 53  2  0  0  0
 40 58  1  0  0  0
 41110  1  0  0  0
 41111  1  0  0  0
 41112  1  0  0  0
 41 48  1  0  0  0
 42 43  1  0  0  0
 42 66  1  0  0  0
 42113  1  0  0  0
 42114  1  0  0  0
 43 44  1  0  0  0
 44115  1  0  0  0
 45 46  2  0  0  0
 45116  1  0  0  0
 46117  1  0  0  0
 47118  1  0  0  0
 47119  1  0  0  0
 48 56  1  0  0  0
 48 65  1  0  0  0
 48120  1  0  0  0
 49 50  1  0  0  0
 49 53  1  0  0  0
 49 64  1  0  0  0
 49121  1  0  0  0
 50 51  1  0  0  0
 50122  1  0  0  0
 50123  1  0  0  0
 51 52  1  0  0  0
 51124  1  0  0  0
 51125  1  0  0  0
 52126  1  0  0  0
 52127  1  0  0  0
 53 54  1  0  0  0
 54 55  2  0  0  0
 54128  1  0  0  0
 55 57  1  0  0  0
 55129  1  0  0  0
 56 69  2  0  0  0
 57 58  2  0  0  0
 57130  1  0  0  0
 58131  1  0  0  0
 59 60  1  0  0  0
 59 61  1  0  0  0
 59 62  1  0  0  0
 60132  1  0  0  0
 60133  1  0  0  0
 60134  1  0  0  0
 61135  1  0  0  0
 61136  1  0  0  0
 61137  1  0  0  0
 62138  1  0  0  0
 62139  1  0  0  0
 62140  1  0  0  0
 63 65  1  0  0  0
 63141  1  0  0  0
 63142  1  0  0  0
 63143  1  0  0  0
 64144  1  0  0  0
 65145  1  0  0  0
 68 84  1  0  0  0
 71 72  2  0  0  0
 71 74  1  0  0  0
 71146  1  0  0  0
 72 75  1  0  0  0
 72147  1  0  0  0
 73 74  2  0  0  0
 73 76  1  0  0  0
 73148  1  0  0  0
 74 77  1  0  0  0
 75 76  2  0  0  0
 75 82  1  0  0  0
 76 80  1  0  0  0
 77 78  2  0  0  0
 77149  1  0  0  0
 78 83  1  0  0  0
 78150  1  0  0  0
 79 83  1  0  0  0
 79 84  1  0  0  0
 79 86  2  0  0  0
 80151  1  0  0  0
 80152  1  0  0  0
 80153  1  0  0  0
 81 85  1  0  0  0
 81154  1  0  0  0
 81155  1  0  0  0
 81156  1  0  0  0
 82 85  1  0  0  0
 82157  1  0  0  0
 82158  1  0  0  0
 83159  1  0  0  0
 83160  1  0  0  0
 84161  1  0  0  0
 84162  1  0  0  0
M  ISO  4   1 100  68 101  84 101  85 100
M  END
> <chiral flag>
0

> <version>
0

> <s_m_source_file>
/data/baiqing/PycharmProjects/Reinvent-master-3.2/result/LINK_invent/BTK/process_docking_weight1_custom_product_contain_oxygen_bond_distance_aromatic_linkinvent_7_9_3/rearranged_h_0122.sdf

> <i_m_source_file_index>
73

> <r_mmod_Potential_Energy-OPLS-2005>
70.9062881469727

> <r_mmod_Stretch_Energy-OPLS-2005>
35.267463684082

> <r_mmod_Bend_Energy-OPLS-2005>
95.9706878662109

> <r_mmod_Torsional_Energy-OPLS-2005>
277.375366210938

> <r_mmod_Improper_Torsional_Energy-OPLS-2005>
6.0794243812561

> <r_mmod_Van_der_Waal_Energy-OPLS-2005>
151.440673828125

> <r_mmod_Electrostatic_Energy-OPLS-2005>
-288.482635498047

> <r_mmod_Solvation_Energy-OPLS-2005>
-213.986053466797

> <b_mmod_Minimization_Converged-OPLS-2005>
0

> <r_mmod_RMS_Derivative-OPLS-2005>
2.20999240875244

$$$$
73
                    3D
 Structure written by MMmdl.
159167  0  0  1  0            999 V2000
  -30.7658  -14.4118   20.5524 C   0  0  0  0  0  0
  -30.4026  -12.2585   19.4467 C   0  0  0  0  0  0
  -29.4984  -12.4848   18.2188 C   0  0  0  0  0  0
  -28.0172  -12.3627   18.6231 C   0  0  0  0  0  0
  -27.6615  -13.2143   19.8719 C   0  0  2  0  0  0
  -28.6974  -13.0161   21.0012 C   0  0  0  0  0  0
  -25.2579  -13.8183   20.5676 C   0  0  0  0  0  0
  -24.1825  -13.0448   20.9146 C   0  0  0  0  0  0
  -24.6399  -11.6919   20.8707 C   0  0  0  0  0  0
  -23.9078  -10.4295   21.0383 C   0  0  0  0  0  0
  -24.3625   -9.4217   21.9170 C   0  0  0  0  0  0
  -23.6290   -8.2256   22.0748 C   0  0  0  0  0  0
  -22.4275   -8.0288   21.3536 C   0  0  0  0  0  0
  -21.9912   -9.0269   20.4638 C   0  0  0  0  0  0
  -22.7251  -10.2140   20.3043 C   0  0  0  0  0  0
  -21.6851   -6.0740   22.5280 C   0  0  0  0  0  0
  -21.4018   -6.5640   23.8215 C   0  0  0  0  0  0
  -21.3653   -5.6788   24.9179 C   0  0  0  0  0  0
  -21.6043   -4.3051   24.7229 C   0  0  0  0  0  0
  -21.8814   -3.8150   23.4353 C   0  0  0  0  0  0
  -21.9186   -4.6964   22.3402 C   0  0  0  0  0  0
  -22.7855  -13.5241   21.1826 C   0  0  0  0  0  0
  -22.1656   -4.2151   21.0982 F   0  0  0  0  0  0
  -21.5634   -3.4534   25.7745 F   0  0  0  0  0  0
  -30.0389  -13.2677   20.4548 N   0  0  0  0  0  0
  -26.3020  -12.9374   20.3347 N   0  0  0  0  0  0
  -25.9335  -11.6523   20.5763 N   0  0  0  0  0  0
  -22.0493  -12.8227   22.0381 N   0  0  0  0  0  0
  -25.4322  -15.1901   20.4135 N   0  0  0  0  0  0
  -31.9065  -14.4951   20.0895 O   0  0  0  0  0  0
  -21.6646   -6.8884   21.4239 O   0  0  0  0  0  0
  -22.3541  -14.5559   20.6698 O   0  0  0  0  0  0
  -24.6108  -31.8713   23.2149 C   0  0  0  0  0  0
  -25.9020  -32.4841   23.8421 C   0  0  1  0  0  0
  -27.2270  -27.4627   20.0843 C   0  0  0  0  0  0
  -25.5892  -33.8640   24.2351 N   0  0  0  0  0  0
  -23.3950  -30.4983   21.5545 C   0  0  2  0  0  0
  -24.8380  -28.9715   20.1139 C   0  0  0  0  0  0
  -22.7373  -29.4688   22.5006 C   0  0  0  0  0  0
  -18.0260  -28.1376   22.8492 C   0  0  0  0  0  0
  -24.1483  -36.7325   23.2635 C   0  0  0  0  0  0
  -25.9221  -30.8443   21.3641 C   0  0  0  0  0  0
  -25.9964  -29.4815   20.7117 C   0  0  0  0  0  0
  -27.1910  -28.7319   20.6990 C   0  0  0  0  0  0
  -26.0508  -26.9703   19.4665 C   0  0  0  0  0  0
  -24.8582  -27.7131   19.4921 C   0  0  0  0  0  0
  -23.6000  -29.8350   20.1668 C   0  0  0  0  0  0
  -25.4097  -36.3125   24.0344 C   0  0  1  0  0  0
  -20.5847  -28.3657   23.1329 C   0  0  2  0  0  0
  -20.6747  -26.9395   22.5428 C   0  0  0  0  0  0
  -19.5733  -26.6391   21.5210 C   0  0  0  0  0  0
  -18.1907  -26.7931   22.1605 C   0  0  0  0  0  0
  -19.1510  -28.8830   23.2912 C   0  0  0  0  0  0
  -18.9443  -30.1434   23.8931 C   0  0  0  0  0  0
  -17.6450  -30.6582   24.0577 C   0  0  0  0  0  0
  -25.9026  -34.9488   23.5143 C   0  0  0  0  0  0
  -16.5341  -29.9093   23.6326 C   0  0  0  0  0  0
  -16.7253  -28.6507   23.0352 C   0  0  0  0  0  0
  -26.4457  -31.6610   25.0735 C   0  0  0  0  0  0
  -25.3741  -31.3730   26.1506 C   0  0  0  0  0  0
  -27.0253  -30.3041   24.6097 C   0  0  0  0  0  0
  -27.6058  -32.4312   25.7465 C   0  0  0  0  0  0
  -27.5593  -37.1800   24.8452 C   0  0  0  0  0  0
  -21.4105  -29.3041   22.3743 N   0  0  0  0  0  0
  -26.4285  -37.3807   23.9427 N   0  0  0  0  0  0
  -24.6609  -31.0846   22.1035 N   0  0  0  0  0  0
  -23.4165  -28.8222   23.3026 O   0  0  0  0  0  0
  -28.4128  -26.7635   20.1112 O   0  0  0  0  0  0
  -26.5589  -34.8928   22.4704 O   0  0  0  0  0  0
  -23.5313  -32.1455   23.7562 O   0  0  0  0  0  0
  -30.0848  -19.0337   19.5775 C   0  0  0  0  0  0
  -29.8881  -20.4052   19.7826 C   0  0  0  0  0  0
  -29.5847  -18.5968   21.9146 C   0  0  0  0  0  0
  -29.9712  -18.1235   20.6433 C   0  0  0  0  0  0
  -29.3970  -19.9832   22.1329 C   0  0  0  0  0  0
  -29.5734  -20.9042   21.0691 C   0  0  0  0  0  0
  -27.3390  -22.2303   24.1867 C   0  0  0  0  0  0
  -30.3332  -16.7333   20.3593 C   0  0  0  0  0  0
  -30.1035  -15.6038   21.0638 C   0  0  0  0  0  0
  -27.6405  -21.0478   23.6280 C   0  0  0  0  0  0
  -29.3486  -24.5802   20.6433 C   0  0  0  0  0  0
  -29.0440  -20.4818   23.5265 C   0  0  0  0  0  0
  -28.3615  -25.3740   19.7919 C   0  0  0  0  0  0
  -29.5520  -23.1324   20.2130 C   0  0  0  0  0  0
  -29.9410  -25.0706   21.6128 O   0  0  0  0  0  0
  -29.4527  -22.2529   21.3318 O   0  0  0  0  0  0
  -31.4541  -12.2966   19.1564 H   0  0  0  0  0  0
  -30.2516  -11.2581   19.8548 H   0  0  0  0  0  0
  -29.7338  -11.7569   17.4412 H   0  0  0  0  0  0
  -29.6902  -13.4681   17.7872 H   0  0  0  0  0  0
  -27.8212  -11.3092   18.8257 H   0  0  0  0  0  0
  -27.3743  -12.6344   17.7856 H   0  0  0  0  0  0
  -27.7038  -14.2596   19.5638 H   0  0  0  0  0  0
  -28.6521  -11.9949   21.3827 H   0  0  0  0  0  0
  -28.4681  -13.6542   21.8533 H   0  0  0  0  0  0
  -25.2773   -9.5699   22.4737 H   0  0  0  0  0  0
  -23.9986   -7.4657   22.7485 H   0  0  0  0  0  0
  -21.0833   -8.8813   19.8958 H   0  0  0  0  0  0
  -22.3726  -10.9683   19.6150 H   0  0  0  0  0  0
  -21.2023   -7.6145   23.9728 H   0  0  0  0  0  0
  -21.1468   -6.0521   25.9081 H   0  0  0  0  0  0
  -22.0591   -2.7615   23.2864 H   0  0  0  0  0  0
  -22.4094  -11.9883   22.4758 H   0  0  0  0  0  0
  -21.1124  -13.1278   22.2610 H   0  0  0  0  0  0
  -24.6750  -15.8524   20.5419 H   0  0  0  0  0  0
  -26.2998  -15.6280   20.1287 H   0  0  0  0  0  0
  -26.7098  -32.5556   23.1195 H   0  0  0  0  0  0
  -25.0043  -33.9808   25.0496 H   0  0  0  0  0  0
  -22.6834  -31.3155   21.4195 H   0  0  0  0  0  0
  -23.3754  -35.9645   23.3262 H   0  0  0  0  0  0
  -24.3595  -36.8971   22.2060 H   0  0  0  0  0  0
  -23.7214  -37.6511   23.6664 H   0  0  0  0  0  0
  -26.0325  -31.6103   20.5950 H   0  0  0  0  0  0
  -26.8122  -30.8965   21.9796 H   0  0  0  0  0  0
  -28.0849  -29.1229   21.1646 H   0  0  0  0  0  0
  -26.0262  -26.0260   18.9441 H   0  0  0  0  0  0
  -23.9689  -27.3195   19.0195 H   0  0  0  0  0  0
  -23.7053  -30.6129   19.4095 H   0  0  0  0  0  0
  -22.7236  -29.2548   19.8717 H   0  0  0  0  0  0
  -25.1266  -36.1991   25.0834 H   0  0  0  0  0  0
  -20.9949  -28.3228   24.1444 H   0  0  0  0  0  0
  -20.5620  -26.2274   23.3616 H   0  0  0  0  0  0
  -21.6625  -26.7421   22.1244 H   0  0  0  0  0  0
  -19.6898  -25.6306   21.1223 H   0  0  0  0  0  0
  -19.6691  -27.3218   20.6752 H   0  0  0  0  0  0
  -17.4190  -26.6707   21.3992 H   0  0  0  0  0  0
  -18.0288  -26.0053   22.8974 H   0  0  0  0  0  0
  -19.7919  -30.7237   24.2327 H   0  0  0  0  0  0
  -17.5005  -31.6266   24.5170 H   0  0  0  0  0  0
  -15.5346  -30.3013   23.7626 H   0  0  0  0  0  0
  -15.8649  -28.0839   22.7057 H   0  0  0  0  0  0
  -24.5943  -30.7019   25.7891 H   0  0  0  0  0  0
  -24.8893  -32.2883   26.4912 H   0  0  0  0  0  0
  -25.8124  -30.8974   27.0290 H   0  0  0  0  0  0
  -26.2775  -29.6830   24.1157 H   0  0  0  0  0  0
  -27.4013  -29.7257   25.4547 H   0  0  0  0  0  0
  -27.8620  -30.4336   23.9230 H   0  0  0  0  0  0
  -27.2708  -33.3610   26.2071 H   0  0  0  0  0  0
  -28.3841  -32.6876   25.0266 H   0  0  0  0  0  0
  -28.0754  -31.8418   26.5351 H   0  0  0  0  0  0
  -28.2592  -38.0118   24.7543 H   0  0  0  0  0  0
  -28.1109  -36.2659   24.6202 H   0  0  0  0  0  0
  -27.2334  -37.1370   25.8859 H   0  0  0  0  0  0
  -20.9250  -29.8793   21.7002 H   0  0  0  0  0  0
  -26.0177  -38.2876   24.1467 H   0  0  0  0  0  0
  -30.3651  -18.6909   18.5900 H   0  0  0  0  0  0
  -30.0261  -21.0486   18.9270 H   0  0  0  0  0  0
  -29.4903  -17.9020   22.7372 H   0  0  0  0  0  0
  -26.3167  -22.5775   24.2369 H   0  0  0  0  0  0
  -28.1059  -22.8704   24.5997 H   0  0  0  0  0  0
  -30.9179  -16.6413   19.4515 H   0  0  0  0  0  0
  -29.5091  -15.5945   21.9644 H   0  0  0  0  0  0
  -26.8460  -20.4331   23.2276 H   0  0  0  0  0  0
  -29.7746  -21.2303   23.8363 H   0  0  0  0  0  0
  -29.1275  -19.6616   24.2414 H   0  0  0  0  0  0
  -27.3890  -24.9347   20.0090 H   0  0  0  0  0  0
  -28.5737  -25.2272   18.7330 H   0  0  0  0  0  0
  -30.5337  -23.0488   19.7456 H   0  0  0  0  0  0
  -28.7981  -22.8767   19.4668 H   0  0  0  0  0  0
  1 25  1  0  0  0
  1 30  2  0  0  0
  1 79  1  0  0  0
  2  3  1  0  0  0
  2 25  1  0  0  0
  2 87  1  0  0  0
  2 88  1  0  0  0
  3  4  1  0  0  0
  3 89  1  0  0  0
  3 90  1  0  0  0
  4  5  1  0  0  0
  4 91  1  0  0  0
  4 92  1  0  0  0
  5  6  1  0  0  0
  5 26  1  0  0  0
  5 93  1  0  0  0
  6 25  1  0  0  0
  6 94  1  0  0  0
  6 95  1  0  0  0
  7  8  2  0  0  0
  7 26  1  0  0  0
  7 29  1  0  0  0
  8  9  1  0  0  0
  8 22  1  0  0  0
  9 10  1  0  0  0
  9 27  2  0  0  0
 10 11  2  0  0  0
 10 15  1  0  0  0
 11 12  1  0  0  0
 11 96  1  0  0  0
 12 13  2  0  0  0
 12 97  1  0  0  0
 13 14  1  0  0  0
 13 31  1  0  0  0
 14 15  2  0  0  0
 14 98  1  0  0  0
 15 99  1  0  0  0
 16 17  2  0  0  0
 16 21  1  0  0  0
 16 31  1  0  0  0
 17 18  1  0  0  0
 17100  1  0  0  0
 18 19  2  0  0  0
 18101  1  0  0  0
 19 20  1  0  0  0
 19 24  1  0  0  0
 20 21  2  0  0  0
 20102  1  0  0  0
 21 23  1  0  0  0
 22 28  1  0  0  0
 22 32  2  0  0  0
 26 27  1  0  0  0
 28103  1  0  0  0
 28104  1  0  0  0
 29105  1  0  0  0
 29106  1  0  0  0
 33 34  1  0  0  0
 33 66  1  0  0  0
 33 70  2  0  0  0
 34 36  1  0  0  0
 34 59  1  0  0  0
 34107  1  0  0  0
 35 44  2  0  0  0
 35 45  1  0  0  0
 35 68  1  0  0  0
 36 56  1  0  0  0
 36108  1  0  0  0
 37 39  1  0  0  0
 37 47  1  0  0  0
 37 66  1  0  0  0
 37109  1  0  0  0
 38 43  2  0  0  0
 38 46  1  0  0  0
 38 47  1  0  0  0
 39 64  1  0  0  0
 39 67  2  0  0  0
 40 52  1  0  0  0
 40 53  2  0  0  0
 40 58  1  0  0  0
 41110  1  0  0  0
 41111  1  0  0  0
 41112  1  0  0  0
 41 48  1  0  0  0
 42 43  1  0  0  0
 42 66  1  0  0  0
 42113  1  0  0  0
 42114  1  0  0  0
 43 44  1  0  0  0
 44115  1  0  0  0
 45 46  2  0  0  0
 45116  1  0  0  0
 46117  1  0  0  0
 47118  1  0  0  0
 47119  1  0  0  0
 48 56  1  0  0  0
 48 65  1  0  0  0
 48120  1  0  0  0
 49 50  1  0  0  0
 49 53  1  0  0  0
 49 64  1  0  0  0
 49121  1  0  0  0
 50 51  1  0  0  0
 50122  1  0  0  0
 50123  1  0  0  0
 51 52  1  0  0  0
 51124  1  0  0  0
 51125  1  0  0  0
 52126  1  0  0  0
 52127  1  0  0  0
 53 54  1  0  0  0
 54 55  2  0  0  0
 54128  1  0  0  0
 55 57  1  0  0  0
 55129  1  0  0  0
 56 69  2  0  0  0
 57 58  2  0  0  0
 57130  1  0  0  0
 58131  1  0  0  0
 59 60  1  0  0  0
 59 61  1  0  0  0
 59 62  1  0  0  0
 60132  1  0  0  0
 60133  1  0  0  0
 60134  1  0  0  0
 61135  1  0  0  0
 61136  1  0  0  0
 61137  1  0  0  0
 62138  1  0  0  0
 62139  1  0  0  0
 62140  1  0  0  0
 63 65  1  0  0  0
 63141  1  0  0  0
 63142  1  0  0  0
 63143  1  0  0  0
 64144  1  0  0  0
 65145  1  0  0  0
 68 83  1  0  0  0
 71 72  2  0  0  0
 71 74  1  0  0  0
 71146  1  0  0  0
 72 76  1  0  0  0
 72147  1  0  0  0
 73 74  2  0  0  0
 73 75  1  0  0  0
 73148  1  0  0  0
 74 78  1  0  0  0
 75 76  2  0  0  0
 75 82  1  0  0  0
 76 86  1  0  0  0
 77 80  2  0  0  0
 77149  1  0  0  0
 77150  1  0  0  0
 78 79  2  0  0  0
 78151  1  0  0  0
 79152  1  0  0  0
 80 82  1  0  0  0
 80153  1  0  0  0
 81 83  1  0  0  0
 81 84  1  0  0  0
 81 85  2  0  0  0
 82154  1  0  0  0
 82155  1  0  0  0
 83156  1  0  0  0
 83157  1  0  0  0
 84 86  1  0  0  0
 84158  1  0  0  0
 84159  1  0  0  0
M  ISO  4   1 100  68 101  79 100  83 101
M  END
> <chiral flag>
0

> <version>
0

> <s_m_source_file>
/data/baiqing/PycharmProjects/Reinvent-master-3.2/result/LINK_invent/BTK/process_docking_weight1_custom_product_contain_oxygen_bond_distance_aromatic_linkinvent_7_9_3/rearranged_h_0122.sdf

> <i_m_source_file_index>
74

> <r_mmod_Potential_Energy-OPLS-2005>
8.55606269836426

> <r_mmod_Stretch_Energy-OPLS-2005>
32.7360191345215

> <r_mmod_Bend_Energy-OPLS-2005>
107.586860656738

> <r_mmod_Torsional_Energy-OPLS-2005>
199.7529296875

> <r_mmod_Improper_Torsional_Energy-OPLS-2005>
4.19141101837158

> <r_mmod_Van_der_Waal_Energy-OPLS-2005>
169.972747802734

> <r_mmod_Electrostatic_Energy-OPLS-2005>
-295.435821533203

> <r_mmod_Solvation_Energy-OPLS-2005>
-225.955505371094

> <b_mmod_Minimization_Converged-OPLS-2005>
0

> <r_mmod_RMS_Derivative-OPLS-2005>
1.41811561584473

$$$$
74
                    3D
 Structure written by MMmdl.
159167  0  0  1  0            999 V2000
  -29.5695  -16.1458   20.2903 C   0  0  0  0  0  0
  -30.2402  -13.5116   19.6219 C   0  0  0  0  0  0
  -29.5288  -12.8113   18.4161 C   0  0  0  0  0  0
  -28.1348  -12.3239   18.8223 C   0  0  0  0  0  0
  -27.4895  -13.3269   19.7929 C   0  0  2  0  0  0
  -28.3750  -13.8153   20.9432 C   0  0  0  0  0  0
  -25.1883  -13.8292   20.5823 C   0  0  0  0  0  0
  -24.1359  -13.0413   20.9351 C   0  0  0  0  0  0
  -24.6046  -11.6917   20.8823 C   0  0  0  0  0  0
  -23.8879  -10.4217   21.0445 C   0  0  0  0  0  0
  -24.3535   -9.4181   21.9228 C   0  0  0  0  0  0
  -23.6219   -8.2241   22.0800 C   0  0  0  0  0  0
  -22.4251   -8.0242   21.3556 C   0  0  0  0  0  0
  -21.9804   -9.0196   20.4718 C   0  0  0  0  0  0
  -22.7069  -10.2070   20.3080 C   0  0  0  0  0  0
  -21.6867   -6.0737   22.5281 C   0  0  0  0  0  0
  -21.3986   -6.5622   23.8221 C   0  0  0  0  0  0
  -21.3627   -5.6775   24.9189 C   0  0  0  0  0  0
  -21.6061   -4.3045   24.7237 C   0  0  0  0  0  0
  -21.8820   -3.8127   23.4355 C   0  0  0  0  0  0
  -21.9184   -4.6954   22.3410 C   0  0  0  0  0  0
  -22.7422  -13.5175   21.2034 C   0  0  0  0  0  0
  -22.1684   -4.2116   21.1006 F   0  0  0  0  0  0
  -21.5608   -3.4542   25.7761 F   0  0  0  0  0  0
  -29.3662  -14.6418   20.2777 N   0  0  0  0  0  0
  -26.2085  -12.9546   20.2942 N   0  0  0  0  0  0
  -25.8904  -11.6648   20.5535 N   0  0  0  0  0  0
  -22.0029  -12.8220   22.0615 N   0  0  0  0  0  0
  -25.3361  -15.2079   20.4460 N   0  0  0  0  0  0
  -30.8355  -16.0873   20.1772 O   0  0  0  0  0  0
  -21.6656   -6.8853   21.4232 O   0  0  0  0  0  0
  -22.3171  -14.5483   20.6839 O   0  0  0  0  0  0
  -24.7566  -31.7661   22.7295 C   0  0  0  0  0  0
  -25.9561  -32.4098   23.6053 C   0  0  1  0  0  0
  -26.3657  -28.1576   21.6356 C   0  0  0  0  0  0
  -25.5646  -33.7871   24.0364 N   0  0  0  0  0  0
  -24.1463  -29.3366   20.8787 C   0  0  2  0  0  0
  -25.5093  -29.0105   19.3755 C   0  0  0  0  0  0
  -23.7195  -27.3975   22.2953 C   0  0  0  0  0  0
  -18.2463  -28.1331   22.6308 C   0  0  0  0  0  0
  -24.1409  -36.7192   23.2774 C   0  0  0  0  0  0
  -26.0463  -31.0828   20.7632 C   0  0  0  0  0  0
  -26.4655  -29.7569   20.1554 C   0  0  0  0  0  0
  -27.2700  -29.0036   21.0115 C   0  0  0  0  0  0
  -26.0727  -27.1396   20.6213 C   0  0  0  0  0  0
  -25.5298  -27.6068   19.4123 C   0  0  0  0  0  0
  -24.1335  -29.4749   19.3938 C   0  0  0  0  0  0
  -25.4133  -36.2755   24.0219 C   0  0  1  0  0  0
  -20.7968  -27.5243   23.2289 C   0  0  2  0  0  0
  -20.3650  -26.2570   22.5313 C   0  0  0  0  0  0
  -19.5300  -26.4292   21.2782 C   0  0  0  0  0  0
  -18.1655  -26.9617   21.6586 C   0  0  0  0  0  0
  -19.5118  -28.6134   23.1760 C   0  0  0  0  0  0
  -19.3148  -29.8300   23.9395 C   0  0  0  0  0  0
  -18.0264  -30.4511   24.1555 C   0  0  0  0  0  0
  -25.9235  -34.9332   23.4312 C   0  0  0  0  0  0
  -16.8349  -29.8514   23.6747 C   0  0  0  0  0  0
  -16.9711  -28.6647   22.9357 C   0  0  0  0  0  0
  -26.4518  -31.6584   24.9467 C   0  0  0  0  0  0
  -25.3358  -31.4123   25.9859 C   0  0  0  0  0  0
  -27.0526  -30.2829   24.6380 C   0  0  0  0  0  0
  -27.6037  -32.4344   25.6367 C   0  0  0  0  0  0
  -27.5500  -37.1737   24.8540 C   0  0  0  0  0  0
  -22.3996  -27.3002   23.0723 N   0  0  0  0  0  0
  -26.4127  -37.3717   23.9553 N   0  0  0  0  0  0
  -24.7990  -30.9073   21.4835 N   0  0  0  0  0  0
  -24.2927  -27.1096   23.3303 O   0  0  0  0  0  0
  -25.4069  -28.9770   22.6450 O   0  0  0  0  0  0
  -26.6442  -34.9392   22.4315 O   0  0  0  0  0  0
  -23.6860  -32.1724   23.2591 O   0  0  0  0  0  0
  -25.8401  -22.2247   20.3047 C   0  0  0  0  0  0
  -23.6399  -20.8743   20.4237 C   0  0  0  0  0  0
  -26.2020  -20.5210   20.4499 C   0  0  0  0  0  0
  -24.4571  -23.2711   20.3063 C   0  0  0  0  0  0
  -24.8361  -20.1480   20.7414 C   0  0  0  0  0  0
  -23.4537  -22.2686   20.1669 C   0  0  0  0  0  0
  -27.3631  -18.8358   20.4658 C   0  0  0  0  0  0
  -23.4879  -25.0251   20.1291 C   0  0  0  0  0  0
  -28.6435  -17.7956   20.2259 C   0  0  0  0  0  0
  -22.6998  -26.4975   20.1479 C   0  0  0  0  0  0
  -24.5689  -18.9568   21.6570 C   0  0  0  0  0  0
  -22.0335  -22.6418   19.7668 C   0  0  0  0  0  0
  -22.0163  -28.3712   20.9773 C   0  0  0  0  0  0
  -23.1883  -29.5509   22.8432 C   0  0  0  0  0  0
  -31.1826  -13.9129   19.2478 H   0  0  0  0  0  0
  -30.5549  -12.7783   20.3655 H   0  0  0  0  0  0
  -30.1377  -11.9913   18.0434 H   0  0  0  0  0  0
  -29.4442  -13.5429   17.6140 H   0  0  0  0  0  0
  -28.2548  -11.3659   19.3328 H   0  0  0  0  0  0
  -27.5125  -12.1479   17.9481 H   0  0  0  0  0  0
  -27.2871  -14.1933   19.1620 H   0  0  0  0  0  0
  -28.7779  -13.0090   21.5616 H   0  0  0  0  0  0
  -27.8226  -14.4628   21.6285 H   0  0  0  0  0  0
  -25.2655   -9.5794   22.4857 H   0  0  0  0  0  0
  -23.9956   -7.4683   22.7495 H   0  0  0  0  0  0
  -21.0765   -8.8715   19.9051 H   0  0  0  0  0  0
  -22.3481  -10.9682   19.6274 H   0  0  0  0  0  0
  -21.1983   -7.6131   23.9711 H   0  0  0  0  0  0
  -21.1441   -6.0523   25.9092 H   0  0  0  0  0  0
  -22.0619   -2.7580   23.2891 H   0  0  0  0  0  0
  -22.3563  -11.9892   22.5112 H   0  0  0  0  0  0
  -21.0679  -13.1418   22.2834 H   0  0  0  0  0  0
  -24.5471  -15.8336   20.5685 H   0  0  0  0  0  0
  -26.1720  -15.6801   20.1380 H   0  0  0  0  0  0
  -26.8435  -32.5139   22.9850 H   0  0  0  0  0  0
  -24.8466  -33.8421   24.7453 H   0  0  0  0  0  0
  -23.3554  -30.0588   20.7266 H   0  0  0  0  0  0
  -23.3684  -35.9496   23.3223 H   0  0  0  0  0  0
  -24.3390  -36.9223   22.2240 H   0  0  0  0  0  0
  -23.7263  -37.6260   23.7156 H   0  0  0  0  0  0
  -25.9359  -31.8031   19.9412 H   0  0  0  0  0  0
  -26.8946  -31.4169   21.3583 H   0  0  0  0  0  0
  -27.8660  -29.6051   21.6767 H   0  0  0  0  0  0
  -25.9363  -26.1144   20.9500 H   0  0  0  0  0  0
  -24.9080  -26.9845   18.7893 H   0  0  0  0  0  0
  -23.9524  -30.4909   18.9948 H   0  0  0  0  0  0
  -23.4984  -28.8064   18.8304 H   0  0  0  0  0  0
  -25.1441  -36.1123   25.0740 H   0  0  0  0  0  0
  -20.7475  -27.3145   24.2938 H   0  0  0  0  0  0
  -19.7937  -25.7020   23.2626 H   0  0  0  0  0  0
  -21.1625  -25.5523   22.2777 H   0  0  0  0  0  0
  -19.5012  -25.5020   20.7189 H   0  0  0  0  0  0
  -19.9359  -27.0523   20.4854 H   0  0  0  0  0  0
  -17.7543  -27.3500   20.7159 H   0  0  0  0  0  0
  -17.5295  -26.1434   21.9721 H   0  0  0  0  0  0
  -20.1617  -30.2260   24.4984 H   0  0  0  0  0  0
  -17.9449  -31.3103   24.8203 H   0  0  0  0  0  0
  -15.8510  -30.2334   23.9356 H   0  0  0  0  0  0
  -16.0834  -28.1608   22.5568 H   0  0  0  0  0  0
  -24.4347  -31.0620   25.4962 H   0  0  0  0  0  0
  -25.0630  -32.3150   26.5181 H   0  0  0  0  0  0
  -25.6042  -30.6380   26.7031 H   0  0  0  0  0  0
  -26.2596  -29.5369   24.6796 H   0  0  0  0  0  0
  -27.7669  -29.9772   25.4027 H   0  0  0  0  0  0
  -27.5866  -30.2590   23.6877 H   0  0  0  0  0  0
  -27.3393  -33.4349   25.9729 H   0  0  0  0  0  0
  -28.4506  -32.5287   24.9579 H   0  0  0  0  0  0
  -27.9807  -31.9008   26.5057 H   0  0  0  0  0  0
  -28.2507  -38.0078   24.7615 H   0  0  0  0  0  0
  -28.0972  -36.2569   24.6124 H   0  0  0  0  0  0
  -27.2362  -37.1226   25.9027 H   0  0  0  0  0  0
  -22.7069  -26.8519   23.9503 H   0  0  0  0  0  0
  -25.9745  -38.2622   24.1809 H   0  0  0  0  0  0
  -26.7290  -22.8303   20.1540 H   0  0  0  0  0  0
  -22.7287  -20.3142   20.4773 H   0  0  0  0  0  0
  -26.7926  -18.1251   21.0072 H   0  0  0  0  0  0
  -23.2915  -24.8659   19.0716 H   0  0  0  0  0  0
  -29.3767  -18.4095   19.7232 H   0  0  0  0  0  0
  -22.3276  -26.6209   19.1339 H   0  0  0  0  0  0
  -23.5111  -18.8948   21.9106 H   0  0  0  0  0  0
  -25.0736  -19.1055   22.6163 H   0  0  0  0  0  0
  -24.8112  -17.9948   21.2417 H   0  0  0  0  0  0
  -21.4094  -21.7547   19.6273 H   0  0  0  0  0  0
  -21.9707  -23.1936   18.8279 H   0  0  0  0  0  0
  -21.6002  -23.2584   20.5426 H   0  0  0  0  0  0
  -20.9634  -28.6302   21.1343 H   0  0  0  0  0  0
  -21.7988  -28.9827   20.0760 H   0  0  0  0  0  0
  -23.0114  -29.2917   23.8657 H   0  0  0  0  0  0
  -22.5748  -30.4294   22.9513 H   0  0  0  0  0  0
  1 25  1  0  0  0
  1 30  2  0  0  0
  1 79  1  0  0  0
  2  3  1  0  0  0
  2 25  1  0  0  0
  2 85  1  0  0  0
  2 86  1  0  0  0
  3  4  1  0  0  0
  3 87  1  0  0  0
  3 88  1  0  0  0
  4  5  1  0  0  0
  4 89  1  0  0  0
  4 90  1  0  0  0
  5  6  1  0  0  0
  5 26  1  0  0  0
  5 91  1  0  0  0
  6 25  1  0  0  0
  6 92  1  0  0  0
  6 93  1  0  0  0
  7  8  2  0  0  0
  7 26  1  0  0  0
  7 29  1  0  0  0
  8  9  1  0  0  0
  8 22  1  0  0  0
  9 10  1  0  0  0
  9 27  2  0  0  0
 10 11  2  0  0  0
 10 15  1  0  0  0
 11 12  1  0  0  0
 11 94  1  0  0  0
 12 13  2  0  0  0
 12 95  1  0  0  0
 13 14  1  0  0  0
 13 31  1  0  0  0
 14 15  2  0  0  0
 14 96  1  0  0  0
 15 97  1  0  0  0
 16 17  2  0  0  0
 16 21  1  0  0  0
 16 31  1  0  0  0
 17 18  1  0  0  0
 17 98  1  0  0  0
 18 19  2  0  0  0
 18 99  1  0  0  0
 19 20  1  0  0  0
 19 24  1  0  0  0
 20 21  2  0  0  0
 20100  1  0  0  0
 21 23  1  0  0  0
 22 28  1  0  0  0
 22 32  2  0  0  0
 26 27  1  0  0  0
 28101  1  0  0  0
 28102  1  0  0  0
 29103  1  0  0  0
 29104  1  0  0  0
 33 34  1  0  0  0
 33 66  1  0  0  0
 33 70  2  0  0  0
 34 36  1  0  0  0
 34 59  1  0  0  0
 34105  1  0  0  0
 35 44  2  0  0  0
 35 45  1  0  0  0
 35 68  1  0  0  0
 36 56  1  0  0  0
 36106  1  0  0  0
 37 39  1  0  0  0
 37 47  1  0  0  0
 37 66  1  0  0  0
 37107  1  0  0  0
 38 43  2  0  0  0
 38 46  1  0  0  0
 38 47  1  0  0  0
 39 64  1  0  0  0
 39 67  2  0  0  0
 40 52  1  0  0  0
 40 53  2  0  0  0
 40 58  1  0  0  0
 41108  1  0  0  0
 41109  1  0  0  0
 41110  1  0  0  0
 41 48  1  0  0  0
 42 43  1  0  0  0
 42 66  1  0  0  0
 42111  1  0  0  0
 42112  1  0  0  0
 43 44  1  0  0  0
 44113  1  0  0  0
 45 46  2  0  0  0
 45114  1  0  0  0
 46115  1  0  0  0
 47116  1  0  0  0
 47117  1  0  0  0
 48 56  1  0  0  0
 48 65  1  0  0  0
 48118  1  0  0  0
 49 50  1  0  0  0
 49 53  1  0  0  0
 49 64  1  0  0  0
 49119  1  0  0  0
 50 51  1  0  0  0
 50120  1  0  0  0
 50121  1  0  0  0
 51 52  1  0  0  0
 51122  1  0  0  0
 51123  1  0  0  0
 52124  1  0  0  0
 52125  1  0  0  0
 53 54  1  0  0  0
 54 55  2  0  0  0
 54126  1  0  0  0
 55 57  1  0  0  0
 55127  1  0  0  0
 56 69  2  0  0  0
 57 58  2  0  0  0
 57128  1  0  0  0
 58129  1  0  0  0
 59 60  1  0  0  0
 59 61  1  0  0  0
 59 62  1  0  0  0
 60130  1  0  0  0
 60131  1  0  0  0
 60132  1  0  0  0
 61133  1  0  0  0
 61134  1  0  0  0
 61135  1  0  0  0
 62136  1  0  0  0
 62137  1  0  0  0
 62138  1  0  0  0
 63 65  1  0  0  0
 63139  1  0  0  0
 63140  1  0  0  0
 63141  1  0  0  0
 64142  1  0  0  0
 65143  1  0  0  0
 68 84  1  0  0  0
 71 73  2  0  0  0
 71 74  1  0  0  0
 71144  1  0  0  0
 72 75  2  0  0  0
 72 76  1  0  0  0
 72145  1  0  0  0
 73 75  1  0  0  0
 73 77  1  0  0  0
 74 76  2  0  0  0
 74 78  1  0  0  0
 75 81  1  0  0  0
 76 82  1  0  0  0
 77 79  2  0  0  0
 77146  1  0  0  0
 78 80  2  0  0  0
 78147  1  0  0  0
 79148  1  0  0  0
 80 83  1  0  0  0
 80149  1  0  0  0
 81150  1  0  0  0
 81151  1  0  0  0
 81152  1  0  0  0
 82153  1  0  0  0
 82154  1  0  0  0
 82155  1  0  0  0
 83 84  1  0  0  0
 83156  1  0  0  0
 83157  1  0  0  0
 84158  1  0  0  0
 84159  1  0  0  0
M  ISO  4   1 100  68 101  79 100  84 101
M  END
> <chiral flag>
0

> <version>
0

> <s_m_source_file>
/data/baiqing/PycharmProjects/Reinvent-master-3.2/result/LINK_invent/BTK/process_docking_weight1_custom_product_contain_oxygen_bond_distance_aromatic_linkinvent_7_9_3/rearranged_h_0122.sdf

> <i_m_source_file_index>
75

> <r_mmod_Potential_Energy-OPLS-2005>
17856.6796875

> <r_mmod_Stretch_Energy-OPLS-2005>
6672.47119140625

> <r_mmod_Bend_Energy-OPLS-2005>
2370.18530273438

> <r_mmod_Torsional_Energy-OPLS-2005>
722.197875976562

> <r_mmod_Improper_Torsional_Energy-OPLS-2005>
118.190055847168

> <r_mmod_Van_der_Waal_Energy-OPLS-2005>
2207.7880859375

> <r_mmod_Electrostatic_Energy-OPLS-2005>
-351.455383300781

> <r_mmod_Solvation_Energy-OPLS-2005>
-190.286865234375

> <b_mmod_Minimization_Converged-OPLS-2005>
0

> <r_mmod_RMS_Derivative-OPLS-2005>
44.9222297668457

$$$$
75
                    3D
 Structure written by MMmdl.
161169  0  0  1  0            999 V2000
  -30.7115  -14.4823   20.5880 C   0  0  0  0  0  0
  -30.4272  -12.3213   19.4246 C   0  0  0  0  0  0
  -29.4959  -12.5104   18.2101 C   0  0  0  0  0  0
  -28.0181  -12.3670   18.6219 C   0  0  0  0  0  0
  -27.6627  -13.2072   19.8791 C   0  0  2  0  0  0
  -28.7056  -12.9963   20.9995 C   0  0  0  0  0  0
  -25.2580  -13.8154   20.5631 C   0  0  0  0  0  0
  -24.1822  -13.0435   20.9097 C   0  0  0  0  0  0
  -24.6371  -11.6898   20.8680 C   0  0  0  0  0  0
  -23.9029  -10.4292   21.0366 C   0  0  0  0  0  0
  -24.3603   -9.4224   21.9157 C   0  0  0  0  0  0
  -23.6278   -8.2262   22.0750 C   0  0  0  0  0  0
  -22.4270   -8.0272   21.3536 C   0  0  0  0  0  0
  -21.9879   -9.0235   20.4638 C   0  0  0  0  0  0
  -22.7190  -10.2123   20.3032 C   0  0  0  0  0  0
  -21.6859   -6.0715   22.5270 C   0  0  0  0  0  0
  -21.4027   -6.5631   23.8195 C   0  0  0  0  0  0
  -21.3643   -5.6797   24.9166 C   0  0  0  0  0  0
  -21.6032   -4.3054   24.7230 C   0  0  0  0  0  0
  -21.8819   -3.8132   23.4360 C   0  0  0  0  0  0
  -21.9197   -4.6937   22.3405 C   0  0  0  0  0  0
  -22.7844  -13.5221   21.1768 C   0  0  0  0  0  0
  -22.1659   -4.2108   21.0982 F   0  0  0  0  0  0
  -21.5627   -3.4543   25.7747 F   0  0  0  0  0  0
  -30.0354  -13.3080   20.4451 N   0  0  0  0  0  0
  -26.3027  -12.9326   20.3376 N   0  0  0  0  0  0
  -25.9304  -11.6493   20.5751 N   0  0  0  0  0  0
  -22.0539  -12.8223   22.0372 N   0  0  0  0  0  0
  -25.4309  -15.1875   20.4045 N   0  0  0  0  0  0
  -31.8292  -14.6712   20.1009 O   0  0  0  0  0  0
  -21.6653   -6.8856   21.4229 O   0  0  0  0  0  0
  -22.3493  -14.5520   20.6616 O   0  0  0  0  0  0
  -24.6157  -31.8669   23.2092 C   0  0  0  0  0  0
  -25.9050  -32.4815   23.8384 C   0  0  1  0  0  0
  -27.2356  -27.4114   20.0949 C   0  0  0  0  0  0
  -25.5898  -33.8610   24.2315 N   0  0  0  0  0  0
  -23.4046  -30.4930   21.5495 C   0  0  2  0  0  0
  -24.8514  -28.9601   20.1126 C   0  0  0  0  0  0
  -22.7405  -29.4669   22.4965 C   0  0  0  0  0  0
  -18.0269  -28.1386   22.8487 C   0  0  0  0  0  0
  -24.1485  -36.7303   23.2637 C   0  0  0  0  0  0
  -25.9375  -30.8257   21.3680 C   0  0  0  0  0  0
  -26.0146  -29.4608   20.7097 C   0  0  0  0  0  0
  -27.2079  -28.6960   20.6956 C   0  0  0  0  0  0
  -26.0464  -26.9353   19.4914 C   0  0  0  0  0  0
  -24.8645  -27.6980   19.4990 C   0  0  0  0  0  0
  -23.6140  -29.8283   20.1643 C   0  0  0  0  0  0
  -25.4105  -36.3104   24.0340 C   0  0  1  0  0  0
  -20.5861  -28.3680   23.1295 C   0  0  2  0  0  0
  -20.6763  -26.9409   22.5412 C   0  0  0  0  0  0
  -19.5750  -26.6386   21.5207 C   0  0  0  0  0  0
  -18.1926  -26.7932   22.1616 C   0  0  0  0  0  0
  -19.1522  -28.8845   23.2892 C   0  0  0  0  0  0
  -18.9454  -30.1446   23.8908 C   0  0  0  0  0  0
  -17.6461  -30.6591   24.0566 C   0  0  0  0  0  0
  -25.9041  -34.9471   23.5129 C   0  0  0  0  0  0
  -16.5347  -29.9096   23.6328 C   0  0  0  0  0  0
  -16.7258  -28.6510   23.0350 C   0  0  0  0  0  0
  -26.4480  -31.6595   25.0718 C   0  0  0  0  0  0
  -25.3736  -31.3697   26.1459 C   0  0  0  0  0  0
  -27.0320  -30.3037   24.6116 C   0  0  0  0  0  0
  -27.6058  -32.4314   25.7465 C   0  0  0  0  0  0
  -27.5587  -37.1789   24.8452 C   0  0  0  0  0  0
  -21.4132  -29.3045   22.3693 N   0  0  0  0  0  0
  -26.4285  -37.3798   23.9418 N   0  0  0  0  0  0
  -24.6711  -31.0750   22.1008 N   0  0  0  0  0  0
  -23.4167  -28.8215   23.3023 O   0  0  0  0  0  0
  -28.4045  -26.6578   20.1160 O   0  0  0  0  0  0
  -26.5605  -34.8925   22.4696 O   0  0  0  0  0  0
  -23.5341  -32.1425   23.7474 O   0  0  0  0  0  0
  -28.9559  -20.0436   18.8673 C   0  0  0  0  0  0
  -30.1066  -19.3365   20.8836 C   0  0  0  0  0  0
  -29.2847  -17.6618   19.3191 C   0  0  0  0  0  0
  -29.6034  -20.3927   20.0748 C   0  0  0  0  0  0
  -28.8005  -18.6936   18.4883 C   0  0  0  0  0  0
  -29.9498  -17.9680   20.5257 C   0  0  0  0  0  0
  -31.1458  -25.1087   22.0528 C   0  0  0  0  0  0
  -29.7703  -21.8180   20.4945 C   0  0  0  0  0  0
  -29.9908  -24.5638   21.6395 C   0  0  0  0  0  0
  -29.4392  -22.9284   19.7801 C   0  0  0  0  0  0
  -28.1116  -18.3588   17.1796 C   0  0  0  0  0  0
  -30.5214  -16.8581   21.4305 C   0  0  0  0  0  0
  -28.2955  -25.2363   19.8640 C   0  0  0  0  0  0
  -29.5796  -24.4137   20.1833 C   0  0  1  0  0  0
  -30.0413  -15.4796   21.1976 N   0  0  0  0  0  0
  -31.4701  -12.4278   19.1209 H   0  0  0  0  0  0
  -30.3390  -11.3107   19.8266 H   0  0  0  0  0  0
  -29.7406  -11.7888   17.4304 H   0  0  0  0  0  0
  -29.6576  -13.4973   17.7722 H   0  0  0  0  0  0
  -27.8301  -11.3102   18.8167 H   0  0  0  0  0  0
  -27.3691  -12.6396   17.7903 H   0  0  0  0  0  0
  -27.7069  -14.2555   19.5848 H   0  0  0  0  0  0
  -28.6859  -11.9605   21.3434 H   0  0  0  0  0  0
  -28.4627  -13.5919   21.8802 H   0  0  0  0  0  0
  -25.2771   -9.5696   22.4695 H   0  0  0  0  0  0
  -23.9985   -7.4659   22.7479 H   0  0  0  0  0  0
  -21.0805   -8.8725   19.8959 H   0  0  0  0  0  0
  -22.3625  -10.9642   19.6128 H   0  0  0  0  0  0
  -21.2051   -7.6142   23.9671 H   0  0  0  0  0  0
  -21.1449   -6.0548   25.9057 H   0  0  0  0  0  0
  -22.0618   -2.7587   23.2882 H   0  0  0  0  0  0
  -22.4229  -11.9919   22.4769 H   0  0  0  0  0  0
  -21.1143  -13.1178   22.2589 H   0  0  0  0  0  0
  -24.6703  -15.8480   20.5171 H   0  0  0  0  0  0
  -26.2920  -15.6251   20.1030 H   0  0  0  0  0  0
  -26.7118  -32.5525   23.1138 H   0  0  0  0  0  0
  -25.0045  -33.9763   25.0455 H   0  0  0  0  0  0
  -22.6956  -31.3128   21.4104 H   0  0  0  0  0  0
  -23.3766  -35.9619   23.3282 H   0  0  0  0  0  0
  -24.3591  -36.8938   22.2057 H   0  0  0  0  0  0
  -23.7210  -37.6489   23.6668 H   0  0  0  0  0  0
  -26.0559  -31.5961   20.6046 H   0  0  0  0  0  0
  -26.8215  -30.8719   21.9924 H   0  0  0  0  0  0
  -28.1026  -29.0809   21.1655 H   0  0  0  0  0  0
  -26.0050  -25.9715   19.0073 H   0  0  0  0  0  0
  -23.9730  -27.3060   19.0289 H   0  0  0  0  0  0
  -23.7184  -30.6039   19.4043 H   0  0  0  0  0  0
  -22.7380  -29.2498   19.8681 H   0  0  0  0  0  0
  -25.1280  -36.1973   25.0834 H   0  0  0  0  0  0
  -20.9951  -28.3263   24.1414 H   0  0  0  0  0  0
  -20.5655  -26.2295   23.3607 H   0  0  0  0  0  0
  -21.6640  -26.7448   22.1216 H   0  0  0  0  0  0
  -19.6920  -25.6296   21.1236 H   0  0  0  0  0  0
  -19.6700  -27.3197   20.6738 H   0  0  0  0  0  0
  -17.4190  -26.6666   21.4017 H   0  0  0  0  0  0
  -18.0336  -26.0067   22.9010 H   0  0  0  0  0  0
  -19.7932  -30.7252   24.2285 H   0  0  0  0  0  0
  -17.5022  -31.6275   24.5170 H   0  0  0  0  0  0
  -15.5351  -30.3014   23.7646 H   0  0  0  0  0  0
  -15.8653  -28.0839   22.7067 H   0  0  0  0  0  0
  -24.5910  -30.7055   25.7780 H   0  0  0  0  0  0
  -24.8925  -32.2847   26.4924 H   0  0  0  0  0  0
  -25.8078  -30.8841   27.0206 H   0  0  0  0  0  0
  -26.2874  -29.6775   24.1191 H   0  0  0  0  0  0
  -27.4107  -29.7304   25.4586 H   0  0  0  0  0  0
  -27.8702  -30.4351   23.9267 H   0  0  0  0  0  0
  -27.2699  -33.3611   26.2068 H   0  0  0  0  0  0
  -28.3847  -32.6877   25.0271 H   0  0  0  0  0  0
  -28.0757  -31.8422   26.5347 H   0  0  0  0  0  0
  -28.2571  -38.0121   24.7575 H   0  0  0  0  0  0
  -28.1123  -36.2660   24.6196 H   0  0  0  0  0  0
  -27.2315  -37.1332   25.8853 H   0  0  0  0  0  0
  -20.9292  -29.8773   21.6917 H   0  0  0  0  0  0
  -26.0179  -38.2866   24.1481 H   0  0  0  0  0  0
  -28.5639  -20.8046   18.2093 H   0  0  0  0  0  0
  -30.6236  -19.5774   21.8018 H   0  0  0  0  0  0
  -29.1558  -16.6334   19.0157 H   0  0  0  0  0  0
  -31.3783  -25.1853   23.1049 H   0  0  0  0  0  0
  -31.8753  -25.4876   21.3513 H   0  0  0  0  0  0
  -30.1999  -21.9495   21.4781 H   0  0  0  0  0  0
  -29.2883  -24.1988   22.3768 H   0  0  0  0  0  0
  -29.0272  -22.7994   18.7906 H   0  0  0  0  0  0
  -28.6060  -18.8613   16.3469 H   0  0  0  0  0  0
  -27.0711  -18.6820   17.2029 H   0  0  0  0  0  0
  -28.1271  -17.2869   16.9800 H   0  0  0  0  0  0
  -30.2818  -17.1076   22.4645 H   0  0  0  0  0  0
  -31.6109  -16.8954   21.3669 H   0  0  0  0  0  0
  -27.4682  -24.8246   20.4447 H   0  0  0  0  0  0
  -28.0554  -25.0955   18.8091 H   0  0  0  0  0  0
  -30.3826  -24.8154   19.5626 H   0  0  0  0  0  0
  -29.1292  -15.2504   21.5620 H   0  0  0  0  0  0
  1 25  1  0  0  0
  1 30  2  0  0  0
  1 85  1  0  0  0
  2  3  1  0  0  0
  2 25  1  0  0  0
  2 86  1  0  0  0
  2 87  1  0  0  0
  3  4  1  0  0  0
  3 88  1  0  0  0
  3 89  1  0  0  0
  4  5  1  0  0  0
  4 90  1  0  0  0
  4 91  1  0  0  0
  5  6  1  0  0  0
  5 26  1  0  0  0
  5 92  1  0  0  0
  6 25  1  0  0  0
  6 93  1  0  0  0
  6 94  1  0  0  0
  7  8  2  0  0  0
  7 26  1  0  0  0
  7 29  1  0  0  0
  8  9  1  0  0  0
  8 22  1  0  0  0
  9 10  1  0  0  0
  9 27  2  0  0  0
 10 11  2  0  0  0
 10 15  1  0  0  0
 11 12  1  0  0  0
 11 95  1  0  0  0
 12 13  2  0  0  0
 12 96  1  0  0  0
 13 14  1  0  0  0
 13 31  1  0  0  0
 14 15  2  0  0  0
 14 97  1  0  0  0
 15 98  1  0  0  0
 16 17  2  0  0  0
 16 21  1  0  0  0
 16 31  1  0  0  0
 17 18  1  0  0  0
 17 99  1  0  0  0
 18 19  2  0  0  0
 18100  1  0  0  0
 19 20  1  0  0  0
 19 24  1  0  0  0
 20 21  2  0  0  0
 20101  1  0  0  0
 21 23  1  0  0  0
 22 28  1  0  0  0
 22 32  2  0  0  0
 26 27  1  0  0  0
 28102  1  0  0  0
 28103  1  0  0  0
 29104  1  0  0  0
 29105  1  0  0  0
 33 34  1  0  0  0
 33 66  1  0  0  0
 33 70  2  0  0  0
 34 36  1  0  0  0
 34 59  1  0  0  0
 34106  1  0  0  0
 35 44  2  0  0  0
 35 45  1  0  0  0
 35 68  1  0  0  0
 36 56  1  0  0  0
 36107  1  0  0  0
 37 39  1  0  0  0
 37 47  1  0  0  0
 37 66  1  0  0  0
 37108  1  0  0  0
 38 43  2  0  0  0
 38 46  1  0  0  0
 38 47  1  0  0  0
 39 64  1  0  0  0
 39 67  2  0  0  0
 40 52  1  0  0  0
 40 53  2  0  0  0
 40 58  1  0  0  0
 41109  1  0  0  0
 41110  1  0  0  0
 41111  1  0  0  0
 41 48  1  0  0  0
 42 43  1  0  0  0
 42 66  1  0  0  0
 42112  1  0  0  0
 42113  1  0  0  0
 43 44  1  0  0  0
 44114  1  0  0  0
 45 46  2  0  0  0
 45115  1  0  0  0
 46116  1  0  0  0
 47117  1  0  0  0
 47118  1  0  0  0
 48 56  1  0  0  0
 48 65  1  0  0  0
 48119  1  0  0  0
 49 50  1  0  0  0
 49 53  1  0  0  0
 49 64  1  0  0  0
 49120  1  0  0  0
 50 51  1  0  0  0
 50121  1  0  0  0
 50122  1  0  0  0
 51 52  1  0  0  0
 51123  1  0  0  0
 51124  1  0  0  0
 52125  1  0  0  0
 52126  1  0  0  0
 53 54  1  0  0  0
 54 55  2  0  0  0
 54127  1  0  0  0
 55 57  1  0  0  0
 55128  1  0  0  0
 56 69  2  0  0  0
 57 58  2  0  0  0
 57129  1  0  0  0
 58130  1  0  0  0
 59 60  1  0  0  0
 59 61  1  0  0  0
 59 62  1  0  0  0
 60131  1  0  0  0
 60132  1  0  0  0
 60133  1  0  0  0
 61134  1  0  0  0
 61135  1  0  0  0
 61136  1  0  0  0
 62137  1  0  0  0
 62138  1  0  0  0
 62139  1  0  0  0
 63 65  1  0  0  0
 63140  1  0  0  0
 63141  1  0  0  0
 63142  1  0  0  0
 64143  1  0  0  0
 65144  1  0  0  0
 68 83  1  0  0  0
 71 74  2  0  0  0
 71 75  1  0  0  0
 71145  1  0  0  0
 72 74  1  0  0  0
 72 76  2  0  0  0
 72146  1  0  0  0
 73 75  2  0  0  0
 73 76  1  0  0  0
 73147  1  0  0  0
 74 78  1  0  0  0
 75 81  1  0  0  0
 76 82  1  0  0  0
 77 79  2  0  0  0
 77148  1  0  0  0
 77149  1  0  0  0
 78 80  2  0  0  0
 78150  1  0  0  0
 79 84  1  0  0  0
 79151  1  0  0  0
 80 84  1  0  0  0
 80152  1  0  0  0
 81153  1  0  0  0
 81154  1  0  0  0
 81155  1  0  0  0
 82 85  1  0  0  0
 82156  1  0  0  0
 82157  1  0  0  0
 83158  1  0  0  0
 83159  1  0  0  0
 83 84  1  0  0  0
 84160  1  0  0  0
 85161  1  0  0  0
M  ISO  4   1 100  68 101  83 101  85 100
M  END
> <chiral flag>
0

> <version>
0

> <s_m_source_file>
/data/baiqing/PycharmProjects/Reinvent-master-3.2/result/LINK_invent/BTK/process_docking_weight1_custom_product_contain_oxygen_bond_distance_aromatic_linkinvent_7_9_3/rearranged_h_0122.sdf

> <i_m_source_file_index>
76

> <r_mmod_Potential_Energy-OPLS-2005>
-117.840797424316

> <r_mmod_Stretch_Energy-OPLS-2005>
45.0530471801758

> <r_mmod_Bend_Energy-OPLS-2005>
98.6671676635742

> <r_mmod_Torsional_Energy-OPLS-2005>
169.863067626953

> <r_mmod_Improper_Torsional_Energy-OPLS-2005>
2.55324697494507

> <r_mmod_Van_der_Waal_Energy-OPLS-2005>
153.966445922852

> <r_mmod_Electrostatic_Energy-OPLS-2005>
-396.920989990234

> <r_mmod_Solvation_Energy-OPLS-2005>
-205.808975219727

> <b_mmod_Minimization_Converged-OPLS-2005>
0

> <r_mmod_RMS_Derivative-OPLS-2005>
2.32106137275696

$$$$
76
                    3D
 Structure written by MMmdl.
161169  0  0  1  0            999 V2000
  -30.8441  -14.3409   20.6873 C   0  0  0  0  0  0
  -30.3938  -12.2767   19.4136 C   0  0  0  0  0  0
  -29.4843  -12.5247   18.1997 C   0  0  0  0  0  0
  -28.0135  -12.3700   18.6172 C   0  0  0  0  0  0
  -27.6629  -13.2152   19.8692 C   0  0  2  0  0  0
  -28.7008  -13.0195   21.0002 C   0  0  0  0  0  0
  -25.2596  -13.8199   20.5669 C   0  0  0  0  0  0
  -24.1857  -13.0474   20.9189 C   0  0  0  0  0  0
  -24.6407  -11.6936   20.8725 C   0  0  0  0  0  0
  -23.9062  -10.4318   21.0408 C   0  0  0  0  0  0
  -24.3620   -9.4235   21.9186 C   0  0  0  0  0  0
  -23.6312   -8.2255   22.0740 C   0  0  0  0  0  0
  -22.4287   -8.0288   21.3543 C   0  0  0  0  0  0
  -21.9919   -9.0258   20.4642 C   0  0  0  0  0  0
  -22.7237  -10.2148   20.3057 C   0  0  0  0  0  0
  -21.6866   -6.0733   22.5287 C   0  0  0  0  0  0
  -21.4006   -6.5626   23.8223 C   0  0  0  0  0  0
  -21.3669   -5.6778   24.9186 C   0  0  0  0  0  0
  -21.6056   -4.3042   24.7234 C   0  0  0  0  0  0
  -21.8814   -3.8138   23.4352 C   0  0  0  0  0  0
  -21.9198   -4.6956   22.3411 C   0  0  0  0  0  0
  -22.7885  -13.5271   21.1874 C   0  0  0  0  0  0
  -22.1676   -4.2138   21.0988 F   0  0  0  0  0  0
  -21.5640   -3.4528   25.7746 F   0  0  0  0  0  0
  -30.0566  -13.2488   20.4672 N   0  0  0  0  0  0
  -26.3038  -12.9383   20.3344 N   0  0  0  0  0  0
  -25.9339  -11.6531   20.5733 N   0  0  0  0  0  0
  -22.0494  -12.8254   22.0403 N   0  0  0  0  0  0
  -25.4304  -15.1919   20.4074 N   0  0  0  0  0  0
  -31.7852  -14.6271   19.9391 O   0  0  0  0  0  0
  -21.6667   -6.8874   21.4241 O   0  0  0  0  0  0
  -22.3566  -14.5583   20.6724 O   0  0  0  0  0  0
  -24.6125  -31.8683   23.2120 C   0  0  0  0  0  0
  -25.9031  -32.4832   23.8399 C   0  0  1  0  0  0
  -27.2385  -27.4386   20.0767 C   0  0  0  0  0  0
  -25.5891  -33.8629   24.2330 N   0  0  0  0  0  0
  -23.4005  -30.4928   21.5518 C   0  0  2  0  0  0
  -24.8457  -28.9577   20.1158 C   0  0  0  0  0  0
  -22.7400  -29.4660   22.4992 C   0  0  0  0  0  0
  -18.0268  -28.1382   22.8482 C   0  0  0  0  0  0
  -24.1485  -36.7306   23.2646 C   0  0  0  0  0  0
  -25.9308  -30.8307   21.3681 C   0  0  0  0  0  0
  -26.0051  -29.4642   20.7146 C   0  0  0  0  0  0
  -27.1991  -28.7082   20.7002 C   0  0  0  0  0  0
  -26.0542  -26.9406   19.4860 C   0  0  0  0  0  0
  -24.8638  -27.6918   19.5047 C   0  0  0  0  0  0
  -23.6078  -29.8242   20.1658 C   0  0  0  0  0  0
  -25.4114  -36.3114   24.0340 C   0  0  1  0  0  0
  -20.5854  -28.3669   23.1320 C   0  0  2  0  0  0
  -20.6755  -26.9405   22.5423 C   0  0  0  0  0  0
  -19.5738  -26.6383   21.5212 C   0  0  0  0  0  0
  -18.1911  -26.7925   22.1617 C   0  0  0  0  0  0
  -19.1512  -28.8838   23.2897 C   0  0  0  0  0  0
  -18.9446  -30.1448   23.8909 C   0  0  0  0  0  0
  -17.6447  -30.6587   24.0564 C   0  0  0  0  0  0
  -25.9037  -34.9482   23.5127 C   0  0  0  0  0  0
  -16.5339  -29.9093   23.6324 C   0  0  0  0  0  0
  -16.7256  -28.6508   23.0340 C   0  0  0  0  0  0
  -26.4472  -31.6625   25.0734 C   0  0  0  0  0  0
  -25.3759  -31.3718   26.1501 C   0  0  0  0  0  0
  -27.0318  -30.3073   24.6126 C   0  0  0  0  0  0
  -27.6050  -32.4363   25.7475 C   0  0  0  0  0  0
  -27.5572  -37.1816   24.8477 C   0  0  0  0  0  0
  -21.4134  -29.3026   22.3723 N   0  0  0  0  0  0
  -26.4307  -37.3790   23.9392 N   0  0  0  0  0  0
  -24.6663  -31.0782   22.1010 N   0  0  0  0  0  0
  -23.4176  -28.8209   23.3033 O   0  0  0  0  0  0
  -28.4280  -26.7341   20.0799 O   0  0  0  0  0  0
  -26.5596  -34.8926   22.4688 O   0  0  0  0  0  0
  -23.5332  -32.1437   23.7520 O   0  0  0  0  0  0
  -32.2470  -16.8947   22.1579 C   0  0  0  0  0  0
  -31.6562  -19.1881   21.5734 C   0  0  0  0  0  0
  -30.0163  -17.4059   21.3063 C   0  0  0  0  0  0
  -32.6035  -18.2513   22.0324 C   0  0  0  0  0  0
  -30.9556  -16.4559   21.7832 C   0  0  0  0  0  0
  -30.3528  -18.7793   21.1947 C   0  0  0  0  0  0
  -29.0565  -23.2330   19.3939 C   0  0  0  0  0  0
  -28.2617  -24.3166   19.5205 C   0  0  0  0  0  0
  -34.0170  -18.7031   22.3496 C   0  0  0  0  0  0
  -30.8241  -14.3644   23.1042 C   0  0  0  0  0  0
  -28.6699  -21.7968   19.7380 C   0  0  0  0  0  0
  -28.6540  -25.7269   19.0847 C   0  0  0  0  0  0
  -29.7837  -21.0186   20.4665 C   0  0  0  0  0  0
  -30.6404  -15.0586   21.8198 N   0  0  0  0  0  0
  -29.3988  -19.6553   20.6996 O   0  0  0  0  0  0
  -31.4439  -12.3221   19.1213 H   0  0  0  0  0  0
  -30.2455  -11.2652   19.7929 H   0  0  0  0  0  0
  -29.7206  -11.8238   17.3976 H   0  0  0  0  0  0
  -29.6556  -13.5239   17.7957 H   0  0  0  0  0  0
  -27.8348  -11.3133   18.8170 H   0  0  0  0  0  0
  -27.3583  -12.6319   17.7857 H   0  0  0  0  0  0
  -27.7050  -14.2597   19.5607 H   0  0  0  0  0  0
  -28.6415  -12.0108   21.4104 H   0  0  0  0  0  0
  -28.4563  -13.6914   21.8244 H   0  0  0  0  0  0
  -25.2763   -9.5730   22.4760 H   0  0  0  0  0  0
  -24.0053   -7.4632   22.7435 H   0  0  0  0  0  0
  -21.0859   -8.8772   19.8933 H   0  0  0  0  0  0
  -22.3708  -10.9684   19.6155 H   0  0  0  0  0  0
  -21.1989   -7.6127   23.9728 H   0  0  0  0  0  0
  -21.1500   -6.0503   25.9092 H   0  0  0  0  0  0
  -22.0587   -2.7595   23.2856 H   0  0  0  0  0  0
  -22.4099  -11.9957   22.4881 H   0  0  0  0  0  0
  -21.1077  -13.1248   22.2516 H   0  0  0  0  0  0
  -24.6619  -15.8464   20.5086 H   0  0  0  0  0  0
  -26.2881  -15.6321   20.0959 H   0  0  0  0  0  0
  -26.7096  -32.5535   23.1159 H   0  0  0  0  0  0
  -25.0059  -33.9797   25.0484 H   0  0  0  0  0  0
  -22.6883  -31.3084   21.4135 H   0  0  0  0  0  0
  -23.3735  -35.9654   23.3382 H   0  0  0  0  0  0
  -24.3548  -36.8844   22.2040 H   0  0  0  0  0  0
  -23.7262  -37.6545   23.6613 H   0  0  0  0  0  0
  -26.0491  -31.5989   20.6015 H   0  0  0  0  0  0
  -26.8162  -30.8778   21.9908 H   0  0  0  0  0  0
  -28.0968  -29.1004   21.1578 H   0  0  0  0  0  0
  -26.0295  -25.9699   19.0133 H   0  0  0  0  0  0
  -23.9692  -27.2916   19.0481 H   0  0  0  0  0  0
  -23.7158  -30.5991   19.4058 H   0  0  0  0  0  0
  -22.7313  -29.2438   19.8717 H   0  0  0  0  0  0
  -25.1296  -36.1984   25.0837 H   0  0  0  0  0  0
  -20.9945  -28.3234   24.1440 H   0  0  0  0  0  0
  -20.5643  -26.2278   23.3610 H   0  0  0  0  0  0
  -21.6628  -26.7431   22.1221 H   0  0  0  0  0  0
  -19.6899  -25.6291   21.1239 H   0  0  0  0  0  0
  -19.6693  -27.3194   20.6742 H   0  0  0  0  0  0
  -17.4187  -26.6675   21.4015 H   0  0  0  0  0  0
  -18.0315  -26.0069   22.9014 H   0  0  0  0  0  0
  -19.7928  -30.7251   24.2286 H   0  0  0  0  0  0
  -17.5012  -31.6271   24.5170 H   0  0  0  0  0  0
  -15.5340  -30.3004   23.7648 H   0  0  0  0  0  0
  -15.8656  -28.0845   22.7047 H   0  0  0  0  0  0
  -24.5892  -30.7121   25.7827 H   0  0  0  0  0  0
  -24.9012  -32.2879   26.5023 H   0  0  0  0  0  0
  -25.8123  -30.8814   27.0214 H   0  0  0  0  0  0
  -26.2864  -29.6813   24.1220 H   0  0  0  0  0  0
  -27.4129  -29.7330   25.4578 H   0  0  0  0  0  0
  -27.8675  -30.4394   23.9254 H   0  0  0  0  0  0
  -27.2658  -33.3634   26.2105 H   0  0  0  0  0  0
  -28.3809  -32.6987   25.0272 H   0  0  0  0  0  0
  -28.0795  -31.8487   26.5345 H   0  0  0  0  0  0
  -28.2652  -38.0050   24.7448 H   0  0  0  0  0  0
  -28.1002  -36.2580   24.6408 H   0  0  0  0  0  0
  -27.2274  -37.1598   25.8880 H   0  0  0  0  0  0
  -20.9299  -29.8751   21.6946 H   0  0  0  0  0  0
  -26.0203  -38.2879   24.1357 H   0  0  0  0  0  0
  -32.9901  -16.1827   22.4920 H   0  0  0  0  0  0
  -31.9657  -20.2201   21.5013 H   0  0  0  0  0  0
  -29.0309  -17.0759   21.0064 H   0  0  0  0  0  0
  -30.0499  -23.3607   18.9854 H   0  0  0  0  0  0
  -27.2652  -24.1990   19.9229 H   0  0  0  0  0  0
  -34.1083  -18.9957   23.3947 H   0  0  0  0  0  0
  -34.3008  -19.5566   21.7302 H   0  0  0  0  0  0
  -34.7341  -17.9053   22.1511 H   0  0  0  0  0  0
  -30.1612  -14.7799   23.8618 H   0  0  0  0  0  0
  -31.8454  -14.4667   23.4674 H   0  0  0  0  0  0
  -30.6229  -13.2923   23.0524 H   0  0  0  0  0  0
  -28.4509  -21.2873   18.7990 H   0  0  0  0  0  0
  -27.7484  -21.7882   20.3209 H   0  0  0  0  0  0
  -28.1595  -25.9779   18.1444 H   0  0  0  0  0  0
  -29.7203  -25.7357   18.8550 H   0  0  0  0  0  0
  -30.0162  -21.5033   21.4148 H   0  0  0  0  0  0
  -30.6823  -21.0497   19.8470 H   0  0  0  0  0  0
  1 25  1  0  0  0
  1 30  2  0  0  0
  1 84  1  0  0  0
  2  3  1  0  0  0
  2 25  1  0  0  0
  2 86  1  0  0  0
  2 87  1  0  0  0
  3  4  1  0  0  0
  3 88  1  0  0  0
  3 89  1  0  0  0
  4  5  1  0  0  0
  4 90  1  0  0  0
  4 91  1  0  0  0
  5  6  1  0  0  0
  5 26  1  0  0  0
  5 92  1  0  0  0
  6 25  1  0  0  0
  6 93  1  0  0  0
  6 94  1  0  0  0
  7  8  2  0  0  0
  7 26  1  0  0  0
  7 29  1  0  0  0
  8  9  1  0  0  0
  8 22  1  0  0  0
  9 10  1  0  0  0
  9 27  2  0  0  0
 10 11  2  0  0  0
 10 15  1  0  0  0
 11 12  1  0  0  0
 11 95  1  0  0  0
 12 13  2  0  0  0
 12 96  1  0  0  0
 13 14  1  0  0  0
 13 31  1  0  0  0
 14 15  2  0  0  0
 14 97  1  0  0  0
 15 98  1  0  0  0
 16 17  2  0  0  0
 16 21  1  0  0  0
 16 31  1  0  0  0
 17 18  1  0  0  0
 17 99  1  0  0  0
 18 19  2  0  0  0
 18100  1  0  0  0
 19 20  1  0  0  0
 19 24  1  0  0  0
 20 21  2  0  0  0
 20101  1  0  0  0
 21 23  1  0  0  0
 22 28  1  0  0  0
 22 32  2  0  0  0
 26 27  1  0  0  0
 28102  1  0  0  0
 28103  1  0  0  0
 29104  1  0  0  0
 29105  1  0  0  0
 33 34  1  0  0  0
 33 66  1  0  0  0
 33 70  2  0  0  0
 34 36  1  0  0  0
 34 59  1  0  0  0
 34106  1  0  0  0
 35 44  2  0  0  0
 35 45  1  0  0  0
 35 68  1  0  0  0
 36 56  1  0  0  0
 36107  1  0  0  0
 37 39  1  0  0  0
 37 47  1  0  0  0
 37 66  1  0  0  0
 37108  1  0  0  0
 38 43  2  0  0  0
 38 46  1  0  0  0
 38 47  1  0  0  0
 39 64  1  0  0  0
 39 67  2  0  0  0
 40 52  1  0  0  0
 40 53  2  0  0  0
 40 58  1  0  0  0
 41109  1  0  0  0
 41110  1  0  0  0
 41111  1  0  0  0
 41 48  1  0  0  0
 42 43  1  0  0  0
 42 66  1  0  0  0
 42112  1  0  0  0
 42113  1  0  0  0
 43 44  1  0  0  0
 44114  1  0  0  0
 45 46  2  0  0  0
 45115  1  0  0  0
 46116  1  0  0  0
 47117  1  0  0  0
 47118  1  0  0  0
 48 56  1  0  0  0
 48 65  1  0  0  0
 48119  1  0  0  0
 49 50  1  0  0  0
 49 53  1  0  0  0
 49 64  1  0  0  0
 49120  1  0  0  0
 50 51  1  0  0  0
 50121  1  0  0  0
 50122  1  0  0  0
 51 52  1  0  0  0
 51123  1  0  0  0
 51124  1  0  0  0
 52125  1  0  0  0
 52126  1  0  0  0
 53 54  1  0  0  0
 54 55  2  0  0  0
 54127  1  0  0  0
 55 57  1  0  0  0
 55128  1  0  0  0
 56 69  2  0  0  0
 57 58  2  0  0  0
 57129  1  0  0  0
 58130  1  0  0  0
 59 60  1  0  0  0
 59 61  1  0  0  0
 59 62  1  0  0  0
 60131  1  0  0  0
 60132  1  0  0  0
 60133  1  0  0  0
 61134  1  0  0  0
 61135  1  0  0  0
 61136  1  0  0  0
 62137  1  0  0  0
 62138  1  0  0  0
 62139  1  0  0  0
 63 65  1  0  0  0
 63140  1  0  0  0
 63141  1  0  0  0
 63142  1  0  0  0
 64143  1  0  0  0
 65144  1  0  0  0
 68 82  1  0  0  0
 71 74  2  0  0  0
 71 75  1  0  0  0
 71145  1  0  0  0
 72 74  1  0  0  0
 72 76  2  0  0  0
 72146  1  0  0  0
 73 75  2  0  0  0
 73 76  1  0  0  0
 73147  1  0  0  0
 74 79  1  0  0  0
 75 84  1  0  0  0
 76 85  1  0  0  0
 77 78  2  0  0  0
 77 81  1  0  0  0
 77148  1  0  0  0
 78 82  1  0  0  0
 78149  1  0  0  0
 79150  1  0  0  0
 79151  1  0  0  0
 79152  1  0  0  0
 80 84  1  0  0  0
 80153  1  0  0  0
 80154  1  0  0  0
 80155  1  0  0  0
 81 83  1  0  0  0
 81156  1  0  0  0
 81157  1  0  0  0
 82158  1  0  0  0
 82159  1  0  0  0
 83 85  1  0  0  0
 83160  1  0  0  0
 83161  1  0  0  0
M  ISO  4   1 100  68 101  82 101  84 100
M  END
> <chiral flag>
0

> <version>
0

> <s_m_source_file>
/data/baiqing/PycharmProjects/Reinvent-master-3.2/result/LINK_invent/BTK/process_docking_weight1_custom_product_contain_oxygen_bond_distance_aromatic_linkinvent_7_9_3/rearranged_h_0122.sdf

> <i_m_source_file_index>
77

> <r_mmod_Potential_Energy-OPLS-2005>
147.988037109375

> <r_mmod_Stretch_Energy-OPLS-2005>
40.0310096740723

> <r_mmod_Bend_Energy-OPLS-2005>
104.091255187988

> <r_mmod_Torsional_Energy-OPLS-2005>
285.800506591797

> <r_mmod_Improper_Torsional_Energy-OPLS-2005>
5.15054416656494

> <r_mmod_Van_der_Waal_Energy-OPLS-2005>
162.004058837891

> <r_mmod_Electrostatic_Energy-OPLS-2005>
-269.525299072266

> <r_mmod_Solvation_Energy-OPLS-2005>
-190.562423706055

> <b_mmod_Minimization_Converged-OPLS-2005>
0

> <r_mmod_RMS_Derivative-OPLS-2005>
2.84677052497864

$$$$
77
                    3D
 Structure written by MMmdl.
160168  0  0  1  0            999 V2000
  -30.6432  -14.4940   20.5580 C   0  0  0  0  0  0
  -30.4292  -12.3184   19.4142 C   0  0  0  0  0  0
  -29.4913  -12.5193   18.2054 C   0  0  0  0  0  0
  -28.0142  -12.3604   18.6206 C   0  0  0  0  0  0
  -27.6595  -13.1772   19.8911 C   0  0  2  0  0  0
  -28.7056  -12.9479   21.0034 C   0  0  0  0  0  0
  -25.2625  -13.8081   20.5702 C   0  0  0  0  0  0
  -24.1831  -13.0400   20.9152 C   0  0  0  0  0  0
  -24.6344  -11.6859   20.8748 C   0  0  0  0  0  0
  -23.9002  -10.4268   21.0421 C   0  0  0  0  0  0
  -24.3571   -9.4192   21.9197 C   0  0  0  0  0  0
  -23.6268   -8.2226   22.0764 C   0  0  0  0  0  0
  -22.4253   -8.0273   21.3553 C   0  0  0  0  0  0
  -21.9888   -9.0235   20.4637 C   0  0  0  0  0  0
  -22.7196  -10.2120   20.3054 C   0  0  0  0  0  0
  -21.6847   -6.0726   22.5273 C   0  0  0  0  0  0
  -21.4013   -6.5635   23.8208 C   0  0  0  0  0  0
  -21.3675   -5.6791   24.9177 C   0  0  0  0  0  0
  -21.6048   -4.3052   24.7228 C   0  0  0  0  0  0
  -21.8825   -3.8150   23.4347 C   0  0  0  0  0  0
  -21.9189   -4.6958   22.3392 C   0  0  0  0  0  0
  -22.7876  -13.5240   21.1827 C   0  0  0  0  0  0
  -22.1656   -4.2151   21.0962 F   0  0  0  0  0  0
  -21.5641   -3.4536   25.7733 F   0  0  0  0  0  0
  -30.0302  -13.2841   20.4484 N   0  0  0  0  0  0
  -26.3006  -12.9160   20.3450 N   0  0  0  0  0  0
  -25.9263  -11.6358   20.5824 N   0  0  0  0  0  0
  -22.0517  -12.8218   22.0367 N   0  0  0  0  0  0
  -25.4433  -15.1788   20.4109 N   0  0  0  0  0  0
  -31.7822  -14.7150   20.1343 O   0  0  0  0  0  0
  -21.6628   -6.8867   21.4232 O   0  0  0  0  0  0
  -22.3602  -14.5584   20.6724 O   0  0  0  0  0  0
  -24.6130  -31.8671   23.2090 C   0  0  0  0  0  0
  -25.9015  -32.4828   23.8392 C   0  0  1  0  0  0
  -27.2517  -27.4373   20.0835 C   0  0  0  0  0  0
  -25.5864  -33.8627   24.2317 N   0  0  0  0  0  0
  -23.4023  -30.4874   21.5508 C   0  0  2  0  0  0
  -24.8531  -28.9519   20.1151 C   0  0  0  0  0  0
  -22.7399  -29.4636   22.5007 C   0  0  0  0  0  0
  -18.0262  -28.1354   22.8536 C   0  0  0  0  0  0
  -24.1493  -36.7338   23.2636 C   0  0  0  0  0  0
  -25.9296  -30.8304   21.3642 C   0  0  0  0  0  0
  -26.0092  -29.4610   20.7172 C   0  0  0  0  0  0
  -27.2030  -28.7048   20.7117 C   0  0  0  0  0  0
  -26.0757  -26.9452   19.4710 C   0  0  0  0  0  0
  -24.8805  -27.6914   19.4925 C   0  0  0  0  0  0
  -23.6129  -29.8169   20.1662 C   0  0  0  0  0  0
  -25.4111  -36.3122   24.0339 C   0  0  1  0  0  0
  -20.5844  -28.3651   23.1349 C   0  0  2  0  0  0
  -20.6752  -26.9392   22.5439 C   0  0  0  0  0  0
  -19.5730  -26.6375   21.5241 C   0  0  0  0  0  0
  -18.1898  -26.7920   22.1635 C   0  0  0  0  0  0
  -19.1508  -28.8826   23.2937 C   0  0  0  0  0  0
  -18.9437  -30.1444   23.8935 C   0  0  0  0  0  0
  -17.6437  -30.6593   24.0550 C   0  0  0  0  0  0
  -25.9042  -34.9487   23.5138 C   0  0  0  0  0  0
  -16.5333  -29.9087   23.6324 C   0  0  0  0  0  0
  -16.7251  -28.6479   23.0396 C   0  0  0  0  0  0
  -26.4460  -31.6589   25.0708 C   0  0  0  0  0  0
  -25.3737  -31.3629   26.1448 C   0  0  0  0  0  0
  -27.0300  -30.3043   24.6046 C   0  0  0  0  0  0
  -27.6030  -32.4299   25.7485 C   0  0  0  0  0  0
  -27.5603  -37.1790   24.8449 C   0  0  0  0  0  0
  -21.4120  -29.3024   22.3765 N   0  0  0  0  0  0
  -26.4287  -37.3812   23.9439 N   0  0  0  0  0  0
  -24.6667  -31.0751   22.1008 N   0  0  0  0  0  0
  -23.4166  -28.8179   23.3054 O   0  0  0  0  0  0
  -28.4363  -26.7244   20.1191 O   0  0  0  0  0  0
  -26.5625  -34.8938   22.4708 O   0  0  0  0  0  0
  -23.5320  -32.1426   23.7487 O   0  0  0  0  0  0
  -30.3493  -17.6429   22.0219 C   0  0  0  0  0  0
  -29.4687  -17.5876   19.7554 C   0  0  0  0  0  0
  -29.9388  -16.8888   20.9044 C   0  0  0  0  0  0
  -29.8117  -19.7674   20.8910 C   0  0  0  0  0  0
  -30.3004  -19.0539   22.0102 C   0  0  0  0  0  0
  -29.4028  -19.0078   19.7578 C   0  0  0  0  0  0
  -30.1609  -16.5494   17.5374 C   0  0  0  0  0  0
  -29.0078  -16.8522   18.5010 C   0  0  0  0  0  0
  -28.3258  -24.3041   19.3272 C   0  0  0  0  0  0
  -29.2020  -23.4739   20.3023 C   0  0  0  0  0  0
  -28.7404  -25.7810   19.0832 C   0  0  0  0  0  0
  -29.1716  -21.9553   19.9793 C   0  0  0  0  0  0
  -29.8407  -15.4667   21.0431 N   0  0  0  0  0  0
  -29.7772  -21.1579   21.0044 O   0  0  0  0  0  0
  -30.7084  -19.7337   23.1100 F   0  0  0  0  0  0
  -28.9262  -19.6210   18.6456 F   0  0  0  0  0  0
  -31.4712  -12.4409   19.1102 H   0  0  0  0  0  0
  -30.3438  -11.3014   19.7996 H   0  0  0  0  0  0
  -29.7339  -11.8105   17.4120 H   0  0  0  0  0  0
  -29.6485  -13.5150   17.7860 H   0  0  0  0  0  0
  -27.8294  -11.2993   18.7993 H   0  0  0  0  0  0
  -27.3604  -12.6440   17.7964 H   0  0  0  0  0  0
  -27.6925  -14.2221   19.6186 H   0  0  0  0  0  0
  -28.6959  -11.9056   21.3232 H   0  0  0  0  0  0
  -28.4689  -13.5206   21.9013 H   0  0  0  0  0  0
  -25.2720   -9.5686   22.4767 H   0  0  0  0  0  0
  -23.9985   -7.4626   22.7485 H   0  0  0  0  0  0
  -21.0829   -8.8736   19.8929 H   0  0  0  0  0  0
  -22.3661  -10.9655   19.6166 H   0  0  0  0  0  0
  -21.2005   -7.6143   23.9704 H   0  0  0  0  0  0
  -21.1502   -6.0531   25.9076 H   0  0  0  0  0  0
  -22.0598   -2.7617   23.2842 H   0  0  0  0  0  0
  -22.4137  -11.9826   22.4655 H   0  0  0  0  0  0
  -21.1170  -13.1276   22.2653 H   0  0  0  0  0  0
  -24.6857  -15.8432   20.5173 H   0  0  0  0  0  0
  -26.3067  -15.6105   20.1094 H   0  0  0  0  0  0
  -26.7096  -32.5558   23.1172 H   0  0  0  0  0  0
  -24.9961  -33.9805   25.0422 H   0  0  0  0  0  0
  -22.6920  -31.3047   21.4100 H   0  0  0  0  0  0
  -23.3781  -35.9637   23.3223 H   0  0  0  0  0  0
  -24.3590  -36.9046   22.2067 H   0  0  0  0  0  0
  -23.7225  -37.6506   23.6710 H   0  0  0  0  0  0
  -26.0336  -31.5937   20.5918 H   0  0  0  0  0  0
  -26.8202  -30.8955   21.9763 H   0  0  0  0  0  0
  -28.0952  -29.0967   21.1818 H   0  0  0  0  0  0
  -26.0668  -25.9840   18.9803 H   0  0  0  0  0  0
  -23.9922  -27.2928   19.0221 H   0  0  0  0  0  0
  -23.7183  -30.5934   19.4071 H   0  0  0  0  0  0
  -22.7396  -29.2331   19.8704 H   0  0  0  0  0  0
  -25.1274  -36.1985   25.0827 H   0  0  0  0  0  0
  -20.9933  -28.3215   24.1474 H   0  0  0  0  0  0
  -20.5704  -26.2245   23.3620 H   0  0  0  0  0  0
  -21.6620  -26.7453   22.1221 H   0  0  0  0  0  0
  -19.6896  -25.6295   21.1251 H   0  0  0  0  0  0
  -19.6662  -27.3203   20.6789 H   0  0  0  0  0  0
  -17.4185  -26.6753   21.4001 H   0  0  0  0  0  0
  -18.0228  -26.0021   22.8976 H   0  0  0  0  0  0
  -19.7907  -30.7253   24.2323 H   0  0  0  0  0  0
  -17.4987  -31.6291   24.5110 H   0  0  0  0  0  0
  -15.5335  -30.3009   23.7589 H   0  0  0  0  0  0
  -15.8655  -28.0781   22.7133 H   0  0  0  0  0  0
  -24.5944  -30.6955   25.7747 H   0  0  0  0  0  0
  -24.8895  -32.2756   26.4929 H   0  0  0  0  0  0
  -25.8121  -30.8768   27.0177 H   0  0  0  0  0  0
  -26.2827  -29.6792   24.1143 H   0  0  0  0  0  0
  -27.4147  -29.7275   25.4467 H   0  0  0  0  0  0
  -27.8625  -30.4383   23.9132 H   0  0  0  0  0  0
  -27.2651  -33.3593   26.2081 H   0  0  0  0  0  0
  -28.3842  -32.6860   25.0313 H   0  0  0  0  0  0
  -28.0697  -31.8400   26.5387 H   0  0  0  0  0  0
  -28.2524  -38.0177   24.7636 H   0  0  0  0  0  0
  -28.1196  -36.2716   24.6103 H   0  0  0  0  0  0
  -27.2332  -37.1258   25.8844 H   0  0  0  0  0  0
  -20.9270  -29.8769   21.7012 H   0  0  0  0  0  0
  -26.0177  -38.2872   24.1497 H   0  0  0  0  0  0
  -30.6865  -17.1394   22.9163 H   0  0  0  0  0  0
  -29.8063  -16.0100   16.6578 H   0  0  0  0  0  0
  -30.9219  -15.9331   18.0110 H   0  0  0  0  0  0
  -30.6406  -17.4684   17.2000 H   0  0  0  0  0  0
  -28.2476  -17.4380   17.9817 H   0  0  0  0  0  0
  -28.5070  -15.9316   18.7711 H   0  0  0  0  0  0
  -27.2809  -24.2355   19.6288 H   0  0  0  0  0  0
  -28.3722  -23.8171   18.3522 H   0  0  0  0  0  0
  -28.8591  -23.6536   21.3213 H   0  0  0  0  0  0
  -30.2359  -23.8170   20.2638 H   0  0  0  0  0  0
  -28.3160  -26.1256   18.1384 H   0  0  0  0  0  0
  -29.8203  -25.8169   18.9299 H   0  0  0  0  0  0
  -29.7056  -21.8028   19.0404 H   0  0  0  0  0  0
  -28.1374  -21.6421   19.8358 H   0  0  0  0  0  0
  -28.9639  -15.1255   21.4111 H   0  0  0  0  0  0
  1 25  1  0  0  0
  1 30  2  0  0  0
  1 83  1  0  0  0
  2  3  1  0  0  0
  2 25  1  0  0  0
  2 87  1  0  0  0
  2 88  1  0  0  0
  3  4  1  0  0  0
  3 89  1  0  0  0
  3 90  1  0  0  0
  4  5  1  0  0  0
  4 91  1  0  0  0
  4 92  1  0  0  0
  5  6  1  0  0  0
  5 26  1  0  0  0
  5 93  1  0  0  0
  6 25  1  0  0  0
  6 94  1  0  0  0
  6 95  1  0  0  0
  7  8  2  0  0  0
  7 26  1  0  0  0
  7 29  1  0  0  0
  8  9  1  0  0  0
  8 22  1  0  0  0
  9 10  1  0  0  0
  9 27  2  0  0  0
 10 11  2  0  0  0
 10 15  1  0  0  0
 11 12  1  0  0  0
 11 96  1  0  0  0
 12 13  2  0  0  0
 12 97  1  0  0  0
 13 14  1  0  0  0
 13 31  1  0  0  0
 14 15  2  0  0  0
 14 98  1  0  0  0
 15 99  1  0  0  0
 16 17  2  0  0  0
 16 21  1  0  0  0
 16 31  1  0  0  0
 17 18  1  0  0  0
 17100  1  0  0  0
 18 19  2  0  0  0
 18101  1  0  0  0
 19 20  1  0  0  0
 19 24  1  0  0  0
 20 21  2  0  0  0
 20102  1  0  0  0
 21 23  1  0  0  0
 22 28  1  0  0  0
 22 32  2  0  0  0
 26 27  1  0  0  0
 28103  1  0  0  0
 28104  1  0  0  0
 29105  1  0  0  0
 29106  1  0  0  0
 33 34  1  0  0  0
 33 66  1  0  0  0
 33 70  2  0  0  0
 34 36  1  0  0  0
 34 59  1  0  0  0
 34107  1  0  0  0
 35 44  2  0  0  0
 35 45  1  0  0  0
 35 68  1  0  0  0
 36 56  1  0  0  0
 36108  1  0  0  0
 37 39  1  0  0  0
 37 47  1  0  0  0
 37 66  1  0  0  0
 37109  1  0  0  0
 38 43  2  0  0  0
 38 46  1  0  0  0
 38 47  1  0  0  0
 39 64  1  0  0  0
 39 67  2  0  0  0
 40 52  1  0  0  0
 40 53  2  0  0  0
 40 58  1  0  0  0
 41110  1  0  0  0
 41111  1  0  0  0
 41112  1  0  0  0
 41 48  1  0  0  0
 42 43  1  0  0  0
 42 66  1  0  0  0
 42113  1  0  0  0
 42114  1  0  0  0
 43 44  1  0  0  0
 44115  1  0  0  0
 45 46  2  0  0  0
 45116  1  0  0  0
 46117  1  0  0  0
 47118  1  0  0  0
 47119  1  0  0  0
 48 56  1  0  0  0
 48 65  1  0  0  0
 48120  1  0  0  0
 49 50  1  0  0  0
 49 53  1  0  0  0
 49 64  1  0  0  0
 49121  1  0  0  0
 50 51  1  0  0  0
 50122  1  0  0  0
 50123  1  0  0  0
 51 52  1  0  0  0
 51124  1  0  0  0
 51125  1  0  0  0
 52126  1  0  0  0
 52127  1  0  0  0
 53 54  1  0  0  0
 54 55  2  0  0  0
 54128  1  0  0  0
 55 57  1  0  0  0
 55129  1  0  0  0
 56 69  2  0  0  0
 57 58  2  0  0  0
 57130  1  0  0  0
 58131  1  0  0  0
 59 60  1  0  0  0
 59 61  1  0  0  0
 59 62  1  0  0  0
 60132  1  0  0  0
 60133  1  0  0  0
 60134  1  0  0  0
 61135  1  0  0  0
 61136  1  0  0  0
 61137  1  0  0  0
 62138  1  0  0  0
 62139  1  0  0  0
 62140  1  0  0  0
 63 65  1  0  0  0
 63141  1  0  0  0
 63142  1  0  0  0
 63143  1  0  0  0
 64144  1  0  0  0
 65145  1  0  0  0
 68 81  1  0  0  0
 71 73  2  0  0  0
 71 75  1  0  0  0
 71146  1  0  0  0
 72 73  1  0  0  0
 72 76  2  0  0  0
 72 78  1  0  0  0
 73 83  1  0  0  0
 74 75  2  0  0  0
 74 76  1  0  0  0
 74 84  1  0  0  0
 75 85  1  0  0  0
 76 86  1  0  0  0
 77 78  1  0  0  0
 77147  1  0  0  0
 77148  1  0  0  0
 77149  1  0  0  0
 78150  1  0  0  0
 78151  1  0  0  0
 79 80  1  0  0  0
 79 81  1  0  0  0
 79152  1  0  0  0
 79153  1  0  0  0
 80 82  1  0  0  0
 80154  1  0  0  0
 80155  1  0  0  0
 81156  1  0  0  0
 81157  1  0  0  0
 82 84  1  0  0  0
 82158  1  0  0  0
 82159  1  0  0  0
 83160  1  0  0  0
M  ISO  4   1 100  68 101  81 101  83 100
M  END
> <chiral flag>
0

> <version>
0

> <s_m_source_file>
/data/baiqing/PycharmProjects/Reinvent-master-3.2/result/LINK_invent/BTK/process_docking_weight1_custom_product_contain_oxygen_bond_distance_aromatic_linkinvent_7_9_3/rearranged_h_0122.sdf

> <i_m_source_file_index>
78

> <r_mmod_Potential_Energy-OPLS-2005>
42.2654914855957

> <r_mmod_Stretch_Energy-OPLS-2005>
41.2770347595215

> <r_mmod_Bend_Energy-OPLS-2005>
118.941864013672

> <r_mmod_Torsional_Energy-OPLS-2005>
244.667404174805

> <r_mmod_Improper_Torsional_Energy-OPLS-2005>
4.4449462890625

> <r_mmod_Van_der_Waal_Energy-OPLS-2005>
151.154815673828

> <r_mmod_Electrostatic_Energy-OPLS-2005>
-326.979858398438

> <r_mmod_Solvation_Energy-OPLS-2005>
-206.278198242188

> <b_mmod_Minimization_Converged-OPLS-2005>
0

> <r_mmod_RMS_Derivative-OPLS-2005>
2.72568845748901

$$$$
78
                    3D
 Structure written by MMmdl.
155163  0  0  1  0            999 V2000
  -30.7018  -14.3776   20.5432 C   0  0  0  0  0  0
  -30.4220  -12.2230   19.4161 C   0  0  0  0  0  0
  -29.4960  -12.4337   18.2006 C   0  0  0  0  0  0
  -28.0084  -12.3603   18.6084 C   0  0  0  0  0  0
  -27.6683  -13.1811   19.8851 C   0  0  2  0  0  0
  -28.7088  -12.9227   21.0009 C   0  0  0  0  0  0
  -25.2655  -13.8109   20.5700 C   0  0  0  0  0  0
  -24.1873  -13.0427   20.9193 C   0  0  0  0  0  0
  -24.6379  -11.6884   20.8752 C   0  0  0  0  0  0
  -23.9036  -10.4295   21.0410 C   0  0  0  0  0  0
  -24.3598   -9.4224   21.9183 C   0  0  0  0  0  0
  -23.6302   -8.2247   22.0750 C   0  0  0  0  0  0
  -22.4285   -8.0269   21.3546 C   0  0  0  0  0  0
  -21.9911   -9.0232   20.4651 C   0  0  0  0  0  0
  -22.7208  -10.2129   20.3070 C   0  0  0  0  0  0
  -21.6866   -6.0749   22.5298 C   0  0  0  0  0  0
  -21.3997   -6.5656   23.8220 C   0  0  0  0  0  0
  -21.3659   -5.6811   24.9186 C   0  0  0  0  0  0
  -21.6046   -4.3073   24.7240 C   0  0  0  0  0  0
  -21.8815   -3.8169   23.4358 C   0  0  0  0  0  0
  -21.9195   -4.6984   22.3412 C   0  0  0  0  0  0
  -22.7901  -13.5244   21.1860 C   0  0  0  0  0  0
  -22.1665   -4.2170   21.0992 F   0  0  0  0  0  0
  -21.5637   -3.4555   25.7749 F   0  0  0  0  0  0
  -30.0462  -13.1962   20.4482 N   0  0  0  0  0  0
  -26.3065  -12.9220   20.3426 N   0  0  0  0  0  0
  -25.9298  -11.6421   20.5805 N   0  0  0  0  0  0
  -22.0556  -12.8211   22.0400 N   0  0  0  0  0  0
  -25.4442  -15.1827   20.4105 N   0  0  0  0  0  0
  -31.8506  -14.5716   20.1362 O   0  0  0  0  0  0
  -21.6654   -6.8872   21.4246 O   0  0  0  0  0  0
  -22.3599  -14.5573   20.6750 O   0  0  0  0  0  0
  -24.6075  -31.8722   23.2187 C   0  0  0  0  0  0
  -25.8998  -32.4841   23.8457 C   0  0  1  0  0  0
  -27.2308  -27.4935   20.0752 C   0  0  0  0  0  0
  -25.5879  -33.8642   24.2386 N   0  0  0  0  0  0
  -23.3922  -30.5008   21.5548 C   0  0  2  0  0  0
  -24.8330  -28.9708   20.1181 C   0  0  0  0  0  0
  -22.7352  -29.4695   22.5001 C   0  0  0  0  0  0
  -18.0258  -28.1399   22.8489 C   0  0  0  0  0  0
  -24.1474  -36.7324   23.2636 C   0  0  0  0  0  0
  -25.9147  -30.8503   21.3664 C   0  0  0  0  0  0
  -25.9873  -29.4883   20.7170 C   0  0  0  0  0  0
  -27.1836  -28.7503   20.7048 C   0  0  0  0  0  0
  -26.0574  -26.9724   19.4786 C   0  0  0  0  0  0
  -24.8581  -27.7072   19.5041 C   0  0  0  0  0  0
  -23.5994  -29.8398   20.1654 C   0  0  0  0  0  0
  -25.4090  -36.3125   24.0349 C   0  0  1  0  0  0
  -20.5840  -28.3673   23.1328 C   0  0  2  0  0  0
  -20.6742  -26.9418   22.5411 C   0  0  0  0  0  0
  -19.5731  -26.6423   21.5195 C   0  0  0  0  0  0
  -18.1922  -26.7950   22.1618 C   0  0  0  0  0  0
  -19.1506  -28.8844   23.2918 C   0  0  0  0  0  0
  -18.9439  -30.1445   23.8945 C   0  0  0  0  0  0
  -17.6441  -30.6594   24.0585 C   0  0  0  0  0  0
  -25.9013  -34.9484   23.5158 C   0  0  0  0  0  0
  -16.5332  -29.9118   23.6310 C   0  0  0  0  0  0
  -16.7245  -28.6537   23.0324 C   0  0  0  0  0  0
  -26.4465  -31.6586   25.0742 C   0  0  0  0  0  0
  -25.3796  -31.3627   26.1526 C   0  0  0  0  0  0
  -27.0264  -30.3042   24.6051 C   0  0  0  0  0  0
  -27.6073  -32.4268   25.7478 C   0  0  0  0  0  0
  -27.5587  -37.1790   24.8456 C   0  0  0  0  0  0
  -21.4091  -29.3059   22.3748 N   0  0  0  0  0  0
  -26.4271  -37.3813   23.9440 N   0  0  0  0  0  0
  -24.6561  -31.0888   22.1052 N   0  0  0  0  0  0
  -23.4154  -28.8208   23.3003 O   0  0  0  0  0  0
  -28.4442  -26.8577   20.0641 O   0  0  0  0  0  0
  -26.5580  -34.8921   22.4718 O   0  0  0  0  0  0
  -23.5281  -32.1443   23.7620 O   0  0  0  0  0  0
  -29.9344  -17.8053   20.5053 C   0  0  0  0  0  0
  -29.5716  -18.6921   18.2578 C   0  0  0  0  0  0
  -29.4558  -16.3074   18.6389 C   0  0  0  0  0  0
  -29.8214  -18.9079   19.6349 C   0  0  0  0  0  0
  -29.7698  -16.5030   20.0059 C   0  0  0  0  0  0
  -29.3829  -17.3978   17.7627 C   0  0  0  0  0  0
  -29.9577  -20.2574   20.1789 C   0  0  0  0  0  0
  -30.0945  -21.3522   19.4201 C   0  0  0  0  0  0
  -30.1073  -22.6821   19.9543 C   0  0  0  0  0  0
  -30.0850  -23.7313   19.1258 C   0  0  0  0  0  0
  -29.9768  -25.1534   19.5831 C   0  0  0  0  0  0
  -28.5323  -25.6080   19.4246 C   0  0  0  0  0  0
  -29.9102  -15.4003   20.8769 N   0  0  0  0  0  0
  -29.1220  -17.2025   16.4481 F   0  0  0  0  0  0
  -31.4682  -12.3096   19.1156 H   0  0  0  0  0  0
  -30.3056  -11.2080   19.8023 H   0  0  0  0  0  0
  -29.7013  -11.6760   17.4444 H   0  0  0  0  0  0
  -29.7211  -13.3797   17.7140 H   0  0  0  0  0  0
  -27.7720  -11.3070   18.7734 H   0  0  0  0  0  0
  -27.3759  -12.6782   17.7792 H   0  0  0  0  0  0
  -27.7194  -14.2333   19.6121 H   0  0  0  0  0  0
  -28.6609  -11.8857   21.3391 H   0  0  0  0  0  0
  -28.4929  -13.5223   21.8868 H   0  0  0  0  0  0
  -25.2745   -9.5725   22.4745 H   0  0  0  0  0  0
  -24.0051   -7.4644   22.7450 H   0  0  0  0  0  0
  -21.0860   -8.8722   19.8936 H   0  0  0  0  0  0
  -22.3656  -10.9660   19.6182 H   0  0  0  0  0  0
  -21.1961   -7.6160   23.9726 H   0  0  0  0  0  0
  -21.1485   -6.0547   25.9087 H   0  0  0  0  0  0
  -22.0589   -2.7633   23.2867 H   0  0  0  0  0  0
  -22.4199  -11.9851   22.4739 H   0  0  0  0  0  0
  -21.1166  -13.1200   22.2630 H   0  0  0  0  0  0
  -24.6814  -15.8399   20.5259 H   0  0  0  0  0  0
  -26.2989  -15.6203   20.0908 H   0  0  0  0  0  0
  -26.7068  -32.5571   23.1223 H   0  0  0  0  0  0
  -24.9997  -33.9824   25.0503 H   0  0  0  0  0  0
  -22.6806  -31.3182   21.4209 H   0  0  0  0  0  0
  -23.3750  -35.9636   23.3257 H   0  0  0  0  0  0
  -24.3591  -36.8976   22.2062 H   0  0  0  0  0  0
  -23.7189  -37.6501   23.6667 H   0  0  0  0  0  0
  -26.0239  -31.6163   20.5985 H   0  0  0  0  0  0
  -26.8039  -30.9035   21.9814 H   0  0  0  0  0  0
  -28.0780  -29.1472   21.1656 H   0  0  0  0  0  0
  -26.0467  -26.0170   18.9756 H   0  0  0  0  0  0
  -23.9701  -27.3060   19.0351 H   0  0  0  0  0  0
  -23.7230  -30.6216   19.4148 H   0  0  0  0  0  0
  -22.7210  -29.2713   19.8562 H   0  0  0  0  0  0
  -25.1254  -36.1988   25.0838 H   0  0  0  0  0  0
  -20.9935  -28.3231   24.1439 H   0  0  0  0  0  0
  -20.5627  -26.2286   23.3593 H   0  0  0  0  0  0
  -21.6625  -26.7468   22.1209 H   0  0  0  0  0  0
  -19.6899  -25.6342   21.1214 H   0  0  0  0  0  0
  -19.6681  -27.3248   20.6738 H   0  0  0  0  0  0
  -17.4173  -26.6666   21.4047 H   0  0  0  0  0  0
  -18.0353  -26.0102   22.9029 H   0  0  0  0  0  0
  -19.7910  -30.7254   24.2356 H   0  0  0  0  0  0
  -17.4991  -31.6276   24.5197 H   0  0  0  0  0  0
  -15.5334  -30.3038   23.7621 H   0  0  0  0  0  0
  -15.8644  -28.0892   22.6993 H   0  0  0  0  0  0
  -24.5945  -30.7007   25.7862 H   0  0  0  0  0  0
  -24.9027  -32.2750   26.5113 H   0  0  0  0  0  0
  -25.8208  -30.8696   27.0197 H   0  0  0  0  0  0
  -26.2749  -29.6814   24.1184 H   0  0  0  0  0  0
  -27.4136  -29.7264   25.4453 H   0  0  0  0  0  0
  -27.8553  -30.4389   23.9101 H   0  0  0  0  0  0
  -27.2730  -33.3541   26.2142 H   0  0  0  0  0  0
  -28.3827  -32.6859   25.0258 H   0  0  0  0  0  0
  -28.0800  -31.8334   26.5313 H   0  0  0  0  0  0
  -28.2543  -38.0145   24.7577 H   0  0  0  0  0  0
  -28.1133  -36.2678   24.6161 H   0  0  0  0  0  0
  -27.2329  -37.1299   25.8859 H   0  0  0  0  0  0
  -20.9220  -29.8848   21.7047 H   0  0  0  0  0  0
  -26.0162  -38.2871   24.1508 H   0  0  0  0  0  0
  -30.1540  -17.9634   21.5528 H   0  0  0  0  0  0
  -29.4834  -19.5033   17.5533 H   0  0  0  0  0  0
  -29.2764  -15.3279   18.2371 H   0  0  0  0  0  0
  -29.8993  -20.3548   21.2551 H   0  0  0  0  0  0
  -30.1791  -21.2598   18.3487 H   0  0  0  0  0  0
  -30.0986  -22.8314   21.0263 H   0  0  0  0  0  0
  -30.0929  -23.5783   18.0559 H   0  0  0  0  0  0
  -30.6489  -25.7819   18.9994 H   0  0  0  0  0  0
  -30.2785  -25.2245   20.6291 H   0  0  0  0  0  0
  -27.8586  -24.8969   19.9084 H   0  0  0  0  0  0
  -28.2647  -25.6785   18.3687 H   0  0  0  0  0  0
  -29.0632  -15.1182   21.3447 H   0  0  0  0  0  0
  1 25  1  0  0  0
  1 30  2  0  0  0
  1 83  1  0  0  0
  2  3  1  0  0  0
  2 25  1  0  0  0
  2 85  1  0  0  0
  2 86  1  0  0  0
  3  4  1  0  0  0
  3 87  1  0  0  0
  3 88  1  0  0  0
  4  5  1  0  0  0
  4 89  1  0  0  0
  4 90  1  0  0  0
  5  6  1  0  0  0
  5 26  1  0  0  0
  5 91  1  0  0  0
  6 25  1  0  0  0
  6 92  1  0  0  0
  6 93  1  0  0  0
  7  8  2  0  0  0
  7 26  1  0  0  0
  7 29  1  0  0  0
  8  9  1  0  0  0
  8 22  1  0  0  0
  9 10  1  0  0  0
  9 27  2  0  0  0
 10 11  2  0  0  0
 10 15  1  0  0  0
 11 12  1  0  0  0
 11 94  1  0  0  0
 12 13  2  0  0  0
 12 95  1  0  0  0
 13 14  1  0  0  0
 13 31  1  0  0  0
 14 15  2  0  0  0
 14 96  1  0  0  0
 15 97  1  0  0  0
 16 17  2  0  0  0
 16 21  1  0  0  0
 16 31  1  0  0  0
 17 18  1  0  0  0
 17 98  1  0  0  0
 18 19  2  0  0  0
 18 99  1  0  0  0
 19 20  1  0  0  0
 19 24  1  0  0  0
 20 21  2  0  0  0
 20100  1  0  0  0
 21 23  1  0  0  0
 22 28  1  0  0  0
 22 32  2  0  0  0
 26 27  1  0  0  0
 28101  1  0  0  0
 28102  1  0  0  0
 29103  1  0  0  0
 29104  1  0  0  0
 33 34  1  0  0  0
 33 66  1  0  0  0
 33 70  2  0  0  0
 34 36  1  0  0  0
 34 59  1  0  0  0
 34105  1  0  0  0
 35 44  2  0  0  0
 35 45  1  0  0  0
 35 68  1  0  0  0
 36 56  1  0  0  0
 36106  1  0  0  0
 37 39  1  0  0  0
 37 47  1  0  0  0
 37 66  1  0  0  0
 37107  1  0  0  0
 38 43  2  0  0  0
 38 46  1  0  0  0
 38 47  1  0  0  0
 39 64  1  0  0  0
 39 67  2  0  0  0
 40 52  1  0  0  0
 40 53  2  0  0  0
 40 58  1  0  0  0
 41108  1  0  0  0
 41109  1  0  0  0
 41110  1  0  0  0
 41 48  1  0  0  0
 42 43  1  0  0  0
 42 66  1  0  0  0
 42111  1  0  0  0
 42112  1  0  0  0
 43 44  1  0  0  0
 44113  1  0  0  0
 45 46  2  0  0  0
 45114  1  0  0  0
 46115  1  0  0  0
 47116  1  0  0  0
 47117  1  0  0  0
 48 56  1  0  0  0
 48 65  1  0  0  0
 48118  1  0  0  0
 49 50  1  0  0  0
 49 53  1  0  0  0
 49 64  1  0  0  0
 49119  1  0  0  0
 50 51  1  0  0  0
 50120  1  0  0  0
 50121  1  0  0  0
 51 52  1  0  0  0
 51122  1  0  0  0
 51123  1  0  0  0
 52124  1  0  0  0
 52125  1  0  0  0
 53 54  1  0  0  0
 54 55  2  0  0  0
 54126  1  0  0  0
 55 57  1  0  0  0
 55127  1  0  0  0
 56 69  2  0  0  0
 57 58  2  0  0  0
 57128  1  0  0  0
 58129  1  0  0  0
 59 60  1  0  0  0
 59 61  1  0  0  0
 59 62  1  0  0  0
 60130  1  0  0  0
 60131  1  0  0  0
 60132  1  0  0  0
 61133  1  0  0  0
 61134  1  0  0  0
 61135  1  0  0  0
 62136  1  0  0  0
 62137  1  0  0  0
 62138  1  0  0  0
 63 65  1  0  0  0
 63139  1  0  0  0
 63140  1  0  0  0
 63141  1  0  0  0
 64142  1  0  0  0
 65143  1  0  0  0
 68 82  1  0  0  0
 71 74  2  0  0  0
 71 75  1  0  0  0
 71144  1  0  0  0
 72 74  1  0  0  0
 72 76  2  0  0  0
 72145  1  0  0  0
 73 75  2  0  0  0
 73 76  1  0  0  0
 73146  1  0  0  0
 74 77  1  0  0  0
 75 83  1  0  0  0
 76 84  1  0  0  0
 77 78  2  0  0  0
 77147  1  0  0  0
 78 79  1  0  0  0
 78148  1  0  0  0
 79 80  2  0  0  0
 79149  1  0  0  0
 80 81  1  0  0  0
 80150  1  0  0  0
 81 82  1  0  0  0
 81151  1  0  0  0
 81152  1  0  0  0
 82153  1  0  0  0
 82154  1  0  0  0
 83155  1  0  0  0
M  ISO  4   1 100  68 101  82 101  83 100
M  END
> <chiral flag>
0

> <version>
0

> <s_m_source_file>
/data/baiqing/PycharmProjects/Reinvent-master-3.2/result/LINK_invent/BTK/process_docking_weight1_custom_product_contain_oxygen_bond_distance_aromatic_linkinvent_7_9_3/rearranged_h_0122.sdf

> <i_m_source_file_index>
79

> <r_mmod_Potential_Energy-OPLS-2005>
13.5330085754395

> <r_mmod_Stretch_Energy-OPLS-2005>
29.0976047515869

> <r_mmod_Bend_Energy-OPLS-2005>
90.3930206298828

> <r_mmod_Torsional_Energy-OPLS-2005>
243.123764038086

> <r_mmod_Improper_Torsional_Energy-OPLS-2005>
10.200701713562

> <r_mmod_Van_der_Waal_Energy-OPLS-2005>
167.571838378906

> <r_mmod_Electrostatic_Energy-OPLS-2005>
-335.355773925781

> <r_mmod_Solvation_Energy-OPLS-2005>
-204.999282836914

> <b_mmod_Minimization_Converged-OPLS-2005>
0

> <r_mmod_RMS_Derivative-OPLS-2005>
3.01786804199219

$$$$
79
                    3D
 Structure written by MMmdl.
164172  0  0  1  0            999 V2000
  -30.7333  -14.4801   20.5715 C   0  0  0  0  0  0
  -30.4080  -12.3187   19.4264 C   0  0  0  0  0  0
  -29.4874  -12.5026   18.2055 C   0  0  0  0  0  0
  -28.0109  -12.3641   18.6215 C   0  0  0  0  0  0
  -27.6542  -13.2195   19.8677 C   0  0  2  0  0  0
  -28.6959  -13.0441   20.9931 C   0  0  0  0  0  0
  -25.2559  -13.8199   20.5711 C   0  0  0  0  0  0
  -24.1823  -13.0451   20.9189 C   0  0  0  0  0  0
  -24.6395  -11.6922   20.8742 C   0  0  0  0  0  0
  -23.9067  -10.4297   21.0402 C   0  0  0  0  0  0
  -24.3624   -9.4215   21.9178 C   0  0  0  0  0  0
  -23.6306   -8.2245   22.0747 C   0  0  0  0  0  0
  -22.4285   -8.0280   21.3544 C   0  0  0  0  0  0
  -21.9918   -9.0248   20.4645 C   0  0  0  0  0  0
  -22.7240  -10.2131   20.3054 C   0  0  0  0  0  0
  -21.6854   -6.0745   22.5284 C   0  0  0  0  0  0
  -21.4015   -6.5645   23.8219 C   0  0  0  0  0  0
  -21.3662   -5.6796   24.9177 C   0  0  0  0  0  0
  -21.6042   -4.3058   24.7225 C   0  0  0  0  0  0
  -21.8819   -3.8155   23.4346 C   0  0  0  0  0  0
  -21.9194   -4.6972   22.3405 C   0  0  0  0  0  0
  -22.7840  -13.5233   21.1853 C   0  0  0  0  0  0
  -22.1660   -4.2158   21.0982 F   0  0  0  0  0  0
  -21.5630   -3.4544   25.7740 F   0  0  0  0  0  0
  -30.0199  -13.3294   20.4244 N   0  0  0  0  0  0
  -26.2994  -12.9390   20.3361 N   0  0  0  0  0  0
  -25.9327  -11.6535   20.5778 N   0  0  0  0  0  0
  -22.0491  -12.8217   22.0413 N   0  0  0  0  0  0
  -25.4283  -15.1918   20.4145 N   0  0  0  0  0  0
  -31.8792  -14.5980   20.1238 O   0  0  0  0  0  0
  -21.6645   -6.8882   21.4244 O   0  0  0  0  0  0
  -22.3513  -14.5532   20.6699 O   0  0  0  0  0  0
  -24.6164  -31.8670   23.2086 C   0  0  0  0  0  0
  -25.9056  -32.4816   23.8388 C   0  0  1  0  0  0
  -27.2264  -27.4227   20.1022 C   0  0  0  0  0  0
  -25.5906  -33.8616   24.2320 N   0  0  0  0  0  0
  -23.4042  -30.4905   21.5496 C   0  0  2  0  0  0
  -24.8494  -28.9544   20.1135 C   0  0  0  0  0  0
  -22.7415  -29.4661   22.4988 C   0  0  0  0  0  0
  -18.0272  -28.1380   22.8495 C   0  0  0  0  0  0
  -24.1485  -36.7313   23.2636 C   0  0  0  0  0  0
  -25.9340  -30.8307   21.3616 C   0  0  0  0  0  0
  -26.0116  -29.4649   20.7067 C   0  0  0  0  0  0
  -27.2073  -28.7082   20.6925 C   0  0  0  0  0  0
  -26.0509  -26.9297   19.4986 C   0  0  0  0  0  0
  -24.8646  -27.6873   19.5045 C   0  0  0  0  0  0
  -23.6119  -29.8223   20.1642 C   0  0  0  0  0  0
  -25.4106  -36.3109   24.0335 C   0  0  1  0  0  0
  -20.5867  -28.3671   23.1313 C   0  0  2  0  0  0
  -20.6764  -26.9404   22.5416 C   0  0  0  0  0  0
  -19.5742  -26.6386   21.5213 C   0  0  0  0  0  0
  -18.1920  -26.7928   22.1623 C   0  0  0  0  0  0
  -19.1522  -28.8840   23.2906 C   0  0  0  0  0  0
  -18.9453  -30.1448   23.8914 C   0  0  0  0  0  0
  -17.6454  -30.6587   24.0567 C   0  0  0  0  0  0
  -25.9038  -34.9474   23.5125 C   0  0  0  0  0  0
  -16.5344  -29.9090   23.6328 C   0  0  0  0  0  0
  -16.7260  -28.6508   23.0348 C   0  0  0  0  0  0
  -26.4479  -31.6596   25.0718 C   0  0  0  0  0  0
  -25.3747  -31.3709   26.1468 C   0  0  0  0  0  0
  -27.0311  -30.3036   24.6103 C   0  0  0  0  0  0
  -27.6056  -32.4318   25.7481 C   0  0  0  0  0  0
  -27.5587  -37.1802   24.8460 C   0  0  0  0  0  0
  -21.4143  -29.3038   22.3718 N   0  0  0  0  0  0
  -26.4291  -37.3796   23.9417 N   0  0  0  0  0  0
  -24.6699  -31.0772   22.0982 N   0  0  0  0  0  0
  -23.4178  -28.8203   23.3036 O   0  0  0  0  0  0
  -28.3674  -26.6488   20.1173 O   0  0  0  0  0  0
  -26.5599  -34.8929   22.4688 O   0  0  0  0  0  0
  -23.5356  -32.1422   23.7481 O   0  0  0  0  0  0
  -29.8192  -17.8194   18.0840 C   0  0  0  0  0  0
  -30.0056  -16.7005   18.9082 C   0  0  0  0  0  0
  -29.3676  -19.0282   18.6243 C   0  0  0  0  0  0
  -29.1193  -17.9398   20.8026 C   0  0  0  0  0  0
  -29.7288  -16.7267   20.3054 C   0  0  0  0  0  0
  -29.0195  -19.1148   19.9902 C   0  0  0  0  0  0
  -31.7554  -17.5902   23.7157 C   0  0  0  0  0  0
  -31.6638  -16.6722   22.7421 C   0  0  0  0  0  0
  -28.4849  -18.0247   22.1833 C   0  0  0  0  0  0
  -30.4881  -15.7250   22.5514 C   0  0  0  0  0  0
  -28.5188  -24.1420   19.9041 C   0  0  0  0  0  0
  -28.3674  -22.7847   20.6533 C   0  0  0  0  0  0
  -28.2315  -25.3800   20.7931 C   0  0  0  0  0  0
  -28.6926  -21.5314   19.7996 C   0  0  0  0  0  0
  -30.1082  -15.5616   21.1283 N   0  0  0  0  0  0
  -28.5787  -20.3095   20.5560 O   0  0  0  0  0  0
  -31.4539  -12.3979   19.1249 H   0  0  0  0  0  0
  -30.2971  -11.3176   19.8452 H   0  0  0  0  0  0
  -29.7304  -11.7680   17.4366 H   0  0  0  0  0  0
  -29.6539  -13.4833   17.7572 H   0  0  0  0  0  0
  -27.8274  -11.3099   18.8310 H   0  0  0  0  0  0
  -27.3579  -12.6251   17.7879 H   0  0  0  0  0  0
  -27.6863  -14.2630   19.5522 H   0  0  0  0  0  0
  -28.6726  -12.0270   21.3863 H   0  0  0  0  0  0
  -28.4610  -13.6975   21.8345 H   0  0  0  0  0  0
  -25.2767   -9.5700   22.4753 H   0  0  0  0  0  0
  -24.0025   -7.4636   22.7463 H   0  0  0  0  0  0
  -21.0850   -8.8761   19.8949 H   0  0  0  0  0  0
  -22.3691  -10.9669   19.6168 H   0  0  0  0  0  0
  -21.2006   -7.6153   23.9730 H   0  0  0  0  0  0
  -21.1484   -6.0521   25.9082 H   0  0  0  0  0  0
  -22.0598   -2.7618   23.2843 H   0  0  0  0  0  0
  -22.4108  -11.9881   22.4807 H   0  0  0  0  0  0
  -21.1106  -13.1232   22.2618 H   0  0  0  0  0  0
  -24.6678  -15.8521   20.5335 H   0  0  0  0  0  0
  -26.2936  -15.6320   20.1282 H   0  0  0  0  0  0
  -26.7127  -32.5518   23.1153 H   0  0  0  0  0  0
  -25.0068  -33.9773   25.0472 H   0  0  0  0  0  0
  -22.6943  -31.3084   21.4101 H   0  0  0  0  0  0
  -23.3751  -35.9641   23.3287 H   0  0  0  0  0  0
  -24.3585  -36.8942   22.2055 H   0  0  0  0  0  0
  -23.7229  -37.6509   23.6658 H   0  0  0  0  0  0
  -26.0478  -31.5971   20.5936 H   0  0  0  0  0  0
  -26.8216  -30.8830   21.9808 H   0  0  0  0  0  0
  -28.1055  -29.0959   21.1528 H   0  0  0  0  0  0
  -26.0503  -25.9549   19.0317 H   0  0  0  0  0  0
  -23.9717  -27.2891   19.0431 H   0  0  0  0  0  0
  -23.7200  -30.5975   19.4047 H   0  0  0  0  0  0
  -22.7352  -29.2432   19.8689 H   0  0  0  0  0  0
  -25.1281  -36.1967   25.0827 H   0  0  0  0  0  0
  -20.9960  -28.3234   24.1435 H   0  0  0  0  0  0
  -20.5668  -26.2277   23.3606 H   0  0  0  0  0  0
  -21.6635  -26.7448   22.1203 H   0  0  0  0  0  0
  -19.6902  -25.6300   21.1237 H   0  0  0  0  0  0
  -19.6685  -27.3206   20.6752 H   0  0  0  0  0  0
  -17.4192  -26.6685   21.4020 H   0  0  0  0  0  0
  -18.0319  -26.0063   22.9012 H   0  0  0  0  0  0
  -19.7929  -30.7264   24.2282 H   0  0  0  0  0  0
  -17.5008  -31.6267   24.5168 H   0  0  0  0  0  0
  -15.5346  -30.2995   23.7645 H   0  0  0  0  0  0
  -15.8661  -28.0831   22.7053 H   0  0  0  0  0  0
  -24.5908  -30.7070   25.7808 H   0  0  0  0  0  0
  -24.8951  -32.2865   26.4936 H   0  0  0  0  0  0
  -25.8092  -30.8861   27.0216 H   0  0  0  0  0  0
  -26.2851  -29.6791   24.1169 H   0  0  0  0  0  0
  -27.4093  -29.7285   25.4566 H   0  0  0  0  0  0
  -27.8683  -30.4360   23.9245 H   0  0  0  0  0  0
  -27.2678  -33.3612   26.2081 H   0  0  0  0  0  0
  -28.3851  -32.6886   25.0296 H   0  0  0  0  0  0
  -28.0737  -31.8426   26.5376 H   0  0  0  0  0  0
  -28.2584  -38.0119   24.7542 H   0  0  0  0  0  0
  -28.1102  -36.2655   24.6234 H   0  0  0  0  0  0
  -27.2313  -37.1389   25.8863 H   0  0  0  0  0  0
  -20.9299  -29.8757   21.6942 H   0  0  0  0  0  0
  -26.0176  -38.2869   24.1439 H   0  0  0  0  0  0
  -30.0609  -17.7578   17.0318 H   0  0  0  0  0  0
  -30.4086  -15.8293   18.4141 H   0  0  0  0  0  0
  -29.2756  -19.8709   17.9552 H   0  0  0  0  0  0
  -32.6233  -18.2295   23.7968 H   0  0  0  0  0  0
  -30.9715  -17.7204   24.4479 H   0  0  0  0  0  0
  -32.4813  -16.5747   22.0398 H   0  0  0  0  0  0
  -27.9865  -17.0899   22.4378 H   0  0  0  0  0  0
  -27.7026  -18.7828   22.2188 H   0  0  0  0  0  0
  -29.2168  -18.2838   22.9444 H   0  0  0  0  0  0
  -29.6482  -15.9957   23.1831 H   0  0  0  0  0  0
  -30.8043  -14.7698   22.9808 H   0  0  0  0  0  0
  -27.8521  -24.1546   19.0418 H   0  0  0  0  0  0
  -29.5315  -24.2212   19.5077 H   0  0  0  0  0  0
  -27.3486  -22.6981   21.0325 H   0  0  0  0  0  0
  -29.0168  -22.7891   21.5300 H   0  0  0  0  0  0
  -28.9379  -25.3868   21.6237 H   0  0  0  0  0  0
  -27.2483  -25.2698   21.2550 H   0  0  0  0  0  0
  -29.7070  -21.6302   19.4104 H   0  0  0  0  0  0
  -28.0128  -21.4938   18.9469 H   0  0  0  0  0  0
  1 25  1  0  0  0
  1 30  2  0  0  0
  1 85  1  0  0  0
  2  3  1  0  0  0
  2 25  1  0  0  0
  2 87  1  0  0  0
  2 88  1  0  0  0
  3  4  1  0  0  0
  3 89  1  0  0  0
  3 90  1  0  0  0
  4  5  1  0  0  0
  4 91  1  0  0  0
  4 92  1  0  0  0
  5  6  1  0  0  0
  5 26  1  0  0  0
  5 93  1  0  0  0
  6 25  1  0  0  0
  6 94  1  0  0  0
  6 95  1  0  0  0
  7  8  2  0  0  0
  7 26  1  0  0  0
  7 29  1  0  0  0
  8  9  1  0  0  0
  8 22  1  0  0  0
  9 10  1  0  0  0
  9 27  2  0  0  0
 10 11  2  0  0  0
 10 15  1  0  0  0
 11 12  1  0  0  0
 11 96  1  0  0  0
 12 13  2  0  0  0
 12 97  1  0  0  0
 13 14  1  0  0  0
 13 31  1  0  0  0
 14 15  2  0  0  0
 14 98  1  0  0  0
 15 99  1  0  0  0
 16 17  2  0  0  0
 16 21  1  0  0  0
 16 31  1  0  0  0
 17 18  1  0  0  0
 17100  1  0  0  0
 18 19  2  0  0  0
 18101  1  0  0  0
 19 20  1  0  0  0
 19 24  1  0  0  0
 20 21  2  0  0  0
 20102  1  0  0  0
 21 23  1  0  0  0
 22 28  1  0  0  0
 22 32  2  0  0  0
 26 27  1  0  0  0
 28103  1  0  0  0
 28104  1  0  0  0
 29105  1  0  0  0
 29106  1  0  0  0
 33 34  1  0  0  0
 33 66  1  0  0  0
 33 70  2  0  0  0
 34 36  1  0  0  0
 34 59  1  0  0  0
 34107  1  0  0  0
 35 44  2  0  0  0
 35 45  1  0  0  0
 35 68  1  0  0  0
 36 56  1  0  0  0
 36108  1  0  0  0
 37 39  1  0  0  0
 37 47  1  0  0  0
 37 66  1  0  0  0
 37109  1  0  0  0
 38 43  2  0  0  0
 38 46  1  0  0  0
 38 47  1  0  0  0
 39 64  1  0  0  0
 39 67  2  0  0  0
 40 52  1  0  0  0
 40 53  2  0  0  0
 40 58  1  0  0  0
 41110  1  0  0  0
 41111  1  0  0  0
 41112  1  0  0  0
 41 48  1  0  0  0
 42 43  1  0  0  0
 42 66  1  0  0  0
 42113  1  0  0  0
 42114  1  0  0  0
 43 44  1  0  0  0
 44115  1  0  0  0
 45 46  2  0  0  0
 45116  1  0  0  0
 46117  1  0  0  0
 47118  1  0  0  0
 47119  1  0  0  0
 48 56  1  0  0  0
 48 65  1  0  0  0
 48120  1  0  0  0
 49 50  1  0  0  0
 49 53  1  0  0  0
 49 64  1  0  0  0
 49121  1  0  0  0
 50 51  1  0  0  0
 50122  1  0  0  0
 50123  1  0  0  0
 51 52  1  0  0  0
 51124  1  0  0  0
 51125  1  0  0  0
 52126  1  0  0  0
 52127  1  0  0  0
 53 54  1  0  0  0
 54 55  2  0  0  0
 54128  1  0  0  0
 55 57  1  0  0  0
 55129  1  0  0  0
 56 69  2  0  0  0
 57 58  2  0  0  0
 57130  1  0  0  0
 58131  1  0  0  0
 59 60  1  0  0  0
 59 61  1  0  0  0
 59 62  1  0  0  0
 60132  1  0  0  0
 60133  1  0  0  0
 60134  1  0  0  0
 61135  1  0  0  0
 61136  1  0  0  0
 61137  1  0  0  0
 62138  1  0  0  0
 62139  1  0  0  0
 62140  1  0  0  0
 63 65  1  0  0  0
 63141  1  0  0  0
 63142  1  0  0  0
 63143  1  0  0  0
 64144  1  0  0  0
 65145  1  0  0  0
 68 83  1  0  0  0
 71 72  2  0  0  0
 71 73  1  0  0  0
 71146  1  0  0  0
 72 75  1  0  0  0
 72147  1  0  0  0
 73 76  2  0  0  0
 73148  1  0  0  0
 74 75  2  0  0  0
 74 76  1  0  0  0
 74 79  1  0  0  0
 75 85  1  0  0  0
 76 86  1  0  0  0
 77 78  2  0  0  0
 77149  1  0  0  0
 77150  1  0  0  0
 78 80  1  0  0  0
 78151  1  0  0  0
 79152  1  0  0  0
 79153  1  0  0  0
 79154  1  0  0  0
 80 85  1  0  0  0
 80155  1  0  0  0
 80156  1  0  0  0
 81 82  1  0  0  0
 81 83  1  0  0  0
 81157  1  0  0  0
 81158  1  0  0  0
 82 84  1  0  0  0
 82159  1  0  0  0
 82160  1  0  0  0
 83161  1  0  0  0
 83162  1  0  0  0
 84 86  1  0  0  0
 84163  1  0  0  0
 84164  1  0  0  0
M  ISO  4   1 100  68 101  83 101  85 100
M  END
> <chiral flag>
0

> <version>
0

> <s_m_source_file>
/data/baiqing/PycharmProjects/Reinvent-master-3.2/result/LINK_invent/BTK/process_docking_weight1_custom_product_contain_oxygen_bond_distance_aromatic_linkinvent_7_9_3/rearranged_h_0122.sdf

> <i_m_source_file_index>
80

> <r_mmod_Potential_Energy-OPLS-2005>
178.755722045898

> <r_mmod_Stretch_Energy-OPLS-2005>
55.7404136657715

> <r_mmod_Bend_Energy-OPLS-2005>
115.163436889648

> <r_mmod_Torsional_Energy-OPLS-2005>
303.682342529297

> <r_mmod_Improper_Torsional_Energy-OPLS-2005>
4.48916244506836

> <r_mmod_Van_der_Waal_Energy-OPLS-2005>
167.992446899414

> <r_mmod_Electrostatic_Energy-OPLS-2005>
-301.477264404297

> <r_mmod_Solvation_Energy-OPLS-2005>
-184.040298461914

> <b_mmod_Minimization_Converged-OPLS-2005>
0

> <r_mmod_RMS_Derivative-OPLS-2005>
0.917671382427216

$$$$
80
                    3D
 Structure written by MMmdl.
150158  0  0  1  0            999 V2000
  -30.5781  -14.7522   20.5481 C   0  0  0  0  0  0
  -30.4530  -12.4788   19.4667 C   0  0  0  0  0  0
  -29.5183  -12.5371   18.2346 C   0  0  0  0  0  0
  -28.0418  -12.3494   18.6402 C   0  0  0  0  0  0
  -27.6527  -13.2201   19.8627 C   0  0  2  0  0  0
  -28.6931  -13.0749   20.9908 C   0  0  0  0  0  0
  -25.2567  -13.8171   20.5686 C   0  0  0  0  0  0
  -24.1832  -13.0435   20.9166 C   0  0  0  0  0  0
  -24.6399  -11.6905   20.8709 C   0  0  0  0  0  0
  -23.9064  -10.4290   21.0389 C   0  0  0  0  0  0
  -24.3613   -9.4209   21.9176 C   0  0  0  0  0  0
  -23.6288   -8.2247   22.0758 C   0  0  0  0  0  0
  -22.4271   -8.0281   21.3549 C   0  0  0  0  0  0
  -21.9902   -9.0253   20.4653 C   0  0  0  0  0  0
  -22.7228  -10.2132   20.3050 C   0  0  0  0  0  0
  -21.6857   -6.0730   22.5274 C   0  0  0  0  0  0
  -21.4018   -6.5637   23.8206 C   0  0  0  0  0  0
  -21.3659   -5.6792   24.9171 C   0  0  0  0  0  0
  -21.6045   -4.3054   24.7219 C   0  0  0  0  0  0
  -21.8821   -3.8141   23.4343 C   0  0  0  0  0  0
  -21.9196   -4.6958   22.3398 C   0  0  0  0  0  0
  -22.7853  -13.5231   21.1833 C   0  0  0  0  0  0
  -22.1664   -4.2142   21.0975 F   0  0  0  0  0  0
  -21.5623   -3.4538   25.7733 F   0  0  0  0  0  0
  -29.9988  -13.4966   20.4477 N   0  0  0  0  0  0
  -26.2988  -12.9351   20.3299 N   0  0  0  0  0  0
  -25.9330  -11.6502   20.5721 N   0  0  0  0  0  0
  -22.0501  -12.8231   22.0400 N   0  0  0  0  0  0
  -25.4307  -15.1893   20.4151 N   0  0  0  0  0  0
  -31.6914  -14.9403   20.0450 O   0  0  0  0  0  0
  -21.6646   -6.8872   21.4237 O   0  0  0  0  0  0
  -22.3538  -14.5538   20.6686 O   0  0  0  0  0  0
  -24.6330  -31.8535   23.1965 C   0  0  0  0  0  0
  -25.9148  -32.4742   23.8322 C   0  0  1  0  0  0
  -27.2256  -27.2440   20.1130 C   0  0  0  0  0  0
  -25.5936  -33.8546   24.2245 N   0  0  0  0  0  0
  -23.4303  -30.4763   21.5409 C   0  0  2  0  0  0
  -24.8768  -28.9217   20.1081 C   0  0  0  0  0  0
  -22.7515  -29.4592   22.4901 C   0  0  0  0  0  0
  -18.0293  -28.1388   22.8478 C   0  0  0  0  0  0
  -24.1492  -36.7284   23.2640 C   0  0  0  0  0  0
  -25.9786  -30.7588   21.3800 C   0  0  0  0  0  0
  -26.0498  -29.3810   20.7183 C   0  0  0  0  0  0
  -27.2213  -28.5538   20.7124 C   0  0  0  0  0  0
  -26.0163  -26.8511   19.4915 C   0  0  0  0  0  0
  -24.8664  -27.6649   19.4872 C   0  0  0  0  0  0
  -23.6486  -29.8114   20.1564 C   0  0  0  0  0  0
  -25.4118  -36.3062   24.0323 C   0  0  1  0  0  0
  -20.5899  -28.3701   23.1260 C   0  0  2  0  0  0
  -20.6779  -26.9414   22.5404 C   0  0  0  0  0  0
  -19.5754  -26.6380   21.5210 C   0  0  0  0  0  0
  -18.1936  -26.7927   22.1624 C   0  0  0  0  0  0
  -19.1547  -28.8862   23.2865 C   0  0  0  0  0  0
  -18.9469  -30.1461   23.8887 C   0  0  0  0  0  0
  -17.6466  -30.6588   24.0558 C   0  0  0  0  0  0
  -25.9058  -34.9431   23.5088 C   0  0  0  0  0  0
  -16.5356  -29.9083   23.6330 C   0  0  0  0  0  0
  -16.7280  -28.6502   23.0349 C   0  0  0  0  0  0
  -26.4503  -31.6576   25.0726 C   0  0  0  0  0  0
  -25.3719  -31.3743   26.1445 C   0  0  0  0  0  0
  -27.0354  -30.2984   24.6242 C   0  0  0  0  0  0
  -27.6049  -32.4327   25.7505 C   0  0  0  0  0  0
  -27.5577  -37.1798   24.8463 C   0  0  0  0  0  0
  -21.4218  -29.3048   22.3652 N   0  0  0  0  0  0
  -26.4293  -37.3760   23.9403 N   0  0  0  0  0  0
  -24.6998  -31.0480   22.0952 N   0  0  0  0  0  0
  -23.4208  -28.8127   23.3001 O   0  0  0  0  0  0
  -28.3375  -26.3614   20.1951 O   0  0  0  0  0  0
  -26.5636  -34.8909   22.4662 O   0  0  0  0  0  0
  -23.5477  -32.1371   23.7250 O   0  0  0  0  0  0
  -30.4674  -18.8606   19.4490 C   0  0  0  0  0  0
  -30.3620  -20.2651   19.0715 C   0  0  0  0  0  0
  -29.7422  -18.4895   20.5542 C   0  0  0  0  0  0
  -29.5268  -21.0524   19.8606 C   0  0  0  0  0  0
  -29.5647  -17.1794   21.2520 C   0  0  0  0  0  0
  -29.2172  -22.5111   19.6159 C   0  0  0  0  0  0
  -29.8159  -15.8040   21.3162 C   0  0  0  0  0  0
  -28.6387  -23.6344   20.1983 C   0  0  0  0  0  0
  -31.1095  -20.7986   17.8840 C   0  0  0  0  0  0
  -28.4326  -25.0442   19.4647 C   0  0  0  0  0  0
  -28.9117  -19.9800   21.1475 S   0  0  0  0  0  0
  -31.4871  -12.6389   19.1589 H   0  0  0  0  0  0
  -30.4335  -11.4845   19.9157 H   0  0  0  0  0  0
  -29.8052  -11.7774   17.5068 H   0  0  0  0  0  0
  -29.6380  -13.4988   17.7334 H   0  0  0  0  0  0
  -27.8945  -11.2951   18.8776 H   0  0  0  0  0  0
  -27.3863  -12.5658   17.7962 H   0  0  0  0  0  0
  -27.6707  -14.2573   19.5276 H   0  0  0  0  0  0
  -28.7409  -12.0373   21.3253 H   0  0  0  0  0  0
  -28.3792  -13.6308   21.8705 H   0  0  0  0  0  0
  -25.2759   -9.5688   22.4747 H   0  0  0  0  0  0
  -23.9996   -7.4642   22.7482 H   0  0  0  0  0  0
  -21.0829   -8.8770   19.8964 H   0  0  0  0  0  0
  -22.3681  -10.9669   19.6156 H   0  0  0  0  0  0
  -21.2019   -7.6149   23.9705 H   0  0  0  0  0  0
  -21.1477   -6.0527   25.9074 H   0  0  0  0  0  0
  -22.0602   -2.7603   23.2848 H   0  0  0  0  0  0
  -22.4121  -11.9895   22.4792 H   0  0  0  0  0  0
  -21.1127  -13.1271   22.2616 H   0  0  0  0  0  0
  -24.6733  -15.8523   20.5392 H   0  0  0  0  0  0
  -26.2987  -15.6267   20.1302 H   0  0  0  0  0  0
  -26.7214  -32.5379   23.1059 H   0  0  0  0  0  0
  -25.0063  -33.9682   25.0377 H   0  0  0  0  0  0
  -22.7271  -31.2991   21.3953 H   0  0  0  0  0  0
  -23.3748  -35.9624   23.3305 H   0  0  0  0  0  0
  -24.3572  -36.8908   22.2052 H   0  0  0  0  0  0
  -23.7260  -37.6490   23.6667 H   0  0  0  0  0  0
  -26.1233  -31.5200   20.6119 H   0  0  0  0  0  0
  -26.8535  -30.8041   22.0166 H   0  0  0  0  0  0
  -28.1181  -28.9010   21.2065 H   0  0  0  0  0  0
  -25.8948  -25.8841   19.0335 H   0  0  0  0  0  0
  -23.9633  -27.3016   19.0159 H   0  0  0  0  0  0
  -23.7736  -30.5890   19.4020 H   0  0  0  0  0  0
  -22.7655  -29.2480   19.8496 H   0  0  0  0  0  0
  -25.1301  -36.1905   25.0816 H   0  0  0  0  0  0
  -20.9992  -28.3282   24.1381 H   0  0  0  0  0  0
  -20.5671  -26.2314   23.3614 H   0  0  0  0  0  0
  -21.6648  -26.7422   22.1207 H   0  0  0  0  0  0
  -19.6913  -25.6290   21.1246 H   0  0  0  0  0  0
  -19.6692  -27.3185   20.6737 H   0  0  0  0  0  0
  -17.4202  -26.6667   21.4033 H   0  0  0  0  0  0
  -18.0338  -26.0074   22.9026 H   0  0  0  0  0  0
  -19.7945  -30.7277   24.2254 H   0  0  0  0  0  0
  -17.5019  -31.6263   24.5168 H   0  0  0  0  0  0
  -15.5356  -30.2979   23.7658 H   0  0  0  0  0  0
  -15.8682  -28.0814   22.7069 H   0  0  0  0  0  0
  -24.5885  -30.7102   25.7772 H   0  0  0  0  0  0
  -24.8925  -32.2924   26.4855 H   0  0  0  0  0  0
  -25.8025  -30.8925   27.0231 H   0  0  0  0  0  0
  -26.2950  -29.6726   24.1247 H   0  0  0  0  0  0
  -27.3994  -29.7254   25.4781 H   0  0  0  0  0  0
  -27.8846  -30.4241   23.9522 H   0  0  0  0  0  0
  -27.2645  -33.3628   26.2069 H   0  0  0  0  0  0
  -28.3867  -32.6889   25.0342 H   0  0  0  0  0  0
  -28.0712  -31.8467   26.5436 H   0  0  0  0  0  0
  -28.2595  -38.0093   24.7491 H   0  0  0  0  0  0
  -28.1073  -36.2621   24.6311 H   0  0  0  0  0  0
  -27.2292  -37.1471   25.8866 H   0  0  0  0  0  0
  -20.9407  -29.8782   21.6863 H   0  0  0  0  0  0
  -26.0169  -38.2836   24.1388 H   0  0  0  0  0  0
  -31.0822  -18.1716   18.8866 H   0  0  0  0  0  0
  -28.9533  -17.4107   22.1139 H   0  0  0  0  0  0
  -29.5287  -22.7667   18.6134 H   0  0  0  0  0  0
  -29.3561  -15.3935   22.2001 H   0  0  0  0  0  0
  -28.2543  -23.5660   21.2056 H   0  0  0  0  0  0
  -31.8453  -20.0831   17.5160 H   0  0  0  0  0  0
  -31.6508  -21.7130   18.1285 H   0  0  0  0  0  0
  -30.4333  -21.0235   17.0589 H   0  0  0  0  0  0
  -27.6241  -24.9003   18.7557 H   0  0  0  0  0  0
  -29.2996  -25.1579   18.8134 H   0  0  0  0  0  0
  1 25  1  0  0  0
  1 30  2  0  0  0
  1 77  1  0  0  0
  2  3  1  0  0  0
  2 25  1  0  0  0
  2 82  1  0  0  0
  2 83  1  0  0  0
  3  4  1  0  0  0
  3 84  1  0  0  0
  3 85  1  0  0  0
  4  5  1  0  0  0
  4 86  1  0  0  0
  4 87  1  0  0  0
  5  6  1  0  0  0
  5 26  1  0  0  0
  5 88  1  0  0  0
  6 25  1  0  0  0
  6 89  1  0  0  0
  6 90  1  0  0  0
  7  8  2  0  0  0
  7 26  1  0  0  0
  7 29  1  0  0  0
  8  9  1  0  0  0
  8 22  1  0  0  0
  9 10  1  0  0  0
  9 27  2  0  0  0
 10 11  2  0  0  0
 10 15  1  0  0  0
 11 12  1  0  0  0
 11 91  1  0  0  0
 12 13  2  0  0  0
 12 92  1  0  0  0
 13 14  1  0  0  0
 13 31  1  0  0  0
 14 15  2  0  0  0
 14 93  1  0  0  0
 15 94  1  0  0  0
 16 17  2  0  0  0
 16 21  1  0  0  0
 16 31  1  0  0  0
 17 18  1  0  0  0
 17 95  1  0  0  0
 18 19  2  0  0  0
 18 96  1  0  0  0
 19 20  1  0  0  0
 19 24  1  0  0  0
 20 21  2  0  0  0
 20 97  1  0  0  0
 21 23  1  0  0  0
 22 28  1  0  0  0
 22 32  2  0  0  0
 26 27  1  0  0  0
 28 98  1  0  0  0
 28 99  1  0  0  0
 29100  1  0  0  0
 29101  1  0  0  0
 33 34  1  0  0  0
 33 66  1  0  0  0
 33 70  2  0  0  0
 34 36  1  0  0  0
 34 59  1  0  0  0
 34102  1  0  0  0
 35 44  2  0  0  0
 35 45  1  0  0  0
 35 68  1  0  0  0
 36 56  1  0  0  0
 36103  1  0  0  0
 37 39  1  0  0  0
 37 47  1  0  0  0
 37 66  1  0  0  0
 37104  1  0  0  0
 38 43  2  0  0  0
 38 46  1  0  0  0
 38 47  1  0  0  0
 39 64  1  0  0  0
 39 67  2  0  0  0
 40 52  1  0  0  0
 40 53  2  0  0  0
 40 58  1  0  0  0
 41105  1  0  0  0
 41106  1  0  0  0
 41107  1  0  0  0
 41 48  1  0  0  0
 42 43  1  0  0  0
 42 66  1  0  0  0
 42108  1  0  0  0
 42109  1  0  0  0
 43 44  1  0  0  0
 44110  1  0  0  0
 45 46  2  0  0  0
 45111  1  0  0  0
 46112  1  0  0  0
 47113  1  0  0  0
 47114  1  0  0  0
 48 56  1  0  0  0
 48 65  1  0  0  0
 48115  1  0  0  0
 49 50  1  0  0  0
 49 53  1  0  0  0
 49 64  1  0  0  0
 49116  1  0  0  0
 50 51  1  0  0  0
 50117  1  0  0  0
 50118  1  0  0  0
 51 52  1  0  0  0
 51119  1  0  0  0
 51120  1  0  0  0
 52121  1  0  0  0
 52122  1  0  0  0
 53 54  1  0  0  0
 54 55  2  0  0  0
 54123  1  0  0  0
 55 57  1  0  0  0
 55124  1  0  0  0
 56 69  2  0  0  0
 57 58  2  0  0  0
 57125  1  0  0  0
 58126  1  0  0  0
 59 60  1  0  0  0
 59 61  1  0  0  0
 59 62  1  0  0  0
 60127  1  0  0  0
 60128  1  0  0  0
 60129  1  0  0  0
 61130  1  0  0  0
 61131  1  0  0  0
 61132  1  0  0  0
 62133  1  0  0  0
 62134  1  0  0  0
 62135  1  0  0  0
 63 65  1  0  0  0
 63136  1  0  0  0
 63137  1  0  0  0
 63138  1  0  0  0
 64139  1  0  0  0
 65140  1  0  0  0
 68 80  1  0  0  0
 71 72  1  0  0  0
 71 73  2  0  0  0
 71141  1  0  0  0
 72 74  2  0  0  0
 72 79  1  0  0  0
 73 75  1  0  0  0
 73 81  1  0  0  0
 74 76  1  0  0  0
 74 81  1  0  0  0
 75 77  2  0  0  0
 75142  1  0  0  0
 76 78  2  0  0  0
 76143  1  0  0  0
 77144  1  0  0  0
 78 80  1  0  0  0
 78145  1  0  0  0
 79146  1  0  0  0
 79147  1  0  0  0
 79148  1  0  0  0
 80149  1  0  0  0
 80150  1  0  0  0
M  ISO  4   1 100  68 101  77 100  80 101
M  END
> <chiral flag>
0

> <version>
0

> <s_m_source_file>
/data/baiqing/PycharmProjects/Reinvent-master-3.2/result/LINK_invent/BTK/process_docking_weight1_custom_product_contain_oxygen_bond_distance_aromatic_linkinvent_7_9_3/rearranged_h_0122.sdf

> <i_m_source_file_index>
81

> <r_mmod_Potential_Energy-OPLS-2005>
279.648742675781

> <r_mmod_Stretch_Energy-OPLS-2005>
123.52522277832

> <r_mmod_Bend_Energy-OPLS-2005>
270.131713867188

> <r_mmod_Torsional_Energy-OPLS-2005>
178.152252197266

> <r_mmod_Improper_Torsional_Energy-OPLS-2005>
2.61897468566895

> <r_mmod_Van_der_Waal_Energy-OPLS-2005>
126.070152282715

> <r_mmod_Electrostatic_Energy-OPLS-2005>
-313.383880615234

> <r_mmod_Solvation_Energy-OPLS-2005>
-195.416564941406

> <b_mmod_Minimization_Converged-OPLS-2005>
0

> <r_mmod_RMS_Derivative-OPLS-2005>
0.939746797084808

$$$$
81
                    3D
 Structure written by MMmdl.
153161  0  0  1  0            999 V2000
  -30.7682  -14.5313   20.4698 C   0  0  0  0  0  0
  -30.3939  -12.3167   19.4754 C   0  0  0  0  0  0
  -29.5033  -12.4859   18.2294 C   0  0  0  0  0  0
  -28.0222  -12.3534   18.6295 C   0  0  0  0  0  0
  -27.6476  -13.2390   19.8506 C   0  0  2  0  0  0
  -28.6888  -13.1440   20.9884 C   0  0  0  0  0  0
  -25.2515  -13.8230   20.5696 C   0  0  0  0  0  0
  -24.1806  -13.0464   20.9191 C   0  0  0  0  0  0
  -24.6402  -11.6944   20.8737 C   0  0  0  0  0  0
  -23.9085  -10.4306   21.0405 C   0  0  0  0  0  0
  -24.3640   -9.4220   21.9181 C   0  0  0  0  0  0
  -23.6308   -8.2255   22.0761 C   0  0  0  0  0  0
  -22.4276   -8.0299   21.3560 C   0  0  0  0  0  0
  -21.9916   -9.0268   20.4655 C   0  0  0  0  0  0
  -22.7258  -10.2140   20.3048 C   0  0  0  0  0  0
  -21.6846   -6.0751   22.5280 C   0  0  0  0  0  0
  -21.4025   -6.5653   23.8218 C   0  0  0  0  0  0
  -21.3666   -5.6794   24.9177 C   0  0  0  0  0  0
  -21.6037   -4.3060   24.7224 C   0  0  0  0  0  0
  -21.8816   -3.8156   23.4340 C   0  0  0  0  0  0
  -21.9189   -4.6977   22.3398 C   0  0  0  0  0  0
  -22.7816  -13.5232   21.1852 C   0  0  0  0  0  0
  -22.1652   -4.2176   21.0976 F   0  0  0  0  0  0
  -21.5625   -3.4537   25.7731 F   0  0  0  0  0  0
  -30.0199  -13.3876   20.4218 N   0  0  0  0  0  0
  -26.2960  -12.9462   20.3273 N   0  0  0  0  0  0
  -25.9337  -11.6596   20.5727 N   0  0  0  0  0  0
  -22.0462  -12.8229   22.0421 N   0  0  0  0  0  0
  -25.4193  -15.1961   20.4155 N   0  0  0  0  0  0
  -31.9621  -14.4738   20.1735 O   0  0  0  0  0  0
  -21.6644   -6.8897   21.4243 O   0  0  0  0  0  0
  -22.3492  -14.5525   20.6698 O   0  0  0  0  0  0
  -24.6177  -31.8680   23.2132 C   0  0  0  0  0  0
  -25.9067  -32.4817   23.8411 C   0  0  1  0  0  0
  -27.2073  -27.3890   20.1024 C   0  0  0  0  0  0
  -25.5925  -33.8621   24.2342 N   0  0  0  0  0  0
  -23.4063  -30.4985   21.5538 C   0  0  2  0  0  0
  -24.8487  -28.9768   20.1058 C   0  0  0  0  0  0
  -22.7433  -29.4664   22.4952 C   0  0  0  0  0  0
  -18.0285  -28.1368   22.8491 C   0  0  0  0  0  0
  -24.1489  -36.7308   23.2636 C   0  0  0  0  0  0
  -25.9440  -30.8178   21.3797 C   0  0  0  0  0  0
  -26.0145  -29.4556   20.7173 C   0  0  0  0  0  0
  -27.1975  -28.6694   20.7168 C   0  0  0  0  0  0
  -26.0286  -26.9707   19.4357 C   0  0  0  0  0  0
  -24.8538  -27.7352   19.4589 C   0  0  0  0  0  0
  -23.6153  -29.8496   20.1627 C   0  0  0  0  0  0
  -25.4109  -36.3103   24.0337 C   0  0  1  0  0  0
  -20.5883  -28.3664   23.1292 C   0  0  2  0  0  0
  -20.6775  -26.9390   22.5405 C   0  0  0  0  0  0
  -19.5750  -26.6374   21.5207 C   0  0  0  0  0  0
  -18.1932  -26.7913   22.1620 C   0  0  0  0  0  0
  -19.1537  -28.8831   23.2893 C   0  0  0  0  0  0
  -18.9463  -30.1439   23.8897 C   0  0  0  0  0  0
  -17.6464  -30.6574   24.0559 C   0  0  0  0  0  0
  -25.9044  -34.9473   23.5135 C   0  0  0  0  0  0
  -16.5353  -29.9074   23.6325 C   0  0  0  0  0  0
  -16.7273  -28.6492   23.0342 C   0  0  0  0  0  0
  -26.4487  -31.6598   25.0749 C   0  0  0  0  0  0
  -25.3754  -31.3722   26.1502 C   0  0  0  0  0  0
  -27.0330  -30.3026   24.6166 C   0  0  0  0  0  0
  -27.6054  -32.4327   25.7513 C   0  0  0  0  0  0
  -27.5584  -37.1804   24.8462 C   0  0  0  0  0  0
  -21.4151  -29.3040   22.3700 N   0  0  0  0  0  0
  -26.4288  -37.3792   23.9413 N   0  0  0  0  0  0
  -24.6740  -31.0763   22.1052 N   0  0  0  0  0  0
  -23.4199  -28.8178   23.2982 O   0  0  0  0  0  0
  -28.3149  -26.5481   20.1923 O   0  0  0  0  0  0
  -26.5598  -34.8919   22.4692 O   0  0  0  0  0  0
  -23.5357  -32.1456   23.7497 O   0  0  0  0  0  0
  -31.4912  -20.4068   18.8624 C   0  0  0  0  0  0
  -31.4778  -19.0209   19.0716 C   0  0  0  0  0  0
  -30.6219  -21.2286   19.5893 C   0  0  0  0  0  0
  -29.7261  -19.2561   20.7393 C   0  0  0  0  0  0
  -30.6165  -18.4098   20.0149 C   0  0  0  0  0  0
  -29.7279  -20.6736   20.5305 C   0  0  0  0  0  0
  -30.7949  -16.9252   20.1135 C   0  0  0  0  0  0
  -30.1183  -15.8567   20.6373 C   0  0  0  0  0  0
  -28.8988  -24.0663   20.7777 C   0  0  0  0  0  0
  -28.2916  -22.6318   20.5852 C   0  0  0  0  0  0
  -28.0236  -25.1257   20.0471 C   0  0  0  0  0  0
  -28.9030  -21.5104   21.2660 O   0  0  0  0  0  0
  -31.4483  -12.3317   19.1926 H   0  0  0  0  0  0
  -30.2305  -11.3396   19.9317 H   0  0  0  0  0  0
  -29.7594  -11.7394   17.4771 H   0  0  0  0  0  0
  -29.6839  -13.4602   17.7714 H   0  0  0  0  0  0
  -27.8404  -11.3035   18.8642 H   0  0  0  0  0  0
  -27.3780  -12.5901   17.7821 H   0  0  0  0  0  0
  -27.6584  -14.2691   19.4925 H   0  0  0  0  0  0
  -28.6605  -12.1586   21.4561 H   0  0  0  0  0  0
  -28.4633  -13.8600   21.7798 H   0  0  0  0  0  0
  -25.2798   -9.5691   22.4746 H   0  0  0  0  0  0
  -24.0029   -7.4635   22.7461 H   0  0  0  0  0  0
  -21.0858   -8.8784   19.8944 H   0  0  0  0  0  0
  -22.3733  -10.9676   19.6144 H   0  0  0  0  0  0
  -21.2028   -7.6158   23.9735 H   0  0  0  0  0  0
  -21.1486   -6.0524   25.9083 H   0  0  0  0  0  0
  -22.0589   -2.7621   23.2824 H   0  0  0  0  0  0
  -22.4074  -11.9922   22.4866 H   0  0  0  0  0  0
  -21.1066  -13.1237   22.2583 H   0  0  0  0  0  0
  -24.6556  -15.8515   20.5374 H   0  0  0  0  0  0
  -26.2791  -15.6419   20.1214 H   0  0  0  0  0  0
  -26.7138  -32.5506   23.1164 H   0  0  0  0  0  0
  -25.0097  -33.9790   25.0498 H   0  0  0  0  0  0
  -22.6952  -31.3173   21.4231 H   0  0  0  0  0  0
  -23.3753  -35.9640   23.3297 H   0  0  0  0  0  0
  -24.3585  -36.8927   22.2053 H   0  0  0  0  0  0
  -23.7241  -37.6509   23.6657 H   0  0  0  0  0  0
  -26.0790  -31.5879   20.6190 H   0  0  0  0  0  0
  -26.8237  -30.8547   22.0105 H   0  0  0  0  0  0
  -28.0849  -29.0234   21.2215 H   0  0  0  0  0  0
  -25.9786  -26.0359   18.8979 H   0  0  0  0  0  0
  -23.9646  -27.3688   18.9633 H   0  0  0  0  0  0
  -23.7310  -30.6356   19.4149 H   0  0  0  0  0  0
  -22.7353  -29.2806   19.8569 H   0  0  0  0  0  0
  -25.1280  -36.1965   25.0825 H   0  0  0  0  0  0
  -20.9989  -28.3234   24.1407 H   0  0  0  0  0  0
  -20.5674  -26.2270   23.3597 H   0  0  0  0  0  0
  -21.6644  -26.7425   22.1197 H   0  0  0  0  0  0
  -19.6910  -25.6291   21.1226 H   0  0  0  0  0  0
  -19.6683  -27.3190   20.6742 H   0  0  0  0  0  0
  -17.4195  -26.6665   21.4022 H   0  0  0  0  0  0
  -18.0328  -26.0049   22.9010 H   0  0  0  0  0  0
  -19.7940  -30.7258   24.2256 H   0  0  0  0  0  0
  -17.5019  -31.6247   24.5163 H   0  0  0  0  0  0
  -15.5354  -30.2969   23.7651 H   0  0  0  0  0  0
  -15.8674  -28.0810   22.7049 H   0  0  0  0  0  0
  -24.5872  -30.7138   25.7837 H   0  0  0  0  0  0
  -24.9017  -32.2895   26.5007 H   0  0  0  0  0  0
  -25.8091  -30.8822   27.0229 H   0  0  0  0  0  0
  -26.2893  -29.6778   24.1203 H   0  0  0  0  0  0
  -27.4073  -29.7269   25.4644 H   0  0  0  0  0  0
  -27.8749  -30.4332   23.9361 H   0  0  0  0  0  0
  -27.2652  -33.3598   26.2141 H   0  0  0  0  0  0
  -28.3834  -32.6939   25.0329 H   0  0  0  0  0  0
  -28.0765  -31.8434   26.5392 H   0  0  0  0  0  0
  -28.2587  -38.0114   24.7524 H   0  0  0  0  0  0
  -28.1093  -36.2647   24.6259 H   0  0  0  0  0  0
  -27.2310  -37.1426   25.8866 H   0  0  0  0  0  0
  -20.9297  -29.8790   21.6954 H   0  0  0  0  0  0
  -26.0176  -38.2868   24.1415 H   0  0  0  0  0  0
  -32.1787  -20.8394   18.1489 H   0  0  0  0  0  0
  -32.1699  -18.4254   18.4905 H   0  0  0  0  0  0
  -30.6710  -22.2931   19.4214 H   0  0  0  0  0  0
  -29.0544  -18.8244   21.4676 H   0  0  0  0  0  0
  -31.7292  -16.6720   19.6326 H   0  0  0  0  0  0
  -29.1697  -15.9760   21.1373 H   0  0  0  0  0  0
  -29.9235  -24.1150   20.4136 H   0  0  0  0  0  0
  -28.9337  -24.3062   21.8402 H   0  0  0  0  0  0
  -28.1876  -22.4159   19.5206 H   0  0  0  0  0  0
  -27.2661  -22.6558   20.9578 H   0  0  0  0  0  0
  -27.0253  -24.9247   20.4368 H   0  0  0  0  0  0
  -28.0015  -24.8924   18.9809 H   0  0  0  0  0  0
  1 25  1  0  0  0
  1 30  2  0  0  0
  1 78  1  0  0  0
  2  3  1  0  0  0
  2 25  1  0  0  0
  2 83  1  0  0  0
  2 84  1  0  0  0
  3  4  1  0  0  0
  3 85  1  0  0  0
  3 86  1  0  0  0
  4  5  1  0  0  0
  4 87  1  0  0  0
  4 88  1  0  0  0
  5  6  1  0  0  0
  5 26  1  0  0  0
  5 89  1  0  0  0
  6 25  1  0  0  0
  6 90  1  0  0  0
  6 91  1  0  0  0
  7  8  2  0  0  0
  7 26  1  0  0  0
  7 29  1  0  0  0
  8  9  1  0  0  0
  8 22  1  0  0  0
  9 10  1  0  0  0
  9 27  2  0  0  0
 10 11  2  0  0  0
 10 15  1  0  0  0
 11 12  1  0  0  0
 11 92  1  0  0  0
 12 13  2  0  0  0
 12 93  1  0  0  0
 13 14  1  0  0  0
 13 31  1  0  0  0
 14 15  2  0  0  0
 14 94  1  0  0  0
 15 95  1  0  0  0
 16 17  2  0  0  0
 16 21  1  0  0  0
 16 31  1  0  0  0
 17 18  1  0  0  0
 17 96  1  0  0  0
 18 19  2  0  0  0
 18 97  1  0  0  0
 19 20  1  0  0  0
 19 24  1  0  0  0
 20 21  2  0  0  0
 20 98  1  0  0  0
 21 23  1  0  0  0
 22 28  1  0  0  0
 22 32  2  0  0  0
 26 27  1  0  0  0
 28 99  1  0  0  0
 28100  1  0  0  0
 29101  1  0  0  0
 29102  1  0  0  0
 33 34  1  0  0  0
 33 66  1  0  0  0
 33 70  2  0  0  0
 34 36  1  0  0  0
 34 59  1  0  0  0
 34103  1  0  0  0
 35 44  2  0  0  0
 35 45  1  0  0  0
 35 68  1  0  0  0
 36 56  1  0  0  0
 36104  1  0  0  0
 37 39  1  0  0  0
 37 47  1  0  0  0
 37 66  1  0  0  0
 37105  1  0  0  0
 38 43  2  0  0  0
 38 46  1  0  0  0
 38 47  1  0  0  0
 39 64  1  0  0  0
 39 67  2  0  0  0
 40 52  1  0  0  0
 40 53  2  0  0  0
 40 58  1  0  0  0
 41106  1  0  0  0
 41107  1  0  0  0
 41108  1  0  0  0
 41 48  1  0  0  0
 42 43  1  0  0  0
 42 66  1  0  0  0
 42109  1  0  0  0
 42110  1  0  0  0
 43 44  1  0  0  0
 44111  1  0  0  0
 45 46  2  0  0  0
 45112  1  0  0  0
 46113  1  0  0  0
 47114  1  0  0  0
 47115  1  0  0  0
 48 56  1  0  0  0
 48 65  1  0  0  0
 48116  1  0  0  0
 49 50  1  0  0  0
 49 53  1  0  0  0
 49 64  1  0  0  0
 49117  1  0  0  0
 50 51  1  0  0  0
 50118  1  0  0  0
 50119  1  0  0  0
 51 52  1  0  0  0
 51120  1  0  0  0
 51121  1  0  0  0
 52122  1  0  0  0
 52123  1  0  0  0
 53 54  1  0  0  0
 54 55  2  0  0  0
 54124  1  0  0  0
 55 57  1  0  0  0
 55125  1  0  0  0
 56 69  2  0  0  0
 57 58  2  0  0  0
 57126  1  0  0  0
 58127  1  0  0  0
 59 60  1  0  0  0
 59 61  1  0  0  0
 59 62  1  0  0  0
 60128  1  0  0  0
 60129  1  0  0  0
 60130  1  0  0  0
 61131  1  0  0  0
 61132  1  0  0  0
 61133  1  0  0  0
 62134  1  0  0  0
 62135  1  0  0  0
 62136  1  0  0  0
 63 65  1  0  0  0
 63137  1  0  0  0
 63138  1  0  0  0
 63139  1  0  0  0
 64140  1  0  0  0
 65141  1  0  0  0
 68 81  1  0  0  0
 71 72  2  0  0  0
 71 73  1  0  0  0
 71142  1  0  0  0
 72 75  1  0  0  0
 72143  1  0  0  0
 73 76  2  0  0  0
 73144  1  0  0  0
 74 75  2  0  0  0
 74 76  1  0  0  0
 74145  1  0  0  0
 75 77  1  0  0  0
 76 82  1  0  0  0
 77 78  2  0  0  0
 77146  1  0  0  0
 78147  1  0  0  0
 79 80  1  0  0  0
 79 81  1  0  0  0
 79148  1  0  0  0
 79149  1  0  0  0
 80 82  1  0  0  0
 80150  1  0  0  0
 80151  1  0  0  0
 81152  1  0  0  0
 81153  1  0  0  0
M  ISO  4   1 100  68 101  78 100  81 101
M  END
> <chiral flag>
0

> <version>
0

> <s_m_source_file>
/data/baiqing/PycharmProjects/Reinvent-master-3.2/result/LINK_invent/BTK/process_docking_weight1_custom_product_contain_oxygen_bond_distance_aromatic_linkinvent_7_9_3/rearranged_h_0122.sdf

> <i_m_source_file_index>
82

> <r_mmod_Potential_Energy-OPLS-2005>
92.1898345947266

> <r_mmod_Stretch_Energy-OPLS-2005>
52.7774848937988

> <r_mmod_Bend_Energy-OPLS-2005>
151.826766967773

> <r_mmod_Torsional_Energy-OPLS-2005>
200.281784057617

> <r_mmod_Improper_Torsional_Energy-OPLS-2005>
4.90397071838379

> <r_mmod_Van_der_Waal_Energy-OPLS-2005>
177.265228271484

> <r_mmod_Electrostatic_Energy-OPLS-2005>
-338.5693359375

> <r_mmod_Solvation_Energy-OPLS-2005>
-199.296005249023

> <b_mmod_Minimization_Converged-OPLS-2005>
0

> <r_mmod_RMS_Derivative-OPLS-2005>
2.030348777771

$$$$
82
                    3D
 Structure written by MMmdl.
169178  0  0  1  0            999 V2000
  -30.8034  -14.3806   20.4913 C   0  0  0  0  0  0
  -30.3805  -12.2386   19.4292 C   0  0  0  0  0  0
  -29.4786  -12.4593   18.2017 C   0  0  0  0  0  0
  -27.9997  -12.3450   18.6137 C   0  0  0  0  0  0
  -27.6438  -13.2188   19.8462 C   0  0  2  0  0  0
  -28.6894  -13.0908   20.9746 C   0  0  0  0  0  0
  -25.2532  -13.8193   20.5684 C   0  0  0  0  0  0
  -24.1803  -13.0443   20.9178 C   0  0  0  0  0  0
  -24.6374  -11.6917   20.8724 C   0  0  0  0  0  0
  -23.9047  -10.4293   21.0394 C   0  0  0  0  0  0
  -24.3603   -9.4208   21.9171 C   0  0  0  0  0  0
  -23.6286   -8.2240   22.0744 C   0  0  0  0  0  0
  -22.4267   -8.0273   21.3533 C   0  0  0  0  0  0
  -21.9897   -9.0245   20.4637 C   0  0  0  0  0  0
  -22.7223  -10.2122   20.3041 C   0  0  0  0  0  0
  -21.6855   -6.0722   22.5268 C   0  0  0  0  0  0
  -21.4013   -6.5626   23.8204 C   0  0  0  0  0  0
  -21.3659   -5.6783   24.9166 C   0  0  0  0  0  0
  -21.6050   -4.3048   24.7227 C   0  0  0  0  0  0
  -21.8818   -3.8135   23.4345 C   0  0  0  0  0  0
  -21.9192   -4.6950   22.3400 C   0  0  0  0  0  0
  -22.7825  -13.5225   21.1844 C   0  0  0  0  0  0
  -22.1665   -4.2128   21.0978 F   0  0  0  0  0  0
  -21.5630   -3.4533   25.7741 F   0  0  0  0  0  0
  -30.0270  -13.2772   20.4047 N   0  0  0  0  0  0
  -26.2944  -12.9381   20.3282 N   0  0  0  0  0  0
  -25.9300  -11.6529   20.5747 N   0  0  0  0  0  0
  -22.0478  -12.8204   22.0402 N   0  0  0  0  0  0
  -25.4250  -15.1914   20.4119 N   0  0  0  0  0  0
  -32.0182  -14.3330   20.3074 O   0  0  0  0  0  0
  -21.6637   -6.8870   21.4232 O   0  0  0  0  0  0
  -22.3504  -14.5533   20.6694 O   0  0  0  0  0  0
  -24.6084  -31.8738   23.2161 C   0  0  0  0  0  0
  -25.9010  -32.4853   23.8428 C   0  0  1  0  0  0
  -27.2301  -27.4966   20.0740 C   0  0  0  0  0  0
  -25.5895  -33.8648   24.2358 N   0  0  0  0  0  0
  -23.3910  -30.5003   21.5567 C   0  0  2  0  0  0
  -24.8339  -28.9705   20.1235 C   0  0  0  0  0  0
  -22.7367  -29.4699   22.5031 C   0  0  0  0  0  0
  -18.0256  -28.1368   22.8494 C   0  0  0  0  0  0
  -24.1480  -36.7318   23.2633 C   0  0  0  0  0  0
  -25.9156  -30.8545   21.3633 C   0  0  0  0  0  0
  -25.9918  -29.4917   20.7157 C   0  0  0  0  0  0
  -27.1937  -28.7573   20.6977 C   0  0  0  0  0  0
  -26.0477  -26.9610   19.5135 C   0  0  0  0  0  0
  -24.8513  -27.6986   19.5276 C   0  0  0  0  0  0
  -23.5950  -29.8333   20.1706 C   0  0  0  0  0  0
  -25.4095  -36.3124   24.0342 C   0  0  1  0  0  0
  -20.5841  -28.3645   23.1343 C   0  0  2  0  0  0
  -20.6742  -26.9388   22.5426 C   0  0  0  0  0  0
  -19.5732  -26.6389   21.5208 C   0  0  0  0  0  0
  -18.1906  -26.7923   22.1615 C   0  0  0  0  0  0
  -19.1502  -28.8818   23.2919 C   0  0  0  0  0  0
  -18.9435  -30.1427   23.8924 C   0  0  0  0  0  0
  -17.6437  -30.6583   24.0565 C   0  0  0  0  0  0
  -25.9031  -34.9495   23.5147 C   0  0  0  0  0  0
  -16.5324  -29.9086   23.6327 C   0  0  0  0  0  0
  -16.7244  -28.6499   23.0349 C   0  0  0  0  0  0
  -26.4458  -31.6619   25.0739 C   0  0  0  0  0  0
  -25.3746  -31.3722   26.1509 C   0  0  0  0  0  0
  -27.0260  -30.3055   24.6096 C   0  0  0  0  0  0
  -27.6069  -32.4315   25.7480 C   0  0  0  0  0  0
  -27.5594  -37.1785   24.8439 C   0  0  0  0  0  0
  -21.4105  -29.3031   22.3771 N   0  0  0  0  0  0
  -26.4275  -37.3815   23.9434 N   0  0  0  0  0  0
  -24.6565  -31.0896   22.1039 N   0  0  0  0  0  0
  -23.4178  -28.8241   23.3041 O   0  0  0  0  0  0
  -28.4167  -26.8175   19.9954 O   0  0  0  0  0  0
  -26.5591  -34.8940   22.4709 O   0  0  0  0  0  0
  -23.5294  -32.1467   23.7585 O   0  0  0  0  0  0
  -31.7021  -18.1046   18.8286 C   0  0  0  0  0  0
  -31.3660  -20.4867   18.7105 C   0  0  0  0  0  0
  -30.8545  -18.0310   19.9497 C   0  0  0  0  0  0
  -31.9687  -19.3273   18.2070 C   0  0  0  0  0  0
  -30.4527  -20.4315   19.7981 C   0  0  0  0  0  0
  -30.2187  -19.1886   20.4536 C   0  0  0  0  0  0
  -29.1776  -24.9877   18.7295 C   0  0  0  0  0  0
  -30.9118  -16.7334   20.5972 C   0  0  0  0  0  0
  -28.6661  -26.2187   18.7953 C   0  0  0  0  0  0
  -30.1667  -15.6623   20.2682 C   0  0  0  0  0  0
  -29.2677  -24.1558   17.4811 C   0  0  0  0  0  0
  -29.5815  -24.1615   19.9268 C   0  0  0  0  0  0
  -29.1982  -22.7448   18.0525 C   0  0  0  0  0  0
  -32.9221  -19.3944   17.0301 C   0  0  0  0  0  0
  -30.1194  -19.3128   22.9948 C   0  0  0  0  0  0
  -29.3376  -19.0732   21.6966 C   0  0  0  0  0  0
  -29.7627  -21.7103   20.2778 C   0  0  0  0  0  0
  -29.9167  -22.8482   19.3463 N   0  3  2  0  0  0
  -31.4309  -12.2618   19.1324 H   0  0  0  0  0  0
  -30.2151  -11.2499   19.8593 H   0  0  0  0  0  0
  -29.7050  -11.7228   17.4295 H   0  0  0  0  0  0
  -29.6738  -13.4387   17.7619 H   0  0  0  0  0  0
  -27.8040  -11.2959   18.8371 H   0  0  0  0  0  0
  -27.3519  -12.6010   17.7743 H   0  0  0  0  0  0
  -27.6543  -14.2490   19.4966 H   0  0  0  0  0  0
  -28.6296  -12.1104   21.4484 H   0  0  0  0  0  0
  -28.4967  -13.8268   21.7570 H   0  0  0  0  0  0
  -25.2749   -9.5695   22.4741 H   0  0  0  0  0  0
  -23.9990   -7.4635   22.7471 H   0  0  0  0  0  0
  -21.0818   -8.8772   19.8959 H   0  0  0  0  0  0
  -22.3679  -10.9653   19.6147 H   0  0  0  0  0  0
  -21.2008   -7.6130   23.9696 H   0  0  0  0  0  0
  -21.1483   -6.0516   25.9070 H   0  0  0  0  0  0
  -22.0598   -2.7601   23.2850 H   0  0  0  0  0  0
  -22.4082  -11.9853   22.4775 H   0  0  0  0  0  0
  -21.1099  -13.1223   22.2622 H   0  0  0  0  0  0
  -24.6638  -15.8514   20.5310 H   0  0  0  0  0  0
  -26.2886  -15.6325   20.1205 H   0  0  0  0  0  0
  -26.7086  -32.5581   23.1207 H   0  0  0  0  0  0
  -25.0041  -33.9819   25.0496 H   0  0  0  0  0  0
  -22.6762  -31.3149   21.4233 H   0  0  0  0  0  0
  -23.3763  -35.9626   23.3242 H   0  0  0  0  0  0
  -24.3593  -36.8983   22.2061 H   0  0  0  0  0  0
  -23.7200  -37.6500   23.6664 H   0  0  0  0  0  0
  -26.0246  -31.6232   20.5964 H   0  0  0  0  0  0
  -26.8058  -30.9066   21.9781 H   0  0  0  0  0  0
  -28.0945  -29.1636   21.1358 H   0  0  0  0  0  0
  -26.0511  -25.9849   19.0484 H   0  0  0  0  0  0
  -23.9575  -27.2876   19.0785 H   0  0  0  0  0  0
  -23.6965  -30.6075   19.4093 H   0  0  0  0  0  0
  -22.7206  -29.2484   19.8795 H   0  0  0  0  0  0
  -25.1260  -36.1987   25.0832 H   0  0  0  0  0  0
  -20.9934  -28.3195   24.1464 H   0  0  0  0  0  0
  -20.5635  -26.2248   23.3599 H   0  0  0  0  0  0
  -21.6617  -26.7436   22.1228 H   0  0  0  0  0  0
  -19.6892  -25.6310   21.1215 H   0  0  0  0  0  0
  -19.6688  -27.3217   20.6751 H   0  0  0  0  0  0
  -17.4191  -26.6684   21.4000 H   0  0  0  0  0  0
  -18.0298  -26.0053   22.8995 H   0  0  0  0  0  0
  -19.7912  -30.7223   24.2321 H   0  0  0  0  0  0
  -17.4999  -31.6272   24.5157 H   0  0  0  0  0  0
  -15.5322  -30.2985   23.7647 H   0  0  0  0  0  0
  -15.8646  -28.0823   22.7047 H   0  0  0  0  0  0
  -24.5890  -30.7101   25.7844 H   0  0  0  0  0  0
  -24.8968  -32.2883   26.4994 H   0  0  0  0  0  0
  -25.8115  -30.8857   27.0242 H   0  0  0  0  0  0
  -26.2778  -29.6848   24.1154 H   0  0  0  0  0  0
  -27.4026  -29.7269   25.4544 H   0  0  0  0  0  0
  -27.8626  -30.4355   23.9225 H   0  0  0  0  0  0
  -27.2730  -33.3618   26.2081 H   0  0  0  0  0  0
  -28.3858  -32.6865   25.0285 H   0  0  0  0  0  0
  -28.0759  -31.8422   26.5369 H   0  0  0  0  0  0
  -28.2538  -38.0152   24.7599 H   0  0  0  0  0  0
  -28.1152  -36.2692   24.6091 H   0  0  0  0  0  0
  -27.2347  -37.1264   25.8845 H   0  0  0  0  0  0
  -20.9245  -29.8750   21.7011 H   0  0  0  0  0  0
  -26.0160  -38.2881   24.1489 H   0  0  0  0  0  0
  -32.2006  -17.2113   18.4760 H   0  0  0  0  0  0
  -31.6291  -21.4139   18.2244 H   0  0  0  0  0  0
  -31.7588  -16.6199   21.2625 H   0  0  0  0  0  0
  -28.3209  -26.7885   17.9411 H   0  0  0  0  0  0
  -29.2510  -15.7515   19.7057 H   0  0  0  0  0  0
  -30.2261  -24.3336   16.9915 H   0  0  0  0  0  0
  -28.4649  -24.3648   16.7733 H   0  0  0  0  0  0
  -28.7363  -24.0865   20.6121 H   0  0  0  0  0  0
  -30.4288  -24.5986   20.4563 H   0  0  0  0  0  0
  -29.6172  -22.0084   17.3669 H   0  0  0  0  0  0
  -28.1579  -22.4658   18.2331 H   0  0  0  0  0  0
  -33.0113  -18.4248   16.5374 H   0  0  0  0  0  0
  -33.9151  -19.6959   17.3650 H   0  0  0  0  0  0
  -32.5769  -20.1138   16.2865 H   0  0  0  0  0  0
  -29.4680  -19.2070   23.8630 H   0  0  0  0  0  0
  -30.5533  -20.3123   23.0260 H   0  0  0  0  0  0
  -30.9312  -18.5933   23.1038 H   0  0  0  0  0  0
  -28.8898  -18.0793   21.7282 H   0  0  0  0  0  0
  -28.4855  -19.7482   21.6449 H   0  0  0  0  0  0
  -30.1878  -21.9804   21.2452 H   0  0  0  0  0  0
  -28.6975  -21.5381   20.4304 H   0  0  0  0  0  0
  -30.8995  -22.8971   19.1267 H   0  0  0  0  0  0
  1 25  1  0  0  0
  1 30  2  0  0  0
  1 80  1  0  0  0
  2  3  1  0  0  0
  2 25  1  0  0  0
  2 89  1  0  0  0
  2 90  1  0  0  0
  3  4  1  0  0  0
  3 91  1  0  0  0
  3 92  1  0  0  0
  4  5  1  0  0  0
  4 93  1  0  0  0
  4 94  1  0  0  0
  5  6  1  0  0  0
  5 26  1  0  0  0
  5 95  1  0  0  0
  6 25  1  0  0  0
  6 96  1  0  0  0
  6 97  1  0  0  0
  7  8  2  0  0  0
  7 26  1  0  0  0
  7 29  1  0  0  0
  8  9  1  0  0  0
  8 22  1  0  0  0
  9 10  1  0  0  0
  9 27  2  0  0  0
 10 11  2  0  0  0
 10 15  1  0  0  0
 11 12  1  0  0  0
 11 98  1  0  0  0
 12 13  2  0  0  0
 12 99  1  0  0  0
 13 14  1  0  0  0
 13 31  1  0  0  0
 14 15  2  0  0  0
 14100  1  0  0  0
 15101  1  0  0  0
 16 17  2  0  0  0
 16 21  1  0  0  0
 16 31  1  0  0  0
 17 18  1  0  0  0
 17102  1  0  0  0
 18 19  2  0  0  0
 18103  1  0  0  0
 19 20  1  0  0  0
 19 24  1  0  0  0
 20 21  2  0  0  0
 20104  1  0  0  0
 21 23  1  0  0  0
 22 28  1  0  0  0
 22 32  2  0  0  0
 26 27  1  0  0  0
 28105  1  0  0  0
 28106  1  0  0  0
 29107  1  0  0  0
 29108  1  0  0  0
 33 34  1  0  0  0
 33 66  1  0  0  0
 33 70  2  0  0  0
 34 36  1  0  0  0
 34 59  1  0  0  0
 34109  1  0  0  0
 35 44  2  0  0  0
 35 45  1  0  0  0
 35 68  1  0  0  0
 36 56  1  0  0  0
 36110  1  0  0  0
 37 39  1  0  0  0
 37 47  1  0  0  0
 37 66  1  0  0  0
 37111  1  0  0  0
 38 43  2  0  0  0
 38 46  1  0  0  0
 38 47  1  0  0  0
 39 64  1  0  0  0
 39 67  2  0  0  0
 40 52  1  0  0  0
 40 53  2  0  0  0
 40 58  1  0  0  0
 41112  1  0  0  0
 41113  1  0  0  0
 41114  1  0  0  0
 41 48  1  0  0  0
 42 43  1  0  0  0
 42 66  1  0  0  0
 42115  1  0  0  0
 42116  1  0  0  0
 43 44  1  0  0  0
 44117  1  0  0  0
 45 46  2  0  0  0
 45118  1  0  0  0
 46119  1  0  0  0
 47120  1  0  0  0
 47121  1  0  0  0
 48 56  1  0  0  0
 48 65  1  0  0  0
 48122  1  0  0  0
 49 50  1  0  0  0
 49 53  1  0  0  0
 49 64  1  0  0  0
 49123  1  0  0  0
 50 51  1  0  0  0
 50124  1  0  0  0
 50125  1  0  0  0
 51 52  1  0  0  0
 51126  1  0  0  0
 51127  1  0  0  0
 52128  1  0  0  0
 52129  1  0  0  0
 53 54  1  0  0  0
 54 55  2  0  0  0
 54130  1  0  0  0
 55 57  1  0  0  0
 55131  1  0  0  0
 56 69  2  0  0  0
 57 58  2  0  0  0
 57132  1  0  0  0
 58133  1  0  0  0
 59 60  1  0  0  0
 59 61  1  0  0  0
 59 62  1  0  0  0
 60134  1  0  0  0
 60135  1  0  0  0
 60136  1  0  0  0
 61137  1  0  0  0
 61138  1  0  0  0
 61139  1  0  0  0
 62140  1  0  0  0
 62141  1  0  0  0
 62142  1  0  0  0
 63 65  1  0  0  0
 63143  1  0  0  0
 63144  1  0  0  0
 63145  1  0  0  0
 64146  1  0  0  0
 65147  1  0  0  0
 68 79  1  0  0  0
 71 73  2  0  0  0
 71 74  1  0  0  0
 71148  1  0  0  0
 72 74  2  0  0  0
 72 75  1  0  0  0
 72149  1  0  0  0
 73 76  1  0  0  0
 73 78  1  0  0  0
 74 84  1  0  0  0
 75 76  2  0  0  0
 75 87  1  0  0  0
 76 86  1  0  0  0
 77 79  2  0  0  0
 77 81  1  0  0  0
 77 82  1  0  0  0
 78 80  2  0  0  0
 78150  1  0  0  0
 79151  1  0  0  0
 80152  1  0  0  0
 81 83  1  0  0  0
 81153  1  0  0  0
 81154  1  0  0  0
 82 88  1  0  0  0
 82155  1  0  0  0
 82156  1  0  0  0
 83 88  1  0  0  0
 83157  1  0  0  0
 83158  1  0  0  0
 84159  1  0  0  0
 84160  1  0  0  0
 84161  1  0  0  0
 85 86  1  0  0  0
 85162  1  0  0  0
 85163  1  0  0  0
 85164  1  0  0  0
 86165  1  0  0  0
 86166  1  0  0  0
 87167  1  0  0  0
 87168  1  0  0  0
 87 88  1  0  0  0
 88169  1  0  0  0
M  CHG  1  88   1
M  ISO  4   1 100  68 101  79 101  80 100
M  END
> <chiral flag>
0

> <version>
0

> <s_m_source_file>
/data/baiqing/PycharmProjects/Reinvent-master-3.2/result/LINK_invent/BTK/process_docking_weight1_custom_product_contain_oxygen_bond_distance_aromatic_linkinvent_7_9_3/rearranged_h_0122.sdf

> <i_m_source_file_index>
83

> <r_mmod_Potential_Energy-OPLS-2005>
19.9207038879395

> <r_mmod_Stretch_Energy-OPLS-2005>
30.7232627868652

> <r_mmod_Bend_Energy-OPLS-2005>
137.406372070312

> <r_mmod_Torsional_Energy-OPLS-2005>
297.249084472656

> <r_mmod_Improper_Torsional_Energy-OPLS-2005>
26.6551914215088

> <r_mmod_Van_der_Waal_Energy-OPLS-2005>
165.241333007812

> <r_mmod_Electrostatic_Energy-OPLS-2005>
-273.219146728516

> <r_mmod_Solvation_Energy-OPLS-2005>
-401.55322265625

> <b_mmod_Minimization_Converged-OPLS-2005>
0

> <r_mmod_RMS_Derivative-OPLS-2005>
1.40386533737183

$$$$
83
                    3D
 Structure written by MMmdl.
150158  0  0  1  0            999 V2000
  -30.4660  -15.0284   20.4441 C   0  0  0  0  0  0
  -30.4580  -12.6426   19.5085 C   0  0  0  0  0  0
  -29.5336  -12.5626   18.2662 C   0  0  0  0  0  0
  -28.0654  -12.3292   18.6744 C   0  0  0  0  0  0
  -27.6363  -13.2451   19.8488 C   0  0  2  0  0  0
  -28.6775  -13.2306   20.9858 C   0  0  0  0  0  0
  -25.2490  -13.8200   20.5710 C   0  0  0  0  0  0
  -24.1789  -13.0431   20.9196 C   0  0  0  0  0  0
  -24.6400  -11.6915   20.8729 C   0  0  0  0  0  0
  -23.9078  -10.4290   21.0397 C   0  0  0  0  0  0
  -24.3625   -9.4206   21.9178 C   0  0  0  0  0  0
  -23.6293   -8.2246   22.0755 C   0  0  0  0  0  0
  -22.4275   -8.0283   21.3546 C   0  0  0  0  0  0
  -21.9912   -9.0257   20.4648 C   0  0  0  0  0  0
  -22.7247  -10.2130   20.3052 C   0  0  0  0  0  0
  -21.6854   -6.0733   22.5279 C   0  0  0  0  0  0
  -21.4017   -6.5638   23.8211 C   0  0  0  0  0  0
  -21.3659   -5.6791   24.9174 C   0  0  0  0  0  0
  -21.6046   -4.3054   24.7225 C   0  0  0  0  0  0
  -21.8819   -3.8145   23.4346 C   0  0  0  0  0  0
  -21.9192   -4.6961   22.3402 C   0  0  0  0  0  0
  -22.7814  -13.5212   21.1863 C   0  0  0  0  0  0
  -22.1662   -4.2148   21.0979 F   0  0  0  0  0  0
  -21.5625   -3.4538   25.7736 F   0  0  0  0  0  0
  -29.9471  -13.7191   20.4159 N   0  0  0  0  0  0
  -26.2915  -12.9421   20.3260 N   0  0  0  0  0  0
  -25.9334  -11.6554   20.5718 N   0  0  0  0  0  0
  -22.0468  -12.8205   22.0425 N   0  0  0  0  0  0
  -25.4192  -15.1930   20.4190 N   0  0  0  0  0  0
  -31.6291  -15.1449   20.0370 O   0  0  0  0  0  0
  -21.6642   -6.8878   21.4240 O   0  0  0  0  0  0
  -22.3500  -14.5519   20.6711 O   0  0  0  0  0  0
  -24.6483  -31.8377   23.1816 C   0  0  0  0  0  0
  -25.9227  -32.4661   23.8233 C   0  0  1  0  0  0
  -27.2280  -27.0831   20.1592 C   0  0  0  0  0  0
  -25.5951  -33.8469   24.2148 N   0  0  0  0  0  0
  -23.4558  -30.4527   21.5277 C   0  0  2  0  0  0
  -24.9086  -28.8662   20.1086 C   0  0  0  0  0  0
  -22.7596  -29.4510   22.4835 C   0  0  0  0  0  0
  -18.0310  -28.1401   22.8476 C   0  0  0  0  0  0
  -24.1492  -36.7246   23.2646 C   0  0  0  0  0  0
  -26.0142  -30.6938   21.3883 C   0  0  0  0  0  0
  -26.0859  -29.2988   20.7314 C   0  0  0  0  0  0
  -27.2428  -28.4241   20.7374 C   0  0  0  0  0  0
  -26.0248  -26.7628   19.4934 C   0  0  0  0  0  0
  -24.8941  -27.6138   19.4729 C   0  0  0  0  0  0
  -23.6862  -29.7743   20.1497 C   0  0  0  0  0  0
  -25.4127  -36.3013   24.0311 C   0  0  1  0  0  0
  -20.5925  -28.3732   23.1223 C   0  0  2  0  0  0
  -20.6792  -26.9429   22.5404 C   0  0  0  0  0  0
  -19.5763  -26.6381   21.5216 C   0  0  0  0  0  0
  -18.1947  -26.7937   22.1629 C   0  0  0  0  0  0
  -19.1568  -28.8886   23.2839 C   0  0  0  0  0  0
  -18.9483  -30.1480   23.8868 C   0  0  0  0  0  0
  -17.6479  -30.6594   24.0559 C   0  0  0  0  0  0
  -25.9079  -34.9389   23.5044 C   0  0  0  0  0  0
  -16.5370  -29.9086   23.6338 C   0  0  0  0  0  0
  -16.7294  -28.6506   23.0357 C   0  0  0  0  0  0
  -26.4532  -31.6555   25.0702 C   0  0  0  0  0  0
  -25.3702  -31.3761   26.1388 C   0  0  0  0  0  0
  -27.0413  -30.2945   24.6325 C   0  0  0  0  0  0
  -27.6044  -32.4343   25.7495 C   0  0  0  0  0  0
  -27.5568  -37.1786   24.8472 C   0  0  0  0  0  0
  -21.4282  -29.3043   22.3586 N   0  0  0  0  0  0
  -26.4289  -37.3728   23.9398 N   0  0  0  0  0  0
  -24.7261  -31.0180   22.0874 N   0  0  0  0  0  0
  -23.4211  -28.8073   23.3018 O   0  0  0  0  0  0
  -28.2800  -26.0810   20.2492 O   0  0  0  0  0  0
  -26.5677  -34.8899   22.4631 O   0  0  0  0  0  0
  -23.5589  -32.1278   23.7002 O   0  0  0  0  0  0
  -29.0121  -20.3700   21.0892 C   0  0  0  0  0  0
  -29.6494  -20.9341   19.1289 C   0  0  0  0  0  0
  -29.1734  -21.5941   20.2519 C   0  0  0  0  0  0
  -29.3916  -19.1272   20.4928 C   0  0  0  0  0  0
  -31.4098  -23.8548   21.4666 C   0  0  0  0  0  0
  -29.3219  -17.6322   20.9522 C   0  0  0  0  0  0
  -29.5947  -16.2099   20.9912 C   0  0  0  0  0  0
  -30.5303  -23.7676   20.4553 C   0  0  0  0  0  0
  -28.1107  -24.5257   19.9863 C   0  0  0  0  0  0
  -29.1063  -23.2606   20.5810 C   0  0  1  0  0  0
  -29.8043  -19.5325   19.2504 O   0  0  0  0  0  0
  -31.4843  -12.8330   19.1922 H   0  0  0  0  0  0
  -30.4891  -11.6834   20.0277 H   0  0  0  0  0  0
  -29.8677  -11.7711   17.5938 H   0  0  0  0  0  0
  -29.6083  -13.4936   17.7025 H   0  0  0  0  0  0
  -27.9660  -11.2838   18.9688 H   0  0  0  0  0  0
  -27.4047  -12.4702   17.8183 H   0  0  0  0  0  0
  -27.6100  -14.2574   19.4444 H   0  0  0  0  0  0
  -28.7897  -12.2223   21.3872 H   0  0  0  0  0  0
  -28.3408  -13.8302   21.8285 H   0  0  0  0  0  0
  -25.2771   -9.5679   22.4751 H   0  0  0  0  0  0
  -23.9997   -7.4639   22.7480 H   0  0  0  0  0  0
  -21.0839   -8.8779   19.8959 H   0  0  0  0  0  0
  -22.3707  -10.9666   19.6159 H   0  0  0  0  0  0
  -21.2016   -7.6148   23.9714 H   0  0  0  0  0  0
  -21.1481   -6.0523   25.9076 H   0  0  0  0  0  0
  -22.0597   -2.7607   23.2851 H   0  0  0  0  0  0
  -22.4093  -11.9866   22.4810 H   0  0  0  0  0  0
  -21.1089  -13.1228   22.2641 H   0  0  0  0  0  0
  -24.6560  -15.8498   20.5400 H   0  0  0  0  0  0
  -26.2777  -15.6349   20.1147 H   0  0  0  0  0  0
  -26.7294  -32.5251   23.0959 H   0  0  0  0  0  0
  -25.0056  -33.9569   25.0267 H   0  0  0  0  0  0
  -22.7613  -31.2800   21.3670 H   0  0  0  0  0  0
  -23.3747  -35.9586   23.3317 H   0  0  0  0  0  0
  -24.3567  -36.8873   22.2059 H   0  0  0  0  0  0
  -23.7264  -37.6450   23.6685 H   0  0  0  0  0  0
  -26.1754  -31.4440   20.6129 H   0  0  0  0  0  0
  -26.8820  -30.7473   22.0340 H   0  0  0  0  0  0
  -28.1375  -28.7505   21.2489 H   0  0  0  0  0  0
  -25.9290  -25.8041   19.0052 H   0  0  0  0  0  0
  -23.9967  -27.2773   18.9721 H   0  0  0  0  0  0
  -23.8265  -30.5458   19.3918 H   0  0  0  0  0  0
  -22.8000  -29.2184   19.8389 H   0  0  0  0  0  0
  -25.1323  -36.1834   25.0804 H   0  0  0  0  0  0
  -21.0017  -28.3327   24.1344 H   0  0  0  0  0  0
  -20.5687  -26.2346   23.3628 H   0  0  0  0  0  0
  -21.6656  -26.7427   22.1201 H   0  0  0  0  0  0
  -19.6923  -25.6284   21.1264 H   0  0  0  0  0  0
  -19.6696  -27.3175   20.6732 H   0  0  0  0  0  0
  -17.4212  -26.6676   21.4036 H   0  0  0  0  0  0
  -18.0347  -26.0088   22.9036 H   0  0  0  0  0  0
  -19.7958  -30.7306   24.2222 H   0  0  0  0  0  0
  -17.5030  -31.6270   24.5168 H   0  0  0  0  0  0
  -15.5368  -30.2979   23.7676 H   0  0  0  0  0  0
  -15.8695  -28.0814   22.7087 H   0  0  0  0  0  0
  -24.5866  -30.7134   25.7698 H   0  0  0  0  0  0
  -24.8912  -32.2953   26.4772 H   0  0  0  0  0  0
  -25.7964  -30.8945   27.0196 H   0  0  0  0  0  0
  -26.3045  -29.6650   24.1321 H   0  0  0  0  0  0
  -27.3997  -29.7269   25.4923 H   0  0  0  0  0  0
  -27.8964  -30.4174   23.9674 H   0  0  0  0  0  0
  -27.2614  -33.3659   26.2009 H   0  0  0  0  0  0
  -28.3884  -32.6883   25.0348 H   0  0  0  0  0  0
  -28.0681  -31.8517   26.5465 H   0  0  0  0  0  0
  -28.2601  -38.0065   24.7476 H   0  0  0  0  0  0
  -28.1048  -36.2592   24.6357 H   0  0  0  0  0  0
  -27.2277  -37.1501   25.8874 H   0  0  0  0  0  0
  -20.9508  -29.8743   21.6743 H   0  0  0  0  0  0
  -26.0153  -38.2801   24.1373 H   0  0  0  0  0  0
  -28.6573  -20.4047   22.1100 H   0  0  0  0  0  0
  -29.9979  -21.3106   18.1765 H   0  0  0  0  0  0
  -32.4119  -24.2246   21.3004 H   0  0  0  0  0  0
  -31.1477  -23.5586   22.4725 H   0  0  0  0  0  0
  -28.5526  -17.7264   21.7069 H   0  0  0  0  0  0
  -28.9567  -15.7994   21.7553 H   0  0  0  0  0  0
  -30.8365  -24.0702   19.4635 H   0  0  0  0  0  0
  -27.0948  -24.2683   20.2857 H   0  0  0  0  0  0
  -28.1146  -24.4307   18.9004 H   0  0  0  0  0  0
  -28.8939  -23.2630   21.6508 H   0  0  0  0  0  0
  1 25  1  0  0  0
  1 30  2  0  0  0
  1 77  1  0  0  0
  2  3  1  0  0  0
  2 25  1  0  0  0
  2 82  1  0  0  0
  2 83  1  0  0  0
  3  4  1  0  0  0
  3 84  1  0  0  0
  3 85  1  0  0  0
  4  5  1  0  0  0
  4 86  1  0  0  0
  4 87  1  0  0  0
  5  6  1  0  0  0
  5 26  1  0  0  0
  5 88  1  0  0  0
  6 25  1  0  0  0
  6 89  1  0  0  0
  6 90  1  0  0  0
  7  8  2  0  0  0
  7 26  1  0  0  0
  7 29  1  0  0  0
  8  9  1  0  0  0
  8 22  1  0  0  0
  9 10  1  0  0  0
  9 27  2  0  0  0
 10 11  2  0  0  0
 10 15  1  0  0  0
 11 12  1  0  0  0
 11 91  1  0  0  0
 12 13  2  0  0  0
 12 92  1  0  0  0
 13 14  1  0  0  0
 13 31  1  0  0  0
 14 15  2  0  0  0
 14 93  1  0  0  0
 15 94  1  0  0  0
 16 17  2  0  0  0
 16 21  1  0  0  0
 16 31  1  0  0  0
 17 18  1  0  0  0
 17 95  1  0  0  0
 18 19  2  0  0  0
 18 96  1  0  0  0
 19 20  1  0  0  0
 19 24  1  0  0  0
 20 21  2  0  0  0
 20 97  1  0  0  0
 21 23  1  0  0  0
 22 28  1  0  0  0
 22 32  2  0  0  0
 26 27  1  0  0  0
 28 98  1  0  0  0
 28 99  1  0  0  0
 29100  1  0  0  0
 29101  1  0  0  0
 33 34  1  0  0  0
 33 66  1  0  0  0
 33 70  2  0  0  0
 34 36  1  0  0  0
 34 59  1  0  0  0
 34102  1  0  0  0
 35 44  2  0  0  0
 35 45  1  0  0  0
 35 68  1  0  0  0
 36 56  1  0  0  0
 36103  1  0  0  0
 37 39  1  0  0  0
 37 47  1  0  0  0
 37 66  1  0  0  0
 37104  1  0  0  0
 38 43  2  0  0  0
 38 46  1  0  0  0
 38 47  1  0  0  0
 39 64  1  0  0  0
 39 67  2  0  0  0
 40 52  1  0  0  0
 40 53  2  0  0  0
 40 58  1  0  0  0
 41105  1  0  0  0
 41106  1  0  0  0
 41107  1  0  0  0
 41 48  1  0  0  0
 42 43  1  0  0  0
 42 66  1  0  0  0
 42108  1  0  0  0
 42109  1  0  0  0
 43 44  1  0  0  0
 44110  1  0  0  0
 45 46  2  0  0  0
 45111  1  0  0  0
 46112  1  0  0  0
 47113  1  0  0  0
 47114  1  0  0  0
 48 56  1  0  0  0
 48 65  1  0  0  0
 48115  1  0  0  0
 49 50  1  0  0  0
 49 53  1  0  0  0
 49 64  1  0  0  0
 49116  1  0  0  0
 50 51  1  0  0  0
 50117  1  0  0  0
 50118  1  0  0  0
 51 52  1  0  0  0
 51119  1  0  0  0
 51120  1  0  0  0
 52121  1  0  0  0
 52122  1  0  0  0
 53 54  1  0  0  0
 54 55  2  0  0  0
 54123  1  0  0  0
 55 57  1  0  0  0
 55124  1  0  0  0
 56 69  2  0  0  0
 57 58  2  0  0  0
 57125  1  0  0  0
 58126  1  0  0  0
 59 60  1  0  0  0
 59 61  1  0  0  0
 59 62  1  0  0  0
 60127  1  0  0  0
 60128  1  0  0  0
 60129  1  0  0  0
 61130  1  0  0  0
 61131  1  0  0  0
 61132  1  0  0  0
 62133  1  0  0  0
 62134  1  0  0  0
 62135  1  0  0  0
 63 65  1  0  0  0
 63136  1  0  0  0
 63137  1  0  0  0
 63138  1  0  0  0
 64139  1  0  0  0
 65140  1  0  0  0
 68 79  1  0  0  0
 71 73  1  0  0  0
 71 74  2  0  0  0
 71141  1  0  0  0
 72 73  2  0  0  0
 72 81  1  0  0  0
 72142  1  0  0  0
 73 80  1  0  0  0
 74 76  1  0  0  0
 74 81  1  0  0  0
 75 78  2  0  0  0
 75143  1  0  0  0
 75144  1  0  0  0
 76 77  2  0  0  0
 76145  1  0  0  0
 77146  1  0  0  0
 78 80  1  0  0  0
 78147  1  0  0  0
 79148  1  0  0  0
 79149  1  0  0  0
 79 80  1  0  0  0
 80150  1  0  0  0
M  ISO  4   1 100  68 101  77 100  79 101
M  END
> <chiral flag>
0

> <version>
0

> <s_m_source_file>
/data/baiqing/PycharmProjects/Reinvent-master-3.2/result/LINK_invent/BTK/process_docking_weight1_custom_product_contain_oxygen_bond_distance_aromatic_linkinvent_7_9_3/rearranged_h_0122.sdf

> <i_m_source_file_index>
84

> <r_mmod_Potential_Energy-OPLS-2005>
787.420043945312

> <r_mmod_Stretch_Energy-OPLS-2005>
311.052398681641

> <r_mmod_Bend_Energy-OPLS-2005>
431.993225097656

> <r_mmod_Torsional_Energy-OPLS-2005>
197.470199584961

> <r_mmod_Improper_Torsional_Energy-OPLS-2005>
4.23644685745239

> <r_mmod_Van_der_Waal_Energy-OPLS-2005>
114.341682434082

> <r_mmod_Electrostatic_Energy-OPLS-2005>
-311.454559326172

> <r_mmod_Solvation_Energy-OPLS-2005>
-204.79460144043

> <b_mmod_Minimization_Converged-OPLS-2005>
0

> <r_mmod_RMS_Derivative-OPLS-2005>
0.5419762134552

$$$$
84
                    3D
 Structure written by MMmdl.
155163  0  0  1  0            999 V2000
  -30.6353  -14.6786   20.4799 C   0  0  0  0  0  0
  -30.4336  -12.4084   19.4769 C   0  0  0  0  0  0
  -29.5130  -12.4966   18.2385 C   0  0  0  0  0  0
  -28.0357  -12.3299   18.6455 C   0  0  0  0  0  0
  -27.6473  -13.2199   19.8557 C   0  0  2  0  0  0
  -28.6889  -13.1106   20.9905 C   0  0  0  0  0  0
  -25.2540  -13.8183   20.5687 C   0  0  0  0  0  0
  -24.1812  -13.0447   20.9198 C   0  0  0  0  0  0
  -24.6382  -11.6919   20.8742 C   0  0  0  0  0  0
  -23.9056  -10.4301   21.0413 C   0  0  0  0  0  0
  -24.3613   -9.4217   21.9189 C   0  0  0  0  0  0
  -23.6294   -8.2250   22.0755 C   0  0  0  0  0  0
  -22.4275   -8.0288   21.3549 C   0  0  0  0  0  0
  -21.9906   -9.0263   20.4653 C   0  0  0  0  0  0
  -22.7228  -10.2143   20.3063 C   0  0  0  0  0  0
  -21.6852   -6.0745   22.5288 C   0  0  0  0  0  0
  -21.4013   -6.5645   23.8223 C   0  0  0  0  0  0
  -21.3659   -5.6794   24.9183 C   0  0  0  0  0  0
  -21.6043   -4.3060   24.7227 C   0  0  0  0  0  0
  -21.8815   -3.8154   23.4349 C   0  0  0  0  0  0
  -21.9190   -4.6973   22.3407 C   0  0  0  0  0  0
  -22.7836  -13.5248   21.1858 C   0  0  0  0  0  0
  -22.1660   -4.2157   21.0984 F   0  0  0  0  0  0
  -21.5621   -3.4544   25.7742 F   0  0  0  0  0  0
  -30.0019  -13.4569   20.4279 N   0  0  0  0  0  0
  -26.2957  -12.9364   20.3287 N   0  0  0  0  0  0
  -25.9307  -11.6518   20.5745 N   0  0  0  0  0  0
  -22.0465  -12.8253   22.0412 N   0  0  0  0  0  0
  -25.4261  -15.1902   20.4107 N   0  0  0  0  0  0
  -31.8171  -14.7585   20.1320 O   0  0  0  0  0  0
  -21.6638   -6.8886   21.4251 O   0  0  0  0  0  0
  -22.3529  -14.5555   20.6698 O   0  0  0  0  0  0
  -24.6274  -31.8589   23.2023 C   0  0  0  0  0  0
  -25.9116  -32.4776   23.8359 C   0  0  1  0  0  0
  -27.2209  -27.3026   20.1230 C   0  0  0  0  0  0
  -25.5928  -33.8575   24.2281 N   0  0  0  0  0  0
  -23.4218  -30.4844   21.5434 C   0  0  2  0  0  0
  -24.8692  -28.9409   20.1095 C   0  0  0  0  0  0
  -22.7481  -29.4626   22.4909 C   0  0  0  0  0  0
  -18.0291  -28.1389   22.8477 C   0  0  0  0  0  0
  -24.1487  -36.7296   23.2638 C   0  0  0  0  0  0
  -25.9655  -30.7862   21.3761 C   0  0  0  0  0  0
  -26.0396  -29.4133   20.7164 C   0  0  0  0  0  0
  -27.2191  -28.6073   20.7114 C   0  0  0  0  0  0
  -26.0252  -26.8911   19.4878 C   0  0  0  0  0  0
  -24.8656  -27.6866   19.4837 C   0  0  0  0  0  0
  -23.6379  -29.8221   20.1582 C   0  0  0  0  0  0
  -25.4111  -36.3082   24.0328 C   0  0  1  0  0  0
  -20.5891  -28.3700   23.1263 C   0  0  2  0  0  0
  -20.6778  -26.9420   22.5402 C   0  0  0  0  0  0
  -19.5757  -26.6385   21.5201 C   0  0  0  0  0  0
  -18.1938  -26.7931   22.1614 C   0  0  0  0  0  0
  -19.1543  -28.8859   23.2870 C   0  0  0  0  0  0
  -18.9466  -30.1455   23.8899 C   0  0  0  0  0  0
  -17.6467  -30.6589   24.0561 C   0  0  0  0  0  0
  -25.9049  -34.9448   23.5105 C   0  0  0  0  0  0
  -16.5358  -29.9089   23.6328 C   0  0  0  0  0  0
  -16.7278  -28.6505   23.0350 C   0  0  0  0  0  0
  -26.4505  -31.6591   25.0732 C   0  0  0  0  0  0
  -25.3737  -31.3729   26.1460 C   0  0  0  0  0  0
  -27.0348  -30.3010   24.6198 C   0  0  0  0  0  0
  -27.6063  -32.4333   25.7496 C   0  0  0  0  0  0
  -27.5578  -37.1799   24.8464 C   0  0  0  0  0  0
  -21.4190  -29.3054   22.3651 N   0  0  0  0  0  0
  -26.4292  -37.3772   23.9407 N   0  0  0  0  0  0
  -24.6903  -31.0599   22.0973 N   0  0  0  0  0  0
  -23.4201  -28.8158   23.2989 O   0  0  0  0  0  0
  -28.3258  -26.4305   20.1855 O   0  0  0  0  0  0
  -26.5613  -34.8917   22.4671 O   0  0  0  0  0  0
  -23.5432  -32.1387   23.7346 O   0  0  0  0  0  0
  -29.5489  -19.7607   20.5789 C   0  0  0  0  0  0
  -32.1909  -20.5101   21.0340 C   0  0  0  0  0  0
  -30.5340  -18.7059   20.7675 C   0  0  0  0  0  0
  -29.8705  -21.1789   20.6147 C   0  0  0  0  0  0
  -31.8681  -19.1397   20.9886 C   0  0  0  0  0  0
  -31.2239  -21.5112   20.8556 C   0  0  0  0  0  0
  -30.3780  -17.1735   20.7340 C   0  0  0  0  0  0
  -29.8177  -15.9056   20.7666 C   0  0  0  0  0  0
  -32.9997  -18.1427   21.2082 C   0  0  0  0  0  0
  -28.7966  -22.3241   20.3910 C   0  0  0  0  0  0
  -29.1868  -23.8888   20.4340 C   0  0  0  0  0  0
  -28.0620  -24.9671   20.0907 C   0  0  0  0  0  0
  -31.6374  -22.7972   20.9232 F   0  0  0  0  0  0
  -31.4773  -12.5160   19.1780 H   0  0  0  0  0  0
  -30.3628  -11.4239   19.9434 H   0  0  0  0  0  0
  -29.7883  -11.7317   17.5116 H   0  0  0  0  0  0
  -29.6536  -13.4577   17.7420 H   0  0  0  0  0  0
  -27.8832  -11.2801   18.8989 H   0  0  0  0  0  0
  -27.3818  -12.5333   17.7968 H   0  0  0  0  0  0
  -27.6565  -14.2464   19.4909 H   0  0  0  0  0  0
  -28.7093  -12.0971   21.3947 H   0  0  0  0  0  0
  -28.4279  -13.7538   21.8313 H   0  0  0  0  0  0
  -25.2757   -9.5698   22.4761 H   0  0  0  0  0  0
  -24.0008   -7.4639   22.7471 H   0  0  0  0  0  0
  -21.0834   -8.8781   19.8961 H   0  0  0  0  0  0
  -22.3684  -10.9683   19.6175 H   0  0  0  0  0  0
  -21.2010   -7.6154   23.9730 H   0  0  0  0  0  0
  -21.1478   -6.0525   25.9084 H   0  0  0  0  0  0
  -22.0590   -2.7618   23.2846 H   0  0  0  0  0  0
  -22.4068  -11.9924   22.4827 H   0  0  0  0  0  0
  -21.1085  -13.1298   22.2603 H   0  0  0  0  0  0
  -24.6621  -15.8474   20.5263 H   0  0  0  0  0  0
  -26.2774  -15.6287   20.0818 H   0  0  0  0  0  0
  -26.7181  -32.5444   23.1103 H   0  0  0  0  0  0
  -25.0075  -33.9717   25.0427 H   0  0  0  0  0  0
  -22.7168  -31.3062   21.4004 H   0  0  0  0  0  0
  -23.3743  -35.9634   23.3304 H   0  0  0  0  0  0
  -24.3579  -36.8912   22.2052 H   0  0  0  0  0  0
  -23.7248  -37.6502   23.6660 H   0  0  0  0  0  0
  -26.1013  -31.5506   20.6096 H   0  0  0  0  0  0
  -26.8441  -30.8328   22.0081 H   0  0  0  0  0  0
  -28.1146  -28.9649   21.1995 H   0  0  0  0  0  0
  -25.9505  -25.9339   18.9955 H   0  0  0  0  0  0
  -23.9701  -27.3200   19.0004 H   0  0  0  0  0  0
  -23.7598  -30.5994   19.4029 H   0  0  0  0  0  0
  -22.7578  -29.2529   19.8539 H   0  0  0  0  0  0
  -25.1290  -36.1931   25.0819 H   0  0  0  0  0  0
  -20.9996  -28.3288   24.1378 H   0  0  0  0  0  0
  -20.5663  -26.2320   23.3607 H   0  0  0  0  0  0
  -21.6649  -26.7436   22.1207 H   0  0  0  0  0  0
  -19.6922  -25.6290   21.1243 H   0  0  0  0  0  0
  -19.6700  -27.3181   20.6719 H   0  0  0  0  0  0
  -17.4204  -26.6668   21.4020 H   0  0  0  0  0  0
  -18.0352  -26.0077   22.9017 H   0  0  0  0  0  0
  -19.7943  -30.7263   24.2282 H   0  0  0  0  0  0
  -17.5023  -31.6269   24.5163 H   0  0  0  0  0  0
  -15.5359  -30.2994   23.7646 H   0  0  0  0  0  0
  -15.8677  -28.0819   22.7075 H   0  0  0  0  0  0
  -24.5902  -30.7094   25.7782 H   0  0  0  0  0  0
  -24.8948  -32.2896   26.4907 H   0  0  0  0  0  0
  -25.8063  -30.8883   27.0222 H   0  0  0  0  0  0
  -26.2922  -29.6755   24.1228 H   0  0  0  0  0  0
  -27.4039  -29.7275   25.4713 H   0  0  0  0  0  0
  -27.8801  -30.4287   23.9430 H   0  0  0  0  0  0
  -27.2668  -33.3620   26.2095 H   0  0  0  0  0  0
  -28.3858  -32.6919   25.0315 H   0  0  0  0  0  0
  -28.0759  -31.8454   26.5392 H   0  0  0  0  0  0
  -28.2599  -38.0089   24.7497 H   0  0  0  0  0  0
  -28.1067  -36.2621   24.6304 H   0  0  0  0  0  0
  -27.2298  -37.1469   25.8867 H   0  0  0  0  0  0
  -20.9367  -29.8788   21.6867 H   0  0  0  0  0  0
  -26.0172  -38.2846   24.1408 H   0  0  0  0  0  0
  -28.5222  -19.4788   20.3919 H   0  0  0  0  0  0
  -33.2112  -20.8173   21.2120 H   0  0  0  0  0  0
  -29.3927  -17.4549   21.0675 H   0  0  0  0  0  0
  -28.7667  -15.7479   20.9860 H   0  0  0  0  0  0
  -33.0265  -17.3884   20.4213 H   0  0  0  0  0  0
  -32.8777  -17.6379   22.1675 H   0  0  0  0  0  0
  -33.9732  -18.6340   21.2149 H   0  0  0  0  0  0
  -28.0108  -22.1596   21.1287 H   0  0  0  0  0  0
  -28.3298  -22.1233   19.4266 H   0  0  0  0  0  0
  -30.0041  -24.0599   19.7336 H   0  0  0  0  0  0
  -29.5799  -24.1177   21.4250 H   0  0  0  0  0  0
  -27.2061  -24.7431   20.7300 H   0  0  0  0  0  0
  -27.7496  -24.7536   19.0682 H   0  0  0  0  0  0
  1 25  1  0  0  0
  1 30  2  0  0  0
  1 78  1  0  0  0
  2  3  1  0  0  0
  2 25  1  0  0  0
  2 84  1  0  0  0
  2 85  1  0  0  0
  3  4  1  0  0  0
  3 86  1  0  0  0
  3 87  1  0  0  0
  4  5  1  0  0  0
  4 88  1  0  0  0
  4 89  1  0  0  0
  5  6  1  0  0  0
  5 26  1  0  0  0
  5 90  1  0  0  0
  6 25  1  0  0  0
  6 91  1  0  0  0
  6 92  1  0  0  0
  7  8  2  0  0  0
  7 26  1  0  0  0
  7 29  1  0  0  0
  8  9  1  0  0  0
  8 22  1  0  0  0
  9 10  1  0  0  0
  9 27  2  0  0  0
 10 11  2  0  0  0
 10 15  1  0  0  0
 11 12  1  0  0  0
 11 93  1  0  0  0
 12 13  2  0  0  0
 12 94  1  0  0  0
 13 14  1  0  0  0
 13 31  1  0  0  0
 14 15  2  0  0  0
 14 95  1  0  0  0
 15 96  1  0  0  0
 16 17  2  0  0  0
 16 21  1  0  0  0
 16 31  1  0  0  0
 17 18  1  0  0  0
 17 97  1  0  0  0
 18 19  2  0  0  0
 18 98  1  0  0  0
 19 20  1  0  0  0
 19 24  1  0  0  0
 20 21  2  0  0  0
 20 99  1  0  0  0
 21 23  1  0  0  0
 22 28  1  0  0  0
 22 32  2  0  0  0
 26 27  1  0  0  0
 28100  1  0  0  0
 28101  1  0  0  0
 29102  1  0  0  0
 29103  1  0  0  0
 33 34  1  0  0  0
 33 66  1  0  0  0
 33 70  2  0  0  0
 34 36  1  0  0  0
 34 59  1  0  0  0
 34104  1  0  0  0
 35 44  2  0  0  0
 35 45  1  0  0  0
 35 68  1  0  0  0
 36 56  1  0  0  0
 36105  1  0  0  0
 37 39  1  0  0  0
 37 47  1  0  0  0
 37 66  1  0  0  0
 37106  1  0  0  0
 38 43  2  0  0  0
 38 46  1  0  0  0
 38 47  1  0  0  0
 39 64  1  0  0  0
 39 67  2  0  0  0
 40 52  1  0  0  0
 40 53  2  0  0  0
 40 58  1  0  0  0
 41107  1  0  0  0
 41108  1  0  0  0
 41109  1  0  0  0
 41 48  1  0  0  0
 42 43  1  0  0  0
 42 66  1  0  0  0
 42110  1  0  0  0
 42111  1  0  0  0
 43 44  1  0  0  0
 44112  1  0  0  0
 45 46  2  0  0  0
 45113  1  0  0  0
 46114  1  0  0  0
 47115  1  0  0  0
 47116  1  0  0  0
 48 56  1  0  0  0
 48 65  1  0  0  0
 48117  1  0  0  0
 49 50  1  0  0  0
 49 53  1  0  0  0
 49 64  1  0  0  0
 49118  1  0  0  0
 50 51  1  0  0  0
 50119  1  0  0  0
 50120  1  0  0  0
 51 52  1  0  0  0
 51121  1  0  0  0
 51122  1  0  0  0
 52123  1  0  0  0
 52124  1  0  0  0
 53 54  1  0  0  0
 54 55  2  0  0  0
 54125  1  0  0  0
 55 57  1  0  0  0
 55126  1  0  0  0
 56 69  2  0  0  0
 57 58  2  0  0  0
 57127  1  0  0  0
 58128  1  0  0  0
 59 60  1  0  0  0
 59 61  1  0  0  0
 59 62  1  0  0  0
 60129  1  0  0  0
 60130  1  0  0  0
 60131  1  0  0  0
 61132  1  0  0  0
 61133  1  0  0  0
 61134  1  0  0  0
 62135  1  0  0  0
 62136  1  0  0  0
 62137  1  0  0  0
 63 65  1  0  0  0
 63138  1  0  0  0
 63139  1  0  0  0
 63140  1  0  0  0
 64141  1  0  0  0
 65142  1  0  0  0
 68 82  1  0  0  0
 71 73  2  0  0  0
 71 74  1  0  0  0
 71143  1  0  0  0
 72 75  2  0  0  0
 72 76  1  0  0  0
 72144  1  0  0  0
 73 75  1  0  0  0
 73 77  1  0  0  0
 74 76  2  0  0  0
 74 80  1  0  0  0
 75 79  1  0  0  0
 76 83  1  0  0  0
 77 78  2  0  0  0
 77145  1  0  0  0
 78146  1  0  0  0
 79147  1  0  0  0
 79148  1  0  0  0
 79149  1  0  0  0
 80 81  1  0  0  0
 80150  1  0  0  0
 80151  1  0  0  0
 81 82  1  0  0  0
 81152  1  0  0  0
 81153  1  0  0  0
 82154  1  0  0  0
 82155  1  0  0  0
M  ISO  4   1 100  68 101  78 100  82 101
M  END
> <chiral flag>
0

> <version>
0

> <s_m_source_file>
/data/baiqing/PycharmProjects/Reinvent-master-3.2/result/LINK_invent/BTK/process_docking_weight1_custom_product_contain_oxygen_bond_distance_aromatic_linkinvent_7_9_3/rearranged_h_0122.sdf

> <i_m_source_file_index>
85

> <r_mmod_Potential_Energy-OPLS-2005>
377.110473632812

> <r_mmod_Stretch_Energy-OPLS-2005>
102.087112426758

> <r_mmod_Bend_Energy-OPLS-2005>
388.350708007812

> <r_mmod_Torsional_Energy-OPLS-2005>
180.638763427734

> <r_mmod_Improper_Torsional_Energy-OPLS-2005>
4.45265960693359

> <r_mmod_Van_der_Waal_Energy-OPLS-2005>
164.056777954102

> <r_mmod_Electrostatic_Energy-OPLS-2005>
-327.975006103516

> <r_mmod_Solvation_Energy-OPLS-2005>
-194.518417358398

> <b_mmod_Minimization_Converged-OPLS-2005>
0

> <r_mmod_RMS_Derivative-OPLS-2005>
1.09470772743225

$$$$
85
                    3D
 Structure written by MMmdl.
160168  0  0  1  0            999 V2000
  -30.6728  -14.5202   20.3597 C   0  0  0  0  0  0
  -30.4198  -12.2789   19.4314 C   0  0  0  0  0  0
  -29.4821  -12.4351   18.2112 C   0  0  0  0  0  0
  -28.0010  -12.2922   18.6258 C   0  0  0  0  0  0
  -27.6271  -13.1510   19.8617 C   0  0  2  0  0  0
  -28.7051  -13.0624   20.9731 C   0  0  0  0  0  0
  -25.2519  -13.7933   20.5789 C   0  0  0  0  0  0
  -24.1742  -13.0303   20.9261 C   0  0  0  0  0  0
  -24.6247  -11.6744   20.8839 C   0  0  0  0  0  0
  -23.8924  -10.4195   21.0476 C   0  0  0  0  0  0
  -24.3505   -9.4112   21.9233 C   0  0  0  0  0  0
  -23.6208   -8.2139   22.0761 C   0  0  0  0  0  0
  -22.4200   -8.0201   21.3540 C   0  0  0  0  0  0
  -21.9825   -9.0169   20.4648 C   0  0  0  0  0  0
  -22.7127  -10.2058   20.3088 C   0  0  0  0  0  0
  -21.6812   -6.0695   22.5277 C   0  0  0  0  0  0
  -21.3998   -6.5612   23.8209 C   0  0  0  0  0  0
  -21.3658   -5.6775   24.9180 C   0  0  0  0  0  0
  -21.6045   -4.3040   24.7237 C   0  0  0  0  0  0
  -21.8822   -3.8130   23.4363 C   0  0  0  0  0  0
  -21.9181   -4.6936   22.3417 C   0  0  0  0  0  0
  -22.7789  -13.5165   21.1886 C   0  0  0  0  0  0
  -22.1640   -4.2125   21.1001 F   0  0  0  0  0  0
  -21.5631   -3.4527   25.7751 F   0  0  0  0  0  0
  -30.0494  -13.3088   20.4071 N   0  0  0  0  0  0
  -26.2860  -12.8936   20.3479 N   0  0  0  0  0  0
  -25.9153  -11.6175   20.5924 N   0  0  0  0  0  0
  -22.0381  -12.8226   22.0452 N   0  0  0  0  0  0
  -25.4257  -15.1663   20.4141 N   0  0  0  0  0  0
  -31.8924  -14.6588   20.2773 O   0  0  0  0  0  0
  -21.6567   -6.8809   21.4230 O   0  0  0  0  0  0
  -22.3526  -14.5483   20.6704 O   0  0  0  0  0  0
  -24.6107  -31.8706   23.2116 C   0  0  0  0  0  0
  -25.9014  -32.4839   23.8406 C   0  0  1  0  0  0
  -27.2461  -27.4683   20.0983 C   0  0  0  0  0  0
  -25.5880  -33.8637   24.2348 N   0  0  0  0  0  0
  -23.3992  -30.4900   21.5514 C   0  0  2  0  0  0
  -24.8496  -28.9540   20.1209 C   0  0  0  0  0  0
  -22.7394  -29.4652   22.5006 C   0  0  0  0  0  0
  -18.0268  -28.1366   22.8503 C   0  0  0  0  0  0
  -24.1480  -36.7323   23.2637 C   0  0  0  0  0  0
  -25.9229  -30.8435   21.3622 C   0  0  0  0  0  0
  -26.0038  -29.4759   20.7200 C   0  0  0  0  0  0
  -27.2051  -28.7371   20.7134 C   0  0  0  0  0  0
  -26.0816  -26.9499   19.4977 C   0  0  0  0  0  0
  -24.8799  -27.6859   19.5105 C   0  0  0  0  0  0
  -23.6090  -29.8170   20.1673 C   0  0  0  0  0  0
  -25.4100  -36.3130   24.0345 C   0  0  1  0  0  0
  -20.5864  -28.3656   23.1329 C   0  0  2  0  0  0
  -20.6762  -26.9395   22.5422 C   0  0  0  0  0  0
  -19.5745  -26.6380   21.5218 C   0  0  0  0  0  0
  -18.1918  -26.7910   22.1620 C   0  0  0  0  0  0
  -19.1521  -28.8828   23.2918 C   0  0  0  0  0  0
  -18.9443  -30.1440   23.8928 C   0  0  0  0  0  0
  -17.6443  -30.6581   24.0560 C   0  0  0  0  0  0
  -25.9026  -34.9488   23.5143 C   0  0  0  0  0  0
  -16.5335  -29.9088   23.6312 C   0  0  0  0  0  0
  -16.7257  -28.6498   23.0347 C   0  0  0  0  0  0
  -26.4457  -31.6604   25.0722 C   0  0  0  0  0  0
  -25.3744  -31.3688   26.1482 C   0  0  0  0  0  0
  -27.0280  -30.3054   24.6072 C   0  0  0  0  0  0
  -27.6042  -32.4302   25.7483 C   0  0  0  0  0  0
  -27.5577  -37.1817   24.8471 C   0  0  0  0  0  0
  -21.4127  -29.3020   22.3737 N   0  0  0  0  0  0
  -26.4297  -37.3801   23.9404 N   0  0  0  0  0  0
  -24.6623  -31.0825   22.1007 N   0  0  0  0  0  0
  -23.4170  -28.8214   23.3057 O   0  0  0  0  0  0
  -28.4136  -26.7503   20.0445 O   0  0  0  0  0  0
  -26.5586  -34.8930   22.4702 O   0  0  0  0  0  0
  -23.5304  -32.1435   23.7523 O   0  0  0  0  0  0
  -26.4371  -19.4847   19.1354 C   0  0  0  0  0  0
  -26.6236  -18.3296   18.3709 C   0  0  0  0  0  0
  -28.5298  -19.0393   20.2979 C   0  0  0  0  0  0
  -27.4179  -19.8836   20.0553 C   0  0  0  0  0  0
  -28.6958  -17.8110   19.5995 C   0  0  0  0  0  0
  -27.7686  -17.5277   18.5394 C   0  0  0  0  0  0
  -27.2265  -21.2169   20.6365 C   0  0  0  0  0  0
  -29.7428  -16.8705   20.1181 C   0  0  0  0  0  0
  -28.1447  -22.2019   20.6660 C   0  0  0  0  0  0
  -29.7691  -15.5479   19.8578 C   0  0  0  0  0  0
  -28.7826  -24.5148   20.8939 C   0  0  0  0  0  0
  -27.8591  -23.5575   21.1304 C   0  0  0  0  0  0
  -27.9466  -16.4436   17.4868 C   0  0  0  0  0  0
  -26.5309  -23.8524   21.8174 C   0  0  0  0  0  0
  -28.7077  -25.9989   21.2200 C   0  0  0  0  0  0
  -31.4635  -12.3627   19.1213 H   0  0  0  0  0  0
  -30.3063  -11.2903   19.8816 H   0  0  0  0  0  0
  -29.7226  -11.6811   17.4608 H   0  0  0  0  0  0
  -29.6385  -13.4035   17.7346 H   0  0  0  0  0  0
  -27.8182  -11.2395   18.8400 H   0  0  0  0  0  0
  -27.3483  -12.5422   17.7873 H   0  0  0  0  0  0
  -27.5274  -14.1558   19.5024 H   0  0  0  0  0  0
  -28.6834  -12.0748   21.4338 H   0  0  0  0  0  0
  -28.4873  -13.7767   21.7671 H   0  0  0  0  0  0
  -25.2632   -9.5588   22.4843 H   0  0  0  0  0  0
  -23.9923   -7.4508   22.7462 H   0  0  0  0  0  0
  -21.0756   -8.8651   19.8940 H   0  0  0  0  0  0
  -22.3555  -10.9595   19.6211 H   0  0  0  0  0  0
  -21.1977   -7.6120   23.9694 H   0  0  0  0  0  0
  -21.1481   -6.0514   25.9075 H   0  0  0  0  0  0
  -22.0611   -2.7597   23.2863 H   0  0  0  0  0  0
  -22.3924  -11.9879   22.4905 H   0  0  0  0  0  0
  -21.1003  -13.1302   22.2635 H   0  0  0  0  0  0
  -24.6510  -15.8135   20.5129 H   0  0  0  0  0  0
  -26.2845  -15.6181   20.1221 H   0  0  0  0  0  0
  -26.7095  -32.5571   23.1187 H   0  0  0  0  0  0
  -25.0052  -33.9800   25.0509 H   0  0  0  0  0  0
  -22.6875  -31.3066   21.4107 H   0  0  0  0  0  0
  -23.3742  -35.9657   23.3333 H   0  0  0  0  0  0
  -24.3575  -36.8897   22.2046 H   0  0  0  0  0  0
  -23.7243  -37.6541   23.6627 H   0  0  0  0  0  0
  -26.0269  -31.6057   20.5887 H   0  0  0  0  0  0
  -26.8135  -30.9046   21.9749 H   0  0  0  0  0  0
  -28.0987  -29.1404   21.1697 H   0  0  0  0  0  0
  -26.1085  -25.9800   19.0220 H   0  0  0  0  0  0
  -23.9932  -27.2774   19.0448 H   0  0  0  0  0  0
  -23.7131  -30.5901   19.4048 H   0  0  0  0  0  0
  -22.7354  -29.2321   19.8741 H   0  0  0  0  0  0
  -25.1279  -36.1994   25.0841 H   0  0  0  0  0  0
  -20.9940  -28.3206   24.1456 H   0  0  0  0  0  0
  -20.5662  -26.2261   23.3605 H   0  0  0  0  0  0
  -21.6636  -26.7434   22.1226 H   0  0  0  0  0  0
  -19.6911  -25.6304   21.1232 H   0  0  0  0  0  0
  -19.6690  -27.3195   20.6763 H   0  0  0  0  0  0
  -17.4188  -26.6668   21.4010 H   0  0  0  0  0  0
  -18.0328  -26.0048   22.9021 H   0  0  0  0  0  0
  -19.7928  -30.7251   24.2295 H   0  0  0  0  0  0
  -17.5006  -31.6260   24.5161 H   0  0  0  0  0  0
  -15.5342  -30.2991   23.7636 H   0  0  0  0  0  0
  -15.8657  -28.0823   22.7050 H   0  0  0  0  0  0
  -24.5907  -30.7046   25.7827 H   0  0  0  0  0  0
  -24.8952  -32.2841   26.4961 H   0  0  0  0  0  0
  -25.8108  -30.8834   27.0223 H   0  0  0  0  0  0
  -26.2818  -29.6829   24.1127 H   0  0  0  0  0  0
  -27.4073  -29.7260   25.4504 H   0  0  0  0  0  0
  -27.8640  -30.4394   23.9202 H   0  0  0  0  0  0
  -27.2665  -33.3573   26.2119 H   0  0  0  0  0  0
  -28.3816  -32.6902   25.0291 H   0  0  0  0  0  0
  -28.0766  -31.8404   26.5346 H   0  0  0  0  0  0
  -28.2617  -38.0091   24.7485 H   0  0  0  0  0  0
  -28.1040  -36.2620   24.6328 H   0  0  0  0  0  0
  -27.2297  -37.1514   25.8877 H   0  0  0  0  0  0
  -20.9274  -29.8736   21.6967 H   0  0  0  0  0  0
  -26.0192  -38.2881   24.1393 H   0  0  0  0  0  0
  -25.5666  -20.1033   18.9589 H   0  0  0  0  0  0
  -25.8905  -18.0895   17.6130 H   0  0  0  0  0  0
  -29.2440  -19.3274   21.0560 H   0  0  0  0  0  0
  -26.2353  -21.3963   21.0286 H   0  0  0  0  0  0
  -30.4967  -17.2868   20.7720 H   0  0  0  0  0  0
  -29.1342  -21.9766   20.2879 H   0  0  0  0  0  0
  -29.0731  -15.1873   19.1591 H   0  0  0  0  0  0
  -29.6960  -24.2382   20.3838 H   0  0  0  0  0  0
  -27.5248  -16.7653   16.5348 H   0  0  0  0  0  0
  -27.4285  -15.5252   17.7580 H   0  0  0  0  0  0
  -28.9978  -16.2464   17.2858 H   0  0  0  0  0  0
  -25.7163  -23.7597   21.0971 H   0  0  0  0  0  0
  -26.4558  -24.8442   22.2558 H   0  0  0  0  0  0
  -26.3490  -23.1358   22.6191 H   0  0  0  0  0  0
  -29.6894  -26.3055   21.5783 H   0  0  0  0  0  0
  -28.0217  -26.2150   22.0396 H   0  0  0  0  0  0
  1 25  1  0  0  0
  1 30  2  0  0  0
  1 80  1  0  0  0
  2  3  1  0  0  0
  2 25  1  0  0  0
  2 86  1  0  0  0
  2 87  1  0  0  0
  3  4  1  0  0  0
  3 88  1  0  0  0
  3 89  1  0  0  0
  4  5  1  0  0  0
  4 90  1  0  0  0
  4 91  1  0  0  0
  5  6  1  0  0  0
  5 26  1  0  0  0
  5 92  1  0  0  0
  6 25  1  0  0  0
  6 93  1  0  0  0
  6 94  1  0  0  0
  7  8  2  0  0  0
  7 26  1  0  0  0
  7 29  1  0  0  0
  8  9  1  0  0  0
  8 22  1  0  0  0
  9 10  1  0  0  0
  9 27  2  0  0  0
 10 11  2  0  0  0
 10 15  1  0  0  0
 11 12  1  0  0  0
 11 95  1  0  0  0
 12 13  2  0  0  0
 12 96  1  0  0  0
 13 14  1  0  0  0
 13 31  1  0  0  0
 14 15  2  0  0  0
 14 97  1  0  0  0
 15 98  1  0  0  0
 16 17  2  0  0  0
 16 21  1  0  0  0
 16 31  1  0  0  0
 17 18  1  0  0  0
 17 99  1  0  0  0
 18 19  2  0  0  0
 18100  1  0  0  0
 19 20  1  0  0  0
 19 24  1  0  0  0
 20 21  2  0  0  0
 20101  1  0  0  0
 21 23  1  0  0  0
 22 28  1  0  0  0
 22 32  2  0  0  0
 26 27  1  0  0  0
 28102  1  0  0  0
 28103  1  0  0  0
 29104  1  0  0  0
 29105  1  0  0  0
 33 34  1  0  0  0
 33 66  1  0  0  0
 33 70  2  0  0  0
 34 36  1  0  0  0
 34 59  1  0  0  0
 34106  1  0  0  0
 35 44  2  0  0  0
 35 45  1  0  0  0
 35 68  1  0  0  0
 36 56  1  0  0  0
 36107  1  0  0  0
 37 39  1  0  0  0
 37 47  1  0  0  0
 37 66  1  0  0  0
 37108  1  0  0  0
 38 43  2  0  0  0
 38 46  1  0  0  0
 38 47  1  0  0  0
 39 64  1  0  0  0
 39 67  2  0  0  0
 40 52  1  0  0  0
 40 53  2  0  0  0
 40 58  1  0  0  0
 41109  1  0  0  0
 41110  1  0  0  0
 41111  1  0  0  0
 41 48  1  0  0  0
 42 43  1  0  0  0
 42 66  1  0  0  0
 42112  1  0  0  0
 42113  1  0  0  0
 43 44  1  0  0  0
 44114  1  0  0  0
 45 46  2  0  0  0
 45115  1  0  0  0
 46116  1  0  0  0
 47117  1  0  0  0
 47118  1  0  0  0
 48 56  1  0  0  0
 48 65  1  0  0  0
 48119  1  0  0  0
 49 50  1  0  0  0
 49 53  1  0  0  0
 49 64  1  0  0  0
 49120  1  0  0  0
 50 51  1  0  0  0
 50121  1  0  0  0
 50122  1  0  0  0
 51 52  1  0  0  0
 51123  1  0  0  0
 51124  1  0  0  0
 52125  1  0  0  0
 52126  1  0  0  0
 53 54  1  0  0  0
 54 55  2  0  0  0
 54127  1  0  0  0
 55 57  1  0  0  0
 55128  1  0  0  0
 56 69  2  0  0  0
 57 58  2  0  0  0
 57129  1  0  0  0
 58130  1  0  0  0
 59 60  1  0  0  0
 59 61  1  0  0  0
 59 62  1  0  0  0
 60131  1  0  0  0
 60132  1  0  0  0
 60133  1  0  0  0
 61134  1  0  0  0
 61135  1  0  0  0
 61136  1  0  0  0
 62137  1  0  0  0
 62138  1  0  0  0
 62139  1  0  0  0
 63 65  1  0  0  0
 63140  1  0  0  0
 63141  1  0  0  0
 63142  1  0  0  0
 64143  1  0  0  0
 65144  1  0  0  0
 68 85  1  0  0  0
 71 72  2  0  0  0
 71 74  1  0  0  0
 71145  1  0  0  0
 72 76  1  0  0  0
 72146  1  0  0  0
 73 74  2  0  0  0
 73 75  1  0  0  0
 73147  1  0  0  0
 74 77  1  0  0  0
 75 76  2  0  0  0
 75 78  1  0  0  0
 76 83  1  0  0  0
 77 79  2  0  0  0
 77148  1  0  0  0
 78 80  2  0  0  0
 78149  1  0  0  0
 79 82  1  0  0  0
 79150  1  0  0  0
 80151  1  0  0  0
 81 82  2  0  0  0
 81 85  1  0  0  0
 81152  1  0  0  0
 82 84  1  0  0  0
 83153  1  0  0  0
 83154  1  0  0  0
 83155  1  0  0  0
 84156  1  0  0  0
 84157  1  0  0  0
 84158  1  0  0  0
 85159  1  0  0  0
 85160  1  0  0  0
M  ISO  4   1 100  68 101  80 100  85 101
M  END
> <chiral flag>
0

> <version>
0

> <s_m_source_file>
/data/baiqing/PycharmProjects/Reinvent-master-3.2/result/LINK_invent/BTK/process_docking_weight1_custom_product_contain_oxygen_bond_distance_aromatic_linkinvent_7_9_3/rearranged_h_0122.sdf

> <i_m_source_file_index>
86

> <r_mmod_Potential_Energy-OPLS-2005>
117.897537231445

> <r_mmod_Stretch_Energy-OPLS-2005>
39.3100090026855

> <r_mmod_Bend_Energy-OPLS-2005>
117.974723815918

> <r_mmod_Torsional_Energy-OPLS-2005>
278.641937255859

> <r_mmod_Improper_Torsional_Energy-OPLS-2005>
18.3033390045166

> <r_mmod_Van_der_Waal_Energy-OPLS-2005>
164.862670898438

> <r_mmod_Electrostatic_Energy-OPLS-2005>
-349.854370117188

> <r_mmod_Solvation_Energy-OPLS-2005>
-182.467620849609

> <b_mmod_Minimization_Converged-OPLS-2005>
0

> <r_mmod_RMS_Derivative-OPLS-2005>
3.82079815864563

$$$$
86
                    3D
 Structure written by MMmdl.
153161  0  0  1  0            999 V2000
  -30.7158  -14.5760   20.4434 C   0  0  0  0  0  0
  -30.4328  -12.3430   19.4688 C   0  0  0  0  0  0
  -29.5136  -12.4460   18.2338 C   0  0  0  0  0  0
  -28.0394  -12.3075   18.6519 C   0  0  0  0  0  0
  -27.6591  -13.2144   19.8541 C   0  0  2  0  0  0
  -28.7060  -13.1354   20.9921 C   0  0  0  0  0  0
  -25.2633  -13.8212   20.5648 C   0  0  0  0  0  0
  -24.1869  -13.0482   20.9159 C   0  0  0  0  0  0
  -24.6409  -11.6951   20.8726 C   0  0  0  0  0  0
  -23.9050  -10.4322   21.0335 C   0  0  0  0  0  0
  -24.3615   -9.4267   21.9135 C   0  0  0  0  0  0
  -23.6331   -8.2277   22.0723 C   0  0  0  0  0  0
  -22.4331   -8.0282   21.3507 C   0  0  0  0  0  0
  -21.9925   -9.0252   20.4639 C   0  0  0  0  0  0
  -22.7199  -10.2151   20.3031 C   0  0  0  0  0  0
  -21.6901   -6.0716   22.5248 C   0  0  0  0  0  0
  -21.4013   -6.5624   23.8170 C   0  0  0  0  0  0
  -21.3682   -5.6790   24.9137 C   0  0  0  0  0  0
  -21.6059   -4.3057   24.7196 C   0  0  0  0  0  0
  -21.8840   -3.8135   23.4323 C   0  0  0  0  0  0
  -21.9209   -4.6935   22.3366 C   0  0  0  0  0  0
  -22.7895  -13.5254   21.1855 C   0  0  0  0  0  0
  -22.1670   -4.2096   21.0944 F   0  0  0  0  0  0
  -21.5658   -3.4555   25.7712 F   0  0  0  0  0  0
  -30.0288  -13.3977   20.4129 N   0  0  0  0  0  0
  -26.3035  -12.9367   20.3276 N   0  0  0  0  0  0
  -25.9348  -11.6545   20.5790 N   0  0  0  0  0  0
  -22.0525  -12.8240   22.0411 N   0  0  0  0  0  0
  -25.4482  -15.1917   20.4068 N   0  0  0  0  0  0
  -31.9030  -14.6309   20.1335 O   0  0  0  0  0  0
  -21.6701   -6.8874   21.4212 O   0  0  0  0  0  0
  -22.3533  -14.5546   20.6712 O   0  0  0  0  0  0
  -24.6125  -31.8730   23.2098 C   0  0  0  0  0  0
  -25.9043  -32.4834   23.8411 C   0  0  1  0  0  0
  -27.2154  -27.4142   20.0859 C   0  0  0  0  0  0
  -25.5922  -33.8630   24.2331 N   0  0  0  0  0  0
  -23.3980  -30.4958   21.5545 C   0  0  2  0  0  0
  -24.8371  -28.9589   20.1209 C   0  0  0  0  0  0
  -22.7419  -29.4667   22.5016 C   0  0  0  0  0  0
  -18.0292  -28.1349   22.8452 C   0  0  0  0  0  0
  -24.1503  -36.7299   23.2631 C   0  0  0  0  0  0
  -25.9331  -30.8220   21.3759 C   0  0  0  0  0  0
  -26.0019  -29.4593   20.7144 C   0  0  0  0  0  0
  -27.1910  -28.6942   20.6928 C   0  0  0  0  0  0
  -26.0155  -26.9186   19.5204 C   0  0  0  0  0  0
  -24.8398  -27.6891   19.5233 C   0  0  0  0  0  0
  -23.6011  -29.8274   20.1691 C   0  0  0  0  0  0
  -25.4129  -36.3102   24.0328 C   0  0  1  0  0  0
  -20.5866  -28.3641   23.1310 C   0  0  2  0  0  0
  -20.6777  -26.9372   22.5436 C   0  0  0  0  0  0
  -19.5794  -26.6326   21.5204 C   0  0  0  0  0  0
  -18.1943  -26.7908   22.1550 C   0  0  0  0  0  0
  -19.1528  -28.8820   23.2865 C   0  0  0  0  0  0
  -18.9453  -30.1431   23.8851 C   0  0  0  0  0  0
  -17.6456  -30.6552   24.0535 C   0  0  0  0  0  0
  -25.9054  -34.9463   23.5115 C   0  0  0  0  0  0
  -16.5349  -29.9035   23.6318 C   0  0  0  0  0  0
  -16.7282  -28.6456   23.0332 C   0  0  0  0  0  0
  -26.4426  -31.6633   25.0769 C   0  0  0  0  0  0
  -25.3663  -31.3793   26.1517 C   0  0  0  0  0  0
  -27.0281  -30.3064   24.6212 C   0  0  0  0  0  0
  -27.6025  -32.4339   25.7515 C   0  0  0  0  0  0
  -27.5619  -37.1807   24.8438 C   0  0  0  0  0  0
  -21.4152  -29.3010   22.3733 N   0  0  0  0  0  0
  -26.4316  -37.3795   23.9394 N   0  0  0  0  0  0
  -24.6652  -31.0809   22.1015 N   0  0  0  0  0  0
  -23.4218  -28.8213   23.3042 O   0  0  0  0  0  0
  -28.4108  -26.7151   20.0564 O   0  0  0  0  0  0
  -26.5581  -34.8914   22.4657 O   0  0  0  0  0  0
  -23.5313  -32.1494   23.7481 O   0  0  0  0  0  0
  -29.3360  -18.1110   20.4326 C   0  0  0  0  0  0
  -30.6297  -19.6910   19.0978 C   0  0  0  0  0  0
  -31.3012  -17.3502   19.2252 C   0  0  0  0  0  0
  -29.5256  -19.4377   19.9425 C   0  0  0  0  0  0
  -30.2277  -17.0444   20.1061 C   0  0  0  0  0  0
  -31.5012  -18.6530   18.7357 C   0  0  0  0  0  0
  -28.6089  -20.5611   20.3031 C   0  0  0  0  0  0
  -28.8858  -21.8897   20.2078 C   0  0  0  0  0  0
  -27.8641  -22.9342   20.4764 C   0  0  0  0  0  0
  -28.2880  -24.3756   20.8276 C   0  0  0  0  0  0
  -28.4536  -25.3375   19.6291 C   0  0  0  0  0  0
  -29.9908  -15.7123   20.6429 N   0  0  0  0  0  0
  -26.6551  -22.6866   20.4440 O   0  0  0  0  0  0
  -32.5428  -18.9100   17.9067 F   0  0  0  0  0  0
  -31.4756  -12.4323   19.1588 H   0  0  0  0  0  0
  -30.3496  -11.3668   19.9511 H   0  0  0  0  0  0
  -29.7800  -11.6701   17.5174 H   0  0  0  0  0  0
  -29.6683  -13.3996   17.7274 H   0  0  0  0  0  0
  -27.8886  -11.2650   18.9324 H   0  0  0  0  0  0
  -27.3843  -12.4928   17.7996 H   0  0  0  0  0  0
  -27.6676  -14.2333   19.4750 H   0  0  0  0  0  0
  -28.7041  -12.1623   21.4821 H   0  0  0  0  0  0
  -28.4705  -13.8665   21.7673 H   0  0  0  0  0  0
  -25.2742   -9.5804   22.4713 H   0  0  0  0  0  0
  -24.0079   -7.4693   22.7432 H   0  0  0  0  0  0
  -21.0854   -8.8753   19.8961 H   0  0  0  0  0  0
  -22.3602  -10.9699   19.6162 H   0  0  0  0  0  0
  -21.2000   -7.6138   23.9646 H   0  0  0  0  0  0
  -21.1483   -6.0516   25.9040 H   0  0  0  0  0  0
  -22.0611   -2.7573   23.2816 H   0  0  0  0  0  0
  -22.4143  -11.9956   22.4866 H   0  0  0  0  0  0
  -21.1090  -13.1184   22.2498 H   0  0  0  0  0  0
  -24.7198  -15.8783   20.5681 H   0  0  0  0  0  0
  -26.3235  -15.6091   20.1194 H   0  0  0  0  0  0
  -26.7126  -32.5501   23.1178 H   0  0  0  0  0  0
  -25.0231  -33.9848   25.0572 H   0  0  0  0  0  0
  -22.6837  -31.3096   21.4175 H   0  0  0  0  0  0
  -23.3802  -35.9606   23.3257 H   0  0  0  0  0  0
  -24.3630  -36.8936   22.2056 H   0  0  0  0  0  0
  -23.7203  -37.6462   23.6681 H   0  0  0  0  0  0
  -26.0817  -31.5986   20.6238 H   0  0  0  0  0  0
  -26.8054  -30.8495   22.0159 H   0  0  0  0  0  0
  -28.0877  -29.0778   21.1554 H   0  0  0  0  0  0
  -25.9404  -25.9393   19.0739 H   0  0  0  0  0  0
  -23.9413  -27.2957   19.0659 H   0  0  0  0  0  0
  -23.7028  -30.5970   19.4050 H   0  0  0  0  0  0
  -22.7231  -29.2447   19.8798 H   0  0  0  0  0  0
  -25.1320  -36.1964   25.0831 H   0  0  0  0  0  0
  -20.9961  -28.3213   24.1434 H   0  0  0  0  0  0
  -20.5627  -26.2278   23.3642 H   0  0  0  0  0  0
  -21.6669  -26.7402   22.1274 H   0  0  0  0  0  0
  -19.6977  -25.6216   21.1282 H   0  0  0  0  0  0
  -19.6781  -27.3086   20.6695 H   0  0  0  0  0  0
  -17.4277  -26.6710   21.3876 H   0  0  0  0  0  0
  -18.0278  -26.0016   22.8887 H   0  0  0  0  0  0
  -19.7943  -30.7236   24.2183 H   0  0  0  0  0  0
  -17.5022  -31.6234   24.5138 H   0  0  0  0  0  0
  -15.5336  -30.2904   23.7677 H   0  0  0  0  0  0
  -15.8690  -28.0747   22.7059 H   0  0  0  0  0  0
  -24.5836  -30.7131   25.7865 H   0  0  0  0  0  0
  -24.8855  -32.2981   26.4898 H   0  0  0  0  0  0
  -25.7985  -30.9018   27.0324 H   0  0  0  0  0  0
  -26.2898  -29.6835   24.1167 H   0  0  0  0  0  0
  -27.3914  -29.7283   25.4711 H   0  0  0  0  0  0
  -27.8779  -30.4350   23.9508 H   0  0  0  0  0  0
  -27.2688  -33.3643   26.2119 H   0  0  0  0  0  0
  -28.3833  -32.6883   25.0335 H   0  0  0  0  0  0
  -28.0725  -31.8458   26.5402 H   0  0  0  0  0  0
  -28.2593  -38.0144   24.7551 H   0  0  0  0  0  0
  -28.1161  -36.2686   24.6179 H   0  0  0  0  0  0
  -27.2381  -37.1339   25.8849 H   0  0  0  0  0  0
  -20.9335  -29.8738   21.6934 H   0  0  0  0  0  0
  -26.0200  -38.2884   24.1382 H   0  0  0  0  0  0
  -28.4965  -17.9077   21.0822 H   0  0  0  0  0  0
  -30.8215  -20.6749   18.6937 H   0  0  0  0  0  0
  -32.0098  -16.6108   18.8943 H   0  0  0  0  0  0
  -27.6196  -20.2650   20.6353 H   0  0  0  0  0  0
  -29.8648  -22.2452   19.9152 H   0  0  0  0  0  0
  -29.2018  -24.3613   21.4164 H   0  0  0  0  0  0
  -27.5176  -24.7792   21.4814 H   0  0  0  0  0  0
  -27.7759  -25.1042   18.8102 H   0  0  0  0  0  0
  -29.4425  -25.1721   19.2008 H   0  0  0  0  0  0
  -29.1065  -15.5745   21.1060 H   0  0  0  0  0  0
  1 25  1  0  0  0
  1 30  2  0  0  0
  1 82  1  0  0  0
  2  3  1  0  0  0
  2 25  1  0  0  0
  2 85  1  0  0  0
  2 86  1  0  0  0
  3  4  1  0  0  0
  3 87  1  0  0  0
  3 88  1  0  0  0
  4  5  1  0  0  0
  4 89  1  0  0  0
  4 90  1  0  0  0
  5  6  1  0  0  0
  5 26  1  0  0  0
  5 91  1  0  0  0
  6 25  1  0  0  0
  6 92  1  0  0  0
  6 93  1  0  0  0
  7  8  2  0  0  0
  7 26  1  0  0  0
  7 29  1  0  0  0
  8  9  1  0  0  0
  8 22  1  0  0  0
  9 10  1  0  0  0
  9 27  2  0  0  0
 10 11  2  0  0  0
 10 15  1  0  0  0
 11 12  1  0  0  0
 11 94  1  0  0  0
 12 13  2  0  0  0
 12 95  1  0  0  0
 13 14  1  0  0  0
 13 31  1  0  0  0
 14 15  2  0  0  0
 14 96  1  0  0  0
 15 97  1  0  0  0
 16 17  2  0  0  0
 16 21  1  0  0  0
 16 31  1  0  0  0
 17 18  1  0  0  0
 17 98  1  0  0  0
 18 19  2  0  0  0
 18 99  1  0  0  0
 19 20  1  0  0  0
 19 24  1  0  0  0
 20 21  2  0  0  0
 20100  1  0  0  0
 21 23  1  0  0  0
 22 28  1  0  0  0
 22 32  2  0  0  0
 26 27  1  0  0  0
 28101  1  0  0  0
 28102  1  0  0  0
 29103  1  0  0  0
 29104  1  0  0  0
 33 34  1  0  0  0
 33 66  1  0  0  0
 33 70  2  0  0  0
 34 36  1  0  0  0
 34 59  1  0  0  0
 34105  1  0  0  0
 35 44  2  0  0  0
 35 45  1  0  0  0
 35 68  1  0  0  0
 36 56  1  0  0  0
 36106  1  0  0  0
 37 39  1  0  0  0
 37 47  1  0  0  0
 37 66  1  0  0  0
 37107  1  0  0  0
 38 43  2  0  0  0
 38 46  1  0  0  0
 38 47  1  0  0  0
 39 64  1  0  0  0
 39 67  2  0  0  0
 40 52  1  0  0  0
 40 53  2  0  0  0
 40 58  1  0  0  0
 41108  1  0  0  0
 41109  1  0  0  0
 41110  1  0  0  0
 41 48  1  0  0  0
 42 43  1  0  0  0
 42 66  1  0  0  0
 42111  1  0  0  0
 42112  1  0  0  0
 43 44  1  0  0  0
 44113  1  0  0  0
 45 46  2  0  0  0
 45114  1  0  0  0
 46115  1  0  0  0
 47116  1  0  0  0
 47117  1  0  0  0
 48 56  1  0  0  0
 48 65  1  0  0  0
 48118  1  0  0  0
 49 50  1  0  0  0
 49 53  1  0  0  0
 49 64  1  0  0  0
 49119  1  0  0  0
 50 51  1  0  0  0
 50120  1  0  0  0
 50121  1  0  0  0
 51 52  1  0  0  0
 51122  1  0  0  0
 51123  1  0  0  0
 52124  1  0  0  0
 52125  1  0  0  0
 53 54  1  0  0  0
 54 55  2  0  0  0
 54126  1  0  0  0
 55 57  1  0  0  0
 55127  1  0  0  0
 56 69  2  0  0  0
 57 58  2  0  0  0
 57128  1  0  0  0
 58129  1  0  0  0
 59 60  1  0  0  0
 59 61  1  0  0  0
 59 62  1  0  0  0
 60130  1  0  0  0
 60131  1  0  0  0
 60132  1  0  0  0
 61133  1  0  0  0
 61134  1  0  0  0
 61135  1  0  0  0
 62136  1  0  0  0
 62137  1  0  0  0
 62138  1  0  0  0
 63 65  1  0  0  0
 63139  1  0  0  0
 63140  1  0  0  0
 63141  1  0  0  0
 64142  1  0  0  0
 65143  1  0  0  0
 68 81  1  0  0  0
 71 74  2  0  0  0
 71 75  1  0  0  0
 71144  1  0  0  0
 72 74  1  0  0  0
 72 76  2  0  0  0
 72145  1  0  0  0
 73 75  2  0  0  0
 73 76  1  0  0  0
 73146  1  0  0  0
 74 77  1  0  0  0
 75 82  1  0  0  0
 76 84  1  0  0  0
 77 78  2  0  0  0
 77147  1  0  0  0
 78 79  1  0  0  0
 78148  1  0  0  0
 79 80  1  0  0  0
 79 83  2  0  0  0
 80 81  1  0  0  0
 80149  1  0  0  0
 80150  1  0  0  0
 81151  1  0  0  0
 81152  1  0  0  0
 82153  1  0  0  0
M  ISO  4   1 100  68 101  81 101  82 100
M  END
> <chiral flag>
0

> <version>
0

> <s_m_source_file>
/data/baiqing/PycharmProjects/Reinvent-master-3.2/result/LINK_invent/BTK/process_docking_weight1_custom_product_contain_oxygen_bond_distance_aromatic_linkinvent_7_9_3/rearranged_h_0122.sdf

> <i_m_source_file_index>
87

> <r_mmod_Potential_Energy-OPLS-2005>
-16.5394325256348

> <r_mmod_Stretch_Energy-OPLS-2005>
46.3178291320801

> <r_mmod_Bend_Energy-OPLS-2005>
109.821533203125

> <r_mmod_Torsional_Energy-OPLS-2005>
226.27717590332

> <r_mmod_Improper_Torsional_Energy-OPLS-2005>
4.39528703689575

> <r_mmod_Van_der_Waal_Energy-OPLS-2005>
158.35888671875

> <r_mmod_Electrostatic_Energy-OPLS-2005>
-373.139251708984

> <r_mmod_Solvation_Energy-OPLS-2005>
-221.278717041016

> <b_mmod_Minimization_Converged-OPLS-2005>
0

> <r_mmod_RMS_Derivative-OPLS-2005>
6.90943336486816

$$$$
87
                    3D
 Structure written by MMmdl.
161169  0  0  1  0            999 V2000
  -30.6795  -14.6382   20.5804 C   0  0  0  0  0  0
  -30.4360  -12.4159   19.4672 C   0  0  0  0  0  0
  -29.5124  -12.5422   18.2345 C   0  0  0  0  0  0
  -28.0323  -12.3742   18.6306 C   0  0  0  0  0  0
  -27.6548  -13.2226   19.8728 C   0  0  2  0  0  0
  -28.6954  -13.0466   21.0002 C   0  0  0  0  0  0
  -25.2440  -13.8045   20.5558 C   0  0  0  0  0  0
  -24.1776  -13.0338   20.9190 C   0  0  0  0  0  0
  -24.6404  -11.6839   20.8770 C   0  0  0  0  0  0
  -23.9083  -10.4237   21.0425 C   0  0  0  0  0  0
  -24.3629   -9.4151   21.9200 C   0  0  0  0  0  0
  -23.6287   -8.2199   22.0766 C   0  0  0  0  0  0
  -22.4266   -8.0262   21.3552 C   0  0  0  0  0  0
  -21.9918   -9.0241   20.4652 C   0  0  0  0  0  0
  -22.7264  -10.2105   20.3061 C   0  0  0  0  0  0
  -21.6841   -6.0729   22.5282 C   0  0  0  0  0  0
  -21.4010   -6.5634   23.8217 C   0  0  0  0  0  0
  -21.3657   -5.6790   24.9181 C   0  0  0  0  0  0
  -21.6040   -4.3053   24.7226 C   0  0  0  0  0  0
  -21.8818   -3.8143   23.4347 C   0  0  0  0  0  0
  -21.9194   -4.6960   22.3404 C   0  0  0  0  0  0
  -22.7808  -13.5159   21.1854 C   0  0  0  0  0  0
  -22.1663   -4.2148   21.0983 F   0  0  0  0  0  0
  -21.5623   -3.4535   25.7735 F   0  0  0  0  0  0
  -30.0208  -13.4261   20.4705 N   0  0  0  0  0  0
  -26.2977  -12.9326   20.3335 N   0  0  0  0  0  0
  -25.9350  -11.6470   20.5799 N   0  0  0  0  0  0
  -22.0458  -12.8180   22.0429 N   0  0  0  0  0  0
  -25.3881  -15.1692   20.3670 N   0  0  0  0  0  0
  -31.7622  -14.8157   20.0114 O   0  0  0  0  0  0
  -21.6618   -6.8870   21.4245 O   0  0  0  0  0  0
  -22.3497  -14.5483   20.6721 O   0  0  0  0  0  0
  -24.6250  -31.8602   23.2045 C   0  0  0  0  0  0
  -25.9099  -32.4784   23.8369 C   0  0  1  0  0  0
  -27.2360  -27.3344   20.1109 C   0  0  0  0  0  0
  -25.5918  -33.8586   24.2291 N   0  0  0  0  0  0
  -23.4195  -30.4839   21.5459 C   0  0  2  0  0  0
  -24.8678  -28.9407   20.1135 C   0  0  0  0  0  0
  -22.7477  -29.4621   22.4942 C   0  0  0  0  0  0
  -18.0284  -28.1388   22.8489 C   0  0  0  0  0  0
  -24.1484  -36.7299   23.2643 C   0  0  0  0  0  0
  -25.9600  -30.7955   21.3747 C   0  0  0  0  0  0
  -26.0362  -29.4244   20.7150 C   0  0  0  0  0  0
  -27.2222  -28.6337   20.7031 C   0  0  0  0  0  0
  -26.0404  -26.8998   19.4901 C   0  0  0  0  0  0
  -24.8707  -27.6821   19.4945 C   0  0  0  0  0  0
  -23.6349  -29.8191   20.1612 C   0  0  0  0  0  0
  -25.4110  -36.3088   24.0332 C   0  0  1  0  0  0
  -20.5886  -28.3684   23.1286 C   0  0  2  0  0  0
  -20.6768  -26.9409   22.5411 C   0  0  0  0  0  0
  -19.5743  -26.6381   21.5213 C   0  0  0  0  0  0
  -18.1923  -26.7932   22.1623 C   0  0  0  0  0  0
  -19.1539  -28.8853   23.2881 C   0  0  0  0  0  0
  -18.9464  -30.1458   23.8890 C   0  0  0  0  0  0
  -17.6463  -30.6590   24.0561 C   0  0  0  0  0  0
  -25.9045  -34.9455   23.5110 C   0  0  0  0  0  0
  -16.5354  -29.9088   23.6331 C   0  0  0  0  0  0
  -16.7272  -28.6507   23.0352 C   0  0  0  0  0  0
  -26.4492  -31.6599   25.0740 C   0  0  0  0  0  0
  -25.3732  -31.3727   26.1471 C   0  0  0  0  0  0
  -27.0353  -30.3028   24.6202 C   0  0  0  0  0  0
  -27.6044  -32.4344   25.7515 C   0  0  0  0  0  0
  -27.5578  -37.1806   24.8463 C   0  0  0  0  0  0
  -21.4192  -29.3040   22.3688 N   0  0  0  0  0  0
  -26.4287  -37.3780   23.9411 N   0  0  0  0  0  0
  -24.6868  -31.0627   22.0988 N   0  0  0  0  0  0
  -23.4205  -28.8153   23.3011 O   0  0  0  0  0  0
  -28.3685  -26.5048   20.1543 O   0  0  0  0  0  0
  -26.5617  -34.8919   22.4678 O   0  0  0  0  0  0
  -23.5412  -32.1391   23.7376 O   0  0  0  0  0  0
  -31.2755  -18.0280   20.8890 C   0  0  0  0  0  0
  -31.2955  -19.4416   20.6941 C   0  0  0  0  0  0
  -28.9102  -19.4761   20.5813 C   0  0  0  0  0  0
  -30.0690  -17.2820   20.9791 C   0  0  0  0  0  0
  -28.8700  -18.0613   20.8022 C   0  0  0  0  0  0
  -30.1150  -20.2149   20.5603 C   0  0  0  0  0  0
  -30.0752  -15.8066   21.4543 C   0  0  0  0  0  0
  -25.3865  -18.9168   20.8564 C   0  0  0  0  0  0
  -27.4871  -17.4160   20.8417 C   0  0  0  0  0  0
  -26.4376  -18.1663   21.6915 C   0  0  0  0  0  0
  -29.3611  -24.0533   20.3370 C   0  0  0  0  0  0
  -28.1732  -25.0479   19.9959 C   0  0  0  0  0  0
  -29.0494  -22.4895   20.2972 C   0  0  0  0  0  0
  -29.6224  -15.5869   22.6181 N   0  0  0  0  0  0
  -30.2151  -21.6160   20.4374 O   0  0  0  0  0  0
  -31.4782  -12.5297   19.1657 H   0  0  0  0  0  0
  -30.3680  -11.4128   19.8918 H   0  0  0  0  0  0
  -29.7830  -11.8029   17.4794 H   0  0  0  0  0  0
  -29.6571  -13.5189   17.7703 H   0  0  0  0  0  0
  -27.8594  -11.3181   18.8393 H   0  0  0  0  0  0
  -27.3868  -12.6286   17.7893 H   0  0  0  0  0  0
  -27.6822  -14.2678   19.5643 H   0  0  0  0  0  0
  -28.7148  -12.0073   21.3310 H   0  0  0  0  0  0
  -28.3880  -13.6066   21.8786 H   0  0  0  0  0  0
  -25.2776   -9.5614   22.4772 H   0  0  0  0  0  0
  -23.9981   -7.4585   22.7487 H   0  0  0  0  0  0
  -21.0846   -8.8775   19.8956 H   0  0  0  0  0  0
  -22.3745  -10.9652   19.6164 H   0  0  0  0  0  0
  -21.2000   -7.6140   23.9719 H   0  0  0  0  0  0
  -21.1485   -6.0521   25.9086 H   0  0  0  0  0  0
  -22.0604   -2.7607   23.2850 H   0  0  0  0  0  0
  -22.4079  -11.9837   22.4800 H   0  0  0  0  0  0
  -21.1087  -13.1226   22.2652 H   0  0  0  0  0  0
  -24.6107  -15.8109   20.4650 H   0  0  0  0  0  0
  -26.2156  -15.6001   19.9818 H   0  0  0  0  0  0
  -26.7175  -32.5458   23.1126 H   0  0  0  0  0  0
  -25.0059  -33.9738   25.0432 H   0  0  0  0  0  0
  -22.7122  -31.3035   21.4029 H   0  0  0  0  0  0
  -23.3745  -35.9632   23.3300 H   0  0  0  0  0  0
  -24.3571  -36.8928   22.2058 H   0  0  0  0  0  0
  -23.7238  -37.6499   23.6670 H   0  0  0  0  0  0
  -26.0925  -31.5613   20.6092 H   0  0  0  0  0  0
  -26.8390  -30.8416   22.0058 H   0  0  0  0  0  0
  -28.1197  -29.0030   21.1796 H   0  0  0  0  0  0
  -25.9789  -25.9402   19.0001 H   0  0  0  0  0  0
  -23.9747  -27.3047   19.0210 H   0  0  0  0  0  0
  -23.7558  -30.5958   19.4051 H   0  0  0  0  0  0
  -22.7553  -29.2485   19.8571 H   0  0  0  0  0  0
  -25.1289  -36.1942   25.0824 H   0  0  0  0  0  0
  -20.9976  -28.3251   24.1408 H   0  0  0  0  0  0
  -20.5661  -26.2296   23.3611 H   0  0  0  0  0  0
  -21.6637  -26.7429   22.1209 H   0  0  0  0  0  0
  -19.6899  -25.6291   21.1248 H   0  0  0  0  0  0
  -19.6683  -27.3189   20.6739 H   0  0  0  0  0  0
  -17.4198  -26.6693   21.4020 H   0  0  0  0  0  0
  -18.0311  -26.0069   22.9013 H   0  0  0  0  0  0
  -19.7938  -30.7279   24.2252 H   0  0  0  0  0  0
  -17.5017  -31.6272   24.5160 H   0  0  0  0  0  0
  -15.5353  -30.2988   23.7654 H   0  0  0  0  0  0
  -15.8673  -28.0824   22.7062 H   0  0  0  0  0  0
  -24.5891  -30.7100   25.7793 H   0  0  0  0  0  0
  -24.8946  -32.2895   26.4924 H   0  0  0  0  0  0
  -25.8059  -30.8877   27.0231 H   0  0  0  0  0  0
  -26.2943  -29.6772   24.1215 H   0  0  0  0  0  0
  -27.4044  -29.7289   25.4713 H   0  0  0  0  0  0
  -27.8807  -30.4321   23.9440 H   0  0  0  0  0  0
  -27.2632  -33.3617   26.2129 H   0  0  0  0  0  0
  -28.3832  -32.6961   25.0341 H   0  0  0  0  0  0
  -28.0746  -31.8464   26.5406 H   0  0  0  0  0  0
  -28.2592  -38.0107   24.7514 H   0  0  0  0  0  0
  -28.1081  -36.2640   24.6280 H   0  0  0  0  0  0
  -27.2301  -37.1445   25.8867 H   0  0  0  0  0  0
  -20.9366  -29.8788   21.6922 H   0  0  0  0  0  0
  -26.0170  -38.2855   24.1414 H   0  0  0  0  0  0
  -32.2182  -17.5181   21.0337 H   0  0  0  0  0  0
  -32.2498  -19.9497   20.6779 H   0  0  0  0  0  0
  -27.9835  -20.0116   20.4581 H   0  0  0  0  0  0
  -24.6590  -19.4098   21.5024 H   0  0  0  0  0  0
  -24.8370  -18.2322   20.2100 H   0  0  0  0  0  0
  -25.8291  -19.6813   20.2197 H   0  0  0  0  0  0
  -27.5472  -16.4028   21.2287 H   0  0  0  0  0  0
  -27.1419  -17.3114   19.8125 H   0  0  0  0  0  0
  -25.9015  -17.4335   22.2966 H   0  0  0  0  0  0
  -26.9161  -18.8316   22.4115 H   0  0  0  0  0  0
  -29.7433  -24.2983   21.3280 H   0  0  0  0  0  0
  -30.1796  -24.2606   19.6479 H   0  0  0  0  0  0
  -27.3182  -24.7500   20.6043 H   0  0  0  0  0  0
  -27.8956  -24.8596   18.9581 H   0  0  0  0  0  0
  -28.5590  -22.2466   19.3538 H   0  0  0  0  0  0
  -28.3366  -22.2575   21.0900 H   0  0  0  0  0  0
  -29.3025  -16.4502   23.0414 H   0  0  0  0  0  0
  1 25  1  0  0  0
  1 30  2  0  0  0
  1 77  1  0  0  0
  2  3  1  0  0  0
  2 25  1  0  0  0
  2 86  1  0  0  0
  2 87  1  0  0  0
  3  4  1  0  0  0
  3 88  1  0  0  0
  3 89  1  0  0  0
  4  5  1  0  0  0
  4 90  1  0  0  0
  4 91  1  0  0  0
  5  6  1  0  0  0
  5 26  1  0  0  0
  5 92  1  0  0  0
  6 25  1  0  0  0
  6 93  1  0  0  0
  6 94  1  0  0  0
  7  8  2  0  0  0
  7 26  1  0  0  0
  7 29  1  0  0  0
  8  9  1  0  0  0
  8 22  1  0  0  0
  9 10  1  0  0  0
  9 27  2  0  0  0
 10 11  2  0  0  0
 10 15  1  0  0  0
 11 12  1  0  0  0
 11 95  1  0  0  0
 12 13  2  0  0  0
 12 96  1  0  0  0
 13 14  1  0  0  0
 13 31  1  0  0  0
 14 15  2  0  0  0
 14 97  1  0  0  0
 15 98  1  0  0  0
 16 17  2  0  0  0
 16 21  1  0  0  0
 16 31  1  0  0  0
 17 18  1  0  0  0
 17 99  1  0  0  0
 18 19  2  0  0  0
 18100  1  0  0  0
 19 20  1  0  0  0
 19 24  1  0  0  0
 20 21  2  0  0  0
 20101  1  0  0  0
 21 23  1  0  0  0
 22 28  1  0  0  0
 22 32  2  0  0  0
 26 27  1  0  0  0
 28102  1  0  0  0
 28103  1  0  0  0
 29104  1  0  0  0
 29105  1  0  0  0
 33 34  1  0  0  0
 33 66  1  0  0  0
 33 70  2  0  0  0
 34 36  1  0  0  0
 34 59  1  0  0  0
 34106  1  0  0  0
 35 44  2  0  0  0
 35 45  1  0  0  0
 35 68  1  0  0  0
 36 56  1  0  0  0
 36107  1  0  0  0
 37 39  1  0  0  0
 37 47  1  0  0  0
 37 66  1  0  0  0
 37108  1  0  0  0
 38 43  2  0  0  0
 38 46  1  0  0  0
 38 47  1  0  0  0
 39 64  1  0  0  0
 39 67  2  0  0  0
 40 52  1  0  0  0
 40 53  2  0  0  0
 40 58  1  0  0  0
 41109  1  0  0  0
 41110  1  0  0  0
 41111  1  0  0  0
 41 48  1  0  0  0
 42 43  1  0  0  0
 42 66  1  0  0  0
 42112  1  0  0  0
 42113  1  0  0  0
 43 44  1  0  0  0
 44114  1  0  0  0
 45 46  2  0  0  0
 45115  1  0  0  0
 46116  1  0  0  0
 47117  1  0  0  0
 47118  1  0  0  0
 48 56  1  0  0  0
 48 65  1  0  0  0
 48119  1  0  0  0
 49 50  1  0  0  0
 49 53  1  0  0  0
 49 64  1  0  0  0
 49120  1  0  0  0
 50 51  1  0  0  0
 50121  1  0  0  0
 50122  1  0  0  0
 51 52  1  0  0  0
 51123  1  0  0  0
 51124  1  0  0  0
 52125  1  0  0  0
 52126  1  0  0  0
 53 54  1  0  0  0
 54 55  2  0  0  0
 54127  1  0  0  0
 55 57  1  0  0  0
 55128  1  0  0  0
 56 69  2  0  0  0
 57 58  2  0  0  0
 57129  1  0  0  0
 58130  1  0  0  0
 59 60  1  0  0  0
 59 61  1  0  0  0
 59 62  1  0  0  0
 60131  1  0  0  0
 60132  1  0  0  0
 60133  1  0  0  0
 61134  1  0  0  0
 61135  1  0  0  0
 61136  1  0  0  0
 62137  1  0  0  0
 62138  1  0  0  0
 62139  1  0  0  0
 63 65  1  0  0  0
 63140  1  0  0  0
 63141  1  0  0  0
 63142  1  0  0  0
 64143  1  0  0  0
 65144  1  0  0  0
 68 82  1  0  0  0
 71 72  2  0  0  0
 71 74  1  0  0  0
 71145  1  0  0  0
 72 76  1  0  0  0
 72146  1  0  0  0
 73 75  1  0  0  0
 73 76  2  0  0  0
 73147  1  0  0  0
 74 75  2  0  0  0
 74 77  1  0  0  0
 75 79  1  0  0  0
 76 85  1  0  0  0
 77 84  2  0  0  0
 78 80  1  0  0  0
 78148  1  0  0  0
 78149  1  0  0  0
 78150  1  0  0  0
 79 80  1  0  0  0
 79151  1  0  0  0
 79152  1  0  0  0
 80153  1  0  0  0
 80154  1  0  0  0
 81 82  1  0  0  0
 81 83  1  0  0  0
 81155  1  0  0  0
 81156  1  0  0  0
 82157  1  0  0  0
 82158  1  0  0  0
 83 85  1  0  0  0
 83159  1  0  0  0
 83160  1  0  0  0
 84161  1  0  0  0
M  ISO  4   1 100  68 101  77 100  82 101
M  END
> <chiral flag>
0

> <version>
0

> <s_m_source_file>
/data/baiqing/PycharmProjects/Reinvent-master-3.2/result/LINK_invent/BTK/process_docking_weight1_custom_product_contain_oxygen_bond_distance_aromatic_linkinvent_7_9_3/rearranged_h_0122.sdf

> <i_m_source_file_index>
88

> <r_mmod_Potential_Energy-OPLS-2005>
253.783752441406

> <r_mmod_Stretch_Energy-OPLS-2005>
91.3368301391602

> <r_mmod_Bend_Energy-OPLS-2005>
153.48046875

> <r_mmod_Torsional_Energy-OPLS-2005>
220.071929931641

> <r_mmod_Improper_Torsional_Energy-OPLS-2005>
3.5597722530365

> <r_mmod_Van_der_Waal_Energy-OPLS-2005>
151.718505859375

> <r_mmod_Electrostatic_Energy-OPLS-2005>
-216.782165527344

> <r_mmod_Solvation_Energy-OPLS-2005>
-192.432022094727

> <b_mmod_Minimization_Converged-OPLS-2005>
0

> <r_mmod_RMS_Derivative-OPLS-2005>
1.06809937953949

$$$$
88
                    3D
 Structure written by MMmdl.
158166  0  0  1  0            999 V2000
  -30.7671  -14.4355   20.5508 C   0  0  0  0  0  0
  -30.3988  -12.2736   19.4410 C   0  0  0  0  0  0
  -29.4924  -12.5000   18.2142 C   0  0  0  0  0  0
  -28.0107  -12.3769   18.6199 C   0  0  0  0  0  0
  -27.6602  -13.2200   19.8759 C   0  0  2  0  0  0
  -28.7027  -13.0160   21.0002 C   0  0  0  0  0  0
  -25.2566  -13.8197   20.5700 C   0  0  0  0  0  0
  -24.1834  -13.0451   20.9181 C   0  0  0  0  0  0
  -24.6414  -11.6926   20.8750 C   0  0  0  0  0  0
  -23.9097  -10.4292   21.0430 C   0  0  0  0  0  0
  -24.3642   -9.4196   21.9200 C   0  0  0  0  0  0
  -23.6296   -8.2246   22.0756 C   0  0  0  0  0  0
  -22.4282   -8.0300   21.3547 C   0  0  0  0  0  0
  -21.9934   -9.0279   20.4645 C   0  0  0  0  0  0
  -22.7278  -10.2149   20.3064 C   0  0  0  0  0  0
  -21.6850   -6.0758   22.5285 C   0  0  0  0  0  0
  -21.4015   -6.5655   23.8220 C   0  0  0  0  0  0
  -21.3651   -5.6797   24.9169 C   0  0  0  0  0  0
  -21.6053   -4.3065   24.7219 C   0  0  0  0  0  0
  -21.8809   -3.8161   23.4338 C   0  0  0  0  0  0
  -21.9183   -4.6983   22.3402 C   0  0  0  0  0  0
  -22.7847  -13.5230   21.1840 C   0  0  0  0  0  0
  -22.1649   -4.2173   21.0984 F   0  0  0  0  0  0
  -21.5629   -3.4547   25.7727 F   0  0  0  0  0  0
  -30.0370  -13.2879   20.4464 N   0  0  0  0  0  0
  -26.3023  -12.9398   20.3392 N   0  0  0  0  0  0
  -25.9348  -11.6549   20.5801 N   0  0  0  0  0  0
  -22.0493  -12.8224   22.0399 N   0  0  0  0  0  0
  -25.4267  -15.1919   20.4108 N   0  0  0  0  0  0
  -31.9118  -14.4944   20.0930 O   0  0  0  0  0  0
  -21.6629   -6.8916   21.4256 O   0  0  0  0  0  0
  -22.3537  -14.5543   20.6697 O   0  0  0  0  0  0
  -24.6120  -31.8696   23.2141 C   0  0  0  0  0  0
  -25.9019  -32.4835   23.8422 C   0  0  1  0  0  0
  -27.2278  -27.4511   20.0881 C   0  0  0  0  0  0
  -25.5875  -33.8636   24.2325 N   0  0  0  0  0  0
  -23.3958  -30.4946   21.5548 C   0  0  2  0  0  0
  -24.8379  -28.9620   20.1201 C   0  0  0  0  0  0
  -22.7384  -29.4670   22.5033 C   0  0  0  0  0  0
  -18.0256  -28.1376   22.8495 C   0  0  0  0  0  0
  -24.1489  -36.7332   23.2639 C   0  0  0  0  0  0
  -25.9230  -30.8418   21.3615 C   0  0  0  0  0  0
  -25.9960  -29.4755   20.7128 C   0  0  0  0  0  0
  -27.1900  -28.7236   20.6974 C   0  0  0  0  0  0
  -26.0454  -26.9428   19.5028 C   0  0  0  0  0  0
  -24.8550  -27.6931   19.5174 C   0  0  0  0  0  0
  -23.6022  -29.8273   20.1683 C   0  0  0  0  0  0
  -25.4106  -36.3112   24.0343 C   0  0  1  0  0  0
  -20.5850  -28.3648   23.1356 C   0  0  2  0  0  0
  -20.6758  -26.9404   22.5423 C   0  0  0  0  0  0
  -19.5727  -26.6382   21.5224 C   0  0  0  0  0  0
  -18.1897  -26.7919   22.1625 C   0  0  0  0  0  0
  -19.1511  -28.8826   23.2921 C   0  0  0  0  0  0
  -18.9447  -30.1430   23.8948 C   0  0  0  0  0  0
  -17.6456  -30.6595   24.0569 C   0  0  0  0  0  0
  -25.9036  -34.9480   23.5132 C   0  0  0  0  0  0
  -16.5345  -29.9106   23.6332 C   0  0  0  0  0  0
  -16.7248  -28.6512   23.0370 C   0  0  0  0  0  0
  -26.4482  -31.6606   25.0732 C   0  0  0  0  0  0
  -25.3752  -31.3681   26.1475 C   0  0  0  0  0  0
  -27.0306  -30.3054   24.6062 C   0  0  0  0  0  0
  -27.6065  -32.4321   25.7481 C   0  0  0  0  0  0
  -27.5583  -37.1811   24.8462 C   0  0  0  0  0  0
  -21.4125  -29.3022   22.3786 N   0  0  0  0  0  0
  -26.4291  -37.3796   23.9425 N   0  0  0  0  0  0
  -24.6622  -31.0834   22.1027 N   0  0  0  0  0  0
  -23.4179  -28.8219   23.3062 O   0  0  0  0  0  0
  -28.4312  -26.7759   20.0929 O   0  0  0  0  0  0
  -26.5598  -34.8928   22.4693 O   0  0  0  0  0  0
  -23.5325  -32.1449   23.7558 O   0  0  0  0  0  0
  -29.2526  -18.4707   22.1495 C   0  0  0  0  0  0
  -30.9908  -19.2464   20.6525 C   0  0  0  0  0  0
  -30.3220  -18.1794   21.2797 C   0  0  0  0  0  0
  -29.4770  -20.8795   21.6717 C   0  0  0  0  0  0
  -28.8439  -19.8078   22.3621 C   0  0  0  0  0  0
  -30.5942  -20.5840   20.8419 C   0  0  0  0  0  0
  -30.7590  -16.8189   20.9314 C   0  0  0  0  0  0
  -28.9031  -22.2440   21.7669 C   0  0  0  0  0  0
  -30.1009  -15.6411   21.0520 C   0  0  0  0  0  0
  -28.7734  -23.0915   20.7235 C   0  0  0  0  0  0
  -28.2165  -24.4465   20.8533 C   0  0  0  0  0  0
  -27.7060  -20.0708   23.3372 C   0  0  0  0  0  0
  -31.4325  -21.6569   20.1544 C   0  0  0  0  0  0
  -28.4920  -25.4062   19.6830 C   0  0  0  0  0  0
  -27.5629  -24.8162   21.8335 O   0  0  0  0  0  0
  -31.4492  -12.3057   19.1502 H   0  0  0  0  0  0
  -30.2453  -11.2725   19.8479 H   0  0  0  0  0  0
  -29.7255  -11.7800   17.4296 H   0  0  0  0  0  0
  -29.6782  -13.4882   17.7913 H   0  0  0  0  0  0
  -27.8112  -11.3222   18.8158 H   0  0  0  0  0  0
  -27.3650  -12.6589   17.7858 H   0  0  0  0  0  0
  -27.7016  -14.2661   19.5731 H   0  0  0  0  0  0
  -28.6646  -11.9861   21.3588 H   0  0  0  0  0  0
  -28.4756  -13.6302   21.8704 H   0  0  0  0  0  0
  -25.2793   -9.5661   22.4782 H   0  0  0  0  0  0
  -23.9988   -7.4646   22.7479 H   0  0  0  0  0  0
  -21.0861   -8.8817   19.8961 H   0  0  0  0  0  0
  -22.3751  -10.9697   19.6169 H   0  0  0  0  0  0
  -21.2018   -7.6159   23.9733 H   0  0  0  0  0  0
  -21.1487   -6.0526   25.9076 H   0  0  0  0  0  0
  -22.0601   -2.7627   23.2828 H   0  0  0  0  0  0
  -22.4096  -11.9852   22.4744 H   0  0  0  0  0  0
  -21.1125  -13.1280   22.2634 H   0  0  0  0  0  0
  -24.6664  -15.8514   20.5281 H   0  0  0  0  0  0
  -26.2876  -15.6336   20.1108 H   0  0  0  0  0  0
  -26.7089  -32.5569   23.1199 H   0  0  0  0  0  0
  -25.0005  -33.9802   25.0455 H   0  0  0  0  0  0
  -22.6842  -31.3127   21.4169 H   0  0  0  0  0  0
  -23.3743  -35.9666   23.3288 H   0  0  0  0  0  0
  -24.3570  -36.8969   22.2048 H   0  0  0  0  0  0
  -23.7239  -37.6534   23.6674 H   0  0  0  0  0  0
  -26.0165  -31.6015   20.5847 H   0  0  0  0  0  0
  -26.8209  -30.9062   21.9650 H   0  0  0  0  0  0
  -28.0871  -29.1094   21.1608 H   0  0  0  0  0  0
  -26.0073  -25.9735   19.0315 H   0  0  0  0  0  0
  -23.9600  -27.2910   19.0624 H   0  0  0  0  0  0
  -23.7124  -30.6026   19.4099 H   0  0  0  0  0  0
  -22.7254  -29.2463   19.8712 H   0  0  0  0  0  0
  -25.1277  -36.1978   25.0836 H   0  0  0  0  0  0
  -20.9919  -28.3210   24.1489 H   0  0  0  0  0  0
  -20.5661  -26.2280   23.3605 H   0  0  0  0  0  0
  -21.6638  -26.7440   22.1227 H   0  0  0  0  0  0
  -19.6905  -25.6296   21.1252 H   0  0  0  0  0  0
  -19.6698  -27.3211   20.6778 H   0  0  0  0  0  0
  -17.4189  -26.6697   21.4006 H   0  0  0  0  0  0
  -18.0279  -26.0041   22.8997 H   0  0  0  0  0  0
  -19.7929  -30.7205   24.2375 H   0  0  0  0  0  0
  -17.5028  -31.6284   24.5132 H   0  0  0  0  0  0
  -15.5359  -30.3037   23.7627 H   0  0  0  0  0  0
  -15.8639  -28.0838   22.7114 H   0  0  0  0  0  0
  -24.5946  -30.7006   25.7821 H   0  0  0  0  0  0
  -24.8916  -32.2813   26.4948 H   0  0  0  0  0  0
  -25.8116  -30.8848   27.0221 H   0  0  0  0  0  0
  -26.2826  -29.6799   24.1174 H   0  0  0  0  0  0
  -27.4167  -29.7300   25.4493 H   0  0  0  0  0  0
  -27.8616  -30.4394   23.9124 H   0  0  0  0  0  0
  -27.2693  -33.3630   26.2059 H   0  0  0  0  0  0
  -28.3868  -32.6869   25.0289 H   0  0  0  0  0  0
  -28.0721  -31.8426   26.5396 H   0  0  0  0  0  0
  -28.2588  -38.0115   24.7525 H   0  0  0  0  0  0
  -28.1090  -36.2658   24.6271 H   0  0  0  0  0  0
  -27.2307  -37.1437   25.8859 H   0  0  0  0  0  0
  -20.9302  -29.8752   21.7017 H   0  0  0  0  0  0
  -26.0187  -38.2881   24.1428 H   0  0  0  0  0  0
  -28.7473  -17.6600   22.6575 H   0  0  0  0  0  0
  -31.8212  -19.0361   19.9943 H   0  0  0  0  0  0
  -31.7567  -16.8048   20.5114 H   0  0  0  0  0  0
  -28.5837  -22.5671   22.7488 H   0  0  0  0  0  0
  -29.1083  -15.6188   21.4715 H   0  0  0  0  0  0
  -29.0780  -22.7989   19.7322 H   0  0  0  0  0  0
  -27.3328  -19.1493   23.7834 H   0  0  0  0  0  0
  -26.8717  -20.5654   22.8417 H   0  0  0  0  0  0
  -28.0495  -20.7059   24.1536 H   0  0  0  0  0  0
  -32.4556  -21.3096   20.0079 H   0  0  0  0  0  0
  -31.4935  -22.5701   20.7481 H   0  0  0  0  0  0
  -31.0343  -21.8972   19.1691 H   0  0  0  0  0  0
  -27.8460  -25.1789   18.8383 H   0  0  0  0  0  0
  -29.5064  -25.2148   19.3331 H   0  0  0  0  0  0
  1 25  1  0  0  0
  1 30  2  0  0  0
  1 79  1  0  0  0
  2  3  1  0  0  0
  2 25  1  0  0  0
  2 86  1  0  0  0
  2 87  1  0  0  0
  3  4  1  0  0  0
  3 88  1  0  0  0
  3 89  1  0  0  0
  4  5  1  0  0  0
  4 90  1  0  0  0
  4 91  1  0  0  0
  5  6  1  0  0  0
  5 26  1  0  0  0
  5 92  1  0  0  0
  6 25  1  0  0  0
  6 93  1  0  0  0
  6 94  1  0  0  0
  7  8  2  0  0  0
  7 26  1  0  0  0
  7 29  1  0  0  0
  8  9  1  0  0  0
  8 22  1  0  0  0
  9 10  1  0  0  0
  9 27  2  0  0  0
 10 11  2  0  0  0
 10 15  1  0  0  0
 11 12  1  0  0  0
 11 95  1  0  0  0
 12 13  2  0  0  0
 12 96  1  0  0  0
 13 14  1  0  0  0
 13 31  1  0  0  0
 14 15  2  0  0  0
 14 97  1  0  0  0
 15 98  1  0  0  0
 16 17  2  0  0  0
 16 21  1  0  0  0
 16 31  1  0  0  0
 17 18  1  0  0  0
 17 99  1  0  0  0
 18 19  2  0  0  0
 18100  1  0  0  0
 19 20  1  0  0  0
 19 24  1  0  0  0
 20 21  2  0  0  0
 20101  1  0  0  0
 21 23  1  0  0  0
 22 28  1  0  0  0
 22 32  2  0  0  0
 26 27  1  0  0  0
 28102  1  0  0  0
 28103  1  0  0  0
 29104  1  0  0  0
 29105  1  0  0  0
 33 34  1  0  0  0
 33 66  1  0  0  0
 33 70  2  0  0  0
 34 36  1  0  0  0
 34 59  1  0  0  0
 34106  1  0  0  0
 35 44  2  0  0  0
 35 45  1  0  0  0
 35 68  1  0  0  0
 36 56  1  0  0  0
 36107  1  0  0  0
 37 39  1  0  0  0
 37 47  1  0  0  0
 37 66  1  0  0  0
 37108  1  0  0  0
 38 43  2  0  0  0
 38 46  1  0  0  0
 38 47  1  0  0  0
 39 64  1  0  0  0
 39 67  2  0  0  0
 40 52  1  0  0  0
 40 53  2  0  0  0
 40 58  1  0  0  0
 41109  1  0  0  0
 41110  1  0  0  0
 41111  1  0  0  0
 41 48  1  0  0  0
 42 43  1  0  0  0
 42 66  1  0  0  0
 42112  1  0  0  0
 42113  1  0  0  0
 43 44  1  0  0  0
 44114  1  0  0  0
 45 46  2  0  0  0
 45115  1  0  0  0
 46116  1  0  0  0
 47117  1  0  0  0
 47118  1  0  0  0
 48 56  1  0  0  0
 48 65  1  0  0  0
 48119  1  0  0  0
 49 50  1  0  0  0
 49 53  1  0  0  0
 49 64  1  0  0  0
 49120  1  0  0  0
 50 51  1  0  0  0
 50121  1  0  0  0
 50122  1  0  0  0
 51 52  1  0  0  0
 51123  1  0  0  0
 51124  1  0  0  0
 52125  1  0  0  0
 52126  1  0  0  0
 53 54  1  0  0  0
 54 55  2  0  0  0
 54127  1  0  0  0
 55 57  1  0  0  0
 55128  1  0  0  0
 56 69  2  0  0  0
 57 58  2  0  0  0
 57129  1  0  0  0
 58130  1  0  0  0
 59 60  1  0  0  0
 59 61  1  0  0  0
 59 62  1  0  0  0
 60131  1  0  0  0
 60132  1  0  0  0
 60133  1  0  0  0
 61134  1  0  0  0
 61135  1  0  0  0
 61136  1  0  0  0
 62137  1  0  0  0
 62138  1  0  0  0
 62139  1  0  0  0
 63 65  1  0  0  0
 63140  1  0  0  0
 63141  1  0  0  0
 63142  1  0  0  0
 64143  1  0  0  0
 65144  1  0  0  0
 68 84  1  0  0  0
 71 73  2  0  0  0
 71 75  1  0  0  0
 71145  1  0  0  0
 72 73  1  0  0  0
 72 76  2  0  0  0
 72146  1  0  0  0
 73 77  1  0  0  0
 74 75  2  0  0  0
 74 76  1  0  0  0
 74 78  1  0  0  0
 75 82  1  0  0  0
 76 83  1  0  0  0
 77 79  2  0  0  0
 77147  1  0  0  0
 78 80  2  0  0  0
 78148  1  0  0  0
 79149  1  0  0  0
 80 81  1  0  0  0
 80150  1  0  0  0
 81 84  1  0  0  0
 81 85  2  0  0  0
 82151  1  0  0  0
 82152  1  0  0  0
 82153  1  0  0  0
 83154  1  0  0  0
 83155  1  0  0  0
 83156  1  0  0  0
 84157  1  0  0  0
 84158  1  0  0  0
M  ISO  4   1 100  68 101  79 100  84 101
M  END
> <chiral flag>
0

> <version>
0

> <s_m_source_file>
/data/baiqing/PycharmProjects/Reinvent-master-3.2/result/LINK_invent/BTK/process_docking_weight1_custom_product_contain_oxygen_bond_distance_aromatic_linkinvent_7_9_3/rearranged_h_0122.sdf

> <i_m_source_file_index>
89

> <r_mmod_Potential_Energy-OPLS-2005>
-20.5509471893311

> <r_mmod_Stretch_Energy-OPLS-2005>
36.5951766967773

> <r_mmod_Bend_Energy-OPLS-2005>
111.531547546387

> <r_mmod_Torsional_Energy-OPLS-2005>
187.354156494141

> <r_mmod_Improper_Torsional_Energy-OPLS-2005>
4.01632356643677

> <r_mmod_Van_der_Waal_Energy-OPLS-2005>
174.156555175781

> <r_mmod_Electrostatic_Energy-OPLS-2005>
-336.663879394531

> <r_mmod_Solvation_Energy-OPLS-2005>
-213.441955566406

> <b_mmod_Minimization_Converged-OPLS-2005>
0

> <r_mmod_RMS_Derivative-OPLS-2005>
3.61255407333374

$$$$
89
                    3D
 Structure written by MMmdl.
153161  0  0  1  0            999 V2000
  -30.6317  -14.6114   20.6154 C   0  0  0  0  0  0
  -30.4380  -12.4263   19.4439 C   0  0  0  0  0  0
  -29.5041  -12.5462   18.2214 C   0  0  0  0  0  0
  -28.0239  -12.3788   18.6154 C   0  0  0  0  0  0
  -27.6483  -13.2213   19.8614 C   0  0  2  0  0  0
  -28.6770  -13.0276   20.9954 C   0  0  0  0  0  0
  -25.2535  -13.8202   20.5675 C   0  0  0  0  0  0
  -24.1794  -13.0452   20.9133 C   0  0  0  0  0  0
  -24.6343  -11.6935   20.8653 C   0  0  0  0  0  0
  -23.9023  -10.4333   21.0327 C   0  0  0  0  0  0
  -24.3594   -9.4245   21.9091 C   0  0  0  0  0  0
  -23.6339   -8.2246   22.0674 C   0  0  0  0  0  0
  -22.4300   -8.0265   21.3505 C   0  0  0  0  0  0
  -21.9922   -9.0222   20.4591 C   0  0  0  0  0  0
  -22.7180  -10.2127   20.2997 C   0  0  0  0  0  0
  -21.6859   -6.0753   22.5267 C   0  0  0  0  0  0
  -21.4035   -6.5626   23.8220 C   0  0  0  0  0  0
  -21.3687   -5.6767   24.9183 C   0  0  0  0  0  0
  -21.6058   -4.3037   24.7214 C   0  0  0  0  0  0
  -21.8821   -3.8149   23.4330 C   0  0  0  0  0  0
  -21.9202   -4.6985   22.3391 C   0  0  0  0  0  0
  -22.7795  -13.5261   21.1796 C   0  0  0  0  0  0
  -22.1661   -4.2168   21.0960 F   0  0  0  0  0  0
  -21.5630   -3.4493   25.7726 F   0  0  0  0  0  0
  -29.9987  -13.4022   20.4654 N   0  0  0  0  0  0
  -26.2930  -12.9399   20.3219 N   0  0  0  0  0  0
  -25.9252  -11.6560   20.5600 N   0  0  0  0  0  0
  -22.0456  -12.8316   22.0421 N   0  0  0  0  0  0
  -25.4258  -15.1911   20.4208 N   0  0  0  0  0  0
  -31.7266  -14.8073   20.0745 O   0  0  0  0  0  0
  -21.6671   -6.8845   21.4215 O   0  0  0  0  0  0
  -22.3478  -14.5571   20.6602 O   0  0  0  0  0  0
  -24.6231  -31.8639   23.2031 C   0  0  0  0  0  0
  -25.9105  -32.4764   23.8375 C   0  0  1  0  0  0
  -27.2123  -27.3653   20.1197 C   0  0  0  0  0  0
  -25.5924  -33.8551   24.2303 N   0  0  0  0  0  0
  -23.4086  -30.4987   21.5385 C   0  0  2  0  0  0
  -24.8564  -28.9626   20.0991 C   0  0  0  0  0  0
  -22.7396  -29.4699   22.4821 C   0  0  0  0  0  0
  -18.0288  -28.1361   22.8453 C   0  0  0  0  0  0
  -24.1486  -36.7331   23.2626 C   0  0  0  0  0  0
  -25.9455  -30.8174   21.3632 C   0  0  0  0  0  0
  -26.0210  -29.4502   20.7034 C   0  0  0  0  0  0
  -27.2036  -28.6607   20.7069 C   0  0  0  0  0  0
  -26.0339  -26.9278   19.4739 C   0  0  0  0  0  0
  -24.8623  -27.7062   19.4748 C   0  0  0  0  0  0
  -23.6231  -29.8398   20.1498 C   0  0  0  0  0  0
  -25.4076  -36.3049   24.0337 C   0  0  1  0  0  0
  -20.5877  -28.3685   23.1218 C   0  0  2  0  0  0
  -20.6755  -26.9395   22.5342 C   0  0  0  0  0  0
  -19.5754  -26.6356   21.5127 C   0  0  0  0  0  0
  -18.1946  -26.7914   22.1569 C   0  0  0  0  0  0
  -19.1536  -28.8818   23.2873 C   0  0  0  0  0  0
  -18.9470  -30.1406   23.8906 C   0  0  0  0  0  0
  -17.6480  -30.6559   24.0538 C   0  0  0  0  0  0
  -25.9019  -34.9438   23.5109 C   0  0  0  0  0  0
  -16.5366  -29.9060   23.6291 C   0  0  0  0  0  0
  -16.7280  -28.6478   23.0310 C   0  0  0  0  0  0
  -26.4535  -31.6555   25.0733 C   0  0  0  0  0  0
  -25.3823  -31.3679   26.1508 C   0  0  0  0  0  0
  -27.0351  -30.2967   24.6142 C   0  0  0  0  0  0
  -27.6078  -32.4275   25.7533 C   0  0  0  0  0  0
  -27.5574  -37.1778   24.8425 C   0  0  0  0  0  0
  -21.4113  -29.3095   22.3598 N   0  0  0  0  0  0
  -26.4230  -37.3764   23.9452 N   0  0  0  0  0  0
  -24.6772  -31.0739   22.0928 N   0  0  0  0  0  0
  -23.4168  -28.8197   23.2841 O   0  0  0  0  0  0
  -28.3333  -26.5428   20.2041 O   0  0  0  0  0  0
  -26.5543  -34.8913   22.4635 O   0  0  0  0  0  0
  -23.5423  -32.1359   23.7422 O   0  0  0  0  0  0
  -28.8112  -19.7351   23.3176 C   0  0  0  0  0  0
  -29.0193  -18.3312   23.1337 C   0  0  0  0  0  0
  -29.1481  -20.3933   22.1702 C   0  0  0  0  0  0
  -29.5096  -18.1811   21.8557 C   0  0  0  0  0  0
  -29.1477  -21.8433   21.9149 C   0  0  0  0  0  0
  -29.9999  -17.0047   21.1185 C   0  0  0  0  0  0
  -29.9564  -15.6684   21.4186 C   0  0  0  0  0  0
  -29.0330  -22.6759   20.8427 C   0  0  0  0  0  0
  -28.7881  -17.2738   24.1818 C   0  0  0  0  0  0
  -29.1830  -24.2315   20.8970 C   0  0  0  0  0  0
  -28.1258  -25.0945   20.1295 C   0  0  0  0  0  0
  -29.5432  -19.4398   21.2444 O   0  0  0  0  0  0
  -31.4667  -12.6029   19.1272 H   0  0  0  0  0  0
  -30.4305  -11.4129   19.8491 H   0  0  0  0  0  0
  -29.7811  -11.8033   17.4728 H   0  0  0  0  0  0
  -29.6328  -13.5236   17.7490 H   0  0  0  0  0  0
  -27.8473  -11.3202   18.8087 H   0  0  0  0  0  0
  -27.3875  -12.6446   17.7690 H   0  0  0  0  0  0
  -27.6899  -14.2676   19.5496 H   0  0  0  0  0  0
  -28.6889  -11.9898   21.3386 H   0  0  0  0  0  0
  -28.3834  -13.6036   21.8716 H   0  0  0  0  0  0
  -25.2729   -9.5813   22.4621 H   0  0  0  0  0  0
  -24.0079   -7.4708   22.7420 H   0  0  0  0  0  0
  -21.0823   -8.8717   19.8957 H   0  0  0  0  0  0
  -22.3559  -10.9648   19.6118 H   0  0  0  0  0  0
  -21.2016   -7.6136   23.9738 H   0  0  0  0  0  0
  -21.1482   -6.0479   25.9078 H   0  0  0  0  0  0
  -22.0575   -2.7611   23.2801 H   0  0  0  0  0  0
  -22.4129  -12.0135   22.5039 H   0  0  0  0  0  0
  -21.1001  -13.1252   22.2462 H   0  0  0  0  0  0
  -24.6646  -15.8502   20.5499 H   0  0  0  0  0  0
  -26.2909  -15.6297   20.1343 H   0  0  0  0  0  0
  -26.7164  -32.5494   23.1153 H   0  0  0  0  0  0
  -25.0126  -33.9648   25.0474 H   0  0  0  0  0  0
  -22.7066  -31.3223   21.3981 H   0  0  0  0  0  0
  -23.3719  -35.9682   23.3188 H   0  0  0  0  0  0
  -24.3638  -36.9040   22.2060 H   0  0  0  0  0  0
  -23.7270  -37.6518   23.6718 H   0  0  0  0  0  0
  -26.0605  -31.5915   20.6019 H   0  0  0  0  0  0
  -26.8309  -30.8701   21.9819 H   0  0  0  0  0  0
  -28.0936  -29.0249   21.1989 H   0  0  0  0  0  0
  -25.9932  -25.9734   18.9688 H   0  0  0  0  0  0
  -23.9743  -27.3305   18.9885 H   0  0  0  0  0  0
  -23.7302  -30.6199   19.3936 H   0  0  0  0  0  0
  -22.7467  -29.2675   19.8452 H   0  0  0  0  0  0
  -25.1242  -36.1877   25.0824 H   0  0  0  0  0  0
  -21.0051  -28.3292   24.1306 H   0  0  0  0  0  0
  -20.5529  -26.2319   23.3553 H   0  0  0  0  0  0
  -21.6653  -26.7332   22.1234 H   0  0  0  0  0  0
  -19.6902  -25.6246   21.1188 H   0  0  0  0  0  0
  -19.6709  -27.3119   20.6626 H   0  0  0  0  0  0
  -17.4180  -26.6584   21.4009 H   0  0  0  0  0  0
  -18.0432  -26.0052   22.8979 H   0  0  0  0  0  0
  -19.7951  -30.7182   24.2314 H   0  0  0  0  0  0
  -17.5042  -31.6249   24.5131 H   0  0  0  0  0  0
  -15.5369  -30.2974   23.7586 H   0  0  0  0  0  0
  -15.8685  -28.0798   22.7016 H   0  0  0  0  0  0
  -24.5997  -30.6997   25.7938 H   0  0  0  0  0  0
  -24.9028  -32.2825   26.4993 H   0  0  0  0  0  0
  -25.8237  -30.8883   27.0250 H   0  0  0  0  0  0
  -26.2882  -29.6715   24.1228 H   0  0  0  0  0  0
  -27.4110  -29.7258   25.4653 H   0  0  0  0  0  0
  -27.8763  -30.4250   23.9312 H   0  0  0  0  0  0
  -27.2673  -33.3560   26.2142 H   0  0  0  0  0  0
  -28.3936  -32.6830   25.0411 H   0  0  0  0  0  0
  -28.0716  -31.8368   26.5446 H   0  0  0  0  0  0
  -28.2463  -38.0192   24.7566 H   0  0  0  0  0  0
  -28.1181  -36.2712   24.6081 H   0  0  0  0  0  0
  -27.2332  -37.1252   25.8830 H   0  0  0  0  0  0
  -20.9171  -29.8979   21.7015 H   0  0  0  0  0  0
  -26.0100  -38.2815   24.1508 H   0  0  0  0  0  0
  -28.4766  -20.2126   24.2312 H   0  0  0  0  0  0
  -29.3169  -22.3793   22.8375 H   0  0  0  0  0  0
  -30.5029  -17.2689   20.1978 H   0  0  0  0  0  0
  -29.4408  -15.3733   22.3174 H   0  0  0  0  0  0
  -28.8515  -22.2438   19.8681 H   0  0  0  0  0  0
  -28.7401  -17.7060   25.1835 H   0  0  0  0  0  0
  -29.6069  -16.5546   24.1862 H   0  0  0  0  0  0
  -27.8519  -16.7473   23.9884 H   0  0  0  0  0  0
  -30.1644  -24.4807   20.4880 H   0  0  0  0  0  0
  -29.1989  -24.5513   21.9429 H   0  0  0  0  0  0
  -27.1463  -24.8111   20.5230 H   0  0  0  0  0  0
  -28.1349  -24.8072   19.0781 H   0  0  0  0  0  0
  1 25  1  0  0  0
  1 30  2  0  0  0
  1 77  1  0  0  0
  2  3  1  0  0  0
  2 25  1  0  0  0
  2 83  1  0  0  0
  2 84  1  0  0  0
  3  4  1  0  0  0
  3 85  1  0  0  0
  3 86  1  0  0  0
  4  5  1  0  0  0
  4 87  1  0  0  0
  4 88  1  0  0  0
  5  6  1  0  0  0
  5 26  1  0  0  0
  5 89  1  0  0  0
  6 25  1  0  0  0
  6 90  1  0  0  0
  6 91  1  0  0  0
  7  8  2  0  0  0
  7 26  1  0  0  0
  7 29  1  0  0  0
  8  9  1  0  0  0
  8 22  1  0  0  0
  9 10  1  0  0  0
  9 27  2  0  0  0
 10 11  2  0  0  0
 10 15  1  0  0  0
 11 12  1  0  0  0
 11 92  1  0  0  0
 12 13  2  0  0  0
 12 93  1  0  0  0
 13 14  1  0  0  0
 13 31  1  0  0  0
 14 15  2  0  0  0
 14 94  1  0  0  0
 15 95  1  0  0  0
 16 17  2  0  0  0
 16 21  1  0  0  0
 16 31  1  0  0  0
 17 18  1  0  0  0
 17 96  1  0  0  0
 18 19  2  0  0  0
 18 97  1  0  0  0
 19 20  1  0  0  0
 19 24  1  0  0  0
 20 21  2  0  0  0
 20 98  1  0  0  0
 21 23  1  0  0  0
 22 28  1  0  0  0
 22 32  2  0  0  0
 26 27  1  0  0  0
 28 99  1  0  0  0
 28100  1  0  0  0
 29101  1  0  0  0
 29102  1  0  0  0
 33 34  1  0  0  0
 33 66  1  0  0  0
 33 70  2  0  0  0
 34 36  1  0  0  0
 34 59  1  0  0  0
 34103  1  0  0  0
 35 44  2  0  0  0
 35 45  1  0  0  0
 35 68  1  0  0  0
 36 56  1  0  0  0
 36104  1  0  0  0
 37 39  1  0  0  0
 37 47  1  0  0  0
 37 66  1  0  0  0
 37105  1  0  0  0
 38 43  2  0  0  0
 38 46  1  0  0  0
 38 47  1  0  0  0
 39 64  1  0  0  0
 39 67  2  0  0  0
 40 52  1  0  0  0
 40 53  2  0  0  0
 40 58  1  0  0  0
 41106  1  0  0  0
 41107  1  0  0  0
 41108  1  0  0  0
 41 48  1  0  0  0
 42 43  1  0  0  0
 42 66  1  0  0  0
 42109  1  0  0  0
 42110  1  0  0  0
 43 44  1  0  0  0
 44111  1  0  0  0
 45 46  2  0  0  0
 45112  1  0  0  0
 46113  1  0  0  0
 47114  1  0  0  0
 47115  1  0  0  0
 48 56  1  0  0  0
 48 65  1  0  0  0
 48116  1  0  0  0
 49 50  1  0  0  0
 49 53  1  0  0  0
 49 64  1  0  0  0
 49117  1  0  0  0
 50 51  1  0  0  0
 50118  1  0  0  0
 50119  1  0  0  0
 51 52  1  0  0  0
 51120  1  0  0  0
 51121  1  0  0  0
 52122  1  0  0  0
 52123  1  0  0  0
 53 54  1  0  0  0
 54 55  2  0  0  0
 54124  1  0  0  0
 55 57  1  0  0  0
 55125  1  0  0  0
 56 69  2  0  0  0
 57 58  2  0  0  0
 57126  1  0  0  0
 58127  1  0  0  0
 59 60  1  0  0  0
 59 61  1  0  0  0
 59 62  1  0  0  0
 60128  1  0  0  0
 60129  1  0  0  0
 60130  1  0  0  0
 61131  1  0  0  0
 61132  1  0  0  0
 61133  1  0  0  0
 62134  1  0  0  0
 62135  1  0  0  0
 62136  1  0  0  0
 63 65  1  0  0  0
 63137  1  0  0  0
 63138  1  0  0  0
 63139  1  0  0  0
 64140  1  0  0  0
 65141  1  0  0  0
 68 81  1  0  0  0
 71 72  1  0  0  0
 71 73  2  0  0  0
 71142  1  0  0  0
 72 74  2  0  0  0
 72 79  1  0  0  0
 73 75  1  0  0  0
 73 82  1  0  0  0
 74 76  1  0  0  0
 74 82  1  0  0  0
 75 78  2  0  0  0
 75143  1  0  0  0
 76 77  2  0  0  0
 76144  1  0  0  0
 77145  1  0  0  0
 78 80  1  0  0  0
 78146  1  0  0  0
 79147  1  0  0  0
 79148  1  0  0  0
 79149  1  0  0  0
 80 81  1  0  0  0
 80150  1  0  0  0
 80151  1  0  0  0
 81152  1  0  0  0
 81153  1  0  0  0
M  ISO  4   1 100  68 101  77 100  81 101
M  END
> <chiral flag>
0

> <version>
0

> <s_m_source_file>
/data/baiqing/PycharmProjects/Reinvent-master-3.2/result/LINK_invent/BTK/process_docking_weight1_custom_product_contain_oxygen_bond_distance_aromatic_linkinvent_7_9_3/rearranged_h_0122.sdf

> <i_m_source_file_index>
90

> <r_mmod_Potential_Energy-OPLS-2005>
4.92399740219116

> <r_mmod_Stretch_Energy-OPLS-2005>
62.1364936828613

> <r_mmod_Bend_Energy-OPLS-2005>
125.907081604004

> <r_mmod_Torsional_Energy-OPLS-2005>
186.412139892578

> <r_mmod_Improper_Torsional_Energy-OPLS-2005>
2.64130091667175

> <r_mmod_Van_der_Waal_Energy-OPLS-2005>
127.037933349609

> <r_mmod_Electrostatic_Energy-OPLS-2005>
-341.992156982422

> <r_mmod_Solvation_Energy-OPLS-2005>
-195.531311035156

> <b_mmod_Minimization_Converged-OPLS-2005>
0

> <r_mmod_RMS_Derivative-OPLS-2005>
7.51988315582275

$$$$
90
                    3D
 Structure written by MMmdl.
160168  0  0  1  0            999 V2000
  -30.5997  -14.6073   20.5035 C   0  0  0  0  0  0
  -30.4357  -12.3639   19.4524 C   0  0  0  0  0  0
  -29.5132  -12.5250   18.2225 C   0  0  0  0  0  0
  -28.0346  -12.3435   18.6286 C   0  0  0  0  0  0
  -27.6522  -13.2041   19.8639 C   0  0  2  0  0  0
  -28.6931  -13.0322   20.9953 C   0  0  0  0  0  0
  -25.2508  -13.8110   20.5524 C   0  0  0  0  0  0
  -24.1812  -13.0408   20.9130 C   0  0  0  0  0  0
  -24.6374  -11.6882   20.8726 C   0  0  0  0  0  0
  -23.9045  -10.4287   21.0414 C   0  0  0  0  0  0
  -24.3618   -9.4191   21.9163 C   0  0  0  0  0  0
  -23.6318   -8.2225   22.0754 C   0  0  0  0  0  0
  -22.4281   -8.0274   21.3557 C   0  0  0  0  0  0
  -21.9880   -9.0232   20.4664 C   0  0  0  0  0  0
  -22.7202  -10.2115   20.3066 C   0  0  0  0  0  0
  -21.6865   -6.0752   22.5284 C   0  0  0  0  0  0
  -21.4018   -6.5657   23.8211 C   0  0  0  0  0  0
  -21.3638   -5.6799   24.9168 C   0  0  0  0  0  0
  -21.6047   -4.3067   24.7213 C   0  0  0  0  0  0
  -21.8819   -3.8162   23.4329 C   0  0  0  0  0  0
  -21.9185   -4.6982   22.3396 C   0  0  0  0  0  0
  -22.7841  -13.5223   21.1854 C   0  0  0  0  0  0
  -22.1675   -4.2166   21.0978 F   0  0  0  0  0  0
  -21.5597   -3.4546   25.7721 F   0  0  0  0  0  0
  -30.0156  -13.3712   20.4441 N   0  0  0  0  0  0
  -26.2972  -12.9277   20.3287 N   0  0  0  0  0  0
  -25.9301  -11.6442   20.5727 N   0  0  0  0  0  0
  -22.0531  -12.8264   22.0504 N   0  0  0  0  0  0
  -25.4180  -15.1802   20.3743 N   0  0  0  0  0  0
  -31.7504  -14.8125   20.1072 O   0  0  0  0  0  0
  -21.6664   -6.8863   21.4235 O   0  0  0  0  0  0
  -22.3529  -14.5526   20.6700 O   0  0  0  0  0  0
  -24.6189  -31.8647   23.2043 C   0  0  0  0  0  0
  -25.9060  -32.4789   23.8373 C   0  0  1  0  0  0
  -27.2270  -27.3788   20.1297 C   0  0  0  0  0  0
  -25.5938  -33.8598   24.2298 N   0  0  0  0  0  0
  -23.4075  -30.4871   21.5440 C   0  0  2  0  0  0
  -24.8547  -28.9467   20.1142 C   0  0  0  0  0  0
  -22.7421  -29.4637   22.4942 C   0  0  0  0  0  0
  -18.0271  -28.1357   22.8488 C   0  0  0  0  0  0
  -24.1505  -36.7305   23.2629 C   0  0  0  0  0  0
  -25.9384  -30.8223   21.3572 C   0  0  0  0  0  0
  -26.0190  -29.4504   20.7088 C   0  0  0  0  0  0
  -27.2097  -28.6771   20.7057 C   0  0  0  0  0  0
  -26.0444  -26.9056   19.5198 C   0  0  0  0  0  0
  -24.8655  -27.6778   19.5114 C   0  0  0  0  0  0
  -23.6165  -29.8180   20.1598 C   0  0  0  0  0  0
  -25.4125  -36.3082   24.0321 C   0  0  1  0  0  0
  -20.5873  -28.3666   23.1284 C   0  0  2  0  0  0
  -20.6772  -26.9404   22.5380 C   0  0  0  0  0  0
  -19.5731  -26.6370   21.5190 C   0  0  0  0  0  0
  -18.1912  -26.7902   22.1611 C   0  0  0  0  0  0
  -19.1521  -28.8826   23.2884 C   0  0  0  0  0  0
  -18.9451  -30.1436   23.8897 C   0  0  0  0  0  0
  -17.6454  -30.6576   24.0557 C   0  0  0  0  0  0
  -25.9049  -34.9460   23.5091 C   0  0  0  0  0  0
  -16.5347  -29.9072   23.6328 C   0  0  0  0  0  0
  -16.7261  -28.6480   23.0358 C   0  0  0  0  0  0
  -26.4486  -31.6583   25.0717 C   0  0  0  0  0  0
  -25.3747  -31.3708   26.1474 C   0  0  0  0  0  0
  -27.0341  -30.3031   24.6111 C   0  0  0  0  0  0
  -27.6101  -32.4295   25.7456 C   0  0  0  0  0  0
  -27.5580  -37.1804   24.8455 C   0  0  0  0  0  0
  -21.4142  -29.3040   22.3693 N   0  0  0  0  0  0
  -26.4305  -37.3769   23.9387 N   0  0  0  0  0  0
  -24.6727  -31.0734   22.0936 N   0  0  0  0  0  0
  -23.4173  -28.8167   23.2988 O   0  0  0  0  0  0
  -28.3776  -26.5999   20.1403 O   0  0  0  0  0  0
  -26.5589  -34.8908   22.4638 O   0  0  0  0  0  0
  -23.5375  -32.1416   23.7424 O   0  0  0  0  0  0
  -27.0837  -19.7228   21.9468 C   0  0  0  0  0  0
  -26.2240  -18.8692   22.6520 C   0  0  0  0  0  0
  -27.6584  -17.0200   22.0678 C   0  0  0  0  0  0
  -28.2525  -19.2787   21.2638 C   0  0  0  0  0  0
  -26.5097  -17.5053   22.7106 C   0  0  0  0  0  0
  -28.5513  -17.8511   21.3330 C   0  0  0  0  0  0
  -29.0538  -20.3730   20.5770 C   0  0  0  0  0  0
  -28.8040  -21.7244   20.6343 C   0  0  0  0  0  0
  -25.5768  -16.5679   23.4528 C   0  0  0  0  0  0
  -29.7735  -17.1125   20.6856 C   0  0  0  0  0  0
  -29.6073  -22.8859   20.0098 C   0  0  0  0  0  0
  -28.8347  -24.1751   19.5115 C   0  0  0  0  0  0
  -28.2707  -25.2000   20.5505 C   0  0  0  0  0  0
  -29.7433  -15.6145   20.8287 N   0  0  0  0  0  0
  -31.4834  -12.4854   19.1701 H   0  0  0  0  0  0
  -30.3441  -11.3565   19.8663 H   0  0  0  0  0  0
  -29.7779  -11.8047   17.4510 H   0  0  0  0  0  0
  -29.6577  -13.5112   17.7773 H   0  0  0  0  0  0
  -27.8898  -11.2892   18.8673 H   0  0  0  0  0  0
  -27.3788  -12.5602   17.7828 H   0  0  0  0  0  0
  -27.6674  -14.2393   19.5272 H   0  0  0  0  0  0
  -28.6917  -12.0066   21.3625 H   0  0  0  0  0  0
  -28.4332  -13.6479   21.8571 H   0  0  0  0  0  0
  -25.2799   -9.5671   22.4675 H   0  0  0  0  0  0
  -24.0043   -7.4626   22.7478 H   0  0  0  0  0  0
  -21.0789   -8.8730   19.9029 H   0  0  0  0  0  0
  -22.3648  -10.9627   19.6167 H   0  0  0  0  0  0
  -21.2040   -7.6164   23.9730 H   0  0  0  0  0  0
  -21.1473   -6.0528   25.9069 H   0  0  0  0  0  0
  -22.0620   -2.7626   23.2817 H   0  0  0  0  0  0
  -22.4169  -11.9929   22.4887 H   0  0  0  0  0  0
  -21.1168  -13.1307   22.2792 H   0  0  0  0  0  0
  -24.6479  -15.8300   20.4715 H   0  0  0  0  0  0
  -26.2822  -15.6393   20.1240 H   0  0  0  0  0  0
  -26.7132  -32.5487   23.1146 H   0  0  0  0  0  0
  -25.0276  -33.9802   25.0564 H   0  0  0  0  0  0
  -22.6980  -31.3042   21.4000 H   0  0  0  0  0  0
  -23.3767  -35.9630   23.3287 H   0  0  0  0  0  0
  -24.3609  -36.8930   22.2042 H   0  0  0  0  0  0
  -23.7250  -37.6508   23.6650 H   0  0  0  0  0  0
  -26.0518  -31.5888   20.5879 H   0  0  0  0  0  0
  -26.8244  -30.8824   21.9780 H   0  0  0  0  0  0
  -28.1081  -29.0616   21.1690 H   0  0  0  0  0  0
  -26.0292  -25.9310   19.0565 H   0  0  0  0  0  0
  -23.9714  -27.2892   19.0427 H   0  0  0  0  0  0
  -23.7144  -30.5894   19.3934 H   0  0  0  0  0  0
  -22.7416  -29.2336   19.8696 H   0  0  0  0  0  0
  -25.1287  -36.1966   25.0811 H   0  0  0  0  0  0
  -20.9990  -28.3244   24.1390 H   0  0  0  0  0  0
  -20.5673  -26.2282   23.3562 H   0  0  0  0  0  0
  -21.6636  -26.7442   22.1154 H   0  0  0  0  0  0
  -19.6919  -25.6275   21.1205 H   0  0  0  0  0  0
  -19.6665  -27.3197   20.6722 H   0  0  0  0  0  0
  -17.4179  -26.6648   21.4015 H   0  0  0  0  0  0
  -18.0351  -26.0025   22.8991 H   0  0  0  0  0  0
  -19.7937  -30.7242   24.2270 H   0  0  0  0  0  0
  -17.5016  -31.6264   24.5140 H   0  0  0  0  0  0
  -15.5340  -30.2976   23.7661 H   0  0  0  0  0  0
  -15.8656  -28.0797   22.7091 H   0  0  0  0  0  0
  -24.6017  -30.6900   25.7861 H   0  0  0  0  0  0
  -24.8816  -32.2859   26.4781 H   0  0  0  0  0  0
  -25.8148  -30.9054   27.0312 H   0  0  0  0  0  0
  -26.2904  -29.6754   24.1191 H   0  0  0  0  0  0
  -27.4148  -29.7288   25.4568 H   0  0  0  0  0  0
  -27.8701  -30.4325   23.9234 H   0  0  0  0  0  0
  -27.2788  -33.3651   26.1975 H   0  0  0  0  0  0
  -28.3958  -32.6760   25.0292 H   0  0  0  0  0  0
  -28.0713  -31.8429   26.5412 H   0  0  0  0  0  0
  -28.2599  -38.0107   24.7562 H   0  0  0  0  0  0
  -28.1090  -36.2655   24.6245 H   0  0  0  0  0  0
  -27.2307  -37.1424   25.8859 H   0  0  0  0  0  0
  -20.9304  -29.8792   21.6949 H   0  0  0  0  0  0
  -26.0198  -38.2840   24.1419 H   0  0  0  0  0  0
  -26.7769  -20.7530   21.9556 H   0  0  0  0  0  0
  -25.3500  -19.2682   23.1487 H   0  0  0  0  0  0
  -27.8205  -15.9603   22.1729 H   0  0  0  0  0  0
  -29.9022  -20.0402   19.9911 H   0  0  0  0  0  0
  -27.9755  -22.1119   21.2009 H   0  0  0  0  0  0
  -24.6204  -16.4986   22.9321 H   0  0  0  0  0  0
  -25.3921  -16.9369   24.4611 H   0  0  0  0  0  0
  -25.9907  -15.5614   23.5356 H   0  0  0  0  0  0
  -29.7949  -17.3524   19.6205 H   0  0  0  0  0  0
  -30.6882  -17.5122   21.1252 H   0  0  0  0  0  0
  -30.1703  -22.4798   19.1682 H   0  0  0  0  0  0
  -30.3610  -23.1951   20.7334 H   0  0  0  0  0  0
  -28.0422  -23.8949   18.8164 H   0  0  0  0  0  0
  -29.5470  -24.7409   18.9128 H   0  0  0  0  0  0
  -28.8204  -25.1041   21.4876 H   0  0  0  0  0  0
  -27.2473  -24.9192   20.8034 H   0  0  0  0  0  0
  -28.8456  -15.2691   21.1275 H   0  0  0  0  0  0
  1 25  1  0  0  0
  1 30  2  0  0  0
  1 84  1  0  0  0
  2  3  1  0  0  0
  2 25  1  0  0  0
  2 85  1  0  0  0
  2 86  1  0  0  0
  3  4  1  0  0  0
  3 87  1  0  0  0
  3 88  1  0  0  0
  4  5  1  0  0  0
  4 89  1  0  0  0
  4 90  1  0  0  0
  5  6  1  0  0  0
  5 26  1  0  0  0
  5 91  1  0  0  0
  6 25  1  0  0  0
  6 92  1  0  0  0
  6 93  1  0  0  0
  7  8  2  0  0  0
  7 26  1  0  0  0
  7 29  1  0  0  0
  8  9  1  0  0  0
  8 22  1  0  0  0
  9 10  1  0  0  0
  9 27  2  0  0  0
 10 11  2  0  0  0
 10 15  1  0  0  0
 11 12  1  0  0  0
 11 94  1  0  0  0
 12 13  2  0  0  0
 12 95  1  0  0  0
 13 14  1  0  0  0
 13 31  1  0  0  0
 14 15  2  0  0  0
 14 96  1  0  0  0
 15 97  1  0  0  0
 16 17  2  0  0  0
 16 21  1  0  0  0
 16 31  1  0  0  0
 17 18  1  0  0  0
 17 98  1  0  0  0
 18 19  2  0  0  0
 18 99  1  0  0  0
 19 20  1  0  0  0
 19 24  1  0  0  0
 20 21  2  0  0  0
 20100  1  0  0  0
 21 23  1  0  0  0
 22 28  1  0  0  0
 22 32  2  0  0  0
 26 27  1  0  0  0
 28101  1  0  0  0
 28102  1  0  0  0
 29103  1  0  0  0
 29104  1  0  0  0
 33 34  1  0  0  0
 33 66  1  0  0  0
 33 70  2  0  0  0
 34 36  1  0  0  0
 34 59  1  0  0  0
 34105  1  0  0  0
 35 44  2  0  0  0
 35 45  1  0  0  0
 35 68  1  0  0  0
 36 56  1  0  0  0
 36106  1  0  0  0
 37 39  1  0  0  0
 37 47  1  0  0  0
 37 66  1  0  0  0
 37107  1  0  0  0
 38 43  2  0  0  0
 38 46  1  0  0  0
 38 47  1  0  0  0
 39 64  1  0  0  0
 39 67  2  0  0  0
 40 52  1  0  0  0
 40 53  2  0  0  0
 40 58  1  0  0  0
 41108  1  0  0  0
 41109  1  0  0  0
 41110  1  0  0  0
 41 48  1  0  0  0
 42 43  1  0  0  0
 42 66  1  0  0  0
 42111  1  0  0  0
 42112  1  0  0  0
 43 44  1  0  0  0
 44113  1  0  0  0
 45 46  2  0  0  0
 45114  1  0  0  0
 46115  1  0  0  0
 47116  1  0  0  0
 47117  1  0  0  0
 48 56  1  0  0  0
 48 65  1  0  0  0
 48118  1  0  0  0
 49 50  1  0  0  0
 49 53  1  0  0  0
 49 64  1  0  0  0
 49119  1  0  0  0
 50 51  1  0  0  0
 50120  1  0  0  0
 50121  1  0  0  0
 51 52  1  0  0  0
 51122  1  0  0  0
 51123  1  0  0  0
 52124  1  0  0  0
 52125  1  0  0  0
 53 54  1  0  0  0
 54 55  2  0  0  0
 54126  1  0  0  0
 55 57  1  0  0  0
 55127  1  0  0  0
 56 69  2  0  0  0
 57 58  2  0  0  0
 57128  1  0  0  0
 58129  1  0  0  0
 59 60  1  0  0  0
 59 61  1  0  0  0
 59 62  1  0  0  0
 60130  1  0  0  0
 60131  1  0  0  0
 60132  1  0  0  0
 61133  1  0  0  0
 61134  1  0  0  0
 61135  1  0  0  0
 62136  1  0  0  0
 62137  1  0  0  0
 62138  1  0  0  0
 63 65  1  0  0  0
 63139  1  0  0  0
 63140  1  0  0  0
 63141  1  0  0  0
 64142  1  0  0  0
 65143  1  0  0  0
 68 83  1  0  0  0
 71 72  2  0  0  0
 71 74  1  0  0  0
 71144  1  0  0  0
 72 75  1  0  0  0
 72145  1  0  0  0
 73 75  2  0  0  0
 73 76  1  0  0  0
 73146  1  0  0  0
 74 76  2  0  0  0
 74 77  1  0  0  0
 75 79  1  0  0  0
 76 80  1  0  0  0
 77 78  2  0  0  0
 77147  1  0  0  0
 78 81  1  0  0  0
 78148  1  0  0  0
 79149  1  0  0  0
 79150  1  0  0  0
 79151  1  0  0  0
 80 84  1  0  0  0
 80152  1  0  0  0
 80153  1  0  0  0
 81 82  1  0  0  0
 81154  1  0  0  0
 81155  1  0  0  0
 82 83  1  0  0  0
 82156  1  0  0  0
 82157  1  0  0  0
 83158  1  0  0  0
 83159  1  0  0  0
 84160  1  0  0  0
M  ISO  4   1 100  68 101  83 101  84 100
M  END
> <chiral flag>
0

> <version>
0

> <s_m_source_file>
/data/baiqing/PycharmProjects/Reinvent-master-3.2/result/LINK_invent/BTK/process_docking_weight1_custom_product_contain_oxygen_bond_distance_aromatic_linkinvent_7_9_3/rearranged_h_0122.sdf

> <i_m_source_file_index>
91

> <r_mmod_Potential_Energy-OPLS-2005>
18.5003509521484

> <r_mmod_Stretch_Energy-OPLS-2005>
70.9872055053711

> <r_mmod_Bend_Energy-OPLS-2005>
137.951568603516

> <r_mmod_Torsional_Energy-OPLS-2005>
221.83659362793

> <r_mmod_Improper_Torsional_Energy-OPLS-2005>
5.27654361724854

> <r_mmod_Van_der_Waal_Energy-OPLS-2005>
148.113754272461

> <r_mmod_Electrostatic_Energy-OPLS-2005>
-399.692779541016

> <r_mmod_Solvation_Energy-OPLS-2005>
-199.110809326172

> <b_mmod_Minimization_Converged-OPLS-2005>
0

> <r_mmod_RMS_Derivative-OPLS-2005>
4.46300983428955

$$$$
91
                    3D
 Structure written by MMmdl.
157165  0  0  1  0            999 V2000
  -30.6973  -14.3842   20.6496 C   0  0  0  0  0  0
  -30.4270  -12.2773   19.3977 C   0  0  0  0  0  0
  -29.4913  -12.5241   18.1942 C   0  0  0  0  0  0
  -28.0112  -12.3806   18.6033 C   0  0  0  0  0  0
  -27.6683  -13.1895   19.8817 C   0  0  2  0  0  0
  -28.7021  -12.8890   20.9895 C   0  0  0  0  0  0
  -25.2629  -13.8128   20.5664 C   0  0  0  0  0  0
  -24.1850  -13.0430   20.9145 C   0  0  0  0  0  0
  -24.6366  -11.6896   20.8708 C   0  0  0  0  0  0
  -23.9037  -10.4292   21.0399 C   0  0  0  0  0  0
  -24.3603   -9.4211   21.9174 C   0  0  0  0  0  0
  -23.6283   -8.2242   22.0746 C   0  0  0  0  0  0
  -22.4265   -8.0281   21.3540 C   0  0  0  0  0  0
  -21.9896   -9.0245   20.4642 C   0  0  0  0  0  0
  -22.7214  -10.2128   20.3046 C   0  0  0  0  0  0
  -21.6851   -6.0735   22.5277 C   0  0  0  0  0  0
  -21.4015   -6.5639   23.8214 C   0  0  0  0  0  0
  -21.3660   -5.6793   24.9175 C   0  0  0  0  0  0
  -21.6043   -4.3054   24.7224 C   0  0  0  0  0  0
  -21.8819   -3.8145   23.4344 C   0  0  0  0  0  0
  -21.9192   -4.6961   22.3403 C   0  0  0  0  0  0
  -22.7875  -13.5249   21.1832 C   0  0  0  0  0  0
  -22.1660   -4.2148   21.0980 F   0  0  0  0  0  0
  -21.5627   -3.4538   25.7738 F   0  0  0  0  0  0
  -30.0480  -13.2049   20.4710 N   0  0  0  0  0  0
  -26.3042  -12.9259   20.3339 N   0  0  0  0  0  0
  -25.9288  -11.6438   20.5721 N   0  0  0  0  0  0
  -22.0524  -12.8232   22.0400 N   0  0  0  0  0  0
  -25.4378  -15.1850   20.4107 N   0  0  0  0  0  0
  -31.7293  -14.6977   20.0483 O   0  0  0  0  0  0
  -21.6632   -6.8871   21.4242 O   0  0  0  0  0  0
  -22.3565  -14.5558   20.6699 O   0  0  0  0  0  0
  -24.6130  -31.8691   23.2088 C   0  0  0  0  0  0
  -25.9022  -32.4820   23.8375 C   0  0  1  0  0  0
  -27.2274  -27.4601   20.0627 C   0  0  0  0  0  0
  -25.5888  -33.8624   24.2308 N   0  0  0  0  0  0
  -23.3975  -30.4925   21.5525 C   0  0  2  0  0  0
  -24.8385  -28.9548   20.1167 C   0  0  0  0  0  0
  -22.7384  -29.4669   22.5013 C   0  0  0  0  0  0
  -18.0258  -28.1379   22.8499 C   0  0  0  0  0  0
  -24.1476  -36.7321   23.2642 C   0  0  0  0  0  0
  -25.9241  -30.8374   21.3571 C   0  0  0  0  0  0
  -25.9999  -29.4709   20.7071 C   0  0  0  0  0  0
  -27.2013  -28.7299   20.6778 C   0  0  0  0  0  0
  -26.0498  -26.9393   19.4921 C   0  0  0  0  0  0
  -24.8543  -27.6824   19.5183 C   0  0  0  0  0  0
  -23.6016  -29.8216   20.1689 C   0  0  0  0  0  0
  -25.4099  -36.3115   24.0336 C   0  0  1  0  0  0
  -20.5849  -28.3658   23.1332 C   0  0  2  0  0  0
  -20.6752  -26.9400   22.5422 C   0  0  0  0  0  0
  -19.5733  -26.6391   21.5216 C   0  0  0  0  0  0
  -18.1904  -26.7923   22.1628 C   0  0  0  0  0  0
  -19.1511  -28.8834   23.2911 C   0  0  0  0  0  0
  -18.9449  -30.1438   23.8926 C   0  0  0  0  0  0
  -17.6455  -30.6590   24.0570 C   0  0  0  0  0  0
  -25.9031  -34.9480   23.5124 C   0  0  0  0  0  0
  -16.5342  -29.9104   23.6319 C   0  0  0  0  0  0
  -16.7252  -28.6515   23.0356 C   0  0  0  0  0  0
  -26.4458  -31.6603   25.0697 C   0  0  0  0  0  0
  -25.3749  -31.3714   26.1467 C   0  0  0  0  0  0
  -27.0286  -30.3049   24.6057 C   0  0  0  0  0  0
  -27.6031  -32.4329   25.7478 C   0  0  0  0  0  0
  -27.5569  -37.1813   24.8469 C   0  0  0  0  0  0
  -21.4115  -29.3027   22.3744 N   0  0  0  0  0  0
  -26.4281  -37.3798   23.9411 N   0  0  0  0  0  0
  -24.6629  -31.0793   22.0979 N   0  0  0  0  0  0
  -23.4165  -28.8203   23.3036 O   0  0  0  0  0  0
  -28.3950  -26.7467   19.9837 O   0  0  0  0  0  0
  -26.5607  -34.8941   22.4693 O   0  0  0  0  0  0
  -23.5327  -32.1432   23.7507 O   0  0  0  0  0  0
  -28.9076  -18.5097   22.6556 C   0  0  0  0  0  0
  -30.1949  -17.3934   20.4371 C   0  0  0  0  0  0
  -29.2786  -19.3550   21.5886 C   0  0  0  0  0  0
  -29.1712  -17.1275   22.6375 C   0  0  0  0  0  0
  -29.8590  -16.5629   21.5341 C   0  0  0  0  0  0
  -29.9049  -18.7757   20.4586 C   0  0  0  0  0  0
  -28.9978  -20.7932   21.7659 C   0  0  0  0  0  0
  -29.0762  -21.8099   20.8864 C   0  0  0  0  0  0
  -28.7070  -16.2916   23.8223 C   0  0  0  0  0  0
  -28.8623  -23.2408   21.3524 C   0  0  0  0  0  0
  -28.4404  -24.2839   20.3014 C   0  0  0  0  0  0
  -28.5057  -25.6922   20.9328 C   0  0  0  0  0  0
  -30.1242  -15.1682   21.5723 N   0  0  0  0  0  0
  -30.2658  -19.5356   19.3986 F   0  0  0  0  0  0
  -31.4715  -12.3935   19.1000 H   0  0  0  0  0  0
  -30.3346  -11.2469   19.7488 H   0  0  0  0  0  0
  -29.7262  -11.8290   17.3856 H   0  0  0  0  0  0
  -29.6645  -13.5239   17.7960 H   0  0  0  0  0  0
  -27.8129  -11.3197   18.7765 H   0  0  0  0  0  0
  -27.3619  -12.6798   17.7780 H   0  0  0  0  0  0
  -27.7390  -14.2457   19.6257 H   0  0  0  0  0  0
  -28.6603  -11.8318   21.2567 H   0  0  0  0  0  0
  -28.4315  -13.4153   21.9061 H   0  0  0  0  0  0
  -25.2750   -9.5692   22.4741 H   0  0  0  0  0  0
  -23.9997   -7.4637   22.7469 H   0  0  0  0  0  0
  -21.0819   -8.8757   19.8953 H   0  0  0  0  0  0
  -22.3667  -10.9662   19.6149 H   0  0  0  0  0  0
  -21.2012   -7.6147   23.9716 H   0  0  0  0  0  0
  -21.1481   -6.0522   25.9076 H   0  0  0  0  0  0
  -22.0599   -2.7610   23.2846 H   0  0  0  0  0  0
  -22.4135  -11.9877   22.4758 H   0  0  0  0  0  0
  -21.1147  -13.1272   22.2623 H   0  0  0  0  0  0
  -24.6795  -15.8480   20.5321 H   0  0  0  0  0  0
  -26.3057  -15.6235   20.1299 H   0  0  0  0  0  0
  -26.7089  -32.5523   23.1143 H   0  0  0  0  0  0
  -25.0017  -33.9779   25.0435 H   0  0  0  0  0  0
  -22.6857  -31.3101   21.4129 H   0  0  0  0  0  0
  -23.3732  -35.9665   23.3328 H   0  0  0  0  0  0
  -24.3567  -36.8914   22.2052 H   0  0  0  0  0  0
  -23.7247  -37.6538   23.6646 H   0  0  0  0  0  0
  -26.0302  -31.6021   20.5842 H   0  0  0  0  0  0
  -26.8144  -30.8940   21.9706 H   0  0  0  0  0  0
  -28.1057  -29.1299   21.1137 H   0  0  0  0  0  0
  -26.0588  -25.9717   19.0135 H   0  0  0  0  0  0
  -23.9580  -27.2769   19.0709 H   0  0  0  0  0  0
  -23.7081  -30.5941   19.4075 H   0  0  0  0  0  0
  -22.7225  -29.2436   19.8746 H   0  0  0  0  0  0
  -25.1279  -36.1980   25.0828 H   0  0  0  0  0  0
  -20.9948  -28.3222   24.1454 H   0  0  0  0  0  0
  -20.5649  -26.2262   23.3609 H   0  0  0  0  0  0
  -21.6624  -26.7442   22.1221 H   0  0  0  0  0  0
  -19.6899  -25.6307   21.1228 H   0  0  0  0  0  0
  -19.6675  -27.3215   20.6756 H   0  0  0  0  0  0
  -17.4179  -26.6671   21.4031 H   0  0  0  0  0  0
  -18.0311  -26.0067   22.9021 H   0  0  0  0  0  0
  -19.7933  -30.7240   24.2303 H   0  0  0  0  0  0
  -17.5025  -31.6278   24.5162 H   0  0  0  0  0  0
  -15.5352  -30.3023   23.7636 H   0  0  0  0  0  0
  -15.8647  -28.0850   22.7053 H   0  0  0  0  0  0
  -24.5908  -30.7062   25.7829 H   0  0  0  0  0  0
  -24.8956  -32.2869   26.4942 H   0  0  0  0  0  0
  -25.8121  -30.8876   27.0217 H   0  0  0  0  0  0
  -26.2808  -29.6826   24.1118 H   0  0  0  0  0  0
  -27.4066  -29.7267   25.4503 H   0  0  0  0  0  0
  -27.8639  -30.4371   23.9183 H   0  0  0  0  0  0
  -27.2620  -33.3609   26.2095 H   0  0  0  0  0  0
  -28.3824  -32.6934   25.0300 H   0  0  0  0  0  0
  -28.0721  -31.8437   26.5373 H   0  0  0  0  0  0
  -28.2609  -38.0083   24.7488 H   0  0  0  0  0  0
  -28.1036  -36.2615   24.6325 H   0  0  0  0  0  0
  -27.2287  -37.1505   25.8873 H   0  0  0  0  0  0
  -20.9266  -29.8769   21.6995 H   0  0  0  0  0  0
  -26.0176  -38.2879   24.1412 H   0  0  0  0  0  0
  -28.4224  -18.9323   23.5223 H   0  0  0  0  0  0
  -30.6758  -16.9855   19.5592 H   0  0  0  0  0  0
  -28.7144  -21.0644   22.7764 H   0  0  0  0  0  0
  -29.3327  -21.6455   19.8471 H   0  0  0  0  0  0
  -27.7899  -16.7078   24.2426 H   0  0  0  0  0  0
  -29.4684  -16.2979   24.6015 H   0  0  0  0  0  0
  -28.4834  -15.2587   23.5585 H   0  0  0  0  0  0
  -29.8202  -23.5524   21.7642 H   0  0  0  0  0  0
  -28.1579  -23.2421   22.1865 H   0  0  0  0  0  0
  -27.4416  -24.0680   19.9174 H   0  0  0  0  0  0
  -29.1224  -24.2360   19.4537 H   0  0  0  0  0  0
  -27.7624  -25.7796   21.7298 H   0  0  0  0  0  0
  -29.4766  -25.8181   21.4138 H   0  0  0  0  0  0
  -29.5192  -14.6588   22.1984 H   0  0  0  0  0  0
  1 25  1  0  0  0
  1 30  2  0  0  0
  1 83  1  0  0  0
  2  3  1  0  0  0
  2 25  1  0  0  0
  2 85  1  0  0  0
  2 86  1  0  0  0
  3  4  1  0  0  0
  3 87  1  0  0  0
  3 88  1  0  0  0
  4  5  1  0  0  0
  4 89  1  0  0  0
  4 90  1  0  0  0
  5  6  1  0  0  0
  5 26  1  0  0  0
  5 91  1  0  0  0
  6 25  1  0  0  0
  6 92  1  0  0  0
  6 93  1  0  0  0
  7  8  2  0  0  0
  7 26  1  0  0  0
  7 29  1  0  0  0
  8  9  1  0  0  0
  8 22  1  0  0  0
  9 10  1  0  0  0
  9 27  2  0  0  0
 10 11  2  0  0  0
 10 15  1  0  0  0
 11 12  1  0  0  0
 11 94  1  0  0  0
 12 13  2  0  0  0
 12 95  1  0  0  0
 13 14  1  0  0  0
 13 31  1  0  0  0
 14 15  2  0  0  0
 14 96  1  0  0  0
 15 97  1  0  0  0
 16 17  2  0  0  0
 16 21  1  0  0  0
 16 31  1  0  0  0
 17 18  1  0  0  0
 17 98  1  0  0  0
 18 19  2  0  0  0
 18 99  1  0  0  0
 19 20  1  0  0  0
 19 24  1  0  0  0
 20 21  2  0  0  0
 20100  1  0  0  0
 21 23  1  0  0  0
 22 28  1  0  0  0
 22 32  2  0  0  0
 26 27  1  0  0  0
 28101  1  0  0  0
 28102  1  0  0  0
 29103  1  0  0  0
 29104  1  0  0  0
 33 34  1  0  0  0
 33 66  1  0  0  0
 33 70  2  0  0  0
 34 36  1  0  0  0
 34 59  1  0  0  0
 34105  1  0  0  0
 35 44  2  0  0  0
 35 45  1  0  0  0
 35 68  1  0  0  0
 36 56  1  0  0  0
 36106  1  0  0  0
 37 39  1  0  0  0
 37 47  1  0  0  0
 37 66  1  0  0  0
 37107  1  0  0  0
 38 43  2  0  0  0
 38 46  1  0  0  0
 38 47  1  0  0  0
 39 64  1  0  0  0
 39 67  2  0  0  0
 40 52  1  0  0  0
 40 53  2  0  0  0
 40 58  1  0  0  0
 41108  1  0  0  0
 41109  1  0  0  0
 41110  1  0  0  0
 41 48  1  0  0  0
 42 43  1  0  0  0
 42 66  1  0  0  0
 42111  1  0  0  0
 42112  1  0  0  0
 43 44  1  0  0  0
 44113  1  0  0  0
 45 46  2  0  0  0
 45114  1  0  0  0
 46115  1  0  0  0
 47116  1  0  0  0
 47117  1  0  0  0
 48 56  1  0  0  0
 48 65  1  0  0  0
 48118  1  0  0  0
 49 50  1  0  0  0
 49 53  1  0  0  0
 49 64  1  0  0  0
 49119  1  0  0  0
 50 51  1  0  0  0
 50120  1  0  0  0
 50121  1  0  0  0
 51 52  1  0  0  0
 51122  1  0  0  0
 51123  1  0  0  0
 52124  1  0  0  0
 52125  1  0  0  0
 53 54  1  0  0  0
 54 55  2  0  0  0
 54126  1  0  0  0
 55 57  1  0  0  0
 55127  1  0  0  0
 56 69  2  0  0  0
 57 58  2  0  0  0
 57128  1  0  0  0
 58129  1  0  0  0
 59 60  1  0  0  0
 59 61  1  0  0  0
 59 62  1  0  0  0
 60130  1  0  0  0
 60131  1  0  0  0
 60132  1  0  0  0
 61133  1  0  0  0
 61134  1  0  0  0
 61135  1  0  0  0
 62136  1  0  0  0
 62137  1  0  0  0
 62138  1  0  0  0
 63 65  1  0  0  0
 63139  1  0  0  0
 63140  1  0  0  0
 63141  1  0  0  0
 64142  1  0  0  0
 65143  1  0  0  0
 68 82  1  0  0  0
 71 73  2  0  0  0
 71 74  1  0  0  0
 71144  1  0  0  0
 72 75  1  0  0  0
 72 76  2  0  0  0
 72145  1  0  0  0
 73 76  1  0  0  0
 73 77  1  0  0  0
 74 75  2  0  0  0
 74 79  1  0  0  0
 75 83  1  0  0  0
 76 84  1  0  0  0
 77 78  2  0  0  0
 77146  1  0  0  0
 78 80  1  0  0  0
 78147  1  0  0  0
 79148  1  0  0  0
 79149  1  0  0  0
 79150  1  0  0  0
 80 81  1  0  0  0
 80151  1  0  0  0
 80152  1  0  0  0
 81 82  1  0  0  0
 81153  1  0  0  0
 81154  1  0  0  0
 82155  1  0  0  0
 82156  1  0  0  0
 83157  1  0  0  0
M  ISO  4   1 100  68 101  82 101  83 100
M  END
> <chiral flag>
0

> <version>
0

> <s_m_source_file>
/data/baiqing/PycharmProjects/Reinvent-master-3.2/result/LINK_invent/BTK/process_docking_weight1_custom_product_contain_oxygen_bond_distance_aromatic_linkinvent_7_9_3/rearranged_h_0122.sdf

> <i_m_source_file_index>
92

> <r_mmod_Potential_Energy-OPLS-2005>
-3.52473592758179

> <r_mmod_Stretch_Energy-OPLS-2005>
32.4792366027832

> <r_mmod_Bend_Energy-OPLS-2005>
106.560356140137

> <r_mmod_Torsional_Energy-OPLS-2005>
245.265014648438

> <r_mmod_Improper_Torsional_Energy-OPLS-2005>
4.0739893913269

> <r_mmod_Van_der_Waal_Energy-OPLS-2005>
155.678558349609

> <r_mmod_Electrostatic_Energy-OPLS-2005>
-358.538024902344

> <r_mmod_Solvation_Energy-OPLS-2005>
-197.636199951172

> <b_mmod_Minimization_Converged-OPLS-2005>
0

> <r_mmod_RMS_Derivative-OPLS-2005>
4.45648670196533

$$$$
92
                    3D
 Structure written by MMmdl.
155163  0  0  1  0            999 V2000
  -30.6872  -14.4938   20.4885 C   0  0  0  0  0  0
  -30.4218  -12.2999   19.4325 C   0  0  0  0  0  0
  -29.4966  -12.5177   18.2131 C   0  0  0  0  0  0
  -28.0133  -12.3717   18.6131 C   0  0  0  0  0  0
  -27.6545  -13.1953   19.8774 C   0  0  2  0  0  0
  -28.7067  -12.9964   20.9944 C   0  0  0  0  0  0
  -25.2542  -13.8081   20.5857 C   0  0  0  0  0  0
  -24.1784  -13.0356   20.9228 C   0  0  0  0  0  0
  -24.6358  -11.6837   20.8732 C   0  0  0  0  0  0
  -23.9036  -10.4233   21.0374 C   0  0  0  0  0  0
  -24.3593   -9.4168   21.9150 C   0  0  0  0  0  0
  -23.6289   -8.2209   22.0728 C   0  0  0  0  0  0
  -22.4263   -8.0244   21.3524 C   0  0  0  0  0  0
  -21.9884   -9.0214   20.4628 C   0  0  0  0  0  0
  -22.7216  -10.2098   20.3036 C   0  0  0  0  0  0
  -21.6835   -6.0722   22.5287 C   0  0  0  0  0  0
  -21.3998   -6.5632   23.8220 C   0  0  0  0  0  0
  -21.3656   -5.6786   24.9185 C   0  0  0  0  0  0
  -21.6047   -4.3053   24.7223 C   0  0  0  0  0  0
  -21.8823   -3.8138   23.4341 C   0  0  0  0  0  0
  -21.9179   -4.6954   22.3409 C   0  0  0  0  0  0
  -22.7812  -13.5168   21.1865 C   0  0  0  0  0  0
  -22.1646   -4.2142   21.0979 F   0  0  0  0  0  0
  -21.5638   -3.4536   25.7735 F   0  0  0  0  0  0
  -30.0382  -13.2948   20.4445 N   0  0  0  0  0  0
  -26.2982  -12.9257   20.3426 N   0  0  0  0  0  0
  -25.9274  -11.6414   20.5739 N   0  0  0  0  0  0
  -22.0430  -12.8208   22.0450 N   0  0  0  0  0  0
  -25.4165  -15.1832   20.4619 N   0  0  0  0  0  0
  -31.8782  -14.6018   20.1865 O   0  0  0  0  0  0
  -21.6616   -6.8860   21.4247 O   0  0  0  0  0  0
  -22.3513  -14.5462   20.6683 O   0  0  0  0  0  0
  -24.6159  -31.8662   23.2091 C   0  0  0  0  0  0
  -25.9035  -32.4824   23.8401 C   0  0  1  0  0  0
  -27.2264  -27.4222   20.0990 C   0  0  0  0  0  0
  -25.5863  -33.8625   24.2309 N   0  0  0  0  0  0
  -23.4071  -30.4897   21.5497 C   0  0  2  0  0  0
  -24.8535  -28.9574   20.1099 C   0  0  0  0  0  0
  -22.7435  -29.4650   22.4981 C   0  0  0  0  0  0
  -18.0274  -28.1390   22.8486 C   0  0  0  0  0  0
  -24.1466  -36.7319   23.2653 C   0  0  0  0  0  0
  -25.9384  -30.8288   21.3633 C   0  0  0  0  0  0
  -26.0164  -29.4638   20.7076 C   0  0  0  0  0  0
  -27.2108  -28.7035   20.6975 C   0  0  0  0  0  0
  -26.0535  -26.9421   19.4755 C   0  0  0  0  0  0
  -24.8678  -27.6968   19.4898 C   0  0  0  0  0  0
  -23.6143  -29.8219   20.1639 C   0  0  0  0  0  0
  -25.4092  -36.3122   24.0342 C   0  0  1  0  0  0
  -20.5865  -28.3665   23.1324 C   0  0  2  0  0  0
  -20.6750  -26.9385   22.5454 C   0  0  0  0  0  0
  -19.5744  -26.6372   21.5232 C   0  0  0  0  0  0
  -18.1916  -26.7944   22.1616 C   0  0  0  0  0  0
  -19.1524  -28.8842   23.2904 C   0  0  0  0  0  0
  -18.9451  -30.1448   23.8915 C   0  0  0  0  0  0
  -17.6455  -30.6581   24.0582 C   0  0  0  0  0  0
  -25.9028  -34.9483   23.5134 C   0  0  0  0  0  0
  -16.5344  -29.9092   23.6327 C   0  0  0  0  0  0
  -16.7267  -28.6519   23.0326 C   0  0  0  0  0  0
  -26.4435  -31.6626   25.0748 C   0  0  0  0  0  0
  -25.3689  -31.3768   26.1496 C   0  0  0  0  0  0
  -27.0254  -30.3067   24.6144 C   0  0  0  0  0  0
  -27.6020  -32.4366   25.7486 C   0  0  0  0  0  0
  -27.5586  -37.1794   24.8446 C   0  0  0  0  0  0
  -21.4158  -29.3017   22.3711 N   0  0  0  0  0  0
  -26.4274  -37.3808   23.9429 N   0  0  0  0  0  0
  -24.6723  -31.0750   22.0991 N   0  0  0  0  0  0
  -23.4204  -28.8206   23.3033 O   0  0  0  0  0  0
  -28.3443  -26.6178   20.1523 O   0  0  0  0  0  0
  -26.5615  -34.8936   22.4709 O   0  0  0  0  0  0
  -23.5337  -32.1414   23.7461 O   0  0  0  0  0  0
  -27.5948  -20.2248   19.3707 C   0  0  0  0  0  0
  -27.2759  -18.9578   18.8575 C   0  0  0  0  0  0
  -29.6342  -19.3120   20.3272 C   0  0  0  0  0  0
  -28.8017  -20.4341   20.0724 C   0  0  0  0  0  0
  -29.3103  -18.0190   19.8395 C   0  0  0  0  0  0
  -28.1498  -17.8707   19.0306 C   0  0  0  0  0  0
  -29.2254  -21.7967   20.4937 C   0  0  0  0  0  0
  -30.2097  -16.8698   20.0935 C   0  0  0  0  0  0
  -28.6015  -22.9610   20.1929 C   0  0  0  0  0  0
  -29.8056  -15.6622   20.5561 C   0  0  0  0  0  0
  -29.1120  -24.2839   20.6263 C   0  0  0  0  0  0
  -27.8398  -16.6069   18.2394 C   0  0  0  0  0  0
  -28.0818  -25.4008   20.8861 C   0  0  0  0  0  0
  -30.3128  -24.5092   20.8071 O   0  0  0  0  0  0
  -31.4691  -12.3849   19.1377 H   0  0  0  0  0  0
  -30.3035  -11.2913   19.8314 H   0  0  0  0  0  0
  -29.7458  -11.8208   17.4127 H   0  0  0  0  0  0
  -29.6622  -13.5163   17.8062 H   0  0  0  0  0  0
  -27.8197  -11.3153   18.7936 H   0  0  0  0  0  0
  -27.3671  -12.6630   17.7829 H   0  0  0  0  0  0
  -27.6789  -14.2331   19.5724 H   0  0  0  0  0  0
  -28.6860  -11.9658   21.3507 H   0  0  0  0  0  0
  -28.4874  -13.6140   21.8675 H   0  0  0  0  0  0
  -25.2730   -9.5670   22.4730 H   0  0  0  0  0  0
  -23.9993   -7.4594   22.7452 H   0  0  0  0  0  0
  -21.0791   -8.8744   19.8957 H   0  0  0  0  0  0
  -22.3645  -10.9638   19.6164 H   0  0  0  0  0  0
  -21.1993   -7.6140   23.9731 H   0  0  0  0  0  0
  -21.1472   -6.0506   25.9094 H   0  0  0  0  0  0
  -22.0600   -2.7603   23.2839 H   0  0  0  0  0  0
  -22.4021  -11.9914   22.4935 H   0  0  0  0  0  0
  -21.1052  -13.1258   22.2595 H   0  0  0  0  0  0
  -24.6485  -15.8274   20.6180 H   0  0  0  0  0  0
  -26.2858  -15.6493   20.2421 H   0  0  0  0  0  0
  -26.7126  -32.5527   23.1184 H   0  0  0  0  0  0
  -24.9947  -33.9783   25.0408 H   0  0  0  0  0  0
  -22.6978  -31.3072   21.4089 H   0  0  0  0  0  0
  -23.3739  -35.9638   23.3301 H   0  0  0  0  0  0
  -24.3565  -36.8952   22.2070 H   0  0  0  0  0  0
  -23.7186  -37.6507   23.6675 H   0  0  0  0  0  0
  -26.0539  -31.5912   20.5907 H   0  0  0  0  0  0
  -26.8265  -30.8812   21.9818 H   0  0  0  0  0  0
  -28.1070  -29.0811   21.1705 H   0  0  0  0  0  0
  -26.0502  -25.9759   18.9898 H   0  0  0  0  0  0
  -23.9745  -27.3031   19.0234 H   0  0  0  0  0  0
  -23.7234  -30.5952   19.4022 H   0  0  0  0  0  0
  -22.7381  -29.2387   19.8710 H   0  0  0  0  0  0
  -25.1266  -36.1991   25.0835 H   0  0  0  0  0  0
  -20.9973  -28.3240   24.1441 H   0  0  0  0  0  0
  -20.5605  -26.2284   23.3658 H   0  0  0  0  0  0
  -21.6626  -26.7392   22.1276 H   0  0  0  0  0  0
  -19.6892  -25.6279   21.1264 H   0  0  0  0  0  0
  -19.6710  -27.3178   20.6762 H   0  0  0  0  0  0
  -17.4204  -26.6723   21.3997 H   0  0  0  0  0  0
  -18.0277  -26.0085   22.8999 H   0  0  0  0  0  0
  -19.7923  -30.7254   24.2302 H   0  0  0  0  0  0
  -17.5006  -31.6254   24.5200 H   0  0  0  0  0  0
  -15.5346  -30.2997   23.7636 H   0  0  0  0  0  0
  -15.8676  -28.0855   22.7001 H   0  0  0  0  0  0
  -24.5831  -30.7148   25.7843 H   0  0  0  0  0  0
  -24.8895  -32.2925   26.4966 H   0  0  0  0  0  0
  -25.8007  -30.8924   27.0252 H   0  0  0  0  0  0
  -26.2792  -29.6867   24.1156 H   0  0  0  0  0  0
  -27.3954  -29.7296   25.4623 H   0  0  0  0  0  0
  -27.8662  -30.4393   23.9338 H   0  0  0  0  0  0
  -27.2617  -33.3622   26.2150 H   0  0  0  0  0  0
  -28.3744  -32.7016   25.0255 H   0  0  0  0  0  0
  -28.0784  -31.8458   26.5314 H   0  0  0  0  0  0
  -28.2588  -38.0112   24.7542 H   0  0  0  0  0  0
  -28.1090  -36.2648   24.6178 H   0  0  0  0  0  0
  -27.2337  -37.1348   25.8858 H   0  0  0  0  0  0
  -20.9330  -29.8741   21.6925 H   0  0  0  0  0  0
  -26.0170  -38.2882   24.1465 H   0  0  0  0  0  0
  -26.9102  -21.0359   19.1773 H   0  0  0  0  0  0
  -26.3720  -18.8296   18.2782 H   0  0  0  0  0  0
  -30.5512  -19.4536   20.8839 H   0  0  0  0  0  0
  -30.1223  -21.8389   21.0975 H   0  0  0  0  0  0
  -31.2381  -17.0136   19.7922 H   0  0  0  0  0  0
  -27.6938  -22.9746   19.6099 H   0  0  0  0  0  0
  -28.7916  -15.5745   20.9095 H   0  0  0  0  0  0
  -27.6084  -16.8646   17.2058 H   0  0  0  0  0  0
  -26.9643  -16.0997   18.6322 H   0  0  0  0  0  0
  -28.6716  -15.9062   18.1963 H   0  0  0  0  0  0
  -28.0938  -25.6356   21.9510 H   0  0  0  0  0  0
  -27.0900  -25.0002   20.6792 H   0  0  0  0  0  0
  1 25  1  0  0  0
  1 30  2  0  0  0
  1 80  1  0  0  0
  2  3  1  0  0  0
  2 25  1  0  0  0
  2 85  1  0  0  0
  2 86  1  0  0  0
  3  4  1  0  0  0
  3 87  1  0  0  0
  3 88  1  0  0  0
  4  5  1  0  0  0
  4 89  1  0  0  0
  4 90  1  0  0  0
  5  6  1  0  0  0
  5 26  1  0  0  0
  5 91  1  0  0  0
  6 25  1  0  0  0
  6 92  1  0  0  0
  6 93  1  0  0  0
  7  8  2  0  0  0
  7 26  1  0  0  0
  7 29  1  0  0  0
  8  9  1  0  0  0
  8 22  1  0  0  0
  9 10  1  0  0  0
  9 27  2  0  0  0
 10 11  2  0  0  0
 10 15  1  0  0  0
 11 12  1  0  0  0
 11 94  1  0  0  0
 12 13  2  0  0  0
 12 95  1  0  0  0
 13 14  1  0  0  0
 13 31  1  0  0  0
 14 15  2  0  0  0
 14 96  1  0  0  0
 15 97  1  0  0  0
 16 17  2  0  0  0
 16 21  1  0  0  0
 16 31  1  0  0  0
 17 18  1  0  0  0
 17 98  1  0  0  0
 18 19  2  0  0  0
 18 99  1  0  0  0
 19 20  1  0  0  0
 19 24  1  0  0  0
 20 21  2  0  0  0
 20100  1  0  0  0
 21 23  1  0  0  0
 22 28  1  0  0  0
 22 32  2  0  0  0
 26 27  1  0  0  0
 28101  1  0  0  0
 28102  1  0  0  0
 29103  1  0  0  0
 29104  1  0  0  0
 33 34  1  0  0  0
 33 66  1  0  0  0
 33 70  2  0  0  0
 34 36  1  0  0  0
 34 59  1  0  0  0
 34105  1  0  0  0
 35 44  2  0  0  0
 35 45  1  0  0  0
 35 68  1  0  0  0
 36 56  1  0  0  0
 36106  1  0  0  0
 37 39  1  0  0  0
 37 47  1  0  0  0
 37 66  1  0  0  0
 37107  1  0  0  0
 38 43  2  0  0  0
 38 46  1  0  0  0
 38 47  1  0  0  0
 39 64  1  0  0  0
 39 67  2  0  0  0
 40 52  1  0  0  0
 40 53  2  0  0  0
 40 58  1  0  0  0
 41108  1  0  0  0
 41109  1  0  0  0
 41110  1  0  0  0
 41 48  1  0  0  0
 42 43  1  0  0  0
 42 66  1  0  0  0
 42111  1  0  0  0
 42112  1  0  0  0
 43 44  1  0  0  0
 44113  1  0  0  0
 45 46  2  0  0  0
 45114  1  0  0  0
 46115  1  0  0  0
 47116  1  0  0  0
 47117  1  0  0  0
 48 56  1  0  0  0
 48 65  1  0  0  0
 48118  1  0  0  0
 49 50  1  0  0  0
 49 53  1  0  0  0
 49 64  1  0  0  0
 49119  1  0  0  0
 50 51  1  0  0  0
 50120  1  0  0  0
 50121  1  0  0  0
 51 52  1  0  0  0
 51122  1  0  0  0
 51123  1  0  0  0
 52124  1  0  0  0
 52125  1  0  0  0
 53 54  1  0  0  0
 54 55  2  0  0  0
 54126  1  0  0  0
 55 57  1  0  0  0
 55127  1  0  0  0
 56 69  2  0  0  0
 57 58  2  0  0  0
 57128  1  0  0  0
 58129  1  0  0  0
 59 60  1  0  0  0
 59 61  1  0  0  0
 59 62  1  0  0  0
 60130  1  0  0  0
 60131  1  0  0  0
 60132  1  0  0  0
 61133  1  0  0  0
 61134  1  0  0  0
 61135  1  0  0  0
 62136  1  0  0  0
 62137  1  0  0  0
 62138  1  0  0  0
 63 65  1  0  0  0
 63139  1  0  0  0
 63140  1  0  0  0
 63141  1  0  0  0
 64142  1  0  0  0
 65143  1  0  0  0
 68 83  1  0  0  0
 71 72  2  0  0  0
 71 74  1  0  0  0
 71144  1  0  0  0
 72 76  1  0  0  0
 72145  1  0  0  0
 73 74  2  0  0  0
 73 75  1  0  0  0
 73146  1  0  0  0
 74 77  1  0  0  0
 75 76  2  0  0  0
 75 78  1  0  0  0
 76 82  1  0  0  0
 77 79  2  0  0  0
 77147  1  0  0  0
 78 80  2  0  0  0
 78148  1  0  0  0
 79 81  1  0  0  0
 79149  1  0  0  0
 80150  1  0  0  0
 81 83  1  0  0  0
 81 84  2  0  0  0
 82151  1  0  0  0
 82152  1  0  0  0
 82153  1  0  0  0
 83154  1  0  0  0
 83155  1  0  0  0
M  ISO  4   1 100  68 101  80 100  83 101
M  END
> <chiral flag>
0

> <version>
0

> <s_m_source_file>
/data/baiqing/PycharmProjects/Reinvent-master-3.2/result/LINK_invent/BTK/process_docking_weight1_custom_product_contain_oxygen_bond_distance_aromatic_linkinvent_7_9_3/rearranged_h_0122.sdf

> <i_m_source_file_index>
93

> <r_mmod_Potential_Energy-OPLS-2005>
31.031099319458

> <r_mmod_Stretch_Energy-OPLS-2005>
39.1952590942383

> <r_mmod_Bend_Energy-OPLS-2005>
90.5258331298828

> <r_mmod_Torsional_Energy-OPLS-2005>
250.367858886719

> <r_mmod_Improper_Torsional_Energy-OPLS-2005>
11.1408357620239

> <r_mmod_Van_der_Waal_Energy-OPLS-2005>
159.467651367188

> <r_mmod_Electrostatic_Energy-OPLS-2005>
-330.033905029297

> <r_mmod_Solvation_Energy-OPLS-2005>
-211.935211181641

> <b_mmod_Minimization_Converged-OPLS-2005>
0

> <r_mmod_RMS_Derivative-OPLS-2005>
3.19223308563232

$$$$
93
                    3D
 Structure written by MMmdl.
149157  0  0  1  0            999 V2000
  -30.6688  -14.5699   20.6292 C   0  0  0  0  0  0
  -30.4409  -12.3876   19.4307 C   0  0  0  0  0  0
  -29.5040  -12.5340   18.2119 C   0  0  0  0  0  0
  -28.0272  -12.3638   18.6211 C   0  0  0  0  0  0
  -27.6612  -13.2084   19.8694 C   0  0  2  0  0  0
  -28.7003  -13.0006   20.9918 C   0  0  0  0  0  0
  -25.2600  -13.8158   20.5674 C   0  0  0  0  0  0
  -24.1849  -13.0438   20.9161 C   0  0  0  0  0  0
  -24.6394  -11.6904   20.8719 C   0  0  0  0  0  0
  -23.9056  -10.4295   21.0400 C   0  0  0  0  0  0
  -24.3610   -9.4215   21.9182 C   0  0  0  0  0  0
  -23.6286   -8.2248   22.0757 C   0  0  0  0  0  0
  -22.4271   -8.0283   21.3543 C   0  0  0  0  0  0
  -21.9898   -9.0261   20.4653 C   0  0  0  0  0  0
  -22.7224  -10.2140   20.3057 C   0  0  0  0  0  0
  -21.6851   -6.0731   22.5277 C   0  0  0  0  0  0
  -21.4013   -6.5637   23.8211 C   0  0  0  0  0  0
  -21.3661   -5.6793   24.9178 C   0  0  0  0  0  0
  -21.6047   -4.3055   24.7224 C   0  0  0  0  0  0
  -21.8822   -3.8141   23.4346 C   0  0  0  0  0  0
  -21.9192   -4.6959   22.3402 C   0  0  0  0  0  0
  -22.7872  -13.5251   21.1831 C   0  0  0  0  0  0
  -22.1665   -4.2145   21.0979 F   0  0  0  0  0  0
  -21.5626   -3.4536   25.7736 F   0  0  0  0  0  0
  -30.0269  -13.3668   20.4568 N   0  0  0  0  0  0
  -26.3026  -12.9320   20.3322 N   0  0  0  0  0  0
  -25.9324  -11.6479   20.5732 N   0  0  0  0  0  0
  -22.0509  -12.8264   22.0399 N   0  0  0  0  0  0
  -25.4357  -15.1876   20.4120 N   0  0  0  0  0  0
  -31.7215  -14.8198   20.0338 O   0  0  0  0  0  0
  -21.6641   -6.8876   21.4236 O   0  0  0  0  0  0
  -22.3565  -14.5556   20.6680 O   0  0  0  0  0  0
  -24.6234  -31.8605   23.2031 C   0  0  0  0  0  0
  -25.9091  -32.4780   23.8355 C   0  0  1  0  0  0
  -27.2342  -27.3488   20.1188 C   0  0  0  0  0  0
  -25.5909  -33.8579   24.2283 N   0  0  0  0  0  0
  -23.4164  -30.4830   21.5444 C   0  0  2  0  0  0
  -24.8651  -28.9359   20.1157 C   0  0  0  0  0  0
  -22.7461  -29.4629   22.4943 C   0  0  0  0  0  0
  -18.0285  -28.1389   22.8484 C   0  0  0  0  0  0
  -24.1486  -36.7304   23.2637 C   0  0  0  0  0  0
  -25.9539  -30.8018   21.3683 C   0  0  0  0  0  0
  -26.0314  -29.4289   20.7155 C   0  0  0  0  0  0
  -27.2212  -28.6478   20.7047 C   0  0  0  0  0  0
  -26.0491  -26.8969   19.4984 C   0  0  0  0  0  0
  -24.8740  -27.6734   19.4993 C   0  0  0  0  0  0
  -23.6309  -29.8130   20.1615 C   0  0  0  0  0  0
  -25.4106  -36.3085   24.0330 C   0  0  1  0  0  0
  -20.5881  -28.3690   23.1289 C   0  0  2  0  0  0
  -20.6772  -26.9414   22.5416 C   0  0  0  0  0  0
  -19.5750  -26.6384   21.5217 C   0  0  0  0  0  0
  -18.1929  -26.7934   22.1628 C   0  0  0  0  0  0
  -19.1536  -28.8857   23.2883 C   0  0  0  0  0  0
  -18.9458  -30.1458   23.8900 C   0  0  0  0  0  0
  -17.6459  -30.6589   24.0567 C   0  0  0  0  0  0
  -25.9040  -34.9451   23.5110 C   0  0  0  0  0  0
  -16.5351  -29.9091   23.6327 C   0  0  0  0  0  0
  -16.7271  -28.6510   23.0343 C   0  0  0  0  0  0
  -26.4484  -31.6588   25.0717 C   0  0  0  0  0  0
  -25.3729  -31.3731   26.1457 C   0  0  0  0  0  0
  -27.0316  -30.3011   24.6156 C   0  0  0  0  0  0
  -27.6051  -32.4319   25.7482 C   0  0  0  0  0  0
  -27.5580  -37.1800   24.8458 C   0  0  0  0  0  0
  -21.4177  -29.3042   22.3683 N   0  0  0  0  0  0
  -26.4286  -37.3778   23.9411 N   0  0  0  0  0  0
  -24.6830  -31.0647   22.0961 N   0  0  0  0  0  0
  -23.4195  -28.8171   23.3017 O   0  0  0  0  0  0
  -28.3653  -26.5318   20.1224 O   0  0  0  0  0  0
  -26.5614  -34.8918   22.4680 O   0  0  0  0  0  0
  -23.5405  -32.1385   23.7381 O   0  0  0  0  0  0
  -29.5407  -19.3393   21.0891 C   0  0  0  0  0  0
  -30.4453  -19.2453   19.0675 C   0  0  0  0  0  0
  -29.8880  -20.1370   19.9487 C   0  0  0  0  0  0
  -29.9278  -18.0296   20.8322 C   0  0  0  0  0  0
  -29.7185  -21.6159   19.6645 C   0  0  0  0  0  0
  -29.8266  -16.8212   21.6445 C   0  0  0  0  0  0
  -29.0950  -22.6222   20.3545 C   0  0  0  0  0  0
  -30.0738  -15.4704   21.6365 C   0  0  0  0  0  0
  -29.0699  -24.0646   19.8733 C   0  0  0  0  0  0
  -28.1862  -25.1449   20.5950 C   0  0  0  0  0  0
  -29.7400  -24.4256   18.8995 O   0  0  0  0  0  0
  -30.4754  -17.9699   19.5845 O   0  0  0  0  0  0
  -31.4804  -12.5219   19.1264 H   0  0  0  0  0  0
  -30.3841  -11.3765   19.8365 H   0  0  0  0  0  0
  -29.7647  -11.8039   17.4446 H   0  0  0  0  0  0
  -29.6476  -13.5159   17.7581 H   0  0  0  0  0  0
  -27.8577  -11.3062   18.8266 H   0  0  0  0  0  0
  -27.3734  -12.6186   17.7857 H   0  0  0  0  0  0
  -27.7007  -14.2560   19.5686 H   0  0  0  0  0  0
  -28.7083  -11.9571   21.3091 H   0  0  0  0  0  0
  -28.4019  -13.5595   21.8763 H   0  0  0  0  0  0
  -25.2765   -9.5686   22.4750 H   0  0  0  0  0  0
  -23.9993   -7.4643   22.7482 H   0  0  0  0  0  0
  -21.0822   -8.8779   19.8971 H   0  0  0  0  0  0
  -22.3681  -10.9677   19.6158 H   0  0  0  0  0  0
  -21.2008   -7.6148   23.9709 H   0  0  0  0  0  0
  -21.1481   -6.0529   25.9080 H   0  0  0  0  0  0
  -22.0597   -2.7602   23.2850 H   0  0  0  0  0  0
  -22.4109  -11.9925   22.4799 H   0  0  0  0  0  0
  -21.1134  -13.1317   22.2595 H   0  0  0  0  0  0
  -24.6789  -15.8523   20.5318 H   0  0  0  0  0  0
  -26.3047  -15.6228   20.1270 H   0  0  0  0  0  0
  -26.7161  -32.5468   23.1112 H   0  0  0  0  0  0
  -25.0045  -33.9720   25.0419 H   0  0  0  0  0  0
  -22.7089  -31.3021   21.3995 H   0  0  0  0  0  0
  -23.3736  -35.9649   23.3298 H   0  0  0  0  0  0
  -24.3578  -36.8924   22.2051 H   0  0  0  0  0  0
  -23.7255  -37.6514   23.6658 H   0  0  0  0  0  0
  -26.0780  -31.5637   20.5977 H   0  0  0  0  0  0
  -26.8377  -30.8550   21.9928 H   0  0  0  0  0  0
  -28.1205  -29.0255   21.1716 H   0  0  0  0  0  0
  -26.0268  -25.9348   19.0066 H   0  0  0  0  0  0
  -23.9818  -27.2912   19.0227 H   0  0  0  0  0  0
  -23.7474  -30.5866   19.4013 H   0  0  0  0  0  0
  -22.7523  -29.2385   19.8621 H   0  0  0  0  0  0
  -25.1285  -36.1936   25.0823 H   0  0  0  0  0  0
  -20.9973  -28.3266   24.1410 H   0  0  0  0  0  0
  -20.5673  -26.2299   23.3614 H   0  0  0  0  0  0
  -21.6643  -26.7440   22.1213 H   0  0  0  0  0  0
  -19.6911  -25.6296   21.1245 H   0  0  0  0  0  0
  -19.6689  -27.3191   20.6745 H   0  0  0  0  0  0
  -17.4197  -26.6673   21.4035 H   0  0  0  0  0  0
  -18.0330  -26.0083   22.9031 H   0  0  0  0  0  0
  -19.7930  -30.7277   24.2271 H   0  0  0  0  0  0
  -17.5010  -31.6267   24.5172 H   0  0  0  0  0  0
  -15.5353  -30.2996   23.7649 H   0  0  0  0  0  0
  -15.8671  -28.0838   22.7050 H   0  0  0  0  0  0
  -24.5895  -30.7082   25.7799 H   0  0  0  0  0  0
  -24.8931  -32.2902   26.4886 H   0  0  0  0  0  0
  -25.8065  -30.8911   27.0228 H   0  0  0  0  0  0
  -26.2883  -29.6771   24.1180 H   0  0  0  0  0  0
  -27.4011  -29.7257   25.4654 H   0  0  0  0  0  0
  -27.8752  -30.4292   23.9370 H   0  0  0  0  0  0
  -27.2661  -33.3606   26.2084 H   0  0  0  0  0  0
  -28.3849  -32.6904   25.0305 H   0  0  0  0  0  0
  -28.0735  -31.8432   26.5379 H   0  0  0  0  0  0
  -28.2589  -38.0105   24.7511 H   0  0  0  0  0  0
  -28.1085  -36.2637   24.6268 H   0  0  0  0  0  0
  -27.2303  -37.1430   25.8862 H   0  0  0  0  0  0
  -20.9353  -29.8765   21.6895 H   0  0  0  0  0  0
  -26.0165  -38.2849   24.1426 H   0  0  0  0  0  0
  -29.0723  -19.6805   22.0016 H   0  0  0  0  0  0
  -30.8574  -19.3410   18.0720 H   0  0  0  0  0  0
  -30.1936  -21.9131   18.7392 H   0  0  0  0  0  0
  -29.3982  -17.1000   22.5973 H   0  0  0  0  0  0
  -28.5939  -22.4065   21.2863 H   0  0  0  0  0  0
  -29.8100  -14.9811   22.5617 H   0  0  0  0  0  0
  -28.4327  -25.1202   21.6566 H   0  0  0  0  0  0
  -27.1480  -24.8238   20.5221 H   0  0  0  0  0  0
  1 25  1  0  0  0
  1 30  2  0  0  0
  1 78  1  0  0  0
  2  3  1  0  0  0
  2 25  1  0  0  0
  2 83  1  0  0  0
  2 84  1  0  0  0
  3  4  1  0  0  0
  3 85  1  0  0  0
  3 86  1  0  0  0
  4  5  1  0  0  0
  4 87  1  0  0  0
  4 88  1  0  0  0
  5  6  1  0  0  0
  5 26  1  0  0  0
  5 89  1  0  0  0
  6 25  1  0  0  0
  6 90  1  0  0  0
  6 91  1  0  0  0
  7  8  2  0  0  0
  7 26  1  0  0  0
  7 29  1  0  0  0
  8  9  1  0  0  0
  8 22  1  0  0  0
  9 10  1  0  0  0
  9 27  2  0  0  0
 10 11  2  0  0  0
 10 15  1  0  0  0
 11 12  1  0  0  0
 11 92  1  0  0  0
 12 13  2  0  0  0
 12 93  1  0  0  0
 13 14  1  0  0  0
 13 31  1  0  0  0
 14 15  2  0  0  0
 14 94  1  0  0  0
 15 95  1  0  0  0
 16 17  2  0  0  0
 16 21  1  0  0  0
 16 31  1  0  0  0
 17 18  1  0  0  0
 17 96  1  0  0  0
 18 19  2  0  0  0
 18 97  1  0  0  0
 19 20  1  0  0  0
 19 24  1  0  0  0
 20 21  2  0  0  0
 20 98  1  0  0  0
 21 23  1  0  0  0
 22 28  1  0  0  0
 22 32  2  0  0  0
 26 27  1  0  0  0
 28 99  1  0  0  0
 28100  1  0  0  0
 29101  1  0  0  0
 29102  1  0  0  0
 33 34  1  0  0  0
 33 66  1  0  0  0
 33 70  2  0  0  0
 34 36  1  0  0  0
 34 59  1  0  0  0
 34103  1  0  0  0
 35 44  2  0  0  0
 35 45  1  0  0  0
 35 68  1  0  0  0
 36 56  1  0  0  0
 36104  1  0  0  0
 37 39  1  0  0  0
 37 47  1  0  0  0
 37 66  1  0  0  0
 37105  1  0  0  0
 38 43  2  0  0  0
 38 46  1  0  0  0
 38 47  1  0  0  0
 39 64  1  0  0  0
 39 67  2  0  0  0
 40 52  1  0  0  0
 40 53  2  0  0  0
 40 58  1  0  0  0
 41106  1  0  0  0
 41107  1  0  0  0
 41108  1  0  0  0
 41 48  1  0  0  0
 42 43  1  0  0  0
 42 66  1  0  0  0
 42109  1  0  0  0
 42110  1  0  0  0
 43 44  1  0  0  0
 44111  1  0  0  0
 45 46  2  0  0  0
 45112  1  0  0  0
 46113  1  0  0  0
 47114  1  0  0  0
 47115  1  0  0  0
 48 56  1  0  0  0
 48 65  1  0  0  0
 48116  1  0  0  0
 49 50  1  0  0  0
 49 53  1  0  0  0
 49 64  1  0  0  0
 49117  1  0  0  0
 50 51  1  0  0  0
 50118  1  0  0  0
 50119  1  0  0  0
 51 52  1  0  0  0
 51120  1  0  0  0
 51121  1  0  0  0
 52122  1  0  0  0
 52123  1  0  0  0
 53 54  1  0  0  0
 54 55  2  0  0  0
 54124  1  0  0  0
 55 57  1  0  0  0
 55125  1  0  0  0
 56 69  2  0  0  0
 57 58  2  0  0  0
 57126  1  0  0  0
 58127  1  0  0  0
 59 60  1  0  0  0
 59 61  1  0  0  0
 59 62  1  0  0  0
 60128  1  0  0  0
 60129  1  0  0  0
 60130  1  0  0  0
 61131  1  0  0  0
 61132  1  0  0  0
 61133  1  0  0  0
 62134  1  0  0  0
 62135  1  0  0  0
 62136  1  0  0  0
 63 65  1  0  0  0
 63137  1  0  0  0
 63138  1  0  0  0
 63139  1  0  0  0
 64140  1  0  0  0
 65141  1  0  0  0
 68 80  1  0  0  0
 71 73  1  0  0  0
 71 74  2  0  0  0
 71142  1  0  0  0
 72 73  2  0  0  0
 72 82  1  0  0  0
 72143  1  0  0  0
 73 75  1  0  0  0
 74 76  1  0  0  0
 74 82  1  0  0  0
 75 77  2  0  0  0
 75144  1  0  0  0
 76 78  2  0  0  0
 76145  1  0  0  0
 77 79  1  0  0  0
 77146  1  0  0  0
 78147  1  0  0  0
 79 80  1  0  0  0
 79 81  2  0  0  0
 80148  1  0  0  0
 80149  1  0  0  0
M  ISO  4   1 100  68 101  78 100  80 101
M  END
> <chiral flag>
0

> <version>
0

> <s_m_source_file>
/data/baiqing/PycharmProjects/Reinvent-master-3.2/result/LINK_invent/BTK/process_docking_weight1_custom_product_contain_oxygen_bond_distance_aromatic_linkinvent_7_9_3/rearranged_h_0122.sdf

> <i_m_source_file_index>
94

> <r_mmod_Potential_Energy-OPLS-2005>
28.3917198181152

> <r_mmod_Stretch_Energy-OPLS-2005>
64.451789855957

> <r_mmod_Bend_Energy-OPLS-2005>
158.942764282227

> <r_mmod_Torsional_Energy-OPLS-2005>
194.04704284668

> <r_mmod_Improper_Torsional_Energy-OPLS-2005>
2.42408990859985

> <r_mmod_Van_der_Waal_Energy-OPLS-2005>
123.670516967773

> <r_mmod_Electrostatic_Energy-OPLS-2005>
-319.09326171875

> <r_mmod_Solvation_Energy-OPLS-2005>
-227.331100463867

> <b_mmod_Minimization_Converged-OPLS-2005>
0

> <r_mmod_RMS_Derivative-OPLS-2005>
1.0345344543457

$$$$
94
                    3D
 Structure written by MMmdl.
156164  0  0  1  0            999 V2000
  -30.7564  -14.4124   20.6687 C   0  0  0  0  0  0
  -30.4183  -12.3109   19.4136 C   0  0  0  0  0  0
  -29.4880  -12.5217   18.2040 C   0  0  0  0  0  0
  -28.0137  -12.3734   18.6197 C   0  0  0  0  0  0
  -27.6644  -13.2063   19.8812 C   0  0  2  0  0  0
  -28.7021  -12.9751   21.0025 C   0  0  0  0  0  0
  -25.2602  -13.8161   20.5680 C   0  0  0  0  0  0
  -24.1845  -13.0436   20.9156 C   0  0  0  0  0  0
  -24.6402  -11.6904   20.8733 C   0  0  0  0  0  0
  -23.9069  -10.4291   21.0408 C   0  0  0  0  0  0
  -24.3620   -9.4208   21.9182 C   0  0  0  0  0  0
  -23.6293   -8.2248   22.0763 C   0  0  0  0  0  0
  -22.4278   -8.0282   21.3551 C   0  0  0  0  0  0
  -21.9912   -9.0257   20.4653 C   0  0  0  0  0  0
  -22.7245  -10.2137   20.3056 C   0  0  0  0  0  0
  -21.6844   -6.0735   22.5275 C   0  0  0  0  0  0
  -21.4014   -6.5643   23.8209 C   0  0  0  0  0  0
  -21.3658   -5.6797   24.9171 C   0  0  0  0  0  0
  -21.6041   -4.3060   24.7223 C   0  0  0  0  0  0
  -21.8819   -3.8151   23.4346 C   0  0  0  0  0  0
  -21.9198   -4.6964   22.3399 C   0  0  0  0  0  0
  -22.7872  -13.5245   21.1817 C   0  0  0  0  0  0
  -22.1662   -4.2154   21.0974 F   0  0  0  0  0  0
  -21.5630   -3.4542   25.7734 F   0  0  0  0  0  0
  -30.0386  -13.2757   20.4592 N   0  0  0  0  0  0
  -26.3040  -12.9332   20.3394 N   0  0  0  0  0  0
  -25.9328  -11.6491   20.5778 N   0  0  0  0  0  0
  -22.0514  -12.8239   22.0378 N   0  0  0  0  0  0
  -25.4343  -15.1874   20.4082 N   0  0  0  0  0  0
  -31.8172  -14.6450   20.0794 O   0  0  0  0  0  0
  -21.6642   -6.8882   21.4241 O   0  0  0  0  0  0
  -22.3556  -14.5551   20.6663 O   0  0  0  0  0  0
  -24.6125  -31.8690   23.2109 C   0  0  0  0  0  0
  -25.9018  -32.4827   23.8395 C   0  0  1  0  0  0
  -27.2321  -27.4342   20.0936 C   0  0  0  0  0  0
  -25.5894  -33.8622   24.2336 N   0  0  0  0  0  0
  -23.3992  -30.4922   21.5503 C   0  0  2  0  0  0
  -24.8432  -28.9573   20.1137 C   0  0  0  0  0  0
  -22.7403  -29.4660   22.4997 C   0  0  0  0  0  0
  -18.0274  -28.1378   22.8483 C   0  0  0  0  0  0
  -24.1498  -36.7313   23.2637 C   0  0  0  0  0  0
  -25.9251  -30.8359   21.3594 C   0  0  0  0  0  0
  -26.0014  -29.4682   20.7099 C   0  0  0  0  0  0
  -27.1953  -28.7140   20.6954 C   0  0  0  0  0  0
  -26.0490  -26.9334   19.4980 C   0  0  0  0  0  0
  -24.8601  -27.6904   19.5068 C   0  0  0  0  0  0
  -23.6058  -29.8237   20.1646 C   0  0  0  0  0  0
  -25.4115  -36.3107   24.0337 C   0  0  1  0  0  0
  -20.5852  -28.3660   23.1318 C   0  0  2  0  0  0
  -20.6750  -26.9400   22.5408 C   0  0  0  0  0  0
  -19.5737  -26.6383   21.5199 C   0  0  0  0  0  0
  -18.1917  -26.7919   22.1605 C   0  0  0  0  0  0
  -19.1522  -28.8832   23.2892 C   0  0  0  0  0  0
  -18.9456  -30.1435   23.8903 C   0  0  0  0  0  0
  -17.6466  -30.6581   24.0563 C   0  0  0  0  0  0
  -25.9035  -34.9473   23.5125 C   0  0  0  0  0  0
  -16.5353  -29.9088   23.6327 C   0  0  0  0  0  0
  -16.7262  -28.6507   23.0335 C   0  0  0  0  0  0
  -26.4464  -31.6593   25.0703 C   0  0  0  0  0  0
  -25.3743  -31.3665   26.1460 C   0  0  0  0  0  0
  -27.0292  -30.3051   24.6029 C   0  0  0  0  0  0
  -27.6063  -32.4290   25.7459 C   0  0  0  0  0  0
  -27.5585  -37.1800   24.8461 C   0  0  0  0  0  0
  -21.4132  -29.3026   22.3733 N   0  0  0  0  0  0
  -26.4297  -37.3792   23.9408 N   0  0  0  0  0  0
  -24.6642  -31.0796   22.0996 N   0  0  0  0  0  0
  -23.4185  -28.8211   23.3039 O   0  0  0  0  0  0
  -28.4306  -26.7463   20.1120 O   0  0  0  0  0  0
  -26.5609  -34.8920   22.4697 O   0  0  0  0  0  0
  -23.5319  -32.1435   23.7501 O   0  0  0  0  0  0
  -30.1787  -17.7173   22.0701 C   0  0  0  0  0  0
  -32.1239  -18.7721   23.0929 C   0  0  0  0  0  0
  -32.1866  -16.4044   22.5374 C   0  0  0  0  0  0
  -30.8051  -18.8755   22.6029 C   0  0  0  0  0  0
  -30.8678  -16.4763   22.0293 C   0  0  0  0  0  0
  -32.8131  -17.5483   23.0607 C   0  0  0  0  0  0
  -30.1804  -20.2142   22.6369 C   0  0  0  0  0  0
  -29.2075  -20.6934   21.8390 C   0  0  0  0  0  0
  -28.2031  -24.3915   20.8440 C   0  0  0  0  0  0
  -28.6160  -22.0914   21.9805 C   0  0  0  0  0  0
  -28.7496  -22.9576   20.7040 C   0  0  0  0  0  0
  -28.5043  -25.3721   19.6929 C   0  0  0  0  0  0
  -30.2237  -15.3039   21.5275 N   0  0  0  0  0  0
  -27.5454  -24.7342   21.8343 O   0  0  0  0  0  0
  -34.0800  -17.4718   23.5347 F   0  0  0  0  0  0
  -31.4616  -12.4124   19.1073 H   0  0  0  0  0  0
  -30.3247  -11.2945   19.7983 H   0  0  0  0  0  0
  -29.7283  -11.8063   17.4173 H   0  0  0  0  0  0
  -29.6533  -13.5131   17.7788 H   0  0  0  0  0  0
  -27.8281  -11.3163   18.8115 H   0  0  0  0  0  0
  -27.3594  -12.6519   17.7936 H   0  0  0  0  0  0
  -27.7154  -14.2567   19.5949 H   0  0  0  0  0  0
  -28.6740  -11.9363   21.3345 H   0  0  0  0  0  0
  -28.4515  -13.5652   21.8842 H   0  0  0  0  0  0
  -25.2764   -9.5676   22.4760 H   0  0  0  0  0  0
  -23.9994   -7.4640   22.7486 H   0  0  0  0  0  0
  -21.0844   -8.8780   19.8956 H   0  0  0  0  0  0
  -22.3704  -10.9677   19.6173 H   0  0  0  0  0  0
  -21.2007   -7.6153   23.9710 H   0  0  0  0  0  0
  -21.1476   -6.0529   25.9071 H   0  0  0  0  0  0
  -22.0603   -2.7615   23.2841 H   0  0  0  0  0  0
  -22.4131  -11.9896   22.4752 H   0  0  0  0  0  0
  -21.1140  -13.1278   22.2600 H   0  0  0  0  0  0
  -24.6720  -15.8481   20.5120 H   0  0  0  0  0  0
  -26.2953  -15.6215   20.0974 H   0  0  0  0  0  0
  -26.7077  -32.5569   23.1158 H   0  0  0  0  0  0
  -25.0032  -33.9788   25.0471 H   0  0  0  0  0  0
  -22.6865  -31.3092   21.4123 H   0  0  0  0  0  0
  -23.3749  -35.9654   23.3298 H   0  0  0  0  0  0
  -24.3584  -36.8932   22.2048 H   0  0  0  0  0  0
  -23.7254  -37.6517   23.6660 H   0  0  0  0  0  0
  -26.0287  -31.6016   20.5900 H   0  0  0  0  0  0
  -26.8165  -30.8951   21.9709 H   0  0  0  0  0  0
  -28.0919  -29.1058   21.1549 H   0  0  0  0  0  0
  -26.0148  -25.9684   19.0180 H   0  0  0  0  0  0
  -23.9667  -27.2957   19.0423 H   0  0  0  0  0  0
  -23.7126  -30.5988   19.4055 H   0  0  0  0  0  0
  -22.7301  -29.2426   19.8710 H   0  0  0  0  0  0
  -25.1283  -36.1970   25.0825 H   0  0  0  0  0  0
  -20.9942  -28.3233   24.1445 H   0  0  0  0  0  0
  -20.5648  -26.2280   23.3598 H   0  0  0  0  0  0
  -21.6627  -26.7444   22.1215 H   0  0  0  0  0  0
  -19.6915  -25.6303   21.1220 H   0  0  0  0  0  0
  -19.6686  -27.3200   20.6733 H   0  0  0  0  0  0
  -17.4184  -26.6669   21.4008 H   0  0  0  0  0  0
  -18.0320  -26.0072   22.9008 H   0  0  0  0  0  0
  -19.7938  -30.7217   24.2309 H   0  0  0  0  0  0
  -17.5026  -31.6271   24.5148 H   0  0  0  0  0  0
  -15.5346  -30.2980   23.7652 H   0  0  0  0  0  0
  -15.8661  -28.0814   22.7048 H   0  0  0  0  0  0
  -24.5952  -30.6976   25.7777 H   0  0  0  0  0  0
  -24.8888  -32.2798   26.4915 H   0  0  0  0  0  0
  -25.8107  -30.8835   27.0216 H   0  0  0  0  0  0
  -26.2801  -29.6804   24.1150 H   0  0  0  0  0  0
  -27.4159  -29.7283   25.4438 H   0  0  0  0  0  0
  -27.8593  -30.4380   23.9090 H   0  0  0  0  0  0
  -27.2736  -33.3616   26.2031 H   0  0  0  0  0  0
  -28.3890  -32.6800   25.0285 H   0  0  0  0  0  0
  -28.0718  -31.8408   26.5384 H   0  0  0  0  0  0
  -28.2582  -38.0118   24.7523 H   0  0  0  0  0  0
  -28.1102  -36.2641   24.6267 H   0  0  0  0  0  0
  -27.2301  -37.1420   25.8864 H   0  0  0  0  0  0
  -20.9302  -29.8772   21.6969 H   0  0  0  0  0  0
  -26.0187  -38.2864   24.1431 H   0  0  0  0  0  0
  -29.1661  -17.7829   21.6973 H   0  0  0  0  0  0
  -32.6256  -19.6420   23.4934 H   0  0  0  0  0  0
  -32.7333  -15.4739   22.5349 H   0  0  0  0  0  0
  -30.5531  -20.8680   23.4148 H   0  0  0  0  0  0
  -28.8051  -20.0772   21.0482 H   0  0  0  0  0  0
  -29.0969  -22.6030   22.8176 H   0  0  0  0  0  0
  -27.5643  -21.9869   22.2495 H   0  0  0  0  0  0
  -29.7999  -23.0288   20.4198 H   0  0  0  0  0  0
  -28.2319  -22.4749   19.8745 H   0  0  0  0  0  0
  -27.8809  -25.1541   18.8282 H   0  0  0  0  0  0
  -29.5268  -25.1891   19.3669 H   0  0  0  0  0  0
  -29.2890  -15.1113   21.8570 H   0  0  0  0  0  0
  1 25  1  0  0  0
  1 30  2  0  0  0
  1 83  1  0  0  0
  2  3  1  0  0  0
  2 25  1  0  0  0
  2 86  1  0  0  0
  2 87  1  0  0  0
  3  4  1  0  0  0
  3 88  1  0  0  0
  3 89  1  0  0  0
  4  5  1  0  0  0
  4 90  1  0  0  0
  4 91  1  0  0  0
  5  6  1  0  0  0
  5 26  1  0  0  0
  5 92  1  0  0  0
  6 25  1  0  0  0
  6 93  1  0  0  0
  6 94  1  0  0  0
  7  8  2  0  0  0
  7 26  1  0  0  0
  7 29  1  0  0  0
  8  9  1  0  0  0
  8 22  1  0  0  0
  9 10  1  0  0  0
  9 27  2  0  0  0
 10 11  2  0  0  0
 10 15  1  0  0  0
 11 12  1  0  0  0
 11 95  1  0  0  0
 12 13  2  0  0  0
 12 96  1  0  0  0
 13 14  1  0  0  0
 13 31  1  0  0  0
 14 15  2  0  0  0
 14 97  1  0  0  0
 15 98  1  0  0  0
 16 17  2  0  0  0
 16 21  1  0  0  0
 16 31  1  0  0  0
 17 18  1  0  0  0
 17 99  1  0  0  0
 18 19  2  0  0  0
 18100  1  0  0  0
 19 20  1  0  0  0
 19 24  1  0  0  0
 20 21  2  0  0  0
 20101  1  0  0  0
 21 23  1  0  0  0
 22 28  1  0  0  0
 22 32  2  0  0  0
 26 27  1  0  0  0
 28102  1  0  0  0
 28103  1  0  0  0
 29104  1  0  0  0
 29105  1  0  0  0
 33 34  1  0  0  0
 33 66  1  0  0  0
 33 70  2  0  0  0
 34 36  1  0  0  0
 34 59  1  0  0  0
 34106  1  0  0  0
 35 44  2  0  0  0
 35 45  1  0  0  0
 35 68  1  0  0  0
 36 56  1  0  0  0
 36107  1  0  0  0
 37 39  1  0  0  0
 37 47  1  0  0  0
 37 66  1  0  0  0
 37108  1  0  0  0
 38 43  2  0  0  0
 38 46  1  0  0  0
 38 47  1  0  0  0
 39 64  1  0  0  0
 39 67  2  0  0  0
 40 52  1  0  0  0
 40 53  2  0  0  0
 40 58  1  0  0  0
 41109  1  0  0  0
 41110  1  0  0  0
 41111  1  0  0  0
 41 48  1  0  0  0
 42 43  1  0  0  0
 42 66  1  0  0  0
 42112  1  0  0  0
 42113  1  0  0  0
 43 44  1  0  0  0
 44114  1  0  0  0
 45 46  2  0  0  0
 45115  1  0  0  0
 46116  1  0  0  0
 47117  1  0  0  0
 47118  1  0  0  0
 48 56  1  0  0  0
 48 65  1  0  0  0
 48119  1  0  0  0
 49 50  1  0  0  0
 49 53  1  0  0  0
 49 64  1  0  0  0
 49120  1  0  0  0
 50 51  1  0  0  0
 50121  1  0  0  0
 50122  1  0  0  0
 51 52  1  0  0  0
 51123  1  0  0  0
 51124  1  0  0  0
 52125  1  0  0  0
 52126  1  0  0  0
 53 54  1  0  0  0
 54 55  2  0  0  0
 54127  1  0  0  0
 55 57  1  0  0  0
 55128  1  0  0  0
 56 69  2  0  0  0
 57 58  2  0  0  0
 57129  1  0  0  0
 58130  1  0  0  0
 59 60  1  0  0  0
 59 61  1  0  0  0
 59 62  1  0  0  0
 60131  1  0  0  0
 60132  1  0  0  0
 60133  1  0  0  0
 61134  1  0  0  0
 61135  1  0  0  0
 61136  1  0  0  0
 62137  1  0  0  0
 62138  1  0  0  0
 62139  1  0  0  0
 63 65  1  0  0  0
 63140  1  0  0  0
 63141  1  0  0  0
 63142  1  0  0  0
 64143  1  0  0  0
 65144  1  0  0  0
 68 82  1  0  0  0
 71 74  2  0  0  0
 71 75  1  0  0  0
 71145  1  0  0  0
 72 74  1  0  0  0
 72 76  2  0  0  0
 72146  1  0  0  0
 73 75  2  0  0  0
 73 76  1  0  0  0
 73147  1  0  0  0
 74 77  1  0  0  0
 75 83  1  0  0  0
 76 85  1  0  0  0
 77 78  2  0  0  0
 77148  1  0  0  0
 78 80  1  0  0  0
 78149  1  0  0  0
 79 81  1  0  0  0
 79 82  1  0  0  0
 79 84  2  0  0  0
 80 81  1  0  0  0
 80150  1  0  0  0
 80151  1  0  0  0
 81152  1  0  0  0
 81153  1  0  0  0
 82154  1  0  0  0
 82155  1  0  0  0
 83156  1  0  0  0
M  ISO  4   1 100  68 101  82 101  83 100
M  END
> <chiral flag>
0

> <version>
0

> <s_m_source_file>
/data/baiqing/PycharmProjects/Reinvent-master-3.2/result/LINK_invent/BTK/process_docking_weight1_custom_product_contain_oxygen_bond_distance_aromatic_linkinvent_7_9_3/rearranged_h_0122.sdf

> <i_m_source_file_index>
95

> <r_mmod_Potential_Energy-OPLS-2005>
-24.169282913208

> <r_mmod_Stretch_Energy-OPLS-2005>
36.8052978515625

> <r_mmod_Bend_Energy-OPLS-2005>
100.774032592773

> <r_mmod_Torsional_Energy-OPLS-2005>
211.186126708984

> <r_mmod_Improper_Torsional_Energy-OPLS-2005>
1.84115469455719

> <r_mmod_Van_der_Waal_Energy-OPLS-2005>
154.973937988281

> <r_mmod_Electrostatic_Energy-OPLS-2005>
-313.04541015625

> <r_mmod_Solvation_Energy-OPLS-2005>
-226.306976318359

> <b_mmod_Minimization_Converged-OPLS-2005>
0

> <r_mmod_RMS_Derivative-OPLS-2005>
2.25532412528992

$$$$
95
                    3D
 Structure written by MMmdl.
158166  0  0  1  0            999 V2000
  -30.7687  -14.4343   20.5171 C   0  0  0  0  0  0
  -30.3910  -12.2643   19.4466 C   0  0  0  0  0  0
  -29.4916  -12.4714   18.2130 C   0  0  0  0  0  0
  -28.0096  -12.3534   18.6168 C   0  0  0  0  0  0
  -27.6507  -13.2190   19.8559 C   0  0  2  0  0  0
  -28.6911  -13.0613   20.9880 C   0  0  0  0  0  0
  -25.2545  -13.8197   20.5677 C   0  0  0  0  0  0
  -24.1815  -13.0453   20.9183 C   0  0  0  0  0  0
  -24.6386  -11.6920   20.8728 C   0  0  0  0  0  0
  -23.9062  -10.4297   21.0399 C   0  0  0  0  0  0
  -24.3617   -9.4215   21.9177 C   0  0  0  0  0  0
  -23.6302   -8.2246   22.0758 C   0  0  0  0  0  0
  -22.4283   -8.0279   21.3547 C   0  0  0  0  0  0
  -21.9908   -9.0246   20.4649 C   0  0  0  0  0  0
  -22.7230  -10.2130   20.3053 C   0  0  0  0  0  0
  -21.6850   -6.0734   22.5280 C   0  0  0  0  0  0
  -21.4004   -6.5637   23.8213 C   0  0  0  0  0  0
  -21.3660   -5.6792   24.9174 C   0  0  0  0  0  0
  -21.6051   -4.3060   24.7225 C   0  0  0  0  0  0
  -21.8817   -3.8145   23.4345 C   0  0  0  0  0  0
  -21.9185   -4.6962   22.3402 C   0  0  0  0  0  0
  -22.7836  -13.5237   21.1843 C   0  0  0  0  0  0
  -22.1661   -4.2145   21.0981 F   0  0  0  0  0  0
  -21.5636   -3.4542   25.7740 F   0  0  0  0  0  0
  -30.0263  -13.2988   20.4274 N   0  0  0  0  0  0
  -26.2970  -12.9385   20.3286 N   0  0  0  0  0  0
  -25.9312  -11.6534   20.5734 N   0  0  0  0  0  0
  -22.0470  -12.8235   22.0402 N   0  0  0  0  0  0
  -25.4277  -15.1920   20.4105 N   0  0  0  0  0  0
  -31.9406  -14.4541   20.1321 O   0  0  0  0  0  0
  -21.6644   -6.8881   21.4248 O   0  0  0  0  0  0
  -22.3511  -14.5527   20.6677 O   0  0  0  0  0  0
  -24.6100  -31.8707   23.2128 C   0  0  0  0  0  0
  -25.9010  -32.4833   23.8410 C   0  0  1  0  0  0
  -27.2265  -27.4686   20.1026 C   0  0  0  0  0  0
  -25.5865  -33.8633   24.2326 N   0  0  0  0  0  0
  -23.3950  -30.4945   21.5524 C   0  0  2  0  0  0
  -24.8408  -28.9622   20.1164 C   0  0  0  0  0  0
  -22.7383  -29.4676   22.5015 C   0  0  0  0  0  0
  -18.0261  -28.1370   22.8497 C   0  0  0  0  0  0
  -24.1482  -36.7338   23.2639 C   0  0  0  0  0  0
  -25.9197  -30.8486   21.3591 C   0  0  0  0  0  0
  -25.9984  -29.4858   20.7077 C   0  0  0  0  0  0
  -27.1989  -28.7470   20.6938 C   0  0  0  0  0  0
  -26.0608  -26.9483   19.5058 C   0  0  0  0  0  0
  -24.8650  -27.6914   19.5119 C   0  0  0  0  0  0
  -23.5995  -29.8234   20.1667 C   0  0  0  0  0  0
  -25.4103  -36.3135   24.0334 C   0  0  1  0  0  0
  -20.5850  -28.3652   23.1336 C   0  0  2  0  0  0
  -20.6748  -26.9393   22.5427 C   0  0  0  0  0  0
  -19.5729  -26.6385   21.5218 C   0  0  0  0  0  0
  -18.1906  -26.7918   22.1624 C   0  0  0  0  0  0
  -19.1510  -28.8827   23.2909 C   0  0  0  0  0  0
  -18.9444  -30.1435   23.8912 C   0  0  0  0  0  0
  -17.6449  -30.6579   24.0568 C   0  0  0  0  0  0
  -25.9024  -34.9493   23.5138 C   0  0  0  0  0  0
  -16.5337  -29.9085   23.6329 C   0  0  0  0  0  0
  -16.7253  -28.6502   23.0346 C   0  0  0  0  0  0
  -26.4452  -31.6603   25.0731 C   0  0  0  0  0  0
  -25.3727  -31.3707   26.1490 C   0  0  0  0  0  0
  -27.0293  -30.3052   24.6094 C   0  0  0  0  0  0
  -27.6035  -32.4330   25.7474 C   0  0  0  0  0  0
  -27.5580  -37.1821   24.8457 C   0  0  0  0  0  0
  -21.4118  -29.3030   22.3750 N   0  0  0  0  0  0
  -26.4295  -37.3814   23.9403 N   0  0  0  0  0  0
  -24.6597  -31.0849   22.1002 N   0  0  0  0  0  0
  -23.4180  -28.8228   23.3045 O   0  0  0  0  0  0
  -28.3808  -26.7322   20.1048 O   0  0  0  0  0  0
  -26.5611  -34.8947   22.4716 O   0  0  0  0  0  0
  -23.5309  -32.1446   23.7557 O   0  0  0  0  0  0
  -29.3312  -18.7620   20.6496 C   0  0  0  0  0  0
  -29.2284  -20.1512   20.4035 C   0  0  0  0  0  0
  -31.6512  -19.0723   21.2999 C   0  0  0  0  0  0
  -30.5684  -18.2080   21.0411 C   0  0  0  0  0  0
  -30.3557  -20.9989   20.5427 C   0  0  0  0  0  0
  -31.5641  -20.4551   21.0564 C   0  0  0  0  0  0
  -30.8725  -16.7695   21.0315 C   0  0  0  0  0  0
  -30.0823  -15.6956   20.7976 C   0  0  0  0  0  0
  -29.2193  -23.2798   20.5643 C   0  0  0  0  0  0
  -29.3898  -24.6172   20.5683 C   0  0  0  0  0  0
  -30.3044  -22.4161   20.0754 C   0  0  0  0  0  0
  -32.7999  -21.3087   21.3205 C   0  0  0  0  0  0
  -28.7000  -26.1383   22.4287 C   0  0  0  0  0  0
  -28.3694  -25.6335   21.0171 C   0  0  1  0  0  0
  -31.1667  -22.8541   19.3053 O   0  0  0  0  0  0
  -31.4435  -12.2888   19.1581 H   0  0  0  0  0  0
  -30.2300  -11.2738   19.8760 H   0  0  0  0  0  0
  -29.7324  -11.7325   17.4478 H   0  0  0  0  0  0
  -29.6821  -13.4505   17.7688 H   0  0  0  0  0  0
  -27.8123  -11.3019   18.8294 H   0  0  0  0  0  0
  -27.3653  -12.6154   17.7763 H   0  0  0  0  0  0
  -27.6765  -14.2558   19.5215 H   0  0  0  0  0  0
  -28.6476  -12.0572   21.4109 H   0  0  0  0  0  0
  -28.4757  -13.7436   21.8119 H   0  0  0  0  0  0
  -25.2762   -9.5698   22.4750 H   0  0  0  0  0  0
  -24.0012   -7.4636   22.7481 H   0  0  0  0  0  0
  -21.0834   -8.8760   19.8958 H   0  0  0  0  0  0
  -22.3686  -10.9665   19.6163 H   0  0  0  0  0  0
  -21.1997   -7.6145   23.9713 H   0  0  0  0  0  0
  -21.1491   -6.0523   25.9079 H   0  0  0  0  0  0
  -22.0598   -2.7609   23.2837 H   0  0  0  0  0  0
  -22.4075  -11.9915   22.4826 H   0  0  0  0  0  0
  -21.1088  -13.1273   22.2588 H   0  0  0  0  0  0
  -24.6663  -15.8526   20.5262 H   0  0  0  0  0  0
  -26.2863  -15.6275   20.0978 H   0  0  0  0  0  0
  -26.7085  -32.5554   23.1178 H   0  0  0  0  0  0
  -24.9974  -33.9793   25.0443 H   0  0  0  0  0  0
  -22.6817  -31.3097   21.4144 H   0  0  0  0  0  0
  -23.3738  -35.9677   23.3329 H   0  0  0  0  0  0
  -24.3570  -36.8932   22.2046 H   0  0  0  0  0  0
  -23.7242  -37.6554   23.6642 H   0  0  0  0  0  0
  -26.0276  -31.6161   20.5913 H   0  0  0  0  0  0
  -26.8094  -30.9026   21.9747 H   0  0  0  0  0  0
  -28.0969  -29.1434   21.1475 H   0  0  0  0  0  0
  -26.0801  -25.9711   19.0441 H   0  0  0  0  0  0
  -23.9757  -27.2819   19.0537 H   0  0  0  0  0  0
  -23.6988  -30.5962   19.4033 H   0  0  0  0  0  0
  -22.7257  -29.2364   19.8773 H   0  0  0  0  0  0
  -25.1285  -36.2011   25.0827 H   0  0  0  0  0  0
  -20.9932  -28.3209   24.1460 H   0  0  0  0  0  0
  -20.5659  -26.2258   23.3609 H   0  0  0  0  0  0
  -21.6618  -26.7444   22.1212 H   0  0  0  0  0  0
  -19.6891  -25.6303   21.1232 H   0  0  0  0  0  0
  -19.6673  -27.3213   20.6763 H   0  0  0  0  0  0
  -17.4183  -26.6673   21.4017 H   0  0  0  0  0  0
  -18.0305  -26.0047   22.9008 H   0  0  0  0  0  0
  -19.7927  -30.7240   24.2280 H   0  0  0  0  0  0
  -17.5014  -31.6264   24.5163 H   0  0  0  0  0  0
  -15.5340  -30.2995   23.7645 H   0  0  0  0  0  0
  -15.8649  -28.0832   22.7048 H   0  0  0  0  0  0
  -24.5868  -30.7089   25.7827 H   0  0  0  0  0  0
  -24.8952  -32.2869   26.4975 H   0  0  0  0  0  0
  -25.8070  -30.8836   27.0228 H   0  0  0  0  0  0
  -26.2835  -29.6804   24.1160 H   0  0  0  0  0  0
  -27.4094  -29.7292   25.4542 H   0  0  0  0  0  0
  -27.8655  -30.4388   23.9223 H   0  0  0  0  0  0
  -27.2641  -33.3606   26.2096 H   0  0  0  0  0  0
  -28.3790  -32.6932   25.0256 H   0  0  0  0  0  0
  -28.0763  -31.8438   26.5340 H   0  0  0  0  0  0
  -28.2614  -38.0109   24.7514 H   0  0  0  0  0  0
  -28.1060  -36.2645   24.6270 H   0  0  0  0  0  0
  -27.2301  -37.1456   25.8863 H   0  0  0  0  0  0
  -20.9272  -29.8747   21.6972 H   0  0  0  0  0  0
  -26.0197  -38.2897   24.1411 H   0  0  0  0  0  0
  -28.4839  -18.1224   20.4447 H   0  0  0  0  0  0
  -28.2968  -20.5462   20.0216 H   0  0  0  0  0  0
  -32.6001  -18.6597   21.6159 H   0  0  0  0  0  0
  -31.9317  -16.5853   21.1588 H   0  0  0  0  0  0
  -29.0099  -15.7861   20.7262 H   0  0  0  0  0  0
  -28.3094  -22.8229   20.9241 H   0  0  0  0  0  0
  -30.3239  -25.0413   20.2255 H   0  0  0  0  0  0
  -33.5443  -20.7673   21.9047 H   0  0  0  0  0  0
  -32.5457  -22.2083   21.8827 H   0  0  0  0  0  0
  -33.2729  -21.6053   20.3837 H   0  0  0  0  0  0
  -27.9514  -26.8453   22.7860 H   0  0  0  0  0  0
  -29.6696  -26.6368   22.4591 H   0  0  0  0  0  0
  -28.7255  -25.3104   23.1379 H   0  0  0  0  0  0
  -27.3929  -25.1449   21.0354 H   0  0  0  0  0  0
  1 25  1  0  0  0
  1 30  2  0  0  0
  1 78  1  0  0  0
  2  3  1  0  0  0
  2 25  1  0  0  0
  2 86  1  0  0  0
  2 87  1  0  0  0
  3  4  1  0  0  0
  3 88  1  0  0  0
  3 89  1  0  0  0
  4  5  1  0  0  0
  4 90  1  0  0  0
  4 91  1  0  0  0
  5  6  1  0  0  0
  5 26  1  0  0  0
  5 92  1  0  0  0
  6 25  1  0  0  0
  6 93  1  0  0  0
  6 94  1  0  0  0
  7  8  2  0  0  0
  7 26  1  0  0  0
  7 29  1  0  0  0
  8  9  1  0  0  0
  8 22  1  0  0  0
  9 10  1  0  0  0
  9 27  2  0  0  0
 10 11  2  0  0  0
 10 15  1  0  0  0
 11 12  1  0  0  0
 11 95  1  0  0  0
 12 13  2  0  0  0
 12 96  1  0  0  0
 13 14  1  0  0  0
 13 31  1  0  0  0
 14 15  2  0  0  0
 14 97  1  0  0  0
 15 98  1  0  0  0
 16 17  2  0  0  0
 16 21  1  0  0  0
 16 31  1  0  0  0
 17 18  1  0  0  0
 17 99  1  0  0  0
 18 19  2  0  0  0
 18100  1  0  0  0
 19 20  1  0  0  0
 19 24  1  0  0  0
 20 21  2  0  0  0
 20101  1  0  0  0
 21 23  1  0  0  0
 22 28  1  0  0  0
 22 32  2  0  0  0
 26 27  1  0  0  0
 28102  1  0  0  0
 28103  1  0  0  0
 29104  1  0  0  0
 29105  1  0  0  0
 33 34  1  0  0  0
 33 66  1  0  0  0
 33 70  2  0  0  0
 34 36  1  0  0  0
 34 59  1  0  0  0
 34106  1  0  0  0
 35 44  2  0  0  0
 35 45  1  0  0  0
 35 68  1  0  0  0
 36 56  1  0  0  0
 36107  1  0  0  0
 37 39  1  0  0  0
 37 47  1  0  0  0
 37 66  1  0  0  0
 37108  1  0  0  0
 38 43  2  0  0  0
 38 46  1  0  0  0
 38 47  1  0  0  0
 39 64  1  0  0  0
 39 67  2  0  0  0
 40 52  1  0  0  0
 40 53  2  0  0  0
 40 58  1  0  0  0
 41109  1  0  0  0
 41110  1  0  0  0
 41111  1  0  0  0
 41 48  1  0  0  0
 42 43  1  0  0  0
 42 66  1  0  0  0
 42112  1  0  0  0
 42113  1  0  0  0
 43 44  1  0  0  0
 44114  1  0  0  0
 45 46  2  0  0  0
 45115  1  0  0  0
 46116  1  0  0  0
 47117  1  0  0  0
 47118  1  0  0  0
 48 56  1  0  0  0
 48 65  1  0  0  0
 48119  1  0  0  0
 49 50  1  0  0  0
 49 53  1  0  0  0
 49 64  1  0  0  0
 49120  1  0  0  0
 50 51  1  0  0  0
 50121  1  0  0  0
 50122  1  0  0  0
 51 52  1  0  0  0
 51123  1  0  0  0
 51124  1  0  0  0
 52125  1  0  0  0
 52126  1  0  0  0
 53 54  1  0  0  0
 54 55  2  0  0  0
 54127  1  0  0  0
 55 57  1  0  0  0
 55128  1  0  0  0
 56 69  2  0  0  0
 57 58  2  0  0  0
 57129  1  0  0  0
 58130  1  0  0  0
 59 60  1  0  0  0
 59 61  1  0  0  0
 59 62  1  0  0  0
 60131  1  0  0  0
 60132  1  0  0  0
 60133  1  0  0  0
 61134  1  0  0  0
 61135  1  0  0  0
 61136  1  0  0  0
 62137  1  0  0  0
 62138  1  0  0  0
 62139  1  0  0  0
 63 65  1  0  0  0
 63140  1  0  0  0
 63141  1  0  0  0
 63142  1  0  0  0
 64143  1  0  0  0
 65144  1  0  0  0
 68 84  1  0  0  0
 71 72  2  0  0  0
 71 74  1  0  0  0
 71145  1  0  0  0
 72 75  1  0  0  0
 72146  1  0  0  0
 73 74  2  0  0  0
 73 76  1  0  0  0
 73147  1  0  0  0
 74 77  1  0  0  0
 75 76  2  0  0  0
 75 81  1  0  0  0
 76 82  1  0  0  0
 77 78  2  0  0  0
 77148  1  0  0  0
 78149  1  0  0  0
 79 80  2  0  0  0
 79 81  1  0  0  0
 79150  1  0  0  0
 80 84  1  0  0  0
 80151  1  0  0  0
 81 85  2  0  0  0
 82152  1  0  0  0
 82153  1  0  0  0
 82154  1  0  0  0
 83155  1  0  0  0
 83156  1  0  0  0
 83157  1  0  0  0
 83 84  1  0  0  0
 84158  1  0  0  0
M  ISO  4   1 100  68 101  78 100  84 101
M  END
> <chiral flag>
0

> <version>
0

> <s_m_source_file>
/data/baiqing/PycharmProjects/Reinvent-master-3.2/result/LINK_invent/BTK/process_docking_weight1_custom_product_contain_oxygen_bond_distance_aromatic_linkinvent_7_9_3/rearranged_h_0122.sdf

> <i_m_source_file_index>
96

> <r_mmod_Potential_Energy-OPLS-2005>
27.3473606109619

> <r_mmod_Stretch_Energy-OPLS-2005>
33.4951133728027

> <r_mmod_Bend_Energy-OPLS-2005>
101.420272827148

> <r_mmod_Torsional_Energy-OPLS-2005>
231.841735839844

> <r_mmod_Improper_Torsional_Energy-OPLS-2005>
9.65328121185303

> <r_mmod_Van_der_Waal_Energy-OPLS-2005>
165.835968017578

> <r_mmod_Electrostatic_Energy-OPLS-2005>
-332.837738037109

> <r_mmod_Solvation_Energy-OPLS-2005>
-202.66780090332

> <b_mmod_Minimization_Converged-OPLS-2005>
0

> <r_mmod_RMS_Derivative-OPLS-2005>
1.4435441493988

$$$$
96
                    3D
 Structure written by MMmdl.
159167  0  0  1  0            999 V2000
  -30.6645  -14.4633   20.5538 C   0  0  0  0  0  0
  -30.4359  -12.2951   19.4140 C   0  0  0  0  0  0
  -29.5023  -12.4953   18.2012 C   0  0  0  0  0  0
  -28.0195  -12.3658   18.6090 C   0  0  0  0  0  0
  -27.6651  -13.1954   19.8727 C   0  0  2  0  0  0
  -28.7047  -12.9472   20.9891 C   0  0  0  0  0  0
  -25.2620  -13.8126   20.5658 C   0  0  0  0  0  0
  -24.1859  -13.0418   20.9157 C   0  0  0  0  0  0
  -24.6395  -11.6881   20.8707 C   0  0  0  0  0  0
  -23.9056  -10.4275   21.0395 C   0  0  0  0  0  0
  -24.3613   -9.4192   21.9176 C   0  0  0  0  0  0
  -23.6290   -8.2232   22.0747 C   0  0  0  0  0  0
  -22.4263   -8.0276   21.3547 C   0  0  0  0  0  0
  -21.9903   -9.0249   20.4653 C   0  0  0  0  0  0
  -22.7232  -10.2126   20.3049 C   0  0  0  0  0  0
  -21.6847   -6.0733   22.5281 C   0  0  0  0  0  0
  -21.4014   -6.5633   23.8216 C   0  0  0  0  0  0
  -21.3653   -5.6784   24.9180 C   0  0  0  0  0  0
  -21.6042   -4.3050   24.7228 C   0  0  0  0  0  0
  -21.8820   -3.8149   23.4343 C   0  0  0  0  0  0
  -21.9196   -4.6962   22.3400 C   0  0  0  0  0  0
  -22.7887  -13.5227   21.1842 C   0  0  0  0  0  0
  -22.1663   -4.2152   21.0979 F   0  0  0  0  0  0
  -21.5626   -3.4531   25.7737 F   0  0  0  0  0  0
  -30.0376  -13.2634   20.4442 N   0  0  0  0  0  0
  -26.3043  -12.9277   20.3327 N   0  0  0  0  0  0
  -25.9316  -11.6441   20.5716 N   0  0  0  0  0  0
  -22.0522  -12.8227   22.0403 N   0  0  0  0  0  0
  -25.4349  -15.1855   20.4104 N   0  0  0  0  0  0
  -31.8060  -14.6731   20.1344 O   0  0  0  0  0  0
  -21.6627   -6.8876   21.4243 O   0  0  0  0  0  0
  -22.3569  -14.5536   20.6698 O   0  0  0  0  0  0
  -24.6135  -31.8688   23.2098 C   0  0  0  0  0  0
  -25.9030  -32.4824   23.8395 C   0  0  1  0  0  0
  -27.2407  -27.4487   20.1006 C   0  0  0  0  0  0
  -25.5895  -33.8622   24.2330 N   0  0  0  0  0  0
  -23.4017  -30.4902   21.5505 C   0  0  2  0  0  0
  -24.8510  -28.9509   20.1211 C   0  0  0  0  0  0
  -22.7398  -29.4668   22.5007 C   0  0  0  0  0  0
  -18.0276  -28.1392   22.8493 C   0  0  0  0  0  0
  -24.1488  -36.7307   23.2639 C   0  0  0  0  0  0
  -25.9281  -30.8365   21.3619 C   0  0  0  0  0  0
  -26.0082  -29.4689   20.7173 C   0  0  0  0  0  0
  -27.2084  -28.7234   20.7075 C   0  0  0  0  0  0
  -26.0714  -26.9372   19.5054 C   0  0  0  0  0  0
  -24.8748  -27.6814   19.5145 C   0  0  0  0  0  0
  -23.6114  -29.8165   20.1676 C   0  0  0  0  0  0
  -25.4103  -36.3108   24.0346 C   0  0  1  0  0  0
  -20.5867  -28.3672   23.1330 C   0  0  2  0  0  0
  -20.6763  -26.9407   22.5437 C   0  0  0  0  0  0
  -19.5750  -26.6401   21.5222 C   0  0  0  0  0  0
  -18.1925  -26.7944   22.1618 C   0  0  0  0  0  0
  -19.1526  -28.8844   23.2910 C   0  0  0  0  0  0
  -18.9453  -30.1454   23.8911 C   0  0  0  0  0  0
  -17.6457  -30.6590   24.0580 C   0  0  0  0  0  0
  -25.9028  -34.9477   23.5130 C   0  0  0  0  0  0
  -16.5347  -29.9095   23.6337 C   0  0  0  0  0  0
  -16.7267  -28.6521   23.0336 C   0  0  0  0  0  0
  -26.4459  -31.6595   25.0717 C   0  0  0  0  0  0
  -25.3734  -31.3732   26.1486 C   0  0  0  0  0  0
  -27.0270  -30.3029   24.6081 C   0  0  0  0  0  0
  -27.6057  -32.4296   25.7455 C   0  0  0  0  0  0
  -27.5585  -37.1803   24.8457 C   0  0  0  0  0  0
  -21.4131  -29.3033   22.3725 N   0  0  0  0  0  0
  -26.4287  -37.3795   23.9420 N   0  0  0  0  0  0
  -24.6658  -31.0803   22.0993 N   0  0  0  0  0  0
  -23.4166  -28.8214   23.3056 O   0  0  0  0  0  0
  -28.3988  -26.7140   20.0456 O   0  0  0  0  0  0
  -26.5582  -34.8922   22.4685 O   0  0  0  0  0  0
  -23.5328  -32.1433   23.7498 O   0  0  0  0  0  0
  -30.0211  -18.8709   19.4327 C   0  0  0  0  0  0
  -30.1452  -19.0658   21.8466 C   0  0  0  0  0  0
  -30.1394  -19.6879   20.5787 C   0  0  0  0  0  0
  -29.9286  -17.4623   19.5323 C   0  0  0  0  0  0
  -30.0099  -16.8465   20.8141 C   0  0  0  0  0  0
  -30.0964  -17.6624   21.9625 C   0  0  0  0  0  0
  -30.2204  -21.1580   20.4274 C   0  0  0  0  0  0
  -29.8110  -22.0761   21.3270 C   0  0  0  0  0  0
  -28.8643  -24.3562   20.5455 C   0  0  0  0  0  0
  -30.9234  -16.5012   17.3804 C   0  0  0  0  0  0
  -29.6709  -16.6773   18.2494 C   0  0  0  0  0  0
  -30.0192  -23.5862   21.2080 C   0  0  0  0  0  0
  -28.5452  -25.7574   21.1021 C   0  0  0  0  0  0
  -29.8743  -15.4454   21.0174 N   0  0  0  0  0  0
  -28.2349  -23.8821   19.5938 O   0  0  0  0  0  0
  -30.1224  -17.0923   23.1921 F   0  0  0  0  0  0
  -31.4785  -12.4138   19.1124 H   0  0  0  0  0  0
  -30.3514  -11.2799   19.8038 H   0  0  0  0  0  0
  -29.7390  -11.7672   17.4241 H   0  0  0  0  0  0
  -29.6806  -13.4753   17.7566 H   0  0  0  0  0  0
  -27.8208  -11.3093   18.7950 H   0  0  0  0  0  0
  -27.3761  -12.6541   17.7767 H   0  0  0  0  0  0
  -27.7132  -14.2458   19.5878 H   0  0  0  0  0  0
  -28.6771  -11.9028   21.3019 H   0  0  0  0  0  0
  -28.4664  -13.5220   21.8853 H   0  0  0  0  0  0
  -25.2768   -9.5666   22.4737 H   0  0  0  0  0  0
  -24.0009   -7.4612   22.7456 H   0  0  0  0  0  0
  -21.0837   -8.8775   19.8957 H   0  0  0  0  0  0
  -22.3702  -10.9662   19.6152 H   0  0  0  0  0  0
  -21.2003   -7.6134   23.9722 H   0  0  0  0  0  0
  -21.1472   -6.0512   25.9086 H   0  0  0  0  0  0
  -22.0605   -2.7613   23.2844 H   0  0  0  0  0  0
  -22.4117  -11.9880   22.4794 H   0  0  0  0  0  0
  -21.1157  -13.1295   22.2616 H   0  0  0  0  0  0
  -24.6705  -15.8416   20.5273 H   0  0  0  0  0  0
  -26.2914  -15.6303   20.1050 H   0  0  0  0  0  0
  -26.7104  -32.5554   23.1172 H   0  0  0  0  0  0
  -25.0071  -33.9783   25.0488 H   0  0  0  0  0  0
  -22.6903  -31.3065   21.4089 H   0  0  0  0  0  0
  -23.3748  -35.9641   23.3304 H   0  0  0  0  0  0
  -24.3593  -36.8909   22.2054 H   0  0  0  0  0  0
  -23.7232  -37.6513   23.6640 H   0  0  0  0  0  0
  -26.0373  -31.5981   20.5882 H   0  0  0  0  0  0
  -26.8166  -30.8958   21.9782 H   0  0  0  0  0  0
  -28.1050  -29.1240   21.1592 H   0  0  0  0  0  0
  -26.0932  -25.9664   19.0306 H   0  0  0  0  0  0
  -23.9868  -27.2739   19.0521 H   0  0  0  0  0  0
  -23.7199  -30.5874   19.4042 H   0  0  0  0  0  0
  -22.7368  -29.2339   19.8747 H   0  0  0  0  0  0
  -25.1273  -36.1975   25.0838 H   0  0  0  0  0  0
  -20.9973  -28.3255   24.1446 H   0  0  0  0  0  0
  -20.5682  -26.2275   23.3624 H   0  0  0  0  0  0
  -21.6639  -26.7467   22.1230 H   0  0  0  0  0  0
  -19.6911  -25.6316   21.1245 H   0  0  0  0  0  0
  -19.6702  -27.3220   20.6755 H   0  0  0  0  0  0
  -17.4213  -26.6723   21.3996 H   0  0  0  0  0  0
  -18.0295  -26.0072   22.8994 H   0  0  0  0  0  0
  -19.7930  -30.7275   24.2278 H   0  0  0  0  0  0
  -17.5013  -31.6270   24.5183 H   0  0  0  0  0  0
  -15.5345  -30.3000   23.7648 H   0  0  0  0  0  0
  -15.8671  -28.0851   22.7022 H   0  0  0  0  0  0
  -24.5887  -30.7084   25.7857 H   0  0  0  0  0  0
  -24.8947  -32.2908   26.4920 H   0  0  0  0  0  0
  -25.8102  -30.8928   27.0251 H   0  0  0  0  0  0
  -26.2805  -29.6807   24.1134 H   0  0  0  0  0  0
  -27.4036  -29.7249   25.4530 H   0  0  0  0  0  0
  -27.8645  -30.4341   23.9223 H   0  0  0  0  0  0
  -27.2704  -33.3594   26.2058 H   0  0  0  0  0  0
  -28.3840  -32.6852   25.0254 H   0  0  0  0  0  0
  -28.0748  -31.8398   26.5340 H   0  0  0  0  0  0
  -28.2611  -38.0094   24.7514 H   0  0  0  0  0  0
  -28.1074  -36.2632   24.6259 H   0  0  0  0  0  0
  -27.2327  -37.1447   25.8867 H   0  0  0  0  0  0
  -20.9284  -29.8727   21.6928 H   0  0  0  0  0  0
  -26.0179  -38.2877   24.1412 H   0  0  0  0  0  0
  -29.9706  -19.3352   18.4572 H   0  0  0  0  0  0
  -30.2143  -19.6562   22.7483 H   0  0  0  0  0  0
  -30.6955  -21.5078   19.5215 H   0  0  0  0  0  0
  -29.3028  -21.7524   22.2245 H   0  0  0  0  0  0
  -30.6879  -15.9455   16.4719 H   0  0  0  0  0  0
  -31.7034  -15.9524   17.9036 H   0  0  0  0  0  0
  -31.3382  -17.4633   17.0807 H   0  0  0  0  0  0
  -28.9127  -17.2066   17.6714 H   0  0  0  0  0  0
  -29.2264  -15.7091   18.4682 H   0  0  0  0  0  0
  -30.9198  -23.7721   20.6233 H   0  0  0  0  0  0
  -30.2070  -23.9916   22.2028 H   0  0  0  0  0  0
  -29.3500  -26.0837   21.7608 H   0  0  0  0  0  0
  -27.6401  -25.6931   21.7076 H   0  0  0  0  0  0
  -29.0275  -15.1473   21.4766 H   0  0  0  0  0  0
  1 25  1  0  0  0
  1 30  2  0  0  0
  1 84  1  0  0  0
  2  3  1  0  0  0
  2 25  1  0  0  0
  2 87  1  0  0  0
  2 88  1  0  0  0
  3  4  1  0  0  0
  3 89  1  0  0  0
  3 90  1  0  0  0
  4  5  1  0  0  0
  4 91  1  0  0  0
  4 92  1  0  0  0
  5  6  1  0  0  0
  5 26  1  0  0  0
  5 93  1  0  0  0
  6 25  1  0  0  0
  6 94  1  0  0  0
  6 95  1  0  0  0
  7  8  2  0  0  0
  7 26  1  0  0  0
  7 29  1  0  0  0
  8  9  1  0  0  0
  8 22  1  0  0  0
  9 10  1  0  0  0
  9 27  2  0  0  0
 10 11  2  0  0  0
 10 15  1  0  0  0
 11 12  1  0  0  0
 11 96  1  0  0  0
 12 13  2  0  0  0
 12 97  1  0  0  0
 13 14  1  0  0  0
 13 31  1  0  0  0
 14 15  2  0  0  0
 14 98  1  0  0  0
 15 99  1  0  0  0
 16 17  2  0  0  0
 16 21  1  0  0  0
 16 31  1  0  0  0
 17 18  1  0  0  0
 17100  1  0  0  0
 18 19  2  0  0  0
 18101  1  0  0  0
 19 20  1  0  0  0
 19 24  1  0  0  0
 20 21  2  0  0  0
 20102  1  0  0  0
 21 23  1  0  0  0
 22 28  1  0  0  0
 22 32  2  0  0  0
 26 27  1  0  0  0
 28103  1  0  0  0
 28104  1  0  0  0
 29105  1  0  0  0
 29106  1  0  0  0
 33 34  1  0  0  0
 33 66  1  0  0  0
 33 70  2  0  0  0
 34 36  1  0  0  0
 34 59  1  0  0  0
 34107  1  0  0  0
 35 44  2  0  0  0
 35 45  1  0  0  0
 35 68  1  0  0  0
 36 56  1  0  0  0
 36108  1  0  0  0
 37 39  1  0  0  0
 37 47  1  0  0  0
 37 66  1  0  0  0
 37109  1  0  0  0
 38 43  2  0  0  0
 38 46  1  0  0  0
 38 47  1  0  0  0
 39 64  1  0  0  0
 39 67  2  0  0  0
 40 52  1  0  0  0
 40 53  2  0  0  0
 40 58  1  0  0  0
 41110  1  0  0  0
 41111  1  0  0  0
 41112  1  0  0  0
 41 48  1  0  0  0
 42 43  1  0  0  0
 42 66  1  0  0  0
 42113  1  0  0  0
 42114  1  0  0  0
 43 44  1  0  0  0
 44115  1  0  0  0
 45 46  2  0  0  0
 45116  1  0  0  0
 46117  1  0  0  0
 47118  1  0  0  0
 47119  1  0  0  0
 48 56  1  0  0  0
 48 65  1  0  0  0
 48120  1  0  0  0
 49 50  1  0  0  0
 49 53  1  0  0  0
 49 64  1  0  0  0
 49121  1  0  0  0
 50 51  1  0  0  0
 50122  1  0  0  0
 50123  1  0  0  0
 51 52  1  0  0  0
 51124  1  0  0  0
 51125  1  0  0  0
 52126  1  0  0  0
 52127  1  0  0  0
 53 54  1  0  0  0
 54 55  2  0  0  0
 54128  1  0  0  0
 55 57  1  0  0  0
 55129  1  0  0  0
 56 69  2  0  0  0
 57 58  2  0  0  0
 57130  1  0  0  0
 58131  1  0  0  0
 59 60  1  0  0  0
 59 61  1  0  0  0
 59 62  1  0  0  0
 60132  1  0  0  0
 60133  1  0  0  0
 60134  1  0  0  0
 61135  1  0  0  0
 61136  1  0  0  0
 61137  1  0  0  0
 62138  1  0  0  0
 62139  1  0  0  0
 62140  1  0  0  0
 63 65  1  0  0  0
 63141  1  0  0  0
 63142  1  0  0  0
 63143  1  0  0  0
 64144  1  0  0  0
 65145  1  0  0  0
 68 83  1  0  0  0
 71 73  2  0  0  0
 71 74  1  0  0  0
 71146  1  0  0  0
 72 73  1  0  0  0
 72 76  2  0  0  0
 72147  1  0  0  0
 73 77  1  0  0  0
 74 75  2  0  0  0
 74 81  1  0  0  0
 75 76  1  0  0  0
 75 84  1  0  0  0
 76 86  1  0  0  0
 77 78  2  0  0  0
 77148  1  0  0  0
 78 82  1  0  0  0
 78149  1  0  0  0
 79 82  1  0  0  0
 79 83  1  0  0  0
 79 85  2  0  0  0
 80 81  1  0  0  0
 80150  1  0  0  0
 80151  1  0  0  0
 80152  1  0  0  0
 81153  1  0  0  0
 81154  1  0  0  0
 82155  1  0  0  0
 82156  1  0  0  0
 83157  1  0  0  0
 83158  1  0  0  0
 84159  1  0  0  0
M  ISO  4   1 100  68 101  83 101  84 100
M  END
> <chiral flag>
0

> <version>
0

> <s_m_source_file>
/data/baiqing/PycharmProjects/Reinvent-master-3.2/result/LINK_invent/BTK/process_docking_weight1_custom_product_contain_oxygen_bond_distance_aromatic_linkinvent_7_9_3/rearranged_h_0122.sdf

> <i_m_source_file_index>
97

> <r_mmod_Potential_Energy-OPLS-2005>
-41.4494400024414

> <r_mmod_Stretch_Energy-OPLS-2005>
35.1294860839844

> <r_mmod_Bend_Energy-OPLS-2005>
91.058952331543

> <r_mmod_Torsional_Energy-OPLS-2005>
273.241302490234

> <r_mmod_Improper_Torsional_Energy-OPLS-2005>
4.59945106506348

> <r_mmod_Van_der_Waal_Energy-OPLS-2005>
139.720397949219

> <r_mmod_Electrostatic_Energy-OPLS-2005>
-381.117889404297

> <r_mmod_Solvation_Energy-OPLS-2005>
-215.645950317383

> <b_mmod_Minimization_Converged-OPLS-2005>
0

> <r_mmod_RMS_Derivative-OPLS-2005>
1.61336553096771

$$$$
