0
                    3D
 Structure written by MMmdl.
150158  0  0  1  0            999 V2000
  -30.2894  -15.6714   20.3143 C   0  0  0  0  0  0
  -30.4253  -13.0988   19.5569 C   0  0  0  0  0  0
  -29.5564  -12.6726   18.3363 C   0  0  0  0  0  0
  -28.1300  -12.3090   18.7732 C   0  0  0  0  0  0
  -27.5980  -13.3148   19.8176 C   0  0  2  0  0  0
  -28.6099  -13.6551   20.9401 C   0  0  0  0  0  0
  -25.2325  -13.8308   20.5792 C   0  0  0  0  0  0
  -24.1714  -13.0445   20.9284 C   0  0  0  0  0  0
  -24.6426  -11.6960   20.8757 C   0  0  0  0  0  0
  -23.9130  -10.4300   21.0388 C   0  0  0  0  0  0
  -24.3662   -9.4214   21.9170 C   0  0  0  0  0  0
  -23.6321   -8.2258   22.0753 C   0  0  0  0  0  0
  -22.4299   -8.0296   21.3550 C   0  0  0  0  0  0
  -21.9948   -9.0269   20.4644 C   0  0  0  0  0  0
  -22.7297  -10.2140   20.3041 C   0  0  0  0  0  0
  -21.6859   -6.0748   22.5282 C   0  0  0  0  0  0
  -21.4028   -6.5646   23.8216 C   0  0  0  0  0  0
  -21.3665   -5.6792   24.9173 C   0  0  0  0  0  0
  -21.6045   -4.3056   24.7220 C   0  0  0  0  0  0
  -21.8814   -3.8151   23.4335 C   0  0  0  0  0  0
  -21.9195   -4.6973   22.3400 C   0  0  0  0  0  0
  -22.7723  -13.5167   21.1907 C   0  0  0  0  0  0
  -22.1661   -4.2167   21.0975 F   0  0  0  0  0  0
  -21.5628   -3.4532   25.7727 F   0  0  0  0  0  0
  -29.7883  -14.2880   20.2969 N   0  0  0  0  0  0
  -26.2779  -12.9647   20.3245 N   0  0  0  0  0  0
  -25.9374  -11.6709   20.5696 N   0  0  0  0  0  0
  -22.0389  -12.8140   22.0465 N   0  0  0  0  0  0
  -25.3913  -15.2044   20.4222 N   0  0  0  0  0  0
  -31.5133  -15.6167   20.0831 O   0  0  0  0  0  0
  -21.6655   -6.8898   21.4247 O   0  0  0  0  0  0
  -22.3385  -14.5452   20.6732 O   0  0  0  0  0  0
  -24.6873  -31.7941   23.1464 C   0  0  0  0  0  0
  -25.9435  -32.4433   23.8031 C   0  0  1  0  0  0
  -27.2403  -26.6604   20.2195 C   0  0  0  0  0  0
  -25.6002  -33.8263   24.1927 N   0  0  0  0  0  0
  -23.5169  -30.3914   21.5006 C   0  0  2  0  0  0
  -24.9789  -28.7227   20.1165 C   0  0  0  0  0  0
  -22.7789  -29.4274   22.4690 C   0  0  0  0  0  0
  -18.0343  -28.1428   22.8446 C   0  0  0  0  0  0
  -24.1501  -36.7142   23.2651 C   0  0  0  0  0  0
  -26.0986  -30.5123   21.4189 C   0  0  0  0  0  0
  -26.1654  -29.0722   20.7699 C   0  0  0  0  0  0
  -27.2759  -28.0702   20.7880 C   0  0  0  0  0  0
  -26.0209  -26.5292   19.5038 C   0  0  0  0  0  0
  -24.9486  -27.4781   19.4596 C   0  0  0  0  0  0
  -23.7745  -29.6813   20.1386 C   0  0  0  0  0  0
  -25.4153  -36.2880   24.0276 C   0  0  1  0  0  0
  -20.5980  -28.3787   23.1139 C   0  0  2  0  0  0
  -20.6812  -26.9441   22.5410 C   0  0  0  0  0  0
  -19.5789  -26.6372   21.5225 C   0  0  0  0  0  0
  -18.1968  -26.7953   22.1620 C   0  0  0  0  0  0
  -19.1611  -28.8933   23.2767 C   0  0  0  0  0  0
  -18.9513  -30.1517   23.8804 C   0  0  0  0  0  0
  -17.6504  -30.6603   24.0554 C   0  0  0  0  0  0
  -25.9132  -34.9263   23.4945 C   0  0  0  0  0  0
  -16.5392  -29.9083   23.6357 C   0  0  0  0  0  0
  -16.7321  -28.6516   23.0354 C   0  0  0  0  0  0
  -26.4605  -31.6467   25.0658 C   0  0  0  0  0  0
  -25.3662  -31.3821   26.1270 C   0  0  0  0  0  0
  -27.0546  -30.2793   24.6594 C   0  0  0  0  0  0
  -27.6039  -32.4329   25.7481 C   0  0  0  0  0  0
  -27.5568  -37.1722   24.8458 C   0  0  0  0  0  0
  -21.4430  -29.3020   22.3447 N   0  0  0  0  0  0
  -26.4274  -37.3645   23.9404 N   0  0  0  0  0  0
  -24.7913  -30.9340   22.0744 N   0  0  0  0  0  0
  -23.4204  -28.7890   23.3070 O   0  0  0  0  0  0
  -28.2170  -25.4396   20.3296 O   0  0  0  0  0  0
  -26.5775  -34.8848   22.4565 O   0  0  0  0  0  0
  -23.5885  -32.1031   23.6396 O   0  0  0  0  0  0
  -30.1908  -22.3553   23.1043 C   0  0  0  0  0  0
  -30.5549  -21.0313   23.1208 C   0  0  0  0  0  0
  -29.4876  -22.8530   22.0229 C   0  0  0  0  0  0
  -30.2293  -20.1550   22.0768 C   0  0  0  0  0  0
  -29.0227  -22.1457   20.8744 C   0  0  0  0  0  0
  -29.4255  -20.4834   20.9110 C   0  0  0  0  0  0
  -30.8705  -18.7867   22.3260 C   0  0  0  0  0  0
  -29.3730  -18.8125   20.0574 C   0  0  0  0  0  0
  -28.2142  -23.6613   20.0924 C   0  0  0  0  0  0
  -29.5077  -17.0313   20.4124 N   0  0  0  0  0  0
  -31.4219  -13.3547   19.1968 H   0  0  0  0  0  0
  -30.5852  -12.2555   20.2299 H   0  0  0  0  0  0
  -30.0135  -11.8353   17.8075 H   0  0  0  0  0  0
  -29.5176  -13.4984   17.6249 H   0  0  0  0  0  0
  -28.1559  -11.3087   19.2075 H   0  0  0  0  0  0
  -27.4635  -12.2556   17.9119 H   0  0  0  0  0  0
  -27.4597  -14.2347   19.2484 H   0  0  0  0  0  0
  -28.8692  -12.7732   21.5273 H   0  0  0  0  0  0
  -28.1652  -14.3675   21.6360 H   0  0  0  0  0  0
  -25.2802   -9.5684   22.4748 H   0  0  0  0  0  0
  -24.0026   -7.4643   22.7462 H   0  0  0  0  0  0
  -21.0893   -8.8793   19.8933 H   0  0  0  0  0  0
  -22.3762  -10.9678   19.6145 H   0  0  0  0  0  0
  -21.2034   -7.6154   23.9729 H   0  0  0  0  0  0
  -21.1493   -6.0519   25.9080 H   0  0  0  0  0  0
  -22.0588   -2.7614   23.2828 H   0  0  0  0  0  0
  -22.4041  -11.9844   22.4895 H   0  0  0  0  0  0
  -21.0988  -13.1126   22.2639 H   0  0  0  0  0  0
  -24.6157  -15.8500   20.5255 H   0  0  0  0  0  0
  -26.2272  -15.6460   20.0621 H   0  0  0  0  0  0
  -26.7513  -32.4898   23.0735 H   0  0  0  0  0  0
  -25.0073  -33.9301   25.0030 H   0  0  0  0  0  0
  -22.8436  -31.2285   21.3055 H   0  0  0  0  0  0
  -23.3783  -35.9450   23.3250 H   0  0  0  0  0  0
  -24.3572  -36.8871   22.2079 H   0  0  0  0  0  0
  -23.7231  -37.6290   23.6772 H   0  0  0  0  0  0
  -26.3074  -31.2355   20.6290 H   0  0  0  0  0  0
  -26.9470  -30.5825   22.0874 H   0  0  0  0  0  0
  -28.1646  -28.3465   21.3378 H   0  0  0  0  0  0
  -25.8527  -25.5886   18.9990 H   0  0  0  0  0  0
  -24.0542  -27.2024   18.9180 H   0  0  0  0  0  0
  -23.9504  -30.4384   19.3739 H   0  0  0  0  0  0
  -22.8793  -29.1460   19.8169 H   0  0  0  0  0  0
  -25.1363  -36.1644   25.0765 H   0  0  0  0  0  0
  -21.0054  -28.3427   24.1270 H   0  0  0  0  0  0
  -20.5702  -26.2409   23.3676 H   0  0  0  0  0  0
  -21.6671  -26.7395   22.1215 H   0  0  0  0  0  0
  -19.6954  -25.6266   21.1297 H   0  0  0  0  0  0
  -19.6744  -27.3149   20.6730 H   0  0  0  0  0  0
  -17.4246  -26.6694   21.4014 H   0  0  0  0  0  0
  -18.0345  -26.0117   22.9036 H   0  0  0  0  0  0
  -19.7987  -30.7365   24.2121 H   0  0  0  0  0  0
  -17.5050  -31.6269   24.5183 H   0  0  0  0  0  0
  -15.5388  -30.2958   23.7737 H   0  0  0  0  0  0
  -15.8720  -28.0819   22.7099 H   0  0  0  0  0  0
  -24.5842  -30.7187   25.7564 H   0  0  0  0  0  0
  -24.8874  -32.3071   26.4488 H   0  0  0  0  0  0
  -25.7822  -30.9096   27.0179 H   0  0  0  0  0  0
  -26.3278  -29.6368   24.1618 H   0  0  0  0  0  0
  -27.3986  -29.7274   25.5352 H   0  0  0  0  0  0
  -27.9257  -30.3892   24.0131 H   0  0  0  0  0  0
  -27.2564  -33.3691   26.1860 H   0  0  0  0  0  0
  -28.3961  -32.6790   25.0398 H   0  0  0  0  0  0
  -28.0591  -31.8597   26.5566 H   0  0  0  0  0  0
  -28.2536  -38.0063   24.7525 H   0  0  0  0  0  0
  -28.1115  -36.2581   24.6272 H   0  0  0  0  0  0
  -27.2282  -37.1337   25.8859 H   0  0  0  0  0  0
  -20.9751  -29.8645   21.6473 H   0  0  0  0  0  0
  -26.0101  -38.2695   24.1413 H   0  0  0  0  0  0
  -30.4746  -23.0075   23.9190 H   0  0  0  0  0  0
  -31.1274  -20.6971   23.9757 H   0  0  0  0  0  0
  -29.2987  -23.9131   22.1305 H   0  0  0  0  0  0
  -30.1188  -18.0613   22.6343 H   0  0  0  0  0  0
  -31.6036  -18.8032   23.1339 H   0  0  0  0  0  0
  -31.4370  -18.4278   21.4655 H   0  0  0  0  0  0
  -30.0736  -18.9448   19.2311 H   0  0  0  0  0  0
  -28.3994  -18.8604   19.5698 H   0  0  0  0  0  0
  -29.2487  -23.9605   19.9126 H   0  0  0  0  0  0
  -27.5450  -23.7313   20.9522 H   0  0  0  0  0  0
  -28.5779  -16.7480   20.6855 H   0  0  0  0  0  0
  1 25  1  0  0  0
  1 30  2  0  0  0
  1 80  1  0  0  0
  2  3  1  0  0  0
  2 25  1  0  0  0
  2 81  1  0  0  0
  2 82  1  0  0  0
  3  4  1  0  0  0
  3 83  1  0  0  0
  3 84  1  0  0  0
  4  5  1  0  0  0
  4 85  1  0  0  0
  4 86  1  0  0  0
  5  6  1  0  0  0
  5 26  1  0  0  0
  5 87  1  0  0  0
  6 25  1  0  0  0
  6 88  1  0  0  0
  6 89  1  0  0  0
  7  8  2  0  0  0
  7 26  1  0  0  0
  7 29  1  0  0  0
  8  9  1  0  0  0
  8 22  1  0  0  0
  9 10  1  0  0  0
  9 27  2  0  0  0
 10 11  2  0  0  0
 10 15  1  0  0  0
 11 12  1  0  0  0
 11 90  1  0  0  0
 12 13  2  0  0  0
 12 91  1  0  0  0
 13 14  1  0  0  0
 13 31  1  0  0  0
 14 15  2  0  0  0
 14 92  1  0  0  0
 15 93  1  0  0  0
 16 17  2  0  0  0
 16 21  1  0  0  0
 16 31  1  0  0  0
 17 18  1  0  0  0
 17 94  1  0  0  0
 18 19  2  0  0  0
 18 95  1  0  0  0
 19 20  1  0  0  0
 19 24  1  0  0  0
 20 21  2  0  0  0
 20 96  1  0  0  0
 21 23  1  0  0  0
 22 28  1  0  0  0
 22 32  2  0  0  0
 26 27  1  0  0  0
 28 97  1  0  0  0
 28 98  1  0  0  0
 29 99  1  0  0  0
 29100  1  0  0  0
 33 34  1  0  0  0
 33 66  1  0  0  0
 33 70  2  0  0  0
 34 36  1  0  0  0
 34 59  1  0  0  0
 34101  1  0  0  0
 35 44  2  0  0  0
 35 45  1  0  0  0
 35 68  1  0  0  0
 36 56  1  0  0  0
 36102  1  0  0  0
 37 39  1  0  0  0
 37 47  1  0  0  0
 37 66  1  0  0  0
 37103  1  0  0  0
 38 43  2  0  0  0
 38 46  1  0  0  0
 38 47  1  0  0  0
 39 64  1  0  0  0
 39 67  2  0  0  0
 40 52  1  0  0  0
 40 53  2  0  0  0
 40 58  1  0  0  0
 41104  1  0  0  0
 41105  1  0  0  0
 41106  1  0  0  0
 41 48  1  0  0  0
 42 43  1  0  0  0
 42 66  1  0  0  0
 42107  1  0  0  0
 42108  1  0  0  0
 43 44  1  0  0  0
 44109  1  0  0  0
 45 46  2  0  0  0
 45110  1  0  0  0
 46111  1  0  0  0
 47112  1  0  0  0
 47113  1  0  0  0
 48 56  1  0  0  0
 48 65  1  0  0  0
 48114  1  0  0  0
 49 50  1  0  0  0
 49 53  1  0  0  0
 49 64  1  0  0  0
 49115  1  0  0  0
 50 51  1  0  0  0
 50116  1  0  0  0
 50117  1  0  0  0
 51 52  1  0  0  0
 51118  1  0  0  0
 51119  1  0  0  0
 52120  1  0  0  0
 52121  1  0  0  0
 53 54  1  0  0  0
 54 55  2  0  0  0
 54122  1  0  0  0
 55 57  1  0  0  0
 55123  1  0  0  0
 56 69  2  0  0  0
 57 58  2  0  0  0
 57124  1  0  0  0
 58125  1  0  0  0
 59 60  1  0  0  0
 59 61  1  0  0  0
 59 62  1  0  0  0
 60126  1  0  0  0
 60127  1  0  0  0
 60128  1  0  0  0
 61129  1  0  0  0
 61130  1  0  0  0
 61131  1  0  0  0
 62132  1  0  0  0
 62133  1  0  0  0
 62134  1  0  0  0
 63 65  1  0  0  0
 63135  1  0  0  0
 63136  1  0  0  0
 63137  1  0  0  0
 64138  1  0  0  0
 65139  1  0  0  0
 68 79  1  0  0  0
 71 72  2  0  0  0
 71 73  1  0  0  0
 71140  1  0  0  0
 72 74  1  0  0  0
 72141  1  0  0  0
 73 75  2  0  0  0
 73142  1  0  0  0
 74 76  2  0  0  0
 74 77  1  0  0  0
 75 76  1  0  0  0
 75 79  1  0  0  0
 76 78  1  0  0  0
 77143  1  0  0  0
 77144  1  0  0  0
 77145  1  0  0  0
 78 80  1  0  0  0
 78146  1  0  0  0
 78147  1  0  0  0
 79148  1  0  0  0
 79149  1  0  0  0
 80150  1  0  0  0
M  ISO  4   1 100  68 101  79 101  80 100
M  END
> <chiral flag>
0

> <version>
0

> <s_m_source_file>
/data/baiqing/PycharmProjects/Reinvent-master-3.2/result/LINK_invent/BTK/process_docking_weight1_custom_product_contain_oxygen_bond_distance_aromatic_linkinvent_7_9_3/rearranged_h_0001.sdf

> <i_m_source_file_index>
1

> <r_mmod_Potential_Energy-OPLS-2005>
3046.400390625

> <r_mmod_Stretch_Energy-OPLS-2005>
1297.70935058594

> <r_mmod_Bend_Energy-OPLS-2005>
996.243041992188

> <r_mmod_Torsional_Energy-OPLS-2005>
215.281936645508

> <r_mmod_Improper_Torsional_Energy-OPLS-2005>
4.2211127281189

> <r_mmod_Van_der_Waal_Energy-OPLS-2005>
158.479782104492

> <r_mmod_Electrostatic_Energy-OPLS-2005>
-376.169586181641

> <r_mmod_Solvation_Energy-OPLS-2005>
-216.509674072266

> <b_mmod_Minimization_Converged-OPLS-2005>
0

> <r_mmod_RMS_Derivative-OPLS-2005>
1.64911162853241

$$$$
1
                    3D
 Structure written by MMmdl.
154162  0  0  1  0            999 V2000
  -30.6755  -14.4856   20.5768 C   0  0  0  0  0  0
  -30.4342  -12.3171   19.4176 C   0  0  0  0  0  0
  -29.4979  -12.5126   18.2056 C   0  0  0  0  0  0
  -28.0186  -12.3671   18.6170 C   0  0  0  0  0  0
  -27.6648  -13.1978   19.8787 C   0  0  2  0  0  0
  -28.7076  -12.9625   20.9954 C   0  0  0  0  0  0
  -25.2602  -13.8130   20.5673 C   0  0  0  0  0  0
  -24.1842  -13.0423   20.9167 C   0  0  0  0  0  0
  -24.6385  -11.6887   20.8730 C   0  0  0  0  0  0
  -23.9043  -10.4283   21.0398 C   0  0  0  0  0  0
  -24.3599   -9.4204   21.9179 C   0  0  0  0  0  0
  -23.6282   -8.2238   22.0750 C   0  0  0  0  0  0
  -22.4265   -8.0274   21.3540 C   0  0  0  0  0  0
  -21.9891   -9.0244   20.4642 C   0  0  0  0  0  0
  -22.7215  -10.2127   20.3049 C   0  0  0  0  0  0
  -21.6847   -6.0734   22.5281 C   0  0  0  0  0  0
  -21.4010   -6.5638   23.8215 C   0  0  0  0  0  0
  -21.3657   -5.6790   24.9177 C   0  0  0  0  0  0
  -21.6046   -4.3054   24.7227 C   0  0  0  0  0  0
  -21.8819   -3.8146   23.4348 C   0  0  0  0  0  0
  -21.9189   -4.6963   22.3404 C   0  0  0  0  0  0
  -22.7867  -13.5235   21.1838 C   0  0  0  0  0  0
  -22.1658   -4.2149   21.0981 F   0  0  0  0  0  0
  -21.5629   -3.4536   25.7739 F   0  0  0  0  0  0
  -30.0402  -13.2864   20.4518 N   0  0  0  0  0  0
  -26.3039  -12.9284   20.3378 N   0  0  0  0  0  0
  -25.9314  -11.6454   20.5768 N   0  0  0  0  0  0
  -22.0499  -12.8240   22.0398 N   0  0  0  0  0  0
  -25.4309  -15.1846   20.4077 N   0  0  0  0  0  0
  -31.7868  -14.7150   20.0889 O   0  0  0  0  0  0
  -21.6629   -6.8873   21.4241 O   0  0  0  0  0  0
  -22.3561  -14.5548   20.6692 O   0  0  0  0  0  0
  -24.6151  -31.8672   23.2098 C   0  0  0  0  0  0
  -25.9041  -32.4819   23.8398 C   0  0  1  0  0  0
  -27.2388  -27.4345   20.0997 C   0  0  0  0  0  0
  -25.5895  -33.8618   24.2330 N   0  0  0  0  0  0
  -23.4050  -30.4890   21.5488 C   0  0  2  0  0  0
  -24.8559  -28.9546   20.1136 C   0  0  0  0  0  0
  -22.7418  -29.4648   22.4978 C   0  0  0  0  0  0
  -18.0273  -28.1376   22.8491 C   0  0  0  0  0  0
  -24.1485  -36.7316   23.2637 C   0  0  0  0  0  0
  -25.9338  -30.8323   21.3646 C   0  0  0  0  0  0
  -26.0148  -29.4661   20.7128 C   0  0  0  0  0  0
  -27.2123  -28.7122   20.7056 C   0  0  0  0  0  0
  -26.0685  -26.9379   19.4924 C   0  0  0  0  0  0
  -24.8772  -27.6891   19.5001 C   0  0  0  0  0  0
  -23.6163  -29.8202   20.1638 C   0  0  0  0  0  0
  -25.4103  -36.3112   24.0340 C   0  0  1  0  0  0
  -20.5865  -28.3664   23.1313 C   0  0  2  0  0  0
  -20.6760  -26.9399   22.5417 C   0  0  0  0  0  0
  -19.5740  -26.6384   21.5212 C   0  0  0  0  0  0
  -18.1920  -26.7923   22.1622 C   0  0  0  0  0  0
  -19.1523  -28.8836   23.2899 C   0  0  0  0  0  0
  -18.9451  -30.1442   23.8910 C   0  0  0  0  0  0
  -17.6454  -30.6584   24.0563 C   0  0  0  0  0  0
  -25.9033  -34.9476   23.5134 C   0  0  0  0  0  0
  -16.5344  -29.9087   23.6323 C   0  0  0  0  0  0
  -16.7261  -28.6501   23.0347 C   0  0  0  0  0  0
  -26.4474  -31.6595   25.0723 C   0  0  0  0  0  0
  -25.3747  -31.3694   26.1476 C   0  0  0  0  0  0
  -27.0307  -30.3037   24.6097 C   0  0  0  0  0  0
  -27.6053  -32.4313   25.7484 C   0  0  0  0  0  0
  -27.5587  -37.1801   24.8456 C   0  0  0  0  0  0
  -21.4145  -29.3031   22.3720 N   0  0  0  0  0  0
  -26.4285  -37.3801   23.9423 N   0  0  0  0  0  0
  -24.6693  -31.0768   22.0998 N   0  0  0  0  0  0
  -23.4184  -28.8193   23.3028 O   0  0  0  0  0  0
  -28.3688  -26.6472   20.1027 O   0  0  0  0  0  0
  -26.5596  -34.8928   22.4695 O   0  0  0  0  0  0
  -23.5340  -32.1421   23.7489 O   0  0  0  0  0  0
  -28.8313  -17.2028   19.9449 C   0  0  0  0  0  0
  -30.6632  -17.8086   21.4193 C   0  0  0  0  0  0
  -28.6050  -18.5670   19.6701 C   0  0  0  0  0  0
  -30.4286  -19.1810   21.1450 C   0  0  0  0  0  0
  -29.8580  -16.8071   20.8280 C   0  0  0  0  0  0
  -29.3791  -19.5781   20.2763 C   0  0  0  0  0  0
  -28.8315  -23.2801   20.3855 C   0  0  0  0  0  0
  -29.3915  -24.5523   21.0758 C   0  0  0  0  0  0
  -29.6401  -21.9813   20.6659 C   0  0  0  0  0  0
  -28.4049  -25.7441   21.2175 C   0  0  0  0  0  0
  -29.9575  -15.4355   21.2065 N   0  0  0  0  0  0
  -29.0320  -20.8859   19.9737 O   0  0  0  0  0  0
  -31.4757  -12.4372   19.1133 H   0  0  0  0  0  0
  -30.3545  -11.3010   19.8065 H   0  0  0  0  0  0
  -29.7398  -11.7918   17.4231 H   0  0  0  0  0  0
  -29.6606  -13.5003   17.7710 H   0  0  0  0  0  0
  -27.8282  -11.3100   18.8058 H   0  0  0  0  0  0
  -27.3681  -12.6487   17.7880 H   0  0  0  0  0  0
  -27.7112  -14.2455   19.5883 H   0  0  0  0  0  0
  -28.6895  -11.9185   21.3125 H   0  0  0  0  0  0
  -28.4599  -13.5349   21.8901 H   0  0  0  0  0  0
  -25.2743   -9.5684   22.4755 H   0  0  0  0  0  0
  -23.9992   -7.4627   22.7466 H   0  0  0  0  0  0
  -21.0821   -8.8758   19.8950 H   0  0  0  0  0  0
  -22.3669  -10.9663   19.6158 H   0  0  0  0  0  0
  -21.2003   -7.6145   23.9723 H   0  0  0  0  0  0
  -21.1479   -6.0517   25.9082 H   0  0  0  0  0  0
  -22.0603   -2.7608   23.2846 H   0  0  0  0  0  0
  -22.4096  -11.9892   22.4784 H   0  0  0  0  0  0
  -21.1127  -13.1289   22.2612 H   0  0  0  0  0  0
  -24.6616  -15.8368   20.5163 H   0  0  0  0  0  0
  -26.2840  -15.6286   20.0960 H   0  0  0  0  0  0
  -26.7115  -32.5537   23.1169 H   0  0  0  0  0  0
  -25.0047  -33.9783   25.0475 H   0  0  0  0  0  0
  -22.6937  -31.3056   21.4079 H   0  0  0  0  0  0
  -23.3751  -35.9643   23.3285 H   0  0  0  0  0  0
  -24.3588  -36.8946   22.2055 H   0  0  0  0  0  0
  -23.7226  -37.6513   23.6658 H   0  0  0  0  0  0
  -26.0464  -31.5983   20.5961 H   0  0  0  0  0  0
  -26.8208  -30.8871   21.9834 H   0  0  0  0  0  0
  -28.1067  -29.0996   21.1735 H   0  0  0  0  0  0
  -26.0792  -25.9628   19.0255 H   0  0  0  0  0  0
  -23.9870  -27.2886   19.0350 H   0  0  0  0  0  0
  -23.7247  -30.5947   19.4035 H   0  0  0  0  0  0
  -22.7412  -29.2391   19.8674 H   0  0  0  0  0  0
  -25.1275  -36.1974   25.0832 H   0  0  0  0  0  0
  -20.9956  -28.3229   24.1433 H   0  0  0  0  0  0
  -20.5657  -26.2274   23.3606 H   0  0  0  0  0  0
  -21.6632  -26.7437   22.1211 H   0  0  0  0  0  0
  -19.6901  -25.6298   21.1232 H   0  0  0  0  0  0
  -19.6681  -27.3200   20.6748 H   0  0  0  0  0  0
  -17.4190  -26.6672   21.4024 H   0  0  0  0  0  0
  -18.0320  -26.0061   22.9015 H   0  0  0  0  0  0
  -19.7929  -30.7252   24.2285 H   0  0  0  0  0  0
  -17.5012  -31.6266   24.5161 H   0  0  0  0  0  0
  -15.5346  -30.2994   23.7641 H   0  0  0  0  0  0
  -15.8659  -28.0827   22.7054 H   0  0  0  0  0  0
  -24.5910  -30.7058   25.7810 H   0  0  0  0  0  0
  -24.8955  -32.2848   26.4957 H   0  0  0  0  0  0
  -25.8108  -30.8834   27.0214 H   0  0  0  0  0  0
  -26.2851  -29.6793   24.1161 H   0  0  0  0  0  0
  -27.4090  -29.7277   25.4554 H   0  0  0  0  0  0
  -27.8680  -30.4358   23.9241 H   0  0  0  0  0  0
  -27.2673  -33.3596   26.2100 H   0  0  0  0  0  0
  -28.3841  -32.6899   25.0298 H   0  0  0  0  0  0
  -28.0745  -31.8413   26.5367 H   0  0  0  0  0  0
  -28.2574  -38.0131   24.7559 H   0  0  0  0  0  0
  -28.1116  -36.2668   24.6205 H   0  0  0  0  0  0
  -27.2318  -37.1356   25.8860 H   0  0  0  0  0  0
  -20.9305  -29.8761   21.6948 H   0  0  0  0  0  0
  -26.0173  -38.2872   24.1458 H   0  0  0  0  0  0
  -28.1911  -16.4684   19.4806 H   0  0  0  0  0  0
  -31.4452  -17.5332   22.1133 H   0  0  0  0  0  0
  -27.8028  -18.8432   19.0003 H   0  0  0  0  0  0
  -31.0561  -19.9164   21.6268 H   0  0  0  0  0  0
  -28.7664  -23.4536   19.3107 H   0  0  0  0  0  0
  -27.8085  -23.1144   20.7249 H   0  0  0  0  0  0
  -30.3134  -24.8783   20.5932 H   0  0  0  0  0  0
  -29.6789  -24.2650   22.0882 H   0  0  0  0  0  0
  -29.6517  -21.7891   21.7399 H   0  0  0  0  0  0
  -30.6738  -22.0941   20.3368 H   0  0  0  0  0  0
  -28.7055  -26.3349   22.0844 H   0  0  0  0  0  0
  -27.4089  -25.3630   21.4531 H   0  0  0  0  0  0
  -29.1125  -15.0532   21.6036 H   0  0  0  0  0  0
  1 25  1  0  0  0
  1 30  2  0  0  0
  1 81  1  0  0  0
  2  3  1  0  0  0
  2 25  1  0  0  0
  2 83  1  0  0  0
  2 84  1  0  0  0
  3  4  1  0  0  0
  3 85  1  0  0  0
  3 86  1  0  0  0
  4  5  1  0  0  0
  4 87  1  0  0  0
  4 88  1  0  0  0
  5  6  1  0  0  0
  5 26  1  0  0  0
  5 89  1  0  0  0
  6 25  1  0  0  0
  6 90  1  0  0  0
  6 91  1  0  0  0
  7  8  2  0  0  0
  7 26  1  0  0  0
  7 29  1  0  0  0
  8  9  1  0  0  0
  8 22  1  0  0  0
  9 10  1  0  0  0
  9 27  2  0  0  0
 10 11  2  0  0  0
 10 15  1  0  0  0
 11 12  1  0  0  0
 11 92  1  0  0  0
 12 13  2  0  0  0
 12 93  1  0  0  0
 13 14  1  0  0  0
 13 31  1  0  0  0
 14 15  2  0  0  0
 14 94  1  0  0  0
 15 95  1  0  0  0
 16 17  2  0  0  0
 16 21  1  0  0  0
 16 31  1  0  0  0
 17 18  1  0  0  0
 17 96  1  0  0  0
 18 19  2  0  0  0
 18 97  1  0  0  0
 19 20  1  0  0  0
 19 24  1  0  0  0
 20 21  2  0  0  0
 20 98  1  0  0  0
 21 23  1  0  0  0
 22 28  1  0  0  0
 22 32  2  0  0  0
 26 27  1  0  0  0
 28 99  1  0  0  0
 28100  1  0  0  0
 29101  1  0  0  0
 29102  1  0  0  0
 33 34  1  0  0  0
 33 66  1  0  0  0
 33 70  2  0  0  0
 34 36  1  0  0  0
 34 59  1  0  0  0
 34103  1  0  0  0
 35 44  2  0  0  0
 35 45  1  0  0  0
 35 68  1  0  0  0
 36 56  1  0  0  0
 36104  1  0  0  0
 37 39  1  0  0  0
 37 47  1  0  0  0
 37 66  1  0  0  0
 37105  1  0  0  0
 38 43  2  0  0  0
 38 46  1  0  0  0
 38 47  1  0  0  0
 39 64  1  0  0  0
 39 67  2  0  0  0
 40 52  1  0  0  0
 40 53  2  0  0  0
 40 58  1  0  0  0
 41106  1  0  0  0
 41107  1  0  0  0
 41108  1  0  0  0
 41 48  1  0  0  0
 42 43  1  0  0  0
 42 66  1  0  0  0
 42109  1  0  0  0
 42110  1  0  0  0
 43 44  1  0  0  0
 44111  1  0  0  0
 45 46  2  0  0  0
 45112  1  0  0  0
 46113  1  0  0  0
 47114  1  0  0  0
 47115  1  0  0  0
 48 56  1  0  0  0
 48 65  1  0  0  0
 48116  1  0  0  0
 49 50  1  0  0  0
 49 53  1  0  0  0
 49 64  1  0  0  0
 49117  1  0  0  0
 50 51  1  0  0  0
 50118  1  0  0  0
 50119  1  0  0  0
 51 52  1  0  0  0
 51120  1  0  0  0
 51121  1  0  0  0
 52122  1  0  0  0
 52123  1  0  0  0
 53 54  1  0  0  0
 54 55  2  0  0  0
 54124  1  0  0  0
 55 57  1  0  0  0
 55125  1  0  0  0
 56 69  2  0  0  0
 57 58  2  0  0  0
 57126  1  0  0  0
 58127  1  0  0  0
 59 60  1  0  0  0
 59 61  1  0  0  0
 59 62  1  0  0  0
 60128  1  0  0  0
 60129  1  0  0  0
 60130  1  0  0  0
 61131  1  0  0  0
 61132  1  0  0  0
 61133  1  0  0  0
 62134  1  0  0  0
 62135  1  0  0  0
 62136  1  0  0  0
 63 65  1  0  0  0
 63137  1  0  0  0
 63138  1  0  0  0
 63139  1  0  0  0
 64140  1  0  0  0
 65141  1  0  0  0
 68 80  1  0  0  0
 71 73  2  0  0  0
 71 75  1  0  0  0
 71142  1  0  0  0
 72 74  1  0  0  0
 72 75  2  0  0  0
 72143  1  0  0  0
 73 76  1  0  0  0
 73144  1  0  0  0
 74 76  2  0  0  0
 74145  1  0  0  0
 75 81  1  0  0  0
 76 82  1  0  0  0
 77 78  1  0  0  0
 77 79  1  0  0  0
 77146  1  0  0  0
 77147  1  0  0  0
 78 80  1  0  0  0
 78148  1  0  0  0
 78149  1  0  0  0
 79 82  1  0  0  0
 79150  1  0  0  0
 79151  1  0  0  0
 80152  1  0  0  0
 80153  1  0  0  0
 81154  1  0  0  0
M  ISO  4   1 100  68 101  80 101  81 100
M  END
> <chiral flag>
0

> <version>
0

> <s_m_source_file>
/data/baiqing/PycharmProjects/Reinvent-master-3.2/result/LINK_invent/BTK/process_docking_weight1_custom_product_contain_oxygen_bond_distance_aromatic_linkinvent_7_9_3/rearranged_h_0001.sdf

> <i_m_source_file_index>
2

> <r_mmod_Potential_Energy-OPLS-2005>
-26.1432418823242

> <r_mmod_Stretch_Energy-OPLS-2005>
38.0520858764648

> <r_mmod_Bend_Energy-OPLS-2005>
103.493583679199

> <r_mmod_Torsional_Energy-OPLS-2005>
269.066009521484

> <r_mmod_Improper_Torsional_Energy-OPLS-2005>
5.56116437911987

> <r_mmod_Van_der_Waal_Energy-OPLS-2005>
142.235061645508

> <r_mmod_Electrostatic_Energy-OPLS-2005>
-386.073486328125

> <r_mmod_Solvation_Energy-OPLS-2005>
-212.002868652344

> <b_mmod_Minimization_Converged-OPLS-2005>
0

> <r_mmod_RMS_Derivative-OPLS-2005>
0.609314560890198

$$$$
2
                    3D
 Structure written by MMmdl.
186194  0  0  1  0            999 V2000
  -30.7481  -14.4193   20.5610 C   0  0  0  0  0  0
  -30.4132  -12.2601   19.4296 C   0  0  0  0  0  0
  -29.5009  -12.4665   18.2033 C   0  0  0  0  0  0
  -28.0138  -12.3685   18.6087 C   0  0  0  0  0  0
  -27.6628  -13.2140   19.8657 C   0  0  2  0  0  0
  -28.7046  -12.9934   20.9876 C   0  0  0  0  0  0
  -25.2587  -13.8194   20.5718 C   0  0  0  0  0  0
  -24.1829  -13.0446   20.9201 C   0  0  0  0  0  0
  -24.6392  -11.6924   20.8728 C   0  0  0  0  0  0
  -23.9061  -10.4306   21.0396 C   0  0  0  0  0  0
  -24.3619   -9.4215   21.9168 C   0  0  0  0  0  0
  -23.6289   -8.2246   22.0739 C   0  0  0  0  0  0
  -22.4275   -8.0284   21.3550 C   0  0  0  0  0  0
  -21.9912   -9.0247   20.4642 C   0  0  0  0  0  0
  -22.7246  -10.2125   20.3051 C   0  0  0  0  0  0
  -21.6851   -6.0740   22.5282 C   0  0  0  0  0  0
  -21.3988   -6.5632   23.8213 C   0  0  0  0  0  0
  -21.3676   -5.6796   24.9184 C   0  0  0  0  0  0
  -21.6063   -4.3054   24.7235 C   0  0  0  0  0  0
  -21.8805   -3.8147   23.4353 C   0  0  0  0  0  0
  -21.9181   -4.6960   22.3420 C   0  0  0  0  0  0
  -22.7856  -13.5229   21.1869 C   0  0  0  0  0  0
  -22.1645   -4.2150   21.0992 F   0  0  0  0  0  0
  -21.5664   -3.4541   25.7748 F   0  0  0  0  0  0
  -30.0422  -13.2651   20.4368 N   0  0  0  0  0  0
  -26.3025  -12.9384   20.3326 N   0  0  0  0  0  0
  -25.9311  -11.6534   20.5705 N   0  0  0  0  0  0
  -22.0489  -12.8205   22.0425 N   0  0  0  0  0  0
  -25.4314  -15.1914   20.4214 N   0  0  0  0  0  0
  -31.8701  -14.5807   20.0784 O   0  0  0  0  0  0
  -21.6634   -6.8880   21.4248 O   0  0  0  0  0  0
  -22.3540  -14.5549   20.6753 O   0  0  0  0  0  0
  -24.6084  -31.8725   23.2104 C   0  0  0  0  0  0
  -25.9017  -32.4837   23.8357 C   0  0  1  0  0  0
  -27.2347  -27.4691   20.1329 C   0  0  0  0  0  0
  -25.5970  -33.8633   24.2339 N   0  0  0  0  0  0
  -23.3918  -30.4945   21.5490 C   0  0  2  0  0  0
  -24.8414  -28.9629   20.1106 C   0  0  0  0  0  0
  -22.7332  -29.4739   22.5014 C   0  0  0  0  0  0
  -18.0264  -28.1327   22.8556 C   0  0  0  0  0  0
  -24.1509  -36.7302   23.2611 C   0  0  0  0  0  0
  -25.9084  -30.8581   21.3440 C   0  0  0  0  0  0
  -25.9923  -29.4902   20.7091 C   0  0  0  0  0  0
  -27.1908  -28.7528   20.7187 C   0  0  0  0  0  0
  -26.0816  -26.9627   19.5004 C   0  0  0  0  0  0
  -24.8792  -27.6957   19.5017 C   0  0  0  0  0  0
  -23.5951  -29.8173   20.1642 C   0  0  0  0  0  0
  -25.4125  -36.3096   24.0310 C   0  0  1  0  0  0
  -20.5858  -28.3624   23.1323 C   0  0  2  0  0  0
  -20.6800  -26.9418   22.5291 C   0  0  0  0  0  0
  -19.5662  -26.6377   21.5225 C   0  0  0  0  0  0
  -18.1909  -26.7853   22.1776 C   0  0  0  0  0  0
  -19.1522  -28.8799   23.2930 C   0  0  0  0  0  0
  -18.9475  -30.1426   23.8888 C   0  0  0  0  0  0
  -17.6486  -30.6588   24.0542 C   0  0  0  0  0  0
  -25.9061  -34.9469   23.5105 C   0  0  0  0  0  0
  -16.5368  -29.9083   23.6338 C   0  0  0  0  0  0
  -16.7269  -28.6485   23.0403 C   0  0  0  0  0  0
  -26.4402  -31.6588   25.0667 C   0  0  0  0  0  0
  -25.3693  -31.3762   26.1469 C   0  0  0  0  0  0
  -27.0103  -30.3012   24.5947 C   0  0  0  0  0  0
  -27.6039  -32.4246   25.7405 C   0  0  0  0  0  0
  -27.5591  -37.1755   24.8465 C   0  0  0  0  0  0
  -21.4082  -29.3052   22.3740 N   0  0  0  0  0  0
  -26.4316  -37.3782   23.9399 N   0  0  0  0  0  0
  -24.6541  -31.0903   22.0948 N   0  0  0  0  0  0
  -23.4124  -28.8389   23.3090 O   0  0  0  0  0  0
  -28.3650  -26.6862   20.1565 O   0  0  0  0  0  0
  -26.5586  -34.8927   22.4639 O   0  0  0  0  0  0
  -23.5310  -32.1438   23.7581 O   0  0  0  0  0  0
  -30.6642  -17.0657   25.4511 C   0  0  0  0  0  0
  -30.6249  -16.9792   24.0436 C   0  0  0  0  0  0
  -29.8880  -18.0287   26.1278 C   0  0  0  0  0  0
  -29.0241  -18.8063   23.9877 C   0  0  0  0  0  0
  -29.7967  -17.8506   23.3031 C   0  0  0  0  0  0
  -29.0628  -18.9070   25.3921 C   0  0  0  0  0  0
  -26.9891  -25.2730   23.5769 C   0  0  0  0  0  0
  -26.1453  -24.9892   25.7935 C   0  0  0  0  0  0
  -24.1878  -23.8943   24.5090 C   0  0  0  0  0  0
  -23.9916  -26.2908   25.3087 C   0  0  0  0  0  0
  -23.9625  -24.4030   26.9343 C   0  0  0  0  0  0
  -29.7079  -17.8385   21.7814 C   0  0  0  0  0  0
  -28.2243  -19.9696   26.0813 C   0  0  0  0  0  0
  -27.6332  -24.5958   22.3532 C   0  0  0  0  0  0
  -29.0207  -25.1595   21.9589 C   0  0  0  0  0  0
  -30.5859  -16.8298   21.0253 C   0  0  0  0  0  0
  -28.0830  -23.6975   25.1413 C   0  0  0  0  0  0
  -27.5574  -22.2538   25.3365 C   0  0  0  0  0  0
  -29.0393  -26.6049   21.4186 C   0  0  0  0  0  0
  -24.5946  -24.9051   25.6084 C   0  0  0  0  0  0
  -30.0902  -15.4528   21.1005 N   0  0  0  0  0  0
  -26.9991  -24.6481   24.7888 N   0  0  0  0  0  0
  -28.6546  -21.3075   25.6302 N   0  3  0  0  0  0
  -26.4483  -26.3616   23.3771 O   0  0  0  0  0  0
  -26.5824  -25.1948   26.9313 O   0  0  0  0  0  0
  -31.4639  -12.3171   19.1392 H   0  0  0  0  0  0
  -30.2733  -11.2583   19.8397 H   0  0  0  0  0  0
  -29.7247  -11.7103   17.4473 H   0  0  0  0  0  0
  -29.7037  -13.4343   17.7424 H   0  0  0  0  0  0
  -27.7984  -11.3166   18.7990 H   0  0  0  0  0  0
  -27.3786  -12.6588   17.7718 H   0  0  0  0  0  0
  -27.7060  -14.2619   19.5668 H   0  0  0  0  0  0
  -28.6613  -11.9613   21.3379 H   0  0  0  0  0  0
  -28.4825  -13.6075   21.8611 H   0  0  0  0  0  0
  -25.2757   -9.5702   22.4734 H   0  0  0  0  0  0
  -24.0018   -7.4650   22.7458 H   0  0  0  0  0  0
  -21.0848   -8.8756   19.8961 H   0  0  0  0  0  0
  -22.3686  -10.9652   19.6157 H   0  0  0  0  0  0
  -21.1925   -7.6129   23.9713 H   0  0  0  0  0  0
  -21.1539   -6.0525   25.9094 H   0  0  0  0  0  0
  -22.0565   -2.7597   23.2856 H   0  0  0  0  0  0
  -22.4047  -11.9844   22.4811 H   0  0  0  0  0  0
  -21.1101  -13.1226   22.2601 H   0  0  0  0  0  0
  -24.6794  -15.8559   20.5773 H   0  0  0  0  0  0
  -26.2911  -15.6334   20.1182 H   0  0  0  0  0  0
  -26.7121  -32.5586   23.1147 H   0  0  0  0  0  0
  -25.0227  -33.9803   25.0563 H   0  0  0  0  0  0
  -22.6797  -31.3099   21.4069 H   0  0  0  0  0  0
  -23.3789  -35.9624   23.3278 H   0  0  0  0  0  0
  -24.3604  -36.8924   22.2031 H   0  0  0  0  0  0
  -23.7270  -37.6508   23.6630 H   0  0  0  0  0  0
  -25.9914  -31.6080   20.5555 H   0  0  0  0  0  0
  -26.8047  -30.9340   21.9445 H   0  0  0  0  0  0
  -28.0730  -29.1659   21.1844 H   0  0  0  0  0  0
  -26.1134  -25.9868   19.0363 H   0  0  0  0  0  0
  -23.9969  -27.2796   19.0353 H   0  0  0  0  0  0
  -23.6829  -30.5831   19.3924 H   0  0  0  0  0  0
  -22.7239  -29.2230   19.8867 H   0  0  0  0  0  0
  -25.1288  -36.1938   25.0804 H   0  0  0  0  0  0
  -20.9972  -28.3098   24.1437 H   0  0  0  0  0  0
  -20.5994  -26.2160   23.3387 H   0  0  0  0  0  0
  -21.6596  -26.7620   22.0862 H   0  0  0  0  0  0
  -19.6806  -25.6319   21.1187 H   0  0  0  0  0  0
  -19.6470  -27.3221   20.6778 H   0  0  0  0  0  0
  -17.4083  -26.6469   21.4310 H   0  0  0  0  0  0
  -18.0474  -26.0040   22.9258 H   0  0  0  0  0  0
  -19.7970  -30.7240   24.2224 H   0  0  0  0  0  0
  -17.5069  -31.6299   24.5069 H   0  0  0  0  0  0
  -15.5378  -30.2990   23.7663 H   0  0  0  0  0  0
  -15.8662  -28.0797   22.7151 H   0  0  0  0  0  0
  -24.6029  -30.6828   25.7980 H   0  0  0  0  0  0
  -24.8618  -32.2896   26.4608 H   0  0  0  0  0  0
  -25.8085  -30.9325   27.0423 H   0  0  0  0  0  0
  -26.2558  -29.6914   24.0952 H   0  0  0  0  0  0
  -27.3829  -29.7078   25.4315 H   0  0  0  0  0  0
  -27.8420  -30.4296   23.9010 H   0  0  0  0  0  0
  -27.2727  -33.3554   26.2018 H   0  0  0  0  0  0
  -28.3823  -32.6816   25.0212 H   0  0  0  0  0  0
  -28.0726  -31.8338   26.5294 H   0  0  0  0  0  0
  -28.2679  -37.9986   24.7495 H   0  0  0  0  0  0
  -28.0991  -36.2530   24.6291 H   0  0  0  0  0  0
  -27.2291  -37.1467   25.8864 H   0  0  0  0  0  0
  -20.9249  -29.8762   21.6947 H   0  0  0  0  0  0
  -26.0202  -38.2835   24.1497 H   0  0  0  0  0  0
  -31.2908  -16.3859   26.0130 H   0  0  0  0  0  0
  -31.2314  -16.2346   23.5490 H   0  0  0  0  0  0
  -29.9309  -18.0861   27.2063 H   0  0  0  0  0  0
  -28.3989  -19.4798   23.4186 H   0  0  0  0  0  0
  -24.4608  -24.2377   23.5123 H   0  0  0  0  0  0
  -23.1098  -23.7376   24.4860 H   0  0  0  0  0  0
  -24.6479  -22.9171   24.6713 H   0  0  0  0  0  0
  -24.2190  -26.6145   24.2965 H   0  0  0  0  0  0
  -24.3574  -27.0614   25.9914 H   0  0  0  0  0  0
  -22.9037  -26.2775   25.3757 H   0  0  0  0  0  0
  -24.3732  -23.4384   27.2372 H   0  0  0  0  0  0
  -22.8823  -24.2756   26.8496 H   0  0  0  0  0  0
  -24.1305  -25.0971   27.7612 H   0  0  0  0  0  0
  -29.9776  -18.8406   21.4421 H   0  0  0  0  0  0
  -28.6631  -17.7007   21.5010 H   0  0  0  0  0  0
  -28.3190  -19.9108   27.1659 H   0  0  0  0  0  0
  -27.1728  -19.7887   25.8542 H   0  0  0  0  0  0
  -26.9490  -24.7188   21.5134 H   0  0  0  0  0  0
  -27.6964  -23.5199   22.5012 H   0  0  0  0  0  0
  -29.6957  -25.0992   22.8140 H   0  0  0  0  0  0
  -29.4531  -24.5073   21.2022 H   0  0  0  0  0  0
  -30.5837  -17.1222   19.9734 H   0  0  0  0  0  0
  -31.6263  -16.9025   21.3496 H   0  0  0  0  0  0
  -28.8867  -23.7022   24.4083 H   0  0  0  0  0  0
  -28.5780  -24.0130   26.0616 H   0  0  0  0  0  0
  -27.0241  -21.9172   24.4468 H   0  0  0  0  0  0
  -26.8315  -22.2259   26.1506 H   0  0  0  0  0  0
  -30.0701  -26.9224   21.2573 H   0  0  0  0  0  0
  -28.6477  -27.2754   22.1810 H   0  0  0  0  0  0
  -29.1454  -15.2955   21.4170 H   0  0  0  0  0  0
  -29.1969  -21.1665   24.7926 H   0  0  0  0  0  0
  -29.2672  -21.6919   26.3305 H   0  0  0  0  0  0
  1 25  1  0  0  0
  1 30  2  0  0  0
  1 91  1  0  0  0
  2  3  1  0  0  0
  2 25  1  0  0  0
  2 96  1  0  0  0
  2 97  1  0  0  0
  3  4  1  0  0  0
  3 98  1  0  0  0
  3 99  1  0  0  0
  4  5  1  0  0  0
  4100  1  0  0  0
  4101  1  0  0  0
  5  6  1  0  0  0
  5 26  1  0  0  0
  5102  1  0  0  0
  6 25  1  0  0  0
  6103  1  0  0  0
  6104  1  0  0  0
  7  8  2  0  0  0
  7 26  1  0  0  0
  7 29  1  0  0  0
  8  9  1  0  0  0
  8 22  1  0  0  0
  9 10  1  0  0  0
  9 27  2  0  0  0
 10 11  2  0  0  0
 10 15  1  0  0  0
 11 12  1  0  0  0
 11105  1  0  0  0
 12 13  2  0  0  0
 12106  1  0  0  0
 13 14  1  0  0  0
 13 31  1  0  0  0
 14 15  2  0  0  0
 14107  1  0  0  0
 15108  1  0  0  0
 16 17  2  0  0  0
 16 21  1  0  0  0
 16 31  1  0  0  0
 17 18  1  0  0  0
 17109  1  0  0  0
 18 19  2  0  0  0
 18110  1  0  0  0
 19 20  1  0  0  0
 19 24  1  0  0  0
 20 21  2  0  0  0
 20111  1  0  0  0
 21 23  1  0  0  0
 22 28  1  0  0  0
 22 32  2  0  0  0
 26 27  1  0  0  0
 28112  1  0  0  0
 28113  1  0  0  0
 29114  1  0  0  0
 29115  1  0  0  0
 33 34  1  0  0  0
 33 66  1  0  0  0
 33 70  2  0  0  0
 34 36  1  0  0  0
 34 59  1  0  0  0
 34116  1  0  0  0
 35 44  2  0  0  0
 35 45  1  0  0  0
 35 68  1  0  0  0
 36 56  1  0  0  0
 36117  1  0  0  0
 37 39  1  0  0  0
 37 47  1  0  0  0
 37 66  1  0  0  0
 37118  1  0  0  0
 38 43  2  0  0  0
 38 46  1  0  0  0
 38 47  1  0  0  0
 39 64  1  0  0  0
 39 67  2  0  0  0
 40 52  1  0  0  0
 40 53  2  0  0  0
 40 58  1  0  0  0
 41119  1  0  0  0
 41120  1  0  0  0
 41121  1  0  0  0
 41 48  1  0  0  0
 42 43  1  0  0  0
 42 66  1  0  0  0
 42122  1  0  0  0
 42123  1  0  0  0
 43 44  1  0  0  0
 44124  1  0  0  0
 45 46  2  0  0  0
 45125  1  0  0  0
 46126  1  0  0  0
 47127  1  0  0  0
 47128  1  0  0  0
 48 56  1  0  0  0
 48 65  1  0  0  0
 48129  1  0  0  0
 49 50  1  0  0  0
 49 53  1  0  0  0
 49 64  1  0  0  0
 49130  1  0  0  0
 50 51  1  0  0  0
 50131  1  0  0  0
 50132  1  0  0  0
 51 52  1  0  0  0
 51133  1  0  0  0
 51134  1  0  0  0
 52135  1  0  0  0
 52136  1  0  0  0
 53 54  1  0  0  0
 54 55  2  0  0  0
 54137  1  0  0  0
 55 57  1  0  0  0
 55138  1  0  0  0
 56 69  2  0  0  0
 57 58  2  0  0  0
 57139  1  0  0  0
 58140  1  0  0  0
 59 60  1  0  0  0
 59 61  1  0  0  0
 59 62  1  0  0  0
 60141  1  0  0  0
 60142  1  0  0  0
 60143  1  0  0  0
 61144  1  0  0  0
 61145  1  0  0  0
 61146  1  0  0  0
 62147  1  0  0  0
 62148  1  0  0  0
 62149  1  0  0  0
 63 65  1  0  0  0
 63150  1  0  0  0
 63151  1  0  0  0
 63152  1  0  0  0
 64153  1  0  0  0
 65154  1  0  0  0
 68 89  1  0  0  0
 71 72  2  0  0  0
 71 73  1  0  0  0
 71155  1  0  0  0
 72 75  1  0  0  0
 72156  1  0  0  0
 73 76  2  0  0  0
 73157  1  0  0  0
 74 75  2  0  0  0
 74 76  1  0  0  0
 74158  1  0  0  0
 75 82  1  0  0  0
 76 83  1  0  0  0
 77 84  1  0  0  0
 77 92  1  0  0  0
 77 94  2  0  0  0
 78 90  1  0  0  0
 78 92  1  0  0  0
 78 95  2  0  0  0
 79159  1  0  0  0
 79160  1  0  0  0
 79161  1  0  0  0
 79 90  1  0  0  0
 80 90  1  0  0  0
 80162  1  0  0  0
 80163  1  0  0  0
 80164  1  0  0  0
 81 90  1  0  0  0
 81165  1  0  0  0
 81166  1  0  0  0
 81167  1  0  0  0
 82 86  1  0  0  0
 82168  1  0  0  0
 82169  1  0  0  0
 83 93  1  0  0  0
 83170  1  0  0  0
 83171  1  0  0  0
 84 85  1  0  0  0
 84172  1  0  0  0
 84173  1  0  0  0
 85 89  1  0  0  0
 85174  1  0  0  0
 85175  1  0  0  0
 86 91  1  0  0  0
 86176  1  0  0  0
 86177  1  0  0  0
 87 88  1  0  0  0
 87 92  1  0  0  0
 87178  1  0  0  0
 87179  1  0  0  0
 88 93  1  0  0  0
 88180  1  0  0  0
 88181  1  0  0  0
 89182  1  0  0  0
 89183  1  0  0  0
 91184  1  0  0  0
 93185  1  0  0  0
 93186  1  0  0  0
M  CHG  1  93   1
M  ISO  4   1 100  68 101  89 101  91 100
M  END
> <chiral flag>
0

> <version>
0

> <s_m_source_file>
/data/baiqing/PycharmProjects/Reinvent-master-3.2/result/LINK_invent/BTK/process_docking_weight1_custom_product_contain_oxygen_bond_distance_aromatic_linkinvent_7_9_3/rearranged_h_0001.sdf

> <i_m_source_file_index>
3

> <r_mmod_Potential_Energy-OPLS-2005>
-276.477264404297

> <r_mmod_Stretch_Energy-OPLS-2005>
41.3586082458496

> <r_mmod_Bend_Energy-OPLS-2005>
112.82740020752

> <r_mmod_Torsional_Energy-OPLS-2005>
300.634490966797

> <r_mmod_Improper_Torsional_Energy-OPLS-2005>
6.80222320556641

> <r_mmod_Van_der_Waal_Energy-OPLS-2005>
157.708679199219

> <r_mmod_Electrostatic_Energy-OPLS-2005>
-405.106018066406

> <r_mmod_Solvation_Energy-OPLS-2005>
-503.2509765625

> <b_mmod_Minimization_Converged-OPLS-2005>
0

> <r_mmod_RMS_Derivative-OPLS-2005>
5.05167818069458

$$$$
3
                    3D
 Structure written by MMmdl.
137144  0  0  1  0            999 V2000
  -29.9622  -16.5635   20.2664 C   0  0  0  0  0  0
  -30.3146  -13.7964   19.5233 C   0  0  0  0  0  0
  -29.5702  -12.9451   18.4142 C   0  0  0  0  0  0
  -28.2376  -12.3814   18.9086 C   0  0  0  0  0  0
  -27.5746  -13.4257   19.8177 C   0  0  2  0  0  0
  -28.5152  -14.1357   20.8613 C   0  0  0  0  0  0
  -25.2174  -13.8479   20.5951 C   0  0  0  0  0  0
  -24.1675  -13.0467   20.9341 C   0  0  0  0  0  0
  -24.6541  -11.7031   20.8745 C   0  0  0  0  0  0
  -23.9255  -10.4321   21.0342 C   0  0  0  0  0  0
  -24.3739   -9.4228   21.9149 C   0  0  0  0  0  0
  -23.6364   -8.2283   22.0747 C   0  0  0  0  0  0
  -22.4340   -8.0323   21.3544 C   0  0  0  0  0  0
  -22.0014   -9.0304   20.4634 C   0  0  0  0  0  0
  -22.7395  -10.2158   20.3018 C   0  0  0  0  0  0
  -21.6878   -6.0765   22.5277 C   0  0  0  0  0  0
  -21.4033   -6.5657   23.8214 C   0  0  0  0  0  0
  -21.3665   -5.6802   24.9171 C   0  0  0  0  0  0
  -21.6043   -4.3064   24.7217 C   0  0  0  0  0  0
  -21.8816   -3.8163   23.4335 C   0  0  0  0  0  0
  -21.9200   -4.6987   22.3396 C   0  0  0  0  0  0
  -22.7650  -13.5092   21.1938 C   0  0  0  0  0  0
  -22.1663   -4.2170   21.0973 F   0  0  0  0  0  0
  -21.5624   -3.4543   25.7727 F   0  0  0  0  0  0
  -29.5188  -15.0444   20.1465 N   0  0  0  0  0  0
  -26.2805  -13.0063   20.3476 N   0  0  0  0  0  0
  -25.9548  -11.6990   20.5678 N   0  0  0  0  0  0
  -22.0351  -12.8040   22.0489 N   0  0  0  0  0  0
  -25.3555  -15.2242   20.4383 N   0  0  0  0  0  0
  -31.2063  -16.3142   20.2293 O   0  0  0  0  0  0
  -21.6677   -6.8928   21.4248 O   0  0  0  0  0  0
  -22.3283  -14.5375   20.6771 O   0  0  0  0  0  0
  -24.7449  -31.7216   23.0979 C   0  0  0  0  0  0
  -25.9712  -32.4091   23.7768 C   0  0  1  0  0  0
  -27.2626  -26.0606   20.2671 C   0  0  0  0  0  0
  -25.6018  -33.7953   24.1581 N   0  0  0  0  0  0
  -23.5996  -30.2922   21.4680 C   0  0  2  0  0  0
  -25.0624  -28.4936   20.1392 C   0  0  0  0  0  0
  -22.8035  -29.3895   22.4550 C   0  0  0  0  0  0
  -18.0376  -28.1454   22.8421 C   0  0  0  0  0  0
  -24.1496  -36.6992   23.2671 C   0  0  0  0  0  0
  -26.1999  -30.2411   21.4589 C   0  0  0  0  0  0
  -26.2597  -28.7329   20.8212 C   0  0  0  0  0  0
  -27.3097  -27.5690   20.8335 C   0  0  0  0  0  0
  -26.0272  -26.1946   19.5192 C   0  0  0  0  0  0
  -25.0234  -27.2541   19.4619 C   0  0  0  0  0  0
  -23.8874  -29.5253   20.1333 C   0  0  0  0  0  0
  -25.4170  -36.2677   24.0236 C   0  0  1  0  0  0
  -20.6038  -28.3836   23.1031 C   0  0  2  0  0  0
  -20.6806  -26.9436   22.5420 C   0  0  0  0  0  0
  -19.5796  -26.6348   21.5224 C   0  0  0  0  0  0
  -18.1977  -26.7969   22.1607 C   0  0  0  0  0  0
  -19.1657  -28.8984   23.2686 C   0  0  0  0  0  0
  -18.9553  -30.1552   23.8759 C   0  0  0  0  0  0
  -17.6536  -30.6619   24.0537 C   0  0  0  0  0  0
  -25.9187  -34.9084   23.4798 C   0  0  0  0  0  0
  -16.5422  -29.9090   23.6366 C   0  0  0  0  0  0
  -16.7352  -28.6518   23.0376 C   0  0  0  0  0  0
  -26.4693  -31.6408   25.0652 C   0  0  0  0  0  0
  -25.3596  -31.3898   26.1149 C   0  0  0  0  0  0
  -27.0730  -30.2690   24.7003 C   0  0  0  0  0  0
  -27.6017  -32.4426   25.7501 C   0  0  0  0  0  0
  -27.5543  -37.1648   24.8466 C   0  0  0  0  0  0
  -21.4628  -29.2949   22.3282 N   0  0  0  0  0  0
  -26.4242  -37.3509   23.9408 N   0  0  0  0  0  0
  -24.8802  -30.8007   22.0600 N   0  0  0  0  0  0
  -23.4175  -28.7613   23.3197 O   0  0  0  0  0  0
  -28.1668  -24.5661   20.3212 O   0  0  0  0  0  0
  -26.5925  -34.8791   22.4483 O   0  0  0  0  0  0
  -23.6336  -32.0588   23.5524 O   0  0  0  0  0  0
  -29.2006  -20.3375   20.3201 C   0  0  0  0  0  0
  -28.2004  -22.4649   20.2188 C   0  0  0  0  0  0
  -29.3170  -18.2279   20.2702 N   0  0  0  0  0  0
  -31.2155  -14.1817   19.0448 H   0  0  0  0  0  0
  -30.7050  -13.1434   20.3066 H   0  0  0  0  0  0
  -30.2109  -12.1390   18.0541 H   0  0  0  0  0  0
  -29.3823  -13.5901   17.5547 H   0  0  0  0  0  0
  -28.4305  -11.4738   19.4819 H   0  0  0  0  0  0
  -27.5913  -12.1016   18.0755 H   0  0  0  0  0  0
  -27.3204  -14.2160   19.1091 H   0  0  0  0  0  0
  -28.9720  -13.4238   21.5512 H   0  0  0  0  0  0
  -27.9168  -14.7884   21.4973 H   0  0  0  0  0  0
  -25.2871   -9.5690   22.4748 H   0  0  0  0  0  0
  -24.0047   -7.4683   22.7489 H   0  0  0  0  0  0
  -21.0938   -8.8851   19.8945 H   0  0  0  0  0  0
  -22.3854  -10.9697   19.6127 H   0  0  0  0  0  0
  -21.2035   -7.6165   23.9725 H   0  0  0  0  0  0
  -21.1486   -6.0529   25.9075 H   0  0  0  0  0  0
  -22.0587   -2.7625   23.2829 H   0  0  0  0  0  0
  -22.4039  -11.9742   22.4895 H   0  0  0  0  0  0
  -21.0937  -13.0980   22.2674 H   0  0  0  0  0  0
  -24.5768  -15.8638   20.5540 H   0  0  0  0  0  0
  -26.2060  -15.6839   20.1380 H   0  0  0  0  0  0
  -26.7876  -32.4443   23.0543 H   0  0  0  0  0  0
  -24.9961  -33.8879   24.9601 H   0  0  0  0  0  0
  -22.9629  -31.1444   21.2211 H   0  0  0  0  0  0
  -23.3792  -35.9283   23.3224 H   0  0  0  0  0  0
  -24.3542  -36.8804   22.2107 H   0  0  0  0  0  0
  -23.7229  -37.6104   23.6874 H   0  0  0  0  0  0
  -26.4659  -30.9211   20.6487 H   0  0  0  0  0  0
  -27.0298  -30.3291   22.1459 H   0  0  0  0  0  0
  -28.1985  -27.7908   21.4071 H   0  0  0  0  0  0
  -25.7596  -25.3099   18.9588 H   0  0  0  0  0  0
  -24.1415  -27.0455   18.8719 H   0  0  0  0  0  0
  -24.1127  -30.2559   19.3556 H   0  0  0  0  0  0
  -22.9802  -29.0216   19.7958 H   0  0  0  0  0  0
  -25.1411  -36.1346   25.0723 H   0  0  0  0  0  0
  -21.0093  -28.3507   24.1170 H   0  0  0  0  0  0
  -20.5606  -26.2478   23.3738 H   0  0  0  0  0  0
  -21.6663  -26.7276   22.1281 H   0  0  0  0  0  0
  -19.6940  -25.6222   21.1342 H   0  0  0  0  0  0
  -19.6763  -27.3084   20.6699 H   0  0  0  0  0  0
  -17.4253  -26.6718   21.4002 H   0  0  0  0  0  0
  -18.0338  -26.0144   22.9029 H   0  0  0  0  0  0
  -19.8031  -30.7398   24.2071 H   0  0  0  0  0  0
  -17.5087  -31.6284   24.5168 H   0  0  0  0  0  0
  -15.5417  -30.2952   23.7771 H   0  0  0  0  0  0
  -15.8752  -28.0794   22.7169 H   0  0  0  0  0  0
  -24.5845  -30.7190   25.7424 H   0  0  0  0  0  0
  -24.8725  -32.3171   26.4173 H   0  0  0  0  0  0
  -25.7627  -30.9316   27.0189 H   0  0  0  0  0  0
  -26.3552  -29.6093   24.2123 H   0  0  0  0  0  0
  -27.4038  -29.7408   25.5956 H   0  0  0  0  0  0
  -27.9570  -30.3690   24.0706 H   0  0  0  0  0  0
  -27.2476  -33.3875   26.1635 H   0  0  0  0  0  0
  -28.4042  -32.6752   25.0488 H   0  0  0  0  0  0
  -28.0450  -31.8868   26.5774 H   0  0  0  0  0  0
  -28.2488  -38.0006   24.7515 H   0  0  0  0  0  0
  -28.1107  -36.2518   24.6291 H   0  0  0  0  0  0
  -27.2256  -37.1265   25.8866 H   0  0  0  0  0  0
  -21.0089  -29.8498   21.6159 H   0  0  0  0  0  0
  -26.0011  -38.2526   24.1435 H   0  0  0  0  0  0
  -30.0015  -20.5173   19.6027 H   0  0  0  0  0  0
  -29.6902  -20.4553   21.2869 H   0  0  0  0  0  0
  -27.7199  -22.3753   19.2446 H   0  0  0  0  0  0
  -27.3860  -22.2933   20.9225 H   0  0  0  0  0  0
  -30.3181  -18.3884   20.2986 H   0  0  0  0  0  0
  1 25  1  0  0  0
  1 30  2  0  0  0
  1 73  1  0  0  0
  2  3  1  0  0  0
  2 25  1  0  0  0
  2 74  1  0  0  0
  2 75  1  0  0  0
  3  4  1  0  0  0
  3 76  1  0  0  0
  3 77  1  0  0  0
  4  5  1  0  0  0
  4 78  1  0  0  0
  4 79  1  0  0  0
  5  6  1  0  0  0
  5 26  1  0  0  0
  5 80  1  0  0  0
  6 25  1  0  0  0
  6 81  1  0  0  0
  6 82  1  0  0  0
  7  8  2  0  0  0
  7 26  1  0  0  0
  7 29  1  0  0  0
  8  9  1  0  0  0
  8 22  1  0  0  0
  9 10  1  0  0  0
  9 27  2  0  0  0
 10 11  2  0  0  0
 10 15  1  0  0  0
 11 12  1  0  0  0
 11 83  1  0  0  0
 12 13  2  0  0  0
 12 84  1  0  0  0
 13 14  1  0  0  0
 13 31  1  0  0  0
 14 15  2  0  0  0
 14 85  1  0  0  0
 15 86  1  0  0  0
 16 17  2  0  0  0
 16 21  1  0  0  0
 16 31  1  0  0  0
 17 18  1  0  0  0
 17 87  1  0  0  0
 18 19  2  0  0  0
 18 88  1  0  0  0
 19 20  1  0  0  0
 19 24  1  0  0  0
 20 21  2  0  0  0
 20 89  1  0  0  0
 21 23  1  0  0  0
 22 28  1  0  0  0
 22 32  2  0  0  0
 26 27  1  0  0  0
 28 90  1  0  0  0
 28 91  1  0  0  0
 29 92  1  0  0  0
 29 93  1  0  0  0
 33 34  1  0  0  0
 33 66  1  0  0  0
 33 70  2  0  0  0
 34 36  1  0  0  0
 34 59  1  0  0  0
 34 94  1  0  0  0
 35 44  2  0  0  0
 35 45  1  0  0  0
 35 68  1  0  0  0
 36 56  1  0  0  0
 36 95  1  0  0  0
 37 39  1  0  0  0
 37 47  1  0  0  0
 37 66  1  0  0  0
 37 96  1  0  0  0
 38 43  2  0  0  0
 38 46  1  0  0  0
 38 47  1  0  0  0
 39 64  1  0  0  0
 39 67  2  0  0  0
 40 52  1  0  0  0
 40 53  2  0  0  0
 40 58  1  0  0  0
 41 97  1  0  0  0
 41 98  1  0  0  0
 41 99  1  0  0  0
 41 48  1  0  0  0
 42 43  1  0  0  0
 42 66  1  0  0  0
 42100  1  0  0  0
 42101  1  0  0  0
 43 44  1  0  0  0
 44102  1  0  0  0
 45 46  2  0  0  0
 45103  1  0  0  0
 46104  1  0  0  0
 47105  1  0  0  0
 47106  1  0  0  0
 48 56  1  0  0  0
 48 65  1  0  0  0
 48107  1  0  0  0
 49 50  1  0  0  0
 49 53  1  0  0  0
 49 64  1  0  0  0
 49108  1  0  0  0
 50 51  1  0  0  0
 50109  1  0  0  0
 50110  1  0  0  0
 51 52  1  0  0  0
 51111  1  0  0  0
 51112  1  0  0  0
 52113  1  0  0  0
 52114  1  0  0  0
 53 54  1  0  0  0
 54 55  2  0  0  0
 54115  1  0  0  0
 55 57  1  0  0  0
 55116  1  0  0  0
 56 69  2  0  0  0
 57 58  2  0  0  0
 57117  1  0  0  0
 58118  1  0  0  0
 59 60  1  0  0  0
 59 61  1  0  0  0
 59 62  1  0  0  0
 60119  1  0  0  0
 60120  1  0  0  0
 60121  1  0  0  0
 61122  1  0  0  0
 61123  1  0  0  0
 61124  1  0  0  0
 62125  1  0  0  0
 62126  1  0  0  0
 62127  1  0  0  0
 63 65  1  0  0  0
 63128  1  0  0  0
 63129  1  0  0  0
 63130  1  0  0  0
 64131  1  0  0  0
 65132  1  0  0  0
 68 72  1  0  0  0
 71 72  1  0  0  0
 71 73  1  0  0  0
 71133  1  0  0  0
 71134  1  0  0  0
 72135  1  0  0  0
 72136  1  0  0  0
 73137  1  0  0  0
M  ISO  4   1 100  68 101  72 101  73 100
M  END
> <chiral flag>
0

> <version>
0

> <s_m_source_file>
/data/baiqing/PycharmProjects/Reinvent-master-3.2/result/LINK_invent/BTK/process_docking_weight1_custom_product_contain_oxygen_bond_distance_aromatic_linkinvent_7_9_3/rearranged_h_0001.sdf

> <i_m_source_file_index>
4

> <r_mmod_Potential_Energy-OPLS-2005>
6948.9697265625

> <r_mmod_Stretch_Energy-OPLS-2005>
3136.46411132812

> <r_mmod_Bend_Energy-OPLS-2005>
1268.50207519531

> <r_mmod_Torsional_Energy-OPLS-2005>
217.324829101562

> <r_mmod_Improper_Torsional_Energy-OPLS-2005>
4.82364273071289

> <r_mmod_Van_der_Waal_Energy-OPLS-2005>
120.95548248291

> <r_mmod_Electrostatic_Energy-OPLS-2005>
-391.247985839844

> <r_mmod_Solvation_Energy-OPLS-2005>
-221.174652099609

> <b_mmod_Minimization_Converged-OPLS-2005>
1

> <r_mmod_RMS_Derivative-OPLS-2005>
0.042349461466074

$$$$
4
                    3D
 Structure written by MMmdl.
144152  0  0  1  0            999 V2000
  -30.3061  -15.5770   20.3439 C   0  0  0  0  0  0
  -30.4347  -13.0341   19.5476 C   0  0  0  0  0  0
  -29.5544  -12.6474   18.3241 C   0  0  0  0  0  0
  -28.1220  -12.3011   18.7596 C   0  0  0  0  0  0
  -27.6019  -13.2997   19.8181 C   0  0  2  0  0  0
  -28.6196  -13.5971   20.9448 C   0  0  0  0  0  0
  -25.2322  -13.8222   20.5717 C   0  0  0  0  0  0
  -24.1713  -13.0403   20.9268 C   0  0  0  0  0  0
  -24.6415  -11.6917   20.8765 C   0  0  0  0  0  0
  -23.9114  -10.4276   21.0404 C   0  0  0  0  0  0
  -24.3649   -9.4191   21.9186 C   0  0  0  0  0  0
  -23.6308   -8.2235   22.0756 C   0  0  0  0  0  0
  -22.4289   -8.0280   21.3546 C   0  0  0  0  0  0
  -21.9936   -9.0256   20.4645 C   0  0  0  0  0  0
  -22.7281  -10.2125   20.3053 C   0  0  0  0  0  0
  -21.6855   -6.0738   22.5280 C   0  0  0  0  0  0
  -21.4016   -6.5641   23.8213 C   0  0  0  0  0  0
  -21.3660   -5.6793   24.9175 C   0  0  0  0  0  0
  -21.6044   -4.3055   24.7225 C   0  0  0  0  0  0
  -21.8819   -3.8148   23.4346 C   0  0  0  0  0  0
  -21.9193   -4.6965   22.3402 C   0  0  0  0  0  0
  -22.7730  -13.5152   21.1916 C   0  0  0  0  0  0
  -22.1661   -4.2151   21.0980 F   0  0  0  0  0  0
  -21.5628   -3.4539   25.7737 F   0  0  0  0  0  0
  -29.8094  -14.2055   20.3068 N   0  0  0  0  0  0
  -26.2788  -12.9561   20.3213 N   0  0  0  0  0  0
  -25.9366  -11.6644   20.5713 N   0  0  0  0  0  0
  -22.0400  -12.8133   22.0478 N   0  0  0  0  0  0
  -25.3899  -15.1923   20.4060 N   0  0  0  0  0  0
  -31.5341  -15.5609   20.1360 O   0  0  0  0  0  0
  -21.6643   -6.8883   21.4243 O   0  0  0  0  0  0
  -22.3395  -14.5449   20.6757 O   0  0  0  0  0  0
  -24.6818  -31.8032   23.1555 C   0  0  0  0  0  0
  -25.9410  -32.4485   23.8088 C   0  0  1  0  0  0
  -27.2298  -26.7278   20.2078 C   0  0  0  0  0  0
  -25.5999  -33.8309   24.1972 N   0  0  0  0  0  0
  -23.5075  -30.4071   21.5087 C   0  0  2  0  0  0
  -24.9669  -28.7564   20.1199 C   0  0  0  0  0  0
  -22.7761  -29.4332   22.4719 C   0  0  0  0  0  0
  -18.0339  -28.1421   22.8456 C   0  0  0  0  0  0
  -24.1496  -36.7161   23.2651 C   0  0  0  0  0  0
  -26.0881  -30.5424   21.4204 C   0  0  0  0  0  0
  -26.1548  -29.1096   20.7719 C   0  0  0  0  0  0
  -27.2706  -28.1209   20.7919 C   0  0  0  0  0  0
  -26.0096  -26.5868   19.4969 C   0  0  0  0  0  0
  -24.9312  -27.5180   19.4602 C   0  0  0  0  0  0
  -23.7620  -29.7083   20.1430 C   0  0  0  0  0  0
  -25.4144  -36.2906   24.0284 C   0  0  1  0  0  0
  -20.5974  -28.3781   23.1143 C   0  0  2  0  0  0
  -20.6806  -26.9442   22.5401 C   0  0  0  0  0  0
  -19.5781  -26.6372   21.5215 C   0  0  0  0  0  0
  -18.1964  -26.7949   22.1620 C   0  0  0  0  0  0
  -19.1605  -28.8925   23.2781 C   0  0  0  0  0  0
  -18.9510  -30.1508   23.8827 C   0  0  0  0  0  0
  -17.6500  -30.6603   24.0551 C   0  0  0  0  0  0
  -25.9123  -34.9294   23.4962 C   0  0  0  0  0  0
  -16.5389  -29.9085   23.6350 C   0  0  0  0  0  0
  -16.7318  -28.6508   23.0367 C   0  0  0  0  0  0
  -26.4595  -31.6508   25.0699 C   0  0  0  0  0  0
  -25.3664  -31.3820   26.1316 C   0  0  0  0  0  0
  -27.0524  -30.2846   24.6590 C   0  0  0  0  0  0
  -27.6046  -32.4365   25.7515 C   0  0  0  0  0  0
  -27.5566  -37.1737   24.8465 C   0  0  0  0  0  0
  -21.4410  -29.3033   22.3467 N   0  0  0  0  0  0
  -26.4272  -37.3664   23.9409 N   0  0  0  0  0  0
  -24.7821  -30.9497   22.0805 N   0  0  0  0  0  0
  -23.4214  -28.7922   23.3049 O   0  0  0  0  0  0
  -28.1714  -25.4951   20.2512 O   0  0  0  0  0  0
  -26.5758  -34.8865   22.4575 O   0  0  0  0  0  0
  -23.5840  -32.1098   23.6516 O   0  0  0  0  0  0
  -27.0203  -18.5626   21.4005 C   0  0  0  0  0  0
  -29.7848  -21.2913   19.9564 C   0  0  0  0  0  0
  -30.1180  -19.7808   19.9798 C   0  0  0  0  0  0
  -27.7882  -20.8406   20.7871 C   0  0  0  0  0  0
  -28.1000  -19.3541   20.8319 C   0  0  0  0  0  0
  -28.5457  -22.0405   20.3508 C   0  0  0  0  0  0
  -29.3094  -18.5924   20.4143 C   0  0  0  0  0  0
  -27.7924  -23.7164   20.3515 C   0  0  0  0  0  0
  -26.1602  -17.9364   21.8579 N   0  0  0  0  0  0
  -29.4689  -16.8742   20.4569 N   0  0  0  0  0  0
  -26.5747  -23.5769   20.4878 O   0  0  0  0  0  0
  -31.4323  -13.2930   19.1912 H   0  0  0  0  0  0
  -30.5821  -12.1753   20.2047 H   0  0  0  0  0  0
  -29.9973  -11.8102   17.7828 H   0  0  0  0  0  0
  -29.5271  -13.4848   17.6253 H   0  0  0  0  0  0
  -28.1360  -11.2964   19.1838 H   0  0  0  0  0  0
  -27.4543  -12.2636   17.8979 H   0  0  0  0  0  0
  -27.4768  -14.2320   19.2655 H   0  0  0  0  0  0
  -28.8617  -12.7006   21.5176 H   0  0  0  0  0  0
  -28.1954  -14.3088   21.6548 H   0  0  0  0  0  0
  -25.2789   -9.5663   22.4769 H   0  0  0  0  0  0
  -24.0007   -7.4626   22.7481 H   0  0  0  0  0  0
  -21.0866   -8.8785   19.8951 H   0  0  0  0  0  0
  -22.3743  -10.9668   19.6165 H   0  0  0  0  0  0
  -21.2009   -7.6149   23.9717 H   0  0  0  0  0  0
  -21.1482   -6.0523   25.9078 H   0  0  0  0  0  0
  -22.0597   -2.7610   23.2845 H   0  0  0  0  0  0
  -22.4045  -11.9809   22.4869 H   0  0  0  0  0  0
  -21.1012  -13.1134   22.2688 H   0  0  0  0  0  0
  -24.6495  -15.8550   20.6080 H   0  0  0  0  0  0
  -26.2435  -15.6430   20.1104 H   0  0  0  0  0  0
  -26.7491  -32.4967   23.0802 H   0  0  0  0  0  0
  -25.0063  -33.9356   25.0069 H   0  0  0  0  0  0
  -22.8316  -31.2440   21.3212 H   0  0  0  0  0  0
  -23.3778  -35.9470   23.3259 H   0  0  0  0  0  0
  -24.3567  -36.8875   22.2076 H   0  0  0  0  0  0
  -23.7235  -37.6318   23.6760 H   0  0  0  0  0  0
  -26.2898  -31.2680   20.6314 H   0  0  0  0  0  0
  -26.9395  -30.6100   22.0851 H   0  0  0  0  0  0
  -28.1630  -28.3953   21.3362 H   0  0  0  0  0  0
  -25.8470  -25.6522   18.9798 H   0  0  0  0  0  0
  -24.0366  -27.2385   18.9208 H   0  0  0  0  0  0
  -23.9362  -30.4703   19.3825 H   0  0  0  0  0  0
  -22.8677  -29.1739   19.8176 H   0  0  0  0  0  0
  -25.1351  -36.1673   25.0774 H   0  0  0  0  0  0
  -21.0057  -28.3405   24.1269 H   0  0  0  0  0  0
  -20.5672  -26.2405   23.3662 H   0  0  0  0  0  0
  -21.6668  -26.7387   22.1217 H   0  0  0  0  0  0
  -19.6938  -25.6264   21.1292 H   0  0  0  0  0  0
  -19.6723  -27.3142   20.6714 H   0  0  0  0  0  0
  -17.4233  -26.6690   21.4024 H   0  0  0  0  0  0
  -18.0354  -26.0108   22.9033 H   0  0  0  0  0  0
  -19.7985  -30.7343   24.2165 H   0  0  0  0  0  0
  -17.5050  -31.6276   24.5167 H   0  0  0  0  0  0
  -15.5386  -30.2964   23.7715 H   0  0  0  0  0  0
  -15.8720  -28.0802   22.7122 H   0  0  0  0  0  0
  -24.5875  -30.7141   25.7617 H   0  0  0  0  0  0
  -24.8824  -32.3040   26.4546 H   0  0  0  0  0  0
  -25.7845  -30.9112   27.0222 H   0  0  0  0  0  0
  -26.3240  -29.6464   24.1579 H   0  0  0  0  0  0
  -27.3948  -29.7288   25.5330 H   0  0  0  0  0  0
  -27.9225  -30.3971   24.0120 H   0  0  0  0  0  0
  -27.2588  -33.3735   26.1894 H   0  0  0  0  0  0
  -28.3959  -32.6817   25.0419 H   0  0  0  0  0  0
  -28.0602  -31.8628   26.5597 H   0  0  0  0  0  0
  -28.2547  -38.0066   24.7521 H   0  0  0  0  0  0
  -28.1099  -36.2589   24.6281 H   0  0  0  0  0  0
  -27.2282  -37.1359   25.8866 H   0  0  0  0  0  0
  -20.9710  -29.8697   21.6542 H   0  0  0  0  0  0
  -26.0102  -38.2712   24.1426 H   0  0  0  0  0  0
  -30.5719  -21.9180   19.5605 H   0  0  0  0  0  0
  -31.1011  -19.5360   19.6028 H   0  0  0  0  0  0
  -26.7991  -21.0891   21.1480 H   0  0  0  0  0  0
  -28.5518  -16.5023   20.6535 H   0  0  0  0  0  0
  1 25  1  0  0  0
  1 30  2  0  0  0
  1 80  1  0  0  0
  2  3  1  0  0  0
  2 25  1  0  0  0
  2 82  1  0  0  0
  2 83  1  0  0  0
  3  4  1  0  0  0
  3 84  1  0  0  0
  3 85  1  0  0  0
  4  5  1  0  0  0
  4 86  1  0  0  0
  4 87  1  0  0  0
  5  6  1  0  0  0
  5 26  1  0  0  0
  5 88  1  0  0  0
  6 25  1  0  0  0
  6 89  1  0  0  0
  6 90  1  0  0  0
  7  8  2  0  0  0
  7 26  1  0  0  0
  7 29  1  0  0  0
  8  9  1  0  0  0
  8 22  1  0  0  0
  9 10  1  0  0  0
  9 27  2  0  0  0
 10 11  2  0  0  0
 10 15  1  0  0  0
 11 12  1  0  0  0
 11 91  1  0  0  0
 12 13  2  0  0  0
 12 92  1  0  0  0
 13 14  1  0  0  0
 13 31  1  0  0  0
 14 15  2  0  0  0
 14 93  1  0  0  0
 15 94  1  0  0  0
 16 17  2  0  0  0
 16 21  1  0  0  0
 16 31  1  0  0  0
 17 18  1  0  0  0
 17 95  1  0  0  0
 18 19  2  0  0  0
 18 96  1  0  0  0
 19 20  1  0  0  0
 19 24  1  0  0  0
 20 21  2  0  0  0
 20 97  1  0  0  0
 21 23  1  0  0  0
 22 28  1  0  0  0
 22 32  2  0  0  0
 26 27  1  0  0  0
 28 98  1  0  0  0
 28 99  1  0  0  0
 29100  1  0  0  0
 29101  1  0  0  0
 33 34  1  0  0  0
 33 66  1  0  0  0
 33 70  2  0  0  0
 34 36  1  0  0  0
 34 59  1  0  0  0
 34102  1  0  0  0
 35 44  2  0  0  0
 35 45  1  0  0  0
 35 68  1  0  0  0
 36 56  1  0  0  0
 36103  1  0  0  0
 37 39  1  0  0  0
 37 47  1  0  0  0
 37 66  1  0  0  0
 37104  1  0  0  0
 38 43  2  0  0  0
 38 46  1  0  0  0
 38 47  1  0  0  0
 39 64  1  0  0  0
 39 67  2  0  0  0
 40 52  1  0  0  0
 40 53  2  0  0  0
 40 58  1  0  0  0
 41105  1  0  0  0
 41106  1  0  0  0
 41107  1  0  0  0
 41 48  1  0  0  0
 42 43  1  0  0  0
 42 66  1  0  0  0
 42108  1  0  0  0
 42109  1  0  0  0
 43 44  1  0  0  0
 44110  1  0  0  0
 45 46  2  0  0  0
 45111  1  0  0  0
 46112  1  0  0  0
 47113  1  0  0  0
 47114  1  0  0  0
 48 56  1  0  0  0
 48 65  1  0  0  0
 48115  1  0  0  0
 49 50  1  0  0  0
 49 53  1  0  0  0
 49 64  1  0  0  0
 49116  1  0  0  0
 50 51  1  0  0  0
 50117  1  0  0  0
 50118  1  0  0  0
 51 52  1  0  0  0
 51119  1  0  0  0
 51120  1  0  0  0
 52121  1  0  0  0
 52122  1  0  0  0
 53 54  1  0  0  0
 54 55  2  0  0  0
 54123  1  0  0  0
 55 57  1  0  0  0
 55124  1  0  0  0
 56 69  2  0  0  0
 57 58  2  0  0  0
 57125  1  0  0  0
 58126  1  0  0  0
 59 60  1  0  0  0
 59 61  1  0  0  0
 59 62  1  0  0  0
 60127  1  0  0  0
 60128  1  0  0  0
 60129  1  0  0  0
 61130  1  0  0  0
 61131  1  0  0  0
 61132  1  0  0  0
 62133  1  0  0  0
 62134  1  0  0  0
 62135  1  0  0  0
 63 65  1  0  0  0
 63136  1  0  0  0
 63137  1  0  0  0
 63138  1  0  0  0
 64139  1  0  0  0
 65140  1  0  0  0
 68 78  1  0  0  0
 71 75  1  0  0  0
 71 79  3  0  0  0
 72 73  2  0  0  0
 72 76  1  0  0  0
 72141  1  0  0  0
 73 77  1  0  0  0
 73142  1  0  0  0
 74 75  1  0  0  0
 74 76  2  0  0  0
 74143  1  0  0  0
 75 77  2  0  0  0
 76 78  1  0  0  0
 77 80  1  0  0  0
 78 81  2  0  0  0
 80144  1  0  0  0
M  ISO  4   1 100  68 101  78 101  80 100
M  END
> <chiral flag>
0

> <version>
0

> <s_m_source_file>
/data/baiqing/PycharmProjects/Reinvent-master-3.2/result/LINK_invent/BTK/process_docking_weight1_custom_product_contain_oxygen_bond_distance_aromatic_linkinvent_7_9_3/rearranged_h_0001.sdf

> <i_m_source_file_index>
5

> <r_mmod_Potential_Energy-OPLS-2005>
2343.40112304688

> <r_mmod_Stretch_Energy-OPLS-2005>
976.0244140625

> <r_mmod_Bend_Energy-OPLS-2005>
703.503112792969

> <r_mmod_Torsional_Energy-OPLS-2005>
212.453994750977

> <r_mmod_Improper_Torsional_Energy-OPLS-2005>
3.17904925346375

> <r_mmod_Van_der_Waal_Energy-OPLS-2005>
131.165817260742

> <r_mmod_Electrostatic_Energy-OPLS-2005>
-300.541717529297

> <r_mmod_Solvation_Energy-OPLS-2005>
-219.840591430664

> <b_mmod_Minimization_Converged-OPLS-2005>
1

> <r_mmod_RMS_Derivative-OPLS-2005>
0.0468108505010605

$$$$
5
                    3D
 Structure written by MMmdl.
161169  0  0  1  0            999 V2000
  -30.6893  -14.4444   20.5705 C   0  0  0  0  0  0
  -30.4217  -12.2938   19.4090 C   0  0  0  0  0  0
  -29.4941  -12.5239   18.1990 C   0  0  0  0  0  0
  -28.0130  -12.3820   18.6051 C   0  0  0  0  0  0
  -27.6638  -13.2012   19.8771 C   0  0  2  0  0  0
  -28.7033  -12.9508   20.9926 C   0  0  0  0  0  0
  -25.2607  -13.8142   20.5649 C   0  0  0  0  0  0
  -24.1857  -13.0437   20.9145 C   0  0  0  0  0  0
  -24.6388  -11.6897   20.8690 C   0  0  0  0  0  0
  -23.9045  -10.4295   21.0378 C   0  0  0  0  0  0
  -24.3614   -9.4215   21.9158 C   0  0  0  0  0  0
  -23.6301   -8.2245   22.0738 C   0  0  0  0  0  0
  -22.4277   -8.0282   21.3534 C   0  0  0  0  0  0
  -21.9900   -9.0243   20.4625 C   0  0  0  0  0  0
  -22.7212  -10.2129   20.3030 C   0  0  0  0  0  0
  -21.6851   -6.0733   22.5272 C   0  0  0  0  0  0
  -21.4017   -6.5636   23.8211 C   0  0  0  0  0  0
  -21.3666   -5.6783   24.9171 C   0  0  0  0  0  0
  -21.6052   -4.3044   24.7218 C   0  0  0  0  0  0
  -21.8827   -3.8142   23.4337 C   0  0  0  0  0  0
  -21.9202   -4.6961   22.3397 C   0  0  0  0  0  0
  -22.7883  -13.5243   21.1823 C   0  0  0  0  0  0
  -22.1658   -4.2153   21.0968 F   0  0  0  0  0  0
  -21.5643   -3.4532   25.7730 F   0  0  0  0  0  0
  -30.0400  -13.2565   20.4519 N   0  0  0  0  0  0
  -26.3040  -12.9301   20.3356 N   0  0  0  0  0  0
  -25.9317  -11.6471   20.5740 N   0  0  0  0  0  0
  -22.0509  -12.8253   22.0375 N   0  0  0  0  0  0
  -25.4366  -15.1862   20.4070 N   0  0  0  0  0  0
  -31.8068  -14.6567   20.0877 O   0  0  0  0  0  0
  -21.6646   -6.8873   21.4234 O   0  0  0  0  0  0
  -22.3568  -14.5546   20.6651 O   0  0  0  0  0  0
  -24.6147  -31.8679   23.2124 C   0  0  0  0  0  0
  -25.9039  -32.4840   23.8411 C   0  0  1  0  0  0
  -27.2405  -27.4528   20.0782 C   0  0  0  0  0  0
  -25.5898  -33.8635   24.2322 N   0  0  0  0  0  0
  -23.4021  -30.4943   21.5476 C   0  0  2  0  0  0
  -24.8507  -28.9654   20.1082 C   0  0  0  0  0  0
  -22.7404  -29.4671   22.4941 C   0  0  0  0  0  0
  -18.0265  -28.1373   22.8478 C   0  0  0  0  0  0
  -24.1477  -36.7335   23.2640 C   0  0  0  0  0  0
  -25.9296  -30.8381   21.3651 C   0  0  0  0  0  0
  -26.0081  -29.4749   20.7090 C   0  0  0  0  0  0
  -27.2032  -28.7211   20.7002 C   0  0  0  0  0  0
  -26.0584  -26.9458   19.4963 C   0  0  0  0  0  0
  -24.8688  -27.6979   19.5035 C   0  0  0  0  0  0
  -23.6102  -29.8294   20.1600 C   0  0  0  0  0  0
  -25.4110  -36.3136   24.0327 C   0  0  1  0  0  0
  -20.5863  -28.3681   23.1278 C   0  0  2  0  0  0
  -20.6753  -26.9417   22.5393 C   0  0  0  0  0  0
  -19.5739  -26.6378   21.5186 C   0  0  0  0  0  0
  -18.1917  -26.7919   22.1607 C   0  0  0  0  0  0
  -19.1514  -28.8843   23.2884 C   0  0  0  0  0  0
  -18.9456  -30.1442   23.8910 C   0  0  0  0  0  0
  -17.6462  -30.6585   24.0560 C   0  0  0  0  0  0
  -25.9021  -34.9488   23.5116 C   0  0  0  0  0  0
  -16.5348  -29.9093   23.6317 C   0  0  0  0  0  0
  -16.7258  -28.6498   23.0358 C   0  0  0  0  0  0
  -26.4471  -31.6639   25.0751 C   0  0  0  0  0  0
  -25.3739  -31.3764   26.1501 C   0  0  0  0  0  0
  -27.0320  -30.3076   24.6166 C   0  0  0  0  0  0
  -27.6030  -32.4388   25.7512 C   0  0  0  0  0  0
  -27.5579  -37.1830   24.8459 C   0  0  0  0  0  0
  -21.4130  -29.3060   22.3682 N   0  0  0  0  0  0
  -26.4292  -37.3816   23.9399 N   0  0  0  0  0  0
  -24.6662  -31.0804   22.1005 N   0  0  0  0  0  0
  -23.4165  -28.8189   23.2969 O   0  0  0  0  0  0
  -28.3988  -26.7084   20.1151 O   0  0  0  0  0  0
  -26.5588  -34.8957   22.4679 O   0  0  0  0  0  0
  -23.5342  -32.1402   23.7532 O   0  0  0  0  0  0
  -29.4907  -17.1229   19.4475 C   0  0  0  0  0  0
  -29.4343  -18.4734   19.0564 C   0  0  0  0  0  0
  -30.4096  -17.8008   21.5968 C   0  0  0  0  0  0
  -30.3737  -19.1671   21.2106 C   0  0  0  0  0  0
  -29.9827  -16.7782   20.7243 C   0  0  0  0  0  0
  -29.8596  -19.5042   19.9226 C   0  0  0  0  0  0
  -30.8841  -20.1728   22.1962 C   0  0  0  0  0  0
  -31.6621  -22.4190   22.4660 C   0  0  0  0  0  0
  -28.9840  -26.2990   18.8759 C   0  0  0  0  0  0
  -28.4927  -21.4073   19.6652 C   0  0  0  0  0  0
  -28.5465  -24.9191   18.3314 C   0  0  0  0  0  0
  -28.2884  -22.6041   18.7155 C   0  0  0  0  0  0
  -29.9809  -15.4239   21.1561 N   0  0  0  0  0  0
  -31.0623  -19.9187   23.3928 O   0  0  0  0  0  0
  -29.7684  -20.7989   19.4621 O   0  0  0  0  0  0
  -31.1609  -21.3709   21.6541 O   0  0  0  0  0  0
  -28.8171  -23.8332   19.2219 O   0  0  0  0  0  0
  -31.4652  -12.3941   19.1068 H   0  0  0  0  0  0
  -30.3167  -11.2751   19.7832 H   0  0  0  0  0  0
  -29.7359  -11.8231   17.3986 H   0  0  0  0  0  0
  -29.6652  -13.5233   17.7920 H   0  0  0  0  0  0
  -27.8118  -11.3235   18.7766 H   0  0  0  0  0  0
  -27.3675  -12.6801   17.7764 H   0  0  0  0  0  0
  -27.7156  -14.2544   19.6033 H   0  0  0  0  0  0
  -28.6726  -11.9052   21.3053 H   0  0  0  0  0  0
  -28.4643  -13.5272   21.8869 H   0  0  0  0  0  0
  -25.2755   -9.5728   22.4732 H   0  0  0  0  0  0
  -24.0024   -7.4649   22.7462 H   0  0  0  0  0  0
  -21.0829   -8.8744   19.8933 H   0  0  0  0  0  0
  -22.3638  -10.9674   19.6154 H   0  0  0  0  0  0
  -21.1989   -7.6142   23.9720 H   0  0  0  0  0  0
  -21.1486   -6.0504   25.9079 H   0  0  0  0  0  0
  -22.0602   -2.7610   23.2832 H   0  0  0  0  0  0
  -22.4096  -11.9932   22.4819 H   0  0  0  0  0  0
  -21.1123  -13.1295   22.2531 H   0  0  0  0  0  0
  -24.6749  -15.8484   20.5142 H   0  0  0  0  0  0
  -26.3059  -15.6226   20.1255 H   0  0  0  0  0  0
  -26.7109  -32.5537   23.1176 H   0  0  0  0  0  0
  -25.0095  -33.9805   25.0490 H   0  0  0  0  0  0
  -22.6936  -31.3139   21.4087 H   0  0  0  0  0  0
  -23.3741  -35.9663   23.3324 H   0  0  0  0  0  0
  -24.3567  -36.8935   22.2050 H   0  0  0  0  0  0
  -23.7224  -37.6546   23.6643 H   0  0  0  0  0  0
  -26.0430  -31.6110   20.6029 H   0  0  0  0  0  0
  -26.8172  -30.8885   21.9858 H   0  0  0  0  0  0
  -28.0956  -29.1094   21.1716 H   0  0  0  0  0  0
  -26.0267  -25.9577   19.0708 H   0  0  0  0  0  0
  -23.9743  -27.2928   19.0503 H   0  0  0  0  0  0
  -23.7186  -30.6059   19.4014 H   0  0  0  0  0  0
  -22.7349  -29.2491   19.8597 H   0  0  0  0  0  0
  -25.1281  -36.2009   25.0820 H   0  0  0  0  0  0
  -20.9965  -28.3262   24.1404 H   0  0  0  0  0  0
  -20.5616  -26.2320   23.3601 H   0  0  0  0  0  0
  -21.6626  -26.7441   22.1221 H   0  0  0  0  0  0
  -19.6915  -25.6283   21.1240 H   0  0  0  0  0  0
  -19.6677  -27.3175   20.6705 H   0  0  0  0  0  0
  -17.4193  -26.6673   21.4010 H   0  0  0  0  0  0
  -18.0337  -26.0030   22.8978 H   0  0  0  0  0  0
  -19.7935  -30.7223   24.2311 H   0  0  0  0  0  0
  -17.5027  -31.6272   24.5162 H   0  0  0  0  0  0
  -15.5359  -30.3020   23.7613 H   0  0  0  0  0  0
  -15.8651  -28.0811   22.7108 H   0  0  0  0  0  0
  -24.5868  -30.7161   25.7844 H   0  0  0  0  0  0
  -24.8988  -32.2938   26.4989 H   0  0  0  0  0  0
  -25.8081  -30.8896   27.0240 H   0  0  0  0  0  0
  -26.2890  -29.6834   24.1192 H   0  0  0  0  0  0
  -27.4036  -29.7332   25.4664 H   0  0  0  0  0  0
  -27.8741  -30.4387   23.9367 H   0  0  0  0  0  0
  -27.2620  -33.3663   26.2135 H   0  0  0  0  0  0
  -28.3824  -32.7012   25.0342 H   0  0  0  0  0  0
  -28.0732  -31.8506   26.5407 H   0  0  0  0  0  0
  -28.2616  -38.0114   24.7510 H   0  0  0  0  0  0
  -28.1065  -36.2648   24.6283 H   0  0  0  0  0  0
  -27.2300  -37.1480   25.8866 H   0  0  0  0  0  0
  -20.9283  -29.8828   21.6940 H   0  0  0  0  0  0
  -26.0191  -38.2897   24.1413 H   0  0  0  0  0  0
  -29.1445  -16.3603   18.7629 H   0  0  0  0  0  0
  -29.0563  -18.7276   18.0753 H   0  0  0  0  0  0
  -30.7821  -17.5281   22.5754 H   0  0  0  0  0  0
  -32.6628  -22.1777   22.8288 H   0  0  0  0  0  0
  -31.0118  -22.5984   23.3231 H   0  0  0  0  0  0
  -31.7230  -23.3403   21.8879 H   0  0  0  0  0  0
  -28.8010  -27.0621   18.1172 H   0  0  0  0  0  0
  -30.0634  -26.2874   19.0307 H   0  0  0  0  0  0
  -27.7065  -20.6775   19.4605 H   0  0  0  0  0  0
  -28.3740  -21.7143   20.7051 H   0  0  0  0  0  0
  -29.0954  -24.7400   17.4061 H   0  0  0  0  0  0
  -27.4994  -24.9330   18.0454 H   0  0  0  0  0  0
  -27.2147  -22.7356   18.5712 H   0  0  0  0  0  0
  -28.7100  -22.3768   17.7358 H   0  0  0  0  0  0
  -29.1401  -15.1108   21.6185 H   0  0  0  0  0  0
  1 25  1  0  0  0
  1 30  2  0  0  0
  1 83  1  0  0  0
  2  3  1  0  0  0
  2 25  1  0  0  0
  2 88  1  0  0  0
  2 89  1  0  0  0
  3  4  1  0  0  0
  3 90  1  0  0  0
  3 91  1  0  0  0
  4  5  1  0  0  0
  4 92  1  0  0  0
  4 93  1  0  0  0
  5  6  1  0  0  0
  5 26  1  0  0  0
  5 94  1  0  0  0
  6 25  1  0  0  0
  6 95  1  0  0  0
  6 96  1  0  0  0
  7  8  2  0  0  0
  7 26  1  0  0  0
  7 29  1  0  0  0
  8  9  1  0  0  0
  8 22  1  0  0  0
  9 10  1  0  0  0
  9 27  2  0  0  0
 10 11  2  0  0  0
 10 15  1  0  0  0
 11 12  1  0  0  0
 11 97  1  0  0  0
 12 13  2  0  0  0
 12 98  1  0  0  0
 13 14  1  0  0  0
 13 31  1  0  0  0
 14 15  2  0  0  0
 14 99  1  0  0  0
 15100  1  0  0  0
 16 17  2  0  0  0
 16 21  1  0  0  0
 16 31  1  0  0  0
 17 18  1  0  0  0
 17101  1  0  0  0
 18 19  2  0  0  0
 18102  1  0  0  0
 19 20  1  0  0  0
 19 24  1  0  0  0
 20 21  2  0  0  0
 20103  1  0  0  0
 21 23  1  0  0  0
 22 28  1  0  0  0
 22 32  2  0  0  0
 26 27  1  0  0  0
 28104  1  0  0  0
 28105  1  0  0  0
 29106  1  0  0  0
 29107  1  0  0  0
 33 34  1  0  0  0
 33 66  1  0  0  0
 33 70  2  0  0  0
 34 36  1  0  0  0
 34 59  1  0  0  0
 34108  1  0  0  0
 35 44  2  0  0  0
 35 45  1  0  0  0
 35 68  1  0  0  0
 36 56  1  0  0  0
 36109  1  0  0  0
 37 39  1  0  0  0
 37 47  1  0  0  0
 37 66  1  0  0  0
 37110  1  0  0  0
 38 43  2  0  0  0
 38 46  1  0  0  0
 38 47  1  0  0  0
 39 64  1  0  0  0
 39 67  2  0  0  0
 40 52  1  0  0  0
 40 53  2  0  0  0
 40 58  1  0  0  0
 41111  1  0  0  0
 41112  1  0  0  0
 41113  1  0  0  0
 41 48  1  0  0  0
 42 43  1  0  0  0
 42 66  1  0  0  0
 42114  1  0  0  0
 42115  1  0  0  0
 43 44  1  0  0  0
 44116  1  0  0  0
 45 46  2  0  0  0
 45117  1  0  0  0
 46118  1  0  0  0
 47119  1  0  0  0
 47120  1  0  0  0
 48 56  1  0  0  0
 48 65  1  0  0  0
 48121  1  0  0  0
 49 50  1  0  0  0
 49 53  1  0  0  0
 49 64  1  0  0  0
 49122  1  0  0  0
 50 51  1  0  0  0
 50123  1  0  0  0
 50124  1  0  0  0
 51 52  1  0  0  0
 51125  1  0  0  0
 51126  1  0  0  0
 52127  1  0  0  0
 52128  1  0  0  0
 53 54  1  0  0  0
 54 55  2  0  0  0
 54129  1  0  0  0
 55 57  1  0  0  0
 55130  1  0  0  0
 56 69  2  0  0  0
 57 58  2  0  0  0
 57131  1  0  0  0
 58132  1  0  0  0
 59 60  1  0  0  0
 59 61  1  0  0  0
 59 62  1  0  0  0
 60133  1  0  0  0
 60134  1  0  0  0
 60135  1  0  0  0
 61136  1  0  0  0
 61137  1  0  0  0
 61138  1  0  0  0
 62139  1  0  0  0
 62140  1  0  0  0
 62141  1  0  0  0
 63 65  1  0  0  0
 63142  1  0  0  0
 63143  1  0  0  0
 63144  1  0  0  0
 64145  1  0  0  0
 65146  1  0  0  0
 68 79  1  0  0  0
 71 72  2  0  0  0
 71 75  1  0  0  0
 71147  1  0  0  0
 72 76  1  0  0  0
 72148  1  0  0  0
 73 74  1  0  0  0
 73 75  2  0  0  0
 73149  1  0  0  0
 74 76  2  0  0  0
 74 77  1  0  0  0
 75 83  1  0  0  0
 76 85  1  0  0  0
 77 84  2  0  0  0
 77 86  1  0  0  0
 78 86  1  0  0  0
 78150  1  0  0  0
 78151  1  0  0  0
 78152  1  0  0  0
 79 81  1  0  0  0
 79153  1  0  0  0
 79154  1  0  0  0
 80 82  1  0  0  0
 80 85  1  0  0  0
 80155  1  0  0  0
 80156  1  0  0  0
 81 87  1  0  0  0
 81157  1  0  0  0
 81158  1  0  0  0
 82 87  1  0  0  0
 82159  1  0  0  0
 82160  1  0  0  0
 83161  1  0  0  0
M  ISO  4   1 100  68 101  79 101  83 100
M  END
> <chiral flag>
0

> <version>
0

> <s_m_source_file>
/data/baiqing/PycharmProjects/Reinvent-master-3.2/result/LINK_invent/BTK/process_docking_weight1_custom_product_contain_oxygen_bond_distance_aromatic_linkinvent_7_9_3/rearranged_h_0001.sdf

> <i_m_source_file_index>
6

> <r_mmod_Potential_Energy-OPLS-2005>
-5.52135848999023

> <r_mmod_Stretch_Energy-OPLS-2005>
37.3327102661133

> <r_mmod_Bend_Energy-OPLS-2005>
99.419059753418

> <r_mmod_Torsional_Energy-OPLS-2005>
286.288238525391

> <r_mmod_Improper_Torsional_Energy-OPLS-2005>
4.94935703277588

> <r_mmod_Van_der_Waal_Energy-OPLS-2005>
156.012802124023

> <r_mmod_Electrostatic_Energy-OPLS-2005>
-364.297088623047

> <r_mmod_Solvation_Energy-OPLS-2005>
-235.93522644043

> <b_mmod_Minimization_Converged-OPLS-2005>
0

> <r_mmod_RMS_Derivative-OPLS-2005>
2.7905535697937

$$$$
6
                    3D
 Structure written by MMmdl.
143151  0  0  1  0            999 V2000
  -30.2987  -15.5756   20.3426 C   0  0  0  0  0  0
  -30.4350  -13.0341   19.5492 C   0  0  0  0  0  0
  -29.5562  -12.6490   18.3241 C   0  0  0  0  0  0
  -28.1207  -12.3075   18.7557 C   0  0  0  0  0  0
  -27.6009  -13.3030   19.8183 C   0  0  2  0  0  0
  -28.6191  -13.5912   20.9466 C   0  0  0  0  0  0
  -25.2328  -13.8278   20.5775 C   0  0  0  0  0  0
  -24.1718  -13.0431   20.9280 C   0  0  0  0  0  0
  -24.6411  -11.6939   20.8757 C   0  0  0  0  0  0
  -23.9110  -10.4291   21.0397 C   0  0  0  0  0  0
  -24.3647   -9.4210   21.9185 C   0  0  0  0  0  0
  -23.6303   -8.2251   22.0758 C   0  0  0  0  0  0
  -22.4282   -8.0288   21.3548 C   0  0  0  0  0  0
  -21.9931   -9.0267   20.4653 C   0  0  0  0  0  0
  -22.7272  -10.2136   20.3053 C   0  0  0  0  0  0
  -21.6858   -6.0739   22.5276 C   0  0  0  0  0  0
  -21.4025   -6.5643   23.8212 C   0  0  0  0  0  0
  -21.3669   -5.6792   24.9175 C   0  0  0  0  0  0
  -21.6042   -4.3053   24.7219 C   0  0  0  0  0  0
  -21.8819   -3.8147   23.4341 C   0  0  0  0  0  0
  -21.9194   -4.6968   22.3402 C   0  0  0  0  0  0
  -22.7732  -13.5168   21.1911 C   0  0  0  0  0  0
  -22.1660   -4.2156   21.0979 F   0  0  0  0  0  0
  -21.5628   -3.4537   25.7734 F   0  0  0  0  0  0
  -29.8066  -14.2028   20.3081 N   0  0  0  0  0  0
  -26.2782  -12.9597   20.3215 N   0  0  0  0  0  0
  -25.9355  -11.6675   20.5681 N   0  0  0  0  0  0
  -22.0389  -12.8158   22.0466 N   0  0  0  0  0  0
  -25.3906  -15.2023   20.4224 N   0  0  0  0  0  0
  -31.5278  -15.5626   20.1384 O   0  0  0  0  0  0
  -21.6641   -6.8886   21.4239 O   0  0  0  0  0  0
  -22.3417  -14.5462   20.6743 O   0  0  0  0  0  0
  -24.6817  -31.8031   23.1563 C   0  0  0  0  0  0
  -25.9405  -32.4494   23.8095 C   0  0  1  0  0  0
  -27.2231  -26.7240   20.2079 C   0  0  0  0  0  0
  -25.5986  -33.8317   24.1976 N   0  0  0  0  0  0
  -23.5068  -30.4084   21.5100 C   0  0  2  0  0  0
  -24.9639  -28.7567   20.1215 C   0  0  0  0  0  0
  -22.7755  -29.4342   22.4723 C   0  0  0  0  0  0
  -18.0336  -28.1422   22.8450 C   0  0  0  0  0  0
  -24.1498  -36.7174   23.2650 C   0  0  0  0  0  0
  -26.0882  -30.5417   21.4210 C   0  0  0  0  0  0
  -26.1537  -29.1090   20.7710 C   0  0  0  0  0  0
  -27.2687  -28.1186   20.7882 C   0  0  0  0  0  0
  -26.0000  -26.5835   19.5023 C   0  0  0  0  0  0
  -24.9233  -27.5156   19.4672 C   0  0  0  0  0  0
  -23.7607  -29.7105   20.1443 C   0  0  0  0  0  0
  -25.4151  -36.2919   24.0280 C   0  0  1  0  0  0
  -20.5971  -28.3782   23.1143 C   0  0  2  0  0  0
  -20.6809  -26.9442   22.5399 C   0  0  0  0  0  0
  -19.5782  -26.6370   21.5214 C   0  0  0  0  0  0
  -18.1966  -26.7948   22.1619 C   0  0  0  0  0  0
  -19.1601  -28.8923   23.2778 C   0  0  0  0  0  0
  -18.9510  -30.1507   23.8823 C   0  0  0  0  0  0
  -17.6501  -30.6605   24.0546 C   0  0  0  0  0  0
  -25.9122  -34.9302   23.4962 C   0  0  0  0  0  0
  -16.5390  -29.9086   23.6349 C   0  0  0  0  0  0
  -16.7317  -28.6509   23.0364 C   0  0  0  0  0  0
  -26.4577  -31.6523   25.0711 C   0  0  0  0  0  0
  -25.3638  -31.3853   26.1326 C   0  0  0  0  0  0
  -27.0495  -30.2851   24.6618 C   0  0  0  0  0  0
  -27.6022  -32.4383   25.7531 C   0  0  0  0  0  0
  -27.5568  -37.1757   24.8467 C   0  0  0  0  0  0
  -21.4403  -29.3035   22.3466 N   0  0  0  0  0  0
  -26.4289  -37.3669   23.9390 N   0  0  0  0  0  0
  -24.7825  -30.9492   22.0822 N   0  0  0  0  0  0
  -23.4204  -28.7929   23.3053 O   0  0  0  0  0  0
  -28.1610  -25.4883   20.2496 O   0  0  0  0  0  0
  -26.5761  -34.8863   22.4578 O   0  0  0  0  0  0
  -23.5841  -32.1092   23.6527 O   0  0  0  0  0  0
  -29.7828  -21.2920   20.0003 C   0  0  0  0  0  0
  -27.7449  -20.8148   20.7179 C   0  0  0  0  0  0
  -30.1269  -19.7835   20.0189 C   0  0  0  0  0  0
  -28.0767  -19.3343   20.7407 C   0  0  0  0  0  0
  -28.5208  -22.0288   20.3473 C   0  0  0  0  0  0
  -29.3063  -18.5838   20.3946 C   0  0  0  0  0  0
  -27.7746  -23.7103   20.3643 C   0  0  0  0  0  0
  -29.4576  -16.8712   20.4446 N   0  0  0  0  0  0
  -26.5601  -23.5804   20.5320 O   0  0  0  0  0  0
  -31.4322  -13.2978   19.1950 H   0  0  0  0  0  0
  -30.5844  -12.1744   20.2047 H   0  0  0  0  0  0
  -29.9980  -11.8108   17.7837 H   0  0  0  0  0  0
  -29.5348  -13.4872   17.6256 H   0  0  0  0  0  0
  -28.1277  -11.3008   19.1750 H   0  0  0  0  0  0
  -27.4554  -12.2762   17.8926 H   0  0  0  0  0  0
  -27.4774  -14.2394   19.2724 H   0  0  0  0  0  0
  -28.8605  -12.6897   21.5124 H   0  0  0  0  0  0
  -28.1976  -14.2975   21.6641 H   0  0  0  0  0  0
  -25.2793   -9.5684   22.4766 H   0  0  0  0  0  0
  -24.0017   -7.4643   22.7481 H   0  0  0  0  0  0
  -21.0865   -8.8797   19.8955 H   0  0  0  0  0  0
  -22.3738  -10.9684   19.6168 H   0  0  0  0  0  0
  -21.2021   -7.6151   23.9717 H   0  0  0  0  0  0
  -21.1491   -6.0522   25.9079 H   0  0  0  0  0  0
  -22.0585   -2.7607   23.2830 H   0  0  0  0  0  0
  -22.4018  -11.9849   22.4900 H   0  0  0  0  0  0
  -21.1006  -13.1184   22.2657 H   0  0  0  0  0  0
  -24.6072  -15.8384   20.5219 H   0  0  0  0  0  0
  -26.2122  -15.6452   20.0342 H   0  0  0  0  0  0
  -26.7486  -32.4969   23.0807 H   0  0  0  0  0  0
  -25.0028  -33.9374   25.0058 H   0  0  0  0  0  0
  -22.8310  -31.2459   21.3238 H   0  0  0  0  0  0
  -23.3767  -35.9500   23.3299 H   0  0  0  0  0  0
  -24.3556  -36.8847   22.2067 H   0  0  0  0  0  0
  -23.7264  -37.6352   23.6736 H   0  0  0  0  0  0
  -26.2914  -31.2683   20.6329 H   0  0  0  0  0  0
  -26.9399  -30.6075   22.0860 H   0  0  0  0  0  0
  -28.1639  -28.3918   21.3281 H   0  0  0  0  0  0
  -25.8319  -25.6458   18.9929 H   0  0  0  0  0  0
  -24.0238  -27.2339   18.9362 H   0  0  0  0  0  0
  -23.9385  -30.4734   19.3858 H   0  0  0  0  0  0
  -22.8648  -29.1800   19.8166 H   0  0  0  0  0  0
  -25.1365  -36.1693   25.0773 H   0  0  0  0  0  0
  -21.0055  -28.3414   24.1271 H   0  0  0  0  0  0
  -20.5684  -26.2404   23.3660 H   0  0  0  0  0  0
  -21.6673  -26.7394   22.1214 H   0  0  0  0  0  0
  -19.6941  -25.6262   21.1296 H   0  0  0  0  0  0
  -19.6724  -27.3135   20.6709 H   0  0  0  0  0  0
  -17.4230  -26.6674   21.4033 H   0  0  0  0  0  0
  -18.0359  -26.0120   22.9043 H   0  0  0  0  0  0
  -19.7986  -30.7338   24.2166 H   0  0  0  0  0  0
  -17.5053  -31.6280   24.5160 H   0  0  0  0  0  0
  -15.5388  -30.2963   23.7725 H   0  0  0  0  0  0
  -15.8718  -28.0805   22.7126 H   0  0  0  0  0  0
  -24.5819  -30.7213   25.7623 H   0  0  0  0  0  0
  -24.8829  -32.3084   26.4570 H   0  0  0  0  0  0
  -25.7799  -30.9118   27.0227 H   0  0  0  0  0  0
  -26.3197  -29.6471   24.1625 H   0  0  0  0  0  0
  -27.3913  -29.7302   25.5367 H   0  0  0  0  0  0
  -27.9193  -30.3954   24.0141 H   0  0  0  0  0  0
  -27.2548  -33.3730   26.1941 H   0  0  0  0  0  0
  -28.3923  -32.6881   25.0442 H   0  0  0  0  0  0
  -28.0594  -31.8636   26.5592 H   0  0  0  0  0  0
  -28.2583  -38.0051   24.7477 H   0  0  0  0  0  0
  -28.1065  -36.2574   24.6352 H   0  0  0  0  0  0
  -27.2268  -37.1464   25.8864 H   0  0  0  0  0  0
  -20.9701  -29.8686   21.6531 H   0  0  0  0  0  0
  -26.0122  -38.2726   24.1364 H   0  0  0  0  0  0
  -30.5856  -21.9284   19.6554 H   0  0  0  0  0  0
  -26.7321  -21.0287   21.0307 H   0  0  0  0  0  0
  -31.1295  -19.5518   19.6887 H   0  0  0  0  0  0
  -27.2550  -18.7116   21.0674 H   0  0  0  0  0  0
  -28.5348  -16.5055   20.6296 H   0  0  0  0  0  0
  1 25  1  0  0  0
  1 30  2  0  0  0
  1 78  1  0  0  0
  2  3  1  0  0  0
  2 25  1  0  0  0
  2 80  1  0  0  0
  2 81  1  0  0  0
  3  4  1  0  0  0
  3 82  1  0  0  0
  3 83  1  0  0  0
  4  5  1  0  0  0
  4 84  1  0  0  0
  4 85  1  0  0  0
  5  6  1  0  0  0
  5 26  1  0  0  0
  5 86  1  0  0  0
  6 25  1  0  0  0
  6 87  1  0  0  0
  6 88  1  0  0  0
  7  8  2  0  0  0
  7 26  1  0  0  0
  7 29  1  0  0  0
  8  9  1  0  0  0
  8 22  1  0  0  0
  9 10  1  0  0  0
  9 27  2  0  0  0
 10 11  2  0  0  0
 10 15  1  0  0  0
 11 12  1  0  0  0
 11 89  1  0  0  0
 12 13  2  0  0  0
 12 90  1  0  0  0
 13 14  1  0  0  0
 13 31  1  0  0  0
 14 15  2  0  0  0
 14 91  1  0  0  0
 15 92  1  0  0  0
 16 17  2  0  0  0
 16 21  1  0  0  0
 16 31  1  0  0  0
 17 18  1  0  0  0
 17 93  1  0  0  0
 18 19  2  0  0  0
 18 94  1  0  0  0
 19 20  1  0  0  0
 19 24  1  0  0  0
 20 21  2  0  0  0
 20 95  1  0  0  0
 21 23  1  0  0  0
 22 28  1  0  0  0
 22 32  2  0  0  0
 26 27  1  0  0  0
 28 96  1  0  0  0
 28 97  1  0  0  0
 29 98  1  0  0  0
 29 99  1  0  0  0
 33 34  1  0  0  0
 33 66  1  0  0  0
 33 70  2  0  0  0
 34 36  1  0  0  0
 34 59  1  0  0  0
 34100  1  0  0  0
 35 44  2  0  0  0
 35 45  1  0  0  0
 35 68  1  0  0  0
 36 56  1  0  0  0
 36101  1  0  0  0
 37 39  1  0  0  0
 37 47  1  0  0  0
 37 66  1  0  0  0
 37102  1  0  0  0
 38 43  2  0  0  0
 38 46  1  0  0  0
 38 47  1  0  0  0
 39 64  1  0  0  0
 39 67  2  0  0  0
 40 52  1  0  0  0
 40 53  2  0  0  0
 40 58  1  0  0  0
 41103  1  0  0  0
 41104  1  0  0  0
 41105  1  0  0  0
 41 48  1  0  0  0
 42 43  1  0  0  0
 42 66  1  0  0  0
 42106  1  0  0  0
 42107  1  0  0  0
 43 44  1  0  0  0
 44108  1  0  0  0
 45 46  2  0  0  0
 45109  1  0  0  0
 46110  1  0  0  0
 47111  1  0  0  0
 47112  1  0  0  0
 48 56  1  0  0  0
 48 65  1  0  0  0
 48113  1  0  0  0
 49 50  1  0  0  0
 49 53  1  0  0  0
 49 64  1  0  0  0
 49114  1  0  0  0
 50 51  1  0  0  0
 50115  1  0  0  0
 50116  1  0  0  0
 51 52  1  0  0  0
 51117  1  0  0  0
 51118  1  0  0  0
 52119  1  0  0  0
 52120  1  0  0  0
 53 54  1  0  0  0
 54 55  2  0  0  0
 54121  1  0  0  0
 55 57  1  0  0  0
 55122  1  0  0  0
 56 69  2  0  0  0
 57 58  2  0  0  0
 57123  1  0  0  0
 58124  1  0  0  0
 59 60  1  0  0  0
 59 61  1  0  0  0
 59 62  1  0  0  0
 60125  1  0  0  0
 60126  1  0  0  0
 60127  1  0  0  0
 61128  1  0  0  0
 61129  1  0  0  0
 61130  1  0  0  0
 62131  1  0  0  0
 62132  1  0  0  0
 62133  1  0  0  0
 63 65  1  0  0  0
 63134  1  0  0  0
 63135  1  0  0  0
 63136  1  0  0  0
 64137  1  0  0  0
 65138  1  0  0  0
 68 77  1  0  0  0
 71 73  2  0  0  0
 71 75  1  0  0  0
 71139  1  0  0  0
 72 74  1  0  0  0
 72 75  2  0  0  0
 72140  1  0  0  0
 73 76  1  0  0  0
 73141  1  0  0  0
 74 76  2  0  0  0
 74142  1  0  0  0
 75 77  1  0  0  0
 76 78  1  0  0  0
 77 79  2  0  0  0
 78143  1  0  0  0
M  ISO  4   1 100  68 101  77 101  78 100
M  END
> <chiral flag>
0

> <version>
0

> <s_m_source_file>
/data/baiqing/PycharmProjects/Reinvent-master-3.2/result/LINK_invent/BTK/process_docking_weight1_custom_product_contain_oxygen_bond_distance_aromatic_linkinvent_7_9_3/rearranged_h_0001.sdf

> <i_m_source_file_index>
7

> <r_mmod_Potential_Energy-OPLS-2005>
2317.6826171875

> <r_mmod_Stretch_Energy-OPLS-2005>
971.868286132812

> <r_mmod_Bend_Energy-OPLS-2005>
700.785766601562

> <r_mmod_Torsional_Energy-OPLS-2005>
210.507049560547

> <r_mmod_Improper_Torsional_Energy-OPLS-2005>
3.51418352127075

> <r_mmod_Van_der_Waal_Energy-OPLS-2005>
133.609512329102

> <r_mmod_Electrostatic_Energy-OPLS-2005>
-324.899841308594

> <r_mmod_Solvation_Energy-OPLS-2005>
-218.083419799805

> <b_mmod_Minimization_Converged-OPLS-2005>
0

> <r_mmod_RMS_Derivative-OPLS-2005>
1.56283736228943

$$$$
7
                    3D
 Structure written by MMmdl.
162171  0  0  1  0            999 V2000
  -30.5848  -14.7296   20.4867 C   0  0  0  0  0  0
  -30.4369  -12.4506   19.4680 C   0  0  0  0  0  0
  -29.5225  -12.5194   18.2279 C   0  0  0  0  0  0
  -28.0451  -12.3294   18.6341 C   0  0  0  0  0  0
  -27.6409  -13.2243   19.8369 C   0  0  2  0  0  0
  -28.6766  -13.1505   20.9764 C   0  0  0  0  0  0
  -25.2553  -13.8212   20.5607 C   0  0  0  0  0  0
  -24.1845  -13.0467   20.9149 C   0  0  0  0  0  0
  -24.6404  -11.6936   20.8680 C   0  0  0  0  0  0
  -23.9063  -10.4329   21.0369 C   0  0  0  0  0  0
  -24.3631   -9.4249   21.9149 C   0  0  0  0  0  0
  -23.6321   -8.2271   22.0714 C   0  0  0  0  0  0
  -22.4285   -8.0315   21.3520 C   0  0  0  0  0  0
  -21.9914   -9.0284   20.4604 C   0  0  0  0  0  0
  -22.7228  -10.2173   20.3020 C   0  0  0  0  0  0
  -21.6862   -6.0767   22.5288 C   0  0  0  0  0  0
  -21.4006   -6.5649   23.8223 C   0  0  0  0  0  0
  -21.3643   -5.6797   24.9186 C   0  0  0  0  0  0
  -21.6045   -4.3062   24.7222 C   0  0  0  0  0  0
  -21.8823   -3.8165   23.4333 C   0  0  0  0  0  0
  -21.9194   -4.6995   22.3395 C   0  0  0  0  0  0
  -22.7877  -13.5254   21.1873 C   0  0  0  0  0  0
  -22.1675   -4.2185   21.0969 F   0  0  0  0  0  0
  -21.5629   -3.4527   25.7724 F   0  0  0  0  0  0
  -29.9799  -13.5002   20.4009 N   0  0  0  0  0  0
  -26.2931  -12.9376   20.3130 N   0  0  0  0  0  0
  -25.9312  -11.6527   20.5627 N   0  0  0  0  0  0
  -22.0557  -12.8193   22.0412 N   0  0  0  0  0  0
  -25.4270  -15.1946   20.4022 N   0  0  0  0  0  0
  -31.7863  -14.8554   20.2375 O   0  0  0  0  0  0
  -21.6647   -6.8911   21.4247 O   0  0  0  0  0  0
  -22.3534  -14.5584   20.6780 O   0  0  0  0  0  0
  -24.6339  -31.8551   23.1942 C   0  0  0  0  0  0
  -25.9155  -32.4751   23.8310 C   0  0  1  0  0  0
  -27.2207  -27.2651   20.1422 C   0  0  0  0  0  0
  -25.5937  -33.8554   24.2225 N   0  0  0  0  0  0
  -23.4297  -30.4772   21.5379 C   0  0  2  0  0  0
  -24.8771  -28.9159   20.1150 C   0  0  0  0  0  0
  -22.7503  -29.4644   22.4906 C   0  0  0  0  0  0
  -18.0329  -28.1368   22.8497 C   0  0  0  0  0  0
  -24.1492  -36.7282   23.2628 C   0  0  0  0  0  0
  -25.9745  -30.7745   21.3672 C   0  0  0  0  0  0
  -26.0489  -29.3933   20.7177 C   0  0  0  0  0  0
  -27.2289  -28.5822   20.7136 C   0  0  0  0  0  0
  -26.0277  -26.8477   19.5220 C   0  0  0  0  0  0
  -24.8700  -27.6508   19.5071 C   0  0  0  0  0  0
  -23.6472  -29.8026   20.1577 C   0  0  0  0  0  0
  -25.4114  -36.3050   24.0302 C   0  0  1  0  0  0
  -20.5927  -28.3746   23.1310 C   0  0  2  0  0  0
  -20.6849  -26.9446   22.5476 C   0  0  0  0  0  0
  -19.5863  -26.6440   21.5238 C   0  0  0  0  0  0
  -18.2020  -26.7901   22.1644 C   0  0  0  0  0  0
  -19.1565  -28.8864   23.2900 C   0  0  0  0  0  0
  -18.9446  -30.1471   23.8895 C   0  0  0  0  0  0
  -17.6435  -30.6580   24.0511 C   0  0  0  0  0  0
  -25.9052  -34.9427   23.5053 C   0  0  0  0  0  0
  -16.5339  -29.9032   23.6306 C   0  0  0  0  0  0
  -16.7304  -28.6432   23.0351 C   0  0  0  0  0  0
  -26.4507  -31.6591   25.0717 C   0  0  0  0  0  0
  -25.3712  -31.3818   26.1433 C   0  0  0  0  0  0
  -27.0346  -30.2986   24.6229 C   0  0  0  0  0  0
  -27.6043  -32.4340   25.7526 C   0  0  0  0  0  0
  -27.5572  -37.1795   24.8453 C   0  0  0  0  0  0
  -21.4207  -29.3105   22.3678 N   0  0  0  0  0  0
  -26.4282  -37.3758   23.9393 N   0  0  0  0  0  0
  -24.6986  -31.0534   22.0897 N   0  0  0  0  0  0
  -23.4206  -28.8177   23.2983 O   0  0  0  0  0  0
  -28.3168  -26.3799   20.1438 O   0  0  0  0  0  0
  -26.5651  -34.8911   22.4635 O   0  0  0  0  0  0
  -23.5486  -32.1355   23.7245 O   0  0  0  0  0  0
  -28.3063  -17.5095   25.1711 C   0  0  0  0  0  0
  -27.5183  -17.0430   24.1030 C   0  0  0  0  0  0
  -29.6507  -17.8636   24.9527 C   0  0  0  0  0  0
  -28.7057  -19.4564   18.2202 C   0  0  0  0  0  0
  -28.0713  -16.9429   22.8114 C   0  0  0  0  0  0
  -30.2056  -17.7576   23.6622 C   0  0  0  0  0  0
  -29.1371  -18.3533   18.9878 C   0  0  0  0  0  0
  -28.6008  -20.7548   18.7681 C   0  0  0  0  0  0
  -29.3596  -19.8546   20.8858 C   0  0  0  0  0  0
  -29.4188  -17.3071   22.5792 C   0  0  0  0  0  0
  -29.4822  -18.5045   20.3440 C   0  0  0  0  0  0
  -28.9193  -21.0105   20.1204 C   0  0  0  0  0  0
  -28.6339  -23.6571   19.8900 C   0  0  0  0  0  0
  -28.1353  -24.9858   20.6781 C   0  0  0  0  0  0
  -29.9933  -17.2341   21.1657 C   0  0  2  0  0  0
  -28.7657  -22.3494   20.6619 N   0  0  0  0  0  0
  -29.7495  -15.8167   20.6631 N   0  0  0  0  0  0
  -31.4820  -12.5813   19.1839 H   0  0  0  0  0  0
  -30.3716  -11.4679   19.9359 H   0  0  0  0  0  0
  -29.8128  -11.7650   17.4960 H   0  0  0  0  0  0
  -29.6522  -13.4867   17.7384 H   0  0  0  0  0  0
  -27.9037  -11.2784   18.8907 H   0  0  0  0  0  0
  -27.3930  -12.5254   17.7835 H   0  0  0  0  0  0
  -27.6395  -14.2452   19.4549 H   0  0  0  0  0  0
  -28.7053  -12.1534   21.4169 H   0  0  0  0  0  0
  -28.4067  -13.8329   21.7865 H   0  0  0  0  0  0
  -25.2782   -9.5773   22.4706 H   0  0  0  0  0  0
  -24.0051   -7.4652   22.7399 H   0  0  0  0  0  0
  -21.0855   -8.8790   19.8896 H   0  0  0  0  0  0
  -22.3663  -10.9717   19.6136 H   0  0  0  0  0  0
  -21.1981   -7.6156   23.9710 H   0  0  0  0  0  0
  -21.1447   -6.0540   25.9077 H   0  0  0  0  0  0
  -22.0597   -2.7629   23.2834 H   0  0  0  0  0  0
  -22.4245  -11.9886   22.4802 H   0  0  0  0  0  0
  -21.1170  -13.1167   22.2617 H   0  0  0  0  0  0
  -24.6542  -15.8445   20.4974 H   0  0  0  0  0  0
  -26.2578  -15.6280   20.0215 H   0  0  0  0  0  0
  -26.7248  -32.5403   23.1087 H   0  0  0  0  0  0
  -25.0041  -33.9701   25.0337 H   0  0  0  0  0  0
  -22.7295  -31.2997   21.3860 H   0  0  0  0  0  0
  -23.3739  -35.9631   23.3289 H   0  0  0  0  0  0
  -24.3580  -36.8912   22.2042 H   0  0  0  0  0  0
  -23.7278  -37.6487   23.6673 H   0  0  0  0  0  0
  -26.1039  -31.5329   20.5924 H   0  0  0  0  0  0
  -26.8570  -30.8305   21.9938 H   0  0  0  0  0  0
  -28.1291  -28.9506   21.1853 H   0  0  0  0  0  0
  -25.9840  -25.8730   19.0575 H   0  0  0  0  0  0
  -23.9712  -27.2739   19.0391 H   0  0  0  0  0  0
  -23.7698  -30.5722   19.3953 H   0  0  0  0  0  0
  -22.7673  -29.2318   19.8579 H   0  0  0  0  0  0
  -25.1308  -36.1864   25.0798 H   0  0  0  0  0  0
  -21.0015  -28.3354   24.1429 H   0  0  0  0  0  0
  -20.5765  -26.2332   23.3683 H   0  0  0  0  0  0
  -21.6736  -26.7464   22.1307 H   0  0  0  0  0  0
  -19.7101  -25.6389   21.1199 H   0  0  0  0  0  0
  -19.6801  -27.3313   20.6816 H   0  0  0  0  0  0
  -17.4313  -26.6596   21.4031 H   0  0  0  0  0  0
  -18.0464  -26.0050   22.9048 H   0  0  0  0  0  0
  -19.7910  -30.7310   24.2263 H   0  0  0  0  0  0
  -17.4960  -31.6273   24.5066 H   0  0  0  0  0  0
  -15.5330  -30.2920   23.7597 H   0  0  0  0  0  0
  -15.8728  -28.0701   22.7081 H   0  0  0  0  0  0
  -24.5858  -30.7189   25.7804 H   0  0  0  0  0  0
  -24.8952  -32.3034   26.4786 H   0  0  0  0  0  0
  -25.7994  -30.9060   27.0255 H   0  0  0  0  0  0
  -26.2968  -29.6779   24.1133 H   0  0  0  0  0  0
  -27.3873  -29.7209   25.4787 H   0  0  0  0  0  0
  -27.8902  -30.4249   23.9587 H   0  0  0  0  0  0
  -27.2606  -33.3616   26.2114 H   0  0  0  0  0  0
  -28.3872  -32.6933   25.0396 H   0  0  0  0  0  0
  -28.0683  -31.8460   26.5450 H   0  0  0  0  0  0
  -28.2581  -38.0102   24.7472 H   0  0  0  0  0  0
  -28.1073  -36.2619   24.6295 H   0  0  0  0  0  0
  -27.2285  -37.1453   25.8859 H   0  0  0  0  0  0
  -20.9391  -29.8804   21.6870 H   0  0  0  0  0  0
  -26.0134  -38.2819   24.1404 H   0  0  0  0  0  0
  -27.8741  -17.6006   26.1582 H   0  0  0  0  0  0
  -26.4859  -16.7661   24.2725 H   0  0  0  0  0  0
  -30.2563  -18.2233   25.7746 H   0  0  0  0  0  0
  -28.4533  -19.2984   17.1810 H   0  0  0  0  0  0
  -27.4481  -16.5998   21.9976 H   0  0  0  0  0  0
  -31.2371  -18.0402   23.5057 H   0  0  0  0  0  0
  -29.2064  -17.3790   18.5216 H   0  0  0  0  0  0
  -28.2553  -21.5487   18.1230 H   0  0  0  0  0  0
  -29.6073  -19.9976   21.9303 H   0  0  0  0  0  0
  -29.6157  -23.8686   19.4650 H   0  0  0  0  0  0
  -27.9709  -23.5063   19.0378 H   0  0  0  0  0  0
  -28.6670  -25.0020   21.6292 H   0  0  0  0  0  0
  -27.0923  -24.8347   20.9606 H   0  0  0  0  0  0
  -31.0774  -17.3468   21.2357 H   0  0  0  0  0  0
  -28.8711  -22.4486   21.6693 H   0  0  0  0  0  0
  -28.7780  -15.5627   20.6682 H   0  0  0  0  0  0
  1 25  1  0  0  0
  1 30  2  0  0  0
  1 87  1  0  0  0
  2  3  1  0  0  0
  2 25  1  0  0  0
  2 88  1  0  0  0
  2 89  1  0  0  0
  3  4  1  0  0  0
  3 90  1  0  0  0
  3 91  1  0  0  0
  4  5  1  0  0  0
  4 92  1  0  0  0
  4 93  1  0  0  0
  5  6  1  0  0  0
  5 26  1  0  0  0
  5 94  1  0  0  0
  6 25  1  0  0  0
  6 95  1  0  0  0
  6 96  1  0  0  0
  7  8  2  0  0  0
  7 26  1  0  0  0
  7 29  1  0  0  0
  8  9  1  0  0  0
  8 22  1  0  0  0
  9 10  1  0  0  0
  9 27  2  0  0  0
 10 11  2  0  0  0
 10 15  1  0  0  0
 11 12  1  0  0  0
 11 97  1  0  0  0
 12 13  2  0  0  0
 12 98  1  0  0  0
 13 14  1  0  0  0
 13 31  1  0  0  0
 14 15  2  0  0  0
 14 99  1  0  0  0
 15100  1  0  0  0
 16 17  2  0  0  0
 16 21  1  0  0  0
 16 31  1  0  0  0
 17 18  1  0  0  0
 17101  1  0  0  0
 18 19  2  0  0  0
 18102  1  0  0  0
 19 20  1  0  0  0
 19 24  1  0  0  0
 20 21  2  0  0  0
 20103  1  0  0  0
 21 23  1  0  0  0
 22 28  1  0  0  0
 22 32  2  0  0  0
 26 27  1  0  0  0
 28104  1  0  0  0
 28105  1  0  0  0
 29106  1  0  0  0
 29107  1  0  0  0
 33 34  1  0  0  0
 33 66  1  0  0  0
 33 70  2  0  0  0
 34 36  1  0  0  0
 34 59  1  0  0  0
 34108  1  0  0  0
 35 44  2  0  0  0
 35 45  1  0  0  0
 35 68  1  0  0  0
 36 56  1  0  0  0
 36109  1  0  0  0
 37 39  1  0  0  0
 37 47  1  0  0  0
 37 66  1  0  0  0
 37110  1  0  0  0
 38 43  2  0  0  0
 38 46  1  0  0  0
 38 47  1  0  0  0
 39 64  1  0  0  0
 39 67  2  0  0  0
 40 52  1  0  0  0
 40 53  2  0  0  0
 40 58  1  0  0  0
 41111  1  0  0  0
 41112  1  0  0  0
 41113  1  0  0  0
 41 48  1  0  0  0
 42 43  1  0  0  0
 42 66  1  0  0  0
 42114  1  0  0  0
 42115  1  0  0  0
 43 44  1  0  0  0
 44116  1  0  0  0
 45 46  2  0  0  0
 45117  1  0  0  0
 46118  1  0  0  0
 47119  1  0  0  0
 47120  1  0  0  0
 48 56  1  0  0  0
 48 65  1  0  0  0
 48121  1  0  0  0
 49 50  1  0  0  0
 49 53  1  0  0  0
 49 64  1  0  0  0
 49122  1  0  0  0
 50 51  1  0  0  0
 50123  1  0  0  0
 50124  1  0  0  0
 51 52  1  0  0  0
 51125  1  0  0  0
 51126  1  0  0  0
 52127  1  0  0  0
 52128  1  0  0  0
 53 54  1  0  0  0
 54 55  2  0  0  0
 54129  1  0  0  0
 55 57  1  0  0  0
 55130  1  0  0  0
 56 69  2  0  0  0
 57 58  2  0  0  0
 57131  1  0  0  0
 58132  1  0  0  0
 59 60  1  0  0  0
 59 61  1  0  0  0
 59 62  1  0  0  0
 60133  1  0  0  0
 60134  1  0  0  0
 60135  1  0  0  0
 61136  1  0  0  0
 61137  1  0  0  0
 61138  1  0  0  0
 62139  1  0  0  0
 62140  1  0  0  0
 62141  1  0  0  0
 63 65  1  0  0  0
 63142  1  0  0  0
 63143  1  0  0  0
 63144  1  0  0  0
 64145  1  0  0  0
 65146  1  0  0  0
 68 84  1  0  0  0
 71 72  2  0  0  0
 71 73  1  0  0  0
 71147  1  0  0  0
 72 75  1  0  0  0
 72148  1  0  0  0
 73 76  2  0  0  0
 73149  1  0  0  0
 74 77  2  0  0  0
 74 78  1  0  0  0
 74150  1  0  0  0
 75 80  2  0  0  0
 75151  1  0  0  0
 76 80  1  0  0  0
 76152  1  0  0  0
 77 81  1  0  0  0
 77153  1  0  0  0
 78 82  2  0  0  0
 78154  1  0  0  0
 79 81  2  0  0  0
 79 82  1  0  0  0
 79155  1  0  0  0
 80 85  1  0  0  0
 81 85  1  0  0  0
 82 86  1  0  0  0
 83 84  1  0  0  0
 83 86  1  0  0  0
 83156  1  0  0  0
 83157  1  0  0  0
 84158  1  0  0  0
 84159  1  0  0  0
 85 87  1  0  0  0
 85160  1  0  0  0
 86161  1  0  0  0
 87162  1  0  0  0
M  ISO  4   1 100  68 101  84 101  87 100
M  END
> <chiral flag>
0

> <version>
0

> <s_m_source_file>
/data/baiqing/PycharmProjects/Reinvent-master-3.2/result/LINK_invent/BTK/process_docking_weight1_custom_product_contain_oxygen_bond_distance_aromatic_linkinvent_7_9_3/rearranged_h_0001.sdf

> <i_m_source_file_index>
8

> <r_mmod_Potential_Energy-OPLS-2005>
83.0331649780273

> <r_mmod_Stretch_Energy-OPLS-2005>
116.823463439941

> <r_mmod_Bend_Energy-OPLS-2005>
166.007766723633

> <r_mmod_Torsional_Energy-OPLS-2005>
217.48811340332

> <r_mmod_Improper_Torsional_Energy-OPLS-2005>
5.28506708145142

> <r_mmod_Van_der_Waal_Energy-OPLS-2005>
145.132125854492

> <r_mmod_Electrostatic_Energy-OPLS-2005>
-432.3212890625

> <r_mmod_Solvation_Energy-OPLS-2005>
-218.667556762695

> <b_mmod_Minimization_Converged-OPLS-2005>
0

> <r_mmod_RMS_Derivative-OPLS-2005>
3.80817270278931

$$$$
8
                    3D
 Structure written by MMmdl.
163171  0  0  1  0            999 V2000
  -30.7746  -14.3861   20.6549 C   0  0  0  0  0  0
  -30.4033  -12.2868   19.4113 C   0  0  0  0  0  0
  -29.4846  -12.5197   18.1981 C   0  0  0  0  0  0
  -28.0074  -12.3850   18.6093 C   0  0  0  0  0  0
  -27.6622  -13.2120   19.8767 C   0  0  2  0  0  0
  -28.6997  -12.9823   20.9985 C   0  0  0  0  0  0
  -25.2587  -13.8173   20.5690 C   0  0  0  0  0  0
  -24.1833  -13.0449   20.9174 C   0  0  0  0  0  0
  -24.6397  -11.6906   20.8732 C   0  0  0  0  0  0
  -23.9064  -10.4297   21.0395 C   0  0  0  0  0  0
  -24.3616   -9.4216   21.9183 C   0  0  0  0  0  0
  -23.6291   -8.2247   22.0752 C   0  0  0  0  0  0
  -22.4274   -8.0282   21.3540 C   0  0  0  0  0  0
  -21.9912   -9.0250   20.4638 C   0  0  0  0  0  0
  -22.7237  -10.2129   20.3042 C   0  0  0  0  0  0
  -21.6860   -6.0730   22.5273 C   0  0  0  0  0  0
  -21.4019   -6.5640   23.8205 C   0  0  0  0  0  0
  -21.3660   -5.6792   24.9174 C   0  0  0  0  0  0
  -21.6050   -4.3054   24.7223 C   0  0  0  0  0  0
  -21.8820   -3.8145   23.4350 C   0  0  0  0  0  0
  -21.9192   -4.6961   22.3403 C   0  0  0  0  0  0
  -22.7862  -13.5242   21.1846 C   0  0  0  0  0  0
  -22.1666   -4.2150   21.0980 F   0  0  0  0  0  0
  -21.5624   -3.4538   25.7737 F   0  0  0  0  0  0
  -30.0404  -13.2601   20.4539 N   0  0  0  0  0  0
  -26.3030  -12.9348   20.3364 N   0  0  0  0  0  0
  -25.9326  -11.6509   20.5759 N   0  0  0  0  0  0
  -22.0494  -12.8201   22.0377 N   0  0  0  0  0  0
  -25.4331  -15.1889   20.4122 N   0  0  0  0  0  0
  -31.8235  -14.6180   20.0457 O   0  0  0  0  0  0
  -21.6641   -6.8872   21.4235 O   0  0  0  0  0  0
  -22.3546  -14.5561   20.6721 O   0  0  0  0  0  0
  -24.6115  -31.8685   23.2147 C   0  0  0  0  0  0
  -25.9012  -32.4835   23.8441 C   0  0  1  0  0  0
  -27.2566  -27.4583   20.0847 C   0  0  0  0  0  0
  -25.5851  -33.8636   24.2361 N   0  0  0  0  0  0
  -23.4039  -30.4908   21.5495 C   0  0  2  0  0  0
  -24.8555  -28.9613   20.1189 C   0  0  0  0  0  0
  -22.7409  -29.4649   22.4967 C   0  0  0  0  0  0
  -18.0260  -28.1376   22.8481 C   0  0  0  0  0  0
  -24.1480  -36.7321   23.2643 C   0  0  0  0  0  0
  -25.9317  -30.8428   21.3705 C   0  0  0  0  0  0
  -26.0113  -29.4785   20.7138 C   0  0  0  0  0  0
  -27.2097  -28.7337   20.6935 C   0  0  0  0  0  0
  -26.0759  -26.9515   19.4916 C   0  0  0  0  0  0
  -24.8819  -27.6955   19.5114 C   0  0  0  0  0  0
  -23.6170  -29.8233   20.1650 C   0  0  0  0  0  0
  -25.4099  -36.3140   24.0354 C   0  0  1  0  0  0
  -20.5860  -28.3659   23.1312 C   0  0  2  0  0  0
  -20.6763  -26.9386   22.5424 C   0  0  0  0  0  0
  -19.5746  -26.6393   21.5212 C   0  0  0  0  0  0
  -18.1911  -26.7928   22.1611 C   0  0  0  0  0  0
  -19.1513  -28.8827   23.2889 C   0  0  0  0  0  0
  -18.9444  -30.1425   23.8912 C   0  0  0  0  0  0
  -17.6455  -30.6579   24.0562 C   0  0  0  0  0  0
  -25.9024  -34.9490   23.5166 C   0  0  0  0  0  0
  -16.5340  -29.9093   23.6328 C   0  0  0  0  0  0
  -16.7247  -28.6510   23.0345 C   0  0  0  0  0  0
  -26.4449  -31.6609   25.0761 C   0  0  0  0  0  0
  -25.3721  -31.3685   26.1516 C   0  0  0  0  0  0
  -27.0297  -30.3063   24.6135 C   0  0  0  0  0  0
  -27.6038  -32.4335   25.7502 C   0  0  0  0  0  0
  -27.5576  -37.1812   24.8454 C   0  0  0  0  0  0
  -21.4137  -29.3027   22.3709 N   0  0  0  0  0  0
  -26.4295  -37.3810   23.9400 N   0  0  0  0  0  0
  -24.6661  -31.0829   22.1020 N   0  0  0  0  0  0
  -23.4166  -28.8163   23.2996 O   0  0  0  0  0  0
  -28.4773  -26.8131   20.0689 O   0  0  0  0  0  0
  -26.5597  -34.8923   22.4735 O   0  0  0  0  0  0
  -23.5306  -32.1412   23.7527 O   0  0  0  0  0  0
  -31.1965  -22.8893   21.9085 C   0  0  0  0  0  0
  -29.4933  -21.6026   24.2289 C   0  0  0  0  0  0
  -29.0526  -22.6647   23.2137 C   0  0  0  0  0  0
  -29.2661  -20.1970   23.6550 C   0  0  0  0  0  0
  -29.6461  -20.9963   21.4075 C   0  0  0  0  0  0
  -29.7727  -22.4824   21.8571 C   0  0  2  0  0  0
  -30.3294  -17.4672   22.8163 C   0  0  0  0  0  0
  -29.8533  -18.6148   21.8888 C   0  0  0  0  0  0
  -31.1322  -16.3536   22.1079 C   0  0  0  0  0  0
  -28.5898  -25.4113   19.8109 C   0  0  0  0  0  0
  -29.0516  -24.6872   21.0832 C   0  0  0  0  0  0
  -32.3093  -23.2213   21.9416 N   0  0  0  0  0  0
  -30.0216  -19.9822   22.4194 N   0  0  0  0  0  0
  -30.3252  -15.2404   21.5880 N   0  0  0  0  0  0
  -29.1079  -23.2717   20.8565 O   0  0  0  0  0  0
  -31.4518  -12.3561   19.1159 H   0  0  0  0  0  0
  -30.2733  -11.2728   19.7948 H   0  0  0  0  0  0
  -29.7167  -11.8065   17.4063 H   0  0  0  0  0  0
  -29.6645  -13.5121   17.7794 H   0  0  0  0  0  0
  -27.8058  -11.3285   18.7899 H   0  0  0  0  0  0
  -27.3603  -12.6803   17.7824 H   0  0  0  0  0  0
  -27.7126  -14.2638   19.5953 H   0  0  0  0  0  0
  -28.6593  -11.9483   21.3455 H   0  0  0  0  0  0
  -28.4545  -13.5895   21.8698 H   0  0  0  0  0  0
  -25.2759   -9.5695   22.4762 H   0  0  0  0  0  0
  -24.0003   -7.4640   22.7473 H   0  0  0  0  0  0
  -21.0848   -8.8769   19.8940 H   0  0  0  0  0  0
  -22.3705  -10.9666   19.6149 H   0  0  0  0  0  0
  -21.2019   -7.6147   23.9713 H   0  0  0  0  0  0
  -21.1484   -6.0522   25.9071 H   0  0  0  0  0  0
  -22.0599   -2.7610   23.2848 H   0  0  0  0  0  0
  -22.4103  -11.9843   22.4727 H   0  0  0  0  0  0
  -21.1108  -13.1206   22.2576 H   0  0  0  0  0  0
  -24.6759  -15.8526   20.5308 H   0  0  0  0  0  0
  -26.2965  -15.6222   20.1083 H   0  0  0  0  0  0
  -26.7077  -32.5575   23.1209 H   0  0  0  0  0  0
  -24.9999  -33.9806   25.0499 H   0  0  0  0  0  0
  -22.6927  -31.3059   21.4038 H   0  0  0  0  0  0
  -23.3758  -35.9636   23.3330 H   0  0  0  0  0  0
  -24.3580  -36.8925   22.2052 H   0  0  0  0  0  0
  -23.7232  -37.6528   23.6649 H   0  0  0  0  0  0
  -26.0543  -31.6183   20.6100 H   0  0  0  0  0  0
  -26.8136  -30.8888   21.9983 H   0  0  0  0  0  0
  -28.1071  -29.1381   21.1424 H   0  0  0  0  0  0
  -26.0448  -26.0031   18.9807 H   0  0  0  0  0  0
  -23.9950  -27.2949   19.0432 H   0  0  0  0  0  0
  -23.7270  -30.5959   19.4030 H   0  0  0  0  0  0
  -22.7449  -29.2378   19.8677 H   0  0  0  0  0  0
  -25.1273  -36.2032   25.0852 H   0  0  0  0  0  0
  -20.9941  -28.3248   24.1443 H   0  0  0  0  0  0
  -20.5716  -26.2232   23.3600 H   0  0  0  0  0  0
  -21.6618  -26.7472   22.1170 H   0  0  0  0  0  0
  -19.6943  -25.6322   21.1202 H   0  0  0  0  0  0
  -19.6723  -27.3235   20.6776 H   0  0  0  0  0  0
  -17.4196  -26.6664   21.3998 H   0  0  0  0  0  0
  -18.0297  -26.0064   22.9001 H   0  0  0  0  0  0
  -19.7920  -30.7203   24.2316 H   0  0  0  0  0  0
  -17.5022  -31.6270   24.5141 H   0  0  0  0  0  0
  -15.5335  -30.3000   23.7670 H   0  0  0  0  0  0
  -15.8638  -28.0843   22.7068 H   0  0  0  0  0  0
  -24.5891  -30.7051   25.7843 H   0  0  0  0  0  0
  -24.8893  -32.2809   26.5024 H   0  0  0  0  0  0
  -25.8065  -30.8807   27.0254 H   0  0  0  0  0  0
  -26.2868  -29.6815   24.1166 H   0  0  0  0  0  0
  -27.4055  -29.7309   25.4610 H   0  0  0  0  0  0
  -27.8702  -30.4393   23.9320 H   0  0  0  0  0  0
  -27.2695  -33.3647   26.2089 H   0  0  0  0  0  0
  -28.3820  -32.6891   25.0302 H   0  0  0  0  0  0
  -28.0736  -31.8463   26.5391 H   0  0  0  0  0  0
  -28.2587  -38.0112   24.7520 H   0  0  0  0  0  0
  -28.1077  -36.2647   24.6271 H   0  0  0  0  0  0
  -27.2279  -37.1464   25.8850 H   0  0  0  0  0  0
  -20.9290  -29.8749   21.6920 H   0  0  0  0  0  0
  -26.0202  -38.2895   24.1411 H   0  0  0  0  0  0
  -28.9333  -21.7245   25.1558 H   0  0  0  0  0  0
  -30.5458  -21.7396   24.4845 H   0  0  0  0  0  0
  -29.2399  -23.6553   23.6292 H   0  0  0  0  0  0
  -27.9748  -22.5868   23.0634 H   0  0  0  0  0  0
  -28.2001  -20.0327   23.4815 H   0  0  0  0  0  0
  -29.5678  -19.4752   24.4143 H   0  0  0  0  0  0
  -30.2579  -20.8611   20.5152 H   0  0  0  0  0  0
  -28.6162  -20.8239   21.0917 H   0  0  0  0  0  0
  -29.4844  -17.0415   23.3600 H   0  0  0  0  0  0
  -30.9832  -17.8801   23.5850 H   0  0  0  0  0  0
  -28.8094  -18.4419   21.6225 H   0  0  0  0  0  0
  -30.4023  -18.5429   20.9497 H   0  0  0  0  0  0
  -31.8379  -15.9214   22.8204 H   0  0  0  0  0  0
  -31.7465  -16.7984   21.3204 H   0  0  0  0  0  0
  -27.6957  -24.9328   19.4256 H   0  0  0  0  0  0
  -29.3476  -25.2826   19.0380 H   0  0  0  0  0  0
  -28.3605  -24.9115   21.8965 H   0  0  0  0  0  0
  -30.0253  -25.0819   21.3753 H   0  0  0  0  0  0
  -29.4549  -15.0157   22.0472 H   0  0  0  0  0  0
  1 25  1  0  0  0
  1 30  2  0  0  0
  1 84  1  0  0  0
  2  3  1  0  0  0
  2 25  1  0  0  0
  2 86  1  0  0  0
  2 87  1  0  0  0
  3  4  1  0  0  0
  3 88  1  0  0  0
  3 89  1  0  0  0
  4  5  1  0  0  0
  4 90  1  0  0  0
  4 91  1  0  0  0
  5  6  1  0  0  0
  5 26  1  0  0  0
  5 92  1  0  0  0
  6 25  1  0  0  0
  6 93  1  0  0  0
  6 94  1  0  0  0
  7  8  2  0  0  0
  7 26  1  0  0  0
  7 29  1  0  0  0
  8  9  1  0  0  0
  8 22  1  0  0  0
  9 10  1  0  0  0
  9 27  2  0  0  0
 10 11  2  0  0  0
 10 15  1  0  0  0
 11 12  1  0  0  0
 11 95  1  0  0  0
 12 13  2  0  0  0
 12 96  1  0  0  0
 13 14  1  0  0  0
 13 31  1  0  0  0
 14 15  2  0  0  0
 14 97  1  0  0  0
 15 98  1  0  0  0
 16 17  2  0  0  0
 16 21  1  0  0  0
 16 31  1  0  0  0
 17 18  1  0  0  0
 17 99  1  0  0  0
 18 19  2  0  0  0
 18100  1  0  0  0
 19 20  1  0  0  0
 19 24  1  0  0  0
 20 21  2  0  0  0
 20101  1  0  0  0
 21 23  1  0  0  0
 22 28  1  0  0  0
 22 32  2  0  0  0
 26 27  1  0  0  0
 28102  1  0  0  0
 28103  1  0  0  0
 29104  1  0  0  0
 29105  1  0  0  0
 33 34  1  0  0  0
 33 66  1  0  0  0
 33 70  2  0  0  0
 34 36  1  0  0  0
 34 59  1  0  0  0
 34106  1  0  0  0
 35 44  2  0  0  0
 35 45  1  0  0  0
 35 68  1  0  0  0
 36 56  1  0  0  0
 36107  1  0  0  0
 37 39  1  0  0  0
 37 47  1  0  0  0
 37 66  1  0  0  0
 37108  1  0  0  0
 38 43  2  0  0  0
 38 46  1  0  0  0
 38 47  1  0  0  0
 39 64  1  0  0  0
 39 67  2  0  0  0
 40 52  1  0  0  0
 40 53  2  0  0  0
 40 58  1  0  0  0
 41109  1  0  0  0
 41110  1  0  0  0
 41111  1  0  0  0
 41 48  1  0  0  0
 42 43  1  0  0  0
 42 66  1  0  0  0
 42112  1  0  0  0
 42113  1  0  0  0
 43 44  1  0  0  0
 44114  1  0  0  0
 45 46  2  0  0  0
 45115  1  0  0  0
 46116  1  0  0  0
 47117  1  0  0  0
 47118  1  0  0  0
 48 56  1  0  0  0
 48 65  1  0  0  0
 48119  1  0  0  0
 49 50  1  0  0  0
 49 53  1  0  0  0
 49 64  1  0  0  0
 49120  1  0  0  0
 50 51  1  0  0  0
 50121  1  0  0  0
 50122  1  0  0  0
 51 52  1  0  0  0
 51123  1  0  0  0
 51124  1  0  0  0
 52125  1  0  0  0
 52126  1  0  0  0
 53 54  1  0  0  0
 54 55  2  0  0  0
 54127  1  0  0  0
 55 57  1  0  0  0
 55128  1  0  0  0
 56 69  2  0  0  0
 57 58  2  0  0  0
 57129  1  0  0  0
 58130  1  0  0  0
 59 60  1  0  0  0
 59 61  1  0  0  0
 59 62  1  0  0  0
 60131  1  0  0  0
 60132  1  0  0  0
 60133  1  0  0  0
 61134  1  0  0  0
 61135  1  0  0  0
 61136  1  0  0  0
 62137  1  0  0  0
 62138  1  0  0  0
 62139  1  0  0  0
 63 65  1  0  0  0
 63140  1  0  0  0
 63141  1  0  0  0
 63142  1  0  0  0
 64143  1  0  0  0
 65144  1  0  0  0
 68 80  1  0  0  0
 71 82  3  0  0  0
 71 76  1  0  0  0
 72 73  1  0  0  0
 72 74  1  0  0  0
 72145  1  0  0  0
 72146  1  0  0  0
 73 76  1  0  0  0
 73147  1  0  0  0
 73148  1  0  0  0
 74 83  1  0  0  0
 74149  1  0  0  0
 74150  1  0  0  0
 75 76  1  0  0  0
 75 83  1  0  0  0
 75151  1  0  0  0
 75152  1  0  0  0
 76 85  1  0  0  0
 77 78  1  0  0  0
 77 79  1  0  0  0
 77153  1  0  0  0
 77154  1  0  0  0
 78 83  1  0  0  0
 78155  1  0  0  0
 78156  1  0  0  0
 79 84  1  0  0  0
 79157  1  0  0  0
 79158  1  0  0  0
 80 81  1  0  0  0
 80159  1  0  0  0
 80160  1  0  0  0
 81 85  1  0  0  0
 81161  1  0  0  0
 81162  1  0  0  0
 84163  1  0  0  0
M  ISO  4   1 100  68 101  80 101  84 100
M  END
> <chiral flag>
0

> <version>
0

> <s_m_source_file>
/data/baiqing/PycharmProjects/Reinvent-master-3.2/result/LINK_invent/BTK/process_docking_weight1_custom_product_contain_oxygen_bond_distance_aromatic_linkinvent_7_9_3/rearranged_h_0001.sdf

> <i_m_source_file_index>
9

> <r_mmod_Potential_Energy-OPLS-2005>
129.176406860352

> <r_mmod_Stretch_Energy-OPLS-2005>
38.0999298095703

> <r_mmod_Bend_Energy-OPLS-2005>
110.590698242188

> <r_mmod_Torsional_Energy-OPLS-2005>
279.236511230469

> <r_mmod_Improper_Torsional_Energy-OPLS-2005>
1.94085419178009

> <r_mmod_Van_der_Waal_Energy-OPLS-2005>
150.379821777344

> <r_mmod_Electrostatic_Energy-OPLS-2005>
-237.513656616211

> <r_mmod_Solvation_Energy-OPLS-2005>
-222.459075927734

> <b_mmod_Minimization_Converged-OPLS-2005>
0

> <r_mmod_RMS_Derivative-OPLS-2005>
3.05289459228516

$$$$
9
                    3D
 Structure written by MMmdl.
161170  0  0  1  0            999 V2000
  -30.7324  -14.3483   20.6421 C   0  0  0  0  0  0
  -30.4188  -12.2615   19.3825 C   0  0  0  0  0  0
  -29.4851  -12.5330   18.1864 C   0  0  0  0  0  0
  -28.0047  -12.4027   18.5968 C   0  0  0  0  0  0
  -27.6709  -13.1977   19.8866 C   0  0  2  0  0  0
  -28.7077  -12.8902   20.9896 C   0  0  0  0  0  0
  -25.2625  -13.8161   20.5676 C   0  0  0  0  0  0
  -24.1854  -13.0445   20.9146 C   0  0  0  0  0  0
  -24.6387  -11.6902   20.8703 C   0  0  0  0  0  0
  -23.9046  -10.4298   21.0387 C   0  0  0  0  0  0
  -24.3609   -9.4214   21.9168 C   0  0  0  0  0  0
  -23.6285   -8.2250   22.0745 C   0  0  0  0  0  0
  -22.4266   -8.0286   21.3543 C   0  0  0  0  0  0
  -21.9896   -9.0258   20.4644 C   0  0  0  0  0  0
  -22.7216  -10.2135   20.3042 C   0  0  0  0  0  0
  -21.6853   -6.0734   22.5277 C   0  0  0  0  0  0
  -21.4013   -6.5633   23.8213 C   0  0  0  0  0  0
  -21.3657   -5.6784   24.9171 C   0  0  0  0  0  0
  -21.6045   -4.3050   24.7221 C   0  0  0  0  0  0
  -21.8821   -3.8145   23.4343 C   0  0  0  0  0  0
  -21.9193   -4.6961   22.3400 C   0  0  0  0  0  0
  -22.7875  -13.5250   21.1816 C   0  0  0  0  0  0
  -22.1661   -4.2151   21.0978 F   0  0  0  0  0  0
  -21.5627   -3.4530   25.7734 F   0  0  0  0  0  0
  -30.0535  -13.1887   20.4608 N   0  0  0  0  0  0
  -26.3066  -12.9310   20.3400 N   0  0  0  0  0  0
  -25.9312  -11.6473   20.5735 N   0  0  0  0  0  0
  -22.0510  -12.8258   22.0386 N   0  0  0  0  0  0
  -25.4370  -15.1879   20.4120 N   0  0  0  0  0  0
  -31.7986  -14.6045   20.0734 O   0  0  0  0  0  0
  -21.6631   -6.8881   21.4241 O   0  0  0  0  0  0
  -22.3562  -14.5554   20.6664 O   0  0  0  0  0  0
  -24.6084  -31.8711   23.2107 C   0  0  0  0  0  0
  -25.9004  -32.4844   23.8394 C   0  0  1  0  0  0
  -27.2454  -27.4946   20.0791 C   0  0  0  0  0  0
  -25.5870  -33.8627   24.2330 N   0  0  0  0  0  0
  -23.3928  -30.4927   21.5502 C   0  0  2  0  0  0
  -24.8396  -28.9582   20.1183 C   0  0  0  0  0  0
  -22.7359  -29.4681   22.5012 C   0  0  0  0  0  0
  -18.0267  -28.1380   22.8526 C   0  0  0  0  0  0
  -24.1472  -36.7306   23.2632 C   0  0  0  0  0  0
  -25.9147  -30.8543   21.3527 C   0  0  0  0  0  0
  -25.9951  -29.4915   20.7034 C   0  0  0  0  0  0
  -27.2003  -28.7676   20.6767 C   0  0  0  0  0  0
  -26.0727  -26.9517   19.5071 C   0  0  0  0  0  0
  -24.8700  -27.6835   19.5227 C   0  0  0  0  0  0
  -23.5979  -29.8168   20.1672 C   0  0  0  0  0  0
  -25.4087  -36.3120   24.0345 C   0  0  1  0  0  0
  -20.5853  -28.3640   23.1346 C   0  0  2  0  0  0
  -20.6741  -26.9371   22.5437 C   0  0  0  0  0  0
  -19.5719  -26.6396   21.5219 C   0  0  0  0  0  0
  -18.1900  -26.7935   22.1647 C   0  0  0  0  0  0
  -19.1515  -28.8830   23.2950 C   0  0  0  0  0  0
  -18.9453  -30.1451   23.8941 C   0  0  0  0  0  0
  -17.6458  -30.6599   24.0575 C   0  0  0  0  0  0
  -25.9026  -34.9487   23.5145 C   0  0  0  0  0  0
  -16.5349  -29.9105   23.6335 C   0  0  0  0  0  0
  -16.7257  -28.6517   23.0376 C   0  0  0  0  0  0
  -26.4450  -31.6614   25.0704 C   0  0  0  0  0  0
  -25.3744  -31.3694   26.1475 C   0  0  0  0  0  0
  -27.0273  -30.3073   24.6038 C   0  0  0  0  0  0
  -27.6028  -32.4321   25.7464 C   0  0  0  0  0  0
  -27.5582  -37.1791   24.8452 C   0  0  0  0  0  0
  -21.4098  -29.3029   22.3762 N   0  0  0  0  0  0
  -26.4270  -37.3813   23.9435 N   0  0  0  0  0  0
  -24.6565  -31.0866   22.0972 N   0  0  0  0  0  0
  -23.4147  -28.8229   23.3038 O   0  0  0  0  0  0
  -28.4516  -26.8469   20.0558 O   0  0  0  0  0  0
  -26.5589  -34.8944   22.4705 O   0  0  0  0  0  0
  -23.5305  -32.1439   23.7554 O   0  0  0  0  0  0
  -32.3081  -24.0951   21.6676 C   0  0  0  0  0  0
  -32.2083  -25.2403   20.8594 C   0  0  0  0  0  0
  -28.6541  -18.5692   21.8663 C   0  0  0  0  0  0
  -30.5325  -18.7462   20.3215 C   0  0  0  0  0  0
  -31.1492  -23.3686   21.9991 C   0  0  0  0  0  0
  -30.9479  -25.6624   20.3981 C   0  0  0  0  0  0
  -28.9170  -17.1971   22.0287 C   0  0  0  0  0  0
  -30.8038  -17.3801   20.4908 C   0  0  0  0  0  0
  -29.4590  -19.3470   21.0058 C   0  0  0  0  0  0
  -29.8789  -23.7719   21.5252 C   0  0  0  0  0  0
  -29.7771  -24.9441   20.7339 C   0  0  0  0  0  0
  -29.9841  -16.5894   21.3334 C   0  0  0  0  0  0
  -29.1605  -20.7903   20.7724 C   0  0  0  0  0  0
  -28.6436  -22.9314   21.8635 C   0  0  0  0  0  0
  -28.4325  -25.4435   20.2223 C   0  0  0  0  0  0
  -30.1439  -15.1922   21.4962 N   0  0  0  0  0  0
  -28.8987  -21.5015   21.8721 N   0  0  0  0  0  0
  -29.2148  -21.2715   19.6387 O   0  0  0  0  0  0
  -31.4620  -12.3633   19.0776 H   0  0  0  0  0  0
  -30.3122  -11.2303   19.7239 H   0  0  0  0  0  0
  -29.7088  -11.8473   17.3679 H   0  0  0  0  0  0
  -29.6693  -13.5373   17.8007 H   0  0  0  0  0  0
  -27.7885  -11.3444   18.7442 H   0  0  0  0  0  0
  -27.3606  -12.7332   17.7808 H   0  0  0  0  0  0
  -27.7420  -14.2588   19.6450 H   0  0  0  0  0  0
  -28.6617  -11.8332   21.2566 H   0  0  0  0  0  0
  -28.4627  -13.4193   21.9108 H   0  0  0  0  0  0
  -25.2762   -9.5688   22.4726 H   0  0  0  0  0  0
  -23.9994   -7.4646   22.7467 H   0  0  0  0  0  0
  -21.0820   -8.8773   19.8960 H   0  0  0  0  0  0
  -22.3676  -10.9667   19.6145 H   0  0  0  0  0  0
  -21.2005   -7.6142   23.9718 H   0  0  0  0  0  0
  -21.1472   -6.0511   25.9077 H   0  0  0  0  0  0
  -22.0604   -2.7606   23.2838 H   0  0  0  0  0  0
  -22.4106  -11.9920   22.4791 H   0  0  0  0  0  0
  -21.1138  -13.1304   22.2583 H   0  0  0  0  0  0
  -24.6760  -15.8477   20.5300 H   0  0  0  0  0  0
  -26.3021  -15.6289   20.1262 H   0  0  0  0  0  0
  -26.7060  -32.5575   23.1152 H   0  0  0  0  0  0
  -25.0017  -33.9777   25.0478 H   0  0  0  0  0  0
  -22.6815  -31.3090   21.4078 H   0  0  0  0  0  0
  -23.3749  -35.9626   23.3313 H   0  0  0  0  0  0
  -24.3567  -36.8902   22.2041 H   0  0  0  0  0  0
  -23.7211  -37.6510   23.6632 H   0  0  0  0  0  0
  -26.0199  -31.6188   20.5816 H   0  0  0  0  0  0
  -26.8058  -30.9114   21.9659 H   0  0  0  0  0  0
  -28.0985  -29.1825   21.1167 H   0  0  0  0  0  0
  -26.0865  -25.9801   19.0334 H   0  0  0  0  0  0
  -23.9798  -27.2626   19.0759 H   0  0  0  0  0  0
  -23.6922  -30.5825   19.3964 H   0  0  0  0  0  0
  -22.7279  -29.2234   19.8823 H   0  0  0  0  0  0
  -25.1268  -36.1978   25.0837 H   0  0  0  0  0  0
  -20.9979  -28.3202   24.1456 H   0  0  0  0  0  0
  -20.5610  -26.2245   23.3618 H   0  0  0  0  0  0
  -21.6616  -26.7394   22.1240 H   0  0  0  0  0  0
  -19.6841  -25.6310   21.1226 H   0  0  0  0  0  0
  -19.6664  -27.3246   20.6768 H   0  0  0  0  0  0
  -17.4168  -26.6726   21.4048 H   0  0  0  0  0  0
  -18.0282  -26.0074   22.9034 H   0  0  0  0  0  0
  -19.7931  -30.7270   24.2321 H   0  0  0  0  0  0
  -17.5012  -31.6277   24.5181 H   0  0  0  0  0  0
  -15.5350  -30.3021   23.7636 H   0  0  0  0  0  0
  -15.8659  -28.0837   22.7070 H   0  0  0  0  0  0
  -24.5899  -30.7056   25.7825 H   0  0  0  0  0  0
  -24.8950  -32.2842   26.4974 H   0  0  0  0  0  0
  -25.8129  -30.8835   27.0201 H   0  0  0  0  0  0
  -26.2793  -29.6847   24.1114 H   0  0  0  0  0  0
  -27.4095  -29.7297   25.4469 H   0  0  0  0  0  0
  -27.8610  -30.4424   23.9135 H   0  0  0  0  0  0
  -27.2637  -33.3578   26.2121 H   0  0  0  0  0  0
  -28.3796  -32.6956   25.0274 H   0  0  0  0  0  0
  -28.0747  -31.8406   26.5323 H   0  0  0  0  0  0
  -28.2579  -38.0119   24.7607 H   0  0  0  0  0  0
  -28.1119  -36.2675   24.6158 H   0  0  0  0  0  0
  -27.2329  -37.1279   25.8859 H   0  0  0  0  0  0
  -20.9230  -29.8775   21.7018 H   0  0  0  0  0  0
  -26.0172  -38.2883   24.1510 H   0  0  0  0  0  0
  -33.2747  -23.7719   22.0291 H   0  0  0  0  0  0
  -33.0964  -25.7958   20.5913 H   0  0  0  0  0  0
  -27.8143  -19.0137   22.3832 H   0  0  0  0  0  0
  -31.1536  -19.3379   19.6611 H   0  0  0  0  0  0
  -31.2450  -22.4861   22.6156 H   0  0  0  0  0  0
  -30.8882  -26.5493   19.7832 H   0  0  0  0  0  0
  -28.2748  -16.6115   22.6718 H   0  0  0  0  0  0
  -31.6378  -16.9675   19.9444 H   0  0  0  0  0  0
  -27.8365  -23.0866   21.1480 H   0  0  0  0  0  0
  -28.2617  -23.2358   22.8374 H   0  0  0  0  0  0
  -28.2019  -24.9519   19.2754 H   0  0  0  0  0  0
  -27.6494  -25.2008   20.9409 H   0  0  0  0  0  0
  -29.4215  -14.7501   22.0439 H   0  0  0  0  0  0
  -28.8959  -21.0228   22.7620 H   0  0  0  0  0  0
  1 25  1  0  0  0
  1 30  2  0  0  0
  1 86  1  0  0  0
  2  3  1  0  0  0
  2 25  1  0  0  0
  2 89  1  0  0  0
  2 90  1  0  0  0
  3  4  1  0  0  0
  3 91  1  0  0  0
  3 92  1  0  0  0
  4  5  1  0  0  0
  4 93  1  0  0  0
  4 94  1  0  0  0
  5  6  1  0  0  0
  5 26  1  0  0  0
  5 95  1  0  0  0
  6 25  1  0  0  0
  6 96  1  0  0  0
  6 97  1  0  0  0
  7  8  2  0  0  0
  7 26  1  0  0  0
  7 29  1  0  0  0
  8  9  1  0  0  0
  8 22  1  0  0  0
  9 10  1  0  0  0
  9 27  2  0  0  0
 10 11  2  0  0  0
 10 15  1  0  0  0
 11 12  1  0  0  0
 11 98  1  0  0  0
 12 13  2  0  0  0
 12 99  1  0  0  0
 13 14  1  0  0  0
 13 31  1  0  0  0
 14 15  2  0  0  0
 14100  1  0  0  0
 15101  1  0  0  0
 16 17  2  0  0  0
 16 21  1  0  0  0
 16 31  1  0  0  0
 17 18  1  0  0  0
 17102  1  0  0  0
 18 19  2  0  0  0
 18103  1  0  0  0
 19 20  1  0  0  0
 19 24  1  0  0  0
 20 21  2  0  0  0
 20104  1  0  0  0
 21 23  1  0  0  0
 22 28  1  0  0  0
 22 32  2  0  0  0
 26 27  1  0  0  0
 28105  1  0  0  0
 28106  1  0  0  0
 29107  1  0  0  0
 29108  1  0  0  0
 33 34  1  0  0  0
 33 66  1  0  0  0
 33 70  2  0  0  0
 34 36  1  0  0  0
 34 59  1  0  0  0
 34109  1  0  0  0
 35 44  2  0  0  0
 35 45  1  0  0  0
 35 68  1  0  0  0
 36 56  1  0  0  0
 36110  1  0  0  0
 37 39  1  0  0  0
 37 47  1  0  0  0
 37 66  1  0  0  0
 37111  1  0  0  0
 38 43  2  0  0  0
 38 46  1  0  0  0
 38 47  1  0  0  0
 39 64  1  0  0  0
 39 67  2  0  0  0
 40 52  1  0  0  0
 40 53  2  0  0  0
 40 58  1  0  0  0
 41112  1  0  0  0
 41113  1  0  0  0
 41114  1  0  0  0
 41 48  1  0  0  0
 42 43  1  0  0  0
 42 66  1  0  0  0
 42115  1  0  0  0
 42116  1  0  0  0
 43 44  1  0  0  0
 44117  1  0  0  0
 45 46  2  0  0  0
 45118  1  0  0  0
 46119  1  0  0  0
 47120  1  0  0  0
 47121  1  0  0  0
 48 56  1  0  0  0
 48 65  1  0  0  0
 48122  1  0  0  0
 49 50  1  0  0  0
 49 53  1  0  0  0
 49 64  1  0  0  0
 49123  1  0  0  0
 50 51  1  0  0  0
 50124  1  0  0  0
 50125  1  0  0  0
 51 52  1  0  0  0
 51126  1  0  0  0
 51127  1  0  0  0
 52128  1  0  0  0
 52129  1  0  0  0
 53 54  1  0  0  0
 54 55  2  0  0  0
 54130  1  0  0  0
 55 57  1  0  0  0
 55131  1  0  0  0
 56 69  2  0  0  0
 57 58  2  0  0  0
 57132  1  0  0  0
 58133  1  0  0  0
 59 60  1  0  0  0
 59 61  1  0  0  0
 59 62  1  0  0  0
 60134  1  0  0  0
 60135  1  0  0  0
 60136  1  0  0  0
 61137  1  0  0  0
 61138  1  0  0  0
 61139  1  0  0  0
 62140  1  0  0  0
 62141  1  0  0  0
 62142  1  0  0  0
 63 65  1  0  0  0
 63143  1  0  0  0
 63144  1  0  0  0
 63145  1  0  0  0
 64146  1  0  0  0
 65147  1  0  0  0
 68 85  1  0  0  0
 71 72  2  0  0  0
 71 75  1  0  0  0
 71148  1  0  0  0
 72 76  1  0  0  0
 72149  1  0  0  0
 73 77  2  0  0  0
 73 79  1  0  0  0
 73150  1  0  0  0
 74 78  1  0  0  0
 74 79  2  0  0  0
 74151  1  0  0  0
 75 80  2  0  0  0
 75152  1  0  0  0
 76 81  2  0  0  0
 76153  1  0  0  0
 77 82  1  0  0  0
 77154  1  0  0  0
 78 82  2  0  0  0
 78155  1  0  0  0
 79 83  1  0  0  0
 80 81  1  0  0  0
 80 84  1  0  0  0
 81 85  1  0  0  0
 82 86  1  0  0  0
 83 87  1  0  0  0
 83 88  2  0  0  0
 84 87  1  0  0  0
 84156  1  0  0  0
 84157  1  0  0  0
 85158  1  0  0  0
 85159  1  0  0  0
 86160  1  0  0  0
 87161  1  0  0  0
M  ISO  4   1 100  68 101  85 101  86 100
M  END
> <chiral flag>
0

> <version>
0

> <s_m_source_file>
/data/baiqing/PycharmProjects/Reinvent-master-3.2/result/LINK_invent/BTK/process_docking_weight1_custom_product_contain_oxygen_bond_distance_aromatic_linkinvent_7_9_3/rearranged_h_0001.sdf

> <i_m_source_file_index>
10

> <r_mmod_Potential_Energy-OPLS-2005>
-98.3882141113281

> <r_mmod_Stretch_Energy-OPLS-2005>
32.1882209777832

> <r_mmod_Bend_Energy-OPLS-2005>
90.8435516357422

> <r_mmod_Torsional_Energy-OPLS-2005>
236.699188232422

> <r_mmod_Improper_Torsional_Energy-OPLS-2005>
4.3340368270874

> <r_mmod_Van_der_Waal_Energy-OPLS-2005>
189.965789794922

> <r_mmod_Electrostatic_Energy-OPLS-2005>
-424.358459472656

> <r_mmod_Solvation_Energy-OPLS-2005>
-236.705551147461

> <b_mmod_Minimization_Converged-OPLS-2005>
0

> <r_mmod_RMS_Derivative-OPLS-2005>
2.21343541145325

$$$$
10
                    3D
 Structure written by MMmdl.
154163  0  0  1  0            999 V2000
  -30.6821  -14.5076   20.5598 C   0  0  0  0  0  0
  -30.4292  -12.3305   19.4195 C   0  0  0  0  0  0
  -29.4877  -12.4954   18.2076 C   0  0  0  0  0  0
  -28.0103  -12.3614   18.6281 C   0  0  0  0  0  0
  -27.6621  -13.2069   19.8823 C   0  0  2  0  0  0
  -28.7096  -12.9971   20.9975 C   0  0  0  0  0  0
  -25.2614  -13.8164   20.5807 C   0  0  0  0  0  0
  -24.1836  -13.0441   20.9189 C   0  0  0  0  0  0
  -24.6387  -11.6908   20.8729 C   0  0  0  0  0  0
  -23.9045  -10.4312   21.0393 C   0  0  0  0  0  0
  -24.3597   -9.4227   21.9183 C   0  0  0  0  0  0
  -23.6294   -8.2245   22.0753 C   0  0  0  0  0  0
  -22.4280   -8.0279   21.3544 C   0  0  0  0  0  0
  -21.9903   -9.0236   20.4642 C   0  0  0  0  0  0
  -22.7211  -10.2136   20.3056 C   0  0  0  0  0  0
  -21.6841   -6.0750   22.5280 C   0  0  0  0  0  0
  -21.4005   -6.5642   23.8223 C   0  0  0  0  0  0
  -21.3661   -5.6791   24.9181 C   0  0  0  0  0  0
  -21.6037   -4.3063   24.7223 C   0  0  0  0  0  0
  -21.8812   -3.8161   23.4346 C   0  0  0  0  0  0
  -21.9198   -4.6979   22.3403 C   0  0  0  0  0  0
  -22.7858  -13.5243   21.1854 C   0  0  0  0  0  0
  -22.1662   -4.2173   21.0983 F   0  0  0  0  0  0
  -21.5630   -3.4545   25.7733 F   0  0  0  0  0  0
  -30.0293  -13.3192   20.4347 N   0  0  0  0  0  0
  -26.3036  -12.9329   20.3477 N   0  0  0  0  0  0
  -25.9327  -11.6489   20.5804 N   0  0  0  0  0  0
  -22.0493  -12.8234   22.0395 N   0  0  0  0  0  0
  -25.4365  -15.1911   20.4466 N   0  0  0  0  0  0
  -31.8185  -14.6904   20.1134 O   0  0  0  0  0  0
  -21.6635   -6.8886   21.4251 O   0  0  0  0  0  0
  -22.3561  -14.5579   20.6745 O   0  0  0  0  0  0
  -24.6226  -31.8658   23.2036 C   0  0  0  0  0  0
  -25.9084  -32.4812   23.8353 C   0  0  1  0  0  0
  -27.2288  -27.3753   20.0867 C   0  0  0  0  0  0
  -25.5950  -33.8614   24.2299 N   0  0  0  0  0  0
  -23.4130  -30.4905   21.5499 C   0  0  2  0  0  0
  -24.8618  -28.9575   20.1109 C   0  0  0  0  0  0
  -22.7489  -29.4637   22.4970 C   0  0  0  0  0  0
  -18.0314  -28.1331   22.8442 C   0  0  0  0  0  0
  -24.1495  -36.7251   23.2633 C   0  0  0  0  0  0
  -25.9556  -30.8092   21.3747 C   0  0  0  0  0  0
  -26.0336  -29.4465   20.7050 C   0  0  0  0  0  0
  -27.2257  -28.6675   20.6836 C   0  0  0  0  0  0
  -26.0357  -26.9272   19.4768 C   0  0  0  0  0  0
  -24.8614  -27.6967   19.4925 C   0  0  0  0  0  0
  -23.6280  -29.8339   20.1620 C   0  0  0  0  0  0
  -25.4127  -36.3085   24.0316 C   0  0  1  0  0  0
  -20.5914  -28.3644   23.1286 C   0  0  2  0  0  0
  -20.6810  -26.9363   22.5409 C   0  0  0  0  0  0
  -19.5792  -26.6320   21.5201 C   0  0  0  0  0  0
  -18.1965  -26.7880   22.1578 C   0  0  0  0  0  0
  -19.1570  -28.8808   23.2855 C   0  0  0  0  0  0
  -18.9507  -30.1413   23.8881 C   0  0  0  0  0  0
  -17.6512  -30.6552   24.0547 C   0  0  0  0  0  0
  -25.9078  -34.9459   23.5090 C   0  0  0  0  0  0
  -16.5397  -29.9040   23.6343 C   0  0  0  0  0  0
  -16.7318  -28.6449   23.0352 C   0  0  0  0  0  0
  -26.4472  -31.6608   25.0721 C   0  0  0  0  0  0
  -25.3679  -31.3803   26.1453 C   0  0  0  0  0  0
  -27.0281  -30.3049   24.6093 C   0  0  0  0  0  0
  -27.6060  -32.4320   25.7483 C   0  0  0  0  0  0
  -27.5593  -37.1757   24.8464 C   0  0  0  0  0  0
  -21.4216  -29.3015   22.3737 N   0  0  0  0  0  0
  -26.4295  -37.3779   23.9422 N   0  0  0  0  0  0
  -24.6831  -31.0696   22.0994 N   0  0  0  0  0  0
  -23.4270  -28.8174   23.3010 O   0  0  0  0  0  0
  -28.3061  -26.4887   20.1130 O   0  0  0  0  0  0
  -26.5606  -34.8910   22.4642 O   0  0  0  0  0  0
  -23.5421  -32.1447   23.7380 O   0  0  0  0  0  0
  -30.1141  -23.8960   19.9489 C   0  0  0  0  0  0
  -30.7336  -22.6158   19.8106 C   0  0  0  0  0  0
  -28.0838  -22.8237   20.7747 C   0  0  0  0  0  0
  -28.7966  -24.0253   20.4859 C   0  0  0  0  0  0
  -30.0090  -21.4545   20.1808 C   0  0  0  0  0  0
  -28.6984  -21.5636   20.6032 C   0  0  0  0  0  0
  -28.1161  -25.3278   20.8846 C   0  0  0  0  0  0
  -29.1155  -17.9180   20.9880 C   0  0  0  0  0  0
  -30.4433  -19.9898   20.2354 C   0  0  0  0  0  0
  -28.1136  -20.1949   20.8657 C   0  0  0  0  0  0
  -30.3394  -16.9731   20.9858 C   0  0  0  0  0  0
  -29.2421  -19.2485   20.7084 N   0  0  0  0  0  0
  -29.9591  -15.5381   21.0446 N   0  0  0  0  0  0
  -27.3314  -25.3183   21.8418 O   0  0  0  0  0  0
  -28.0181  -17.4249   21.2833 O   0  0  0  0  0  0
  -31.4674  -12.4522   19.1059 H   0  0  0  0  0  0
  -30.3609  -11.3223   19.8320 H   0  0  0  0  0  0
  -29.7215  -11.7462   17.4498 H   0  0  0  0  0  0
  -29.6498  -13.4674   17.7396 H   0  0  0  0  0  0
  -27.8190  -11.3076   18.8314 H   0  0  0  0  0  0
  -27.3557  -12.6341   17.7998 H   0  0  0  0  0  0
  -27.6999  -14.2534   19.5790 H   0  0  0  0  0  0
  -28.7018  -11.9585   21.3324 H   0  0  0  0  0  0
  -28.4778  -13.5916   21.8818 H   0  0  0  0  0  0
  -25.2742   -9.5717   22.4777 H   0  0  0  0  0  0
  -24.0008   -7.4644   22.7495 H   0  0  0  0  0  0
  -21.0823   -8.8744   19.8964 H   0  0  0  0  0  0
  -22.3638  -10.9676   19.6183 H   0  0  0  0  0  0
  -21.1979   -7.6149   23.9729 H   0  0  0  0  0  0
  -21.1484   -6.0527   25.9086 H   0  0  0  0  0  0
  -22.0588   -2.7624   23.2831 H   0  0  0  0  0  0
  -22.4049  -11.9857   22.4732 H   0  0  0  0  0  0
  -21.1146  -13.1311   22.2657 H   0  0  0  0  0  0
  -24.6891  -15.8427   20.6577 H   0  0  0  0  0  0
  -26.3331  -15.6509   20.3266 H   0  0  0  0  0  0
  -26.7159  -32.5539   23.1110 H   0  0  0  0  0  0
  -25.0279  -33.9813   25.0560 H   0  0  0  0  0  0
  -22.6980  -31.3057   21.4158 H   0  0  0  0  0  0
  -23.3806  -35.9523   23.3263 H   0  0  0  0  0  0
  -24.3666  -36.8902   22.2068 H   0  0  0  0  0  0
  -23.7139  -37.6389   23.6685 H   0  0  0  0  0  0
  -26.0827  -31.5820   20.6181 H   0  0  0  0  0  0
  -26.8377  -30.8543   22.0014 H   0  0  0  0  0  0
  -28.1300  -29.0352   21.1477 H   0  0  0  0  0  0
  -25.9973  -25.9474   19.0189 H   0  0  0  0  0  0
  -23.9609  -27.3041   19.0373 H   0  0  0  0  0  0
  -23.7464  -30.6232   19.4196 H   0  0  0  0  0  0
  -22.7497  -29.2676   19.8495 H   0  0  0  0  0  0
  -25.1268  -36.1951   25.0797 H   0  0  0  0  0  0
  -20.9974  -28.3162   24.1413 H   0  0  0  0  0  0
  -20.5733  -26.2199   23.3583 H   0  0  0  0  0  0
  -21.6669  -26.7397   22.1205 H   0  0  0  0  0  0
  -19.6963  -25.6210   21.1267 H   0  0  0  0  0  0
  -19.6765  -27.3113   20.6718 H   0  0  0  0  0  0
  -17.4240  -26.6663   21.3993 H   0  0  0  0  0  0
  -18.0362  -26.0001   22.8964 H   0  0  0  0  0  0
  -19.8002  -30.7232   24.2203 H   0  0  0  0  0  0
  -17.5088  -31.6267   24.5099 H   0  0  0  0  0  0
  -15.5409  -30.2939   23.7660 H   0  0  0  0  0  0
  -15.8723  -28.0797   22.7023 H   0  0  0  0  0  0
  -24.5903  -30.7063   25.7827 H   0  0  0  0  0  0
  -24.8800  -32.3000   26.4718 H   0  0  0  0  0  0
  -25.7977  -30.9151   27.0332 H   0  0  0  0  0  0
  -26.2819  -29.6876   24.1086 H   0  0  0  0  0  0
  -27.4023  -29.7225   25.4507 H   0  0  0  0  0  0
  -27.8660  -30.4395   23.9246 H   0  0  0  0  0  0
  -27.2737  -33.3710   26.1930 H   0  0  0  0  0  0
  -28.3938  -32.6731   25.0330 H   0  0  0  0  0  0
  -28.0617  -31.8502   26.5511 H   0  0  0  0  0  0
  -28.2510  -38.0154   24.7650 H   0  0  0  0  0  0
  -28.1177  -36.2677   24.6109 H   0  0  0  0  0  0
  -27.2377  -37.1208   25.8887 H   0  0  0  0  0  0
  -20.9370  -29.8742   21.6979 H   0  0  0  0  0  0
  -26.0171  -38.2814   24.1564 H   0  0  0  0  0  0
  -30.6866  -24.7841   19.7047 H   0  0  0  0  0  0
  -31.7561  -22.5411   19.4589 H   0  0  0  0  0  0
  -27.0755  -22.8675   21.1637 H   0  0  0  0  0  0
  -31.2786  -19.8665   20.9305 H   0  0  0  0  0  0
  -30.7631  -19.6405   19.2504 H   0  0  0  0  0  0
  -27.3286  -19.9716   20.1370 H   0  0  0  0  0  0
  -27.6715  -20.1341   21.8613 H   0  0  0  0  0  0
  -30.9515  -17.2090   21.8586 H   0  0  0  0  0  0
  -30.9375  -17.1710   20.0967 H   0  0  0  0  0  0
  -29.0150  -15.3488   21.3552 H   0  0  0  0  0  0
  1 25  1  0  0  0
  1 30  2  0  0  0
  1 83  1  0  0  0
  2  3  1  0  0  0
  2 25  1  0  0  0
  2 86  1  0  0  0
  2 87  1  0  0  0
  3  4  1  0  0  0
  3 88  1  0  0  0
  3 89  1  0  0  0
  4  5  1  0  0  0
  4 90  1  0  0  0
  4 91  1  0  0  0
  5  6  1  0  0  0
  5 26  1  0  0  0
  5 92  1  0  0  0
  6 25  1  0  0  0
  6 93  1  0  0  0
  6 94  1  0  0  0
  7  8  2  0  0  0
  7 26  1  0  0  0
  7 29  1  0  0  0
  8  9  1  0  0  0
  8 22  1  0  0  0
  9 10  1  0  0  0
  9 27  2  0  0  0
 10 11  2  0  0  0
 10 15  1  0  0  0
 11 12  1  0  0  0
 11 95  1  0  0  0
 12 13  2  0  0  0
 12 96  1  0  0  0
 13 14  1  0  0  0
 13 31  1  0  0  0
 14 15  2  0  0  0
 14 97  1  0  0  0
 15 98  1  0  0  0
 16 17  2  0  0  0
 16 21  1  0  0  0
 16 31  1  0  0  0
 17 18  1  0  0  0
 17 99  1  0  0  0
 18 19  2  0  0  0
 18100  1  0  0  0
 19 20  1  0  0  0
 19 24  1  0  0  0
 20 21  2  0  0  0
 20101  1  0  0  0
 21 23  1  0  0  0
 22 28  1  0  0  0
 22 32  2  0  0  0
 26 27  1  0  0  0
 28102  1  0  0  0
 28103  1  0  0  0
 29104  1  0  0  0
 29105  1  0  0  0
 33 34  1  0  0  0
 33 66  1  0  0  0
 33 70  2  0  0  0
 34 36  1  0  0  0
 34 59  1  0  0  0
 34106  1  0  0  0
 35 44  2  0  0  0
 35 45  1  0  0  0
 35 68  1  0  0  0
 36 56  1  0  0  0
 36107  1  0  0  0
 37 39  1  0  0  0
 37 47  1  0  0  0
 37 66  1  0  0  0
 37108  1  0  0  0
 38 43  2  0  0  0
 38 46  1  0  0  0
 38 47  1  0  0  0
 39 64  1  0  0  0
 39 67  2  0  0  0
 40 52  1  0  0  0
 40 53  2  0  0  0
 40 58  1  0  0  0
 41109  1  0  0  0
 41110  1  0  0  0
 41111  1  0  0  0
 41 48  1  0  0  0
 42 43  1  0  0  0
 42 66  1  0  0  0
 42112  1  0  0  0
 42113  1  0  0  0
 43 44  1  0  0  0
 44114  1  0  0  0
 45 46  2  0  0  0
 45115  1  0  0  0
 46116  1  0  0  0
 47117  1  0  0  0
 47118  1  0  0  0
 48 56  1  0  0  0
 48 65  1  0  0  0
 48119  1  0  0  0
 49 50  1  0  0  0
 49 53  1  0  0  0
 49 64  1  0  0  0
 49120  1  0  0  0
 50 51  1  0  0  0
 50121  1  0  0  0
 50122  1  0  0  0
 51 52  1  0  0  0
 51123  1  0  0  0
 51124  1  0  0  0
 52125  1  0  0  0
 52126  1  0  0  0
 53 54  1  0  0  0
 54 55  2  0  0  0
 54127  1  0  0  0
 55 57  1  0  0  0
 55128  1  0  0  0
 56 69  2  0  0  0
 57 58  2  0  0  0
 57129  1  0  0  0
 58130  1  0  0  0
 59 60  1  0  0  0
 59 61  1  0  0  0
 59 62  1  0  0  0
 60131  1  0  0  0
 60132  1  0  0  0
 60133  1  0  0  0
 61134  1  0  0  0
 61135  1  0  0  0
 61136  1  0  0  0
 62137  1  0  0  0
 62138  1  0  0  0
 62139  1  0  0  0
 63 65  1  0  0  0
 63140  1  0  0  0
 63141  1  0  0  0
 63142  1  0  0  0
 64143  1  0  0  0
 65144  1  0  0  0
 68 77  1  0  0  0
 71 72  2  0  0  0
 71 74  1  0  0  0
 71145  1  0  0  0
 72 75  1  0  0  0
 72146  1  0  0  0
 73 74  2  0  0  0
 73 76  1  0  0  0
 73147  1  0  0  0
 74 77  1  0  0  0
 75 76  2  0  0  0
 75 79  1  0  0  0
 76 80  1  0  0  0
 77 84  2  0  0  0
 78 81  1  0  0  0
 78 82  1  0  0  0
 78 85  2  0  0  0
 79 82  1  0  0  0
 79148  1  0  0  0
 79149  1  0  0  0
 80 82  1  0  0  0
 80150  1  0  0  0
 80151  1  0  0  0
 81 83  1  0  0  0
 81152  1  0  0  0
 81153  1  0  0  0
 83154  1  0  0  0
M  ISO  4   1 100  68 101  77 101  83 100
M  END
> <chiral flag>
0

> <version>
0

> <s_m_source_file>
/data/baiqing/PycharmProjects/Reinvent-master-3.2/result/LINK_invent/BTK/process_docking_weight1_custom_product_contain_oxygen_bond_distance_aromatic_linkinvent_7_9_3/rearranged_h_0001.sdf

> <i_m_source_file_index>
11

> <r_mmod_Potential_Energy-OPLS-2005>
-59.6517105102539

> <r_mmod_Stretch_Energy-OPLS-2005>
58.3334121704102

> <r_mmod_Bend_Energy-OPLS-2005>
152.714569091797

> <r_mmod_Torsional_Energy-OPLS-2005>
228.503860473633

> <r_mmod_Improper_Torsional_Energy-OPLS-2005>
5.26644992828369

> <r_mmod_Van_der_Waal_Energy-OPLS-2005>
148.786605834961

> <r_mmod_Electrostatic_Energy-OPLS-2005>
-445.411743164062

> <r_mmod_Solvation_Energy-OPLS-2005>
-234.366241455078

> <b_mmod_Minimization_Converged-OPLS-2005>
0

> <r_mmod_RMS_Derivative-OPLS-2005>
5.73978233337402

$$$$
11
                    3D
 Structure written by MMmdl.
166174  0  0  1  0            999 V2000
  -30.5916  -14.7719   20.4186 C   0  0  0  0  0  0
  -30.4443  -12.4761   19.4404 C   0  0  0  0  0  0
  -29.5113  -12.5229   18.2113 C   0  0  0  0  0  0
  -28.0384  -12.3407   18.6302 C   0  0  0  0  0  0
  -27.6409  -13.2293   19.8398 C   0  0  2  0  0  0
  -28.6962  -13.1649   20.9633 C   0  0  0  0  0  0
  -25.2549  -13.8177   20.5702 C   0  0  0  0  0  0
  -24.1839  -13.0442   20.9235 C   0  0  0  0  0  0
  -24.6418  -11.6908   20.8725 C   0  0  0  0  0  0
  -23.9083  -10.4294   21.0404 C   0  0  0  0  0  0
  -24.3628   -9.4206   21.9193 C   0  0  0  0  0  0
  -23.6296   -8.2258   22.0782 C   0  0  0  0  0  0
  -22.4284   -8.0293   21.3577 C   0  0  0  0  0  0
  -21.9921   -9.0259   20.4668 C   0  0  0  0  0  0
  -22.7249  -10.2137   20.3062 C   0  0  0  0  0  0
  -21.6864   -6.0737   22.5285 C   0  0  0  0  0  0
  -21.4010   -6.5638   23.8205 C   0  0  0  0  0  0
  -21.3661   -5.6794   24.9179 C   0  0  0  0  0  0
  -21.6040   -4.3060   24.7223 C   0  0  0  0  0  0
  -21.8822   -3.8152   23.4348 C   0  0  0  0  0  0
  -21.9219   -4.6973   22.3410 C   0  0  0  0  0  0
  -22.7862  -13.5230   21.1879 C   0  0  0  0  0  0
  -22.1689   -4.2169   21.0977 F   0  0  0  0  0  0
  -21.5632   -3.4542   25.7729 F   0  0  0  0  0  0
  -29.9891  -13.5332   20.3662 N   0  0  0  0  0  0
  -26.2965  -12.9371   20.3247 N   0  0  0  0  0  0
  -25.9323  -11.6500   20.5641 N   0  0  0  0  0  0
  -22.0505  -12.8230   22.0409 N   0  0  0  0  0  0
  -25.4216  -15.1914   20.4115 N   0  0  0  0  0  0
  -31.8007  -14.8859   20.2093 O   0  0  0  0  0  0
  -21.6674   -6.8884   21.4255 O   0  0  0  0  0  0
  -22.3532  -14.5506   20.6683 O   0  0  0  0  0  0
  -24.6313  -31.8568   23.1975 C   0  0  0  0  0  0
  -25.9153  -32.4761   23.8319 C   0  0  1  0  0  0
  -27.2232  -27.2683   20.1299 C   0  0  0  0  0  0
  -25.5942  -33.8555   24.2264 N   0  0  0  0  0  0
  -23.4280  -30.4829   21.5405 C   0  0  2  0  0  0
  -24.8754  -28.9292   20.1133 C   0  0  0  0  0  0
  -22.7482  -29.4635   22.4880 C   0  0  0  0  0  0
  -18.0294  -28.1365   22.8489 C   0  0  0  0  0  0
  -24.1494  -36.7307   23.2650 C   0  0  0  0  0  0
  -25.9734  -30.7731   21.3755 C   0  0  0  0  0  0
  -26.0481  -29.3938   20.7229 C   0  0  0  0  0  0
  -27.2237  -28.5763   20.7247 C   0  0  0  0  0  0
  -26.0269  -26.8791   19.4806 C   0  0  0  0  0  0
  -24.8708  -27.6770   19.4855 C   0  0  0  0  0  0
  -23.6472  -29.8170   20.1565 C   0  0  0  0  0  0
  -25.4115  -36.3079   24.0338 C   0  0  1  0  0  0
  -20.5903  -28.3716   23.1244 C   0  0  2  0  0  0
  -20.6788  -26.9421   22.5392 C   0  0  0  0  0  0
  -19.5759  -26.6366   21.5217 C   0  0  0  0  0  0
  -18.1936  -26.7916   22.1615 C   0  0  0  0  0  0
  -19.1539  -28.8845   23.2878 C   0  0  0  0  0  0
  -18.9483  -30.1438   23.8912 C   0  0  0  0  0  0
  -17.6479  -30.6588   24.0544 C   0  0  0  0  0  0
  -25.9044  -34.9440   23.5107 C   0  0  0  0  0  0
  -16.5371  -29.9083   23.6307 C   0  0  0  0  0  0
  -16.7284  -28.6477   23.0375 C   0  0  0  0  0  0
  -26.4506  -31.6589   25.0709 C   0  0  0  0  0  0
  -25.3716  -31.3748   26.1426 C   0  0  0  0  0  0
  -27.0393  -30.3020   24.6203 C   0  0  0  0  0  0
  -27.6037  -32.4348   25.7492 C   0  0  0  0  0  0
  -27.5577  -37.1809   24.8452 C   0  0  0  0  0  0
  -21.4179  -29.3091   22.3626 N   0  0  0  0  0  0
  -26.4285  -37.3770   23.9395 N   0  0  0  0  0  0
  -24.6967  -31.0551   22.0943 N   0  0  0  0  0  0
  -23.4178  -28.8165   23.2968 O   0  0  0  0  0  0
  -28.3124  -26.3634   20.1967 O   0  0  0  0  0  0
  -26.5595  -34.8914   22.4663 O   0  0  0  0  0  0
  -23.5475  -32.1360   23.7286 O   0  0  0  0  0  0
  -31.0428  -17.9485   18.5457 C   0  0  0  0  0  0
  -31.7510  -18.7791   17.6489 C   0  0  0  0  0  0
  -30.9740  -20.7104   18.8569 C   0  0  0  0  0  0
  -30.3190  -18.4619   19.6549 C   0  0  0  0  0  0
  -30.1802  -19.9308   19.7247 C   0  0  0  0  0  0
  -31.7777  -20.1756   17.8412 C   0  0  0  0  0  0
  -29.2947  -20.8362   20.6633 C   0  0  0  0  0  0
  -29.8946  -17.3851   20.7410 C   0  0  0  0  0  0
  -28.6080  -22.1792   20.0482 C   0  0  0  0  0  0
  -29.0538  -23.7019   20.3916 C   0  0  0  0  0  0
  -34.4945  -21.0524   15.6864 C   0  0  0  0  0  0
  -28.0345  -24.8974   20.0013 C   0  0  0  0  0  0
  -32.9766  -20.8188   15.8083 C   0  0  0  0  0  0
  -29.7502  -15.8734   20.4777 N   0  0  0  0  0  0
  -35.2770  -20.0106   16.3844 N   0  3  0  0  0  0
  -32.5627  -21.0795   17.1497 O   0  0  0  0  0  0
  -31.4782  -12.6320   19.1301 H   0  0  0  0  0  0
  -30.4122  -11.4955   19.9181 H   0  0  0  0  0  0
  -29.7879  -11.7549   17.4901 H   0  0  0  0  0  0
  -29.6266  -13.4811   17.7023 H   0  0  0  0  0  0
  -27.9061  -11.2870   18.8752 H   0  0  0  0  0  0
  -27.3802  -12.5500   17.7881 H   0  0  0  0  0  0
  -27.6249  -14.2502   19.4587 H   0  0  0  0  0  0
  -28.7477  -12.1644   21.3921 H   0  0  0  0  0  0
  -28.4230  -13.8355   21.7803 H   0  0  0  0  0  0
  -25.2779   -9.5691   22.4756 H   0  0  0  0  0  0
  -24.0040   -7.4639   22.7471 H   0  0  0  0  0  0
  -21.0892   -8.8738   19.8926 H   0  0  0  0  0  0
  -22.3719  -10.9670   19.6154 H   0  0  0  0  0  0
  -21.1983   -7.6148   23.9700 H   0  0  0  0  0  0
  -21.1471   -6.0542   25.9077 H   0  0  0  0  0  0
  -22.0603   -2.7625   23.2837 H   0  0  0  0  0  0
  -22.4145  -11.9917   22.4813 H   0  0  0  0  0  0
  -21.1094  -13.1213   22.2542 H   0  0  0  0  0  0
  -24.6403  -15.8318   20.5064 H   0  0  0  0  0  0
  -26.2522  -15.6424   20.0488 H   0  0  0  0  0  0
  -26.7225  -32.5412   23.1059 H   0  0  0  0  0  0
  -25.0127  -33.9714   25.0437 H   0  0  0  0  0  0
  -22.7269  -31.3061   21.3929 H   0  0  0  0  0  0
  -23.3749  -35.9647   23.3286 H   0  0  0  0  0  0
  -24.3584  -36.8932   22.2069 H   0  0  0  0  0  0
  -23.7247  -37.6505   23.6682 H   0  0  0  0  0  0
  -26.1120  -31.5280   20.6020 H   0  0  0  0  0  0
  -26.8529  -30.8283   22.0029 H   0  0  0  0  0  0
  -28.1162  -28.9257   21.2282 H   0  0  0  0  0  0
  -25.9440  -25.9316   18.9695 H   0  0  0  0  0  0
  -23.9771  -27.3057   19.0016 H   0  0  0  0  0  0
  -23.7737  -30.5915   19.3996 H   0  0  0  0  0  0
  -22.7619  -29.2553   19.8522 H   0  0  0  0  0  0
  -25.1296  -36.1937   25.0830 H   0  0  0  0  0  0
  -21.0051  -28.3329   24.1339 H   0  0  0  0  0  0
  -20.5685  -26.2350   23.3633 H   0  0  0  0  0  0
  -21.6664  -26.7412   22.1206 H   0  0  0  0  0  0
  -19.6921  -25.6265   21.1277 H   0  0  0  0  0  0
  -19.6701  -27.3145   20.6730 H   0  0  0  0  0  0
  -17.4218  -26.6676   21.4005 H   0  0  0  0  0  0
  -18.0303  -26.0032   22.8993 H   0  0  0  0  0  0
  -19.7962  -30.7227   24.2311 H   0  0  0  0  0  0
  -17.5051  -31.6282   24.5138 H   0  0  0  0  0  0
  -15.5381  -30.3017   23.7614 H   0  0  0  0  0  0
  -15.8669  -28.0797   22.7128 H   0  0  0  0  0  0
  -24.5867  -30.7129   25.7733 H   0  0  0  0  0  0
  -24.8971  -32.2954   26.4850 H   0  0  0  0  0  0
  -25.8032  -30.8894   27.0192 H   0  0  0  0  0  0
  -26.3019  -29.6726   24.1225 H   0  0  0  0  0  0
  -27.4088  -29.7302   25.4720 H   0  0  0  0  0  0
  -27.8852  -30.4299   23.9440 H   0  0  0  0  0  0
  -27.2618  -33.3642   26.2050 H   0  0  0  0  0  0
  -28.3872  -32.6924   25.0351 H   0  0  0  0  0  0
  -28.0688  -31.8495   26.5433 H   0  0  0  0  0  0
  -28.2580  -38.0115   24.7511 H   0  0  0  0  0  0
  -28.1085  -36.2656   24.6271 H   0  0  0  0  0  0
  -27.2293  -37.1439   25.8846 H   0  0  0  0  0  0
  -20.9333  -29.8877   21.6898 H   0  0  0  0  0  0
  -26.0168  -38.2838   24.1393 H   0  0  0  0  0  0
  -31.1238  -16.8818   18.4066 H   0  0  0  0  0  0
  -32.3279  -18.3085   16.8677 H   0  0  0  0  0  0
  -30.9774  -21.7845   18.9746 H   0  0  0  0  0  0
  -29.8768  -21.1075   21.5452 H   0  0  0  0  0  0
  -28.4886  -20.1956   21.0303 H   0  0  0  0  0  0
  -28.9350  -17.7218   21.1390 H   0  0  0  0  0  0
  -30.5942  -17.5021   21.5724 H   0  0  0  0  0  0
  -27.5701  -22.1257   20.3845 H   0  0  0  0  0  0
  -28.5245  -22.0696   18.9648 H   0  0  0  0  0  0
  -30.0062  -23.8975   19.9013 H   0  0  0  0  0  0
  -29.2528  -23.7620   21.4621 H   0  0  0  0  0  0
  -34.7613  -22.0339   16.0804 H   0  0  0  0  0  0
  -34.7797  -21.0574   14.6351 H   0  0  0  0  0  0
  -27.1137  -24.6771   20.5458 H   0  0  0  0  0  0
  -27.7985  -24.7568   18.9472 H   0  0  0  0  0  0
  -32.6980  -19.8413   15.4227 H   0  0  0  0  0  0
  -32.4549  -21.5415   15.1781 H   0  0  0  0  0  0
  -28.7852  -15.5817   20.4901 H   0  0  0  0  0  0
  -34.9569  -19.9258   17.3339 H   0  0  0  0  0  0
  -36.2549  -20.2493   16.4080 H   0  0  0  0  0  0
  -35.1836  -19.1190   15.9266 H   0  0  0  0  0  0
  1 25  1  0  0  0
  1 30  2  0  0  0
  1 84  1  0  0  0
  2  3  1  0  0  0
  2 25  1  0  0  0
  2 87  1  0  0  0
  2 88  1  0  0  0
  3  4  1  0  0  0
  3 89  1  0  0  0
  3 90  1  0  0  0
  4  5  1  0  0  0
  4 91  1  0  0  0
  4 92  1  0  0  0
  5  6  1  0  0  0
  5 26  1  0  0  0
  5 93  1  0  0  0
  6 25  1  0  0  0
  6 94  1  0  0  0
  6 95  1  0  0  0
  7  8  2  0  0  0
  7 26  1  0  0  0
  7 29  1  0  0  0
  8  9  1  0  0  0
  8 22  1  0  0  0
  9 10  1  0  0  0
  9 27  2  0  0  0
 10 11  2  0  0  0
 10 15  1  0  0  0
 11 12  1  0  0  0
 11 96  1  0  0  0
 12 13  2  0  0  0
 12 97  1  0  0  0
 13 14  1  0  0  0
 13 31  1  0  0  0
 14 15  2  0  0  0
 14 98  1  0  0  0
 15 99  1  0  0  0
 16 17  2  0  0  0
 16 21  1  0  0  0
 16 31  1  0  0  0
 17 18  1  0  0  0
 17100  1  0  0  0
 18 19  2  0  0  0
 18101  1  0  0  0
 19 20  1  0  0  0
 19 24  1  0  0  0
 20 21  2  0  0  0
 20102  1  0  0  0
 21 23  1  0  0  0
 22 28  1  0  0  0
 22 32  2  0  0  0
 26 27  1  0  0  0
 28103  1  0  0  0
 28104  1  0  0  0
 29105  1  0  0  0
 29106  1  0  0  0
 33 34  1  0  0  0
 33 66  1  0  0  0
 33 70  2  0  0  0
 34 36  1  0  0  0
 34 59  1  0  0  0
 34107  1  0  0  0
 35 44  2  0  0  0
 35 45  1  0  0  0
 35 68  1  0  0  0
 36 56  1  0  0  0
 36108  1  0  0  0
 37 39  1  0  0  0
 37 47  1  0  0  0
 37 66  1  0  0  0
 37109  1  0  0  0
 38 43  2  0  0  0
 38 46  1  0  0  0
 38 47  1  0  0  0
 39 64  1  0  0  0
 39 67  2  0  0  0
 40 52  1  0  0  0
 40 53  2  0  0  0
 40 58  1  0  0  0
 41110  1  0  0  0
 41111  1  0  0  0
 41112  1  0  0  0
 41 48  1  0  0  0
 42 43  1  0  0  0
 42 66  1  0  0  0
 42113  1  0  0  0
 42114  1  0  0  0
 43 44  1  0  0  0
 44115  1  0  0  0
 45 46  2  0  0  0
 45116  1  0  0  0
 46117  1  0  0  0
 47118  1  0  0  0
 47119  1  0  0  0
 48 56  1  0  0  0
 48 65  1  0  0  0
 48120  1  0  0  0
 49 50  1  0  0  0
 49 53  1  0  0  0
 49 64  1  0  0  0
 49121  1  0  0  0
 50 51  1  0  0  0
 50122  1  0  0  0
 50123  1  0  0  0
 51 52  1  0  0  0
 51124  1  0  0  0
 51125  1  0  0  0
 52126  1  0  0  0
 52127  1  0  0  0
 53 54  1  0  0  0
 54 55  2  0  0  0
 54128  1  0  0  0
 55 57  1  0  0  0
 55129  1  0  0  0
 56 69  2  0  0  0
 57 58  2  0  0  0
 57130  1  0  0  0
 58131  1  0  0  0
 59 60  1  0  0  0
 59 61  1  0  0  0
 59 62  1  0  0  0
 60132  1  0  0  0
 60133  1  0  0  0
 60134  1  0  0  0
 61135  1  0  0  0
 61136  1  0  0  0
 61137  1  0  0  0
 62138  1  0  0  0
 62139  1  0  0  0
 62140  1  0  0  0
 63 65  1  0  0  0
 63141  1  0  0  0
 63142  1  0  0  0
 63143  1  0  0  0
 64144  1  0  0  0
 65145  1  0  0  0
 68 82  1  0  0  0
 71 72  2  0  0  0
 71 74  1  0  0  0
 71146  1  0  0  0
 72 76  1  0  0  0
 72147  1  0  0  0
 73 75  1  0  0  0
 73 76  2  0  0  0
 73148  1  0  0  0
 74 75  2  0  0  0
 74 78  1  0  0  0
 75 77  1  0  0  0
 76 86  1  0  0  0
 77 79  1  0  0  0
 77149  1  0  0  0
 77150  1  0  0  0
 78 84  1  0  0  0
 78151  1  0  0  0
 78152  1  0  0  0
 79 80  1  0  0  0
 79153  1  0  0  0
 79154  1  0  0  0
 80 82  1  0  0  0
 80155  1  0  0  0
 80156  1  0  0  0
 81 83  1  0  0  0
 81 85  1  0  0  0
 81157  1  0  0  0
 81158  1  0  0  0
 82159  1  0  0  0
 82160  1  0  0  0
 83 86  1  0  0  0
 83161  1  0  0  0
 83162  1  0  0  0
 84163  1  0  0  0
 85164  1  0  0  0
 85165  1  0  0  0
 85166  1  0  0  0
M  CHG  1  85   1
M  ISO  4   1 100  68 101  82 101  84 100
M  END
> <chiral flag>
0

> <version>
0

> <s_m_source_file>
/data/baiqing/PycharmProjects/Reinvent-master-3.2/result/LINK_invent/BTK/process_docking_weight1_custom_product_contain_oxygen_bond_distance_aromatic_linkinvent_7_9_3/rearranged_h_0001.sdf

> <i_m_source_file_index>
12

> <r_mmod_Potential_Energy-OPLS-2005>
-4.56105041503906

> <r_mmod_Stretch_Energy-OPLS-2005>
131.378814697266

> <r_mmod_Bend_Energy-OPLS-2005>
219.556564331055

> <r_mmod_Torsional_Energy-OPLS-2005>
243.136291503906

> <r_mmod_Improper_Torsional_Energy-OPLS-2005>
6.30239582061768

> <r_mmod_Van_der_Waal_Energy-OPLS-2005>
140.18342590332

> <r_mmod_Electrostatic_Energy-OPLS-2005>
-361.668975830078

> <r_mmod_Solvation_Energy-OPLS-2005>
-478.231384277344

> <b_mmod_Minimization_Converged-OPLS-2005>
0

> <r_mmod_RMS_Derivative-OPLS-2005>
5.0927562713623

$$$$
12
                    3D
 Structure written by MMmdl.
151159  0  0  1  0            999 V2000
  -30.6744  -14.6399   20.4690 C   0  0  0  0  0  0
  -30.4163  -12.3859   19.4690 C   0  0  0  0  0  0
  -29.5021  -12.4816   18.2300 C   0  0  0  0  0  0
  -28.0250  -12.3324   18.6410 C   0  0  0  0  0  0
  -27.6430  -13.2284   19.8511 C   0  0  2  0  0  0
  -28.6870  -13.1434   20.9864 C   0  0  0  0  0  0
  -25.2510  -13.8209   20.5702 C   0  0  0  0  0  0
  -24.1793  -13.0455   20.9221 C   0  0  0  0  0  0
  -24.6377  -11.6933   20.8753 C   0  0  0  0  0  0
  -23.9058  -10.4305   21.0409 C   0  0  0  0  0  0
  -24.3614   -9.4222   21.9186 C   0  0  0  0  0  0
  -23.6294   -8.2250   22.0747 C   0  0  0  0  0  0
  -22.4274   -8.0288   21.3540 C   0  0  0  0  0  0
  -21.9909   -9.0264   20.4645 C   0  0  0  0  0  0
  -22.7232  -10.2146   20.3058 C   0  0  0  0  0  0
  -21.6851   -6.0743   22.5280 C   0  0  0  0  0  0
  -21.4018   -6.5645   23.8218 C   0  0  0  0  0  0
  -21.3658   -5.6793   24.9178 C   0  0  0  0  0  0
  -21.6039   -4.3056   24.7225 C   0  0  0  0  0  0
  -21.8818   -3.8152   23.4346 C   0  0  0  0  0  0
  -21.9193   -4.6970   22.3404 C   0  0  0  0  0  0
  -22.7812  -13.5237   21.1884 C   0  0  0  0  0  0
  -22.1659   -4.2160   21.0980 F   0  0  0  0  0  0
  -21.5626   -3.4537   25.7736 F   0  0  0  0  0  0
  -29.9978  -13.4506   20.4051 N   0  0  0  0  0  0
  -26.2935  -12.9411   20.3286 N   0  0  0  0  0  0
  -25.9305  -11.6556   20.5757 N   0  0  0  0  0  0
  -22.0453  -12.8226   22.0441 N   0  0  0  0  0  0
  -25.4195  -15.1933   20.4116 N   0  0  0  0  0  0
  -31.8630  -14.6982   20.1460 O   0  0  0  0  0  0
  -21.6637   -6.8886   21.4240 O   0  0  0  0  0  0
  -22.3495  -14.5541   20.6732 O   0  0  0  0  0  0
  -24.6250  -31.8605   23.2020 C   0  0  0  0  0  0
  -25.9102  -32.4787   23.8348 C   0  0  1  0  0  0
  -27.2236  -27.3269   20.1256 C   0  0  0  0  0  0
  -25.5919  -33.8582   24.2287 N   0  0  0  0  0  0
  -23.4193  -30.4825   21.5441 C   0  0  2  0  0  0
  -24.8671  -28.9358   20.1125 C   0  0  0  0  0  0
  -22.7472  -29.4622   22.4936 C   0  0  0  0  0  0
  -18.0286  -28.1394   22.8491 C   0  0  0  0  0  0
  -24.1481  -36.7293   23.2640 C   0  0  0  0  0  0
  -25.9581  -30.7954   21.3689 C   0  0  0  0  0  0
  -26.0349  -29.4210   20.7161 C   0  0  0  0  0  0
  -27.2205  -28.6286   20.7106 C   0  0  0  0  0  0
  -26.0395  -26.8925   19.4940 C   0  0  0  0  0  0
  -24.8701  -27.6762   19.4918 C   0  0  0  0  0  0
  -23.6343  -29.8149   20.1600 C   0  0  0  0  0  0
  -25.4107  -36.3092   24.0337 C   0  0  1  0  0  0
  -20.5886  -28.3695   23.1287 C   0  0  2  0  0  0
  -20.6776  -26.9419   22.5415 C   0  0  0  0  0  0
  -19.5752  -26.6393   21.5217 C   0  0  0  0  0  0
  -18.1932  -26.7938   22.1628 C   0  0  0  0  0  0
  -19.1539  -28.8861   23.2886 C   0  0  0  0  0  0
  -18.9461  -30.1464   23.8903 C   0  0  0  0  0  0
  -17.6463  -30.6597   24.0568 C   0  0  0  0  0  0
  -25.9043  -34.9458   23.5115 C   0  0  0  0  0  0
  -16.5353  -29.9099   23.6329 C   0  0  0  0  0  0
  -16.7274  -28.6515   23.0351 C   0  0  0  0  0  0
  -26.4494  -31.6589   25.0707 C   0  0  0  0  0  0
  -25.3737  -31.3724   26.1442 C   0  0  0  0  0  0
  -27.0333  -30.3019   24.6139 C   0  0  0  0  0  0
  -27.6058  -32.4312   25.7483 C   0  0  0  0  0  0
  -27.5576  -37.1806   24.8474 C   0  0  0  0  0  0
  -21.4185  -29.3047   22.3681 N   0  0  0  0  0  0
  -26.4288  -37.3783   23.9413 N   0  0  0  0  0  0
  -24.6865  -31.0622   22.0963 N   0  0  0  0  0  0
  -23.4192  -28.8160   23.3018 O   0  0  0  0  0  0
  -28.3273  -26.4669   20.1494 O   0  0  0  0  0  0
  -26.5613  -34.8926   22.4680 O   0  0  0  0  0  0
  -23.5412  -32.1393   23.7355 O   0  0  0  0  0  0
  -30.2531  -19.5837   19.5517 C   0  0  0  0  0  0
  -28.9576  -18.9195   21.4634 C   0  0  0  0  0  0
  -29.7890  -20.9289   19.6702 C   0  0  0  0  0  0
  -28.4924  -20.2662   21.5799 C   0  0  0  0  0  0
  -29.8692  -18.5439   20.4472 C   0  0  0  0  0  0
  -28.9031  -21.3133   20.7071 C   0  0  0  0  0  0
  -30.5970  -17.1497   20.3608 C   0  0  0  0  0  0
  -28.7904  -23.8070   20.1704 C   0  0  0  0  0  0
  -28.1065  -25.1286   20.7483 C   0  0  0  0  0  0
  -29.9752  -15.8087   20.6519 N   0  0  0  0  0  0
  -28.4178  -22.6165   20.9435 O   0  0  0  0  0  0
  -31.4631  -12.4723   19.1729 H   0  0  0  0  0  0
  -30.3237  -11.4080   19.9445 H   0  0  0  0  0  0
  -29.7676  -11.7109   17.5050 H   0  0  0  0  0  0
  -29.6533  -13.4389   17.7294 H   0  0  0  0  0  0
  -27.8592  -11.2836   18.8911 H   0  0  0  0  0  0
  -27.3741  -12.5462   17.7929 H   0  0  0  0  0  0
  -27.6469  -14.2531   19.4790 H   0  0  0  0  0  0
  -28.6952  -12.1478   21.4330 H   0  0  0  0  0  0
  -28.4413  -13.8387   21.7905 H   0  0  0  0  0  0
  -25.2758   -9.5702   22.4762 H   0  0  0  0  0  0
  -24.0013   -7.4634   22.7451 H   0  0  0  0  0  0
  -21.0847   -8.8781   19.8940 H   0  0  0  0  0  0
  -22.3691  -10.9688   19.6168 H   0  0  0  0  0  0
  -21.2012   -7.6153   23.9732 H   0  0  0  0  0  0
  -21.1475   -6.0517   25.9083 H   0  0  0  0  0  0
  -22.0595   -2.7616   23.2841 H   0  0  0  0  0  0
  -22.4067  -11.9903   22.4859 H   0  0  0  0  0  0
  -21.1059  -13.1239   22.2617 H   0  0  0  0  0  0
  -24.6509  -15.8457   20.5245 H   0  0  0  0  0  0
  -26.2650  -15.6354   20.0742 H   0  0  0  0  0  0
  -26.7167  -32.5474   23.1095 H   0  0  0  0  0  0
  -25.0082  -33.9724   25.0444 H   0  0  0  0  0  0
  -22.7126  -31.3024   21.3998 H   0  0  0  0  0  0
  -23.3742  -35.9627   23.3315 H   0  0  0  0  0  0
  -24.3570  -36.8893   22.2050 H   0  0  0  0  0  0
  -23.7229  -37.6501   23.6641 H   0  0  0  0  0  0
  -26.0798  -31.5546   20.5949 H   0  0  0  0  0  0
  -26.8420  -30.8530   21.9920 H   0  0  0  0  0  0
  -28.1184  -28.9947   21.1880 H   0  0  0  0  0  0
  -26.0123  -25.9257   19.0111 H   0  0  0  0  0  0
  -23.9758  -27.2988   19.0146 H   0  0  0  0  0  0
  -23.7544  -30.5901   19.4023 H   0  0  0  0  0  0
  -22.7551  -29.2436   19.8579 H   0  0  0  0  0  0
  -25.1280  -36.1954   25.0829 H   0  0  0  0  0  0
  -20.9980  -28.3277   24.1407 H   0  0  0  0  0  0
  -20.5682  -26.2309   23.3616 H   0  0  0  0  0  0
  -21.6645  -26.7460   22.1204 H   0  0  0  0  0  0
  -19.6912  -25.6302   21.1249 H   0  0  0  0  0  0
  -19.6686  -27.3203   20.6744 H   0  0  0  0  0  0
  -17.4200  -26.6684   21.4032 H   0  0  0  0  0  0
  -18.0332  -26.0084   22.9027 H   0  0  0  0  0  0
  -19.7937  -30.7281   24.2270 H   0  0  0  0  0  0
  -17.5019  -31.6276   24.5176 H   0  0  0  0  0  0
  -15.5355  -30.3006   23.7654 H   0  0  0  0  0  0
  -15.8670  -28.0842   22.7059 H   0  0  0  0  0  0
  -24.5915  -30.7065   25.7775 H   0  0  0  0  0  0
  -24.8924  -32.2891   26.4860 H   0  0  0  0  0  0
  -25.8075  -30.8912   27.0217 H   0  0  0  0  0  0
  -26.2900  -29.6774   24.1170 H   0  0  0  0  0  0
  -27.4050  -29.7265   25.4626 H   0  0  0  0  0  0
  -27.8754  -30.4308   23.9337 H   0  0  0  0  0  0
  -27.2675  -33.3605   26.2073 H   0  0  0  0  0  0
  -28.3872  -32.6881   25.0320 H   0  0  0  0  0  0
  -28.0722  -31.8428   26.5393 H   0  0  0  0  0  0
  -28.2615  -38.0083   24.7502 H   0  0  0  0  0  0
  -28.1049  -36.2617   24.6321 H   0  0  0  0  0  0
  -27.2297  -37.1489   25.8879 H   0  0  0  0  0  0
  -20.9362  -29.8772   21.6893 H   0  0  0  0  0  0
  -26.0177  -38.2860   24.1408 H   0  0  0  0  0  0
  -30.9592  -19.3597   18.7640 H   0  0  0  0  0  0
  -28.6430  -18.1886   22.1952 H   0  0  0  0  0  0
  -30.1424  -21.6650   18.9623 H   0  0  0  0  0  0
  -27.8175  -20.5077   22.3889 H   0  0  0  0  0  0
  -31.4700  -17.2366   21.0102 H   0  0  0  0  0  0
  -31.0071  -17.0843   19.3509 H   0  0  0  0  0  0
  -29.8755  -23.9180   20.1773 H   0  0  0  0  0  0
  -28.4907  -23.6629   19.1322 H   0  0  0  0  0  0
  -28.4322  -25.2246   21.7846 H   0  0  0  0  0  0
  -27.0405  -24.9172   20.8294 H   0  0  0  0  0  0
  -28.9880  -15.7630   20.8520 H   0  0  0  0  0  0
  1 25  1  0  0  0
  1 30  2  0  0  0
  1 80  1  0  0  0
  2  3  1  0  0  0
  2 25  1  0  0  0
  2 82  1  0  0  0
  2 83  1  0  0  0
  3  4  1  0  0  0
  3 84  1  0  0  0
  3 85  1  0  0  0
  4  5  1  0  0  0
  4 86  1  0  0  0
  4 87  1  0  0  0
  5  6  1  0  0  0
  5 26  1  0  0  0
  5 88  1  0  0  0
  6 25  1  0  0  0
  6 89  1  0  0  0
  6 90  1  0  0  0
  7  8  2  0  0  0
  7 26  1  0  0  0
  7 29  1  0  0  0
  8  9  1  0  0  0
  8 22  1  0  0  0
  9 10  1  0  0  0
  9 27  2  0  0  0
 10 11  2  0  0  0
 10 15  1  0  0  0
 11 12  1  0  0  0
 11 91  1  0  0  0
 12 13  2  0  0  0
 12 92  1  0  0  0
 13 14  1  0  0  0
 13 31  1  0  0  0
 14 15  2  0  0  0
 14 93  1  0  0  0
 15 94  1  0  0  0
 16 17  2  0  0  0
 16 21  1  0  0  0
 16 31  1  0  0  0
 17 18  1  0  0  0
 17 95  1  0  0  0
 18 19  2  0  0  0
 18 96  1  0  0  0
 19 20  1  0  0  0
 19 24  1  0  0  0
 20 21  2  0  0  0
 20 97  1  0  0  0
 21 23  1  0  0  0
 22 28  1  0  0  0
 22 32  2  0  0  0
 26 27  1  0  0  0
 28 98  1  0  0  0
 28 99  1  0  0  0
 29100  1  0  0  0
 29101  1  0  0  0
 33 34  1  0  0  0
 33 66  1  0  0  0
 33 70  2  0  0  0
 34 36  1  0  0  0
 34 59  1  0  0  0
 34102  1  0  0  0
 35 44  2  0  0  0
 35 45  1  0  0  0
 35 68  1  0  0  0
 36 56  1  0  0  0
 36103  1  0  0  0
 37 39  1  0  0  0
 37 47  1  0  0  0
 37 66  1  0  0  0
 37104  1  0  0  0
 38 43  2  0  0  0
 38 46  1  0  0  0
 38 47  1  0  0  0
 39 64  1  0  0  0
 39 67  2  0  0  0
 40 52  1  0  0  0
 40 53  2  0  0  0
 40 58  1  0  0  0
 41105  1  0  0  0
 41106  1  0  0  0
 41107  1  0  0  0
 41 48  1  0  0  0
 42 43  1  0  0  0
 42 66  1  0  0  0
 42108  1  0  0  0
 42109  1  0  0  0
 43 44  1  0  0  0
 44110  1  0  0  0
 45 46  2  0  0  0
 45111  1  0  0  0
 46112  1  0  0  0
 47113  1  0  0  0
 47114  1  0  0  0
 48 56  1  0  0  0
 48 65  1  0  0  0
 48115  1  0  0  0
 49 50  1  0  0  0
 49 53  1  0  0  0
 49 64  1  0  0  0
 49116  1  0  0  0
 50 51  1  0  0  0
 50117  1  0  0  0
 50118  1  0  0  0
 51 52  1  0  0  0
 51119  1  0  0  0
 51120  1  0  0  0
 52121  1  0  0  0
 52122  1  0  0  0
 53 54  1  0  0  0
 54 55  2  0  0  0
 54123  1  0  0  0
 55 57  1  0  0  0
 55124  1  0  0  0
 56 69  2  0  0  0
 57 58  2  0  0  0
 57125  1  0  0  0
 58126  1  0  0  0
 59 60  1  0  0  0
 59 61  1  0  0  0
 59 62  1  0  0  0
 60127  1  0  0  0
 60128  1  0  0  0
 60129  1  0  0  0
 61130  1  0  0  0
 61131  1  0  0  0
 61132  1  0  0  0
 62133  1  0  0  0
 62134  1  0  0  0
 62135  1  0  0  0
 63 65  1  0  0  0
 63136  1  0  0  0
 63137  1  0  0  0
 63138  1  0  0  0
 64139  1  0  0  0
 65140  1  0  0  0
 68 79  1  0  0  0
 71 73  2  0  0  0
 71 75  1  0  0  0
 71141  1  0  0  0
 72 74  1  0  0  0
 72 75  2  0  0  0
 72142  1  0  0  0
 73 76  1  0  0  0
 73143  1  0  0  0
 74 76  2  0  0  0
 74144  1  0  0  0
 75 77  1  0  0  0
 76 81  1  0  0  0
 77 80  1  0  0  0
 77145  1  0  0  0
 77146  1  0  0  0
 78 79  1  0  0  0
 78 81  1  0  0  0
 78147  1  0  0  0
 78148  1  0  0  0
 79149  1  0  0  0
 79150  1  0  0  0
 80151  1  0  0  0
M  ISO  4   1 100  68 101  79 101  80 100
M  END
> <chiral flag>
0

> <version>
0

> <s_m_source_file>
/data/baiqing/PycharmProjects/Reinvent-master-3.2/result/LINK_invent/BTK/process_docking_weight1_custom_product_contain_oxygen_bond_distance_aromatic_linkinvent_7_9_3/rearranged_h_0001.sdf

> <i_m_source_file_index>
13

> <r_mmod_Potential_Energy-OPLS-2005>
36.7274284362793

> <r_mmod_Stretch_Energy-OPLS-2005>
76.701904296875

> <r_mmod_Bend_Energy-OPLS-2005>
155.474868774414

> <r_mmod_Torsional_Energy-OPLS-2005>
221.02214050293

> <r_mmod_Improper_Torsional_Energy-OPLS-2005>
6.35961389541626

> <r_mmod_Van_der_Waal_Energy-OPLS-2005>
143.365112304688

> <r_mmod_Electrostatic_Energy-OPLS-2005>
-407.782104492188

> <r_mmod_Solvation_Energy-OPLS-2005>
-210.192901611328

> <b_mmod_Minimization_Converged-OPLS-2005>
0

> <r_mmod_RMS_Derivative-OPLS-2005>
0.90838497877121

$$$$
13
                    3D
 Structure written by MMmdl.
171180  0  0  1  0            999 V2000
  -30.7246  -14.4133   20.6344 C   0  0  0  0  0  0
  -30.4083  -12.2917   19.4236 C   0  0  0  0  0  0
  -29.4978  -12.5328   18.2083 C   0  0  0  0  0  0
  -28.0194  -12.3722   18.6109 C   0  0  0  0  0  0
  -27.6595  -13.2039   19.8718 C   0  0  2  0  0  0
  -28.6871  -12.9719   20.9995 C   0  0  0  0  0  0
  -25.2573  -13.8147   20.5622 C   0  0  0  0  0  0
  -24.1816  -13.0426   20.9109 C   0  0  0  0  0  0
  -24.6376  -11.6894   20.8678 C   0  0  0  0  0  0
  -23.9042  -10.4287   21.0375 C   0  0  0  0  0  0
  -24.3602   -9.4220   21.9174 C   0  0  0  0  0  0
  -23.6282   -8.2249   22.0772 C   0  0  0  0  0  0
  -22.4270   -8.0268   21.3553 C   0  0  0  0  0  0
  -21.9879   -9.0229   20.4660 C   0  0  0  0  0  0
  -22.7202  -10.2115   20.3042 C   0  0  0  0  0  0
  -21.6861   -6.0702   22.5273 C   0  0  0  0  0  0
  -21.4024   -6.5609   23.8210 C   0  0  0  0  0  0
  -21.3669   -5.6778   24.9173 C   0  0  0  0  0  0
  -21.6042   -4.3032   24.7229 C   0  0  0  0  0  0
  -21.8818   -3.8118   23.4349 C   0  0  0  0  0  0
  -21.9199   -4.6924   22.3407 C   0  0  0  0  0  0
  -22.7845  -13.5245   21.1783 C   0  0  0  0  0  0
  -22.1654   -4.2115   21.0974 F   0  0  0  0  0  0
  -21.5664   -3.4516   25.7736 F   0  0  0  0  0  0
  -30.0283  -13.2586   20.4619 N   0  0  0  0  0  0
  -26.2996  -12.9314   20.3289 N   0  0  0  0  0  0
  -25.9295  -11.6474   20.5684 N   0  0  0  0  0  0
  -22.0479  -12.8253   22.0347 N   0  0  0  0  0  0
  -25.4335  -15.1850   20.4086 N   0  0  0  0  0  0
  -31.7980  -14.6400   20.0700 O   0  0  0  0  0  0
  -21.6650   -6.8837   21.4240 O   0  0  0  0  0  0
  -22.3525  -14.5554   20.6647 O   0  0  0  0  0  0
  -24.6129  -31.8720   23.2096 C   0  0  0  0  0  0
  -25.9055  -32.4834   23.8386 C   0  0  1  0  0  0
  -27.2137  -27.4479   20.0975 C   0  0  0  0  0  0
  -25.5935  -33.8642   24.2347 N   0  0  0  0  0  0
  -23.3980  -30.4958   21.5498 C   0  0  2  0  0  0
  -24.8408  -28.9675   20.1061 C   0  0  0  0  0  0
  -22.7385  -29.4691   22.4960 C   0  0  0  0  0  0
  -18.0258  -28.1324   22.8501 C   0  0  0  0  0  0
  -24.1485  -36.7320   23.2632 C   0  0  0  0  0  0
  -25.9254  -30.8362   21.3650 C   0  0  0  0  0  0
  -25.9977  -29.4722   20.7141 C   0  0  0  0  0  0
  -27.1909  -28.7167   20.7152 C   0  0  0  0  0  0
  -26.0519  -26.9585   19.4686 C   0  0  0  0  0  0
  -24.8619  -27.7086   19.4763 C   0  0  0  0  0  0
  -23.6049  -29.8360   20.1601 C   0  0  0  0  0  0
  -25.4101  -36.3124   24.0345 C   0  0  1  0  0  0
  -20.5855  -28.3666   23.1315 C   0  0  2  0  0  0
  -20.6782  -26.9409   22.5442 C   0  0  0  0  0  0
  -19.5761  -26.6374   21.5214 C   0  0  0  0  0  0
  -18.1930  -26.7882   22.1622 C   0  0  0  0  0  0
  -19.1510  -28.8823   23.2890 C   0  0  0  0  0  0
  -18.9436  -30.1439   23.8870 C   0  0  0  0  0  0
  -17.6424  -30.6579   24.0512 C   0  0  0  0  0  0
  -25.9032  -34.9495   23.5128 C   0  0  0  0  0  0
  -16.5335  -29.9051   23.6298 C   0  0  0  0  0  0
  -16.7244  -28.6461   23.0341 C   0  0  0  0  0  0
  -26.4494  -31.6561   25.0691 C   0  0  0  0  0  0
  -25.3795  -31.3647   26.1455 C   0  0  0  0  0  0
  -27.0300  -30.2987   24.6046 C   0  0  0  0  0  0
  -27.6060  -32.4279   25.7470 C   0  0  0  0  0  0
  -27.5573  -37.1817   24.8475 C   0  0  0  0  0  0
  -21.4114  -29.3029   22.3694 N   0  0  0  0  0  0
  -26.4287  -37.3798   23.9427 N   0  0  0  0  0  0
  -24.6622  -31.0839   22.0987 N   0  0  0  0  0  0
  -23.4169  -28.8251   23.2989 O   0  0  0  0  0  0
  -28.3451  -26.6742   20.0702 O   0  0  0  0  0  0
  -26.5567  -34.8945   22.4670 O   0  0  0  0  0  0
  -23.5334  -32.1480   23.7511 O   0  0  0  0  0  0
  -25.6849  -20.7399   16.8030 C   0  0  0  0  0  0
  -26.7531  -21.6428   16.6534 C   0  0  0  0  0  0
  -25.6476  -19.8744   17.9124 C   0  0  0  0  0  0
  -27.7854  -21.6761   17.6112 C   0  0  0  0  0  0
  -26.6778  -19.9082   18.8717 C   0  0  0  0  0  0
  -28.9338  -17.9606   22.9705 C   0  0  0  0  0  0
  -28.1403  -19.1193   23.0673 C   0  0  0  0  0  0
  -29.6738  -18.6616   20.7587 C   0  0  0  0  0  0
  -27.7623  -20.8035   18.7227 C   0  0  0  0  0  0
  -29.7398  -17.7501   21.8339 C   0  0  0  0  0  0
  -28.8870  -19.8316   20.8531 C   0  0  0  0  0  0
  -28.1414  -20.0832   22.0307 C   0  0  0  0  0  0
  -28.9211  -20.8513   19.7147 C   0  0  0  0  0  0
  -30.7380  -16.6027   21.8041 C   0  0  0  0  0  0
  -28.5937  -25.9253   21.2645 C   0  0  0  0  0  0
  -27.3153  -21.8381   23.4288 C   0  0  0  0  0  0
  -27.4472  -24.9739   21.6836 C   0  0  0  0  0  0
  -26.8646  -23.2903   23.2462 C   0  0  0  0  0  0
  -30.1538  -15.3137   21.4468 N   0  0  0  0  0  0
  -27.4531  -21.2688   22.1267 O   0  0  0  0  0  0
  -27.9204  -24.0212   22.6241 O   0  0  0  0  0  0
  -31.4591  -12.3683   19.1404 H   0  0  0  0  0  0
  -30.2799  -11.2761   19.8012 H   0  0  0  0  0  0
  -29.7596  -11.8496   17.4006 H   0  0  0  0  0  0
  -29.6637  -13.5393   17.8224 H   0  0  0  0  0  0
  -27.8366  -11.3140   18.8025 H   0  0  0  0  0  0
  -27.3744  -12.6490   17.7773 H   0  0  0  0  0  0
  -27.7085  -14.2544   19.5825 H   0  0  0  0  0  0
  -28.6439  -11.9373   21.3426 H   0  0  0  0  0  0
  -28.4272  -13.5701   21.8742 H   0  0  0  0  0  0
  -25.2748   -9.5690   22.4748 H   0  0  0  0  0  0
  -23.9994   -7.4635   22.7495 H   0  0  0  0  0  0
  -21.0812   -8.8706   19.8966 H   0  0  0  0  0  0
  -22.3643  -10.9629   19.6136 H   0  0  0  0  0  0
  -21.2010   -7.6117   23.9685 H   0  0  0  0  0  0
  -21.1514   -6.0519   25.9080 H   0  0  0  0  0  0
  -22.0603   -2.7578   23.2863 H   0  0  0  0  0  0
  -22.4078  -11.9915   22.4760 H   0  0  0  0  0  0
  -21.1111  -13.1336   22.2560 H   0  0  0  0  0  0
  -24.6738  -15.8468   20.5145 H   0  0  0  0  0  0
  -26.3059  -15.6244   20.1452 H   0  0  0  0  0  0
  -26.7128  -32.5540   23.1142 H   0  0  0  0  0  0
  -25.0158  -33.9817   25.0547 H   0  0  0  0  0  0
  -22.6849  -31.3119   21.4165 H   0  0  0  0  0  0
  -23.3749  -35.9652   23.3315 H   0  0  0  0  0  0
  -24.3561  -36.8902   22.2036 H   0  0  0  0  0  0
  -23.7242  -37.6542   23.6608 H   0  0  0  0  0  0
  -26.0463  -31.6050   20.5999 H   0  0  0  0  0  0
  -26.8119  -30.8822   21.9862 H   0  0  0  0  0  0
  -28.0828  -29.1056   21.1873 H   0  0  0  0  0  0
  -26.0696  -25.9945   18.9801 H   0  0  0  0  0  0
  -23.9797  -27.3242   18.9827 H   0  0  0  0  0  0
  -23.7157  -30.6205   19.4098 H   0  0  0  0  0  0
  -22.7265  -29.2635   19.8579 H   0  0  0  0  0  0
  -25.1278  -36.1976   25.0835 H   0  0  0  0  0  0
  -20.9935  -28.3230   24.1445 H   0  0  0  0  0  0
  -20.5680  -26.2317   23.3652 H   0  0  0  0  0  0
  -21.6691  -26.7453   22.1320 H   0  0  0  0  0  0
  -19.6944  -25.6308   21.1201 H   0  0  0  0  0  0
  -19.6658  -27.3198   20.6746 H   0  0  0  0  0  0
  -17.4229  -26.6654   21.3953 H   0  0  0  0  0  0
  -18.0276  -25.9964   22.8955 H   0  0  0  0  0  0
  -19.7913  -30.7285   24.2195 H   0  0  0  0  0  0
  -17.4967  -31.6267   24.5062 H   0  0  0  0  0  0
  -15.5334  -30.2958   23.7578 H   0  0  0  0  0  0
  -15.8639  -28.0752   22.7080 H   0  0  0  0  0  0
  -24.6006  -30.6930   25.7813 H   0  0  0  0  0  0
  -24.8974  -32.2802   26.4891 H   0  0  0  0  0  0
  -25.8227  -30.8852   27.0200 H   0  0  0  0  0  0
  -26.2802  -29.6750   24.1161 H   0  0  0  0  0  0
  -27.4115  -29.7205   25.4476 H   0  0  0  0  0  0
  -27.8632  -30.4281   23.9137 H   0  0  0  0  0  0
  -27.2649  -33.3575   26.2048 H   0  0  0  0  0  0
  -28.3877  -32.6847   25.0302 H   0  0  0  0  0  0
  -28.0718  -31.8409   26.5394 H   0  0  0  0  0  0
  -28.2614  -38.0089   24.7501 H   0  0  0  0  0  0
  -28.1054  -36.2632   24.6330 H   0  0  0  0  0  0
  -27.2305  -37.1497   25.8880 H   0  0  0  0  0  0
  -20.9209  -29.8830   21.7054 H   0  0  0  0  0  0
  -26.0187  -38.2887   24.1401 H   0  0  0  0  0  0
  -24.8919  -20.7172   16.0665 H   0  0  0  0  0  0
  -26.7802  -22.3137   15.8050 H   0  0  0  0  0  0
  -24.8241  -19.1841   18.0292 H   0  0  0  0  0  0
  -28.6009  -22.3741   17.4861 H   0  0  0  0  0  0
  -26.6201  -19.2397   19.7178 H   0  0  0  0  0  0
  -28.9625  -17.2634   23.7976 H   0  0  0  0  0  0
  -27.5579  -19.2676   23.9664 H   0  0  0  0  0  0
  -30.2784  -18.4895   19.8791 H   0  0  0  0  0  0
  -28.9845  -21.8547   20.1381 H   0  0  0  0  0  0
  -29.8422  -20.7165   19.1457 H   0  0  0  0  0  0
  -31.1902  -16.5083   22.7919 H   0  0  0  0  0  0
  -31.5574  -16.8736   21.1343 H   0  0  0  0  0  0
  -29.4942  -25.3389   21.0714 H   0  0  0  0  0  0
  -28.8333  -26.5964   22.0890 H   0  0  0  0  0  0
  -26.5667  -21.2893   24.0022 H   0  0  0  0  0  0
  -28.2531  -21.8122   23.9868 H   0  0  0  0  0  0
  -27.0515  -24.4334   20.8201 H   0  0  0  0  0  0
  -26.6296  -25.5462   22.1237 H   0  0  0  0  0  0
  -26.6370  -23.7567   24.2072 H   0  0  0  0  0  0
  -25.9406  -23.2982   22.6656 H   0  0  0  0  0  0
  -29.2804  -15.0589   21.8816 H   0  0  0  0  0  0
  1 25  1  0  0  0
  1 30  2  0  0  0
  1 89  1  0  0  0
  2  3  1  0  0  0
  2 25  1  0  0  0
  2 92  1  0  0  0
  2 93  1  0  0  0
  3  4  1  0  0  0
  3 94  1  0  0  0
  3 95  1  0  0  0
  4  5  1  0  0  0
  4 96  1  0  0  0
  4 97  1  0  0  0
  5  6  1  0  0  0
  5 26  1  0  0  0
  5 98  1  0  0  0
  6 25  1  0  0  0
  6 99  1  0  0  0
  6100  1  0  0  0
  7  8  2  0  0  0
  7 26  1  0  0  0
  7 29  1  0  0  0
  8  9  1  0  0  0
  8 22  1  0  0  0
  9 10  1  0  0  0
  9 27  2  0  0  0
 10 11  2  0  0  0
 10 15  1  0  0  0
 11 12  1  0  0  0
 11101  1  0  0  0
 12 13  2  0  0  0
 12102  1  0  0  0
 13 14  1  0  0  0
 13 31  1  0  0  0
 14 15  2  0  0  0
 14103  1  0  0  0
 15104  1  0  0  0
 16 17  2  0  0  0
 16 21  1  0  0  0
 16 31  1  0  0  0
 17 18  1  0  0  0
 17105  1  0  0  0
 18 19  2  0  0  0
 18106  1  0  0  0
 19 20  1  0  0  0
 19 24  1  0  0  0
 20 21  2  0  0  0
 20107  1  0  0  0
 21 23  1  0  0  0
 22 28  1  0  0  0
 22 32  2  0  0  0
 26 27  1  0  0  0
 28108  1  0  0  0
 28109  1  0  0  0
 29110  1  0  0  0
 29111  1  0  0  0
 33 34  1  0  0  0
 33 66  1  0  0  0
 33 70  2  0  0  0
 34 36  1  0  0  0
 34 59  1  0  0  0
 34112  1  0  0  0
 35 44  2  0  0  0
 35 45  1  0  0  0
 35 68  1  0  0  0
 36 56  1  0  0  0
 36113  1  0  0  0
 37 39  1  0  0  0
 37 47  1  0  0  0
 37 66  1  0  0  0
 37114  1  0  0  0
 38 43  2  0  0  0
 38 46  1  0  0  0
 38 47  1  0  0  0
 39 64  1  0  0  0
 39 67  2  0  0  0
 40 52  1  0  0  0
 40 53  2  0  0  0
 40 58  1  0  0  0
 41115  1  0  0  0
 41116  1  0  0  0
 41117  1  0  0  0
 41 48  1  0  0  0
 42 43  1  0  0  0
 42 66  1  0  0  0
 42118  1  0  0  0
 42119  1  0  0  0
 43 44  1  0  0  0
 44120  1  0  0  0
 45 46  2  0  0  0
 45121  1  0  0  0
 46122  1  0  0  0
 47123  1  0  0  0
 47124  1  0  0  0
 48 56  1  0  0  0
 48 65  1  0  0  0
 48125  1  0  0  0
 49 50  1  0  0  0
 49 53  1  0  0  0
 49 64  1  0  0  0
 49126  1  0  0  0
 50 51  1  0  0  0
 50127  1  0  0  0
 50128  1  0  0  0
 51 52  1  0  0  0
 51129  1  0  0  0
 51130  1  0  0  0
 52131  1  0  0  0
 52132  1  0  0  0
 53 54  1  0  0  0
 54 55  2  0  0  0
 54133  1  0  0  0
 55 57  1  0  0  0
 55134  1  0  0  0
 56 69  2  0  0  0
 57 58  2  0  0  0
 57135  1  0  0  0
 58136  1  0  0  0
 59 60  1  0  0  0
 59 61  1  0  0  0
 59 62  1  0  0  0
 60137  1  0  0  0
 60138  1  0  0  0
 60139  1  0  0  0
 61140  1  0  0  0
 61141  1  0  0  0
 61142  1  0  0  0
 62143  1  0  0  0
 62144  1  0  0  0
 62145  1  0  0  0
 63 65  1  0  0  0
 63146  1  0  0  0
 63147  1  0  0  0
 63148  1  0  0  0
 64149  1  0  0  0
 65150  1  0  0  0
 68 85  1  0  0  0
 71 72  2  0  0  0
 71 73  1  0  0  0
 71151  1  0  0  0
 72 74  1  0  0  0
 72152  1  0  0  0
 73 75  2  0  0  0
 73153  1  0  0  0
 74 79  2  0  0  0
 74154  1  0  0  0
 75 79  1  0  0  0
 75155  1  0  0  0
 76 77  2  0  0  0
 76 80  1  0  0  0
 76156  1  0  0  0
 77 82  1  0  0  0
 77157  1  0  0  0
 78 80  2  0  0  0
 78 81  1  0  0  0
 78158  1  0  0  0
 79 83  1  0  0  0
 80 84  1  0  0  0
 81 82  2  0  0  0
 81 83  1  0  0  0
 82 90  1  0  0  0
 83159  1  0  0  0
 83160  1  0  0  0
 84 89  1  0  0  0
 84161  1  0  0  0
 84162  1  0  0  0
 85 87  1  0  0  0
 85163  1  0  0  0
 85164  1  0  0  0
 86 88  1  0  0  0
 86 90  1  0  0  0
 86165  1  0  0  0
 86166  1  0  0  0
 87 91  1  0  0  0
 87167  1  0  0  0
 87168  1  0  0  0
 88 91  1  0  0  0
 88169  1  0  0  0
 88170  1  0  0  0
 89171  1  0  0  0
M  ISO  4   1 100  68 101  85 101  89 100
M  END
> <chiral flag>
0

> <version>
0

> <s_m_source_file>
/data/baiqing/PycharmProjects/Reinvent-master-3.2/result/LINK_invent/BTK/process_docking_weight1_custom_product_contain_oxygen_bond_distance_aromatic_linkinvent_7_9_3/rearranged_h_0001.sdf

> <i_m_source_file_index>
14

> <r_mmod_Potential_Energy-OPLS-2005>
-66.4715270996094

> <r_mmod_Stretch_Energy-OPLS-2005>
34.923942565918

> <r_mmod_Bend_Energy-OPLS-2005>
93.121337890625

> <r_mmod_Torsional_Energy-OPLS-2005>
233.300094604492

> <r_mmod_Improper_Torsional_Energy-OPLS-2005>
2.17458558082581

> <r_mmod_Van_der_Waal_Energy-OPLS-2005>
167.122055053711

> <r_mmod_Electrostatic_Energy-OPLS-2005>
-393.319366455078

> <r_mmod_Solvation_Energy-OPLS-2005>
-213.365707397461

> <b_mmod_Minimization_Converged-OPLS-2005>
0

> <r_mmod_RMS_Derivative-OPLS-2005>
4.31898069381714

$$$$
14
                    3D
 Structure written by MMmdl.
148156  0  0  1  0            999 V2000
  -30.5066  -14.9122   20.4364 C   0  0  0  0  0  0
  -30.4572  -12.5594   19.4935 C   0  0  0  0  0  0
  -29.5282  -12.5199   18.2554 C   0  0  0  0  0  0
  -28.0576  -12.3117   18.6710 C   0  0  0  0  0  0
  -27.6394  -13.2328   19.8459 C   0  0  2  0  0  0
  -28.6827  -13.2097   20.9842 C   0  0  0  0  0  0
  -25.2503  -13.8179   20.5680 C   0  0  0  0  0  0
  -24.1804  -13.0432   20.9234 C   0  0  0  0  0  0
  -24.6391  -11.6909   20.8755 C   0  0  0  0  0  0
  -23.9061  -10.4290   21.0411 C   0  0  0  0  0  0
  -24.3611   -9.4205   21.9186 C   0  0  0  0  0  0
  -23.6288   -8.2238   22.0750 C   0  0  0  0  0  0
  -22.4271   -8.0275   21.3541 C   0  0  0  0  0  0
  -21.9904   -9.0252   20.4648 C   0  0  0  0  0  0
  -22.7230  -10.2135   20.3062 C   0  0  0  0  0  0
  -21.6854   -6.0729   22.5277 C   0  0  0  0  0  0
  -21.4013   -6.5632   23.8208 C   0  0  0  0  0  0
  -21.3661   -5.6786   24.9171 C   0  0  0  0  0  0
  -21.6045   -4.3047   24.7224 C   0  0  0  0  0  0
  -21.8820   -3.8140   23.4344 C   0  0  0  0  0  0
  -21.9192   -4.6957   22.3400 C   0  0  0  0  0  0
  -22.7825  -13.5222   21.1889 C   0  0  0  0  0  0
  -22.1662   -4.2144   21.0978 F   0  0  0  0  0  0
  -21.5632   -3.4531   25.7736 F   0  0  0  0  0  0
  -29.9671  -13.6300   20.4031 N   0  0  0  0  0  0
  -26.2923  -12.9383   20.3242 N   0  0  0  0  0  0
  -25.9319  -11.6532   20.5738 N   0  0  0  0  0  0
  -22.0468  -12.8219   22.0447 N   0  0  0  0  0  0
  -25.4177  -15.1897   20.4031 N   0  0  0  0  0  0
  -31.6939  -15.0568   20.1209 O   0  0  0  0  0  0
  -21.6638   -6.8871   21.4237 O   0  0  0  0  0  0
  -22.3514  -14.5527   20.6726 O   0  0  0  0  0  0
  -24.6416  -31.8453   23.1901 C   0  0  0  0  0  0
  -25.9200  -32.4701   23.8277 C   0  0  1  0  0  0
  -27.2194  -27.1518   20.1453 C   0  0  0  0  0  0
  -25.5965  -33.8506   24.2202 N   0  0  0  0  0  0
  -23.4439  -30.4666   21.5351 C   0  0  2  0  0  0
  -24.8937  -28.8974   20.1099 C   0  0  0  0  0  0
  -22.7560  -29.4552   22.4860 C   0  0  0  0  0  0
  -18.0312  -28.1393   22.8469 C   0  0  0  0  0  0
  -24.1494  -36.7247   23.2641 C   0  0  0  0  0  0
  -25.9996  -30.7244   21.3866 C   0  0  0  0  0  0
  -26.0718  -29.3381   20.7263 C   0  0  0  0  0  0
  -27.2360  -28.4820   20.7257 C   0  0  0  0  0  0
  -26.0120  -26.8101   19.4939 C   0  0  0  0  0  0
  -24.8768  -27.6464   19.4781 C   0  0  0  0  0  0
  -23.6696  -29.7981   20.1537 C   0  0  0  0  0  0
  -25.4127  -36.3034   24.0317 C   0  0  1  0  0  0
  -20.5919  -28.3710   23.1237 C   0  0  2  0  0  0
  -20.6792  -26.9413   22.5410 C   0  0  0  0  0  0
  -19.5774  -26.6379   21.5205 C   0  0  0  0  0  0
  -18.1953  -26.7936   22.1610 C   0  0  0  0  0  0
  -19.1566  -28.8871   23.2846 C   0  0  0  0  0  0
  -18.9483  -30.1470   23.8866 C   0  0  0  0  0  0
  -17.6479  -30.6586   24.0558 C   0  0  0  0  0  0
  -25.9073  -34.9409   23.5067 C   0  0  0  0  0  0
  -16.5370  -29.9077   23.6341 C   0  0  0  0  0  0
  -16.7296  -28.6502   23.0351 C   0  0  0  0  0  0
  -26.4529  -31.6562   25.0707 C   0  0  0  0  0  0
  -25.3724  -31.3768   26.1419 C   0  0  0  0  0  0
  -27.0377  -30.2956   24.6276 C   0  0  0  0  0  0
  -27.6086  -32.4308   25.7471 C   0  0  0  0  0  0
  -27.5583  -37.1776   24.8464 C   0  0  0  0  0  0
  -21.4255  -29.3039   22.3609 N   0  0  0  0  0  0
  -26.4289  -37.3749   23.9414 N   0  0  0  0  0  0
  -24.7147  -31.0329   22.0924 N   0  0  0  0  0  0
  -23.4217  -28.8100   23.2999 O   0  0  0  0  0  0
  -28.2775  -26.1735   20.2098 O   0  0  0  0  0  0
  -26.5645  -34.8903   22.4634 O   0  0  0  0  0  0
  -23.5543  -32.1324   23.7138 O   0  0  0  0  0  0
  -28.2153  -18.0953   20.7491 C   0  0  0  0  0  0
  -30.4833  -18.5413   20.2926 C   0  0  0  0  0  0
  -27.9193  -19.5039   20.6778 C   0  0  0  0  0  0
  -30.1796  -19.9799   20.2323 C   0  0  0  0  0  0
  -29.5053  -17.5105   20.5545 C   0  0  0  0  0  0
  -28.8633  -20.5436   20.4177 C   0  0  0  0  0  0
  -28.9684  -23.3056   20.2949 C   0  0  0  0  0  0
  -27.9754  -24.6526   20.0919 C   0  0  0  0  0  0
  -29.6169  -15.9865   20.6674 N   0  0  0  0  0  0
  -28.3409  -21.9105   20.3531 O   0  0  0  0  0  0
  -31.4885  -12.7346   19.1825 H   0  0  0  0  0  0
  -30.4604  -11.5956   20.0058 H   0  0  0  0  0  0
  -29.8405  -11.7242   17.5774 H   0  0  0  0  0  0
  -29.6216  -13.4520   17.6963 H   0  0  0  0  0  0
  -27.9473  -11.2684   18.9696 H   0  0  0  0  0  0
  -27.3947  -12.4547   17.8166 H   0  0  0  0  0  0
  -27.6179  -14.2430   19.4364 H   0  0  0  0  0  0
  -28.7602  -12.2129   21.4208 H   0  0  0  0  0  0
  -28.3848  -13.8728   21.7977 H   0  0  0  0  0  0
  -25.2756   -9.5682   22.4757 H   0  0  0  0  0  0
  -24.0001   -7.4627   22.7461 H   0  0  0  0  0  0
  -21.0838   -8.8770   19.8954 H   0  0  0  0  0  0
  -22.3684  -10.9672   19.6174 H   0  0  0  0  0  0
  -21.2003   -7.6140   23.9709 H   0  0  0  0  0  0
  -21.1487   -6.0516   25.9075 H   0  0  0  0  0  0
  -22.0599   -2.7601   23.2843 H   0  0  0  0  0  0
  -22.4081  -11.9886   22.4849 H   0  0  0  0  0  0
  -21.1085  -13.1247   22.2656 H   0  0  0  0  0  0
  -24.6341  -15.8285   20.4849 H   0  0  0  0  0  0
  -26.2245  -15.6094   19.9608 H   0  0  0  0  0  0
  -26.7255  -32.5312   23.0996 H   0  0  0  0  0  0
  -25.0126  -33.9625   25.0360 H   0  0  0  0  0  0
  -22.7454  -31.2921   21.3833 H   0  0  0  0  0  0
  -23.3765  -35.9568   23.3292 H   0  0  0  0  0  0
  -24.3585  -36.8891   22.2059 H   0  0  0  0  0  0
  -23.7234  -37.6436   23.6677 H   0  0  0  0  0  0
  -26.1556  -31.4817   20.6172 H   0  0  0  0  0  0
  -26.8696  -30.7724   22.0293 H   0  0  0  0  0  0
  -28.1328  -28.8166   21.2280 H   0  0  0  0  0  0
  -25.9048  -25.8561   19.0019 H   0  0  0  0  0  0
  -23.9779  -27.3044   18.9838 H   0  0  0  0  0  0
  -23.8045  -30.5736   19.3988 H   0  0  0  0  0  0
  -22.7847  -29.2399   19.8437 H   0  0  0  0  0  0
  -25.1317  -36.1861   25.0809 H   0  0  0  0  0  0
  -21.0016  -28.3300   24.1354 H   0  0  0  0  0  0
  -20.5666  -26.2323   23.3628 H   0  0  0  0  0  0
  -21.6663  -26.7413   22.1221 H   0  0  0  0  0  0
  -19.6932  -25.6284   21.1253 H   0  0  0  0  0  0
  -19.6722  -27.3173   20.6721 H   0  0  0  0  0  0
  -17.4228  -26.6678   21.4008 H   0  0  0  0  0  0
  -18.0350  -26.0083   22.9011 H   0  0  0  0  0  0
  -19.7958  -30.7296   24.2215 H   0  0  0  0  0  0
  -17.5033  -31.6263   24.5169 H   0  0  0  0  0  0
  -15.5368  -30.2966   23.7685 H   0  0  0  0  0  0
  -15.8700  -28.0816   22.7066 H   0  0  0  0  0  0
  -24.5925  -30.7071   25.7773 H   0  0  0  0  0  0
  -24.8874  -32.2948   26.4746 H   0  0  0  0  0  0
  -25.8030  -30.9039   27.0255 H   0  0  0  0  0  0
  -26.2979  -29.6681   24.1289 H   0  0  0  0  0  0
  -27.4002  -29.7261   25.4844 H   0  0  0  0  0  0
  -27.8892  -30.4194   23.9579 H   0  0  0  0  0  0
  -27.2718  -33.3642   26.1990 H   0  0  0  0  0  0
  -28.3920  -32.6807   25.0300 H   0  0  0  0  0  0
  -28.0715  -31.8451   26.5425 H   0  0  0  0  0  0
  -28.2603  -38.0072   24.7518 H   0  0  0  0  0  0
  -28.1082  -36.2608   24.6283 H   0  0  0  0  0  0
  -27.2305  -37.1418   25.8868 H   0  0  0  0  0  0
  -20.9454  -29.8756   21.6799 H   0  0  0  0  0  0
  -26.0160  -38.2816   24.1435 H   0  0  0  0  0  0
  -27.3841  -17.4389   20.9640 H   0  0  0  0  0  0
  -31.5080  -18.2375   20.1325 H   0  0  0  0  0  0
  -26.8912  -19.7983   20.8356 H   0  0  0  0  0  0
  -30.9941  -20.6580   20.0223 H   0  0  0  0  0  0
  -29.5285  -23.4334   21.2214 H   0  0  0  0  0  0
  -29.7148  -23.2995   19.5002 H   0  0  0  0  0  0
  -27.1411  -24.4904   20.7758 H   0  0  0  0  0  0
  -27.5573  -24.5134   19.0959 H   0  0  0  0  0  0
  -28.7281  -15.5826   20.9203 H   0  0  0  0  0  0
  1 25  1  0  0  0
  1 30  2  0  0  0
  1 79  1  0  0  0
  2  3  1  0  0  0
  2 25  1  0  0  0
  2 81  1  0  0  0
  2 82  1  0  0  0
  3  4  1  0  0  0
  3 83  1  0  0  0
  3 84  1  0  0  0
  4  5  1  0  0  0
  4 85  1  0  0  0
  4 86  1  0  0  0
  5  6  1  0  0  0
  5 26  1  0  0  0
  5 87  1  0  0  0
  6 25  1  0  0  0
  6 88  1  0  0  0
  6 89  1  0  0  0
  7  8  2  0  0  0
  7 26  1  0  0  0
  7 29  1  0  0  0
  8  9  1  0  0  0
  8 22  1  0  0  0
  9 10  1  0  0  0
  9 27  2  0  0  0
 10 11  2  0  0  0
 10 15  1  0  0  0
 11 12  1  0  0  0
 11 90  1  0  0  0
 12 13  2  0  0  0
 12 91  1  0  0  0
 13 14  1  0  0  0
 13 31  1  0  0  0
 14 15  2  0  0  0
 14 92  1  0  0  0
 15 93  1  0  0  0
 16 17  2  0  0  0
 16 21  1  0  0  0
 16 31  1  0  0  0
 17 18  1  0  0  0
 17 94  1  0  0  0
 18 19  2  0  0  0
 18 95  1  0  0  0
 19 20  1  0  0  0
 19 24  1  0  0  0
 20 21  2  0  0  0
 20 96  1  0  0  0
 21 23  1  0  0  0
 22 28  1  0  0  0
 22 32  2  0  0  0
 26 27  1  0  0  0
 28 97  1  0  0  0
 28 98  1  0  0  0
 29 99  1  0  0  0
 29100  1  0  0  0
 33 34  1  0  0  0
 33 66  1  0  0  0
 33 70  2  0  0  0
 34 36  1  0  0  0
 34 59  1  0  0  0
 34101  1  0  0  0
 35 44  2  0  0  0
 35 45  1  0  0  0
 35 68  1  0  0  0
 36 56  1  0  0  0
 36102  1  0  0  0
 37 39  1  0  0  0
 37 47  1  0  0  0
 37 66  1  0  0  0
 37103  1  0  0  0
 38 43  2  0  0  0
 38 46  1  0  0  0
 38 47  1  0  0  0
 39 64  1  0  0  0
 39 67  2  0  0  0
 40 52  1  0  0  0
 40 53  2  0  0  0
 40 58  1  0  0  0
 41104  1  0  0  0
 41105  1  0  0  0
 41106  1  0  0  0
 41 48  1  0  0  0
 42 43  1  0  0  0
 42 66  1  0  0  0
 42107  1  0  0  0
 42108  1  0  0  0
 43 44  1  0  0  0
 44109  1  0  0  0
 45 46  2  0  0  0
 45110  1  0  0  0
 46111  1  0  0  0
 47112  1  0  0  0
 47113  1  0  0  0
 48 56  1  0  0  0
 48 65  1  0  0  0
 48114  1  0  0  0
 49 50  1  0  0  0
 49 53  1  0  0  0
 49 64  1  0  0  0
 49115  1  0  0  0
 50 51  1  0  0  0
 50116  1  0  0  0
 50117  1  0  0  0
 51 52  1  0  0  0
 51118  1  0  0  0
 51119  1  0  0  0
 52120  1  0  0  0
 52121  1  0  0  0
 53 54  1  0  0  0
 54 55  2  0  0  0
 54122  1  0  0  0
 55 57  1  0  0  0
 55123  1  0  0  0
 56 69  2  0  0  0
 57 58  2  0  0  0
 57124  1  0  0  0
 58125  1  0  0  0
 59 60  1  0  0  0
 59 61  1  0  0  0
 59 62  1  0  0  0
 60126  1  0  0  0
 60127  1  0  0  0
 60128  1  0  0  0
 61129  1  0  0  0
 61130  1  0  0  0
 61131  1  0  0  0
 62132  1  0  0  0
 62133  1  0  0  0
 62134  1  0  0  0
 63 65  1  0  0  0
 63135  1  0  0  0
 63136  1  0  0  0
 63137  1  0  0  0
 64138  1  0  0  0
 65139  1  0  0  0
 68 78  1  0  0  0
 71 73  2  0  0  0
 71 75  1  0  0  0
 71140  1  0  0  0
 72 74  1  0  0  0
 72 75  2  0  0  0
 72141  1  0  0  0
 73 76  1  0  0  0
 73142  1  0  0  0
 74 76  2  0  0  0
 74143  1  0  0  0
 75 79  1  0  0  0
 76 80  1  0  0  0
 77 78  1  0  0  0
 77 80  1  0  0  0
 77144  1  0  0  0
 77145  1  0  0  0
 78146  1  0  0  0
 78147  1  0  0  0
 79148  1  0  0  0
M  ISO  4   1 100  68 101  78 101  79 100
M  END
> <chiral flag>
0

> <version>
0

> <s_m_source_file>
/data/baiqing/PycharmProjects/Reinvent-master-3.2/result/LINK_invent/BTK/process_docking_weight1_custom_product_contain_oxygen_bond_distance_aromatic_linkinvent_7_9_3/rearranged_h_0001.sdf

> <i_m_source_file_index>
15

> <r_mmod_Potential_Energy-OPLS-2005>
453.292022705078

> <r_mmod_Stretch_Energy-OPLS-2005>
216.148208618164

> <r_mmod_Bend_Energy-OPLS-2005>
303.559814453125

> <r_mmod_Torsional_Energy-OPLS-2005>
210.8935546875

> <r_mmod_Improper_Torsional_Energy-OPLS-2005>
4.47378873825073

> <r_mmod_Van_der_Waal_Energy-OPLS-2005>
131.151794433594

> <r_mmod_Electrostatic_Energy-OPLS-2005>
-373.256744384766

> <r_mmod_Solvation_Energy-OPLS-2005>
-214.08235168457

> <b_mmod_Minimization_Converged-OPLS-2005>
0

> <r_mmod_RMS_Derivative-OPLS-2005>
0.848834156990051

$$$$
15
                    3D
 Structure written by MMmdl.
151159  0  0  1  0            999 V2000
  -30.6264  -14.6511   20.4934 C   0  0  0  0  0  0
  -30.4401  -12.3970   19.4577 C   0  0  0  0  0  0
  -29.5116  -12.5061   18.2275 C   0  0  0  0  0  0
  -28.0342  -12.3427   18.6380 C   0  0  0  0  0  0
  -27.6523  -13.2182   19.8607 C   0  0  2  0  0  0
  -28.6973  -13.0835   20.9919 C   0  0  0  0  0  0
  -25.2549  -13.8173   20.5674 C   0  0  0  0  0  0
  -24.1818  -13.0440   20.9199 C   0  0  0  0  0  0
  -24.6385  -11.6910   20.8730 C   0  0  0  0  0  0
  -23.9053  -10.4292   21.0400 C   0  0  0  0  0  0
  -24.3606   -9.4209   21.9176 C   0  0  0  0  0  0
  -23.6281   -8.2246   22.0747 C   0  0  0  0  0  0
  -22.4267   -8.0277   21.3539 C   0  0  0  0  0  0
  -21.9901   -9.0253   20.4647 C   0  0  0  0  0  0
  -22.7225  -10.2134   20.3052 C   0  0  0  0  0  0
  -21.6854   -6.0727   22.5277 C   0  0  0  0  0  0
  -21.4015   -6.5633   23.8209 C   0  0  0  0  0  0
  -21.3661   -5.6785   24.9171 C   0  0  0  0  0  0
  -21.6047   -4.3048   24.7221 C   0  0  0  0  0  0
  -21.8818   -3.8139   23.4343 C   0  0  0  0  0  0
  -21.9192   -4.6954   22.3398 C   0  0  0  0  0  0
  -22.7840  -13.5234   21.1863 C   0  0  0  0  0  0
  -22.1661   -4.2141   21.0974 F   0  0  0  0  0  0
  -21.5631   -3.4533   25.7734 F   0  0  0  0  0  0
  -30.0138  -13.4249   20.4288 N   0  0  0  0  0  0
  -26.2979  -12.9357   20.3299 N   0  0  0  0  0  0
  -25.9316  -11.6514   20.5743 N   0  0  0  0  0  0
  -22.0479  -12.8232   22.0422 N   0  0  0  0  0  0
  -25.4234  -15.1889   20.4030 N   0  0  0  0  0  0
  -31.7939  -14.7990   20.1210 O   0  0  0  0  0  0
  -21.6637   -6.8870   21.4240 O   0  0  0  0  0  0
  -22.3528  -14.5537   20.6703 O   0  0  0  0  0  0
  -24.6262  -31.8612   23.2022 C   0  0  0  0  0  0
  -25.9109  -32.4791   23.8352 C   0  0  1  0  0  0
  -27.2237  -27.3209   20.1134 C   0  0  0  0  0  0
  -25.5922  -33.8587   24.2278 N   0  0  0  0  0  0
  -23.4185  -30.4845   21.5465 C   0  0  2  0  0  0
  -24.8645  -28.9418   20.1120 C   0  0  0  0  0  0
  -22.7477  -29.4625   22.4950 C   0  0  0  0  0  0
  -18.0289  -28.1385   22.8498 C   0  0  0  0  0  0
  -24.1486  -36.7292   23.2639 C   0  0  0  0  0  0
  -25.9604  -30.7929   21.3723 C   0  0  0  0  0  0
  -26.0350  -29.4209   20.7137 C   0  0  0  0  0  0
  -27.2180  -28.6236   20.7017 C   0  0  0  0  0  0
  -26.0251  -26.8951   19.4920 C   0  0  0  0  0  0
  -24.8619  -27.6844   19.4916 C   0  0  0  0  0  0
  -23.6323  -29.8204   20.1618 C   0  0  0  0  0  0
  -25.4116  -36.3092   24.0329 C   0  0  1  0  0  0
  -20.5891  -28.3686   23.1294 C   0  0  2  0  0  0
  -20.6774  -26.9411   22.5413 C   0  0  0  0  0  0
  -19.5745  -26.6385   21.5218 C   0  0  0  0  0  0
  -18.1929  -26.7926   22.1635 C   0  0  0  0  0  0
  -19.1543  -28.8851   23.2889 C   0  0  0  0  0  0
  -18.9463  -30.1457   23.8897 C   0  0  0  0  0  0
  -17.6461  -30.6584   24.0568 C   0  0  0  0  0  0
  -25.9052  -34.9462   23.5108 C   0  0  0  0  0  0
  -16.5353  -29.9083   23.6335 C   0  0  0  0  0  0
  -16.7276  -28.6502   23.0355 C   0  0  0  0  0  0
  -26.4485  -31.6597   25.0718 C   0  0  0  0  0  0
  -25.3712  -31.3736   26.1439 C   0  0  0  0  0  0
  -27.0324  -30.3024   24.6158 C   0  0  0  0  0  0
  -27.6044  -32.4329   25.7492 C   0  0  0  0  0  0
  -27.5577  -37.1811   24.8473 C   0  0  0  0  0  0
  -21.4192  -29.3038   22.3688 N   0  0  0  0  0  0
  -26.4297  -37.3785   23.9401 N   0  0  0  0  0  0
  -24.6871  -31.0625   22.0972 N   0  0  0  0  0  0
  -23.4208  -28.8160   23.3021 O   0  0  0  0  0  0
  -28.3434  -26.4727   20.1594 O   0  0  0  0  0  0
  -26.5616  -34.8929   22.4672 O   0  0  0  0  0  0
  -23.5424  -32.1415   23.7351 O   0  0  0  0  0  0
  -31.1629  -19.2852   20.2503 C   0  0  0  0  0  0
  -28.8217  -19.4112   20.7643 C   0  0  0  0  0  0
  -31.1335  -17.8616   20.3566 C   0  0  0  0  0  0
  -28.7896  -17.9852   20.8716 C   0  0  0  0  0  0
  -30.0160  -20.1041   20.4481 C   0  0  0  0  0  0
  -29.9386  -17.1642   20.6737 C   0  0  0  0  0  0
  -30.1650  -21.6712   20.3822 C   0  0  0  0  0  0
  -28.1167  -25.0111   20.0385 C   0  0  0  0  0  0
  -29.3045  -23.9944   20.3254 C   0  0  0  0  0  0
  -29.8139  -15.7088   20.8227 N   0  0  0  0  0  0
  -28.9968  -22.5497   20.2887 O   0  0  0  0  0  0
  -31.4817  -12.5193   19.1579 H   0  0  0  0  0  0
  -30.3726  -11.4030   19.9039 H   0  0  0  0  0  0
  -29.7780  -11.7510   17.4868 H   0  0  0  0  0  0
  -29.6543  -13.4731   17.7422 H   0  0  0  0  0  0
  -27.8764  -11.2903   18.8771 H   0  0  0  0  0  0
  -27.3793  -12.5641   17.7944 H   0  0  0  0  0  0
  -27.6678  -14.2512   19.5118 H   0  0  0  0  0  0
  -28.7090  -12.0646   21.3839 H   0  0  0  0  0  0
  -28.4420  -13.7236   21.8375 H   0  0  0  0  0  0
  -25.2748   -9.5688   22.4755 H   0  0  0  0  0  0
  -23.9992   -7.4635   22.7463 H   0  0  0  0  0  0
  -21.0836   -8.8767   19.8953 H   0  0  0  0  0  0
  -22.3675  -10.9670   19.6164 H   0  0  0  0  0  0
  -21.2011   -7.6142   23.9712 H   0  0  0  0  0  0
  -21.1487   -6.0515   25.9075 H   0  0  0  0  0  0
  -22.0596   -2.7602   23.2843 H   0  0  0  0  0  0
  -22.4080  -11.9904   22.4843 H   0  0  0  0  0  0
  -21.1093  -13.1264   22.2612 H   0  0  0  0  0  0
  -24.6440  -15.8330   20.4830 H   0  0  0  0  0  0
  -26.2524  -15.6203   20.0162 H   0  0  0  0  0  0
  -26.7175  -32.5460   23.1103 H   0  0  0  0  0  0
  -25.0084  -33.9739   25.0428 H   0  0  0  0  0  0
  -22.7116  -31.3044   21.4046 H   0  0  0  0  0  0
  -23.3748  -35.9629   23.3331 H   0  0  0  0  0  0
  -24.3571  -36.8877   22.2048 H   0  0  0  0  0  0
  -23.7246  -37.6504   23.6641 H   0  0  0  0  0  0
  -26.0897  -31.5560   20.6036 H   0  0  0  0  0  0
  -26.8429  -30.8429   21.9984 H   0  0  0  0  0  0
  -28.1173  -28.9897   21.1784 H   0  0  0  0  0  0
  -25.9517  -25.9357   19.0053 H   0  0  0  0  0  0
  -23.9646  -27.3117   19.0162 H   0  0  0  0  0  0
  -23.7501  -30.5973   19.4051 H   0  0  0  0  0  0
  -22.7523  -29.2489   19.8605 H   0  0  0  0  0  0
  -25.1301  -36.1947   25.0822 H   0  0  0  0  0  0
  -20.9991  -28.3253   24.1412 H   0  0  0  0  0  0
  -20.5675  -26.2298   23.3609 H   0  0  0  0  0  0
  -21.6642  -26.7433   22.1204 H   0  0  0  0  0  0
  -19.6897  -25.6298   21.1239 H   0  0  0  0  0  0
  -19.6671  -27.3204   20.6751 H   0  0  0  0  0  0
  -17.4196  -26.6693   21.4034 H   0  0  0  0  0  0
  -18.0322  -26.0062   22.9026 H   0  0  0  0  0  0
  -19.7934  -30.7284   24.2260 H   0  0  0  0  0  0
  -17.5009  -31.6265   24.5171 H   0  0  0  0  0  0
  -15.5353  -30.2981   23.7643 H   0  0  0  0  0  0
  -15.8684  -28.0813   22.7065 H   0  0  0  0  0  0
  -24.5893  -30.7078   25.7766 H   0  0  0  0  0  0
  -24.8893  -32.2904   26.4847 H   0  0  0  0  0  0
  -25.8031  -30.8925   27.0224 H   0  0  0  0  0  0
  -26.2896  -29.6786   24.1171 H   0  0  0  0  0  0
  -27.4018  -29.7265   25.4651 H   0  0  0  0  0  0
  -27.8768  -30.4318   23.9384 H   0  0  0  0  0  0
  -27.2653  -33.3632   26.2066 H   0  0  0  0  0  0
  -28.3862  -32.6884   25.0326 H   0  0  0  0  0  0
  -28.0707  -31.8453   26.5412 H   0  0  0  0  0  0
  -28.2623  -38.0081   24.7495 H   0  0  0  0  0  0
  -28.1045  -36.2614   24.6341 H   0  0  0  0  0  0
  -27.2292  -37.1511   25.8876 H   0  0  0  0  0  0
  -20.9364  -29.8763   21.6903 H   0  0  0  0  0  0
  -26.0180  -38.2864   24.1382 H   0  0  0  0  0  0
  -32.1060  -19.7615   20.0227 H   0  0  0  0  0  0
  -27.9179  -19.9777   20.9432 H   0  0  0  0  0  0
  -32.0566  -17.3200   20.2021 H   0  0  0  0  0  0
  -27.8460  -17.5195   21.1183 H   0  0  0  0  0  0
  -30.8009  -21.8883   19.5221 H   0  0  0  0  0  0
  -30.7412  -21.9668   21.2605 H   0  0  0  0  0  0
  -27.2967  -24.7460   20.7086 H   0  0  0  0  0  0
  -27.7733  -24.8006   19.0259 H   0  0  0  0  0  0
  -29.7207  -24.2188   21.3080 H   0  0  0  0  0  0
  -30.1002  -24.1986   19.6075 H   0  0  0  0  0  0
  -28.9002  -15.4012   21.1154 H   0  0  0  0  0  0
  1 25  1  0  0  0
  1 30  2  0  0  0
  1 80  1  0  0  0
  2  3  1  0  0  0
  2 25  1  0  0  0
  2 82  1  0  0  0
  2 83  1  0  0  0
  3  4  1  0  0  0
  3 84  1  0  0  0
  3 85  1  0  0  0
  4  5  1  0  0  0
  4 86  1  0  0  0
  4 87  1  0  0  0
  5  6  1  0  0  0
  5 26  1  0  0  0
  5 88  1  0  0  0
  6 25  1  0  0  0
  6 89  1  0  0  0
  6 90  1  0  0  0
  7  8  2  0  0  0
  7 26  1  0  0  0
  7 29  1  0  0  0
  8  9  1  0  0  0
  8 22  1  0  0  0
  9 10  1  0  0  0
  9 27  2  0  0  0
 10 11  2  0  0  0
 10 15  1  0  0  0
 11 12  1  0  0  0
 11 91  1  0  0  0
 12 13  2  0  0  0
 12 92  1  0  0  0
 13 14  1  0  0  0
 13 31  1  0  0  0
 14 15  2  0  0  0
 14 93  1  0  0  0
 15 94  1  0  0  0
 16 17  2  0  0  0
 16 21  1  0  0  0
 16 31  1  0  0  0
 17 18  1  0  0  0
 17 95  1  0  0  0
 18 19  2  0  0  0
 18 96  1  0  0  0
 19 20  1  0  0  0
 19 24  1  0  0  0
 20 21  2  0  0  0
 20 97  1  0  0  0
 21 23  1  0  0  0
 22 28  1  0  0  0
 22 32  2  0  0  0
 26 27  1  0  0  0
 28 98  1  0  0  0
 28 99  1  0  0  0
 29100  1  0  0  0
 29101  1  0  0  0
 33 34  1  0  0  0
 33 66  1  0  0  0
 33 70  2  0  0  0
 34 36  1  0  0  0
 34 59  1  0  0  0
 34102  1  0  0  0
 35 44  2  0  0  0
 35 45  1  0  0  0
 35 68  1  0  0  0
 36 56  1  0  0  0
 36103  1  0  0  0
 37 39  1  0  0  0
 37 47  1  0  0  0
 37 66  1  0  0  0
 37104  1  0  0  0
 38 43  2  0  0  0
 38 46  1  0  0  0
 38 47  1  0  0  0
 39 64  1  0  0  0
 39 67  2  0  0  0
 40 52  1  0  0  0
 40 53  2  0  0  0
 40 58  1  0  0  0
 41105  1  0  0  0
 41106  1  0  0  0
 41107  1  0  0  0
 41 48  1  0  0  0
 42 43  1  0  0  0
 42 66  1  0  0  0
 42108  1  0  0  0
 42109  1  0  0  0
 43 44  1  0  0  0
 44110  1  0  0  0
 45 46  2  0  0  0
 45111  1  0  0  0
 46112  1  0  0  0
 47113  1  0  0  0
 47114  1  0  0  0
 48 56  1  0  0  0
 48 65  1  0  0  0
 48115  1  0  0  0
 49 50  1  0  0  0
 49 53  1  0  0  0
 49 64  1  0  0  0
 49116  1  0  0  0
 50 51  1  0  0  0
 50117  1  0  0  0
 50118  1  0  0  0
 51 52  1  0  0  0
 51119  1  0  0  0
 51120  1  0  0  0
 52121  1  0  0  0
 52122  1  0  0  0
 53 54  1  0  0  0
 54 55  2  0  0  0
 54123  1  0  0  0
 55 57  1  0  0  0
 55124  1  0  0  0
 56 69  2  0  0  0
 57 58  2  0  0  0
 57125  1  0  0  0
 58126  1  0  0  0
 59 60  1  0  0  0
 59 61  1  0  0  0
 59 62  1  0  0  0
 60127  1  0  0  0
 60128  1  0  0  0
 60129  1  0  0  0
 61130  1  0  0  0
 61131  1  0  0  0
 61132  1  0  0  0
 62133  1  0  0  0
 62134  1  0  0  0
 62135  1  0  0  0
 63 65  1  0  0  0
 63136  1  0  0  0
 63137  1  0  0  0
 63138  1  0  0  0
 64139  1  0  0  0
 65140  1  0  0  0
 68 78  1  0  0  0
 71 73  2  0  0  0
 71 75  1  0  0  0
 71141  1  0  0  0
 72 74  1  0  0  0
 72 75  2  0  0  0
 72142  1  0  0  0
 73 76  1  0  0  0
 73143  1  0  0  0
 74 76  2  0  0  0
 74144  1  0  0  0
 75 77  1  0  0  0
 76 80  1  0  0  0
 77 81  1  0  0  0
 77145  1  0  0  0
 77146  1  0  0  0
 78 79  1  0  0  0
 78147  1  0  0  0
 78148  1  0  0  0
 79 81  1  0  0  0
 79149  1  0  0  0
 79150  1  0  0  0
 80151  1  0  0  0
M  ISO  4   1 100  68 101  78 101  80 100
M  END
> <chiral flag>
0

> <version>
0

> <s_m_source_file>
/data/baiqing/PycharmProjects/Reinvent-master-3.2/result/LINK_invent/BTK/process_docking_weight1_custom_product_contain_oxygen_bond_distance_aromatic_linkinvent_7_9_3/rearranged_h_0001.sdf

> <i_m_source_file_index>
16

> <r_mmod_Potential_Energy-OPLS-2005>
71.3989562988281

> <r_mmod_Stretch_Energy-OPLS-2005>
81.4491424560547

> <r_mmod_Bend_Energy-OPLS-2005>
139.137191772461

> <r_mmod_Torsional_Energy-OPLS-2005>
214.261306762695

> <r_mmod_Improper_Torsional_Energy-OPLS-2005>
4.55642652511597

> <r_mmod_Van_der_Waal_Energy-OPLS-2005>
145.136138916016

> <r_mmod_Electrostatic_Energy-OPLS-2005>
-354.966857910156

> <r_mmod_Solvation_Energy-OPLS-2005>
-208.114410400391

> <b_mmod_Minimization_Converged-OPLS-2005>
0

> <r_mmod_RMS_Derivative-OPLS-2005>
1.38521814346313

$$$$
16
                    3D
 Structure written by MMmdl.
150158  0  0  1  0            999 V2000
  -30.5460  -14.9701   20.4037 C   0  0  0  0  0  0
  -30.4372  -12.6016   19.4965 C   0  0  0  0  0  0
  -29.5211  -12.5322   18.2533 C   0  0  0  0  0  0
  -28.0548  -12.3149   18.6704 C   0  0  0  0  0  0
  -27.6263  -13.2510   19.8308 C   0  0  2  0  0  0
  -28.6702  -13.2974   20.9665 C   0  0  0  0  0  0
  -25.2449  -13.8218   20.5712 C   0  0  0  0  0  0
  -24.1776  -13.0438   20.9236 C   0  0  0  0  0  0
  -24.6385  -11.6923   20.8742 C   0  0  0  0  0  0
  -23.9068  -10.4290   21.0394 C   0  0  0  0  0  0
  -24.3624   -9.4213   21.9174 C   0  0  0  0  0  0
  -23.6303   -8.2243   22.0746 C   0  0  0  0  0  0
  -22.4281   -8.0277   21.3543 C   0  0  0  0  0  0
  -21.9914   -9.0243   20.4642 C   0  0  0  0  0  0
  -22.7231  -10.2127   20.3047 C   0  0  0  0  0  0
  -21.6858   -6.0738   22.5280 C   0  0  0  0  0  0
  -21.4014   -6.5641   23.8211 C   0  0  0  0  0  0
  -21.3662   -5.6789   24.9177 C   0  0  0  0  0  0
  -21.6051   -4.3053   24.7229 C   0  0  0  0  0  0
  -21.8818   -3.8147   23.4342 C   0  0  0  0  0  0
  -21.9195   -4.6963   22.3403 C   0  0  0  0  0  0
  -22.7791  -13.5213   21.1884 C   0  0  0  0  0  0
  -22.1668   -4.2151   21.0978 F   0  0  0  0  0  0
  -21.5630   -3.4532   25.7736 F   0  0  0  0  0  0
  -29.9436  -13.7112   20.3618 N   0  0  0  0  0  0
  -26.2870  -12.9454   20.3217 N   0  0  0  0  0  0
  -25.9319  -11.6581   20.5719 N   0  0  0  0  0  0
  -22.0439  -12.8203   22.0435 N   0  0  0  0  0  0
  -25.4098  -15.1953   20.4132 N   0  0  0  0  0  0
  -31.7560  -15.0185   20.1592 O   0  0  0  0  0  0
  -21.6646   -6.8876   21.4241 O   0  0  0  0  0  0
  -22.3475  -14.5513   20.6715 O   0  0  0  0  0  0
  -24.6466  -31.8423   23.1865 C   0  0  0  0  0  0
  -25.9220  -32.4688   23.8267 C   0  0  1  0  0  0
  -27.2221  -27.1172   20.1416 C   0  0  0  0  0  0
  -25.5959  -33.8495   24.2187 N   0  0  0  0  0  0
  -23.4525  -30.4617   21.5328 C   0  0  2  0  0  0
  -24.9041  -28.8883   20.1085 C   0  0  0  0  0  0
  -22.7594  -29.4536   22.4847 C   0  0  0  0  0  0
  -18.0312  -28.1406   22.8482 C   0  0  0  0  0  0
  -24.1493  -36.7255   23.2644 C   0  0  0  0  0  0
  -26.0115  -30.7094   21.3899 C   0  0  0  0  0  0
  -26.0833  -29.3192   20.7293 C   0  0  0  0  0  0
  -27.2428  -28.4500   20.7299 C   0  0  0  0  0  0
  -26.0144  -26.7985   19.4798 C   0  0  0  0  0  0
  -24.8840  -27.6417   19.4684 C   0  0  0  0  0  0
  -23.6811  -29.7917   20.1524 C   0  0  0  0  0  0
  -25.4127  -36.3033   24.0316 C   0  0  1  0  0  0
  -20.5927  -28.3734   23.1237 C   0  0  2  0  0  0
  -20.6801  -26.9430   22.5413 C   0  0  0  0  0  0
  -19.5764  -26.6382   21.5232 C   0  0  0  0  0  0
  -18.1944  -26.7945   22.1636 C   0  0  0  0  0  0
  -19.1568  -28.8888   23.2854 C   0  0  0  0  0  0
  -18.9477  -30.1484   23.8879 C   0  0  0  0  0  0
  -17.6470  -30.6598   24.0564 C   0  0  0  0  0  0
  -25.9067  -34.9405   23.5058 C   0  0  0  0  0  0
  -16.5365  -29.9091   23.6336 C   0  0  0  0  0  0
  -16.7297  -28.6515   23.0353 C   0  0  0  0  0  0
  -26.4527  -31.6568   25.0720 C   0  0  0  0  0  0
  -25.3697  -31.3767   26.1402 C   0  0  0  0  0  0
  -27.0401  -30.2966   24.6324 C   0  0  0  0  0  0
  -27.6053  -32.4342   25.7510 C   0  0  0  0  0  0
  -27.5571  -37.1798   24.8471 C   0  0  0  0  0  0
  -21.4279  -29.3054   22.3603 N   0  0  0  0  0  0
  -26.4298  -37.3741   23.9388 N   0  0  0  0  0  0
  -24.7234  -31.0254   22.0913 N   0  0  0  0  0  0
  -23.4225  -28.8074   23.2999 O   0  0  0  0  0  0
  -28.2595  -26.1048   20.2090 O   0  0  0  0  0  0
  -26.5646  -34.8908   22.4633 O   0  0  0  0  0  0
  -23.5576  -32.1303   23.7066 O   0  0  0  0  0  0
  -31.1897  -22.4020   20.6375 C   0  0  0  0  0  0
  -30.7966  -21.0396   20.5690 C   0  0  0  0  0  0
  -30.2862  -23.4836   20.4762 C   0  0  0  0  0  0
  -28.5473  -21.8249   20.1676 C   0  0  0  0  0  0
  -29.4590  -20.6538   20.3362 C   0  0  0  0  0  0
  -28.9148  -23.2730   20.2313 C   0  0  0  0  0  0
  -29.0914  -19.0299   20.2918 C   0  0  0  0  0  0
  -27.9281  -24.5861   19.9987 C   0  0  0  0  0  0
  -30.1642  -17.7178   20.4560 C   0  0  0  0  0  0
  -29.7803  -16.1711   20.5071 N   0  0  0  0  0  0
  -31.4711  -12.7565   19.1857 H   0  0  0  0  0  0
  -30.4287  -11.6547   20.0390 H   0  0  0  0  0  0
  -29.8456  -11.7321   17.5864 H   0  0  0  0  0  0
  -29.6055  -13.4604   17.6856 H   0  0  0  0  0  0
  -27.9541  -11.2741   18.9794 H   0  0  0  0  0  0
  -27.3913  -12.4444   17.8137 H   0  0  0  0  0  0
  -27.5826  -14.2492   19.3945 H   0  0  0  0  0  0
  -28.7619  -12.3275   21.4575 H   0  0  0  0  0  0
  -28.3663  -14.0088   21.7355 H   0  0  0  0  0  0
  -25.2764   -9.5709   22.4751 H   0  0  0  0  0  0
  -24.0024   -7.4643   22.7458 H   0  0  0  0  0  0
  -21.0851   -8.8749   19.8947 H   0  0  0  0  0  0
  -22.3674  -10.9664   19.6162 H   0  0  0  0  0  0
  -21.2000   -7.6146   23.9717 H   0  0  0  0  0  0
  -21.1491   -6.0522   25.9082 H   0  0  0  0  0  0
  -22.0593   -2.7608   23.2841 H   0  0  0  0  0  0
  -22.4083  -11.9902   22.4868 H   0  0  0  0  0  0
  -21.1043  -13.1200   22.2602 H   0  0  0  0  0  0
  -24.6323  -15.8393   20.5156 H   0  0  0  0  0  0
  -26.2451  -15.6379   20.0520 H   0  0  0  0  0  0
  -26.7293  -32.5302   23.1004 H   0  0  0  0  0  0
  -25.0109  -33.9606   25.0338 H   0  0  0  0  0  0
  -22.7567  -31.2886   21.3763 H   0  0  0  0  0  0
  -23.3747  -35.9597   23.3334 H   0  0  0  0  0  0
  -24.3567  -36.8854   22.2050 H   0  0  0  0  0  0
  -23.7267  -37.6472   23.6661 H   0  0  0  0  0  0
  -26.1681  -31.4636   20.6173 H   0  0  0  0  0  0
  -26.8814  -30.7611   22.0330 H   0  0  0  0  0  0
  -28.1394  -28.7734   21.2402 H   0  0  0  0  0  0
  -25.9039  -25.8498   18.9788 H   0  0  0  0  0  0
  -23.9859  -27.3072   18.9674 H   0  0  0  0  0  0
  -23.8187  -30.5661   19.3971 H   0  0  0  0  0  0
  -22.7968  -29.2334   19.8409 H   0  0  0  0  0  0
  -25.1322  -36.1866   25.0812 H   0  0  0  0  0  0
  -21.0027  -28.3327   24.1356 H   0  0  0  0  0  0
  -20.5716  -26.2339   23.3634 H   0  0  0  0  0  0
  -21.6660  -26.7443   22.1186 H   0  0  0  0  0  0
  -19.6914  -25.6286   21.1275 H   0  0  0  0  0  0
  -19.6698  -27.3189   20.6759 H   0  0  0  0  0  0
  -17.4215  -26.6704   21.4039 H   0  0  0  0  0  0
  -18.0324  -26.0102   22.9043 H   0  0  0  0  0  0
  -19.7948  -30.7317   24.2239 H   0  0  0  0  0  0
  -17.5015  -31.6273   24.5172 H   0  0  0  0  0  0
  -15.5361  -30.2979   23.7672 H   0  0  0  0  0  0
  -15.8702  -28.0831   22.7065 H   0  0  0  0  0  0
  -24.5884  -30.7113   25.7714 H   0  0  0  0  0  0
  -24.8875  -32.2950   26.4762 H   0  0  0  0  0  0
  -25.7957  -30.8977   27.0224 H   0  0  0  0  0  0
  -26.3034  -29.6680   24.1312 H   0  0  0  0  0  0
  -27.3986  -29.7278   25.4911 H   0  0  0  0  0  0
  -27.8948  -30.4199   23.9671 H   0  0  0  0  0  0
  -27.2641  -33.3659   26.2036 H   0  0  0  0  0  0
  -28.3889  -32.6875   25.0358 H   0  0  0  0  0  0
  -28.0694  -31.8502   26.5467 H   0  0  0  0  0  0
  -28.2611  -38.0069   24.7463 H   0  0  0  0  0  0
  -28.1041  -36.2595   24.6373 H   0  0  0  0  0  0
  -27.2273  -37.1538   25.8872 H   0  0  0  0  0  0
  -20.9491  -29.8773   21.6784 H   0  0  0  0  0  0
  -26.0163  -38.2817   24.1360 H   0  0  0  0  0  0
  -32.2319  -22.6285   20.8177 H   0  0  0  0  0  0
  -31.5520  -20.2777   20.7021 H   0  0  0  0  0  0
  -30.6617  -24.4961   20.5334 H   0  0  0  0  0  0
  -27.5079  -21.6015   19.9724 H   0  0  0  0  0  0
  -28.5610  -18.8836   19.3492 H   0  0  0  0  0  0
  -28.3250  -18.9001   21.0557 H   0  0  0  0  0  0
  -27.0298  -24.3767   20.5804 H   0  0  0  0  0  0
  -27.6269  -24.4961   18.9545 H   0  0  0  0  0  0
  -30.7189  -17.8922   21.3784 H   0  0  0  0  0  0
  -30.9096  -17.8126   19.6655 H   0  0  0  0  0  0
  -28.7958  -15.9982   20.6416 H   0  0  0  0  0  0
  1 25  1  0  0  0
  1 30  2  0  0  0
  1 80  1  0  0  0
  2  3  1  0  0  0
  2 25  1  0  0  0
  2 81  1  0  0  0
  2 82  1  0  0  0
  3  4  1  0  0  0
  3 83  1  0  0  0
  3 84  1  0  0  0
  4  5  1  0  0  0
  4 85  1  0  0  0
  4 86  1  0  0  0
  5  6  1  0  0  0
  5 26  1  0  0  0
  5 87  1  0  0  0
  6 25  1  0  0  0
  6 88  1  0  0  0
  6 89  1  0  0  0
  7  8  2  0  0  0
  7 26  1  0  0  0
  7 29  1  0  0  0
  8  9  1  0  0  0
  8 22  1  0  0  0
  9 10  1  0  0  0
  9 27  2  0  0  0
 10 11  2  0  0  0
 10 15  1  0  0  0
 11 12  1  0  0  0
 11 90  1  0  0  0
 12 13  2  0  0  0
 12 91  1  0  0  0
 13 14  1  0  0  0
 13 31  1  0  0  0
 14 15  2  0  0  0
 14 92  1  0  0  0
 15 93  1  0  0  0
 16 17  2  0  0  0
 16 21  1  0  0  0
 16 31  1  0  0  0
 17 18  1  0  0  0
 17 94  1  0  0  0
 18 19  2  0  0  0
 18 95  1  0  0  0
 19 20  1  0  0  0
 19 24  1  0  0  0
 20 21  2  0  0  0
 20 96  1  0  0  0
 21 23  1  0  0  0
 22 28  1  0  0  0
 22 32  2  0  0  0
 26 27  1  0  0  0
 28 97  1  0  0  0
 28 98  1  0  0  0
 29 99  1  0  0  0
 29100  1  0  0  0
 33 34  1  0  0  0
 33 66  1  0  0  0
 33 70  2  0  0  0
 34 36  1  0  0  0
 34 59  1  0  0  0
 34101  1  0  0  0
 35 44  2  0  0  0
 35 45  1  0  0  0
 35 68  1  0  0  0
 36 56  1  0  0  0
 36102  1  0  0  0
 37 39  1  0  0  0
 37 47  1  0  0  0
 37 66  1  0  0  0
 37103  1  0  0  0
 38 43  2  0  0  0
 38 46  1  0  0  0
 38 47  1  0  0  0
 39 64  1  0  0  0
 39 67  2  0  0  0
 40 52  1  0  0  0
 40 53  2  0  0  0
 40 58  1  0  0  0
 41104  1  0  0  0
 41105  1  0  0  0
 41106  1  0  0  0
 41 48  1  0  0  0
 42 43  1  0  0  0
 42 66  1  0  0  0
 42107  1  0  0  0
 42108  1  0  0  0
 43 44  1  0  0  0
 44109  1  0  0  0
 45 46  2  0  0  0
 45110  1  0  0  0
 46111  1  0  0  0
 47112  1  0  0  0
 47113  1  0  0  0
 48 56  1  0  0  0
 48 65  1  0  0  0
 48114  1  0  0  0
 49 50  1  0  0  0
 49 53  1  0  0  0
 49 64  1  0  0  0
 49115  1  0  0  0
 50 51  1  0  0  0
 50116  1  0  0  0
 50117  1  0  0  0
 51 52  1  0  0  0
 51118  1  0  0  0
 51119  1  0  0  0
 52120  1  0  0  0
 52121  1  0  0  0
 53 54  1  0  0  0
 54 55  2  0  0  0
 54122  1  0  0  0
 55 57  1  0  0  0
 55123  1  0  0  0
 56 69  2  0  0  0
 57 58  2  0  0  0
 57124  1  0  0  0
 58125  1  0  0  0
 59 60  1  0  0  0
 59 61  1  0  0  0
 59 62  1  0  0  0
 60126  1  0  0  0
 60127  1  0  0  0
 60128  1  0  0  0
 61129  1  0  0  0
 61130  1  0  0  0
 61131  1  0  0  0
 62132  1  0  0  0
 62133  1  0  0  0
 62134  1  0  0  0
 63 65  1  0  0  0
 63135  1  0  0  0
 63136  1  0  0  0
 63137  1  0  0  0
 64138  1  0  0  0
 65139  1  0  0  0
 68 78  1  0  0  0
 71 72  2  0  0  0
 71 73  1  0  0  0
 71140  1  0  0  0
 72 75  1  0  0  0
 72141  1  0  0  0
 73 76  2  0  0  0
 73142  1  0  0  0
 74 75  2  0  0  0
 74 76  1  0  0  0
 74143  1  0  0  0
 75 77  1  0  0  0
 76 78  1  0  0  0
 77 79  1  0  0  0
 77144  1  0  0  0
 77145  1  0  0  0
 78146  1  0  0  0
 78147  1  0  0  0
 79 80  1  0  0  0
 79148  1  0  0  0
 79149  1  0  0  0
 80150  1  0  0  0
M  ISO  4   1 100  68 101  78 101  80 100
M  END
> <chiral flag>
0

> <version>
0

> <s_m_source_file>
/data/baiqing/PycharmProjects/Reinvent-master-3.2/result/LINK_invent/BTK/process_docking_weight1_custom_product_contain_oxygen_bond_distance_aromatic_linkinvent_7_9_3/rearranged_h_0001.sdf

> <i_m_source_file_index>
17

> <r_mmod_Potential_Energy-OPLS-2005>
507.22900390625

> <r_mmod_Stretch_Energy-OPLS-2005>
280.159545898438

> <r_mmod_Bend_Energy-OPLS-2005>
243.34814453125

> <r_mmod_Torsional_Energy-OPLS-2005>
207.110687255859

> <r_mmod_Improper_Torsional_Energy-OPLS-2005>
4.54697227478027

> <r_mmod_Van_der_Waal_Energy-OPLS-2005>
128.955444335938

> <r_mmod_Electrostatic_Energy-OPLS-2005>
-353.888549804688

> <r_mmod_Solvation_Energy-OPLS-2005>
-214.245193481445

> <b_mmod_Minimization_Converged-OPLS-2005>
0

> <r_mmod_RMS_Derivative-OPLS-2005>
1.37686288356781

$$$$
17
                    3D
 Structure written by MMmdl.
149157  0  0  1  0            999 V2000
  -30.5146  -14.8970   20.4391 C   0  0  0  0  0  0
  -30.4552  -12.5516   19.4882 C   0  0  0  0  0  0
  -29.5258  -12.5307   18.2503 C   0  0  0  0  0  0
  -28.0549  -12.3233   18.6638 C   0  0  0  0  0  0
  -27.6402  -13.2347   19.8478 C   0  0  2  0  0  0
  -28.6849  -13.2020   20.9851 C   0  0  0  0  0  0
  -25.2507  -13.8183   20.5687 C   0  0  0  0  0  0
  -24.1808  -13.0432   20.9226 C   0  0  0  0  0  0
  -24.6401  -11.6911   20.8754 C   0  0  0  0  0  0
  -23.9075  -10.4289   21.0411 C   0  0  0  0  0  0
  -24.3623   -9.4203   21.9187 C   0  0  0  0  0  0
  -23.6294   -8.2241   22.0755 C   0  0  0  0  0  0
  -22.4276   -8.0282   21.3546 C   0  0  0  0  0  0
  -21.9915   -9.0257   20.4649 C   0  0  0  0  0  0
  -22.7247  -10.2135   20.3059 C   0  0  0  0  0  0
  -21.6853   -6.0735   22.5279 C   0  0  0  0  0  0
  -21.4014   -6.5639   23.8213 C   0  0  0  0  0  0
  -21.3660   -5.6792   24.9174 C   0  0  0  0  0  0
  -21.6043   -4.3054   24.7225 C   0  0  0  0  0  0
  -21.8819   -3.8147   23.4346 C   0  0  0  0  0  0
  -21.9192   -4.6963   22.3402 C   0  0  0  0  0  0
  -22.7828  -13.5218   21.1878 C   0  0  0  0  0  0
  -22.1661   -4.2149   21.0980 F   0  0  0  0  0  0
  -21.5629   -3.4538   25.7738 F   0  0  0  0  0  0
  -29.9715  -13.6175   20.4055 N   0  0  0  0  0  0
  -26.2931  -12.9392   20.3252 N   0  0  0  0  0  0
  -25.9331  -11.6536   20.5737 N   0  0  0  0  0  0
  -22.0468  -12.8211   22.0432 N   0  0  0  0  0  0
  -25.4175  -15.1904   20.4053 N   0  0  0  0  0  0
  -31.7003  -15.0433   20.1203 O   0  0  0  0  0  0
  -21.6639   -6.8879   21.4241 O   0  0  0  0  0  0
  -22.3517  -14.5522   20.6717 O   0  0  0  0  0  0
  -24.6418  -31.8461   23.1900 C   0  0  0  0  0  0
  -25.9198  -32.4706   23.8284 C   0  0  1  0  0  0
  -27.2215  -27.1597   20.1448 C   0  0  0  0  0  0
  -25.5952  -33.8511   24.2202 N   0  0  0  0  0  0
  -23.4442  -30.4665   21.5354 C   0  0  2  0  0  0
  -24.8938  -28.8978   20.1109 C   0  0  0  0  0  0
  -22.7558  -29.4559   22.4868 C   0  0  0  0  0  0
  -18.0304  -28.1393   22.8479 C   0  0  0  0  0  0
  -24.1491  -36.7261   23.2642 C   0  0  0  0  0  0
  -25.9991  -30.7276   21.3852 C   0  0  0  0  0  0
  -26.0714  -29.3413   20.7262 C   0  0  0  0  0  0
  -27.2366  -28.4889   20.7252 C   0  0  0  0  0  0
  -26.0150  -26.8126   19.4950 C   0  0  0  0  0  0
  -24.8774  -27.6458   19.4806 C   0  0  0  0  0  0
  -23.6694  -29.7971   20.1543 C   0  0  0  0  0  0
  -25.4122  -36.3039   24.0317 C   0  0  1  0  0  0
  -20.5915  -28.3719   23.1239 C   0  0  2  0  0  0
  -20.6788  -26.9424   22.5403 C   0  0  0  0  0  0
  -19.5761  -26.6381   21.5211 C   0  0  0  0  0  0
  -18.1943  -26.7932   22.1625 C   0  0  0  0  0  0
  -19.1560  -28.8874   23.2852 C   0  0  0  0  0  0
  -18.9476  -30.1470   23.8878 C   0  0  0  0  0  0
  -17.6473  -30.6590   24.0559 C   0  0  0  0  0  0
  -25.9071  -34.9413   23.5067 C   0  0  0  0  0  0
  -16.5364  -29.9083   23.6334 C   0  0  0  0  0  0
  -16.7289  -28.6501   23.0356 C   0  0  0  0  0  0
  -26.4524  -31.6567   25.0718 C   0  0  0  0  0  0
  -25.3713  -31.3748   26.1414 C   0  0  0  0  0  0
  -27.0389  -30.2967   24.6285 C   0  0  0  0  0  0
  -27.6055  -32.4330   25.7504 C   0  0  0  0  0  0
  -27.5576  -37.1788   24.8466 C   0  0  0  0  0  0
  -21.4253  -29.3049   22.3614 N   0  0  0  0  0  0
  -26.4288  -37.3749   23.9407 N   0  0  0  0  0  0
  -24.7148  -31.0338   22.0923 N   0  0  0  0  0  0
  -23.4209  -28.8104   23.3009 O   0  0  0  0  0  0
  -28.2835  -26.1892   20.2094 O   0  0  0  0  0  0
  -26.5654  -34.8907   22.4644 O   0  0  0  0  0  0
  -23.5542  -32.1327   23.7132 O   0  0  0  0  0  0
  -28.2366  -18.0817   20.7183 C   0  0  0  0  0  0
  -30.5202  -18.5072   20.3130 C   0  0  0  0  0  0
  -27.9516  -19.4917   20.6393 C   0  0  0  0  0  0
  -30.2296  -19.9455   20.2477 C   0  0  0  0  0  0
  -29.5263  -17.4891   20.5531 C   0  0  0  0  0  0
  -28.9146  -20.5197   20.4005 C   0  0  0  0  0  0
  -29.0141  -23.3595   20.3275 C   0  0  0  0  0  0
  -27.9882  -24.6721   20.1002 C   0  0  0  0  0  0
  -29.6283  -15.9693   20.6755 N   0  0  0  0  0  0
  -28.4323  -21.9218   20.3165 N   0  0  0  0  0  0
  -31.4870  -12.7245   19.1781 H   0  0  0  0  0  0
  -30.4529  -11.5836   19.9914 H   0  0  0  0  0  0
  -29.8345  -11.7459   17.5584 H   0  0  0  0  0  0
  -29.6220  -13.4719   17.7066 H   0  0  0  0  0  0
  -27.9371  -11.2769   18.9476 H   0  0  0  0  0  0
  -27.3945  -12.4832   17.8106 H   0  0  0  0  0  0
  -27.6204  -14.2483   19.4471 H   0  0  0  0  0  0
  -28.7581  -12.2031   21.4177 H   0  0  0  0  0  0
  -28.3907  -13.8636   21.8015 H   0  0  0  0  0  0
  -25.2767   -9.5678   22.4764 H   0  0  0  0  0  0
  -24.0002   -7.4631   22.7473 H   0  0  0  0  0  0
  -21.0846   -8.8778   19.8954 H   0  0  0  0  0  0
  -22.3707  -10.9675   19.6169 H   0  0  0  0  0  0
  -21.2007   -7.6147   23.9716 H   0  0  0  0  0  0
  -21.1482   -6.0522   25.9077 H   0  0  0  0  0  0
  -22.0598   -2.7609   23.2845 H   0  0  0  0  0  0
  -22.4085  -11.9877   22.4826 H   0  0  0  0  0  0
  -21.1084  -13.1235   22.2631 H   0  0  0  0  0  0
  -24.6349  -15.8303   20.4887 H   0  0  0  0  0  0
  -26.2295  -15.6146   19.9775 H   0  0  0  0  0  0
  -26.7265  -32.5321   23.1016 H   0  0  0  0  0  0
  -25.0078  -33.9628   25.0335 H   0  0  0  0  0  0
  -22.7459  -31.2919   21.3824 H   0  0  0  0  0  0
  -23.3756  -35.9590   23.3296 H   0  0  0  0  0  0
  -24.3578  -36.8900   22.2058 H   0  0  0  0  0  0
  -23.7245  -37.6455   23.6682 H   0  0  0  0  0  0
  -26.1521  -31.4836   20.6138 H   0  0  0  0  0  0
  -26.8706  -30.7772   22.0264 H   0  0  0  0  0  0
  -28.1343  -28.8249   21.2250 H   0  0  0  0  0  0
  -25.9116  -25.8577   19.0039 H   0  0  0  0  0  0
  -23.9784  -27.3007   18.9886 H   0  0  0  0  0  0
  -23.8040  -30.5720   19.3988 H   0  0  0  0  0  0
  -22.7849  -29.2378   19.8444 H   0  0  0  0  0  0
  -25.1309  -36.1870   25.0810 H   0  0  0  0  0  0
  -21.0009  -28.3307   24.1359 H   0  0  0  0  0  0
  -20.5681  -26.2332   23.3621 H   0  0  0  0  0  0
  -21.6654  -26.7430   22.1202 H   0  0  0  0  0  0
  -19.6922  -25.6286   21.1255 H   0  0  0  0  0  0
  -19.6696  -27.3179   20.6731 H   0  0  0  0  0  0
  -17.4210  -26.6675   21.4030 H   0  0  0  0  0  0
  -18.0345  -26.0079   22.9027 H   0  0  0  0  0  0
  -19.7952  -30.7291   24.2239 H   0  0  0  0  0  0
  -17.5025  -31.6268   24.5164 H   0  0  0  0  0  0
  -15.5364  -30.2978   23.7667 H   0  0  0  0  0  0
  -15.8690  -28.0811   22.7084 H   0  0  0  0  0  0
  -24.5901  -30.7086   25.7736 H   0  0  0  0  0  0
  -24.8891  -32.2927   26.4787 H   0  0  0  0  0  0
  -25.8001  -30.8958   27.0225 H   0  0  0  0  0  0
  -26.3004  -29.6690   24.1283 H   0  0  0  0  0  0
  -27.4003  -29.7262   25.4851 H   0  0  0  0  0  0
  -27.8911  -30.4209   23.9599 H   0  0  0  0  0  0
  -27.2648  -33.3646   26.2033 H   0  0  0  0  0  0
  -28.3894  -32.6864   25.0354 H   0  0  0  0  0  0
  -28.0693  -31.8488   26.5463 H   0  0  0  0  0  0
  -28.2588  -38.0089   24.7508 H   0  0  0  0  0  0
  -28.1076  -36.2618   24.6298 H   0  0  0  0  0  0
  -27.2293  -37.1442   25.8869 H   0  0  0  0  0  0
  -20.9458  -29.8765   21.6799 H   0  0  0  0  0  0
  -26.0156  -38.2819   24.1405 H   0  0  0  0  0  0
  -27.3971  -17.4306   20.9148 H   0  0  0  0  0  0
  -31.5454  -18.1939   20.1758 H   0  0  0  0  0  0
  -26.9191  -19.7814   20.7746 H   0  0  0  0  0  0
  -31.0561  -20.6149   20.0569 H   0  0  0  0  0  0
  -29.5153  -23.4908   21.2874 H   0  0  0  0  0  0
  -29.8051  -23.4065   19.5781 H   0  0  0  0  0  0
  -27.1462  -24.5051   20.7732 H   0  0  0  0  0  0
  -27.5883  -24.5250   19.0974 H   0  0  0  0  0  0
  -28.7396  -15.5694   20.9336 H   0  0  0  0  0  0
  -27.4167  -21.9648   20.3636 H   0  0  0  0  0  0
  1 25  1  0  0  0
  1 30  2  0  0  0
  1 79  1  0  0  0
  2  3  1  0  0  0
  2 25  1  0  0  0
  2 81  1  0  0  0
  2 82  1  0  0  0
  3  4  1  0  0  0
  3 83  1  0  0  0
  3 84  1  0  0  0
  4  5  1  0  0  0
  4 85  1  0  0  0
  4 86  1  0  0  0
  5  6  1  0  0  0
  5 26  1  0  0  0
  5 87  1  0  0  0
  6 25  1  0  0  0
  6 88  1  0  0  0
  6 89  1  0  0  0
  7  8  2  0  0  0
  7 26  1  0  0  0
  7 29  1  0  0  0
  8  9  1  0  0  0
  8 22  1  0  0  0
  9 10  1  0  0  0
  9 27  2  0  0  0
 10 11  2  0  0  0
 10 15  1  0  0  0
 11 12  1  0  0  0
 11 90  1  0  0  0
 12 13  2  0  0  0
 12 91  1  0  0  0
 13 14  1  0  0  0
 13 31  1  0  0  0
 14 15  2  0  0  0
 14 92  1  0  0  0
 15 93  1  0  0  0
 16 17  2  0  0  0
 16 21  1  0  0  0
 16 31  1  0  0  0
 17 18  1  0  0  0
 17 94  1  0  0  0
 18 19  2  0  0  0
 18 95  1  0  0  0
 19 20  1  0  0  0
 19 24  1  0  0  0
 20 21  2  0  0  0
 20 96  1  0  0  0
 21 23  1  0  0  0
 22 28  1  0  0  0
 22 32  2  0  0  0
 26 27  1  0  0  0
 28 97  1  0  0  0
 28 98  1  0  0  0
 29 99  1  0  0  0
 29100  1  0  0  0
 33 34  1  0  0  0
 33 66  1  0  0  0
 33 70  2  0  0  0
 34 36  1  0  0  0
 34 59  1  0  0  0
 34101  1  0  0  0
 35 44  2  0  0  0
 35 45  1  0  0  0
 35 68  1  0  0  0
 36 56  1  0  0  0
 36102  1  0  0  0
 37 39  1  0  0  0
 37 47  1  0  0  0
 37 66  1  0  0  0
 37103  1  0  0  0
 38 43  2  0  0  0
 38 46  1  0  0  0
 38 47  1  0  0  0
 39 64  1  0  0  0
 39 67  2  0  0  0
 40 52  1  0  0  0
 40 53  2  0  0  0
 40 58  1  0  0  0
 41104  1  0  0  0
 41105  1  0  0  0
 41106  1  0  0  0
 41 48  1  0  0  0
 42 43  1  0  0  0
 42 66  1  0  0  0
 42107  1  0  0  0
 42108  1  0  0  0
 43 44  1  0  0  0
 44109  1  0  0  0
 45 46  2  0  0  0
 45110  1  0  0  0
 46111  1  0  0  0
 47112  1  0  0  0
 47113  1  0  0  0
 48 56  1  0  0  0
 48 65  1  0  0  0
 48114  1  0  0  0
 49 50  1  0  0  0
 49 53  1  0  0  0
 49 64  1  0  0  0
 49115  1  0  0  0
 50 51  1  0  0  0
 50116  1  0  0  0
 50117  1  0  0  0
 51 52  1  0  0  0
 51118  1  0  0  0
 51119  1  0  0  0
 52120  1  0  0  0
 52121  1  0  0  0
 53 54  1  0  0  0
 54 55  2  0  0  0
 54122  1  0  0  0
 55 57  1  0  0  0
 55123  1  0  0  0
 56 69  2  0  0  0
 57 58  2  0  0  0
 57124  1  0  0  0
 58125  1  0  0  0
 59 60  1  0  0  0
 59 61  1  0  0  0
 59 62  1  0  0  0
 60126  1  0  0  0
 60127  1  0  0  0
 60128  1  0  0  0
 61129  1  0  0  0
 61130  1  0  0  0
 61131  1  0  0  0
 62132  1  0  0  0
 62133  1  0  0  0
 62134  1  0  0  0
 63 65  1  0  0  0
 63135  1  0  0  0
 63136  1  0  0  0
 63137  1  0  0  0
 64138  1  0  0  0
 65139  1  0  0  0
 68 78  1  0  0  0
 71 73  2  0  0  0
 71 75  1  0  0  0
 71140  1  0  0  0
 72 74  1  0  0  0
 72 75  2  0  0  0
 72141  1  0  0  0
 73 76  1  0  0  0
 73142  1  0  0  0
 74 76  2  0  0  0
 74143  1  0  0  0
 75 79  1  0  0  0
 76 80  1  0  0  0
 77 78  1  0  0  0
 77 80  1  0  0  0
 77144  1  0  0  0
 77145  1  0  0  0
 78146  1  0  0  0
 78147  1  0  0  0
 79148  1  0  0  0
 80149  1  0  0  0
M  ISO  4   1 100  68 101  78 101  79 100
M  END
> <chiral flag>
0

> <version>
0

> <s_m_source_file>
/data/baiqing/PycharmProjects/Reinvent-master-3.2/result/LINK_invent/BTK/process_docking_weight1_custom_product_contain_oxygen_bond_distance_aromatic_linkinvent_7_9_3/rearranged_h_0001.sdf

> <i_m_source_file_index>
18

> <r_mmod_Potential_Energy-OPLS-2005>
390.738555908203

> <r_mmod_Stretch_Energy-OPLS-2005>
202.600051879883

> <r_mmod_Bend_Energy-OPLS-2005>
288.785308837891

> <r_mmod_Torsional_Energy-OPLS-2005>
203.258590698242

> <r_mmod_Improper_Torsional_Energy-OPLS-2005>
4.59908533096313

> <r_mmod_Van_der_Waal_Energy-OPLS-2005>
131.553817749023

> <r_mmod_Electrostatic_Energy-OPLS-2005>
-379.286437988281

> <r_mmod_Solvation_Energy-OPLS-2005>
-225.920135498047

> <b_mmod_Minimization_Converged-OPLS-2005>
0

> <r_mmod_RMS_Derivative-OPLS-2005>
0.165144622325897

$$$$
18
                    3D
 Structure written by MMmdl.
151159  0  0  1  0            999 V2000
  -30.5078  -14.9126   20.4291 C   0  0  0  0  0  0
  -30.4550  -12.5587   19.4895 C   0  0  0  0  0  0
  -29.5261  -12.5209   18.2514 C   0  0  0  0  0  0
  -28.0560  -12.3143   18.6676 C   0  0  0  0  0  0
  -27.6385  -13.2339   19.8443 C   0  0  2  0  0  0
  -28.6832  -13.2117   20.9817 C   0  0  0  0  0  0
  -25.2504  -13.8178   20.5680 C   0  0  0  0  0  0
  -24.1805  -13.0432   20.9232 C   0  0  0  0  0  0
  -24.6397  -11.6909   20.8754 C   0  0  0  0  0  0
  -23.9069  -10.4289   21.0410 C   0  0  0  0  0  0
  -24.3618   -9.4202   21.9185 C   0  0  0  0  0  0
  -23.6291   -8.2238   22.0752 C   0  0  0  0  0  0
  -22.4272   -8.0280   21.3545 C   0  0  0  0  0  0
  -21.9911   -9.0256   20.4649 C   0  0  0  0  0  0
  -22.7242  -10.2134   20.3059 C   0  0  0  0  0  0
  -21.6853   -6.0731   22.5275 C   0  0  0  0  0  0
  -21.4014   -6.5634   23.8207 C   0  0  0  0  0  0
  -21.3658   -5.6789   24.9171 C   0  0  0  0  0  0
  -21.6044   -4.3052   24.7224 C   0  0  0  0  0  0
  -21.8819   -3.8144   23.4345 C   0  0  0  0  0  0
  -21.9194   -4.6960   22.3400 C   0  0  0  0  0  0
  -22.7824  -13.5217   21.1882 C   0  0  0  0  0  0
  -22.1664   -4.2145   21.0978 F   0  0  0  0  0  0
  -21.5629   -3.4537   25.7739 F   0  0  0  0  0  0
  -29.9671  -13.6310   20.3983 N   0  0  0  0  0  0
  -26.2922  -12.9384   20.3237 N   0  0  0  0  0  0
  -25.9326  -11.6531   20.5734 N   0  0  0  0  0  0
  -22.0469  -12.8210   22.0440 N   0  0  0  0  0  0
  -25.4173  -15.1893   20.4013 N   0  0  0  0  0  0
  -31.6973  -15.0557   20.1216 O   0  0  0  0  0  0
  -21.6637   -6.8877   21.4239 O   0  0  0  0  0  0
  -22.3513  -14.5519   20.6718 O   0  0  0  0  0  0
  -24.6426  -31.8461   23.1891 C   0  0  0  0  0  0
  -25.9206  -32.4703   23.8274 C   0  0  1  0  0  0
  -27.2217  -27.1522   20.1441 C   0  0  0  0  0  0
  -25.5958  -33.8509   24.2198 N   0  0  0  0  0  0
  -23.4448  -30.4656   21.5351 C   0  0  2  0  0  0
  -24.8940  -28.8959   20.1101 C   0  0  0  0  0  0
  -22.7564  -29.4556   22.4872 C   0  0  0  0  0  0
  -18.0311  -28.1402   22.8470 C   0  0  0  0  0  0
  -24.1489  -36.7247   23.2641 C   0  0  0  0  0  0
  -26.0000  -30.7242   21.3855 C   0  0  0  0  0  0
  -26.0722  -29.3376   20.7257 C   0  0  0  0  0  0
  -27.2368  -28.4832   20.7235 C   0  0  0  0  0  0
  -26.0132  -26.8081   19.4961 C   0  0  0  0  0  0
  -24.8773  -27.6437   19.4800 C   0  0  0  0  0  0
  -23.6697  -29.7957   20.1540 C   0  0  0  0  0  0
  -25.4124  -36.3035   24.0316 C   0  0  1  0  0  0
  -20.5919  -28.3722   23.1237 C   0  0  2  0  0  0
  -20.6785  -26.9427   22.5405 C   0  0  0  0  0  0
  -19.5763  -26.6391   21.5205 C   0  0  0  0  0  0
  -18.1947  -26.7943   22.1623 C   0  0  0  0  0  0
  -19.1566  -28.8884   23.2842 C   0  0  0  0  0  0
  -18.9486  -30.1481   23.8864 C   0  0  0  0  0  0
  -17.6481  -30.6593   24.0566 C   0  0  0  0  0  0
  -25.9073  -34.9412   23.5066 C   0  0  0  0  0  0
  -16.5373  -29.9085   23.6341 C   0  0  0  0  0  0
  -16.7296  -28.6511   23.0349 C   0  0  0  0  0  0
  -26.4525  -31.6569   25.0715 C   0  0  0  0  0  0
  -25.3714  -31.3768   26.1421 C   0  0  0  0  0  0
  -27.0387  -30.2968   24.6287 C   0  0  0  0  0  0
  -27.6070  -32.4324   25.7487 C   0  0  0  0  0  0
  -27.5577  -37.1779   24.8468 C   0  0  0  0  0  0
  -21.4259  -29.3050   22.3615 N   0  0  0  0  0  0
  -26.4284  -37.3752   23.9413 N   0  0  0  0  0  0
  -24.7156  -31.0328   22.0916 N   0  0  0  0  0  0
  -23.4212  -28.8108   23.3024 O   0  0  0  0  0  0
  -28.2811  -26.1761   20.2093 O   0  0  0  0  0  0
  -26.5656  -34.8908   22.4641 O   0  0  0  0  0  0
  -23.5549  -32.1334   23.7117 O   0  0  0  0  0  0
  -30.4981  -18.5519   20.3612 C   0  0  0  0  0  0
  -30.1892  -19.9880   20.2936 C   0  0  0  0  0  0
  -28.2011  -18.0862   20.5838 C   0  0  0  0  0  0
  -27.8880  -19.4943   20.5011 C   0  0  0  0  0  0
  -29.5071  -17.5122   20.5126 C   0  0  0  0  0  0
  -28.8570  -20.5410   20.3564 C   0  0  0  0  0  0
  -26.4237  -19.8906   20.5787 C   0  0  0  0  0  0
  -27.9856  -24.6570   20.0673 C   0  0  0  0  0  0
  -28.9726  -23.3093   20.2984 C   0  0  0  0  0  0
  -29.6169  -15.9892   20.6425 N   0  0  0  0  0  0
  -28.3469  -21.9125   20.2640 O   0  0  0  0  0  0
  -31.4864  -12.7322   19.1783 H   0  0  0  0  0  0
  -30.4552  -11.5952   20.0011 H   0  0  0  0  0  0
  -29.8364  -11.7263   17.5718 H   0  0  0  0  0  0
  -29.6212  -13.4531   17.6926 H   0  0  0  0  0  0
  -27.9426  -11.2703   18.9628 H   0  0  0  0  0  0
  -27.3936  -12.4616   17.8140 H   0  0  0  0  0  0
  -27.6165  -14.2440   19.4354 H   0  0  0  0  0  0
  -28.7612  -12.2149   21.4182 H   0  0  0  0  0  0
  -28.3866  -13.8760   21.7951 H   0  0  0  0  0  0
  -25.2766   -9.5673   22.4757 H   0  0  0  0  0  0
  -24.0002   -7.4623   22.7465 H   0  0  0  0  0  0
  -21.0845   -8.8772   19.8950 H   0  0  0  0  0  0
  -22.3698  -10.9671   19.6166 H   0  0  0  0  0  0
  -21.2006   -7.6141   23.9709 H   0  0  0  0  0  0
  -21.1480   -6.0519   25.9073 H   0  0  0  0  0  0
  -22.0601   -2.7608   23.2846 H   0  0  0  0  0  0
  -22.4090  -11.9880   22.4841 H   0  0  0  0  0  0
  -21.1080  -13.1223   22.2634 H   0  0  0  0  0  0
  -24.6324  -15.8270   20.4786 H   0  0  0  0  0  0
  -26.2202  -15.6046   19.9488 H   0  0  0  0  0  0
  -26.7271  -32.5312   23.1001 H   0  0  0  0  0  0
  -25.0091  -33.9622   25.0337 H   0  0  0  0  0  0
  -22.7459  -31.2905   21.3823 H   0  0  0  0  0  0
  -23.3759  -35.9569   23.3295 H   0  0  0  0  0  0
  -24.3573  -36.8888   22.2058 H   0  0  0  0  0  0
  -23.7234  -37.6437   23.6678 H   0  0  0  0  0  0
  -26.1562  -31.4800   20.6147 H   0  0  0  0  0  0
  -26.8703  -30.7725   22.0285 H   0  0  0  0  0  0
  -28.1348  -28.8186   21.2235 H   0  0  0  0  0  0
  -25.9055  -25.8516   19.0090 H   0  0  0  0  0  0
  -23.9787  -27.2988   18.9876 H   0  0  0  0  0  0
  -23.8038  -30.5700   19.3977 H   0  0  0  0  0  0
  -22.7838  -29.2374   19.8451 H   0  0  0  0  0  0
  -25.1311  -36.1858   25.0807 H   0  0  0  0  0  0
  -21.0017  -28.3310   24.1357 H   0  0  0  0  0  0
  -20.5676  -26.2334   23.3623 H   0  0  0  0  0  0
  -21.6653  -26.7430   22.1211 H   0  0  0  0  0  0
  -19.6916  -25.6295   21.1252 H   0  0  0  0  0  0
  -19.6697  -27.3186   20.6721 H   0  0  0  0  0  0
  -17.4216  -26.6684   21.4031 H   0  0  0  0  0  0
  -18.0349  -26.0094   22.9030 H   0  0  0  0  0  0
  -19.7959  -30.7305   24.2218 H   0  0  0  0  0  0
  -17.5036  -31.6269   24.5176 H   0  0  0  0  0  0
  -15.5373  -30.2976   23.7684 H   0  0  0  0  0  0
  -15.8697  -28.0825   22.7073 H   0  0  0  0  0  0
  -24.5878  -30.7127   25.7751 H   0  0  0  0  0  0
  -24.8915  -32.2959   26.4802 H   0  0  0  0  0  0
  -25.8008  -30.8972   27.0227 H   0  0  0  0  0  0
  -26.3005  -29.6690   24.1287 H   0  0  0  0  0  0
  -27.3999  -29.7272   25.4858 H   0  0  0  0  0  0
  -27.8910  -30.4212   23.9605 H   0  0  0  0  0  0
  -27.2688  -33.3652   26.2011 H   0  0  0  0  0  0
  -28.3905  -32.6841   25.0327 H   0  0  0  0  0  0
  -28.0701  -31.8475   26.5446 H   0  0  0  0  0  0
  -28.2596  -38.0074   24.7517 H   0  0  0  0  0  0
  -28.1072  -36.2607   24.6291 H   0  0  0  0  0  0
  -27.2295  -37.1428   25.8870 H   0  0  0  0  0  0
  -20.9471  -29.8758   21.6788 H   0  0  0  0  0  0
  -26.0150  -38.2817   24.1421 H   0  0  0  0  0  0
  -31.5364  -18.2579   20.3035 H   0  0  0  0  0  0
  -31.0155  -20.6750   20.1771 H   0  0  0  0  0  0
  -27.3711  -17.4062   20.7091 H   0  0  0  0  0  0
  -25.7651  -19.0220   20.5604 H   0  0  0  0  0  0
  -26.1540  -20.5279   19.7361 H   0  0  0  0  0  0
  -26.2286  -20.4418   21.4986 H   0  0  0  0  0  0
  -27.1285  -24.4868   20.7197 H   0  0  0  0  0  0
  -27.6022  -24.5305   19.0556 H   0  0  0  0  0  0
  -29.4624  -23.4098   21.2670 H   0  0  0  0  0  0
  -29.7733  -23.3330   19.5591 H   0  0  0  0  0  0
  -28.7227  -15.5870   20.8772 H   0  0  0  0  0  0
  1 25  1  0  0  0
  1 30  2  0  0  0
  1 80  1  0  0  0
  2  3  1  0  0  0
  2 25  1  0  0  0
  2 82  1  0  0  0
  2 83  1  0  0  0
  3  4  1  0  0  0
  3 84  1  0  0  0
  3 85  1  0  0  0
  4  5  1  0  0  0
  4 86  1  0  0  0
  4 87  1  0  0  0
  5  6  1  0  0  0
  5 26  1  0  0  0
  5 88  1  0  0  0
  6 25  1  0  0  0
  6 89  1  0  0  0
  6 90  1  0  0  0
  7  8  2  0  0  0
  7 26  1  0  0  0
  7 29  1  0  0  0
  8  9  1  0  0  0
  8 22  1  0  0  0
  9 10  1  0  0  0
  9 27  2  0  0  0
 10 11  2  0  0  0
 10 15  1  0  0  0
 11 12  1  0  0  0
 11 91  1  0  0  0
 12 13  2  0  0  0
 12 92  1  0  0  0
 13 14  1  0  0  0
 13 31  1  0  0  0
 14 15  2  0  0  0
 14 93  1  0  0  0
 15 94  1  0  0  0
 16 17  2  0  0  0
 16 21  1  0  0  0
 16 31  1  0  0  0
 17 18  1  0  0  0
 17 95  1  0  0  0
 18 19  2  0  0  0
 18 96  1  0  0  0
 19 20  1  0  0  0
 19 24  1  0  0  0
 20 21  2  0  0  0
 20 97  1  0  0  0
 21 23  1  0  0  0
 22 28  1  0  0  0
 22 32  2  0  0  0
 26 27  1  0  0  0
 28 98  1  0  0  0
 28 99  1  0  0  0
 29100  1  0  0  0
 29101  1  0  0  0
 33 34  1  0  0  0
 33 66  1  0  0  0
 33 70  2  0  0  0
 34 36  1  0  0  0
 34 59  1  0  0  0
 34102  1  0  0  0
 35 44  2  0  0  0
 35 45  1  0  0  0
 35 68  1  0  0  0
 36 56  1  0  0  0
 36103  1  0  0  0
 37 39  1  0  0  0
 37 47  1  0  0  0
 37 66  1  0  0  0
 37104  1  0  0  0
 38 43  2  0  0  0
 38 46  1  0  0  0
 38 47  1  0  0  0
 39 64  1  0  0  0
 39 67  2  0  0  0
 40 52  1  0  0  0
 40 53  2  0  0  0
 40 58  1  0  0  0
 41105  1  0  0  0
 41106  1  0  0  0
 41107  1  0  0  0
 41 48  1  0  0  0
 42 43  1  0  0  0
 42 66  1  0  0  0
 42108  1  0  0  0
 42109  1  0  0  0
 43 44  1  0  0  0
 44110  1  0  0  0
 45 46  2  0  0  0
 45111  1  0  0  0
 46112  1  0  0  0
 47113  1  0  0  0
 47114  1  0  0  0
 48 56  1  0  0  0
 48 65  1  0  0  0
 48115  1  0  0  0
 49 50  1  0  0  0
 49 53  1  0  0  0
 49 64  1  0  0  0
 49116  1  0  0  0
 50 51  1  0  0  0
 50117  1  0  0  0
 50118  1  0  0  0
 51 52  1  0  0  0
 51119  1  0  0  0
 51120  1  0  0  0
 52121  1  0  0  0
 52122  1  0  0  0
 53 54  1  0  0  0
 54 55  2  0  0  0
 54123  1  0  0  0
 55 57  1  0  0  0
 55124  1  0  0  0
 56 69  2  0  0  0
 57 58  2  0  0  0
 57125  1  0  0  0
 58126  1  0  0  0
 59 60  1  0  0  0
 59 61  1  0  0  0
 59 62  1  0  0  0
 60127  1  0  0  0
 60128  1  0  0  0
 60129  1  0  0  0
 61130  1  0  0  0
 61131  1  0  0  0
 61132  1  0  0  0
 62133  1  0  0  0
 62134  1  0  0  0
 62135  1  0  0  0
 63 65  1  0  0  0
 63136  1  0  0  0
 63137  1  0  0  0
 63138  1  0  0  0
 64139  1  0  0  0
 65140  1  0  0  0
 68 78  1  0  0  0
 71 72  2  0  0  0
 71 75  1  0  0  0
 71141  1  0  0  0
 72 76  1  0  0  0
 72142  1  0  0  0
 73 74  1  0  0  0
 73 75  2  0  0  0
 73143  1  0  0  0
 74 76  2  0  0  0
 74 77  1  0  0  0
 75 80  1  0  0  0
 76 81  1  0  0  0
 77144  1  0  0  0
 77145  1  0  0  0
 77146  1  0  0  0
 78 79  1  0  0  0
 78147  1  0  0  0
 78148  1  0  0  0
 79 81  1  0  0  0
 79149  1  0  0  0
 79150  1  0  0  0
 80151  1  0  0  0
M  ISO  4   1 100  68 101  78 101  80 100
M  END
> <chiral flag>
0

> <version>
0

> <s_m_source_file>
/data/baiqing/PycharmProjects/Reinvent-master-3.2/result/LINK_invent/BTK/process_docking_weight1_custom_product_contain_oxygen_bond_distance_aromatic_linkinvent_7_9_3/rearranged_h_0001.sdf

> <i_m_source_file_index>
19

> <r_mmod_Potential_Energy-OPLS-2005>
449.871917724609

> <r_mmod_Stretch_Energy-OPLS-2005>
217.125106811523

> <r_mmod_Bend_Energy-OPLS-2005>
303.068023681641

> <r_mmod_Torsional_Energy-OPLS-2005>
211.717910766602

> <r_mmod_Improper_Torsional_Energy-OPLS-2005>
4.76985454559326

> <r_mmod_Van_der_Waal_Energy-OPLS-2005>
131.463577270508

> <r_mmod_Electrostatic_Energy-OPLS-2005>
-380.574035644531

> <r_mmod_Solvation_Energy-OPLS-2005>
-211.898544311523

> <b_mmod_Minimization_Converged-OPLS-2005>
0

> <r_mmod_RMS_Derivative-OPLS-2005>
1.00794219970703

$$$$
19
                    3D
 Structure written by MMmdl.
141149  0  0  1  0            999 V2000
  -30.0996  -16.1278   20.2933 C   0  0  0  0  0  0
  -30.3832  -13.4557   19.5445 C   0  0  0  0  0  0
  -29.5696  -12.7948   18.3771 C   0  0  0  0  0  0
  -28.1854  -12.3278   18.8420 C   0  0  0  0  0  0
  -27.5827  -13.3611   19.8112 C   0  0  2  0  0  0
  -28.5622  -13.8923   20.8994 C   0  0  0  0  0  0
  -25.2245  -13.8357   20.5865 C   0  0  0  0  0  0
  -24.1689  -13.0438   20.9319 C   0  0  0  0  0  0
  -24.6462  -11.6972   20.8754 C   0  0  0  0  0  0
  -23.9169  -10.4299   21.0373 C   0  0  0  0  0  0
  -24.3683   -9.4212   21.9167 C   0  0  0  0  0  0
  -23.6331   -8.2259   22.0753 C   0  0  0  0  0  0
  -22.4310   -8.0298   21.3547 C   0  0  0  0  0  0
  -21.9965   -9.0272   20.4641 C   0  0  0  0  0  0
  -22.7323  -10.2138   20.3037 C   0  0  0  0  0  0
  -21.6863   -6.0749   22.5279 C   0  0  0  0  0  0
  -21.4021   -6.5648   23.8213 C   0  0  0  0  0  0
  -21.3666   -5.6796   24.9172 C   0  0  0  0  0  0
  -21.6044   -4.3058   24.7219 C   0  0  0  0  0  0
  -21.8817   -3.8155   23.4339 C   0  0  0  0  0  0
  -21.9196   -4.6974   22.3397 C   0  0  0  0  0  0
  -22.7687  -13.5129   21.1931 C   0  0  0  0  0  0
  -22.1664   -4.2159   21.0974 F   0  0  0  0  0  0
  -21.5628   -3.4539   25.7732 F   0  0  0  0  0  0
  -29.6522  -14.6704   20.2170 N   0  0  0  0  0  0
  -26.2765  -12.9795   20.3316 N   0  0  0  0  0  0
  -25.9436  -11.6806   20.5676 N   0  0  0  0  0  0
  -22.0364  -12.8097   22.0484 N   0  0  0  0  0  0
  -25.3740  -15.2107   20.4305 N   0  0  0  0  0  0
  -31.3470  -16.0009   20.1853 O   0  0  0  0  0  0
  -21.6658   -6.8903   21.4246 O   0  0  0  0  0  0
  -22.3347  -14.5416   20.6758 O   0  0  0  0  0  0
  -24.7147  -31.7601   23.1231 C   0  0  0  0  0  0
  -25.9565  -32.4273   23.7902 C   0  0  1  0  0  0
  -27.2411  -26.3562   20.2530 C   0  0  0  0  0  0
  -25.6001  -33.8119   24.1750 N   0  0  0  0  0  0
  -23.5566  -30.3453   21.4856 C   0  0  2  0  0  0
  -25.0164  -28.6102   20.1314 C   0  0  0  0  0  0
  -22.7905  -29.4094   22.4624 C   0  0  0  0  0  0
  -18.0356  -28.1437   22.8437 C   0  0  0  0  0  0
  -24.1501  -36.7082   23.2668 C   0  0  0  0  0  0
  -26.1487  -30.3764   21.4420 C   0  0  0  0  0  0
  -26.2080  -28.9009   20.8041 C   0  0  0  0  0  0
  -27.2841  -27.8129   20.8239 C   0  0  0  0  0  0
  -26.0167  -26.3654   19.5087 C   0  0  0  0  0  0
  -24.9800  -27.3714   19.4593 C   0  0  0  0  0  0
  -23.8300  -29.6091   20.1365 C   0  0  0  0  0  0
  -25.4169  -36.2789   24.0255 C   0  0  1  0  0  0
  -20.6007  -28.3810   23.1083 C   0  0  2  0  0  0
  -20.6807  -26.9438   22.5414 C   0  0  0  0  0  0
  -19.5789  -26.6357   21.5225 C   0  0  0  0  0  0
  -18.1968  -26.7959   22.1612 C   0  0  0  0  0  0
  -19.1629  -28.8956   23.2733 C   0  0  0  0  0  0
  -18.9530  -30.1532   23.8794 C   0  0  0  0  0  0
  -17.6516  -30.6612   24.0543 C   0  0  0  0  0  0
  -25.9156  -34.9182   23.4868 C   0  0  0  0  0  0
  -16.5404  -29.9088   23.6357 C   0  0  0  0  0  0
  -16.7334  -28.6513   23.0371 C   0  0  0  0  0  0
  -26.4638  -31.6462   25.0672 C   0  0  0  0  0  0
  -25.3607  -31.3859   26.1213 C   0  0  0  0  0  0
  -27.0643  -30.2773   24.6824 C   0  0  0  0  0  0
  -27.6007  -32.4417   25.7520 C   0  0  0  0  0  0
  -27.5540  -37.1728   24.8486 C   0  0  0  0  0  0
  -21.4524  -29.2991   22.3368 N   0  0  0  0  0  0
  -26.4284  -37.3568   23.9365 N   0  0  0  0  0  0
  -24.8344  -30.8695   22.0684 N   0  0  0  0  0  0
  -23.4191  -28.7753   23.3124 O   0  0  0  0  0  0
  -28.2116  -25.0178   20.2791 O   0  0  0  0  0  0
  -26.5849  -34.8821   22.4520 O   0  0  0  0  0  0
  -23.6097  -32.0834   23.5976 O   0  0  0  0  0  0
  -27.8539  -20.4015   20.2893 C   0  0  0  0  0  0
  -29.9276  -20.7736   20.2908 C   0  0  0  0  0  0
  -27.5458  -21.9724   20.2784 C   0  0  0  0  0  0
  -29.6166  -22.3428   20.2816 C   0  0  0  0  0  0
  -29.0980  -19.4718   20.2969 C   0  0  0  0  0  0
  -28.3753  -23.2749   20.2716 C   0  0  0  0  0  0
  -29.2921  -17.5943   20.3134 N   0  0  0  0  0  0
  -31.3311  -13.7934   19.1249 H   0  0  0  0  0  0
  -30.6705  -12.7078   20.2857 H   0  0  0  0  0  0
  -30.1256  -11.9610   17.9465 H   0  0  0  0  0  0
  -29.4494  -13.5270   17.5771 H   0  0  0  0  0  0
  -28.3016  -11.3740   19.3587 H   0  0  0  0  0  0
  -27.5262  -12.1465   17.9919 H   0  0  0  0  0  0
  -27.3825  -14.2170   19.1644 H   0  0  0  0  0  0
  -28.9318  -13.0918   21.5423 H   0  0  0  0  0  0
  -28.0358  -14.5789   21.5634 H   0  0  0  0  0  0
  -25.2821   -9.5683   22.4758 H   0  0  0  0  0  0
  -24.0025   -7.4656   22.7486 H   0  0  0  0  0  0
  -21.0895   -8.8805   19.8951 H   0  0  0  0  0  0
  -22.3780  -10.9677   19.6148 H   0  0  0  0  0  0
  -21.2017   -7.6156   23.9718 H   0  0  0  0  0  0
  -21.1490   -6.0526   25.9075 H   0  0  0  0  0  0
  -22.0589   -2.7617   23.2831 H   0  0  0  0  0  0
  -22.4022  -11.9785   22.4892 H   0  0  0  0  0  0
  -21.0962  -13.1075   22.2674 H   0  0  0  0  0  0
  -24.5949  -15.8513   20.5382 H   0  0  0  0  0  0
  -26.2098  -15.6569   20.0781 H   0  0  0  0  0  0
  -26.7685  -32.4663   23.0638 H   0  0  0  0  0  0
  -24.9993  -33.9100   24.9802 H   0  0  0  0  0  0
  -22.9021  -31.1913   21.2657 H   0  0  0  0  0  0
  -23.3742  -35.9441   23.3374 H   0  0  0  0  0  0
  -24.3519  -36.8715   22.2071 H   0  0  0  0  0  0
  -23.7322  -37.6292   23.6744 H   0  0  0  0  0  0
  -26.3855  -31.0740   20.6379 H   0  0  0  0  0  0
  -26.9883  -30.4591   22.1188 H   0  0  0  0  0  0
  -28.1784  -28.0601   21.3779 H   0  0  0  0  0  0
  -25.8044  -25.4574   18.9621 H   0  0  0  0  0  0
  -24.0936  -27.1355   18.8860 H   0  0  0  0  0  0
  -24.0356  -30.3537   19.3665 H   0  0  0  0  0  0
  -22.9277  -29.0941   19.8030 H   0  0  0  0  0  0
  -25.1411  -36.1524   25.0751 H   0  0  0  0  0  0
  -21.0073  -28.3463   24.1218 H   0  0  0  0  0  0
  -20.5637  -26.2445   23.3707 H   0  0  0  0  0  0
  -21.6667  -26.7330   22.1256 H   0  0  0  0  0  0
  -19.6941  -25.6237   21.1326 H   0  0  0  0  0  0
  -19.6747  -27.3107   20.6708 H   0  0  0  0  0  0
  -17.4245  -26.6704   21.4009 H   0  0  0  0  0  0
  -18.0340  -26.0130   22.9031 H   0  0  0  0  0  0
  -19.8008  -30.7368   24.2125 H   0  0  0  0  0  0
  -17.5067  -31.6281   24.5164 H   0  0  0  0  0  0
  -15.5400  -30.2957   23.7741 H   0  0  0  0  0  0
  -15.8735  -28.0797   22.7144 H   0  0  0  0  0  0
  -24.5907  -30.7077   25.7514 H   0  0  0  0  0  0
  -24.8662  -32.3090   26.4247 H   0  0  0  0  0  0
  -25.7713  -30.9314   27.0239 H   0  0  0  0  0  0
  -26.3429  -29.6270   24.1870 H   0  0  0  0  0  0
  -27.3992  -29.7365   25.5687 H   0  0  0  0  0  0
  -27.9429  -30.3834   24.0461 H   0  0  0  0  0  0
  -27.2488  -33.3825   26.1763 H   0  0  0  0  0  0
  -28.3987  -32.6813   25.0480 H   0  0  0  0  0  0
  -28.0494  -31.8786   26.5714 H   0  0  0  0  0  0
  -28.2600  -37.9970   24.7386 H   0  0  0  0  0  0
  -28.0989  -36.2482   24.6520 H   0  0  0  0  0  0
  -27.2218  -37.1608   25.8881 H   0  0  0  0  0  0
  -20.9907  -29.8597   21.6342 H   0  0  0  0  0  0
  -26.0093  -38.2628   24.1276 H   0  0  0  0  0  0
  -26.9376  -19.8287   20.2921 H   0  0  0  0  0  0
  -30.9898  -20.5739   20.2960 H   0  0  0  0  0  0
  -26.4844  -22.1755   20.2789 H   0  0  0  0  0  0
  -30.5307  -22.9191   20.2872 H   0  0  0  0  0  0
  -28.3439  -17.2471   20.3493 H   0  0  0  0  0  0
  1 25  1  0  0  0
  1 30  2  0  0  0
  1 77  1  0  0  0
  2  3  1  0  0  0
  2 25  1  0  0  0
  2 78  1  0  0  0
  2 79  1  0  0  0
  3  4  1  0  0  0
  3 80  1  0  0  0
  3 81  1  0  0  0
  4  5  1  0  0  0
  4 82  1  0  0  0
  4 83  1  0  0  0
  5  6  1  0  0  0
  5 26  1  0  0  0
  5 84  1  0  0  0
  6 25  1  0  0  0
  6 85  1  0  0  0
  6 86  1  0  0  0
  7  8  2  0  0  0
  7 26  1  0  0  0
  7 29  1  0  0  0
  8  9  1  0  0  0
  8 22  1  0  0  0
  9 10  1  0  0  0
  9 27  2  0  0  0
 10 11  2  0  0  0
 10 15  1  0  0  0
 11 12  1  0  0  0
 11 87  1  0  0  0
 12 13  2  0  0  0
 12 88  1  0  0  0
 13 14  1  0  0  0
 13 31  1  0  0  0
 14 15  2  0  0  0
 14 89  1  0  0  0
 15 90  1  0  0  0
 16 17  2  0  0  0
 16 21  1  0  0  0
 16 31  1  0  0  0
 17 18  1  0  0  0
 17 91  1  0  0  0
 18 19  2  0  0  0
 18 92  1  0  0  0
 19 20  1  0  0  0
 19 24  1  0  0  0
 20 21  2  0  0  0
 20 93  1  0  0  0
 21 23  1  0  0  0
 22 28  1  0  0  0
 22 32  2  0  0  0
 26 27  1  0  0  0
 28 94  1  0  0  0
 28 95  1  0  0  0
 29 96  1  0  0  0
 29 97  1  0  0  0
 33 34  1  0  0  0
 33 66  1  0  0  0
 33 70  2  0  0  0
 34 36  1  0  0  0
 34 59  1  0  0  0
 34 98  1  0  0  0
 35 44  2  0  0  0
 35 45  1  0  0  0
 35 68  1  0  0  0
 36 56  1  0  0  0
 36 99  1  0  0  0
 37 39  1  0  0  0
 37 47  1  0  0  0
 37 66  1  0  0  0
 37100  1  0  0  0
 38 43  2  0  0  0
 38 46  1  0  0  0
 38 47  1  0  0  0
 39 64  1  0  0  0
 39 67  2  0  0  0
 40 52  1  0  0  0
 40 53  2  0  0  0
 40 58  1  0  0  0
 41101  1  0  0  0
 41102  1  0  0  0
 41103  1  0  0  0
 41 48  1  0  0  0
 42 43  1  0  0  0
 42 66  1  0  0  0
 42104  1  0  0  0
 42105  1  0  0  0
 43 44  1  0  0  0
 44106  1  0  0  0
 45 46  2  0  0  0
 45107  1  0  0  0
 46108  1  0  0  0
 47109  1  0  0  0
 47110  1  0  0  0
 48 56  1  0  0  0
 48 65  1  0  0  0
 48111  1  0  0  0
 49 50  1  0  0  0
 49 53  1  0  0  0
 49 64  1  0  0  0
 49112  1  0  0  0
 50 51  1  0  0  0
 50113  1  0  0  0
 50114  1  0  0  0
 51 52  1  0  0  0
 51115  1  0  0  0
 51116  1  0  0  0
 52117  1  0  0  0
 52118  1  0  0  0
 53 54  1  0  0  0
 54 55  2  0  0  0
 54119  1  0  0  0
 55 57  1  0  0  0
 55120  1  0  0  0
 56 69  2  0  0  0
 57 58  2  0  0  0
 57121  1  0  0  0
 58122  1  0  0  0
 59 60  1  0  0  0
 59 61  1  0  0  0
 59 62  1  0  0  0
 60123  1  0  0  0
 60124  1  0  0  0
 60125  1  0  0  0
 61126  1  0  0  0
 61127  1  0  0  0
 61128  1  0  0  0
 62129  1  0  0  0
 62130  1  0  0  0
 62131  1  0  0  0
 63 65  1  0  0  0
 63132  1  0  0  0
 63133  1  0  0  0
 63134  1  0  0  0
 64135  1  0  0  0
 65136  1  0  0  0
 68 76  1  0  0  0
 71 73  2  0  0  0
 71 75  1  0  0  0
 71137  1  0  0  0
 72 74  1  0  0  0
 72 75  2  0  0  0
 72138  1  0  0  0
 73 76  1  0  0  0
 73139  1  0  0  0
 74 76  2  0  0  0
 74140  1  0  0  0
 75 77  1  0  0  0
 77141  1  0  0  0
M  ISO  4   1 100  68 101  76 101  77 100
M  END
> <chiral flag>
0

> <version>
0

> <s_m_source_file>
/data/baiqing/PycharmProjects/Reinvent-master-3.2/result/LINK_invent/BTK/process_docking_weight1_custom_product_contain_oxygen_bond_distance_aromatic_linkinvent_7_9_3/rearranged_h_0001.sdf

> <i_m_source_file_index>
20

> <r_mmod_Potential_Energy-OPLS-2005>
4197.39111328125

> <r_mmod_Stretch_Energy-OPLS-2005>
1611.42260742188

> <r_mmod_Bend_Energy-OPLS-2005>
1018.25030517578

> <r_mmod_Torsional_Energy-OPLS-2005>
213.763397216797

> <r_mmod_Improper_Torsional_Energy-OPLS-2005>
4.01581335067749

> <r_mmod_Van_der_Waal_Energy-OPLS-2005>
144.880767822266

> <r_mmod_Electrostatic_Energy-OPLS-2005>
-354.25341796875

> <r_mmod_Solvation_Energy-OPLS-2005>
-218.535690307617

> <b_mmod_Minimization_Converged-OPLS-2005>
0

> <r_mmod_RMS_Derivative-OPLS-2005>
0.799303591251373

$$$$
20
                    3D
 Structure written by MMmdl.
169178  0  0  1  0            999 V2000
  -29.2859  -13.8055   21.3445 C   0  0  0  0  0  0
  -30.5532  -12.6186   19.3836 C   0  0  0  0  0  0
  -29.7630  -12.6877   17.9939 C   0  0  0  0  0  0
  -28.2041  -12.5306   17.9966 C   0  0  0  0  0  0
  -27.7936  -13.1019   19.2944 C   0  0  2  0  0  0
  -28.5725  -12.0693   20.2499 C   0  0  0  0  0  0
  -25.5014  -14.4076   20.5041 C   0  0  0  0  0  0
  -24.3671  -13.7001   21.5124 C   0  0  0  0  0  0
  -24.9663  -11.3303   21.0102 C   0  0  0  0  0  0
  -24.3117   -9.9689   20.9399 C   0  0  0  0  0  0
  -24.4721   -9.1278   22.0346 C   0  0  0  0  0  0
  -23.5812   -8.0664   22.2229 C   0  0  0  0  0  0
  -22.4648   -7.8901   21.3694 C   0  0  0  0  0  0
  -22.2885   -8.7275   20.2702 C   0  0  0  0  0  0
  -23.2918   -9.6550   19.9864 C   0  0  0  0  0  0
  -21.6164   -6.0400   22.5577 C   0  0  0  0  0  0
  -21.3402   -6.5281   23.8506 C   0  0  0  0  0  0
  -21.3443   -5.6451   24.9428 C   0  0  0  0  0  0
  -21.6054   -4.2774   24.7383 C   0  0  0  0  0  0
  -21.8901   -3.7942   23.4481 C   0  0  0  0  0  0
  -21.8980   -4.6764   22.3561 C   0  0  0  0  0  0
  -23.0037  -14.4612   21.6905 C   0  0  0  0  0  0
  -22.1591   -4.2122   21.1100 F   0  0  0  0  0  0
  -21.5746   -3.4245   25.7877 F   0  0  0  0  0  0
  -29.6733  -12.7781   20.5689 N   0  0  0  0  0  0
  -26.4525  -13.1503   19.6374 N   0  0  0  0  0  0
  -26.1177  -11.5203   19.9320 N   0  0  0  0  0  0
  -22.1760  -14.1513   22.6822 N   0  0  0  0  0  0
  -25.8640  -15.7103   20.4789 N   0  0  0  0  0  0
  -30.2015  -14.6996   21.2381 O   0  0  0  0  0  0
  -21.5641   -6.8717   21.4801 O   0  0  0  0  0  0
  -22.5207  -15.0798   20.7475 O   0  0  0  0  0  0
  -24.6281  -31.8636   23.2083 C   0  0  0  0  0  0
  -25.9148  -32.4778   23.8373 C   0  0  1  0  0  0
  -27.1058  -27.2728   20.0796 C   0  0  0  0  0  0
  -25.5968  -33.8581   24.2286 N   0  0  0  0  0  0
  -23.4117  -30.5035   21.5564 C   0  0  2  0  0  0
  -24.8281  -28.9701   20.0989 C   0  0  0  0  0  0
  -22.7449  -29.4674   22.4939 C   0  0  0  0  0  0
  -18.0285  -28.1374   22.8490 C   0  0  0  0  0  0
  -24.1485  -36.7281   23.2633 C   0  0  0  0  0  0
  -25.9617  -30.7766   21.3845 C   0  0  0  0  0  0
  -26.0103  -29.4076   20.7116 C   0  0  0  0  0  0
  -27.1641  -28.5642   20.7006 C   0  0  0  0  0  0
  -25.9171  -26.9198   19.4192 C   0  0  0  0  0  0
  -24.7840  -27.7362   19.4440 C   0  0  0  0  0  0
  -23.6144  -29.8671   20.1614 C   0  0  0  0  0  0
  -25.4110  -36.3071   24.0321 C   0  0  1  0  0  0
  -20.5885  -28.3680   23.1275 C   0  0  2  0  0  0
  -20.6776  -26.9411   22.5400 C   0  0  0  0  0  0
  -19.5750  -26.6380   21.5204 C   0  0  0  0  0  0
  -18.1931  -26.7916   22.1624 C   0  0  0  0  0  0
  -19.1540  -28.8841   23.2879 C   0  0  0  0  0  0
  -18.9468  -30.1444   23.8893 C   0  0  0  0  0  0
  -17.6472  -30.6583   24.0559 C   0  0  0  0  0  0
  -25.9067  -34.9447   23.5094 C   0  0  0  0  0  0
  -16.5359  -29.9084   23.6337 C   0  0  0  0  0  0
  -16.7272  -28.6497   23.0360 C   0  0  0  0  0  0
  -26.4521  -31.6581   25.0739 C   0  0  0  0  0  0
  -25.3750  -31.3719   26.1455 C   0  0  0  0  0  0
  -27.0378  -30.3005   24.6210 C   0  0  0  0  0  0
  -27.6057  -32.4326   25.7531 C   0  0  0  0  0  0
  -27.5582  -37.1784   24.8450 C   0  0  0  0  0  0
  -21.4168  -29.3047   22.3673 N   0  0  0  0  0  0
  -26.4270  -37.3785   23.9428 N   0  0  0  0  0  0
  -24.6880  -31.0640   22.1052 N   0  0  0  0  0  0
  -23.4195  -28.8182   23.2976 O   0  0  0  0  0  0
  -28.1178  -26.3136   20.0932 O   0  0  0  0  0  0
  -26.5632  -34.8915   22.4658 O   0  0  0  0  0  0
  -23.5451  -32.1461   23.7420 O   0  0  0  0  0  0
  -21.4425  -11.1912   22.3505 C   0  0  0  0  0  0
  -23.8596  -11.8518   23.1470 C   0  0  0  0  0  0
  -24.0062  -18.3116   18.8619 C   0  0  0  0  0  0
  -26.2897  -18.1067   18.1733 C   0  0  0  0  0  0
  -24.2769  -19.6641   19.2673 C   0  0  0  0  0  0
  -26.5607  -19.4523   18.5836 C   0  0  0  0  0  0
  -25.4468  -12.2885   23.1939 C   0  0  0  0  0  0
  -22.7966  -12.2011   20.3336 C   0  0  0  0  0  0
  -22.7230  -11.7564   21.9372 C   0  0  0  0  0  0
  -25.0039  -17.4913   18.2662 C   0  0  0  0  0  0
  -25.5492  -20.2958   19.1177 C   0  0  0  0  0  0
  -24.1831  -12.7555   19.6209 C   0  0  0  0  0  0
  -26.2943  -12.8008   21.8746 C   0  0  0  0  0  0
  -24.7736  -16.0547   17.6919 C   0  0  0  0  0  0
  -27.8617  -24.9628   20.5676 C   0  0  0  0  0  0
  -25.7286  -21.8549   19.4129 C   0  0  0  0  0  0
  -24.0744  -13.5904   18.2365 C   0  0  0  0  0  0
  -27.1291  -22.5477   19.7736 C   0  0  0  0  0  0
  -20.4306  -10.7383   22.6768 N   0  0  0  0  0  0
  -27.8496  -13.6469   22.0034 N   0  0  0  0  0  0
  -23.9777  -15.1167   18.3069 N   0  0  0  0  0  0
  -27.2510  -24.0645   19.6383 N   0  0  0  0  0  0
  -25.4445  -15.7196   16.7154 O   0  0  0  0  0  0
  -28.2227  -24.6180   21.6926 O   0  0  0  0  0  0
  -31.3481  -13.3665   19.3862 H   0  0  0  0  0  0
  -31.0576  -11.6557   19.4761 H   0  0  0  0  0  0
  -30.1971  -11.9737   17.2959 H   0  0  0  0  0  0
  -29.9741  -13.6676   17.5599 H   0  0  0  0  0  0
  -27.8916  -11.4942   17.8617 H   0  0  0  0  0  0
  -27.7577  -13.0840   17.1686 H   0  0  0  0  0  0
  -28.0994  -14.1508   19.2350 H   0  0  0  0  0  0
  -28.8332  -11.1298   19.7502 H   0  0  0  0  0  0
  -28.1659  -11.5404   21.1136 H   0  0  0  0  0  0
  -25.2389   -9.3208   22.7703 H   0  0  0  0  0  0
  -23.7478   -7.4131   23.0675 H   0  0  0  0  0  0
  -21.4742   -8.5635   19.5775 H   0  0  0  0  0  0
  -23.2133  -10.2067   19.0593 H   0  0  0  0  0  0
  -21.1183   -7.5745   24.0023 H   0  0  0  0  0  0
  -21.1260   -6.0067   25.9362 H   0  0  0  0  0  0
  -22.0942   -2.7452   23.2980 H   0  0  0  0  0  0
  -22.5087  -13.5878   23.4504 H   0  0  0  0  0  0
  -21.2586  -14.5724   22.7293 H   0  0  0  0  0  0
  -25.3783  -16.4430   20.9788 H   0  0  0  0  0  0
  -26.6103  -16.0662   19.8967 H   0  0  0  0  0  0
  -26.7189  -32.5399   23.1083 H   0  0  0  0  0  0
  -25.0099  -33.9735   25.0417 H   0  0  0  0  0  0
  -22.7052  -31.3279   21.4333 H   0  0  0  0  0  0
  -23.3756  -35.9602   23.3264 H   0  0  0  0  0  0
  -24.3588  -36.8940   22.2056 H   0  0  0  0  0  0
  -23.7220  -37.6462   23.6684 H   0  0  0  0  0  0
  -26.1048  -31.5462   20.6244 H   0  0  0  0  0  0
  -26.8404  -30.8084   22.0180 H   0  0  0  0  0  0
  -28.0706  -28.8788   21.1967 H   0  0  0  0  0  0
  -25.8248  -25.9867   18.8880 H   0  0  0  0  0  0
  -23.8775  -27.4092   18.9523 H   0  0  0  0  0  0
  -23.7462  -30.6593   19.4231 H   0  0  0  0  0  0
  -22.7231  -29.3208   19.8467 H   0  0  0  0  0  0
  -25.1282  -36.1904   25.0811 H   0  0  0  0  0  0
  -20.9982  -28.3254   24.1391 H   0  0  0  0  0  0
  -20.5674  -26.2295   23.3597 H   0  0  0  0  0  0
  -21.6645  -26.7444   22.1195 H   0  0  0  0  0  0
  -19.6914  -25.6289   21.1238 H   0  0  0  0  0  0
  -19.6680  -27.3183   20.6724 H   0  0  0  0  0  0
  -17.4196  -26.6645   21.4032 H   0  0  0  0  0  0
  -18.0349  -26.0057   22.9023 H   0  0  0  0  0  0
  -19.7950  -30.7256   24.2250 H   0  0  0  0  0  0
  -17.5036  -31.6265   24.5154 H   0  0  0  0  0  0
  -15.5362  -30.2988   23.7666 H   0  0  0  0  0  0
  -15.8664  -28.0812   22.7087 H   0  0  0  0  0  0
  -24.5919  -30.7076   25.7782 H   0  0  0  0  0  0
  -24.8951  -32.2889   26.4887 H   0  0  0  0  0  0
  -25.8071  -30.8891   27.0229 H   0  0  0  0  0  0
  -26.2970  -29.6745   24.1220 H   0  0  0  0  0  0
  -27.4057  -29.7262   25.4725 H   0  0  0  0  0  0
  -27.8847  -30.4289   23.9462 H   0  0  0  0  0  0
  -27.2632  -33.3606   26.2125 H   0  0  0  0  0  0
  -28.3875  -32.6925   25.0380 H   0  0  0  0  0  0
  -28.0721  -31.8445   26.5448 H   0  0  0  0  0  0
  -28.2531  -38.0150   24.7596 H   0  0  0  0  0  0
  -28.1147  -36.2684   24.6146 H   0  0  0  0  0  0
  -27.2314  -37.1266   25.8852 H   0  0  0  0  0  0
  -20.9313  -29.8809   21.6940 H   0  0  0  0  0  0
  -26.0133  -38.2835   24.1507 H   0  0  0  0  0  0
  -23.4994  -11.5218   24.1114 H   0  0  0  0  0  0
  -23.0082  -17.9168   18.9834 H   0  0  0  0  0  0
  -27.1038  -17.5284   17.7570 H   0  0  0  0  0  0
  -23.4570  -20.2411   19.6761 H   0  0  0  0  0  0
  -27.5580  -19.8451   18.4493 H   0  0  0  0  0  0
  -25.9382  -12.2808   24.1559 H   0  0  0  0  0  0
  -21.8931  -12.1582   19.7395 H   0  0  0  0  0  0
  -25.0489  -22.0954   20.2341 H   0  0  0  0  0  0
  -25.3106  -22.3755   18.5498 H   0  0  0  0  0  0
  -23.1764  -13.2445   17.7255 H   0  0  0  0  0  0
  -24.8992  -13.2957   17.5850 H   0  0  0  0  0  0
  -27.8926  -22.1322   19.1165 H   0  0  0  0  0  0
  -27.4133  -22.2424   20.7816 H   0  0  0  0  0  0
  -27.7656  -14.3920   22.6805 H   0  0  0  0  0  0
  -23.4441  -15.4491   19.1054 H   0  0  0  0  0  0
  -27.0234  -24.4728   18.7408 H   0  0  0  0  0  0
  1 25  1  0  0  0
  1 30  2  0  0  0
  1 90  1  0  0  0
  2  3  1  0  0  0
  2 25  1  0  0  0
  2 95  1  0  0  0
  2 96  1  0  0  0
  3  4  1  0  0  0
  3 97  1  0  0  0
  3 98  1  0  0  0
  4  5  1  0  0  0
  4 99  1  0  0  0
  4100  1  0  0  0
  5  6  1  0  0  0
  5 26  1  0  0  0
  5101  1  0  0  0
  6 25  1  0  0  0
  6102  1  0  0  0
  6103  1  0  0  0
  7  8  2  0  0  0
  7 26  1  0  0  0
  7 29  1  0  0  0
  8  9  1  0  0  0
  8 22  1  0  0  0
  9 10  1  0  0  0
  9 27  2  0  0  0
 10 11  2  0  0  0
 10 15  1  0  0  0
 11 12  1  0  0  0
 11104  1  0  0  0
 12 13  2  0  0  0
 12105  1  0  0  0
 13 14  1  0  0  0
 13 31  1  0  0  0
 14 15  2  0  0  0
 14106  1  0  0  0
 15107  1  0  0  0
 16 17  2  0  0  0
 16 21  1  0  0  0
 16 31  1  0  0  0
 17 18  1  0  0  0
 17108  1  0  0  0
 18 19  2  0  0  0
 18109  1  0  0  0
 19 20  1  0  0  0
 19 24  1  0  0  0
 20 21  2  0  0  0
 20110  1  0  0  0
 21 23  1  0  0  0
 22 28  1  0  0  0
 22 32  2  0  0  0
 26 27  1  0  0  0
 28111  1  0  0  0
 28112  1  0  0  0
 29113  1  0  0  0
 29114  1  0  0  0
 33 34  1  0  0  0
 33 66  1  0  0  0
 33 70  2  0  0  0
 34 36  1  0  0  0
 34 59  1  0  0  0
 34115  1  0  0  0
 35 44  2  0  0  0
 35 45  1  0  0  0
 35 68  1  0  0  0
 36 56  1  0  0  0
 36116  1  0  0  0
 37 39  1  0  0  0
 37 47  1  0  0  0
 37 66  1  0  0  0
 37117  1  0  0  0
 38 43  2  0  0  0
 38 46  1  0  0  0
 38 47  1  0  0  0
 39 64  1  0  0  0
 39 67  2  0  0  0
 40 52  1  0  0  0
 40 53  2  0  0  0
 40 58  1  0  0  0
 41118  1  0  0  0
 41119  1  0  0  0
 41120  1  0  0  0
 41 48  1  0  0  0
 42 43  1  0  0  0
 42 66  1  0  0  0
 42121  1  0  0  0
 42122  1  0  0  0
 43 44  1  0  0  0
 44123  1  0  0  0
 45 46  2  0  0  0
 45124  1  0  0  0
 46125  1  0  0  0
 47126  1  0  0  0
 47127  1  0  0  0
 48 56  1  0  0  0
 48 65  1  0  0  0
 48128  1  0  0  0
 49 50  1  0  0  0
 49 53  1  0  0  0
 49 64  1  0  0  0
 49129  1  0  0  0
 50 51  1  0  0  0
 50130  1  0  0  0
 50131  1  0  0  0
 51 52  1  0  0  0
 51132  1  0  0  0
 51133  1  0  0  0
 52134  1  0  0  0
 52135  1  0  0  0
 53 54  1  0  0  0
 54 55  2  0  0  0
 54136  1  0  0  0
 55 57  1  0  0  0
 55137  1  0  0  0
 56 69  2  0  0  0
 57 58  2  0  0  0
 57138  1  0  0  0
 58139  1  0  0  0
 59 60  1  0  0  0
 59 61  1  0  0  0
 59 62  1  0  0  0
 60140  1  0  0  0
 60141  1  0  0  0
 60142  1  0  0  0
 61143  1  0  0  0
 61144  1  0  0  0
 61145  1  0  0  0
 62146  1  0  0  0
 62147  1  0  0  0
 62148  1  0  0  0
 63 65  1  0  0  0
 63149  1  0  0  0
 63150  1  0  0  0
 63151  1  0  0  0
 64152  1  0  0  0
 65153  1  0  0  0
 68 85  1  0  0  0
 71 79  1  0  0  0
 71 89  3  0  0  0
 72 77  2  0  0  0
 72 79  1  0  0  0
 72154  1  0  0  0
 73 75  2  0  0  0
 73 80  1  0  0  0
 73155  1  0  0  0
 74 76  1  0  0  0
 74 80  2  0  0  0
 74156  1  0  0  0
 75 81  1  0  0  0
 75157  1  0  0  0
 76 81  2  0  0  0
 76158  1  0  0  0
 77 83  1  0  0  0
 77159  1  0  0  0
 78 79  2  0  0  0
 78 82  1  0  0  0
 78160  1  0  0  0
 80 84  1  0  0  0
 81 86  1  0  0  0
 82 83  2  0  0  0
 82 87  1  0  0  0
 83 90  1  0  0  0
 84 91  1  0  0  0
 84 93  2  0  0  0
 85 92  1  0  0  0
 85 94  2  0  0  0
 86 88  1  0  0  0
 86161  1  0  0  0
 86162  1  0  0  0
 87 91  1  0  0  0
 87163  1  0  0  0
 87164  1  0  0  0
 88 92  1  0  0  0
 88165  1  0  0  0
 88166  1  0  0  0
 90167  1  0  0  0
 91168  1  0  0  0
 92169  1  0  0  0
M  ISO  4   1 100  68 101  85 101  90 100
M  END
> <chiral flag>
0

> <version>
0

> <s_m_source_file>
/data/baiqing/PycharmProjects/Reinvent-master-3.2/result/LINK_invent/BTK/process_docking_weight1_custom_product_contain_oxygen_bond_distance_aromatic_linkinvent_7_9_3/rearranged_h_0001.sdf

> <i_m_source_file_index>
21

> <r_mmod_Potential_Energy-OPLS-2005>
16422.818359375

> <r_mmod_Stretch_Energy-OPLS-2005>
9873.1181640625

> <r_mmod_Bend_Energy-OPLS-2005>
550.558837890625

> <r_mmod_Torsional_Energy-OPLS-2005>
465.976440429688

> <r_mmod_Improper_Torsional_Energy-OPLS-2005>
67.109489440918

> <r_mmod_Van_der_Waal_Energy-OPLS-2005>
4345.4052734375

> <r_mmod_Electrostatic_Energy-OPLS-2005>
-482.459899902344

> <r_mmod_Solvation_Energy-OPLS-2005>
-248.877059936523

> <b_mmod_Minimization_Converged-OPLS-2005>
0

> <r_mmod_RMS_Derivative-OPLS-2005>
9.04575443267822

$$$$
21
                    3D
 Structure written by MMmdl.
156164  0  0  1  0            999 V2000
  -30.7640  -14.4044   20.6637 C   0  0  0  0  0  0
  -30.4119  -12.3081   19.4034 C   0  0  0  0  0  0
  -29.4823  -12.5268   18.1958 C   0  0  0  0  0  0
  -28.0106  -12.3697   18.6146 C   0  0  0  0  0  0
  -27.6616  -13.2062   19.8726 C   0  0  2  0  0  0
  -28.7007  -12.9827   20.9943 C   0  0  0  0  0  0
  -25.2564  -13.8153   20.5612 C   0  0  0  0  0  0
  -24.1829  -13.0434   20.9174 C   0  0  0  0  0  0
  -24.6390  -11.6906   20.8740 C   0  0  0  0  0  0
  -23.9067  -10.4284   21.0410 C   0  0  0  0  0  0
  -24.3611   -9.4206   21.9192 C   0  0  0  0  0  0
  -23.6281   -8.2251   22.0773 C   0  0  0  0  0  0
  -22.4266   -8.0290   21.3561 C   0  0  0  0  0  0
  -21.9903   -9.0272   20.4669 C   0  0  0  0  0  0
  -22.7241  -10.2138   20.3073 C   0  0  0  0  0  0
  -21.6853   -6.0733   22.5278 C   0  0  0  0  0  0
  -21.4015   -6.5637   23.8215 C   0  0  0  0  0  0
  -21.3663   -5.6795   24.9177 C   0  0  0  0  0  0
  -21.6044   -4.3065   24.7228 C   0  0  0  0  0  0
  -21.8819   -3.8149   23.4355 C   0  0  0  0  0  0
  -21.9193   -4.6958   22.3405 C   0  0  0  0  0  0
  -22.7852  -13.5244   21.1843 C   0  0  0  0  0  0
  -22.1659   -4.2138   21.0988 F   0  0  0  0  0  0
  -21.5622   -3.4551   25.7748 F   0  0  0  0  0  0
  -30.0422  -13.2697   20.4548 N   0  0  0  0  0  0
  -26.3018  -12.9339   20.3323 N   0  0  0  0  0  0
  -25.9317  -11.6493   20.5737 N   0  0  0  0  0  0
  -22.0483  -12.8257   22.0395 N   0  0  0  0  0  0
  -25.4198  -15.1864   20.3896 N   0  0  0  0  0  0
  -31.7948  -14.6673   20.0389 O   0  0  0  0  0  0
  -21.6651   -6.8873   21.4243 O   0  0  0  0  0  0
  -22.3551  -14.5562   20.6705 O   0  0  0  0  0  0
  -24.6159  -31.8703   23.2111 C   0  0  0  0  0  0
  -25.9056  -32.4834   23.8392 C   0  0  1  0  0  0
  -27.2319  -27.4451   20.0852 C   0  0  0  0  0  0
  -25.5923  -33.8628   24.2327 N   0  0  0  0  0  0
  -23.4009  -30.4934   21.5520 C   0  0  2  0  0  0
  -24.8462  -28.9573   20.1173 C   0  0  0  0  0  0
  -22.7419  -29.4653   22.4994 C   0  0  0  0  0  0
  -18.0293  -28.1358   22.8482 C   0  0  0  0  0  0
  -24.1490  -36.7308   23.2633 C   0  0  0  0  0  0
  -25.9310  -30.8355   21.3642 C   0  0  0  0  0  0
  -26.0096  -29.4727   20.7076 C   0  0  0  0  0  0
  -27.2089  -28.7237   20.6863 C   0  0  0  0  0  0
  -26.0552  -26.9368   19.4986 C   0  0  0  0  0  0
  -24.8622  -27.6859   19.5141 C   0  0  0  0  0  0
  -23.6082  -29.8240   20.1677 C   0  0  0  0  0  0
  -25.4111  -36.3109   24.0337 C   0  0  1  0  0  0
  -20.5869  -28.3643   23.1323 C   0  0  2  0  0  0
  -20.6802  -26.9391   22.5392 C   0  0  0  0  0  0
  -19.5750  -26.6334   21.5223 C   0  0  0  0  0  0
  -18.1936  -26.7888   22.1645 C   0  0  0  0  0  0
  -19.1534  -28.8817   23.2909 C   0  0  0  0  0  0
  -18.9451  -30.1421   23.8922 C   0  0  0  0  0  0
  -17.6446  -30.6554   24.0563 C   0  0  0  0  0  0
  -25.9046  -34.9475   23.5117 C   0  0  0  0  0  0
  -16.5339  -29.9049   23.6338 C   0  0  0  0  0  0
  -16.7277  -28.6480   23.0332 C   0  0  0  0  0  0
  -26.4495  -31.6613   25.0723 C   0  0  0  0  0  0
  -25.3751  -31.3730   26.1466 C   0  0  0  0  0  0
  -27.0335  -30.3052   24.6111 C   0  0  0  0  0  0
  -27.6069  -32.4333   25.7497 C   0  0  0  0  0  0
  -27.5586  -37.1802   24.8471 C   0  0  0  0  0  0
  -21.4153  -29.3030   22.3754 N   0  0  0  0  0  0
  -26.4308  -37.3785   23.9413 N   0  0  0  0  0  0
  -24.6668  -31.0812   22.1012 N   0  0  0  0  0  0
  -23.4200  -28.8191   23.3013 O   0  0  0  0  0  0
  -28.3786  -26.6842   20.0741 O   0  0  0  0  0  0
  -26.5586  -34.8928   22.4669 O   0  0  0  0  0  0
  -23.5356  -32.1453   23.7525 O   0  0  0  0  0  0
  -28.1708  -18.1599   21.3546 C   0  0  0  0  0  0
  -30.4409  -18.9085   21.8061 C   0  0  0  0  0  0
  -28.6141  -16.8182   21.3375 C   0  0  0  0  0  0
  -30.8826  -17.5669   21.7966 C   0  0  0  0  0  0
  -29.0760  -19.2177   21.6110 C   0  0  0  0  0  0
  -29.9707  -16.5111   21.5719 C   0  0  0  0  0  0
  -28.5622  -20.6431   21.8610 C   0  0  0  0  0  0
  -28.5983  -24.1768   20.2259 C   0  0  0  0  0  0
  -28.4510  -23.0198   21.2499 C   0  0  0  0  0  0
  -28.3171  -25.5310   20.9254 C   0  0  0  0  0  0
  -30.3986  -15.1620   21.7072 N   0  0  0  0  0  0
  -28.7790  -21.6428   20.7818 N   0  3  0  0  0  0
  -31.4569  -12.4017   19.0994 H   0  0  0  0  0  0
  -30.3062  -11.2890   19.7797 H   0  0  0  0  0  0
  -29.7208  -11.8174   17.4027 H   0  0  0  0  0  0
  -29.6444  -13.5212   17.7771 H   0  0  0  0  0  0
  -27.8291  -11.3111   18.8099 H   0  0  0  0  0  0
  -27.3553  -12.6438   17.7874 H   0  0  0  0  0  0
  -27.7106  -14.2538   19.5791 H   0  0  0  0  0  0
  -28.6620  -11.9487   21.3395 H   0  0  0  0  0  0
  -28.4502  -13.5924   21.8630 H   0  0  0  0  0  0
  -25.2750   -9.5677   22.4768 H   0  0  0  0  0  0
  -23.9992   -7.4637   22.7497 H   0  0  0  0  0  0
  -21.0832   -8.8799   19.8965 H   0  0  0  0  0  0
  -22.3709  -10.9684   19.6187 H   0  0  0  0  0  0
  -21.2006   -7.6142   23.9716 H   0  0  0  0  0  0
  -21.1485   -6.0521   25.9075 H   0  0  0  0  0  0
  -22.0591   -2.7609   23.2865 H   0  0  0  0  0  0
  -22.4079  -11.9919   22.4796 H   0  0  0  0  0  0
  -21.1106  -13.1314   22.2610 H   0  0  0  0  0  0
  -24.6401  -15.8293   20.4694 H   0  0  0  0  0  0
  -26.2484  -15.6132   19.9966 H   0  0  0  0  0  0
  -26.7108  -32.5548   23.1142 H   0  0  0  0  0  0
  -25.0145  -33.9792   25.0516 H   0  0  0  0  0  0
  -22.6875  -31.3092   21.4140 H   0  0  0  0  0  0
  -23.3755  -35.9641   23.3327 H   0  0  0  0  0  0
  -24.3582  -36.8903   22.2045 H   0  0  0  0  0  0
  -23.7256  -37.6522   23.6636 H   0  0  0  0  0  0
  -26.0452  -31.6029   20.5971 H   0  0  0  0  0  0
  -26.8200  -30.8866   21.9832 H   0  0  0  0  0  0
  -28.1094  -29.1136   21.1397 H   0  0  0  0  0  0
  -26.0648  -25.9626   19.0318 H   0  0  0  0  0  0
  -23.9640  -27.2822   19.0645 H   0  0  0  0  0  0
  -23.7163  -30.6016   19.4101 H   0  0  0  0  0  0
  -22.7315  -29.2446   19.8717 H   0  0  0  0  0  0
  -25.1281  -36.1972   25.0831 H   0  0  0  0  0  0
  -20.9954  -28.3214   24.1452 H   0  0  0  0  0  0
  -20.5795  -26.2228   23.3564 H   0  0  0  0  0  0
  -21.6647  -26.7503   22.1105 H   0  0  0  0  0  0
  -19.6938  -25.6232   21.1282 H   0  0  0  0  0  0
  -19.6690  -27.3124   20.6730 H   0  0  0  0  0  0
  -17.4192  -26.6592   21.4059 H   0  0  0  0  0  0
  -18.0373  -26.0064   22.9090 H   0  0  0  0  0  0
  -19.7938  -30.7233   24.2301 H   0  0  0  0  0  0
  -17.5008  -31.6237   24.5166 H   0  0  0  0  0  0
  -15.5347  -30.2931   23.7663 H   0  0  0  0  0  0
  -15.8679  -28.0797   22.7021 H   0  0  0  0  0  0
  -24.5902  -30.7112   25.7808 H   0  0  0  0  0  0
  -24.8965  -32.2890   26.4928 H   0  0  0  0  0  0
  -25.8083  -30.8881   27.0216 H   0  0  0  0  0  0
  -26.2881  -29.6805   24.1176 H   0  0  0  0  0  0
  -27.4128  -29.7313   25.4577 H   0  0  0  0  0  0
  -27.8712  -30.4384   23.9257 H   0  0  0  0  0  0
  -27.2672  -33.3610   26.2110 H   0  0  0  0  0  0
  -28.3859  -32.6923   25.0317 H   0  0  0  0  0  0
  -28.0758  -31.8436   26.5384 H   0  0  0  0  0  0
  -28.2588  -38.0104   24.7493 H   0  0  0  0  0  0
  -28.1071  -36.2621   24.6299 H   0  0  0  0  0  0
  -27.2297  -37.1488   25.8872 H   0  0  0  0  0  0
  -20.9303  -29.8797   21.7033 H   0  0  0  0  0  0
  -26.0196  -38.2868   24.1403 H   0  0  0  0  0  0
  -27.1146  -18.3642   21.2400 H   0  0  0  0  0  0
  -31.1511  -19.6929   22.0306 H   0  0  0  0  0  0
  -27.8923  -16.0248   21.2092 H   0  0  0  0  0  0
  -31.9244  -17.3551   21.9984 H   0  0  0  0  0  0
  -29.0444  -20.9945   22.7743 H   0  0  0  0  0  0
  -27.4970  -20.5988   22.0910 H   0  0  0  0  0  0
  -27.9039  -24.0339   19.3968 H   0  0  0  0  0  0
  -29.6038  -24.1890   19.8064 H   0  0  0  0  0  0
  -27.4252  -23.0210   21.6235 H   0  0  0  0  0  0
  -29.0883  -23.2442   22.1063 H   0  0  0  0  0  0
  -29.0567  -25.6785   21.7144 H   0  0  0  0  0  0
  -27.3571  -25.4652   21.4431 H   0  0  0  0  0  0
  -31.0952  -15.0678   22.4330 H   0  0  0  0  0  0
  -28.2014  -21.3944   19.9954 H   0  0  0  0  0  0
  -29.7421  -21.6078   20.4876 H   0  0  0  0  0  0
  1 25  1  0  0  0
  1 30  2  0  0  0
  1 81  1  0  0  0
  2  3  1  0  0  0
  2 25  1  0  0  0
  2 83  1  0  0  0
  2 84  1  0  0  0
  3  4  1  0  0  0
  3 85  1  0  0  0
  3 86  1  0  0  0
  4  5  1  0  0  0
  4 87  1  0  0  0
  4 88  1  0  0  0
  5  6  1  0  0  0
  5 26  1  0  0  0
  5 89  1  0  0  0
  6 25  1  0  0  0
  6 90  1  0  0  0
  6 91  1  0  0  0
  7  8  2  0  0  0
  7 26  1  0  0  0
  7 29  1  0  0  0
  8  9  1  0  0  0
  8 22  1  0  0  0
  9 10  1  0  0  0
  9 27  2  0  0  0
 10 11  2  0  0  0
 10 15  1  0  0  0
 11 12  1  0  0  0
 11 92  1  0  0  0
 12 13  2  0  0  0
 12 93  1  0  0  0
 13 14  1  0  0  0
 13 31  1  0  0  0
 14 15  2  0  0  0
 14 94  1  0  0  0
 15 95  1  0  0  0
 16 17  2  0  0  0
 16 21  1  0  0  0
 16 31  1  0  0  0
 17 18  1  0  0  0
 17 96  1  0  0  0
 18 19  2  0  0  0
 18 97  1  0  0  0
 19 20  1  0  0  0
 19 24  1  0  0  0
 20 21  2  0  0  0
 20 98  1  0  0  0
 21 23  1  0  0  0
 22 28  1  0  0  0
 22 32  2  0  0  0
 26 27  1  0  0  0
 28 99  1  0  0  0
 28100  1  0  0  0
 29101  1  0  0  0
 29102  1  0  0  0
 33 34  1  0  0  0
 33 66  1  0  0  0
 33 70  2  0  0  0
 34 36  1  0  0  0
 34 59  1  0  0  0
 34103  1  0  0  0
 35 44  2  0  0  0
 35 45  1  0  0  0
 35 68  1  0  0  0
 36 56  1  0  0  0
 36104  1  0  0  0
 37 39  1  0  0  0
 37 47  1  0  0  0
 37 66  1  0  0  0
 37105  1  0  0  0
 38 43  2  0  0  0
 38 46  1  0  0  0
 38 47  1  0  0  0
 39 64  1  0  0  0
 39 67  2  0  0  0
 40 52  1  0  0  0
 40 53  2  0  0  0
 40 58  1  0  0  0
 41106  1  0  0  0
 41107  1  0  0  0
 41108  1  0  0  0
 41 48  1  0  0  0
 42 43  1  0  0  0
 42 66  1  0  0  0
 42109  1  0  0  0
 42110  1  0  0  0
 43 44  1  0  0  0
 44111  1  0  0  0
 45 46  2  0  0  0
 45112  1  0  0  0
 46113  1  0  0  0
 47114  1  0  0  0
 47115  1  0  0  0
 48 56  1  0  0  0
 48 65  1  0  0  0
 48116  1  0  0  0
 49 50  1  0  0  0
 49 53  1  0  0  0
 49 64  1  0  0  0
 49117  1  0  0  0
 50 51  1  0  0  0
 50118  1  0  0  0
 50119  1  0  0  0
 51 52  1  0  0  0
 51120  1  0  0  0
 51121  1  0  0  0
 52122  1  0  0  0
 52123  1  0  0  0
 53 54  1  0  0  0
 54 55  2  0  0  0
 54124  1  0  0  0
 55 57  1  0  0  0
 55125  1  0  0  0
 56 69  2  0  0  0
 57 58  2  0  0  0
 57126  1  0  0  0
 58127  1  0  0  0
 59 60  1  0  0  0
 59 61  1  0  0  0
 59 62  1  0  0  0
 60128  1  0  0  0
 60129  1  0  0  0
 60130  1  0  0  0
 61131  1  0  0  0
 61132  1  0  0  0
 61133  1  0  0  0
 62134  1  0  0  0
 62135  1  0  0  0
 62136  1  0  0  0
 63 65  1  0  0  0
 63137  1  0  0  0
 63138  1  0  0  0
 63139  1  0  0  0
 64140  1  0  0  0
 65141  1  0  0  0
 68 80  1  0  0  0
 71 73  2  0  0  0
 71 75  1  0  0  0
 71142  1  0  0  0
 72 74  1  0  0  0
 72 75  2  0  0  0
 72143  1  0  0  0
 73 76  1  0  0  0
 73144  1  0  0  0
 74 76  2  0  0  0
 74145  1  0  0  0
 75 77  1  0  0  0
 76 81  1  0  0  0
 77 82  1  0  0  0
 77146  1  0  0  0
 77147  1  0  0  0
 78 79  1  0  0  0
 78 80  1  0  0  0
 78148  1  0  0  0
 78149  1  0  0  0
 79 82  1  0  0  0
 79150  1  0  0  0
 79151  1  0  0  0
 80152  1  0  0  0
 80153  1  0  0  0
 81154  1  0  0  0
 82155  1  0  0  0
 82156  1  0  0  0
M  CHG  1  82   1
M  ISO  4   1 100  68 101  80 101  81 100
M  END
> <chiral flag>
0

> <version>
0

> <s_m_source_file>
/data/baiqing/PycharmProjects/Reinvent-master-3.2/result/LINK_invent/BTK/process_docking_weight1_custom_product_contain_oxygen_bond_distance_aromatic_linkinvent_7_9_3/rearranged_h_0001.sdf

> <i_m_source_file_index>
22

> <r_mmod_Potential_Energy-OPLS-2005>
-196.190368652344

> <r_mmod_Stretch_Energy-OPLS-2005>
35.6467056274414

> <r_mmod_Bend_Energy-OPLS-2005>
100.445503234863

> <r_mmod_Torsional_Energy-OPLS-2005>
287.154571533203

> <r_mmod_Improper_Torsional_Energy-OPLS-2005>
9.43102264404297

> <r_mmod_Van_der_Waal_Energy-OPLS-2005>
140.592468261719

> <r_mmod_Electrostatic_Energy-OPLS-2005>
-302.904388427734

> <r_mmod_Solvation_Energy-OPLS-2005>
-475.400085449219

> <b_mmod_Minimization_Converged-OPLS-2005>
0

> <r_mmod_RMS_Derivative-OPLS-2005>
2.99270963668823

$$$$
22
                    3D
 Structure written by MMmdl.
157166  0  0  1  0            999 V2000
  -30.6251  -14.8603   20.4383 C   0  0  0  0  0  0
  -30.4223  -12.5397   19.4791 C   0  0  0  0  0  0
  -29.5037  -12.5111   18.2400 C   0  0  0  0  0  0
  -28.0391  -12.3054   18.6667 C   0  0  0  0  0  0
  -27.6242  -13.2385   19.8341 C   0  0  2  0  0  0
  -28.6729  -13.2749   20.9659 C   0  0  0  0  0  0
  -25.2446  -13.8190   20.5722 C   0  0  0  0  0  0
  -24.1759  -13.0425   20.9237 C   0  0  0  0  0  0
  -24.6372  -11.6909   20.8775 C   0  0  0  0  0  0
  -23.9061  -10.4285   21.0424 C   0  0  0  0  0  0
  -24.3614   -9.4197   21.9195 C   0  0  0  0  0  0
  -23.6290   -8.2233   22.0756 C   0  0  0  0  0  0
  -22.4273   -8.0276   21.3544 C   0  0  0  0  0  0
  -21.9912   -9.0249   20.4647 C   0  0  0  0  0  0
  -22.7239  -10.2128   20.3064 C   0  0  0  0  0  0
  -21.6850   -6.0734   22.5278 C   0  0  0  0  0  0
  -21.4011   -6.5637   23.8211 C   0  0  0  0  0  0
  -21.3657   -5.6792   24.9174 C   0  0  0  0  0  0
  -21.6045   -4.3054   24.7225 C   0  0  0  0  0  0
  -21.8819   -3.8145   23.4346 C   0  0  0  0  0  0
  -21.9190   -4.6963   22.3402 C   0  0  0  0  0  0
  -22.7783  -13.5205   21.1887 C   0  0  0  0  0  0
  -22.1660   -4.2149   21.0980 F   0  0  0  0  0  0
  -21.5629   -3.4539   25.7737 F   0  0  0  0  0  0
  -29.9538  -13.6478   20.3545 N   0  0  0  0  0  0
  -26.2862  -12.9405   20.3270 N   0  0  0  0  0  0
  -25.9302  -11.6545   20.5777 N   0  0  0  0  0  0
  -22.0431  -12.8194   22.0443 N   0  0  0  0  0  0
  -25.4106  -15.1912   20.4126 N   0  0  0  0  0  0
  -31.8394  -14.8489   20.2108 O   0  0  0  0  0  0
  -21.6635   -6.8875   21.4240 O   0  0  0  0  0  0
  -22.3472  -14.5510   20.6729 O   0  0  0  0  0  0
  -24.6387  -31.8489   23.1937 C   0  0  0  0  0  0
  -25.9182  -32.4720   23.8305 C   0  0  1  0  0  0
  -27.2105  -27.1862   20.1474 C   0  0  0  0  0  0
  -25.5952  -33.8525   24.2226 N   0  0  0  0  0  0
  -23.4394  -30.4708   21.5380 C   0  0  2  0  0  0
  -24.8874  -28.9072   20.1119 C   0  0  0  0  0  0
  -22.7540  -29.4569   22.4877 C   0  0  0  0  0  0
  -18.0301  -28.1390   22.8478 C   0  0  0  0  0  0
  -24.1489  -36.7259   23.2642 C   0  0  0  0  0  0
  -25.9923  -30.7382   21.3864 C   0  0  0  0  0  0
  -26.0634  -29.3541   20.7293 C   0  0  0  0  0  0
  -27.2301  -28.5088   20.7309 C   0  0  0  0  0  0
  -26.0164  -26.8354   19.4822 C   0  0  0  0  0  0
  -24.8736  -27.6591   19.4736 C   0  0  0  0  0  0
  -23.6632  -29.8049   20.1554 C   0  0  0  0  0  0
  -25.4118  -36.3046   24.0323 C   0  0  1  0  0  0
  -20.5910  -28.3709   23.1246 C   0  0  2  0  0  0
  -20.6788  -26.9418   22.5401 C   0  0  0  0  0  0
  -19.5762  -26.6381   21.5207 C   0  0  0  0  0  0
  -18.1942  -26.7931   22.1619 C   0  0  0  0  0  0
  -19.1557  -28.8865   23.2858 C   0  0  0  0  0  0
  -18.9477  -30.1465   23.8877 C   0  0  0  0  0  0
  -17.6475  -30.6590   24.0558 C   0  0  0  0  0  0
  -25.9066  -34.9421   23.5078 C   0  0  0  0  0  0
  -16.5366  -29.9084   23.6338 C   0  0  0  0  0  0
  -16.7287  -28.6504   23.0355 C   0  0  0  0  0  0
  -26.4527  -31.6569   25.0723 C   0  0  0  0  0  0
  -25.3728  -31.3735   26.1426 C   0  0  0  0  0  0
  -27.0395  -30.2977   24.6265 C   0  0  0  0  0  0
  -27.6066  -32.4331   25.7502 C   0  0  0  0  0  0
  -27.5574  -37.1785   24.8469 C   0  0  0  0  0  0
  -21.4237  -29.3050   22.3625 N   0  0  0  0  0  0
  -26.4285  -37.3754   23.9413 N   0  0  0  0  0  0
  -24.7094  -31.0393   22.0948 N   0  0  0  0  0  0
  -23.4206  -28.8104   23.2999 O   0  0  0  0  0  0
  -28.2662  -26.2224   20.1767 O   0  0  0  0  0  0
  -26.5639  -34.8909   22.4648 O   0  0  0  0  0  0
  -23.5519  -32.1339   23.7188 O   0  0  0  0  0  0
  -30.5497  -22.5299   18.6505 C   0  0  0  0  0  0
  -30.3513  -21.2150   19.1323 C   0  0  0  0  0  0
  -29.8008  -23.6313   19.1240 C   0  0  0  0  0  0
  -28.6304  -22.0849   20.5933 C   0  0  0  0  0  0
  -29.3931  -20.9132   20.1248 C   0  0  0  0  0  0
  -28.8097  -23.4703   20.1106 C   0  0  0  0  0  0
  -28.8665  -18.2697   19.5459 C   0  0  0  0  0  0
  -30.6082  -18.6866   21.1277 C   0  0  0  0  0  0
  -28.8242  -16.7125   19.9659 C   0  0  0  0  0  0
  -30.5655  -17.1565   21.5967 C   0  0  0  0  0  0
  -29.2833  -19.3565   20.6119 C   0  0  0  0  0  0
  -27.9452  -24.7679   20.5596 C   0  0  0  0  0  0
  -29.9833  -16.1011   20.6981 N   0  0  0  0  0  0
  -31.4594  -12.6657   19.1642 H   0  0  0  0  0  0
  -30.3871  -11.5883   20.0121 H   0  0  0  0  0  0
  -29.8104  -11.7169   17.5578 H   0  0  0  0  0  0
  -29.5990  -13.4468   17.6865 H   0  0  0  0  0  0
  -27.9315  -11.2642   18.9730 H   0  0  0  0  0  0
  -27.3716  -12.4421   17.8146 H   0  0  0  0  0  0
  -27.5774  -14.2330   19.3979 H   0  0  0  0  0  0
  -28.7460  -12.3099   21.4691 H   0  0  0  0  0  0
  -28.3874  -14.0038   21.7264 H   0  0  0  0  0  0
  -25.2758   -9.5672   22.4775 H   0  0  0  0  0  0
  -23.9996   -7.4623   22.7475 H   0  0  0  0  0  0
  -21.0844   -8.8771   19.8951 H   0  0  0  0  0  0
  -22.3702  -10.9671   19.6176 H   0  0  0  0  0  0
  -21.2003   -7.6146   23.9715 H   0  0  0  0  0  0
  -21.1480   -6.0522   25.9076 H   0  0  0  0  0  0
  -22.0600   -2.7609   23.2846 H   0  0  0  0  0  0
  -22.4049  -11.9856   22.4829 H   0  0  0  0  0  0
  -21.1049  -13.1221   22.2653 H   0  0  0  0  0  0
  -24.6427  -15.8437   20.5271 H   0  0  0  0  0  0
  -26.2608  -15.6322   20.0886 H   0  0  0  0  0  0
  -26.7242  -32.5344   23.1033 H   0  0  0  0  0  0
  -25.0114  -33.9652   25.0383 H   0  0  0  0  0  0
  -22.7399  -31.2955   21.3877 H   0  0  0  0  0  0
  -23.3759  -35.9583   23.3301 H   0  0  0  0  0  0
  -24.3577  -36.8885   22.2057 H   0  0  0  0  0  0
  -23.7234  -37.6452   23.6676 H   0  0  0  0  0  0
  -26.1434  -31.4952   20.6154 H   0  0  0  0  0  0
  -26.8651  -30.7867   22.0259 H   0  0  0  0  0  0
  -28.1289  -28.8451   21.2287 H   0  0  0  0  0  0
  -25.9451  -25.8903   18.9639 H   0  0  0  0  0  0
  -23.9793  -27.3173   18.9711 H   0  0  0  0  0  0
  -23.7984  -30.5816   19.4017 H   0  0  0  0  0  0
  -22.7789  -29.2461   19.8438 H   0  0  0  0  0  0
  -25.1305  -36.1880   25.0815 H   0  0  0  0  0  0
  -21.0009  -28.3294   24.1365 H   0  0  0  0  0  0
  -20.5683  -26.2319   23.3613 H   0  0  0  0  0  0
  -21.6655  -26.7425   22.1196 H   0  0  0  0  0  0
  -19.6925  -25.6286   21.1249 H   0  0  0  0  0  0
  -19.6704  -27.3182   20.6729 H   0  0  0  0  0  0
  -17.4211  -26.6673   21.4025 H   0  0  0  0  0  0
  -18.0345  -26.0075   22.9017 H   0  0  0  0  0  0
  -19.7951  -30.7286   24.2238 H   0  0  0  0  0  0
  -17.5030  -31.6268   24.5163 H   0  0  0  0  0  0
  -15.5367  -30.2981   23.7674 H   0  0  0  0  0  0
  -15.8686  -28.0820   22.7081 H   0  0  0  0  0  0
  -24.5926  -30.7059   25.7754 H   0  0  0  0  0  0
  -24.8897  -32.2907   26.4808 H   0  0  0  0  0  0
  -25.8031  -30.8947   27.0232 H   0  0  0  0  0  0
  -26.3003  -29.6696   24.1280 H   0  0  0  0  0  0
  -27.4044  -29.7274   25.4819 H   0  0  0  0  0  0
  -27.8895  -30.4240   23.9555 H   0  0  0  0  0  0
  -27.2671  -33.3659   26.2021 H   0  0  0  0  0  0
  -28.3908  -32.6841   25.0346 H   0  0  0  0  0  0
  -28.0698  -31.8489   26.5463 H   0  0  0  0  0  0
  -28.2586  -38.0088   24.7520 H   0  0  0  0  0  0
  -28.1077  -36.2618   24.6295 H   0  0  0  0  0  0
  -27.2293  -37.1430   25.8872 H   0  0  0  0  0  0
  -20.9436  -29.8775   21.6821 H   0  0  0  0  0  0
  -26.0155  -38.2821   24.1425 H   0  0  0  0  0  0
  -31.2986  -22.6985   17.8887 H   0  0  0  0  0  0
  -30.9600  -20.4206   18.7229 H   0  0  0  0  0  0
  -29.9849  -24.6144   18.7128 H   0  0  0  0  0  0
  -27.8746  -21.9177   21.3481 H   0  0  0  0  0  0
  -27.8881  -18.5417   19.1482 H   0  0  0  0  0  0
  -29.5464  -18.3558   18.6971 H   0  0  0  0  0  0
  -31.3669  -18.7662   20.3484 H   0  0  0  0  0  0
  -30.9909  -19.2856   21.9549 H   0  0  0  0  0  0
  -28.6529  -16.1357   19.0569 H   0  0  0  0  0  0
  -27.9491  -16.5540   20.5958 H   0  0  0  0  0  0
  -29.9905  -17.1103   22.5222 H   0  0  0  0  0  0
  -31.5769  -16.8637   21.8836 H   0  0  0  0  0  0
  -28.5533  -19.3360   21.4223 H   0  0  0  0  0  0
  -27.9390  -24.7527   21.6496 H   0  0  0  0  0  0
  -26.9207  -24.5235   20.2877 H   0  0  0  0  0  0
  1 25  1  0  0  0
  1 30  2  0  0  0
  1 83  1  0  0  0
  2  3  1  0  0  0
  2 25  1  0  0  0
  2 84  1  0  0  0
  2 85  1  0  0  0
  3  4  1  0  0  0
  3 86  1  0  0  0
  3 87  1  0  0  0
  4  5  1  0  0  0
  4 88  1  0  0  0
  4 89  1  0  0  0
  5  6  1  0  0  0
  5 26  1  0  0  0
  5 90  1  0  0  0
  6 25  1  0  0  0
  6 91  1  0  0  0
  6 92  1  0  0  0
  7  8  2  0  0  0
  7 26  1  0  0  0
  7 29  1  0  0  0
  8  9  1  0  0  0
  8 22  1  0  0  0
  9 10  1  0  0  0
  9 27  2  0  0  0
 10 11  2  0  0  0
 10 15  1  0  0  0
 11 12  1  0  0  0
 11 93  1  0  0  0
 12 13  2  0  0  0
 12 94  1  0  0  0
 13 14  1  0  0  0
 13 31  1  0  0  0
 14 15  2  0  0  0
 14 95  1  0  0  0
 15 96  1  0  0  0
 16 17  2  0  0  0
 16 21  1  0  0  0
 16 31  1  0  0  0
 17 18  1  0  0  0
 17 97  1  0  0  0
 18 19  2  0  0  0
 18 98  1  0  0  0
 19 20  1  0  0  0
 19 24  1  0  0  0
 20 21  2  0  0  0
 20 99  1  0  0  0
 21 23  1  0  0  0
 22 28  1  0  0  0
 22 32  2  0  0  0
 26 27  1  0  0  0
 28100  1  0  0  0
 28101  1  0  0  0
 29102  1  0  0  0
 29103  1  0  0  0
 33 34  1  0  0  0
 33 66  1  0  0  0
 33 70  2  0  0  0
 34 36  1  0  0  0
 34 59  1  0  0  0
 34104  1  0  0  0
 35 44  2  0  0  0
 35 45  1  0  0  0
 35 68  1  0  0  0
 36 56  1  0  0  0
 36105  1  0  0  0
 37 39  1  0  0  0
 37 47  1  0  0  0
 37 66  1  0  0  0
 37106  1  0  0  0
 38 43  2  0  0  0
 38 46  1  0  0  0
 38 47  1  0  0  0
 39 64  1  0  0  0
 39 67  2  0  0  0
 40 52  1  0  0  0
 40 53  2  0  0  0
 40 58  1  0  0  0
 41107  1  0  0  0
 41108  1  0  0  0
 41109  1  0  0  0
 41 48  1  0  0  0
 42 43  1  0  0  0
 42 66  1  0  0  0
 42110  1  0  0  0
 42111  1  0  0  0
 43 44  1  0  0  0
 44112  1  0  0  0
 45 46  2  0  0  0
 45113  1  0  0  0
 46114  1  0  0  0
 47115  1  0  0  0
 47116  1  0  0  0
 48 56  1  0  0  0
 48 65  1  0  0  0
 48117  1  0  0  0
 49 50  1  0  0  0
 49 53  1  0  0  0
 49 64  1  0  0  0
 49118  1  0  0  0
 50 51  1  0  0  0
 50119  1  0  0  0
 50120  1  0  0  0
 51 52  1  0  0  0
 51121  1  0  0  0
 51122  1  0  0  0
 52123  1  0  0  0
 52124  1  0  0  0
 53 54  1  0  0  0
 54 55  2  0  0  0
 54125  1  0  0  0
 55 57  1  0  0  0
 55126  1  0  0  0
 56 69  2  0  0  0
 57 58  2  0  0  0
 57127  1  0  0  0
 58128  1  0  0  0
 59 60  1  0  0  0
 59 61  1  0  0  0
 59 62  1  0  0  0
 60129  1  0  0  0
 60130  1  0  0  0
 60131  1  0  0  0
 61132  1  0  0  0
 61133  1  0  0  0
 61134  1  0  0  0
 62135  1  0  0  0
 62136  1  0  0  0
 62137  1  0  0  0
 63 65  1  0  0  0
 63138  1  0  0  0
 63139  1  0  0  0
 63140  1  0  0  0
 64141  1  0  0  0
 65142  1  0  0  0
 68 82  1  0  0  0
 71 72  2  0  0  0
 71 73  1  0  0  0
 71143  1  0  0  0
 72 75  1  0  0  0
 72144  1  0  0  0
 73 76  2  0  0  0
 73145  1  0  0  0
 74 75  2  0  0  0
 74 76  1  0  0  0
 74146  1  0  0  0
 75 81  1  0  0  0
 76 82  1  0  0  0
 77 79  1  0  0  0
 77 81  1  0  0  0
 77147  1  0  0  0
 77148  1  0  0  0
 78 80  1  0  0  0
 78 81  1  0  0  0
 78149  1  0  0  0
 78150  1  0  0  0
 79 83  1  0  0  0
 79151  1  0  0  0
 79152  1  0  0  0
 80 83  1  0  0  0
 80153  1  0  0  0
 80154  1  0  0  0
 81155  1  0  0  0
 82156  1  0  0  0
 82157  1  0  0  0
M  ISO  4   1 100  68 101  82 101  83 100
M  END
> <chiral flag>
0

> <version>
0

> <s_m_source_file>
/data/baiqing/PycharmProjects/Reinvent-master-3.2/result/LINK_invent/BTK/process_docking_weight1_custom_product_contain_oxygen_bond_distance_aromatic_linkinvent_7_9_3/rearranged_h_0001.sdf

> <i_m_source_file_index>
23

> <r_mmod_Potential_Energy-OPLS-2005>
554.944641113281

> <r_mmod_Stretch_Energy-OPLS-2005>
177.343124389648

> <r_mmod_Bend_Energy-OPLS-2005>
217.416442871094

> <r_mmod_Torsional_Energy-OPLS-2005>
343.445617675781

> <r_mmod_Improper_Torsional_Energy-OPLS-2005>
2.19480967521667

> <r_mmod_Van_der_Waal_Energy-OPLS-2005>
132.541778564453

> <r_mmod_Electrostatic_Energy-OPLS-2005>
-267.993469238281

> <r_mmod_Solvation_Energy-OPLS-2005>
-195.901062011719

> <b_mmod_Minimization_Converged-OPLS-2005>
0

> <r_mmod_RMS_Derivative-OPLS-2005>
0.53320986032486

$$$$
23
                    3D
 Structure written by MMmdl.
151159  0  0  1  0            999 V2000
  -30.6744  -14.6399   20.4690 C   0  0  0  0  0  0
  -30.4163  -12.3859   19.4690 C   0  0  0  0  0  0
  -29.5021  -12.4816   18.2300 C   0  0  0  0  0  0
  -28.0250  -12.3324   18.6410 C   0  0  0  0  0  0
  -27.6430  -13.2284   19.8511 C   0  0  2  0  0  0
  -28.6870  -13.1434   20.9864 C   0  0  0  0  0  0
  -25.2510  -13.8209   20.5702 C   0  0  0  0  0  0
  -24.1793  -13.0455   20.9221 C   0  0  0  0  0  0
  -24.6377  -11.6933   20.8753 C   0  0  0  0  0  0
  -23.9058  -10.4305   21.0409 C   0  0  0  0  0  0
  -24.3614   -9.4222   21.9186 C   0  0  0  0  0  0
  -23.6294   -8.2250   22.0747 C   0  0  0  0  0  0
  -22.4274   -8.0288   21.3540 C   0  0  0  0  0  0
  -21.9909   -9.0264   20.4645 C   0  0  0  0  0  0
  -22.7232  -10.2146   20.3058 C   0  0  0  0  0  0
  -21.6851   -6.0743   22.5280 C   0  0  0  0  0  0
  -21.4018   -6.5645   23.8218 C   0  0  0  0  0  0
  -21.3658   -5.6793   24.9178 C   0  0  0  0  0  0
  -21.6039   -4.3056   24.7225 C   0  0  0  0  0  0
  -21.8818   -3.8152   23.4346 C   0  0  0  0  0  0
  -21.9193   -4.6970   22.3404 C   0  0  0  0  0  0
  -22.7812  -13.5237   21.1884 C   0  0  0  0  0  0
  -22.1659   -4.2160   21.0980 F   0  0  0  0  0  0
  -21.5626   -3.4537   25.7736 F   0  0  0  0  0  0
  -29.9978  -13.4506   20.4051 N   0  0  0  0  0  0
  -26.2935  -12.9411   20.3286 N   0  0  0  0  0  0
  -25.9305  -11.6556   20.5757 N   0  0  0  0  0  0
  -22.0453  -12.8226   22.0441 N   0  0  0  0  0  0
  -25.4195  -15.1933   20.4116 N   0  0  0  0  0  0
  -31.8630  -14.6982   20.1460 O   0  0  0  0  0  0
  -21.6637   -6.8886   21.4240 O   0  0  0  0  0  0
  -22.3495  -14.5541   20.6732 O   0  0  0  0  0  0
  -24.6250  -31.8605   23.2020 C   0  0  0  0  0  0
  -25.9102  -32.4787   23.8348 C   0  0  1  0  0  0
  -27.2236  -27.3269   20.1256 C   0  0  0  0  0  0
  -25.5919  -33.8582   24.2287 N   0  0  0  0  0  0
  -23.4193  -30.4825   21.5441 C   0  0  2  0  0  0
  -24.8671  -28.9358   20.1125 C   0  0  0  0  0  0
  -22.7472  -29.4622   22.4936 C   0  0  0  0  0  0
  -18.0286  -28.1394   22.8491 C   0  0  0  0  0  0
  -24.1481  -36.7293   23.2640 C   0  0  0  0  0  0
  -25.9581  -30.7954   21.3689 C   0  0  0  0  0  0
  -26.0349  -29.4210   20.7161 C   0  0  0  0  0  0
  -27.2205  -28.6286   20.7106 C   0  0  0  0  0  0
  -26.0395  -26.8925   19.4940 C   0  0  0  0  0  0
  -24.8701  -27.6762   19.4918 C   0  0  0  0  0  0
  -23.6343  -29.8149   20.1600 C   0  0  0  0  0  0
  -25.4107  -36.3092   24.0337 C   0  0  1  0  0  0
  -20.5886  -28.3695   23.1287 C   0  0  2  0  0  0
  -20.6776  -26.9419   22.5415 C   0  0  0  0  0  0
  -19.5752  -26.6393   21.5217 C   0  0  0  0  0  0
  -18.1932  -26.7938   22.1628 C   0  0  0  0  0  0
  -19.1539  -28.8861   23.2886 C   0  0  0  0  0  0
  -18.9461  -30.1464   23.8903 C   0  0  0  0  0  0
  -17.6463  -30.6597   24.0568 C   0  0  0  0  0  0
  -25.9043  -34.9458   23.5115 C   0  0  0  0  0  0
  -16.5353  -29.9099   23.6329 C   0  0  0  0  0  0
  -16.7274  -28.6515   23.0351 C   0  0  0  0  0  0
  -26.4494  -31.6589   25.0707 C   0  0  0  0  0  0
  -25.3737  -31.3724   26.1442 C   0  0  0  0  0  0
  -27.0333  -30.3019   24.6139 C   0  0  0  0  0  0
  -27.6058  -32.4312   25.7483 C   0  0  0  0  0  0
  -27.5576  -37.1806   24.8474 C   0  0  0  0  0  0
  -21.4185  -29.3047   22.3681 N   0  0  0  0  0  0
  -26.4288  -37.3783   23.9413 N   0  0  0  0  0  0
  -24.6865  -31.0622   22.0963 N   0  0  0  0  0  0
  -23.4192  -28.8160   23.3018 O   0  0  0  0  0  0
  -28.3273  -26.4669   20.1494 O   0  0  0  0  0  0
  -26.5613  -34.8926   22.4680 O   0  0  0  0  0  0
  -23.5412  -32.1393   23.7355 O   0  0  0  0  0  0
  -30.2531  -19.5837   19.5517 C   0  0  0  0  0  0
  -28.9576  -18.9195   21.4634 C   0  0  0  0  0  0
  -29.7890  -20.9289   19.6702 C   0  0  0  0  0  0
  -28.4924  -20.2662   21.5799 C   0  0  0  0  0  0
  -29.8692  -18.5439   20.4472 C   0  0  0  0  0  0
  -28.9031  -21.3133   20.7071 C   0  0  0  0  0  0
  -30.5970  -17.1497   20.3608 C   0  0  0  0  0  0
  -28.7904  -23.8070   20.1704 C   0  0  0  0  0  0
  -28.1065  -25.1286   20.7483 C   0  0  0  0  0  0
  -29.9752  -15.8087   20.6519 N   0  0  0  0  0  0
  -28.4178  -22.6165   20.9435 O   0  0  0  0  0  0
  -31.4631  -12.4723   19.1729 H   0  0  0  0  0  0
  -30.3237  -11.4080   19.9445 H   0  0  0  0  0  0
  -29.7676  -11.7109   17.5050 H   0  0  0  0  0  0
  -29.6533  -13.4389   17.7294 H   0  0  0  0  0  0
  -27.8592  -11.2836   18.8911 H   0  0  0  0  0  0
  -27.3741  -12.5462   17.7929 H   0  0  0  0  0  0
  -27.6469  -14.2531   19.4790 H   0  0  0  0  0  0
  -28.6952  -12.1478   21.4330 H   0  0  0  0  0  0
  -28.4413  -13.8387   21.7905 H   0  0  0  0  0  0
  -25.2758   -9.5702   22.4762 H   0  0  0  0  0  0
  -24.0013   -7.4634   22.7451 H   0  0  0  0  0  0
  -21.0847   -8.8781   19.8940 H   0  0  0  0  0  0
  -22.3691  -10.9688   19.6168 H   0  0  0  0  0  0
  -21.2012   -7.6153   23.9732 H   0  0  0  0  0  0
  -21.1475   -6.0517   25.9083 H   0  0  0  0  0  0
  -22.0595   -2.7616   23.2841 H   0  0  0  0  0  0
  -22.4067  -11.9903   22.4859 H   0  0  0  0  0  0
  -21.1059  -13.1239   22.2617 H   0  0  0  0  0  0
  -24.6509  -15.8457   20.5245 H   0  0  0  0  0  0
  -26.2650  -15.6354   20.0742 H   0  0  0  0  0  0
  -26.7167  -32.5474   23.1095 H   0  0  0  0  0  0
  -25.0082  -33.9724   25.0444 H   0  0  0  0  0  0
  -22.7126  -31.3024   21.3998 H   0  0  0  0  0  0
  -23.3742  -35.9627   23.3315 H   0  0  0  0  0  0
  -24.3570  -36.8893   22.2050 H   0  0  0  0  0  0
  -23.7229  -37.6501   23.6641 H   0  0  0  0  0  0
  -26.0798  -31.5546   20.5949 H   0  0  0  0  0  0
  -26.8420  -30.8530   21.9920 H   0  0  0  0  0  0
  -28.1184  -28.9947   21.1880 H   0  0  0  0  0  0
  -26.0123  -25.9257   19.0111 H   0  0  0  0  0  0
  -23.9758  -27.2988   19.0146 H   0  0  0  0  0  0
  -23.7544  -30.5901   19.4023 H   0  0  0  0  0  0
  -22.7551  -29.2436   19.8579 H   0  0  0  0  0  0
  -25.1280  -36.1954   25.0829 H   0  0  0  0  0  0
  -20.9980  -28.3277   24.1407 H   0  0  0  0  0  0
  -20.5682  -26.2309   23.3616 H   0  0  0  0  0  0
  -21.6645  -26.7460   22.1204 H   0  0  0  0  0  0
  -19.6912  -25.6302   21.1249 H   0  0  0  0  0  0
  -19.6686  -27.3203   20.6744 H   0  0  0  0  0  0
  -17.4200  -26.6684   21.4032 H   0  0  0  0  0  0
  -18.0332  -26.0084   22.9027 H   0  0  0  0  0  0
  -19.7937  -30.7281   24.2270 H   0  0  0  0  0  0
  -17.5019  -31.6276   24.5176 H   0  0  0  0  0  0
  -15.5355  -30.3006   23.7654 H   0  0  0  0  0  0
  -15.8670  -28.0842   22.7059 H   0  0  0  0  0  0
  -24.5915  -30.7065   25.7775 H   0  0  0  0  0  0
  -24.8924  -32.2891   26.4860 H   0  0  0  0  0  0
  -25.8075  -30.8912   27.0217 H   0  0  0  0  0  0
  -26.2900  -29.6774   24.1170 H   0  0  0  0  0  0
  -27.4050  -29.7265   25.4626 H   0  0  0  0  0  0
  -27.8754  -30.4308   23.9337 H   0  0  0  0  0  0
  -27.2675  -33.3605   26.2073 H   0  0  0  0  0  0
  -28.3872  -32.6881   25.0320 H   0  0  0  0  0  0
  -28.0722  -31.8428   26.5393 H   0  0  0  0  0  0
  -28.2615  -38.0083   24.7502 H   0  0  0  0  0  0
  -28.1049  -36.2617   24.6321 H   0  0  0  0  0  0
  -27.2297  -37.1489   25.8879 H   0  0  0  0  0  0
  -20.9362  -29.8772   21.6893 H   0  0  0  0  0  0
  -26.0177  -38.2860   24.1408 H   0  0  0  0  0  0
  -30.9592  -19.3597   18.7640 H   0  0  0  0  0  0
  -28.6430  -18.1886   22.1952 H   0  0  0  0  0  0
  -30.1424  -21.6650   18.9623 H   0  0  0  0  0  0
  -27.8175  -20.5077   22.3889 H   0  0  0  0  0  0
  -31.4700  -17.2366   21.0102 H   0  0  0  0  0  0
  -31.0071  -17.0843   19.3509 H   0  0  0  0  0  0
  -29.8755  -23.9180   20.1773 H   0  0  0  0  0  0
  -28.4907  -23.6629   19.1322 H   0  0  0  0  0  0
  -28.4322  -25.2246   21.7846 H   0  0  0  0  0  0
  -27.0405  -24.9172   20.8294 H   0  0  0  0  0  0
  -28.9880  -15.7630   20.8520 H   0  0  0  0  0  0
  1 25  1  0  0  0
  1 30  2  0  0  0
  1 80  1  0  0  0
  2  3  1  0  0  0
  2 25  1  0  0  0
  2 82  1  0  0  0
  2 83  1  0  0  0
  3  4  1  0  0  0
  3 84  1  0  0  0
  3 85  1  0  0  0
  4  5  1  0  0  0
  4 86  1  0  0  0
  4 87  1  0  0  0
  5  6  1  0  0  0
  5 26  1  0  0  0
  5 88  1  0  0  0
  6 25  1  0  0  0
  6 89  1  0  0  0
  6 90  1  0  0  0
  7  8  2  0  0  0
  7 26  1  0  0  0
  7 29  1  0  0  0
  8  9  1  0  0  0
  8 22  1  0  0  0
  9 10  1  0  0  0
  9 27  2  0  0  0
 10 11  2  0  0  0
 10 15  1  0  0  0
 11 12  1  0  0  0
 11 91  1  0  0  0
 12 13  2  0  0  0
 12 92  1  0  0  0
 13 14  1  0  0  0
 13 31  1  0  0  0
 14 15  2  0  0  0
 14 93  1  0  0  0
 15 94  1  0  0  0
 16 17  2  0  0  0
 16 21  1  0  0  0
 16 31  1  0  0  0
 17 18  1  0  0  0
 17 95  1  0  0  0
 18 19  2  0  0  0
 18 96  1  0  0  0
 19 20  1  0  0  0
 19 24  1  0  0  0
 20 21  2  0  0  0
 20 97  1  0  0  0
 21 23  1  0  0  0
 22 28  1  0  0  0
 22 32  2  0  0  0
 26 27  1  0  0  0
 28 98  1  0  0  0
 28 99  1  0  0  0
 29100  1  0  0  0
 29101  1  0  0  0
 33 34  1  0  0  0
 33 66  1  0  0  0
 33 70  2  0  0  0
 34 36  1  0  0  0
 34 59  1  0  0  0
 34102  1  0  0  0
 35 44  2  0  0  0
 35 45  1  0  0  0
 35 68  1  0  0  0
 36 56  1  0  0  0
 36103  1  0  0  0
 37 39  1  0  0  0
 37 47  1  0  0  0
 37 66  1  0  0  0
 37104  1  0  0  0
 38 43  2  0  0  0
 38 46  1  0  0  0
 38 47  1  0  0  0
 39 64  1  0  0  0
 39 67  2  0  0  0
 40 52  1  0  0  0
 40 53  2  0  0  0
 40 58  1  0  0  0
 41105  1  0  0  0
 41106  1  0  0  0
 41107  1  0  0  0
 41 48  1  0  0  0
 42 43  1  0  0  0
 42 66  1  0  0  0
 42108  1  0  0  0
 42109  1  0  0  0
 43 44  1  0  0  0
 44110  1  0  0  0
 45 46  2  0  0  0
 45111  1  0  0  0
 46112  1  0  0  0
 47113  1  0  0  0
 47114  1  0  0  0
 48 56  1  0  0  0
 48 65  1  0  0  0
 48115  1  0  0  0
 49 50  1  0  0  0
 49 53  1  0  0  0
 49 64  1  0  0  0
 49116  1  0  0  0
 50 51  1  0  0  0
 50117  1  0  0  0
 50118  1  0  0  0
 51 52  1  0  0  0
 51119  1  0  0  0
 51120  1  0  0  0
 52121  1  0  0  0
 52122  1  0  0  0
 53 54  1  0  0  0
 54 55  2  0  0  0
 54123  1  0  0  0
 55 57  1  0  0  0
 55124  1  0  0  0
 56 69  2  0  0  0
 57 58  2  0  0  0
 57125  1  0  0  0
 58126  1  0  0  0
 59 60  1  0  0  0
 59 61  1  0  0  0
 59 62  1  0  0  0
 60127  1  0  0  0
 60128  1  0  0  0
 60129  1  0  0  0
 61130  1  0  0  0
 61131  1  0  0  0
 61132  1  0  0  0
 62133  1  0  0  0
 62134  1  0  0  0
 62135  1  0  0  0
 63 65  1  0  0  0
 63136  1  0  0  0
 63137  1  0  0  0
 63138  1  0  0  0
 64139  1  0  0  0
 65140  1  0  0  0
 68 79  1  0  0  0
 71 73  2  0  0  0
 71 75  1  0  0  0
 71141  1  0  0  0
 72 74  1  0  0  0
 72 75  2  0  0  0
 72142  1  0  0  0
 73 76  1  0  0  0
 73143  1  0  0  0
 74 76  2  0  0  0
 74144  1  0  0  0
 75 77  1  0  0  0
 76 81  1  0  0  0
 77 80  1  0  0  0
 77145  1  0  0  0
 77146  1  0  0  0
 78 79  1  0  0  0
 78 81  1  0  0  0
 78147  1  0  0  0
 78148  1  0  0  0
 79149  1  0  0  0
 79150  1  0  0  0
 80151  1  0  0  0
M  ISO  4   1 100  68 101  79 101  80 100
M  END
> <chiral flag>
0

> <version>
0

> <s_m_source_file>
/data/baiqing/PycharmProjects/Reinvent-master-3.2/result/LINK_invent/BTK/process_docking_weight1_custom_product_contain_oxygen_bond_distance_aromatic_linkinvent_7_9_3/rearranged_h_0001.sdf

> <i_m_source_file_index>
24

> <r_mmod_Potential_Energy-OPLS-2005>
36.7274284362793

> <r_mmod_Stretch_Energy-OPLS-2005>
76.701904296875

> <r_mmod_Bend_Energy-OPLS-2005>
155.474868774414

> <r_mmod_Torsional_Energy-OPLS-2005>
221.02214050293

> <r_mmod_Improper_Torsional_Energy-OPLS-2005>
6.35961389541626

> <r_mmod_Van_der_Waal_Energy-OPLS-2005>
143.365112304688

> <r_mmod_Electrostatic_Energy-OPLS-2005>
-407.782104492188

> <r_mmod_Solvation_Energy-OPLS-2005>
-210.192901611328

> <b_mmod_Minimization_Converged-OPLS-2005>
0

> <r_mmod_RMS_Derivative-OPLS-2005>
0.90838497877121

$$$$
24
                    3D
 Structure written by MMmdl.
144152  0  0  1  0            999 V2000
  -30.3155  -15.6087   20.3329 C   0  0  0  0  0  0
  -30.4231  -13.0594   19.5450 C   0  0  0  0  0  0
  -29.5507  -12.6474   18.3255 C   0  0  0  0  0  0
  -28.1217  -12.2979   18.7666 C   0  0  0  0  0  0
  -27.5954  -13.3055   19.8140 C   0  0  2  0  0  0
  -28.6107  -13.6299   20.9344 C   0  0  0  0  0  0
  -25.2312  -13.8281   20.5790 C   0  0  0  0  0  0
  -24.1703  -13.0432   20.9287 C   0  0  0  0  0  0
  -24.6406  -11.6944   20.8770 C   0  0  0  0  0  0
  -23.9112  -10.4289   21.0404 C   0  0  0  0  0  0
  -24.3650   -9.4203   21.9186 C   0  0  0  0  0  0
  -23.6313   -8.2243   22.0753 C   0  0  0  0  0  0
  -22.4290   -8.0285   21.3547 C   0  0  0  0  0  0
  -21.9938   -9.0257   20.4641 C   0  0  0  0  0  0
  -22.7280  -10.2132   20.3052 C   0  0  0  0  0  0
  -21.6855   -6.0742   22.5277 C   0  0  0  0  0  0
  -21.4015   -6.5646   23.8212 C   0  0  0  0  0  0
  -21.3664   -5.6797   24.9173 C   0  0  0  0  0  0
  -21.6044   -4.3059   24.7222 C   0  0  0  0  0  0
  -21.8821   -3.8152   23.4342 C   0  0  0  0  0  0
  -21.9194   -4.6969   22.3398 C   0  0  0  0  0  0
  -22.7715  -13.5162   21.1923 C   0  0  0  0  0  0
  -22.1661   -4.2158   21.0973 F   0  0  0  0  0  0
  -21.5634   -3.4540   25.7734 F   0  0  0  0  0  0
  -29.7895  -14.2450   20.2816 N   0  0  0  0  0  0
  -26.2757  -12.9608   20.3227 N   0  0  0  0  0  0
  -25.9349  -11.6684   20.5701 N   0  0  0  0  0  0
  -22.0383  -12.8136   22.0477 N   0  0  0  0  0  0
  -25.3908  -15.2020   20.4229 N   0  0  0  0  0  0
  -31.5482  -15.5448   20.1670 O   0  0  0  0  0  0
  -21.6646   -6.8887   21.4241 O   0  0  0  0  0  0
  -22.3388  -14.5462   20.6761 O   0  0  0  0  0  0
  -24.6821  -31.8001   23.1520 C   0  0  0  0  0  0
  -25.9414  -32.4469   23.8060 C   0  0  1  0  0  0
  -27.2259  -26.7017   20.2210 C   0  0  0  0  0  0
  -25.6001  -33.8293   24.1961 N   0  0  0  0  0  0
  -23.5074  -30.4001   21.5063 C   0  0  2  0  0  0
  -24.9637  -28.7361   20.1224 C   0  0  0  0  0  0
  -22.7749  -29.4313   22.4729 C   0  0  0  0  0  0
  -18.0328  -28.1430   22.8471 C   0  0  0  0  0  0
  -24.1489  -36.7148   23.2651 C   0  0  0  0  0  0
  -26.0855  -30.5330   21.4148 C   0  0  0  0  0  0
  -26.1498  -29.0947   20.7730 C   0  0  0  0  0  0
  -27.2634  -28.1036   20.7908 C   0  0  0  0  0  0
  -26.0089  -26.5525   19.5090 C   0  0  0  0  0  0
  -24.9307  -27.4905   19.4695 C   0  0  0  0  0  0
  -23.7609  -29.6919   20.1429 C   0  0  0  0  0  0
  -25.4145  -36.2909   24.0282 C   0  0  1  0  0  0
  -20.5962  -28.3788   23.1155 C   0  0  2  0  0  0
  -20.6787  -26.9447   22.5413 C   0  0  0  0  0  0
  -19.5768  -26.6387   21.5221 C   0  0  0  0  0  0
  -18.1956  -26.7956   22.1631 C   0  0  0  0  0  0
  -19.1595  -28.8934   23.2791 C   0  0  0  0  0  0
  -18.9502  -30.1518   23.8838 C   0  0  0  0  0  0
  -17.6493  -30.6615   24.0559 C   0  0  0  0  0  0
  -25.9128  -34.9290   23.4965 C   0  0  0  0  0  0
  -16.5385  -29.9100   23.6354 C   0  0  0  0  0  0
  -16.7307  -28.6518   23.0378 C   0  0  0  0  0  0
  -26.4601  -31.6493   25.0668 C   0  0  0  0  0  0
  -25.3679  -31.3798   26.1295 C   0  0  0  0  0  0
  -27.0530  -30.2843   24.6528 C   0  0  0  0  0  0
  -27.6059  -32.4337   25.7488 C   0  0  0  0  0  0
  -27.5560  -37.1733   24.8471 C   0  0  0  0  0  0
  -21.4403  -29.3028   22.3475 N   0  0  0  0  0  0
  -26.4278  -37.3665   23.9401 N   0  0  0  0  0  0
  -24.7818  -30.9444   22.0772 N   0  0  0  0  0  0
  -23.4195  -28.7921   23.3079 O   0  0  0  0  0  0
  -28.2405  -25.5285   20.2542 O   0  0  0  0  0  0
  -26.5755  -34.8869   22.4574 O   0  0  0  0  0  0
  -23.5849  -32.1077   23.6484 O   0  0  0  0  0  0
  -28.6182  -21.3747   21.3420 C   0  0  0  0  0  0
  -29.1203  -21.4779   19.1895 C   0  0  0  0  0  0
  -28.2811  -22.8768   21.3270 C   0  0  0  0  0  0
  -28.7845  -22.9734   19.1768 C   0  0  0  0  0  0
  -29.0936  -20.4459   20.2694 C   0  0  0  0  0  0
  -28.3060  -23.9064   20.2391 C   0  0  0  0  0  0
  -29.8490  -18.7271   20.2813 C   0  0  0  0  0  0
  -29.5695  -16.9775   20.3812 N   0  0  0  0  0  0
  -31.4212  -13.3126   19.1859 H   0  0  0  0  0  0
  -30.5722  -12.2115   20.2161 H   0  0  0  0  0  0
  -30.0006  -11.8040   17.8001 H   0  0  0  0  0  0
  -29.5198  -13.4720   17.6122 H   0  0  0  0  0  0
  -28.1447  -11.2988   19.2037 H   0  0  0  0  0  0
  -27.4537  -12.2435   17.9057 H   0  0  0  0  0  0
  -27.4612  -14.2290   19.2491 H   0  0  0  0  0  0
  -28.8628  -12.7447   21.5207 H   0  0  0  0  0  0
  -28.1817  -14.3476   21.6350 H   0  0  0  0  0  0
  -25.2791   -9.5677   22.4770 H   0  0  0  0  0  0
  -24.0020   -7.4633   22.7473 H   0  0  0  0  0  0
  -21.0875   -8.8775   19.8942 H   0  0  0  0  0  0
  -22.3739  -10.9670   19.6162 H   0  0  0  0  0  0
  -21.2004   -7.6155   23.9716 H   0  0  0  0  0  0
  -21.1485   -6.0527   25.9078 H   0  0  0  0  0  0
  -22.0595   -2.7614   23.2833 H   0  0  0  0  0  0
  -22.4035  -11.9821   22.4877 H   0  0  0  0  0  0
  -21.0980  -13.1110   22.2664 H   0  0  0  0  0  0
  -24.6179  -15.8494   20.5339 H   0  0  0  0  0  0
  -26.2279  -15.6425   20.0653 H   0  0  0  0  0  0
  -26.7481  -32.4951   23.0764 H   0  0  0  0  0  0
  -25.0064  -33.9329   25.0057 H   0  0  0  0  0  0
  -22.8331  -31.2374   21.3148 H   0  0  0  0  0  0
  -23.3773  -35.9456   23.3289 H   0  0  0  0  0  0
  -24.3550  -36.8835   22.2071 H   0  0  0  0  0  0
  -23.7227  -37.6318   23.6737 H   0  0  0  0  0  0
  -26.2801  -31.2534   20.6191 H   0  0  0  0  0  0
  -26.9399  -30.6099   22.0741 H   0  0  0  0  0  0
  -28.1612  -28.3872   21.3213 H   0  0  0  0  0  0
  -25.8570  -25.6122   18.9984 H   0  0  0  0  0  0
  -24.0362  -27.2094   18.9314 H   0  0  0  0  0  0
  -23.9368  -30.4492   19.3787 H   0  0  0  0  0  0
  -22.8659  -29.1566   19.8216 H   0  0  0  0  0  0
  -25.1350  -36.1689   25.0772 H   0  0  0  0  0  0
  -21.0040  -28.3418   24.1284 H   0  0  0  0  0  0
  -20.5653  -26.2413   23.3675 H   0  0  0  0  0  0
  -21.6649  -26.7392   22.1235 H   0  0  0  0  0  0
  -19.6922  -25.6280   21.1297 H   0  0  0  0  0  0
  -19.6708  -27.3156   20.6715 H   0  0  0  0  0  0
  -17.4219  -26.6706   21.4041 H   0  0  0  0  0  0
  -18.0350  -26.0105   22.9034 H   0  0  0  0  0  0
  -19.7977  -30.7350   24.2187 H   0  0  0  0  0  0
  -17.5044  -31.6289   24.5175 H   0  0  0  0  0  0
  -15.5386  -30.2986   23.7709 H   0  0  0  0  0  0
  -15.8705  -28.0814   22.7134 H   0  0  0  0  0  0
  -24.5895  -30.7106   25.7599 H   0  0  0  0  0  0
  -24.8831  -32.3013   26.4531 H   0  0  0  0  0  0
  -25.7879  -30.9099   27.0197 H   0  0  0  0  0  0
  -26.3246  -29.6470   24.1507 H   0  0  0  0  0  0
  -27.3967  -29.7270   25.5252 H   0  0  0  0  0  0
  -27.9221  -30.3984   24.0043 H   0  0  0  0  0  0
  -27.2607  -33.3693   26.1902 H   0  0  0  0  0  0
  -28.3962  -32.6810   25.0380 H   0  0  0  0  0  0
  -28.0626  -31.8572   26.5546 H   0  0  0  0  0  0
  -28.2569  -38.0036   24.7498 H   0  0  0  0  0  0
  -28.1069  -36.2560   24.6334 H   0  0  0  0  0  0
  -27.2269  -37.1415   25.8874 H   0  0  0  0  0  0
  -20.9712  -29.8676   21.6528 H   0  0  0  0  0  0
  -26.0117  -38.2721   24.1409 H   0  0  0  0  0  0
  -28.5566  -20.9210   22.3215 H   0  0  0  0  0  0
  -29.5055  -21.1121   18.2479 H   0  0  0  0  0  0
  -28.0243  -23.2766   22.2978 H   0  0  0  0  0  0
  -28.9768  -23.4562   18.2284 H   0  0  0  0  0  0
  -30.6028  -18.8497   21.0600 H   0  0  0  0  0  0
  -30.4366  -18.7698   19.3638 H   0  0  0  0  0  0
  -28.5813  -16.7984   20.4874 H   0  0  0  0  0  0
  1 25  1  0  0  0
  1 30  2  0  0  0
  1 78  1  0  0  0
  2  3  1  0  0  0
  2 25  1  0  0  0
  2 79  1  0  0  0
  2 80  1  0  0  0
  3  4  1  0  0  0
  3 81  1  0  0  0
  3 82  1  0  0  0
  4  5  1  0  0  0
  4 83  1  0  0  0
  4 84  1  0  0  0
  5  6  1  0  0  0
  5 26  1  0  0  0
  5 85  1  0  0  0
  6 25  1  0  0  0
  6 86  1  0  0  0
  6 87  1  0  0  0
  7  8  2  0  0  0
  7 26  1  0  0  0
  7 29  1  0  0  0
  8  9  1  0  0  0
  8 22  1  0  0  0
  9 10  1  0  0  0
  9 27  2  0  0  0
 10 11  2  0  0  0
 10 15  1  0  0  0
 11 12  1  0  0  0
 11 88  1  0  0  0
 12 13  2  0  0  0
 12 89  1  0  0  0
 13 14  1  0  0  0
 13 31  1  0  0  0
 14 15  2  0  0  0
 14 90  1  0  0  0
 15 91  1  0  0  0
 16 17  2  0  0  0
 16 21  1  0  0  0
 16 31  1  0  0  0
 17 18  1  0  0  0
 17 92  1  0  0  0
 18 19  2  0  0  0
 18 93  1  0  0  0
 19 20  1  0  0  0
 19 24  1  0  0  0
 20 21  2  0  0  0
 20 94  1  0  0  0
 21 23  1  0  0  0
 22 28  1  0  0  0
 22 32  2  0  0  0
 26 27  1  0  0  0
 28 95  1  0  0  0
 28 96  1  0  0  0
 29 97  1  0  0  0
 29 98  1  0  0  0
 33 34  1  0  0  0
 33 66  1  0  0  0
 33 70  2  0  0  0
 34 36  1  0  0  0
 34 59  1  0  0  0
 34 99  1  0  0  0
 35 44  2  0  0  0
 35 45  1  0  0  0
 35 68  1  0  0  0
 36 56  1  0  0  0
 36100  1  0  0  0
 37 39  1  0  0  0
 37 47  1  0  0  0
 37 66  1  0  0  0
 37101  1  0  0  0
 38 43  2  0  0  0
 38 46  1  0  0  0
 38 47  1  0  0  0
 39 64  1  0  0  0
 39 67  2  0  0  0
 40 52  1  0  0  0
 40 53  2  0  0  0
 40 58  1  0  0  0
 41102  1  0  0  0
 41103  1  0  0  0
 41104  1  0  0  0
 41 48  1  0  0  0
 42 43  1  0  0  0
 42 66  1  0  0  0
 42105  1  0  0  0
 42106  1  0  0  0
 43 44  1  0  0  0
 44107  1  0  0  0
 45 46  2  0  0  0
 45108  1  0  0  0
 46109  1  0  0  0
 47110  1  0  0  0
 47111  1  0  0  0
 48 56  1  0  0  0
 48 65  1  0  0  0
 48112  1  0  0  0
 49 50  1  0  0  0
 49 53  1  0  0  0
 49 64  1  0  0  0
 49113  1  0  0  0
 50 51  1  0  0  0
 50114  1  0  0  0
 50115  1  0  0  0
 51 52  1  0  0  0
 51116  1  0  0  0
 51117  1  0  0  0
 52118  1  0  0  0
 52119  1  0  0  0
 53 54  1  0  0  0
 54 55  2  0  0  0
 54120  1  0  0  0
 55 57  1  0  0  0
 55121  1  0  0  0
 56 69  2  0  0  0
 57 58  2  0  0  0
 57122  1  0  0  0
 58123  1  0  0  0
 59 60  1  0  0  0
 59 61  1  0  0  0
 59 62  1  0  0  0
 60124  1  0  0  0
 60125  1  0  0  0
 60126  1  0  0  0
 61127  1  0  0  0
 61128  1  0  0  0
 61129  1  0  0  0
 62130  1  0  0  0
 62131  1  0  0  0
 62132  1  0  0  0
 63 65  1  0  0  0
 63133  1  0  0  0
 63134  1  0  0  0
 63135  1  0  0  0
 64136  1  0  0  0
 65137  1  0  0  0
 68 76  1  0  0  0
 71 73  2  0  0  0
 71 75  1  0  0  0
 71138  1  0  0  0
 72 74  1  0  0  0
 72 75  2  0  0  0
 72139  1  0  0  0
 73 76  1  0  0  0
 73140  1  0  0  0
 74 76  2  0  0  0
 74141  1  0  0  0
 75 77  1  0  0  0
 77 78  1  0  0  0
 77142  1  0  0  0
 77143  1  0  0  0
 78144  1  0  0  0
M  ISO  4   1 100  68 101  76 101  78 100
M  END
> <chiral flag>
0

> <version>
0

> <s_m_source_file>
/data/baiqing/PycharmProjects/Reinvent-master-3.2/result/LINK_invent/BTK/process_docking_weight1_custom_product_contain_oxygen_bond_distance_aromatic_linkinvent_7_9_3/rearranged_h_0001.sdf

> <i_m_source_file_index>
25

> <r_mmod_Potential_Energy-OPLS-2005>
2198.658203125

> <r_mmod_Stretch_Energy-OPLS-2005>
899.980346679688

> <r_mmod_Bend_Energy-OPLS-2005>
661.472839355469

> <r_mmod_Torsional_Energy-OPLS-2005>
225.492828369141

> <r_mmod_Improper_Torsional_Energy-OPLS-2005>
9.31841373443604

> <r_mmod_Van_der_Waal_Energy-OPLS-2005>
133.992309570312

> <r_mmod_Electrostatic_Energy-OPLS-2005>
-379.169982910156

> <r_mmod_Solvation_Energy-OPLS-2005>
-216.250228881836

> <b_mmod_Minimization_Converged-OPLS-2005>
0

> <r_mmod_RMS_Derivative-OPLS-2005>
1.18340790271759

$$$$
25
                    3D
 Structure written by MMmdl.
157165  0  0  1  0            999 V2000
  -30.6890  -14.4455   20.5972 C   0  0  0  0  0  0
  -30.4300  -12.2975   19.4113 C   0  0  0  0  0  0
  -29.4930  -12.5083   18.2034 C   0  0  0  0  0  0
  -28.0163  -12.3577   18.6203 C   0  0  0  0  0  0
  -27.6651  -13.1943   19.8793 C   0  0  2  0  0  0
  -28.7050  -12.9421   20.9953 C   0  0  0  0  0  0
  -25.2599  -13.8126   20.5665 C   0  0  0  0  0  0
  -24.1843  -13.0425   20.9187 C   0  0  0  0  0  0
  -24.6379  -11.6888   20.8741 C   0  0  0  0  0  0
  -23.9043  -10.4285   21.0410 C   0  0  0  0  0  0
  -24.3597   -9.4205   21.9189 C   0  0  0  0  0  0
  -23.6278   -8.2238   22.0756 C   0  0  0  0  0  0
  -22.4263   -8.0273   21.3545 C   0  0  0  0  0  0
  -21.9894   -9.0246   20.4647 C   0  0  0  0  0  0
  -22.7218  -10.2128   20.3059 C   0  0  0  0  0  0
  -21.6839   -6.0732   22.5278 C   0  0  0  0  0  0
  -21.4007   -6.5637   23.8213 C   0  0  0  0  0  0
  -21.3662   -5.6792   24.9175 C   0  0  0  0  0  0
  -21.6044   -4.3055   24.7225 C   0  0  0  0  0  0
  -21.8818   -3.8145   23.4346 C   0  0  0  0  0  0
  -21.9190   -4.6962   22.3401 C   0  0  0  0  0  0
  -22.7871  -13.5240   21.1848 C   0  0  0  0  0  0
  -22.1657   -4.2149   21.0978 F   0  0  0  0  0  0
  -21.5634   -3.4539   25.7740 F   0  0  0  0  0  0
  -30.0408  -13.2587   20.4535 N   0  0  0  0  0  0
  -26.3031  -12.9276   20.3367 N   0  0  0  0  0  0
  -25.9301  -11.6451   20.5769 N   0  0  0  0  0  0
  -22.0493  -12.8237   22.0393 N   0  0  0  0  0  0
  -25.4320  -15.1839   20.4035 N   0  0  0  0  0  0
  -31.8010  -14.6718   20.1084 O   0  0  0  0  0  0
  -21.6627   -6.8872   21.4242 O   0  0  0  0  0  0
  -22.3572  -14.5554   20.6701 O   0  0  0  0  0  0
  -24.6115  -31.8696   23.2118 C   0  0  0  0  0  0
  -25.9023  -32.4831   23.8406 C   0  0  1  0  0  0
  -27.2499  -27.4611   20.0945 C   0  0  0  0  0  0
  -25.5893  -33.8627   24.2335 N   0  0  0  0  0  0
  -23.3991  -30.4922   21.5511 C   0  0  2  0  0  0
  -24.8509  -28.9596   20.1185 C   0  0  0  0  0  0
  -22.7395  -29.4667   22.5004 C   0  0  0  0  0  0
  -18.0265  -28.1371   22.8492 C   0  0  0  0  0  0
  -24.1484  -36.7321   23.2634 C   0  0  0  0  0  0
  -25.9236  -30.8433   21.3629 C   0  0  0  0  0  0
  -26.0058  -29.4752   20.7201 C   0  0  0  0  0  0
  -27.2068  -28.7317   20.7183 C   0  0  0  0  0  0
  -26.0808  -26.9608   19.4865 C   0  0  0  0  0  0
  -24.8805  -27.6968   19.5024 C   0  0  0  0  0  0
  -23.6092  -29.8216   20.1666 C   0  0  0  0  0  0
  -25.4102  -36.3114   24.0337 C   0  0  1  0  0  0
  -20.5852  -28.3658   23.1322 C   0  0  2  0  0  0
  -20.6753  -26.9400   22.5410 C   0  0  0  0  0  0
  -19.5738  -26.6390   21.5201 C   0  0  0  0  0  0
  -18.1915  -26.7916   22.1614 C   0  0  0  0  0  0
  -19.1515  -28.8831   23.2904 C   0  0  0  0  0  0
  -18.9447  -30.1433   23.8921 C   0  0  0  0  0  0
  -17.6456  -30.6584   24.0568 C   0  0  0  0  0  0
  -25.9029  -34.9478   23.5132 C   0  0  0  0  0  0
  -16.5345  -29.9089   23.6328 C   0  0  0  0  0  0
  -16.7258  -28.6500   23.0354 C   0  0  0  0  0  0
  -26.4467  -31.6591   25.0710 C   0  0  0  0  0  0
  -25.3759  -31.3694   26.1483 C   0  0  0  0  0  0
  -27.0274  -30.3033   24.6045 C   0  0  0  0  0  0
  -27.6051  -32.4295   25.7472 C   0  0  0  0  0  0
  -27.5585  -37.1806   24.8457 C   0  0  0  0  0  0
  -21.4124  -29.3031   22.3737 N   0  0  0  0  0  0
  -26.4285  -37.3802   23.9418 N   0  0  0  0  0  0
  -24.6623  -31.0821   22.1011 N   0  0  0  0  0  0
  -23.4171  -28.8215   23.3044 O   0  0  0  0  0  0
  -28.3724  -26.6671   20.0081 O   0  0  0  0  0  0
  -26.5593  -34.8929   22.4694 O   0  0  0  0  0  0
  -23.5316  -32.1439   23.7528 O   0  0  0  0  0  0
  -28.8684  -18.8566   20.4024 C   0  0  0  0  0  0
  -31.2286  -18.9321   20.9841 C   0  0  0  0  0  0
  -28.8547  -17.4666   20.6396 C   0  0  0  0  0  0
  -31.2223  -17.5357   21.2021 C   0  0  0  0  0  0
  -30.0535  -19.6059   20.5722 C   0  0  0  0  0  0
  -30.0357  -16.7913   21.0141 C   0  0  0  0  0  0
  -30.0718  -21.0751   20.2344 C   0  0  0  0  0  0
  -29.9987  -24.2837   21.0271 C   0  0  0  0  0  0
  -30.4670  -25.7344   20.7681 C   0  0  0  0  0  0
  -31.1397  -23.2649   20.7983 C   0  0  0  0  0  0
  -29.3967  -26.8237   20.9809 C   0  0  0  0  0  0
  -29.9714  -15.3889   21.2327 N   0  0  0  0  0  0
  -30.7757  -21.8680   21.0544 N   0  0  0  0  0  0
  -29.4576  -21.4996   19.2536 O   0  0  0  0  0  0
  -31.4724  -12.4108   19.1081 H   0  0  0  0  0  0
  -30.3408  -11.2786   19.7914 H   0  0  0  0  0  0
  -29.7323  -11.7937   17.4150 H   0  0  0  0  0  0
  -29.6540  -13.5001   17.7782 H   0  0  0  0  0  0
  -27.8382  -11.3004   18.8221 H   0  0  0  0  0  0
  -27.3578  -12.6228   17.7930 H   0  0  0  0  0  0
  -27.7202  -14.2446   19.5930 H   0  0  0  0  0  0
  -28.6802  -11.8951   21.3012 H   0  0  0  0  0  0
  -28.4607  -13.5036   21.8979 H   0  0  0  0  0  0
  -25.2736   -9.5685   22.4772 H   0  0  0  0  0  0
  -23.9983   -7.4630   22.7479 H   0  0  0  0  0  0
  -21.0826   -8.8771   19.8952 H   0  0  0  0  0  0
  -22.3677  -10.9673   19.6176 H   0  0  0  0  0  0
  -21.1995   -7.6145   23.9718 H   0  0  0  0  0  0
  -21.1486   -6.0520   25.9081 H   0  0  0  0  0  0
  -22.0596   -2.7607   23.2844 H   0  0  0  0  0  0
  -22.4075  -11.9873   22.4762 H   0  0  0  0  0  0
  -21.1123  -13.1293   22.2605 H   0  0  0  0  0  0
  -24.6606  -15.8352   20.5003 H   0  0  0  0  0  0
  -26.2679  -15.6127   20.0294 H   0  0  0  0  0  0
  -26.7103  -32.5566   23.1190 H   0  0  0  0  0  0
  -25.0051  -33.9788   25.0486 H   0  0  0  0  0  0
  -22.6874  -31.3081   21.4105 H   0  0  0  0  0  0
  -23.3750  -35.9646   23.3265 H   0  0  0  0  0  0
  -24.3596  -36.8967   22.2056 H   0  0  0  0  0  0
  -23.7215  -37.6508   23.6669 H   0  0  0  0  0  0
  -26.0249  -31.6052   20.5880 H   0  0  0  0  0  0
  -26.8151  -30.9072   21.9745 H   0  0  0  0  0  0
  -28.0890  -29.1503   21.1807 H   0  0  0  0  0  0
  -26.1024  -25.9944   19.0025 H   0  0  0  0  0  0
  -23.9944  -27.2918   19.0330 H   0  0  0  0  0  0
  -23.7132  -30.5953   19.4049 H   0  0  0  0  0  0
  -22.7353  -29.2364   19.8728 H   0  0  0  0  0  0
  -25.1267  -36.1986   25.0827 H   0  0  0  0  0  0
  -20.9936  -28.3224   24.1446 H   0  0  0  0  0  0
  -20.5655  -26.2269   23.3596 H   0  0  0  0  0  0
  -21.6628  -26.7446   22.1212 H   0  0  0  0  0  0
  -19.6908  -25.6308   21.1211 H   0  0  0  0  0  0
  -19.6676  -27.3215   20.6741 H   0  0  0  0  0  0
  -17.4183  -26.6667   21.4015 H   0  0  0  0  0  0
  -18.0322  -26.0046   22.9000 H   0  0  0  0  0  0
  -19.7927  -30.7225   24.2315 H   0  0  0  0  0  0
  -17.5018  -31.6267   24.5161 H   0  0  0  0  0  0
  -15.5349  -30.3007   23.7632 H   0  0  0  0  0  0
  -15.8652  -28.0827   22.7072 H   0  0  0  0  0  0
  -24.5896  -30.7079   25.7828 H   0  0  0  0  0  0
  -24.9009  -32.2859   26.4992 H   0  0  0  0  0  0
  -25.8135  -30.8811   27.0202 H   0  0  0  0  0  0
  -26.2781  -29.6810   24.1129 H   0  0  0  0  0  0
  -27.4087  -29.7247   25.4467 H   0  0  0  0  0  0
  -27.8609  -30.4344   23.9134 H   0  0  0  0  0  0
  -27.2679  -33.3603   26.2046 H   0  0  0  0  0  0
  -28.3874  -32.6832   25.0304 H   0  0  0  0  0  0
  -28.0695  -31.8411   26.5395 H   0  0  0  0  0  0
  -28.2574  -38.0134   24.7558 H   0  0  0  0  0  0
  -28.1105  -36.2668   24.6207 H   0  0  0  0  0  0
  -27.2317  -37.1380   25.8861 H   0  0  0  0  0  0
  -20.9286  -29.8767   21.6972 H   0  0  0  0  0  0
  -26.0174  -38.2871   24.1453 H   0  0  0  0  0  0
  -27.9613  -19.3496   20.0802 H   0  0  0  0  0  0
  -32.1531  -19.4787   21.1098 H   0  0  0  0  0  0
  -27.9318  -16.9218   20.5045 H   0  0  0  0  0  0
  -32.1338  -17.0417   21.5094 H   0  0  0  0  0  0
  -29.1598  -24.0532   20.3693 H   0  0  0  0  0  0
  -29.6253  -24.1970   22.0479 H   0  0  0  0  0  0
  -30.8523  -25.8165   19.7509 H   0  0  0  0  0  0
  -31.3104  -25.9523   21.4242 H   0  0  0  0  0  0
  -31.9773  -23.5081   21.4539 H   0  0  0  0  0  0
  -31.5214  -23.3521   19.7794 H   0  0  0  0  0  0
  -29.8643  -27.8027   20.8683 H   0  0  0  0  0  0
  -28.9837  -26.7638   21.9891 H   0  0  0  0  0  0
  -29.0847  -15.0429   21.5664 H   0  0  0  0  0  0
  -31.2017  -21.4209   21.8557 H   0  0  0  0  0  0
  1 25  1  0  0  0
  1 30  2  0  0  0
  1 82  1  0  0  0
  2  3  1  0  0  0
  2 25  1  0  0  0
  2 85  1  0  0  0
  2 86  1  0  0  0
  3  4  1  0  0  0
  3 87  1  0  0  0
  3 88  1  0  0  0
  4  5  1  0  0  0
  4 89  1  0  0  0
  4 90  1  0  0  0
  5  6  1  0  0  0
  5 26  1  0  0  0
  5 91  1  0  0  0
  6 25  1  0  0  0
  6 92  1  0  0  0
  6 93  1  0  0  0
  7  8  2  0  0  0
  7 26  1  0  0  0
  7 29  1  0  0  0
  8  9  1  0  0  0
  8 22  1  0  0  0
  9 10  1  0  0  0
  9 27  2  0  0  0
 10 11  2  0  0  0
 10 15  1  0  0  0
 11 12  1  0  0  0
 11 94  1  0  0  0
 12 13  2  0  0  0
 12 95  1  0  0  0
 13 14  1  0  0  0
 13 31  1  0  0  0
 14 15  2  0  0  0
 14 96  1  0  0  0
 15 97  1  0  0  0
 16 17  2  0  0  0
 16 21  1  0  0  0
 16 31  1  0  0  0
 17 18  1  0  0  0
 17 98  1  0  0  0
 18 19  2  0  0  0
 18 99  1  0  0  0
 19 20  1  0  0  0
 19 24  1  0  0  0
 20 21  2  0  0  0
 20100  1  0  0  0
 21 23  1  0  0  0
 22 28  1  0  0  0
 22 32  2  0  0  0
 26 27  1  0  0  0
 28101  1  0  0  0
 28102  1  0  0  0
 29103  1  0  0  0
 29104  1  0  0  0
 33 34  1  0  0  0
 33 66  1  0  0  0
 33 70  2  0  0  0
 34 36  1  0  0  0
 34 59  1  0  0  0
 34105  1  0  0  0
 35 44  2  0  0  0
 35 45  1  0  0  0
 35 68  1  0  0  0
 36 56  1  0  0  0
 36106  1  0  0  0
 37 39  1  0  0  0
 37 47  1  0  0  0
 37 66  1  0  0  0
 37107  1  0  0  0
 38 43  2  0  0  0
 38 46  1  0  0  0
 38 47  1  0  0  0
 39 64  1  0  0  0
 39 67  2  0  0  0
 40 52  1  0  0  0
 40 53  2  0  0  0
 40 58  1  0  0  0
 41108  1  0  0  0
 41109  1  0  0  0
 41110  1  0  0  0
 41 48  1  0  0  0
 42 43  1  0  0  0
 42 66  1  0  0  0
 42111  1  0  0  0
 42112  1  0  0  0
 43 44  1  0  0  0
 44113  1  0  0  0
 45 46  2  0  0  0
 45114  1  0  0  0
 46115  1  0  0  0
 47116  1  0  0  0
 47117  1  0  0  0
 48 56  1  0  0  0
 48 65  1  0  0  0
 48118  1  0  0  0
 49 50  1  0  0  0
 49 53  1  0  0  0
 49 64  1  0  0  0
 49119  1  0  0  0
 50 51  1  0  0  0
 50120  1  0  0  0
 50121  1  0  0  0
 51 52  1  0  0  0
 51122  1  0  0  0
 51123  1  0  0  0
 52124  1  0  0  0
 52125  1  0  0  0
 53 54  1  0  0  0
 54 55  2  0  0  0
 54126  1  0  0  0
 55 57  1  0  0  0
 55127  1  0  0  0
 56 69  2  0  0  0
 57 58  2  0  0  0
 57128  1  0  0  0
 58129  1  0  0  0
 59 60  1  0  0  0
 59 61  1  0  0  0
 59 62  1  0  0  0
 60130  1  0  0  0
 60131  1  0  0  0
 60132  1  0  0  0
 61133  1  0  0  0
 61134  1  0  0  0
 61135  1  0  0  0
 62136  1  0  0  0
 62137  1  0  0  0
 62138  1  0  0  0
 63 65  1  0  0  0
 63139  1  0  0  0
 63140  1  0  0  0
 63141  1  0  0  0
 64142  1  0  0  0
 65143  1  0  0  0
 68 81  1  0  0  0
 71 73  2  0  0  0
 71 75  1  0  0  0
 71144  1  0  0  0
 72 74  1  0  0  0
 72 75  2  0  0  0
 72145  1  0  0  0
 73 76  1  0  0  0
 73146  1  0  0  0
 74 76  2  0  0  0
 74147  1  0  0  0
 75 77  1  0  0  0
 76 82  1  0  0  0
 77 83  1  0  0  0
 77 84  2  0  0  0
 78 79  1  0  0  0
 78 80  1  0  0  0
 78148  1  0  0  0
 78149  1  0  0  0
 79 81  1  0  0  0
 79150  1  0  0  0
 79151  1  0  0  0
 80 83  1  0  0  0
 80152  1  0  0  0
 80153  1  0  0  0
 81154  1  0  0  0
 81155  1  0  0  0
 82156  1  0  0  0
 83157  1  0  0  0
M  ISO  4   1 100  68 101  81 101  82 100
M  END
> <chiral flag>
0

> <version>
0

> <s_m_source_file>
/data/baiqing/PycharmProjects/Reinvent-master-3.2/result/LINK_invent/BTK/process_docking_weight1_custom_product_contain_oxygen_bond_distance_aromatic_linkinvent_7_9_3/rearranged_h_0001.sdf

> <i_m_source_file_index>
26

> <r_mmod_Potential_Energy-OPLS-2005>
-116.879859924316

> <r_mmod_Stretch_Energy-OPLS-2005>
33.6862373352051

> <r_mmod_Bend_Energy-OPLS-2005>
96.3188934326172

> <r_mmod_Torsional_Energy-OPLS-2005>
233.015335083008

> <r_mmod_Improper_Torsional_Energy-OPLS-2005>
5.05354976654053

> <r_mmod_Van_der_Waal_Energy-OPLS-2005>
149.34797668457

> <r_mmod_Electrostatic_Energy-OPLS-2005>
-407.414459228516

> <r_mmod_Solvation_Energy-OPLS-2005>
-236.073532104492

> <b_mmod_Minimization_Converged-OPLS-2005>
0

> <r_mmod_RMS_Derivative-OPLS-2005>
1.07347118854523

$$$$
26
                    3D
 Structure written by MMmdl.
158167  0  0  1  0            999 V2000
  -30.8123  -14.5034   20.5138 C   0  0  0  0  0  0
  -30.4155  -12.3456   19.4260 C   0  0  0  0  0  0
  -29.4829  -12.5291   18.2119 C   0  0  0  0  0  0
  -28.0191  -12.3496   18.6390 C   0  0  0  0  0  0
  -27.6569  -13.2270   19.8653 C   0  0  2  0  0  0
  -28.7210  -13.1259   20.9930 C   0  0  0  0  0  0
  -25.2568  -13.8198   20.5730 C   0  0  0  0  0  0
  -24.1859  -13.0432   20.9258 C   0  0  0  0  0  0
  -24.6451  -11.6913   20.8790 C   0  0  0  0  0  0
  -23.9109  -10.4293   21.0442 C   0  0  0  0  0  0
  -24.3648   -9.4198   21.9202 C   0  0  0  0  0  0
  -23.6317   -8.2234   22.0754 C   0  0  0  0  0  0
  -22.4296   -8.0287   21.3542 C   0  0  0  0  0  0
  -21.9946   -9.0268   20.4647 C   0  0  0  0  0  0
  -22.7289  -10.2152   20.3071 C   0  0  0  0  0  0
  -21.6850   -6.0746   22.5281 C   0  0  0  0  0  0
  -21.4049   -6.5651   23.8228 C   0  0  0  0  0  0
  -21.3680   -5.6796   24.9181 C   0  0  0  0  0  0
  -21.6040   -4.3057   24.7224 C   0  0  0  0  0  0
  -21.8809   -3.8152   23.4341 C   0  0  0  0  0  0
  -21.9192   -4.6970   22.3407 C   0  0  0  0  0  0
  -22.7866  -13.5219   21.1863 C   0  0  0  0  0  0
  -22.1642   -4.2159   21.0979 F   0  0  0  0  0  0
  -21.5624   -3.4535   25.7735 F   0  0  0  0  0  0
  -30.0537  -13.3755   20.4138 N   0  0  0  0  0  0
  -26.3039  -12.9405   20.3410 N   0  0  0  0  0  0
  -25.9395  -11.6535   20.5837 N   0  0  0  0  0  0
  -22.0506  -12.8216   22.0447 N   0  0  0  0  0  0
  -25.4150  -15.1922   20.4063 N   0  0  0  0  0  0
  -31.9722  -14.5402   20.1003 O   0  0  0  0  0  0
  -21.6644   -6.8886   21.4243 O   0  0  0  0  0  0
  -22.3537  -14.5489   20.6681 O   0  0  0  0  0  0
  -24.6086  -31.8716   23.2256 C   0  0  0  0  0  0
  -25.9025  -32.4828   23.8488 C   0  0  1  0  0  0
  -27.2319  -27.4796   20.0867 C   0  0  0  0  0  0
  -25.5958  -33.8654   24.2416 N   0  0  0  0  0  0
  -23.3948  -30.5064   21.5518 C   0  0  2  0  0  0
  -24.8464  -28.9804   20.1150 C   0  0  0  0  0  0
  -22.7362  -29.4731   22.4915 C   0  0  0  0  0  0
  -18.0282  -28.1359   22.8466 C   0  0  0  0  0  0
  -24.1490  -36.7278   23.2665 C   0  0  0  0  0  0
  -25.9312  -30.8354   21.4028 C   0  0  0  0  0  0
  -26.0088  -29.4963   20.7067 C   0  0  0  0  0  0
  -27.2093  -28.7559   20.6856 C   0  0  0  0  0  0
  -26.0508  -26.9540   19.5270 C   0  0  0  0  0  0
  -24.8609  -27.7038   19.5266 C   0  0  0  0  0  0
  -23.6112  -29.8497   20.1624 C   0  0  0  0  0  0
  -25.4119  -36.3110   24.0357 C   0  0  1  0  0  0
  -20.5878  -28.3668   23.1237 C   0  0  2  0  0  0
  -20.6787  -26.9396   22.5351 C   0  0  0  0  0  0
  -19.5761  -26.6363   21.5161 C   0  0  0  0  0  0
  -18.1946  -26.7905   22.1588 C   0  0  0  0  0  0
  -19.1536  -28.8814   23.2858 C   0  0  0  0  0  0
  -18.9480  -30.1441   23.8843 C   0  0  0  0  0  0
  -17.6488  -30.6574   24.0550 C   0  0  0  0  0  0
  -25.9037  -34.9484   23.5148 C   0  0  0  0  0  0
  -16.5372  -29.9052   23.6367 C   0  0  0  0  0  0
  -16.7273  -28.6465   23.0378 C   0  0  0  0  0  0
  -26.4579  -31.6653   25.0810 C   0  0  0  0  0  0
  -25.3980  -31.3745   26.1675 C   0  0  0  0  0  0
  -27.0547  -30.3101   24.6348 C   0  0  0  0  0  0
  -27.6182  -32.4467   25.7425 C   0  0  0  0  0  0
  -27.5581  -37.1822   24.8485 C   0  0  0  0  0  0
  -21.4105  -29.3060   22.3609 N   0  0  0  0  0  0
  -26.4308  -37.3788   23.9402 N   0  0  0  0  0  0
  -24.6581  -31.0897   22.1110 N   0  0  0  0  0  0
  -23.4142  -28.8264   23.2946 O   0  0  0  0  0  0
  -28.3466  -26.6879   20.1110 O   0  0  0  0  0  0
  -26.5535  -34.8898   22.4675 O   0  0  0  0  0  0
  -23.5297  -32.1494   23.7650 O   0  0  0  0  0  0
  -31.7177  -24.0356   19.4278 C   0  0  0  0  0  0
  -30.1193  -23.7772   17.6091 C   0  0  0  0  0  0
  -30.1242  -19.1870   19.6586 C   0  0  0  0  0  0
  -32.4105  -18.7114   20.3184 C   0  0  0  0  0  0
  -31.2582  -25.3481   19.6493 C   0  0  0  0  0  0
  -29.6616  -25.0901   17.8249 C   0  0  0  0  0  0
  -29.7294  -17.8936   20.0484 C   0  0  0  0  0  0
  -32.0185  -17.4031   20.6903 C   0  0  0  0  0  0
  -31.0816  -23.2108   18.4720 C   0  0  0  0  0  0
  -31.4578  -19.6166   19.8006 C   0  0  0  0  0  0
  -30.1789  -25.8469   18.8933 C   0  0  0  0  0  0
  -30.6676  -16.9686   20.5514 C   0  0  0  0  0  0
  -31.1528  -21.7426   18.5494 C   0  0  0  0  0  0
  -31.7673  -21.0283   19.5109 C   0  0  0  0  0  0
  -29.4510  -27.0998   19.3247 C   0  0  0  0  0  0
  -30.2084  -15.6464   20.8901 N   0  0  0  0  0  0
  -31.4547  -12.4212   19.0979 H   0  0  0  0  0  0
  -30.3119  -11.3534   19.8671 H   0  0  0  0  0  0
  -29.7451  -11.8251   17.4212 H   0  0  0  0  0  0
  -29.6067  -13.5263   17.7849 H   0  0  0  0  0  0
  -27.8724  -11.2951   18.8732 H   0  0  0  0  0  0
  -27.3507  -12.5731   17.8054 H   0  0  0  0  0  0
  -27.6565  -14.2549   19.5028 H   0  0  0  0  0  0
  -28.7072  -12.1406   21.4605 H   0  0  0  0  0  0
  -28.4931  -13.8397   21.7869 H   0  0  0  0  0  0
  -25.2790   -9.5660   22.4766 H   0  0  0  0  0  0
  -24.0024   -7.4622   22.7463 H   0  0  0  0  0  0
  -21.0872   -8.8816   19.8937 H   0  0  0  0  0  0
  -22.3774  -10.9697   19.6182 H   0  0  0  0  0  0
  -21.2072   -7.6167   23.9746 H   0  0  0  0  0  0
  -21.1510   -6.0525   25.9094 H   0  0  0  0  0  0
  -22.0571   -2.7609   23.2843 H   0  0  0  0  0  0
  -22.4146  -11.9948   22.4938 H   0  0  0  0  0  0
  -21.1109  -13.1234   22.2576 H   0  0  0  0  0  0
  -24.6377  -15.8317   20.5220 H   0  0  0  0  0  0
  -26.2388  -15.6406   20.0271 H   0  0  0  0  0  0
  -26.7040  -32.5447   23.1172 H   0  0  0  0  0  0
  -25.0401  -33.9887   25.0746 H   0  0  0  0  0  0
  -22.6817  -31.3234   21.4148 H   0  0  0  0  0  0
  -23.3754  -35.9624   23.3418 H   0  0  0  0  0  0
  -24.3540  -36.8796   22.2064 H   0  0  0  0  0  0
  -23.7274  -37.6511   23.6642 H   0  0  0  0  0  0
  -26.1470  -31.6456   20.7056 H   0  0  0  0  0  0
  -26.7684  -30.7930   22.0865 H   0  0  0  0  0  0
  -28.1030  -29.1464   21.1510 H   0  0  0  0  0  0
  -26.0439  -25.9624   19.0998 H   0  0  0  0  0  0
  -23.9583  -27.2924   19.0987 H   0  0  0  0  0  0
  -23.7334  -30.6361   19.4166 H   0  0  0  0  0  0
  -22.7323  -29.2883   19.8426 H   0  0  0  0  0  0
  -25.1317  -36.2006   25.0861 H   0  0  0  0  0  0
  -20.9989  -28.3264   24.1357 H   0  0  0  0  0  0
  -20.5697  -26.2277   23.3545 H   0  0  0  0  0  0
  -21.6659  -26.7454   22.1147 H   0  0  0  0  0  0
  -19.6936  -25.6271   21.1212 H   0  0  0  0  0  0
  -19.6709  -27.3141   20.6665 H   0  0  0  0  0  0
  -17.4207  -26.6621   21.4009 H   0  0  0  0  0  0
  -18.0388  -26.0030   22.8972 H   0  0  0  0  0  0
  -19.7985  -30.7276   24.2121 H   0  0  0  0  0  0
  -17.5082  -31.6264   24.5149 H   0  0  0  0  0  0
  -15.5386  -30.2950   23.7757 H   0  0  0  0  0  0
  -15.8674  -28.0796   22.7119 H   0  0  0  0  0  0
  -24.5841  -30.7483   25.8003 H   0  0  0  0  0  0
  -24.9624  -32.2948   26.5601 H   0  0  0  0  0  0
  -25.8422  -30.8463   27.0127 H   0  0  0  0  0  0
  -26.3080  -29.6469   24.1979 H   0  0  0  0  0  0
  -27.4871  -29.7783   25.4832 H   0  0  0  0  0  0
  -27.8688  -30.4359   23.9203 H   0  0  0  0  0  0
  -27.2795  -33.3701   26.2127 H   0  0  0  0  0  0
  -28.3843  -32.7165   25.0142 H   0  0  0  0  0  0
  -28.1074  -31.8598   26.5205 H   0  0  0  0  0  0
  -28.2703  -38.0025   24.7453 H   0  0  0  0  0  0
  -28.0986  -36.2581   24.6430 H   0  0  0  0  0  0
  -27.2284  -37.1580   25.8884 H   0  0  0  0  0  0
  -20.9206  -29.8762   21.6850 H   0  0  0  0  0  0
  -26.0203  -38.2872   24.1387 H   0  0  0  0  0  0
  -32.4701  -23.6404   20.0907 H   0  0  0  0  0  0
  -29.6232  -23.1686   16.8636 H   0  0  0  0  0  0
  -29.3730  -19.8811   19.3039 H   0  0  0  0  0  0
  -33.4361  -19.0212   20.4617 H   0  0  0  0  0  0
  -31.6715  -25.9264   20.4646 H   0  0  0  0  0  0
  -28.8378  -25.4757   17.2385 H   0  0  0  0  0  0
  -28.6885  -17.6291   19.9516 H   0  0  0  0  0  0
  -32.7758  -16.7423   21.0860 H   0  0  0  0  0  0
  -30.5631  -21.2094   17.8145 H   0  0  0  0  0  0
  -32.4292  -21.5149   20.2110 H   0  0  0  0  0  0
  -29.1325  -27.6448   18.4353 H   0  0  0  0  0  0
  -30.1149  -27.7474   19.9015 H   0  0  0  0  0  0
  -29.2307  -15.5531   21.1266 H   0  0  0  0  0  0
  1 25  1  0  0  0
  1 30  2  0  0  0
  1 86  1  0  0  0
  2  3  1  0  0  0
  2 25  1  0  0  0
  2 87  1  0  0  0
  2 88  1  0  0  0
  3  4  1  0  0  0
  3 89  1  0  0  0
  3 90  1  0  0  0
  4  5  1  0  0  0
  4 91  1  0  0  0
  4 92  1  0  0  0
  5  6  1  0  0  0
  5 26  1  0  0  0
  5 93  1  0  0  0
  6 25  1  0  0  0
  6 94  1  0  0  0
  6 95  1  0  0  0
  7  8  2  0  0  0
  7 26  1  0  0  0
  7 29  1  0  0  0
  8  9  1  0  0  0
  8 22  1  0  0  0
  9 10  1  0  0  0
  9 27  2  0  0  0
 10 11  2  0  0  0
 10 15  1  0  0  0
 11 12  1  0  0  0
 11 96  1  0  0  0
 12 13  2  0  0  0
 12 97  1  0  0  0
 13 14  1  0  0  0
 13 31  1  0  0  0
 14 15  2  0  0  0
 14 98  1  0  0  0
 15 99  1  0  0  0
 16 17  2  0  0  0
 16 21  1  0  0  0
 16 31  1  0  0  0
 17 18  1  0  0  0
 17100  1  0  0  0
 18 19  2  0  0  0
 18101  1  0  0  0
 19 20  1  0  0  0
 19 24  1  0  0  0
 20 21  2  0  0  0
 20102  1  0  0  0
 21 23  1  0  0  0
 22 28  1  0  0  0
 22 32  2  0  0  0
 26 27  1  0  0  0
 28103  1  0  0  0
 28104  1  0  0  0
 29105  1  0  0  0
 29106  1  0  0  0
 33 34  1  0  0  0
 33 66  1  0  0  0
 33 70  2  0  0  0
 34 36  1  0  0  0
 34 59  1  0  0  0
 34107  1  0  0  0
 35 44  2  0  0  0
 35 45  1  0  0  0
 35 68  1  0  0  0
 36 56  1  0  0  0
 36108  1  0  0  0
 37 39  1  0  0  0
 37 47  1  0  0  0
 37 66  1  0  0  0
 37109  1  0  0  0
 38 43  2  0  0  0
 38 46  1  0  0  0
 38 47  1  0  0  0
 39 64  1  0  0  0
 39 67  2  0  0  0
 40 52  1  0  0  0
 40 53  2  0  0  0
 40 58  1  0  0  0
 41110  1  0  0  0
 41111  1  0  0  0
 41112  1  0  0  0
 41 48  1  0  0  0
 42 43  1  0  0  0
 42 66  1  0  0  0
 42113  1  0  0  0
 42114  1  0  0  0
 43 44  1  0  0  0
 44115  1  0  0  0
 45 46  2  0  0  0
 45116  1  0  0  0
 46117  1  0  0  0
 47118  1  0  0  0
 47119  1  0  0  0
 48 56  1  0  0  0
 48 65  1  0  0  0
 48120  1  0  0  0
 49 50  1  0  0  0
 49 53  1  0  0  0
 49 64  1  0  0  0
 49121  1  0  0  0
 50 51  1  0  0  0
 50122  1  0  0  0
 50123  1  0  0  0
 51 52  1  0  0  0
 51124  1  0  0  0
 51125  1  0  0  0
 52126  1  0  0  0
 52127  1  0  0  0
 53 54  1  0  0  0
 54 55  2  0  0  0
 54128  1  0  0  0
 55 57  1  0  0  0
 55129  1  0  0  0
 56 69  2  0  0  0
 57 58  2  0  0  0
 57130  1  0  0  0
 58131  1  0  0  0
 59 60  1  0  0  0
 59 61  1  0  0  0
 59 62  1  0  0  0
 60132  1  0  0  0
 60133  1  0  0  0
 60134  1  0  0  0
 61135  1  0  0  0
 61136  1  0  0  0
 61137  1  0  0  0
 62138  1  0  0  0
 62139  1  0  0  0
 62140  1  0  0  0
 63 65  1  0  0  0
 63141  1  0  0  0
 63142  1  0  0  0
 63143  1  0  0  0
 64144  1  0  0  0
 65145  1  0  0  0
 68 85  1  0  0  0
 71 75  2  0  0  0
 71 79  1  0  0  0
 71146  1  0  0  0
 72 76  1  0  0  0
 72 79  2  0  0  0
 72147  1  0  0  0
 73 77  2  0  0  0
 73 80  1  0  0  0
 73148  1  0  0  0
 74 78  1  0  0  0
 74 80  2  0  0  0
 74149  1  0  0  0
 75 81  1  0  0  0
 75150  1  0  0  0
 76 81  2  0  0  0
 76151  1  0  0  0
 77 82  1  0  0  0
 77152  1  0  0  0
 78 82  2  0  0  0
 78153  1  0  0  0
 79 83  1  0  0  0
 80 84  1  0  0  0
 81 85  1  0  0  0
 82 86  1  0  0  0
 83 84  2  0  0  0
 83154  1  0  0  0
 84155  1  0  0  0
 85156  1  0  0  0
 85157  1  0  0  0
 86158  1  0  0  0
M  ISO  4   1 100  68 101  85 101  86 100
M  END
> <chiral flag>
0

> <version>
0

> <s_m_source_file>
/data/baiqing/PycharmProjects/Reinvent-master-3.2/result/LINK_invent/BTK/process_docking_weight1_custom_product_contain_oxygen_bond_distance_aromatic_linkinvent_7_9_3/rearranged_h_0001.sdf

> <i_m_source_file_index>
27

> <r_mmod_Potential_Energy-OPLS-2005>
74.5348892211914

> <r_mmod_Stretch_Energy-OPLS-2005>
35.4555969238281

> <r_mmod_Bend_Energy-OPLS-2005>
98.3308410644531

> <r_mmod_Torsional_Energy-OPLS-2005>
304.077758789062

> <r_mmod_Improper_Torsional_Energy-OPLS-2005>
13.3705072402954

> <r_mmod_Van_der_Waal_Energy-OPLS-2005>
175.929412841797

> <r_mmod_Electrostatic_Energy-OPLS-2005>
-369.734588623047

> <r_mmod_Solvation_Energy-OPLS-2005>
-209.351577758789

> <b_mmod_Minimization_Converged-OPLS-2005>
0

> <r_mmod_RMS_Derivative-OPLS-2005>
6.00886058807373

$$$$
27
                    3D
 Structure written by MMmdl.
140147  0  0  1  0            999 V2000
  -30.1611  -16.0041   20.3080 C   0  0  0  0  0  0
  -30.3940  -13.3709   19.5193 C   0  0  0  0  0  0
  -29.5602  -12.7495   18.3505 C   0  0  0  0  0  0
  -28.1679  -12.3098   18.8207 C   0  0  0  0  0  0
  -27.5837  -13.3431   19.8035 C   0  0  2  0  0  0
  -28.5794  -13.8362   20.8889 C   0  0  0  0  0  0
  -25.2278  -13.8329   20.5856 C   0  0  0  0  0  0
  -24.1700  -13.0433   20.9315 C   0  0  0  0  0  0
  -24.6450  -11.6960   20.8763 C   0  0  0  0  0  0
  -23.9156  -10.4295   21.0384 C   0  0  0  0  0  0
  -24.3676   -9.4207   21.9173 C   0  0  0  0  0  0
  -23.6326   -8.2253   22.0753 C   0  0  0  0  0  0
  -22.4305   -8.0296   21.3544 C   0  0  0  0  0  0
  -21.9960   -9.0273   20.4641 C   0  0  0  0  0  0
  -22.7315  -10.2138   20.3042 C   0  0  0  0  0  0
  -21.6863   -6.0747   22.5279 C   0  0  0  0  0  0
  -21.4022   -6.5646   23.8213 C   0  0  0  0  0  0
  -21.3661   -5.6796   24.9173 C   0  0  0  0  0  0
  -21.6044   -4.3059   24.7222 C   0  0  0  0  0  0
  -21.8818   -3.8153   23.4342 C   0  0  0  0  0  0
  -21.9196   -4.6972   22.3400 C   0  0  0  0  0  0
  -22.7702  -13.5137   21.1934 C   0  0  0  0  0  0
  -22.1662   -4.2158   21.0977 F   0  0  0  0  0  0
  -21.5626   -3.4540   25.7734 F   0  0  0  0  0  0
  -29.6775  -14.5802   20.1919 N   0  0  0  0  0  0
  -26.2769  -12.9729   20.3291 N   0  0  0  0  0  0
  -25.9412  -11.6758   20.5682 N   0  0  0  0  0  0
  -22.0374  -12.8106   22.0483 N   0  0  0  0  0  0
  -25.3817  -15.2078   20.4306 N   0  0  0  0  0  0
  -31.4087  -15.8722   20.2822 O   0  0  0  0  0  0
  -21.6655   -6.8899   21.4244 O   0  0  0  0  0  0
  -22.3368  -14.5432   20.6768 O   0  0  0  0  0  0
  -24.7122  -31.7741   23.1306 C   0  0  0  0  0  0
  -25.9575  -32.4339   23.7956 C   0  0  1  0  0  0
  -27.2357  -26.4414   20.2493 C   0  0  0  0  0  0
  -25.6043  -33.8173   24.1821 N   0  0  0  0  0  0
  -23.5502  -30.3697   21.4913 C   0  0  2  0  0  0
  -25.0042  -28.6446   20.1367 C   0  0  0  0  0  0
  -22.7896  -29.4343   22.4700 C   0  0  0  0  0  0
  -18.0162  -28.1569   22.8214 C   0  0  0  0  0  0
  -24.1498  -36.7093   23.2657 C   0  0  0  0  0  0
  -26.1405  -30.4200   21.4324 C   0  0  0  0  0  0
  -26.2010  -28.9529   20.7936 C   0  0  0  0  0  0
  -27.2917  -27.8910   20.8024 C   0  0  0  0  0  0
  -25.9991  -26.4075   19.5352 C   0  0  0  0  0  0
  -24.9575  -27.3998   19.4818 C   0  0  0  0  0  0
  -23.8153  -29.6344   20.1422 C   0  0  0  0  0  0
  -25.4158  -36.2817   24.0263 C   0  0  1  0  0  0
  -20.6073  -28.3875   23.0881 C   0  0  2  0  0  0
  -20.7786  -26.9756   22.4608 C   0  0  0  0  0  0
  -19.5498  -26.4216   21.7088 C   0  0  0  0  0  0
  -18.1097  -26.8638   22.0237 C   0  0  0  0  0  0
  -19.1588  -28.8842   23.2637 C   0  0  0  0  0  0
  -18.9570  -30.1345   23.8911 C   0  0  0  0  0  0
  -17.6624  -30.6560   24.0765 C   0  0  0  0  0  0
  -25.9160  -34.9216   23.4892 C   0  0  0  0  0  0
  -16.5419  -29.9202   23.6574 C   0  0  0  0  0  0
  -16.7219  -28.6723   23.0397 C   0  0  0  0  0  0
  -26.4648  -31.6466   25.0680 C   0  0  0  0  0  0
  -25.3637  -31.3855   26.1238 C   0  0  0  0  0  0
  -27.0614  -30.2776   24.6755 C   0  0  0  0  0  0
  -27.6047  -32.4377   25.7524 C   0  0  0  0  0  0
  -27.5558  -37.1705   24.8467 C   0  0  0  0  0  0
  -21.4495  -29.3435   22.3578 N   0  0  0  0  0  0
  -26.4262  -37.3606   23.9409 N   0  0  0  0  0  0
  -24.8283  -30.8941   22.0696 N   0  0  0  0  0  0
  -23.4210  -28.7802   23.3033 O   0  0  0  0  0  0
  -28.1967  -25.1262   20.2226 O   0  0  0  0  0  0
  -26.5824  -34.8842   22.4527 O   0  0  0  0  0  0
  -23.6085  -32.0940   23.6097 O   0  0  0  0  0  0
  -28.7705  -21.2825   19.9969 C   0  0  0  0  0  0
  -29.3625  -19.3536   20.6014 C   0  0  0  0  0  0
  -28.2110  -23.2498   20.5175 C   0  0  0  0  0  0
  -29.4079  -17.4693   20.2741 N   0  0  0  0  0  0
  -31.3466  -13.7011   19.1035 H   0  0  0  0  0  0
  -30.6640  -12.6081   20.2520 H   0  0  0  0  0  0
  -30.0920  -11.9085   17.9034 H   0  0  0  0  0  0
  -29.4512  -13.4961   17.5625 H   0  0  0  0  0  0
  -28.2677  -11.3481   19.3257 H   0  0  0  0  0  0
  -27.5014  -12.1499   17.9722 H   0  0  0  0  0  0
  -27.3925  -14.2099   19.1687 H   0  0  0  0  0  0
  -28.9347  -13.0208   21.5211 H   0  0  0  0  0  0
  -28.0774  -14.5353   21.5592 H   0  0  0  0  0  0
  -25.2813   -9.5677   22.4762 H   0  0  0  0  0  0
  -24.0020   -7.4647   22.7483 H   0  0  0  0  0  0
  -21.0888   -8.8807   19.8948 H   0  0  0  0  0  0
  -22.3776  -10.9680   19.6153 H   0  0  0  0  0  0
  -21.2018   -7.6155   23.9719 H   0  0  0  0  0  0
  -21.1482   -6.0525   25.9077 H   0  0  0  0  0  0
  -22.0594   -2.7615   23.2840 H   0  0  0  0  0  0
  -22.4027  -11.9789   22.4882 H   0  0  0  0  0  0
  -21.0974  -13.1085   22.2674 H   0  0  0  0  0  0
  -24.6092  -15.8546   20.5480 H   0  0  0  0  0  0
  -26.2271  -15.6547   20.1017 H   0  0  0  0  0  0
  -26.7689  -32.4750   23.0689 H   0  0  0  0  0  0
  -25.0068  -33.9166   24.9896 H   0  0  0  0  0  0
  -22.8946  -31.2157   21.2742 H   0  0  0  0  0  0
  -23.3788  -35.9392   23.3244 H   0  0  0  0  0  0
  -24.3558  -36.8846   22.2087 H   0  0  0  0  0  0
  -23.7232  -37.6231   23.6804 H   0  0  0  0  0  0
  -26.3681  -31.1235   20.6306 H   0  0  0  0  0  0
  -26.9832  -30.5006   22.1060 H   0  0  0  0  0  0
  -28.1975  -28.1537   21.3305 H   0  0  0  0  0  0
  -25.7911  -25.4872   19.0076 H   0  0  0  0  0  0
  -24.0632  -27.1495   18.9276 H   0  0  0  0  0  0
  -24.0136  -30.3783   19.3698 H   0  0  0  0  0  0
  -22.9130  -29.1146   19.8155 H   0  0  0  0  0  0
  -25.1379  -36.1542   25.0751 H   0  0  0  0  0  0
  -20.9993  -28.3319   24.1064 H   0  0  0  0  0  0
  -21.1583  -26.3040   23.2422 H   0  0  0  0  0  0
  -21.6163  -26.9721   21.7601 H   0  0  0  0  0  0
  -19.3880  -26.0269   22.7114 H   0  0  0  0  0  0
  -19.6128  -27.3462   21.1307 H   0  0  0  0  0  0
  -17.5815  -27.0283   21.0810 H   0  0  0  0  0  0
  -17.5017  -26.0951   22.5175 H   0  0  0  0  0  0
  -19.8097  -30.7074   24.2302 H   0  0  0  0  0  0
  -17.5302  -31.6181   24.5523 H   0  0  0  0  0  0
  -15.5460  -30.3152   23.8048 H   0  0  0  0  0  0
  -15.8546  -28.1225   22.6995 H   0  0  0  0  0  0
  -24.5858  -30.7178   25.7514 H   0  0  0  0  0  0
  -24.8793  -32.3100   26.4389 H   0  0  0  0  0  0
  -25.7743  -30.9184   27.0198 H   0  0  0  0  0  0
  -26.3378  -29.6321   24.1770 H   0  0  0  0  0  0
  -27.3966  -29.7315   25.5583 H   0  0  0  0  0  0
  -27.9387  -30.3845   24.0374 H   0  0  0  0  0  0
  -27.2557  -33.3779   26.1808 H   0  0  0  0  0  0
  -28.4013  -32.6778   25.0469 H   0  0  0  0  0  0
  -28.0543  -31.8704   26.5683 H   0  0  0  0  0  0
  -28.2525  -38.0046   24.7520 H   0  0  0  0  0  0
  -28.1104  -36.2565   24.6288 H   0  0  0  0  0  0
  -27.2271  -37.1326   25.8867 H   0  0  0  0  0  0
  -20.9859  -29.9264   21.6745 H   0  0  0  0  0  0
  -26.0065  -38.2641   24.1431 H   0  0  0  0  0  0
  -27.9479  -21.0312   19.3274 H   0  0  0  0  0  0
  -29.5799  -21.5046   19.3014 H   0  0  0  0  0  0
  -28.8623  -19.3135   21.5693 H   0  0  0  0  0  0
  -30.4044  -19.5229   20.8749 H   0  0  0  0  0  0
  -28.6621  -23.2870   21.5090 H   0  0  0  0  0  0
  -27.1534  -23.1048   20.7380 H   0  0  0  0  0  0
  -28.4467  -17.2150   20.0887 H   0  0  0  0  0  0
  1 25  1  0  0  0
  1 30  2  0  0  0
  1 74  1  0  0  0
  2  3  1  0  0  0
  2 25  1  0  0  0
  2 75  1  0  0  0
  2 76  1  0  0  0
  3  4  1  0  0  0
  3 77  1  0  0  0
  3 78  1  0  0  0
  4  5  1  0  0  0
  4 79  1  0  0  0
  4 80  1  0  0  0
  5  6  1  0  0  0
  5 26  1  0  0  0
  5 81  1  0  0  0
  6 25  1  0  0  0
  6 82  1  0  0  0
  6 83  1  0  0  0
  7  8  2  0  0  0
  7 26  1  0  0  0
  7 29  1  0  0  0
  8  9  1  0  0  0
  8 22  1  0  0  0
  9 10  1  0  0  0
  9 27  2  0  0  0
 10 11  2  0  0  0
 10 15  1  0  0  0
 11 12  1  0  0  0
 11 84  1  0  0  0
 12 13  2  0  0  0
 12 85  1  0  0  0
 13 14  1  0  0  0
 13 31  1  0  0  0
 14 15  2  0  0  0
 14 86  1  0  0  0
 15 87  1  0  0  0
 16 17  2  0  0  0
 16 21  1  0  0  0
 16 31  1  0  0  0
 17 18  1  0  0  0
 17 88  1  0  0  0
 18 19  2  0  0  0
 18 89  1  0  0  0
 19 20  1  0  0  0
 19 24  1  0  0  0
 20 21  2  0  0  0
 20 90  1  0  0  0
 21 23  1  0  0  0
 22 28  1  0  0  0
 22 32  2  0  0  0
 26 27  1  0  0  0
 28 91  1  0  0  0
 28 92  1  0  0  0
 29 93  1  0  0  0
 29 94  1  0  0  0
 33 34  1  0  0  0
 33 66  1  0  0  0
 33 70  2  0  0  0
 34 36  1  0  0  0
 34 59  1  0  0  0
 34 95  1  0  0  0
 35 44  2  0  0  0
 35 45  1  0  0  0
 35 68  1  0  0  0
 36 56  1  0  0  0
 36 96  1  0  0  0
 37 39  1  0  0  0
 37 47  1  0  0  0
 37 66  1  0  0  0
 37 97  1  0  0  0
 38 43  2  0  0  0
 38 46  1  0  0  0
 38 47  1  0  0  0
 39 64  1  0  0  0
 39 67  2  0  0  0
 40 52  1  0  0  0
 40 53  2  0  0  0
 40 58  1  0  0  0
 41 98  1  0  0  0
 41 99  1  0  0  0
 41100  1  0  0  0
 41 48  1  0  0  0
 42 43  1  0  0  0
 42 66  1  0  0  0
 42101  1  0  0  0
 42102  1  0  0  0
 43 44  1  0  0  0
 44103  1  0  0  0
 45 46  2  0  0  0
 45104  1  0  0  0
 46105  1  0  0  0
 47106  1  0  0  0
 47107  1  0  0  0
 48 56  1  0  0  0
 48 65  1  0  0  0
 48108  1  0  0  0
 49 50  1  0  0  0
 49 53  1  0  0  0
 49 64  1  0  0  0
 49109  1  0  0  0
 50 51  1  0  0  0
 50110  1  0  0  0
 50111  1  0  0  0
 51 52  1  0  0  0
 51112  1  0  0  0
 51113  1  0  0  0
 52114  1  0  0  0
 52115  1  0  0  0
 53 54  1  0  0  0
 54 55  2  0  0  0
 54116  1  0  0  0
 55 57  1  0  0  0
 55117  1  0  0  0
 56 69  2  0  0  0
 57 58  2  0  0  0
 57118  1  0  0  0
 58119  1  0  0  0
 59 60  1  0  0  0
 59 61  1  0  0  0
 59 62  1  0  0  0
 60120  1  0  0  0
 60121  1  0  0  0
 60122  1  0  0  0
 61123  1  0  0  0
 61124  1  0  0  0
 61125  1  0  0  0
 62126  1  0  0  0
 62127  1  0  0  0
 62128  1  0  0  0
 63 65  1  0  0  0
 63129  1  0  0  0
 63130  1  0  0  0
 63131  1  0  0  0
 64132  1  0  0  0
 65133  1  0  0  0
 68 73  1  0  0  0
 71 72  1  0  0  0
 71 73  1  0  0  0
 71134  1  0  0  0
 71135  1  0  0  0
 72 74  1  0  0  0
 72136  1  0  0  0
 72137  1  0  0  0
 73138  1  0  0  0
 73139  1  0  0  0
 74140  1  0  0  0
M  ISO  4   1 100  68 101  73 101  74 100
M  END
> <chiral flag>
0

> <version>
0

> <s_m_source_file>
/data/baiqing/PycharmProjects/Reinvent-master-3.2/result/LINK_invent/BTK/process_docking_weight1_custom_product_contain_oxygen_bond_distance_aromatic_linkinvent_7_9_3/rearranged_h_0001.sdf

> <i_m_source_file_index>
28

> <r_mmod_Potential_Energy-OPLS-2005>
4439.1796875

> <r_mmod_Stretch_Energy-OPLS-2005>
1928.78686523438

> <r_mmod_Bend_Energy-OPLS-2005>
1134.07287597656

> <r_mmod_Torsional_Energy-OPLS-2005>
253.740341186523

> <r_mmod_Improper_Torsional_Energy-OPLS-2005>
5.21059560775757

> <r_mmod_Van_der_Waal_Energy-OPLS-2005>
136.971328735352

> <r_mmod_Electrostatic_Energy-OPLS-2005>
-343.119842529297

> <r_mmod_Solvation_Energy-OPLS-2005>
-223.109710693359

> <b_mmod_Minimization_Converged-OPLS-2005>
0

> <r_mmod_RMS_Derivative-OPLS-2005>
0.0710311159491539

$$$$
28
                    3D
 Structure written by MMmdl.
148157  0  0  1  0            999 V2000
  -30.3919  -15.4608   20.3556 C   0  0  0  0  0  0
  -30.4240  -12.9500   19.5410 C   0  0  0  0  0  0
  -29.5398  -12.6148   18.3110 C   0  0  0  0  0  0
  -28.1016  -12.2985   18.7470 C   0  0  0  0  0  0
  -27.6006  -13.2956   19.8189 C   0  0  2  0  0  0
  -28.6238  -13.5660   20.9463 C   0  0  0  0  0  0
  -25.2349  -13.8284   20.5796 C   0  0  0  0  0  0
  -24.1715  -13.0446   20.9269 C   0  0  0  0  0  0
  -24.6396  -11.6949   20.8762 C   0  0  0  0  0  0
  -23.9101  -10.4300   21.0401 C   0  0  0  0  0  0
  -24.3644   -9.4212   21.9178 C   0  0  0  0  0  0
  -23.6309   -8.2251   22.0753 C   0  0  0  0  0  0
  -22.4291   -8.0289   21.3543 C   0  0  0  0  0  0
  -21.9931   -9.0262   20.4643 C   0  0  0  0  0  0
  -22.7270  -10.2137   20.3050 C   0  0  0  0  0  0
  -21.6858   -6.0739   22.5278 C   0  0  0  0  0  0
  -21.4018   -6.5640   23.8210 C   0  0  0  0  0  0
  -21.3662   -5.6793   24.9172 C   0  0  0  0  0  0
  -21.6045   -4.3054   24.7223 C   0  0  0  0  0  0
  -21.8818   -3.8147   23.4346 C   0  0  0  0  0  0
  -21.9195   -4.6963   22.3401 C   0  0  0  0  0  0
  -22.7732  -13.5182   21.1912 C   0  0  0  0  0  0
  -22.1662   -4.2149   21.0977 F   0  0  0  0  0  0
  -21.5630   -3.4538   25.7738 F   0  0  0  0  0  0
  -29.8264  -14.1296   20.3016 N   0  0  0  0  0  0
  -26.2779  -12.9586   20.3247 N   0  0  0  0  0  0
  -25.9339  -11.6671   20.5723 N   0  0  0  0  0  0
  -22.0399  -12.8154   22.0463 N   0  0  0  0  0  0
  -25.4000  -15.2023   20.4284 N   0  0  0  0  0  0
  -31.6123  -15.3898   20.1182 O   0  0  0  0  0  0
  -21.6651   -6.8887   21.4241 O   0  0  0  0  0  0
  -22.3408  -14.5482   20.6753 O   0  0  0  0  0  0
  -24.6744  -31.8098   23.1599 C   0  0  0  0  0  0
  -25.9372  -32.4517   23.8109 C   0  0  1  0  0  0
  -27.2214  -26.7998   20.1979 C   0  0  0  0  0  0
  -25.5994  -33.8339   24.2007 N   0  0  0  0  0  0
  -23.4961  -30.4159   21.5108 C   0  0  2  0  0  0
  -24.9537  -28.7800   20.1094 C   0  0  0  0  0  0
  -22.7725  -29.4365   22.4731 C   0  0  0  0  0  0
  -18.0332  -28.1419   22.8462 C   0  0  0  0  0  0
  -24.1489  -36.7167   23.2651 C   0  0  0  0  0  0
  -26.0716  -30.5727   21.4122 C   0  0  0  0  0  0
  -26.1376  -29.1494   20.7585 C   0  0  0  0  0  0
  -27.2580  -28.1815   20.7796 C   0  0  0  0  0  0
  -26.0126  -26.6217   19.4819 C   0  0  0  0  0  0
  -24.9247  -27.5404   19.4487 C   0  0  0  0  0  0
  -23.7445  -29.7222   20.1409 C   0  0  0  0  0  0
  -25.4137  -36.2922   24.0289 C   0  0  1  0  0  0
  -20.5967  -28.3773   23.1158 C   0  0  2  0  0  0
  -20.6803  -26.9441   22.5404 C   0  0  0  0  0  0
  -19.5775  -26.6377   21.5218 C   0  0  0  0  0  0
  -18.1957  -26.7949   22.1623 C   0  0  0  0  0  0
  -19.1599  -28.8920   23.2793 C   0  0  0  0  0  0
  -18.9506  -30.1507   23.8835 C   0  0  0  0  0  0
  -17.6498  -30.6607   24.0554 C   0  0  0  0  0  0
  -25.9114  -34.9311   23.4978 C   0  0  0  0  0  0
  -16.5387  -29.9090   23.6353 C   0  0  0  0  0  0
  -16.7314  -28.6512   23.0370 C   0  0  0  0  0  0
  -26.4586  -31.6515   25.0693 C   0  0  0  0  0  0
  -25.3677  -31.3804   26.1325 C   0  0  0  0  0  0
  -27.0507  -30.2865   24.6526 C   0  0  0  0  0  0
  -27.6052  -32.4361   25.7499 C   0  0  0  0  0  0
  -27.5561  -37.1741   24.8471 C   0  0  0  0  0  0
  -21.4382  -29.3035   22.3486 N   0  0  0  0  0  0
  -26.4270  -37.3673   23.9411 N   0  0  0  0  0  0
  -24.7697  -30.9634   22.0806 N   0  0  0  0  0  0
  -23.4214  -28.7951   23.3031 O   0  0  0  0  0  0
  -28.1769  -25.6139   20.3270 O   0  0  0  0  0  0
  -26.5737  -34.8871   22.4584 O   0  0  0  0  0  0
  -23.5783  -32.1136   23.6607 O   0  0  0  0  0  0
  -28.6242  -20.3959   22.1470 C   0  0  0  0  0  0
  -28.4131  -21.7844   21.7060 C   0  0  0  0  0  0
  -29.0351  -21.0880   19.5527 C   0  0  0  0  0  0
  -29.0440  -19.2920   21.3132 C   0  0  0  0  0  0
  -29.2788  -19.6256   20.0088 C   0  0  0  0  0  0
  -28.5761  -22.3170   20.3696 C   0  0  0  0  0  0
  -29.2923  -17.7055   21.5924 C   0  0  0  0  0  0
  -29.7639  -18.1352   19.4184 C   0  0  0  0  0  0
  -28.0016  -23.9754   19.8801 C   0  0  0  0  0  0
  -29.6892  -16.8261   20.3727 N   0  0  0  0  0  0
  -31.4343  -13.1664   19.1921 H   0  0  0  0  0  0
  -30.5304  -12.0785   20.1893 H   0  0  0  0  0  0
  -29.9587  -11.7746   17.7556 H   0  0  0  0  0  0
  -29.5355  -13.4647   17.6273 H   0  0  0  0  0  0
  -28.0961  -11.2884   19.1591 H   0  0  0  0  0  0
  -27.4316  -12.2836   17.8866 H   0  0  0  0  0  0
  -27.4847  -14.2364   19.2787 H   0  0  0  0  0  0
  -28.8396  -12.6651   21.5227 H   0  0  0  0  0  0
  -28.2222  -14.2965   21.6505 H   0  0  0  0  0  0
  -25.2786   -9.5687   22.4758 H   0  0  0  0  0  0
  -24.0013   -7.4645   22.7477 H   0  0  0  0  0  0
  -21.0861   -8.8786   19.8950 H   0  0  0  0  0  0
  -22.3725  -10.9677   19.6161 H   0  0  0  0  0  0
  -21.2009   -7.6146   23.9713 H   0  0  0  0  0  0
  -21.1483   -6.0523   25.9076 H   0  0  0  0  0  0
  -22.0594   -2.7610   23.2848 H   0  0  0  0  0  0
  -22.4047  -11.9828   22.4846 H   0  0  0  0  0  0
  -21.1009  -13.1150   22.2672 H   0  0  0  0  0  0
  -24.6354  -15.8569   20.5541 H   0  0  0  0  0  0
  -26.2562  -15.6480   20.1237 H   0  0  0  0  0  0
  -26.7445  -32.5015   23.0818 H   0  0  0  0  0  0
  -25.0085  -33.9401   25.0123 H   0  0  0  0  0  0
  -22.8164  -31.2512   21.3296 H   0  0  0  0  0  0
  -23.3763  -35.9485   23.3290 H   0  0  0  0  0  0
  -24.3554  -36.8843   22.2070 H   0  0  0  0  0  0
  -23.7244  -37.6343   23.6732 H   0  0  0  0  0  0
  -26.2668  -31.3042   20.6270 H   0  0  0  0  0  0
  -26.9258  -30.6346   22.0742 H   0  0  0  0  0  0
  -28.1440  -28.4600   21.3329 H   0  0  0  0  0  0
  -25.8610  -25.6802   18.9745 H   0  0  0  0  0  0
  -24.0297  -27.2522   18.9149 H   0  0  0  0  0  0
  -23.9105  -30.4873   19.3815 H   0  0  0  0  0  0
  -22.8514  -29.1836   19.8190 H   0  0  0  0  0  0
  -25.1340  -36.1695   25.0778 H   0  0  0  0  0  0
  -21.0054  -28.3394   24.1283 H   0  0  0  0  0  0
  -20.5678  -26.2396   23.3658 H   0  0  0  0  0  0
  -21.6661  -26.7399   22.1213 H   0  0  0  0  0  0
  -19.6933  -25.6272   21.1288 H   0  0  0  0  0  0
  -19.6715  -27.3153   20.6718 H   0  0  0  0  0  0
  -17.4228  -26.6698   21.4026 H   0  0  0  0  0  0
  -18.0345  -26.0105   22.9030 H   0  0  0  0  0  0
  -19.7982  -30.7338   24.2178 H   0  0  0  0  0  0
  -17.5050  -31.6281   24.5165 H   0  0  0  0  0  0
  -15.5387  -30.2972   23.7714 H   0  0  0  0  0  0
  -15.8713  -28.0811   22.7119 H   0  0  0  0  0  0
  -24.5879  -30.7137   25.7626 H   0  0  0  0  0  0
  -24.8845  -32.3015   26.4588 H   0  0  0  0  0  0
  -25.7870  -30.9075   27.0213 H   0  0  0  0  0  0
  -26.3206  -29.6504   24.1509 H   0  0  0  0  0  0
  -27.3965  -29.7278   25.5233 H   0  0  0  0  0  0
  -27.9176  -30.4019   24.0018 H   0  0  0  0  0  0
  -27.2604  -33.3720   26.1907 H   0  0  0  0  0  0
  -28.3940  -32.6833   25.0382 H   0  0  0  0  0  0
  -28.0637  -31.8610   26.5555 H   0  0  0  0  0  0
  -28.2558  -38.0053   24.7503 H   0  0  0  0  0  0
  -28.1075  -36.2575   24.6313 H   0  0  0  0  0  0
  -27.2275  -37.1398   25.8873 H   0  0  0  0  0  0
  -20.9668  -29.8707   21.6578 H   0  0  0  0  0  0
  -26.0102  -38.2723   24.1425 H   0  0  0  0  0  0
  -28.4280  -20.1768   23.1878 H   0  0  0  0  0  0
  -28.0525  -22.4764   22.4544 H   0  0  0  0  0  0
  -29.1810  -21.2701   18.4968 H   0  0  0  0  0  0
  -28.3856  -17.2869   22.0307 H   0  0  0  0  0  0
  -30.0708  -17.6098   22.3500 H   0  0  0  0  0  0
  -30.7952  -18.2338   19.0778 H   0  0  0  0  0  0
  -29.1758  -17.9244   18.5248 H   0  0  0  0  0  0
  -26.9209  -23.8401   19.9152 H   0  0  0  0  0  0
  -28.2227  -23.9978   18.8130 H   0  0  0  0  0  0
  1 25  1  0  0  0
  1 30  2  0  0  0
  1 80  1  0  0  0
  2  3  1  0  0  0
  2 25  1  0  0  0
  2 81  1  0  0  0
  2 82  1  0  0  0
  3  4  1  0  0  0
  3 83  1  0  0  0
  3 84  1  0  0  0
  4  5  1  0  0  0
  4 85  1  0  0  0
  4 86  1  0  0  0
  5  6  1  0  0  0
  5 26  1  0  0  0
  5 87  1  0  0  0
  6 25  1  0  0  0
  6 88  1  0  0  0
  6 89  1  0  0  0
  7  8  2  0  0  0
  7 26  1  0  0  0
  7 29  1  0  0  0
  8  9  1  0  0  0
  8 22  1  0  0  0
  9 10  1  0  0  0
  9 27  2  0  0  0
 10 11  2  0  0  0
 10 15  1  0  0  0
 11 12  1  0  0  0
 11 90  1  0  0  0
 12 13  2  0  0  0
 12 91  1  0  0  0
 13 14  1  0  0  0
 13 31  1  0  0  0
 14 15  2  0  0  0
 14 92  1  0  0  0
 15 93  1  0  0  0
 16 17  2  0  0  0
 16 21  1  0  0  0
 16 31  1  0  0  0
 17 18  1  0  0  0
 17 94  1  0  0  0
 18 19  2  0  0  0
 18 95  1  0  0  0
 19 20  1  0  0  0
 19 24  1  0  0  0
 20 21  2  0  0  0
 20 96  1  0  0  0
 21 23  1  0  0  0
 22 28  1  0  0  0
 22 32  2  0  0  0
 26 27  1  0  0  0
 28 97  1  0  0  0
 28 98  1  0  0  0
 29 99  1  0  0  0
 29100  1  0  0  0
 33 34  1  0  0  0
 33 66  1  0  0  0
 33 70  2  0  0  0
 34 36  1  0  0  0
 34 59  1  0  0  0
 34101  1  0  0  0
 35 44  2  0  0  0
 35 45  1  0  0  0
 35 68  1  0  0  0
 36 56  1  0  0  0
 36102  1  0  0  0
 37 39  1  0  0  0
 37 47  1  0  0  0
 37 66  1  0  0  0
 37103  1  0  0  0
 38 43  2  0  0  0
 38 46  1  0  0  0
 38 47  1  0  0  0
 39 64  1  0  0  0
 39 67  2  0  0  0
 40 52  1  0  0  0
 40 53  2  0  0  0
 40 58  1  0  0  0
 41104  1  0  0  0
 41105  1  0  0  0
 41106  1  0  0  0
 41 48  1  0  0  0
 42 43  1  0  0  0
 42 66  1  0  0  0
 42107  1  0  0  0
 42108  1  0  0  0
 43 44  1  0  0  0
 44109  1  0  0  0
 45 46  2  0  0  0
 45110  1  0  0  0
 46111  1  0  0  0
 47112  1  0  0  0
 47113  1  0  0  0
 48 56  1  0  0  0
 48 65  1  0  0  0
 48114  1  0  0  0
 49 50  1  0  0  0
 49 53  1  0  0  0
 49 64  1  0  0  0
 49115  1  0  0  0
 50 51  1  0  0  0
 50116  1  0  0  0
 50117  1  0  0  0
 51 52  1  0  0  0
 51118  1  0  0  0
 51119  1  0  0  0
 52120  1  0  0  0
 52121  1  0  0  0
 53 54  1  0  0  0
 54 55  2  0  0  0
 54122  1  0  0  0
 55 57  1  0  0  0
 55123  1  0  0  0
 56 69  2  0  0  0
 57 58  2  0  0  0
 57124  1  0  0  0
 58125  1  0  0  0
 59 60  1  0  0  0
 59 61  1  0  0  0
 59 62  1  0  0  0
 60126  1  0  0  0
 60127  1  0  0  0
 60128  1  0  0  0
 61129  1  0  0  0
 61130  1  0  0  0
 61131  1  0  0  0
 62132  1  0  0  0
 62133  1  0  0  0
 62134  1  0  0  0
 63 65  1  0  0  0
 63135  1  0  0  0
 63136  1  0  0  0
 63137  1  0  0  0
 64138  1  0  0  0
 65139  1  0  0  0
 68 79  1  0  0  0
 71 72  2  0  0  0
 71 74  1  0  0  0
 71140  1  0  0  0
 72 76  1  0  0  0
 72141  1  0  0  0
 73 75  1  0  0  0
 73 76  2  0  0  0
 73142  1  0  0  0
 74 75  2  0  0  0
 74 77  1  0  0  0
 75 78  1  0  0  0
 76 79  1  0  0  0
 77 80  1  0  0  0
 77143  1  0  0  0
 77144  1  0  0  0
 78 80  1  0  0  0
 78145  1  0  0  0
 78146  1  0  0  0
 79147  1  0  0  0
 79148  1  0  0  0
M  ISO  4   1 100  68 101  79 101  80 100
M  END
> <chiral flag>
0

> <version>
0

> <s_m_source_file>
/data/baiqing/PycharmProjects/Reinvent-master-3.2/result/LINK_invent/BTK/process_docking_weight1_custom_product_contain_oxygen_bond_distance_aromatic_linkinvent_7_9_3/rearranged_h_0001.sdf

> <i_m_source_file_index>
29

> <r_mmod_Potential_Energy-OPLS-2005>
1837.16979980469

> <r_mmod_Stretch_Energy-OPLS-2005>
709.284851074219

> <r_mmod_Bend_Energy-OPLS-2005>
552.605346679688

> <r_mmod_Torsional_Energy-OPLS-2005>
276.863555908203

> <r_mmod_Improper_Torsional_Energy-OPLS-2005>
12.1543111801147

> <r_mmod_Van_der_Waal_Energy-OPLS-2005>
120.148109436035

> <r_mmod_Electrostatic_Energy-OPLS-2005>
-309.266662597656

> <r_mmod_Solvation_Energy-OPLS-2005>
-206.278198242188

> <b_mmod_Minimization_Converged-OPLS-2005>
0

> <r_mmod_RMS_Derivative-OPLS-2005>
0.54658055305481

$$$$
29
                    3D
 Structure written by MMmdl.
152161  0  0  1  0            999 V2000
  -30.4612  -15.1302   20.2697 C   0  0  0  0  0  0
  -30.4626  -12.6746   19.5121 C   0  0  0  0  0  0
  -29.5475  -12.3937   18.2914 C   0  0  0  0  0  0
  -28.0667  -12.2383   18.7061 C   0  0  0  0  0  0
  -27.6146  -13.2103   19.8283 C   0  0  2  0  0  0
  -28.6698  -13.3768   20.9416 C   0  0  0  0  0  0
  -25.2487  -13.8088   20.5801 C   0  0  0  0  0  0
  -24.1752  -13.0376   20.9268 C   0  0  0  0  0  0
  -24.6322  -11.6846   20.8820 C   0  0  0  0  0  0
  -23.9005  -10.4250   21.0448 C   0  0  0  0  0  0
  -24.3578   -9.4167   21.9209 C   0  0  0  0  0  0
  -23.6267   -8.2200   22.0759 C   0  0  0  0  0  0
  -22.4252   -8.0250   21.3542 C   0  0  0  0  0  0
  -21.9880   -9.0221   20.4647 C   0  0  0  0  0  0
  -22.7195  -10.2105   20.3074 C   0  0  0  0  0  0
  -21.6839   -6.0718   22.5278 C   0  0  0  0  0  0
  -21.4002   -6.5628   23.8209 C   0  0  0  0  0  0
  -21.3656   -5.6787   24.9175 C   0  0  0  0  0  0
  -21.6047   -4.3050   24.7230 C   0  0  0  0  0  0
  -21.8822   -3.8136   23.4353 C   0  0  0  0  0  0
  -21.9189   -4.6948   22.3406 C   0  0  0  0  0  0
  -22.7788  -13.5201   21.1889 C   0  0  0  0  0  0
  -22.1661   -4.2134   21.0984 F   0  0  0  0  0  0
  -21.5634   -3.4537   25.7744 F   0  0  0  0  0  0
  -29.9129  -13.8267   20.2933 N   0  0  0  0  0  0
  -26.2847  -12.9207   20.3364 N   0  0  0  0  0  0
  -25.9245  -11.6394   20.5866 N   0  0  0  0  0  0
  -22.0414  -12.8209   22.0439 N   0  0  0  0  0  0
  -25.4231  -15.1817   20.4245 N   0  0  0  0  0  0
  -31.6980  -15.1726   20.2157 O   0  0  0  0  0  0
  -21.6620   -6.8850   21.4235 O   0  0  0  0  0  0
  -22.3505  -14.5515   20.6722 O   0  0  0  0  0  0
  -24.6464  -31.8370   23.1802 C   0  0  0  0  0  0
  -25.9214  -32.4657   23.8221 C   0  0  1  0  0  0
  -27.2387  -27.0884   20.1673 C   0  0  0  0  0  0
  -25.5942  -33.8467   24.2140 N   0  0  0  0  0  0
  -23.4548  -30.4489   21.5246 C   0  0  2  0  0  0
  -24.9107  -28.8597   20.1048 C   0  0  0  0  0  0
  -22.7587  -29.4498   22.4828 C   0  0  0  0  0  0
  -18.0306  -28.1400   22.8473 C   0  0  0  0  0  0
  -24.1489  -36.7241   23.2646 C   0  0  0  0  0  0
  -26.0104  -30.6944   21.3862 C   0  0  0  0  0  0
  -26.0824  -29.2989   20.7315 C   0  0  0  0  0  0
  -27.2379  -28.4273   20.7474 C   0  0  0  0  0  0
  -26.0438  -26.7556   19.4931 C   0  0  0  0  0  0
  -24.9071  -27.6043   19.4693 C   0  0  0  0  0  0
  -23.6854  -29.7656   20.1470 C   0  0  0  0  0  0
  -25.4124  -36.3010   24.0311 C   0  0  1  0  0  0
  -20.5920  -28.3728   23.1226 C   0  0  2  0  0  0
  -20.6786  -26.9425   22.5409 C   0  0  0  0  0  0
  -19.5764  -26.6378   21.5215 C   0  0  0  0  0  0
  -18.1944  -26.7937   22.1622 C   0  0  0  0  0  0
  -19.1564  -28.8883   23.2840 C   0  0  0  0  0  0
  -18.9481  -30.1478   23.8868 C   0  0  0  0  0  0
  -17.6478  -30.6595   24.0559 C   0  0  0  0  0  0
  -25.9077  -34.9389   23.5042 C   0  0  0  0  0  0
  -16.5368  -29.9087   23.6338 C   0  0  0  0  0  0
  -16.7291  -28.6506   23.0357 C   0  0  0  0  0  0
  -26.4525  -31.6555   25.0694 C   0  0  0  0  0  0
  -25.3697  -31.3768   26.1384 C   0  0  0  0  0  0
  -27.0407  -30.2947   24.6319 C   0  0  0  0  0  0
  -27.6044  -32.4339   25.7483 C   0  0  0  0  0  0
  -27.5573  -37.1772   24.8464 C   0  0  0  0  0  0
  -21.4273  -29.3038   22.3586 N   0  0  0  0  0  0
  -26.4280  -37.3732   23.9410 N   0  0  0  0  0  0
  -24.7235  -31.0174   22.0853 N   0  0  0  0  0  0
  -23.4205  -28.8071   23.3019 O   0  0  0  0  0  0
  -28.3096  -26.1180   20.3195 O   0  0  0  0  0  0
  -26.5679  -34.8901   22.4631 O   0  0  0  0  0  0
  -23.5571  -32.1270   23.6992 O   0  0  0  0  0  0
  -29.4648  -19.4549   17.8367 C   0  0  0  0  0  0
  -29.2779  -20.5930   18.6395 C   0  0  0  0  0  0
  -29.5145  -19.1172   20.5936 C   0  0  0  0  0  0
  -29.6423  -18.1748   18.3988 C   0  0  0  0  0  0
  -29.7113  -17.8684   19.7708 C   0  0  0  0  0  0
  -29.2761  -20.5160   20.0434 C   0  0  0  0  0  0
  -29.5455  -16.9513   17.5699 C   0  0  0  0  0  0
  -29.0029  -15.9738   18.5984 C   0  0  0  0  0  0
  -28.4796  -24.6454   19.7675 C   0  0  0  0  0  0
  -28.2137  -23.0593   20.3806 C   0  0  0  0  0  0
  -29.6355  -16.2887   19.9010 N   0  0  0  0  0  0
  -29.1320  -21.8187   20.7244 O   0  0  0  0  0  0
  -31.4785  -12.8762   19.1686 H   0  0  0  0  0  0
  -30.5354  -11.7903   20.1471 H   0  0  0  0  0  0
  -29.8753  -11.4709   17.8108 H   0  0  0  0  0  0
  -29.6709  -13.1449   17.5156 H   0  0  0  0  0  0
  -27.9534  -11.2140   19.0625 H   0  0  0  0  0  0
  -27.4142  -12.3236   17.8364 H   0  0  0  0  0  0
  -27.4905  -14.1589   19.3346 H   0  0  0  0  0  0
  -28.8166  -12.4477   21.4939 H   0  0  0  0  0  0
  -28.3413  -14.1246   21.6653 H   0  0  0  0  0  0
  -25.2719   -9.5650   22.4789 H   0  0  0  0  0  0
  -23.9977   -7.4588   22.7474 H   0  0  0  0  0  0
  -21.0814   -8.8737   19.8952 H   0  0  0  0  0  0
  -22.3654  -10.9654   19.6193 H   0  0  0  0  0  0
  -21.1986   -7.6135   23.9706 H   0  0  0  0  0  0
  -21.1480   -6.0520   25.9078 H   0  0  0  0  0  0
  -22.0606   -2.7599   23.2857 H   0  0  0  0  0  0
  -22.4016  -11.9867   22.4831 H   0  0  0  0  0  0
  -21.1035  -13.1247   22.2638 H   0  0  0  0  0  0
  -24.6634  -15.8415   20.5509 H   0  0  0  0  0  0
  -26.2924  -15.6250   20.1571 H   0  0  0  0  0  0
  -26.7282  -32.5247   23.0947 H   0  0  0  0  0  0
  -25.0054  -33.9568   25.0264 H   0  0  0  0  0  0
  -22.7600  -31.2752   21.3615 H   0  0  0  0  0  0
  -23.3760  -35.9562   23.3283 H   0  0  0  0  0  0
  -24.3573  -36.8904   22.2065 H   0  0  0  0  0  0
  -23.7233  -37.6423   23.6706 H   0  0  0  0  0  0
  -26.1707  -31.4439   20.6101 H   0  0  0  0  0  0
  -26.8784  -30.7490   22.0316 H   0  0  0  0  0  0
  -28.1253  -28.7556   21.2700 H   0  0  0  0  0  0
  -25.9570  -25.7871   19.0226 H   0  0  0  0  0  0
  -24.0115  -27.2617   18.9693 H   0  0  0  0  0  0
  -23.8212  -30.5351   19.3862 H   0  0  0  0  0  0
  -22.8009  -29.2049   19.8396 H   0  0  0  0  0  0
  -25.1316  -36.1824   25.0803 H   0  0  0  0  0  0
  -21.0010  -28.3324   24.1349 H   0  0  0  0  0  0
  -20.5672  -26.2345   23.3635 H   0  0  0  0  0  0
  -21.6652  -26.7419   22.1213 H   0  0  0  0  0  0
  -19.6925  -25.6281   21.1265 H   0  0  0  0  0  0
  -19.6704  -27.3172   20.6732 H   0  0  0  0  0  0
  -17.4214  -26.6681   21.4025 H   0  0  0  0  0  0
  -18.0340  -26.0088   22.9026 H   0  0  0  0  0  0
  -19.7959  -30.7300   24.2224 H   0  0  0  0  0  0
  -17.5033  -31.6272   24.5166 H   0  0  0  0  0  0
  -15.5368  -30.2981   23.7681 H   0  0  0  0  0  0
  -15.8690  -28.0816   22.7090 H   0  0  0  0  0  0
  -24.5864  -30.7135   25.7697 H   0  0  0  0  0  0
  -24.8904  -32.2963   26.4755 H   0  0  0  0  0  0
  -25.7961  -30.8962   27.0198 H   0  0  0  0  0  0
  -26.3041  -29.6649   24.1318 H   0  0  0  0  0  0
  -27.3997  -29.7271   25.4914 H   0  0  0  0  0  0
  -27.8953  -30.4176   23.9662 H   0  0  0  0  0  0
  -27.2629  -33.3667   26.1981 H   0  0  0  0  0  0
  -28.3894  -32.6855   25.0339 H   0  0  0  0  0  0
  -28.0671  -31.8519   26.5464 H   0  0  0  0  0  0
  -28.2572  -38.0087   24.7520 H   0  0  0  0  0  0
  -28.1085  -36.2614   24.6275 H   0  0  0  0  0  0
  -27.2294  -37.1399   25.8868 H   0  0  0  0  0  0
  -20.9498  -29.8728   21.6735 H   0  0  0  0  0  0
  -26.0140  -38.2795   24.1422 H   0  0  0  0  0  0
  -29.4076  -19.5611   16.7621 H   0  0  0  0  0  0
  -29.1354  -21.5489   18.1552 H   0  0  0  0  0  0
  -29.4835  -19.0006   21.6674 H   0  0  0  0  0  0
  -30.5335  -16.6616   17.2089 H   0  0  0  0  0  0
  -28.8745  -17.0709   16.7180 H   0  0  0  0  0  0
  -29.1219  -14.9844   18.1884 H   0  0  0  0  0  0
  -27.9324  -16.1557   18.7032 H   0  0  0  0  0  0
  -27.9746  -24.6630   18.8020 H   0  0  0  0  0  0
  -29.5305  -24.6299   19.4793 H   0  0  0  0  0  0
  -27.4374  -22.6382   19.7411 H   0  0  0  0  0  0
  -27.6832  -23.2287   21.3173 H   0  0  0  0  0  0
  1 25  1  0  0  0
  1 30  2  0  0  0
  1 81  1  0  0  0
  2  3  1  0  0  0
  2 25  1  0  0  0
  2 83  1  0  0  0
  2 84  1  0  0  0
  3  4  1  0  0  0
  3 85  1  0  0  0
  3 86  1  0  0  0
  4  5  1  0  0  0
  4 87  1  0  0  0
  4 88  1  0  0  0
  5  6  1  0  0  0
  5 26  1  0  0  0
  5 89  1  0  0  0
  6 25  1  0  0  0
  6 90  1  0  0  0
  6 91  1  0  0  0
  7  8  2  0  0  0
  7 26  1  0  0  0
  7 29  1  0  0  0
  8  9  1  0  0  0
  8 22  1  0  0  0
  9 10  1  0  0  0
  9 27  2  0  0  0
 10 11  2  0  0  0
 10 15  1  0  0  0
 11 12  1  0  0  0
 11 92  1  0  0  0
 12 13  2  0  0  0
 12 93  1  0  0  0
 13 14  1  0  0  0
 13 31  1  0  0  0
 14 15  2  0  0  0
 14 94  1  0  0  0
 15 95  1  0  0  0
 16 17  2  0  0  0
 16 21  1  0  0  0
 16 31  1  0  0  0
 17 18  1  0  0  0
 17 96  1  0  0  0
 18 19  2  0  0  0
 18 97  1  0  0  0
 19 20  1  0  0  0
 19 24  1  0  0  0
 20 21  2  0  0  0
 20 98  1  0  0  0
 21 23  1  0  0  0
 22 28  1  0  0  0
 22 32  2  0  0  0
 26 27  1  0  0  0
 28 99  1  0  0  0
 28100  1  0  0  0
 29101  1  0  0  0
 29102  1  0  0  0
 33 34  1  0  0  0
 33 66  1  0  0  0
 33 70  2  0  0  0
 34 36  1  0  0  0
 34 59  1  0  0  0
 34103  1  0  0  0
 35 44  2  0  0  0
 35 45  1  0  0  0
 35 68  1  0  0  0
 36 56  1  0  0  0
 36104  1  0  0  0
 37 39  1  0  0  0
 37 47  1  0  0  0
 37 66  1  0  0  0
 37105  1  0  0  0
 38 43  2  0  0  0
 38 46  1  0  0  0
 38 47  1  0  0  0
 39 64  1  0  0  0
 39 67  2  0  0  0
 40 52  1  0  0  0
 40 53  2  0  0  0
 40 58  1  0  0  0
 41106  1  0  0  0
 41107  1  0  0  0
 41108  1  0  0  0
 41 48  1  0  0  0
 42 43  1  0  0  0
 42 66  1  0  0  0
 42109  1  0  0  0
 42110  1  0  0  0
 43 44  1  0  0  0
 44111  1  0  0  0
 45 46  2  0  0  0
 45112  1  0  0  0
 46113  1  0  0  0
 47114  1  0  0  0
 47115  1  0  0  0
 48 56  1  0  0  0
 48 65  1  0  0  0
 48116  1  0  0  0
 49 50  1  0  0  0
 49 53  1  0  0  0
 49 64  1  0  0  0
 49117  1  0  0  0
 50 51  1  0  0  0
 50118  1  0  0  0
 50119  1  0  0  0
 51 52  1  0  0  0
 51120  1  0  0  0
 51121  1  0  0  0
 52122  1  0  0  0
 52123  1  0  0  0
 53 54  1  0  0  0
 54 55  2  0  0  0
 54124  1  0  0  0
 55 57  1  0  0  0
 55125  1  0  0  0
 56 69  2  0  0  0
 57 58  2  0  0  0
 57126  1  0  0  0
 58127  1  0  0  0
 59 60  1  0  0  0
 59 61  1  0  0  0
 59 62  1  0  0  0
 60128  1  0  0  0
 60129  1  0  0  0
 60130  1  0  0  0
 61131  1  0  0  0
 61132  1  0  0  0
 61133  1  0  0  0
 62134  1  0  0  0
 62135  1  0  0  0
 62136  1  0  0  0
 63 65  1  0  0  0
 63137  1  0  0  0
 63138  1  0  0  0
 63139  1  0  0  0
 64140  1  0  0  0
 65141  1  0  0  0
 68 79  1  0  0  0
 71 72  2  0  0  0
 71 74  1  0  0  0
 71142  1  0  0  0
 72 76  1  0  0  0
 72143  1  0  0  0
 73 75  1  0  0  0
 73 76  2  0  0  0
 73144  1  0  0  0
 74 75  2  0  0  0
 74 77  1  0  0  0
 75 81  1  0  0  0
 76 82  1  0  0  0
 77 78  1  0  0  0
 77145  1  0  0  0
 77146  1  0  0  0
 78 81  1  0  0  0
 78147  1  0  0  0
 78148  1  0  0  0
 79 80  1  0  0  0
 79149  1  0  0  0
 79150  1  0  0  0
 80 82  1  0  0  0
 80151  1  0  0  0
 80152  1  0  0  0
M  ISO  4   1 100  68 101  79 101  81 100
M  END
> <chiral flag>
0

> <version>
0

> <s_m_source_file>
/data/baiqing/PycharmProjects/Reinvent-master-3.2/result/LINK_invent/BTK/process_docking_weight1_custom_product_contain_oxygen_bond_distance_aromatic_linkinvent_7_9_3/rearranged_h_0001.sdf

> <i_m_source_file_index>
30

> <r_mmod_Potential_Energy-OPLS-2005>
1159.53564453125

> <r_mmod_Stretch_Energy-OPLS-2005>
362.445068359375

> <r_mmod_Bend_Energy-OPLS-2005>
490.068939208984

> <r_mmod_Torsional_Energy-OPLS-2005>
332.43603515625

> <r_mmod_Improper_Torsional_Energy-OPLS-2005>
21.368070602417

> <r_mmod_Van_der_Waal_Energy-OPLS-2005>
137.850616455078

> <r_mmod_Electrostatic_Energy-OPLS-2005>
-284.677947998047

> <r_mmod_Solvation_Energy-OPLS-2005>
-206.360992431641

> <b_mmod_Minimization_Converged-OPLS-2005>
0

> <r_mmod_RMS_Derivative-OPLS-2005>
0.32199490070343

$$$$
30
                    3D
 Structure written by MMmdl.
166176  0  0  1  0            999 V2000
  -29.7810  -15.2308   20.5546 C   0  0  0  0  0  0
  -30.3838  -12.8774   19.5370 C   0  0  0  0  0  0
  -29.5030  -12.6089   18.2849 C   0  0  0  0  0  0
  -28.0358  -12.2885   18.6536 C   0  0  0  0  0  0
  -27.5469  -13.1803   19.8175 C   0  0  2  0  0  0
  -28.5149  -13.1716   21.0002 C   0  0  0  0  0  0
  -25.2093  -13.7964   20.5679 C   0  0  0  0  0  0
  -24.1460  -13.0227   20.9221 C   0  0  0  0  0  0
  -24.6064  -11.6715   20.8759 C   0  0  0  0  0  0
  -23.8852  -10.4151   21.0471 C   0  0  0  0  0  0
  -24.3505   -9.4102   21.9221 C   0  0  0  0  0  0
  -23.6240   -8.2109   22.0747 C   0  0  0  0  0  0
  -22.4214   -8.0167   21.3533 C   0  0  0  0  0  0
  -21.9792   -9.0121   20.4637 C   0  0  0  0  0  0
  -22.7061  -10.2020   20.3101 C   0  0  0  0  0  0
  -21.6814   -6.0667   22.5273 C   0  0  0  0  0  0
  -21.3959   -6.5597   23.8195 C   0  0  0  0  0  0
  -21.3660   -5.6768   24.9174 C   0  0  0  0  0  0
  -21.6070   -4.3034   24.7233 C   0  0  0  0  0  0
  -21.8845   -3.8108   23.4362 C   0  0  0  0  0  0
  -21.9195   -4.6907   22.3409 C   0  0  0  0  0  0
  -22.7575  -13.5089   21.1979 C   0  0  0  0  0  0
  -22.1681   -4.2106   21.0985 F   0  0  0  0  0  0
  -21.5661   -3.4530   25.7749 F   0  0  0  0  0  0
  -29.6662  -13.8342   20.4587 N   0  0  0  0  0  0
  -26.2255  -12.9015   20.2887 N   0  0  0  0  0  0
  -25.8878  -11.6227   20.5538 N   0  0  0  0  0  0
  -22.0297  -12.8093   22.0591 N   0  0  0  0  0  0
  -25.3680  -15.1761   20.4513 N   0  0  0  0  0  0
  -30.9662  -15.5870   20.3264 O   0  0  0  0  0  0
  -21.6601   -6.8770   21.4220 O   0  0  0  0  0  0
  -22.3309  -14.5426   20.6842 O   0  0  0  0  0  0
  -24.6653  -31.9659   23.2125 C   0  0  0  0  0  0
  -25.9623  -32.5162   23.8562 C   0  0  1  0  0  0
  -25.2530  -27.2312   20.8302 C   0  0  0  0  0  0
  -25.6485  -33.8889   24.2606 N   0  0  0  0  0  0
  -23.4669  -30.6047   21.5792 C   0  0  2  0  0  0
  -24.8695  -29.3941   19.7073 C   0  0  0  0  0  0
  -23.1438  -29.5383   22.6602 C   0  0  0  0  0  0
  -18.8928  -27.8424   22.2068 C   0  0  0  0  0  0
  -24.1528  -36.7382   23.2602 C   0  0  0  0  0  0
  -25.9770  -30.8531   21.4053 C   0  0  0  0  0  0
  -25.8412  -29.5368   20.6864 C   0  0  0  0  0  0
  -26.1625  -28.3000   21.2471 C   0  0  0  0  0  0
  -25.5826  -27.0824   19.4814 C   0  0  0  0  0  0
  -24.9211  -28.1975   18.9154 C   0  0  0  0  0  0
  -23.5867  -30.1232   20.0643 C   0  0  0  0  0  0
  -25.4161  -36.3260   24.0332 C   0  0  1  0  0  0
  -21.5339  -28.0421   23.5696 C   0  0  2  0  0  0
  -22.6627  -26.2998   22.8201 C   0  0  0  0  0  0
  -21.1909  -25.3739   21.0594 C   0  0  0  0  0  0
  -19.3800  -26.4740   21.0880 C   0  0  0  0  0  0
  -19.8452  -28.5080   23.1915 C   0  0  0  0  0  0
  -19.3104  -29.6796   23.8963 C   0  0  0  0  0  0
  -17.9696  -30.1582   23.8913 C   0  0  0  0  0  0
  -25.9192  -34.9664   23.5162 C   0  0  0  0  0  0
  -17.0217  -29.4065   23.1921 C   0  0  0  0  0  0
  -17.4869  -28.2906   22.4021 C   0  0  0  0  0  0
  -26.4646  -31.6703   25.0881 C   0  0  0  0  0  0
  -25.3719  -31.3811   26.1428 C   0  0  0  0  0  0
  -27.0458  -30.3112   24.6378 C   0  0  0  0  0  0
  -27.6226  -32.4263   25.7781 C   0  0  0  0  0  0
  -27.5624  -37.1917   24.8476 C   0  0  0  0  0  0
  -21.9308  -29.3717   23.0818 N   0  0  0  0  0  0
  -26.4341  -37.3947   23.9417 N   0  0  0  0  0  0
  -24.7155  -31.2286   22.0717 N   0  0  0  0  0  0
  -23.9925  -28.8729   23.2298 O   0  0  0  0  0  0
  -23.6775  -27.1743   20.7237 O   0  0  0  0  0  0
  -26.5520  -34.9078   22.4582 O   0  0  0  0  0  0
  -23.5852  -32.2316   23.7618 O   0  0  0  0  0  0
  -20.3001  -22.4639   27.2856 C   0  0  0  0  0  0
  -20.0881  -23.8553   27.1971 C   0  0  0  0  0  0
  -20.7353  -21.7543   26.1519 C   0  0  0  0  0  0
  -20.3097  -24.5418   25.9843 C   0  0  0  0  0  0
  -26.2143  -19.0290   22.6596 C   0  0  0  0  0  0
  -26.0145  -19.5488   20.4714 C   0  0  0  0  0  0
  -27.1898  -17.9312   22.3345 C   0  0  0  0  0  0
  -26.9850  -18.4214   20.1425 C   0  0  0  0  0  0
  -20.9261  -22.4595   24.9499 C   0  0  0  0  0  0
  -20.6915  -23.8327   24.8102 C   0  0  0  0  0  0
  -25.4815  -19.9703   21.7868 C   0  0  0  0  0  0
  -27.7066  -17.4758   21.0428 C   0  0  0  0  0  0
  -23.4523  -22.2780   22.0453 C   0  0  0  0  0  0
  -20.4608  -25.8044   23.2115 C   0  0  0  0  0  0
  -21.5670  -21.8711   23.7550 C   0  0  0  0  0  0
  -22.2455  -23.0857   23.1193 C   0  0  2  0  0  0
  -21.7004  -27.5124   21.2788 C   0  0  0  0  0  0
  -21.0718  -24.3678   23.5030 N   0  0  0  0  0  0
  -24.3448  -21.0779   22.3323 N   0  0  0  0  0  0
  -28.4999  -16.0369   20.7559 N   0  0  0  0  0  0
  -23.5284  -22.7513   20.9094 O   0  0  0  0  0  0
  -19.4067  -25.9806   23.8489 O   0  0  0  0  0  0
  -31.3300  -13.3139   19.2131 H   0  0  0  0  0  0
  -30.6222  -11.9513   20.0546 H   0  0  0  0  0  0
  -29.9311  -11.7987   17.6944 H   0  0  0  0  0  0
  -29.5243  -13.4920   17.6422 H   0  0  0  0  0  0
  -27.9618  -11.2347   18.9216 H   0  0  0  0  0  0
  -27.3957  -12.4281   17.7797 H   0  0  0  0  0  0
  -27.4818  -14.1701   19.3673 H   0  0  0  0  0  0
  -28.7415  -12.1683   21.3585 H   0  0  0  0  0  0
  -28.1058  -13.7169   21.8566 H   0  0  0  0  0  0
  -25.2655   -9.5621   22.4789 H   0  0  0  0  0  0
  -23.9996   -7.4476   22.7406 H   0  0  0  0  0  0
  -21.0756   -8.8625   19.8909 H   0  0  0  0  0  0
  -22.3521  -10.9603   19.6258 H   0  0  0  0  0  0
  -21.1895   -7.6101   23.9679 H   0  0  0  0  0  0
  -21.1477   -6.0499   25.9074 H   0  0  0  0  0  0
  -22.0629   -2.7578   23.2873 H   0  0  0  0  0  0
  -22.3965  -11.9764   22.4965 H   0  0  0  0  0  0
  -21.0947  -13.1115   22.2922 H   0  0  0  0  0  0
  -24.5558  -15.7615   20.6185 H   0  0  0  0  0  0
  -26.1930  -15.7265   20.2605 H   0  0  0  0  0  0
  -26.7729  -32.5609   23.1306 H   0  0  0  0  0  0
  -25.0758  -34.0018   25.0856 H   0  0  0  0  0  0
  -22.6597  -31.3381   21.6012 H   0  0  0  0  0  0
  -23.3836  -35.9662   23.3251 H   0  0  0  0  0  0
  -24.3651  -36.9001   22.2018 H   0  0  0  0  0  0
  -23.7201  -37.6566   23.6589 H   0  0  0  0  0  0
  -26.2385  -31.6304   20.6859 H   0  0  0  0  0  0
  -26.8270  -30.7443   22.0654 H   0  0  0  0  0  0
  -26.6874  -28.2489   22.1901 H   0  0  0  0  0  0
  -25.3418  -26.1582   18.9771 H   0  0  0  0  0  0
  -24.2473  -28.0455   18.0815 H   0  0  0  0  0  0
  -23.5444  -31.0055   19.4284 H   0  0  0  0  0  0
  -22.7275  -29.5253   19.7700 H   0  0  0  0  0  0
  -25.1299  -36.2141   25.0817 H   0  0  0  0  0  0
  -21.6548  -28.0700   24.6548 H   0  0  0  0  0  0
  -22.9072  -25.6921   23.6920 H   0  0  0  0  0  0
  -23.7299  -26.4221   22.6855 H   0  0  0  0  0  0
  -21.0102  -24.2963   21.0865 H   0  0  0  0  0  0
  -21.6707  -25.4041   20.0700 H   0  0  0  0  0  0
  -19.2063  -26.8426   20.0750 H   0  0  0  0  0  0
  -18.5808  -25.7372   21.1882 H   0  0  0  0  0  0
  -19.9877  -30.2141   24.5510 H   0  0  0  0  0  0
  -17.6819  -31.0219   24.4796 H   0  0  0  0  0  0
  -15.9736  -29.6766   23.2151 H   0  0  0  0  0  0
  -16.7315  -27.7631   21.8348 H   0  0  0  0  0  0
  -24.5886  -30.7292   25.7550 H   0  0  0  0  0  0
  -24.8914  -32.2950   26.4908 H   0  0  0  0  0  0
  -25.7832  -30.8811   27.0200 H   0  0  0  0  0  0
  -26.3072  -29.6937   24.1273 H   0  0  0  0  0  0
  -27.3957  -29.7305   25.4930 H   0  0  0  0  0  0
  -27.9050  -30.4374   23.9786 H   0  0  0  0  0  0
  -27.2957  -33.3591   26.2396 H   0  0  0  0  0  0
  -28.4097  -32.6760   25.0651 H   0  0  0  0  0  0
  -28.0821  -31.8291   26.5668 H   0  0  0  0  0  0
  -28.2640  -38.0226   24.7553 H   0  0  0  0  0  0
  -28.1133  -36.2748   24.6268 H   0  0  0  0  0  0
  -27.2334  -37.1539   25.8887 H   0  0  0  0  0  0
  -21.1940  -29.9845   22.7616 H   0  0  0  0  0  0
  -26.0226  -38.3020   24.1456 H   0  0  0  0  0  0
  -20.1693  -21.9483   28.2245 H   0  0  0  0  0  0
  -19.7732  -24.4087   28.0716 H   0  0  0  0  0  0
  -20.9531  -20.6952   26.2059 H   0  0  0  0  0  0
  -20.2028  -25.6155   26.0048 H   0  0  0  0  0  0
  -25.9949  -19.1158   23.7140 H   0  0  0  0  0  0
  -25.6243  -20.0982   19.6218 H   0  0  0  0  0  0
  -27.5202  -17.3384   23.1765 H   0  0  0  0  0  0
  -27.1154  -18.2543   19.0778 H   0  0  0  0  0  0
  -20.8121  -21.4490   23.0899 H   0  0  0  0  0  0
  -22.2638  -21.0819   24.0340 H   0  0  0  0  0  0
  -23.0044  -23.4062   23.8408 H   0  0  0  0  0  0
  -21.2959  -28.5085   21.1206 H   0  0  0  0  0  0
  -21.3460  -27.4530   20.2448 H   0  0  0  0  0  0
  -24.1530  -20.8487   23.3019 H   0  0  0  0  0  0
  -27.8158  -15.2900   20.8631 H   0  0  0  0  0  0
  1 25  1  0  0  0
  1 30  2  0  0  0
  1 90  1  0  0  0
  2  3  1  0  0  0
  2 25  1  0  0  0
  2 93  1  0  0  0
  2 94  1  0  0  0
  3  4  1  0  0  0
  3 95  1  0  0  0
  3 96  1  0  0  0
  4  5  1  0  0  0
  4 97  1  0  0  0
  4 98  1  0  0  0
  5  6  1  0  0  0
  5 26  1  0  0  0
  5 99  1  0  0  0
  6 25  1  0  0  0
  6100  1  0  0  0
  6101  1  0  0  0
  7  8  2  0  0  0
  7 26  1  0  0  0
  7 29  1  0  0  0
  8  9  1  0  0  0
  8 22  1  0  0  0
  9 10  1  0  0  0
  9 27  2  0  0  0
 10 11  2  0  0  0
 10 15  1  0  0  0
 11 12  1  0  0  0
 11102  1  0  0  0
 12 13  2  0  0  0
 12103  1  0  0  0
 13 14  1  0  0  0
 13 31  1  0  0  0
 14 15  2  0  0  0
 14104  1  0  0  0
 15105  1  0  0  0
 16 17  2  0  0  0
 16 21  1  0  0  0
 16 31  1  0  0  0
 17 18  1  0  0  0
 17106  1  0  0  0
 18 19  2  0  0  0
 18107  1  0  0  0
 19 20  1  0  0  0
 19 24  1  0  0  0
 20 21  2  0  0  0
 20108  1  0  0  0
 21 23  1  0  0  0
 22 28  1  0  0  0
 22 32  2  0  0  0
 26 27  1  0  0  0
 28109  1  0  0  0
 28110  1  0  0  0
 29111  1  0  0  0
 29112  1  0  0  0
 33 34  1  0  0  0
 33 66  1  0  0  0
 33 70  2  0  0  0
 34 36  1  0  0  0
 34 59  1  0  0  0
 34113  1  0  0  0
 35 44  2  0  0  0
 35 45  1  0  0  0
 35 68  1  0  0  0
 36 56  1  0  0  0
 36114  1  0  0  0
 37 39  1  0  0  0
 37 47  1  0  0  0
 37 66  1  0  0  0
 37115  1  0  0  0
 38 43  2  0  0  0
 38 46  1  0  0  0
 38 47  1  0  0  0
 39 64  1  0  0  0
 39 67  2  0  0  0
 40 52  1  0  0  0
 40 53  2  0  0  0
 40 58  1  0  0  0
 41116  1  0  0  0
 41117  1  0  0  0
 41118  1  0  0  0
 41 48  1  0  0  0
 42 43  1  0  0  0
 42 66  1  0  0  0
 42119  1  0  0  0
 42120  1  0  0  0
 43 44  1  0  0  0
 44121  1  0  0  0
 45 46  2  0  0  0
 45122  1  0  0  0
 46123  1  0  0  0
 47124  1  0  0  0
 47125  1  0  0  0
 48 56  1  0  0  0
 48 65  1  0  0  0
 48126  1  0  0  0
 49 50  1  0  0  0
 49 53  1  0  0  0
 49 64  1  0  0  0
 49127  1  0  0  0
 50 51  1  0  0  0
 50128  1  0  0  0
 50129  1  0  0  0
 51 52  1  0  0  0
 51130  1  0  0  0
 51131  1  0  0  0
 52132  1  0  0  0
 52133  1  0  0  0
 53 54  1  0  0  0
 54 55  2  0  0  0
 54134  1  0  0  0
 55 57  1  0  0  0
 55135  1  0  0  0
 56 69  2  0  0  0
 57 58  2  0  0  0
 57136  1  0  0  0
 58137  1  0  0  0
 59 60  1  0  0  0
 59 61  1  0  0  0
 59 62  1  0  0  0
 60138  1  0  0  0
 60139  1  0  0  0
 60140  1  0  0  0
 61141  1  0  0  0
 61142  1  0  0  0
 61143  1  0  0  0
 62144  1  0  0  0
 62145  1  0  0  0
 62146  1  0  0  0
 63 65  1  0  0  0
 63147  1  0  0  0
 63148  1  0  0  0
 63149  1  0  0  0
 64150  1  0  0  0
 65151  1  0  0  0
 68 87  1  0  0  0
 71 72  2  0  0  0
 71 73  1  0  0  0
 71152  1  0  0  0
 72 74  1  0  0  0
 72153  1  0  0  0
 73 79  2  0  0  0
 73154  1  0  0  0
 74 80  2  0  0  0
 74155  1  0  0  0
 75 77  2  0  0  0
 75 81  1  0  0  0
 75156  1  0  0  0
 76 78  1  0  0  0
 76 81  2  0  0  0
 76157  1  0  0  0
 77 82  1  0  0  0
 77158  1  0  0  0
 78 82  2  0  0  0
 78159  1  0  0  0
 79 80  1  0  0  0
 79 85  1  0  0  0
 80 88  1  0  0  0
 81 89  1  0  0  0
 82 90  1  0  0  0
 83 89  1  0  0  0
 83 91  2  0  0  0
 83 86  1  0  0  0
 84 87  1  0  0  0
 84 88  1  0  0  0
 84 92  2  0  0  0
 85 86  1  0  0  0
 85160  1  0  0  0
 85161  1  0  0  0
 86 88  1  0  0  0
 86162  1  0  0  0
 87163  1  0  0  0
 87164  1  0  0  0
 89165  1  0  0  0
 90166  1  0  0  0
M  ISO  4   1 100  68 101  87 101  90 100
M  END
> <chiral flag>
0

> <version>
0

> <s_m_source_file>
/data/baiqing/PycharmProjects/Reinvent-master-3.2/result/LINK_invent/BTK/process_docking_weight1_custom_product_contain_oxygen_bond_distance_aromatic_linkinvent_7_9_3/rearranged_h_0001.sdf

> <i_m_source_file_index>
31

> <r_mmod_Potential_Energy-OPLS-2005>
15229.2333984375

> <r_mmod_Stretch_Energy-OPLS-2005>
6206.9267578125

> <r_mmod_Bend_Energy-OPLS-2005>
1429.57727050781

> <r_mmod_Torsional_Energy-OPLS-2005>
645.635986328125

> <r_mmod_Improper_Torsional_Energy-OPLS-2005>
67.1831436157227

> <r_mmod_Van_der_Waal_Energy-OPLS-2005>
2171.42944335938

> <r_mmod_Electrostatic_Energy-OPLS-2005>
-423.35791015625

> <r_mmod_Solvation_Energy-OPLS-2005>
-240.37744140625

> <b_mmod_Minimization_Converged-OPLS-2005>
0

> <r_mmod_RMS_Derivative-OPLS-2005>
13.589376449585

$$$$
31
                    3D
 Structure written by MMmdl.
148156  0  0  1  0            999 V2000
  -30.5066  -14.9122   20.4364 C   0  0  0  0  0  0
  -30.4572  -12.5594   19.4935 C   0  0  0  0  0  0
  -29.5282  -12.5199   18.2554 C   0  0  0  0  0  0
  -28.0576  -12.3117   18.6710 C   0  0  0  0  0  0
  -27.6394  -13.2328   19.8459 C   0  0  2  0  0  0
  -28.6827  -13.2097   20.9842 C   0  0  0  0  0  0
  -25.2503  -13.8179   20.5680 C   0  0  0  0  0  0
  -24.1804  -13.0432   20.9234 C   0  0  0  0  0  0
  -24.6391  -11.6909   20.8755 C   0  0  0  0  0  0
  -23.9061  -10.4290   21.0411 C   0  0  0  0  0  0
  -24.3611   -9.4205   21.9186 C   0  0  0  0  0  0
  -23.6288   -8.2238   22.0750 C   0  0  0  0  0  0
  -22.4271   -8.0275   21.3541 C   0  0  0  0  0  0
  -21.9904   -9.0252   20.4648 C   0  0  0  0  0  0
  -22.7230  -10.2135   20.3062 C   0  0  0  0  0  0
  -21.6854   -6.0729   22.5277 C   0  0  0  0  0  0
  -21.4013   -6.5632   23.8208 C   0  0  0  0  0  0
  -21.3661   -5.6786   24.9171 C   0  0  0  0  0  0
  -21.6045   -4.3047   24.7224 C   0  0  0  0  0  0
  -21.8820   -3.8140   23.4344 C   0  0  0  0  0  0
  -21.9192   -4.6957   22.3400 C   0  0  0  0  0  0
  -22.7825  -13.5222   21.1889 C   0  0  0  0  0  0
  -22.1662   -4.2144   21.0978 F   0  0  0  0  0  0
  -21.5632   -3.4531   25.7736 F   0  0  0  0  0  0
  -29.9671  -13.6300   20.4031 N   0  0  0  0  0  0
  -26.2923  -12.9383   20.3242 N   0  0  0  0  0  0
  -25.9319  -11.6532   20.5738 N   0  0  0  0  0  0
  -22.0468  -12.8219   22.0447 N   0  0  0  0  0  0
  -25.4177  -15.1897   20.4031 N   0  0  0  0  0  0
  -31.6939  -15.0568   20.1209 O   0  0  0  0  0  0
  -21.6638   -6.8871   21.4237 O   0  0  0  0  0  0
  -22.3514  -14.5527   20.6726 O   0  0  0  0  0  0
  -24.6416  -31.8453   23.1901 C   0  0  0  0  0  0
  -25.9200  -32.4701   23.8277 C   0  0  1  0  0  0
  -27.2194  -27.1518   20.1453 C   0  0  0  0  0  0
  -25.5965  -33.8506   24.2202 N   0  0  0  0  0  0
  -23.4439  -30.4666   21.5351 C   0  0  2  0  0  0
  -24.8937  -28.8974   20.1099 C   0  0  0  0  0  0
  -22.7560  -29.4552   22.4860 C   0  0  0  0  0  0
  -18.0312  -28.1393   22.8469 C   0  0  0  0  0  0
  -24.1494  -36.7247   23.2641 C   0  0  0  0  0  0
  -25.9996  -30.7244   21.3866 C   0  0  0  0  0  0
  -26.0718  -29.3381   20.7263 C   0  0  0  0  0  0
  -27.2360  -28.4820   20.7257 C   0  0  0  0  0  0
  -26.0120  -26.8101   19.4939 C   0  0  0  0  0  0
  -24.8768  -27.6464   19.4781 C   0  0  0  0  0  0
  -23.6696  -29.7981   20.1537 C   0  0  0  0  0  0
  -25.4127  -36.3034   24.0317 C   0  0  1  0  0  0
  -20.5919  -28.3710   23.1237 C   0  0  2  0  0  0
  -20.6792  -26.9413   22.5410 C   0  0  0  0  0  0
  -19.5774  -26.6379   21.5205 C   0  0  0  0  0  0
  -18.1953  -26.7936   22.1610 C   0  0  0  0  0  0
  -19.1566  -28.8871   23.2846 C   0  0  0  0  0  0
  -18.9483  -30.1470   23.8866 C   0  0  0  0  0  0
  -17.6479  -30.6586   24.0558 C   0  0  0  0  0  0
  -25.9073  -34.9409   23.5067 C   0  0  0  0  0  0
  -16.5370  -29.9077   23.6341 C   0  0  0  0  0  0
  -16.7296  -28.6502   23.0351 C   0  0  0  0  0  0
  -26.4529  -31.6562   25.0707 C   0  0  0  0  0  0
  -25.3724  -31.3768   26.1419 C   0  0  0  0  0  0
  -27.0377  -30.2956   24.6276 C   0  0  0  0  0  0
  -27.6086  -32.4308   25.7471 C   0  0  0  0  0  0
  -27.5583  -37.1776   24.8464 C   0  0  0  0  0  0
  -21.4255  -29.3039   22.3609 N   0  0  0  0  0  0
  -26.4289  -37.3749   23.9414 N   0  0  0  0  0  0
  -24.7147  -31.0329   22.0924 N   0  0  0  0  0  0
  -23.4217  -28.8100   23.2999 O   0  0  0  0  0  0
  -28.2775  -26.1735   20.2098 O   0  0  0  0  0  0
  -26.5645  -34.8903   22.4634 O   0  0  0  0  0  0
  -23.5543  -32.1324   23.7138 O   0  0  0  0  0  0
  -28.2153  -18.0953   20.7491 C   0  0  0  0  0  0
  -30.4833  -18.5413   20.2926 C   0  0  0  0  0  0
  -27.9193  -19.5039   20.6778 C   0  0  0  0  0  0
  -30.1796  -19.9799   20.2323 C   0  0  0  0  0  0
  -29.5053  -17.5105   20.5545 C   0  0  0  0  0  0
  -28.8633  -20.5436   20.4177 C   0  0  0  0  0  0
  -28.9684  -23.3056   20.2949 C   0  0  0  0  0  0
  -27.9754  -24.6526   20.0919 C   0  0  0  0  0  0
  -29.6169  -15.9865   20.6674 N   0  0  0  0  0  0
  -28.3409  -21.9105   20.3531 O   0  0  0  0  0  0
  -31.4885  -12.7346   19.1825 H   0  0  0  0  0  0
  -30.4604  -11.5956   20.0058 H   0  0  0  0  0  0
  -29.8405  -11.7242   17.5774 H   0  0  0  0  0  0
  -29.6216  -13.4520   17.6963 H   0  0  0  0  0  0
  -27.9473  -11.2684   18.9696 H   0  0  0  0  0  0
  -27.3947  -12.4547   17.8166 H   0  0  0  0  0  0
  -27.6179  -14.2430   19.4364 H   0  0  0  0  0  0
  -28.7602  -12.2129   21.4208 H   0  0  0  0  0  0
  -28.3848  -13.8728   21.7977 H   0  0  0  0  0  0
  -25.2756   -9.5682   22.4757 H   0  0  0  0  0  0
  -24.0001   -7.4627   22.7461 H   0  0  0  0  0  0
  -21.0838   -8.8770   19.8954 H   0  0  0  0  0  0
  -22.3684  -10.9672   19.6174 H   0  0  0  0  0  0
  -21.2003   -7.6140   23.9709 H   0  0  0  0  0  0
  -21.1487   -6.0516   25.9075 H   0  0  0  0  0  0
  -22.0599   -2.7601   23.2843 H   0  0  0  0  0  0
  -22.4081  -11.9886   22.4849 H   0  0  0  0  0  0
  -21.1085  -13.1247   22.2656 H   0  0  0  0  0  0
  -24.6341  -15.8285   20.4849 H   0  0  0  0  0  0
  -26.2245  -15.6094   19.9608 H   0  0  0  0  0  0
  -26.7255  -32.5312   23.0996 H   0  0  0  0  0  0
  -25.0126  -33.9625   25.0360 H   0  0  0  0  0  0
  -22.7454  -31.2921   21.3833 H   0  0  0  0  0  0
  -23.3765  -35.9568   23.3292 H   0  0  0  0  0  0
  -24.3585  -36.8891   22.2059 H   0  0  0  0  0  0
  -23.7234  -37.6436   23.6677 H   0  0  0  0  0  0
  -26.1556  -31.4817   20.6172 H   0  0  0  0  0  0
  -26.8696  -30.7724   22.0293 H   0  0  0  0  0  0
  -28.1328  -28.8166   21.2280 H   0  0  0  0  0  0
  -25.9048  -25.8561   19.0019 H   0  0  0  0  0  0
  -23.9779  -27.3044   18.9838 H   0  0  0  0  0  0
  -23.8045  -30.5736   19.3988 H   0  0  0  0  0  0
  -22.7847  -29.2399   19.8437 H   0  0  0  0  0  0
  -25.1317  -36.1861   25.0809 H   0  0  0  0  0  0
  -21.0016  -28.3300   24.1354 H   0  0  0  0  0  0
  -20.5666  -26.2323   23.3628 H   0  0  0  0  0  0
  -21.6663  -26.7413   22.1221 H   0  0  0  0  0  0
  -19.6932  -25.6284   21.1253 H   0  0  0  0  0  0
  -19.6722  -27.3173   20.6721 H   0  0  0  0  0  0
  -17.4228  -26.6678   21.4008 H   0  0  0  0  0  0
  -18.0350  -26.0083   22.9011 H   0  0  0  0  0  0
  -19.7958  -30.7296   24.2215 H   0  0  0  0  0  0
  -17.5033  -31.6263   24.5169 H   0  0  0  0  0  0
  -15.5368  -30.2966   23.7685 H   0  0  0  0  0  0
  -15.8700  -28.0816   22.7066 H   0  0  0  0  0  0
  -24.5925  -30.7071   25.7773 H   0  0  0  0  0  0
  -24.8874  -32.2948   26.4746 H   0  0  0  0  0  0
  -25.8030  -30.9039   27.0255 H   0  0  0  0  0  0
  -26.2979  -29.6681   24.1289 H   0  0  0  0  0  0
  -27.4002  -29.7261   25.4844 H   0  0  0  0  0  0
  -27.8892  -30.4194   23.9579 H   0  0  0  0  0  0
  -27.2718  -33.3642   26.1990 H   0  0  0  0  0  0
  -28.3920  -32.6807   25.0300 H   0  0  0  0  0  0
  -28.0715  -31.8451   26.5425 H   0  0  0  0  0  0
  -28.2603  -38.0072   24.7518 H   0  0  0  0  0  0
  -28.1082  -36.2608   24.6283 H   0  0  0  0  0  0
  -27.2305  -37.1418   25.8868 H   0  0  0  0  0  0
  -20.9454  -29.8756   21.6799 H   0  0  0  0  0  0
  -26.0160  -38.2816   24.1435 H   0  0  0  0  0  0
  -27.3841  -17.4389   20.9640 H   0  0  0  0  0  0
  -31.5080  -18.2375   20.1325 H   0  0  0  0  0  0
  -26.8912  -19.7983   20.8356 H   0  0  0  0  0  0
  -30.9941  -20.6580   20.0223 H   0  0  0  0  0  0
  -29.5285  -23.4334   21.2214 H   0  0  0  0  0  0
  -29.7148  -23.2995   19.5002 H   0  0  0  0  0  0
  -27.1411  -24.4904   20.7758 H   0  0  0  0  0  0
  -27.5573  -24.5134   19.0959 H   0  0  0  0  0  0
  -28.7281  -15.5826   20.9203 H   0  0  0  0  0  0
  1 25  1  0  0  0
  1 30  2  0  0  0
  1 79  1  0  0  0
  2  3  1  0  0  0
  2 25  1  0  0  0
  2 81  1  0  0  0
  2 82  1  0  0  0
  3  4  1  0  0  0
  3 83  1  0  0  0
  3 84  1  0  0  0
  4  5  1  0  0  0
  4 85  1  0  0  0
  4 86  1  0  0  0
  5  6  1  0  0  0
  5 26  1  0  0  0
  5 87  1  0  0  0
  6 25  1  0  0  0
  6 88  1  0  0  0
  6 89  1  0  0  0
  7  8  2  0  0  0
  7 26  1  0  0  0
  7 29  1  0  0  0
  8  9  1  0  0  0
  8 22  1  0  0  0
  9 10  1  0  0  0
  9 27  2  0  0  0
 10 11  2  0  0  0
 10 15  1  0  0  0
 11 12  1  0  0  0
 11 90  1  0  0  0
 12 13  2  0  0  0
 12 91  1  0  0  0
 13 14  1  0  0  0
 13 31  1  0  0  0
 14 15  2  0  0  0
 14 92  1  0  0  0
 15 93  1  0  0  0
 16 17  2  0  0  0
 16 21  1  0  0  0
 16 31  1  0  0  0
 17 18  1  0  0  0
 17 94  1  0  0  0
 18 19  2  0  0  0
 18 95  1  0  0  0
 19 20  1  0  0  0
 19 24  1  0  0  0
 20 21  2  0  0  0
 20 96  1  0  0  0
 21 23  1  0  0  0
 22 28  1  0  0  0
 22 32  2  0  0  0
 26 27  1  0  0  0
 28 97  1  0  0  0
 28 98  1  0  0  0
 29 99  1  0  0  0
 29100  1  0  0  0
 33 34  1  0  0  0
 33 66  1  0  0  0
 33 70  2  0  0  0
 34 36  1  0  0  0
 34 59  1  0  0  0
 34101  1  0  0  0
 35 44  2  0  0  0
 35 45  1  0  0  0
 35 68  1  0  0  0
 36 56  1  0  0  0
 36102  1  0  0  0
 37 39  1  0  0  0
 37 47  1  0  0  0
 37 66  1  0  0  0
 37103  1  0  0  0
 38 43  2  0  0  0
 38 46  1  0  0  0
 38 47  1  0  0  0
 39 64  1  0  0  0
 39 67  2  0  0  0
 40 52  1  0  0  0
 40 53  2  0  0  0
 40 58  1  0  0  0
 41104  1  0  0  0
 41105  1  0  0  0
 41106  1  0  0  0
 41 48  1  0  0  0
 42 43  1  0  0  0
 42 66  1  0  0  0
 42107  1  0  0  0
 42108  1  0  0  0
 43 44  1  0  0  0
 44109  1  0  0  0
 45 46  2  0  0  0
 45110  1  0  0  0
 46111  1  0  0  0
 47112  1  0  0  0
 47113  1  0  0  0
 48 56  1  0  0  0
 48 65  1  0  0  0
 48114  1  0  0  0
 49 50  1  0  0  0
 49 53  1  0  0  0
 49 64  1  0  0  0
 49115  1  0  0  0
 50 51  1  0  0  0
 50116  1  0  0  0
 50117  1  0  0  0
 51 52  1  0  0  0
 51118  1  0  0  0
 51119  1  0  0  0
 52120  1  0  0  0
 52121  1  0  0  0
 53 54  1  0  0  0
 54 55  2  0  0  0
 54122  1  0  0  0
 55 57  1  0  0  0
 55123  1  0  0  0
 56 69  2  0  0  0
 57 58  2  0  0  0
 57124  1  0  0  0
 58125  1  0  0  0
 59 60  1  0  0  0
 59 61  1  0  0  0
 59 62  1  0  0  0
 60126  1  0  0  0
 60127  1  0  0  0
 60128  1  0  0  0
 61129  1  0  0  0
 61130  1  0  0  0
 61131  1  0  0  0
 62132  1  0  0  0
 62133  1  0  0  0
 62134  1  0  0  0
 63 65  1  0  0  0
 63135  1  0  0  0
 63136  1  0  0  0
 63137  1  0  0  0
 64138  1  0  0  0
 65139  1  0  0  0
 68 78  1  0  0  0
 71 73  2  0  0  0
 71 75  1  0  0  0
 71140  1  0  0  0
 72 74  1  0  0  0
 72 75  2  0  0  0
 72141  1  0  0  0
 73 76  1  0  0  0
 73142  1  0  0  0
 74 76  2  0  0  0
 74143  1  0  0  0
 75 79  1  0  0  0
 76 80  1  0  0  0
 77 78  1  0  0  0
 77 80  1  0  0  0
 77144  1  0  0  0
 77145  1  0  0  0
 78146  1  0  0  0
 78147  1  0  0  0
 79148  1  0  0  0
M  ISO  4   1 100  68 101  78 101  79 100
M  END
> <chiral flag>
0

> <version>
0

> <s_m_source_file>
/data/baiqing/PycharmProjects/Reinvent-master-3.2/result/LINK_invent/BTK/process_docking_weight1_custom_product_contain_oxygen_bond_distance_aromatic_linkinvent_7_9_3/rearranged_h_0001.sdf

> <i_m_source_file_index>
32

> <r_mmod_Potential_Energy-OPLS-2005>
453.292022705078

> <r_mmod_Stretch_Energy-OPLS-2005>
216.148208618164

> <r_mmod_Bend_Energy-OPLS-2005>
303.559814453125

> <r_mmod_Torsional_Energy-OPLS-2005>
210.8935546875

> <r_mmod_Improper_Torsional_Energy-OPLS-2005>
4.47378873825073

> <r_mmod_Van_der_Waal_Energy-OPLS-2005>
131.151794433594

> <r_mmod_Electrostatic_Energy-OPLS-2005>
-373.256744384766

> <r_mmod_Solvation_Energy-OPLS-2005>
-214.08235168457

> <b_mmod_Minimization_Converged-OPLS-2005>
0

> <r_mmod_RMS_Derivative-OPLS-2005>
0.848834156990051

$$$$
32
                    3D
 Structure written by MMmdl.
137144  0  0  1  0            999 V2000
  -29.9622  -16.5635   20.2664 C   0  0  0  0  0  0
  -30.3146  -13.7964   19.5233 C   0  0  0  0  0  0
  -29.5702  -12.9451   18.4142 C   0  0  0  0  0  0
  -28.2376  -12.3814   18.9086 C   0  0  0  0  0  0
  -27.5746  -13.4257   19.8177 C   0  0  2  0  0  0
  -28.5152  -14.1357   20.8613 C   0  0  0  0  0  0
  -25.2174  -13.8479   20.5951 C   0  0  0  0  0  0
  -24.1675  -13.0467   20.9341 C   0  0  0  0  0  0
  -24.6541  -11.7031   20.8745 C   0  0  0  0  0  0
  -23.9255  -10.4321   21.0342 C   0  0  0  0  0  0
  -24.3739   -9.4228   21.9149 C   0  0  0  0  0  0
  -23.6364   -8.2283   22.0747 C   0  0  0  0  0  0
  -22.4340   -8.0323   21.3544 C   0  0  0  0  0  0
  -22.0014   -9.0304   20.4634 C   0  0  0  0  0  0
  -22.7395  -10.2158   20.3018 C   0  0  0  0  0  0
  -21.6878   -6.0765   22.5277 C   0  0  0  0  0  0
  -21.4033   -6.5657   23.8214 C   0  0  0  0  0  0
  -21.3665   -5.6802   24.9171 C   0  0  0  0  0  0
  -21.6043   -4.3064   24.7217 C   0  0  0  0  0  0
  -21.8816   -3.8163   23.4335 C   0  0  0  0  0  0
  -21.9200   -4.6987   22.3396 C   0  0  0  0  0  0
  -22.7650  -13.5092   21.1938 C   0  0  0  0  0  0
  -22.1663   -4.2170   21.0973 F   0  0  0  0  0  0
  -21.5624   -3.4543   25.7727 F   0  0  0  0  0  0
  -29.5188  -15.0444   20.1465 N   0  0  0  0  0  0
  -26.2805  -13.0063   20.3476 N   0  0  0  0  0  0
  -25.9548  -11.6990   20.5678 N   0  0  0  0  0  0
  -22.0351  -12.8040   22.0489 N   0  0  0  0  0  0
  -25.3555  -15.2242   20.4383 N   0  0  0  0  0  0
  -31.2063  -16.3142   20.2293 O   0  0  0  0  0  0
  -21.6677   -6.8928   21.4248 O   0  0  0  0  0  0
  -22.3283  -14.5375   20.6771 O   0  0  0  0  0  0
  -24.7449  -31.7216   23.0979 C   0  0  0  0  0  0
  -25.9712  -32.4091   23.7768 C   0  0  1  0  0  0
  -27.2626  -26.0606   20.2671 C   0  0  0  0  0  0
  -25.6018  -33.7953   24.1581 N   0  0  0  0  0  0
  -23.5996  -30.2922   21.4680 C   0  0  2  0  0  0
  -25.0624  -28.4936   20.1392 C   0  0  0  0  0  0
  -22.8035  -29.3895   22.4550 C   0  0  0  0  0  0
  -18.0376  -28.1454   22.8421 C   0  0  0  0  0  0
  -24.1496  -36.6992   23.2671 C   0  0  0  0  0  0
  -26.1999  -30.2411   21.4589 C   0  0  0  0  0  0
  -26.2597  -28.7329   20.8212 C   0  0  0  0  0  0
  -27.3097  -27.5690   20.8335 C   0  0  0  0  0  0
  -26.0272  -26.1946   19.5192 C   0  0  0  0  0  0
  -25.0234  -27.2541   19.4619 C   0  0  0  0  0  0
  -23.8874  -29.5253   20.1333 C   0  0  0  0  0  0
  -25.4170  -36.2677   24.0236 C   0  0  1  0  0  0
  -20.6038  -28.3836   23.1031 C   0  0  2  0  0  0
  -20.6806  -26.9436   22.5420 C   0  0  0  0  0  0
  -19.5796  -26.6348   21.5224 C   0  0  0  0  0  0
  -18.1977  -26.7969   22.1607 C   0  0  0  0  0  0
  -19.1657  -28.8984   23.2686 C   0  0  0  0  0  0
  -18.9553  -30.1552   23.8759 C   0  0  0  0  0  0
  -17.6536  -30.6619   24.0537 C   0  0  0  0  0  0
  -25.9187  -34.9084   23.4798 C   0  0  0  0  0  0
  -16.5422  -29.9090   23.6366 C   0  0  0  0  0  0
  -16.7352  -28.6518   23.0376 C   0  0  0  0  0  0
  -26.4693  -31.6408   25.0652 C   0  0  0  0  0  0
  -25.3596  -31.3898   26.1149 C   0  0  0  0  0  0
  -27.0730  -30.2690   24.7003 C   0  0  0  0  0  0
  -27.6017  -32.4426   25.7501 C   0  0  0  0  0  0
  -27.5543  -37.1648   24.8466 C   0  0  0  0  0  0
  -21.4628  -29.2949   22.3282 N   0  0  0  0  0  0
  -26.4242  -37.3509   23.9408 N   0  0  0  0  0  0
  -24.8802  -30.8007   22.0600 N   0  0  0  0  0  0
  -23.4175  -28.7613   23.3197 O   0  0  0  0  0  0
  -28.1668  -24.5661   20.3212 O   0  0  0  0  0  0
  -26.5925  -34.8791   22.4483 O   0  0  0  0  0  0
  -23.6336  -32.0588   23.5524 O   0  0  0  0  0  0
  -29.2006  -20.3375   20.3201 C   0  0  0  0  0  0
  -28.2004  -22.4649   20.2188 C   0  0  0  0  0  0
  -29.3170  -18.2279   20.2702 N   0  0  0  0  0  0
  -31.2155  -14.1817   19.0448 H   0  0  0  0  0  0
  -30.7050  -13.1434   20.3066 H   0  0  0  0  0  0
  -30.2109  -12.1390   18.0541 H   0  0  0  0  0  0
  -29.3823  -13.5901   17.5547 H   0  0  0  0  0  0
  -28.4305  -11.4738   19.4819 H   0  0  0  0  0  0
  -27.5913  -12.1016   18.0755 H   0  0  0  0  0  0
  -27.3204  -14.2160   19.1091 H   0  0  0  0  0  0
  -28.9720  -13.4238   21.5512 H   0  0  0  0  0  0
  -27.9168  -14.7884   21.4973 H   0  0  0  0  0  0
  -25.2871   -9.5690   22.4748 H   0  0  0  0  0  0
  -24.0047   -7.4683   22.7489 H   0  0  0  0  0  0
  -21.0938   -8.8851   19.8945 H   0  0  0  0  0  0
  -22.3854  -10.9697   19.6127 H   0  0  0  0  0  0
  -21.2035   -7.6165   23.9725 H   0  0  0  0  0  0
  -21.1486   -6.0529   25.9075 H   0  0  0  0  0  0
  -22.0587   -2.7625   23.2829 H   0  0  0  0  0  0
  -22.4039  -11.9742   22.4895 H   0  0  0  0  0  0
  -21.0937  -13.0980   22.2674 H   0  0  0  0  0  0
  -24.5768  -15.8638   20.5540 H   0  0  0  0  0  0
  -26.2060  -15.6839   20.1380 H   0  0  0  0  0  0
  -26.7876  -32.4443   23.0543 H   0  0  0  0  0  0
  -24.9961  -33.8879   24.9601 H   0  0  0  0  0  0
  -22.9629  -31.1444   21.2211 H   0  0  0  0  0  0
  -23.3792  -35.9283   23.3224 H   0  0  0  0  0  0
  -24.3542  -36.8804   22.2107 H   0  0  0  0  0  0
  -23.7229  -37.6104   23.6874 H   0  0  0  0  0  0
  -26.4659  -30.9211   20.6487 H   0  0  0  0  0  0
  -27.0298  -30.3291   22.1459 H   0  0  0  0  0  0
  -28.1985  -27.7908   21.4071 H   0  0  0  0  0  0
  -25.7596  -25.3099   18.9588 H   0  0  0  0  0  0
  -24.1415  -27.0455   18.8719 H   0  0  0  0  0  0
  -24.1127  -30.2559   19.3556 H   0  0  0  0  0  0
  -22.9802  -29.0216   19.7958 H   0  0  0  0  0  0
  -25.1411  -36.1346   25.0723 H   0  0  0  0  0  0
  -21.0093  -28.3507   24.1170 H   0  0  0  0  0  0
  -20.5606  -26.2478   23.3738 H   0  0  0  0  0  0
  -21.6663  -26.7276   22.1281 H   0  0  0  0  0  0
  -19.6940  -25.6222   21.1342 H   0  0  0  0  0  0
  -19.6763  -27.3084   20.6699 H   0  0  0  0  0  0
  -17.4253  -26.6718   21.4002 H   0  0  0  0  0  0
  -18.0338  -26.0144   22.9029 H   0  0  0  0  0  0
  -19.8031  -30.7398   24.2071 H   0  0  0  0  0  0
  -17.5087  -31.6284   24.5168 H   0  0  0  0  0  0
  -15.5417  -30.2952   23.7771 H   0  0  0  0  0  0
  -15.8752  -28.0794   22.7169 H   0  0  0  0  0  0
  -24.5845  -30.7190   25.7424 H   0  0  0  0  0  0
  -24.8725  -32.3171   26.4173 H   0  0  0  0  0  0
  -25.7627  -30.9316   27.0189 H   0  0  0  0  0  0
  -26.3552  -29.6093   24.2123 H   0  0  0  0  0  0
  -27.4038  -29.7408   25.5956 H   0  0  0  0  0  0
  -27.9570  -30.3690   24.0706 H   0  0  0  0  0  0
  -27.2476  -33.3875   26.1635 H   0  0  0  0  0  0
  -28.4042  -32.6752   25.0488 H   0  0  0  0  0  0
  -28.0450  -31.8868   26.5774 H   0  0  0  0  0  0
  -28.2488  -38.0006   24.7515 H   0  0  0  0  0  0
  -28.1107  -36.2518   24.6291 H   0  0  0  0  0  0
  -27.2256  -37.1265   25.8866 H   0  0  0  0  0  0
  -21.0089  -29.8498   21.6159 H   0  0  0  0  0  0
  -26.0011  -38.2526   24.1435 H   0  0  0  0  0  0
  -30.0015  -20.5173   19.6027 H   0  0  0  0  0  0
  -29.6902  -20.4553   21.2869 H   0  0  0  0  0  0
  -27.7199  -22.3753   19.2446 H   0  0  0  0  0  0
  -27.3860  -22.2933   20.9225 H   0  0  0  0  0  0
  -30.3181  -18.3884   20.2986 H   0  0  0  0  0  0
  1 25  1  0  0  0
  1 30  2  0  0  0
  1 73  1  0  0  0
  2  3  1  0  0  0
  2 25  1  0  0  0
  2 74  1  0  0  0
  2 75  1  0  0  0
  3  4  1  0  0  0
  3 76  1  0  0  0
  3 77  1  0  0  0
  4  5  1  0  0  0
  4 78  1  0  0  0
  4 79  1  0  0  0
  5  6  1  0  0  0
  5 26  1  0  0  0
  5 80  1  0  0  0
  6 25  1  0  0  0
  6 81  1  0  0  0
  6 82  1  0  0  0
  7  8  2  0  0  0
  7 26  1  0  0  0
  7 29  1  0  0  0
  8  9  1  0  0  0
  8 22  1  0  0  0
  9 10  1  0  0  0
  9 27  2  0  0  0
 10 11  2  0  0  0
 10 15  1  0  0  0
 11 12  1  0  0  0
 11 83  1  0  0  0
 12 13  2  0  0  0
 12 84  1  0  0  0
 13 14  1  0  0  0
 13 31  1  0  0  0
 14 15  2  0  0  0
 14 85  1  0  0  0
 15 86  1  0  0  0
 16 17  2  0  0  0
 16 21  1  0  0  0
 16 31  1  0  0  0
 17 18  1  0  0  0
 17 87  1  0  0  0
 18 19  2  0  0  0
 18 88  1  0  0  0
 19 20  1  0  0  0
 19 24  1  0  0  0
 20 21  2  0  0  0
 20 89  1  0  0  0
 21 23  1  0  0  0
 22 28  1  0  0  0
 22 32  2  0  0  0
 26 27  1  0  0  0
 28 90  1  0  0  0
 28 91  1  0  0  0
 29 92  1  0  0  0
 29 93  1  0  0  0
 33 34  1  0  0  0
 33 66  1  0  0  0
 33 70  2  0  0  0
 34 36  1  0  0  0
 34 59  1  0  0  0
 34 94  1  0  0  0
 35 44  2  0  0  0
 35 45  1  0  0  0
 35 68  1  0  0  0
 36 56  1  0  0  0
 36 95  1  0  0  0
 37 39  1  0  0  0
 37 47  1  0  0  0
 37 66  1  0  0  0
 37 96  1  0  0  0
 38 43  2  0  0  0
 38 46  1  0  0  0
 38 47  1  0  0  0
 39 64  1  0  0  0
 39 67  2  0  0  0
 40 52  1  0  0  0
 40 53  2  0  0  0
 40 58  1  0  0  0
 41 97  1  0  0  0
 41 98  1  0  0  0
 41 99  1  0  0  0
 41 48  1  0  0  0
 42 43  1  0  0  0
 42 66  1  0  0  0
 42100  1  0  0  0
 42101  1  0  0  0
 43 44  1  0  0  0
 44102  1  0  0  0
 45 46  2  0  0  0
 45103  1  0  0  0
 46104  1  0  0  0
 47105  1  0  0  0
 47106  1  0  0  0
 48 56  1  0  0  0
 48 65  1  0  0  0
 48107  1  0  0  0
 49 50  1  0  0  0
 49 53  1  0  0  0
 49 64  1  0  0  0
 49108  1  0  0  0
 50 51  1  0  0  0
 50109  1  0  0  0
 50110  1  0  0  0
 51 52  1  0  0  0
 51111  1  0  0  0
 51112  1  0  0  0
 52113  1  0  0  0
 52114  1  0  0  0
 53 54  1  0  0  0
 54 55  2  0  0  0
 54115  1  0  0  0
 55 57  1  0  0  0
 55116  1  0  0  0
 56 69  2  0  0  0
 57 58  2  0  0  0
 57117  1  0  0  0
 58118  1  0  0  0
 59 60  1  0  0  0
 59 61  1  0  0  0
 59 62  1  0  0  0
 60119  1  0  0  0
 60120  1  0  0  0
 60121  1  0  0  0
 61122  1  0  0  0
 61123  1  0  0  0
 61124  1  0  0  0
 62125  1  0  0  0
 62126  1  0  0  0
 62127  1  0  0  0
 63 65  1  0  0  0
 63128  1  0  0  0
 63129  1  0  0  0
 63130  1  0  0  0
 64131  1  0  0  0
 65132  1  0  0  0
 68 72  1  0  0  0
 71 72  1  0  0  0
 71 73  1  0  0  0
 71133  1  0  0  0
 71134  1  0  0  0
 72135  1  0  0  0
 72136  1  0  0  0
 73137  1  0  0  0
M  ISO  4   1 100  68 101  72 101  73 100
M  END
> <chiral flag>
0

> <version>
0

> <s_m_source_file>
/data/baiqing/PycharmProjects/Reinvent-master-3.2/result/LINK_invent/BTK/process_docking_weight1_custom_product_contain_oxygen_bond_distance_aromatic_linkinvent_7_9_3/rearranged_h_0001.sdf

> <i_m_source_file_index>
33

> <r_mmod_Potential_Energy-OPLS-2005>
6948.9697265625

> <r_mmod_Stretch_Energy-OPLS-2005>
3136.46411132812

> <r_mmod_Bend_Energy-OPLS-2005>
1268.50207519531

> <r_mmod_Torsional_Energy-OPLS-2005>
217.324829101562

> <r_mmod_Improper_Torsional_Energy-OPLS-2005>
4.82364273071289

> <r_mmod_Van_der_Waal_Energy-OPLS-2005>
120.95548248291

> <r_mmod_Electrostatic_Energy-OPLS-2005>
-391.247985839844

> <r_mmod_Solvation_Energy-OPLS-2005>
-221.174652099609

> <b_mmod_Minimization_Converged-OPLS-2005>
1

> <r_mmod_RMS_Derivative-OPLS-2005>
0.042349461466074

$$$$
33
                    3D
 Structure written by MMmdl.
154162  0  0  1  0            999 V2000
  -30.6755  -14.4856   20.5768 C   0  0  0  0  0  0
  -30.4342  -12.3171   19.4176 C   0  0  0  0  0  0
  -29.4979  -12.5126   18.2056 C   0  0  0  0  0  0
  -28.0186  -12.3671   18.6170 C   0  0  0  0  0  0
  -27.6648  -13.1978   19.8787 C   0  0  2  0  0  0
  -28.7076  -12.9625   20.9954 C   0  0  0  0  0  0
  -25.2602  -13.8130   20.5673 C   0  0  0  0  0  0
  -24.1842  -13.0423   20.9167 C   0  0  0  0  0  0
  -24.6385  -11.6887   20.8730 C   0  0  0  0  0  0
  -23.9043  -10.4283   21.0398 C   0  0  0  0  0  0
  -24.3599   -9.4204   21.9179 C   0  0  0  0  0  0
  -23.6282   -8.2238   22.0750 C   0  0  0  0  0  0
  -22.4265   -8.0274   21.3540 C   0  0  0  0  0  0
  -21.9891   -9.0244   20.4642 C   0  0  0  0  0  0
  -22.7215  -10.2127   20.3049 C   0  0  0  0  0  0
  -21.6847   -6.0734   22.5281 C   0  0  0  0  0  0
  -21.4010   -6.5638   23.8215 C   0  0  0  0  0  0
  -21.3657   -5.6790   24.9177 C   0  0  0  0  0  0
  -21.6046   -4.3054   24.7227 C   0  0  0  0  0  0
  -21.8819   -3.8146   23.4348 C   0  0  0  0  0  0
  -21.9189   -4.6963   22.3404 C   0  0  0  0  0  0
  -22.7867  -13.5235   21.1838 C   0  0  0  0  0  0
  -22.1658   -4.2149   21.0981 F   0  0  0  0  0  0
  -21.5629   -3.4536   25.7739 F   0  0  0  0  0  0
  -30.0402  -13.2864   20.4518 N   0  0  0  0  0  0
  -26.3039  -12.9284   20.3378 N   0  0  0  0  0  0
  -25.9314  -11.6454   20.5768 N   0  0  0  0  0  0
  -22.0499  -12.8240   22.0398 N   0  0  0  0  0  0
  -25.4309  -15.1846   20.4077 N   0  0  0  0  0  0
  -31.7868  -14.7150   20.0889 O   0  0  0  0  0  0
  -21.6629   -6.8873   21.4241 O   0  0  0  0  0  0
  -22.3561  -14.5548   20.6692 O   0  0  0  0  0  0
  -24.6151  -31.8672   23.2098 C   0  0  0  0  0  0
  -25.9041  -32.4819   23.8398 C   0  0  1  0  0  0
  -27.2388  -27.4345   20.0997 C   0  0  0  0  0  0
  -25.5895  -33.8618   24.2330 N   0  0  0  0  0  0
  -23.4050  -30.4890   21.5488 C   0  0  2  0  0  0
  -24.8559  -28.9546   20.1136 C   0  0  0  0  0  0
  -22.7418  -29.4648   22.4978 C   0  0  0  0  0  0
  -18.0273  -28.1376   22.8491 C   0  0  0  0  0  0
  -24.1485  -36.7316   23.2637 C   0  0  0  0  0  0
  -25.9338  -30.8323   21.3646 C   0  0  0  0  0  0
  -26.0148  -29.4661   20.7128 C   0  0  0  0  0  0
  -27.2123  -28.7122   20.7056 C   0  0  0  0  0  0
  -26.0685  -26.9379   19.4924 C   0  0  0  0  0  0
  -24.8772  -27.6891   19.5001 C   0  0  0  0  0  0
  -23.6163  -29.8202   20.1638 C   0  0  0  0  0  0
  -25.4103  -36.3112   24.0340 C   0  0  1  0  0  0
  -20.5865  -28.3664   23.1313 C   0  0  2  0  0  0
  -20.6760  -26.9399   22.5417 C   0  0  0  0  0  0
  -19.5740  -26.6384   21.5212 C   0  0  0  0  0  0
  -18.1920  -26.7923   22.1622 C   0  0  0  0  0  0
  -19.1523  -28.8836   23.2899 C   0  0  0  0  0  0
  -18.9451  -30.1442   23.8910 C   0  0  0  0  0  0
  -17.6454  -30.6584   24.0563 C   0  0  0  0  0  0
  -25.9033  -34.9476   23.5134 C   0  0  0  0  0  0
  -16.5344  -29.9087   23.6323 C   0  0  0  0  0  0
  -16.7261  -28.6501   23.0347 C   0  0  0  0  0  0
  -26.4474  -31.6595   25.0723 C   0  0  0  0  0  0
  -25.3747  -31.3694   26.1476 C   0  0  0  0  0  0
  -27.0307  -30.3037   24.6097 C   0  0  0  0  0  0
  -27.6053  -32.4313   25.7484 C   0  0  0  0  0  0
  -27.5587  -37.1801   24.8456 C   0  0  0  0  0  0
  -21.4145  -29.3031   22.3720 N   0  0  0  0  0  0
  -26.4285  -37.3801   23.9423 N   0  0  0  0  0  0
  -24.6693  -31.0768   22.0998 N   0  0  0  0  0  0
  -23.4184  -28.8193   23.3028 O   0  0  0  0  0  0
  -28.3688  -26.6472   20.1027 O   0  0  0  0  0  0
  -26.5596  -34.8928   22.4695 O   0  0  0  0  0  0
  -23.5340  -32.1421   23.7489 O   0  0  0  0  0  0
  -28.8313  -17.2028   19.9449 C   0  0  0  0  0  0
  -30.6632  -17.8086   21.4193 C   0  0  0  0  0  0
  -28.6050  -18.5670   19.6701 C   0  0  0  0  0  0
  -30.4286  -19.1810   21.1450 C   0  0  0  0  0  0
  -29.8580  -16.8071   20.8280 C   0  0  0  0  0  0
  -29.3791  -19.5781   20.2763 C   0  0  0  0  0  0
  -28.8315  -23.2801   20.3855 C   0  0  0  0  0  0
  -29.3915  -24.5523   21.0758 C   0  0  0  0  0  0
  -29.6401  -21.9813   20.6659 C   0  0  0  0  0  0
  -28.4049  -25.7441   21.2175 C   0  0  0  0  0  0
  -29.9575  -15.4355   21.2065 N   0  0  0  0  0  0
  -29.0320  -20.8859   19.9737 O   0  0  0  0  0  0
  -31.4757  -12.4372   19.1133 H   0  0  0  0  0  0
  -30.3545  -11.3010   19.8065 H   0  0  0  0  0  0
  -29.7398  -11.7918   17.4231 H   0  0  0  0  0  0
  -29.6606  -13.5003   17.7710 H   0  0  0  0  0  0
  -27.8282  -11.3100   18.8058 H   0  0  0  0  0  0
  -27.3681  -12.6487   17.7880 H   0  0  0  0  0  0
  -27.7112  -14.2455   19.5883 H   0  0  0  0  0  0
  -28.6895  -11.9185   21.3125 H   0  0  0  0  0  0
  -28.4599  -13.5349   21.8901 H   0  0  0  0  0  0
  -25.2743   -9.5684   22.4755 H   0  0  0  0  0  0
  -23.9992   -7.4627   22.7466 H   0  0  0  0  0  0
  -21.0821   -8.8758   19.8950 H   0  0  0  0  0  0
  -22.3669  -10.9663   19.6158 H   0  0  0  0  0  0
  -21.2003   -7.6145   23.9723 H   0  0  0  0  0  0
  -21.1479   -6.0517   25.9082 H   0  0  0  0  0  0
  -22.0603   -2.7608   23.2846 H   0  0  0  0  0  0
  -22.4096  -11.9892   22.4784 H   0  0  0  0  0  0
  -21.1127  -13.1289   22.2612 H   0  0  0  0  0  0
  -24.6616  -15.8368   20.5163 H   0  0  0  0  0  0
  -26.2840  -15.6286   20.0960 H   0  0  0  0  0  0
  -26.7115  -32.5537   23.1169 H   0  0  0  0  0  0
  -25.0047  -33.9783   25.0475 H   0  0  0  0  0  0
  -22.6937  -31.3056   21.4079 H   0  0  0  0  0  0
  -23.3751  -35.9643   23.3285 H   0  0  0  0  0  0
  -24.3588  -36.8946   22.2055 H   0  0  0  0  0  0
  -23.7226  -37.6513   23.6658 H   0  0  0  0  0  0
  -26.0464  -31.5983   20.5961 H   0  0  0  0  0  0
  -26.8208  -30.8871   21.9834 H   0  0  0  0  0  0
  -28.1067  -29.0996   21.1735 H   0  0  0  0  0  0
  -26.0792  -25.9628   19.0255 H   0  0  0  0  0  0
  -23.9870  -27.2886   19.0350 H   0  0  0  0  0  0
  -23.7247  -30.5947   19.4035 H   0  0  0  0  0  0
  -22.7412  -29.2391   19.8674 H   0  0  0  0  0  0
  -25.1275  -36.1974   25.0832 H   0  0  0  0  0  0
  -20.9956  -28.3229   24.1433 H   0  0  0  0  0  0
  -20.5657  -26.2274   23.3606 H   0  0  0  0  0  0
  -21.6632  -26.7437   22.1211 H   0  0  0  0  0  0
  -19.6901  -25.6298   21.1232 H   0  0  0  0  0  0
  -19.6681  -27.3200   20.6748 H   0  0  0  0  0  0
  -17.4190  -26.6672   21.4024 H   0  0  0  0  0  0
  -18.0320  -26.0061   22.9015 H   0  0  0  0  0  0
  -19.7929  -30.7252   24.2285 H   0  0  0  0  0  0
  -17.5012  -31.6266   24.5161 H   0  0  0  0  0  0
  -15.5346  -30.2994   23.7641 H   0  0  0  0  0  0
  -15.8659  -28.0827   22.7054 H   0  0  0  0  0  0
  -24.5910  -30.7058   25.7810 H   0  0  0  0  0  0
  -24.8955  -32.2848   26.4957 H   0  0  0  0  0  0
  -25.8108  -30.8834   27.0214 H   0  0  0  0  0  0
  -26.2851  -29.6793   24.1161 H   0  0  0  0  0  0
  -27.4090  -29.7277   25.4554 H   0  0  0  0  0  0
  -27.8680  -30.4358   23.9241 H   0  0  0  0  0  0
  -27.2673  -33.3596   26.2100 H   0  0  0  0  0  0
  -28.3841  -32.6899   25.0298 H   0  0  0  0  0  0
  -28.0745  -31.8413   26.5367 H   0  0  0  0  0  0
  -28.2574  -38.0131   24.7559 H   0  0  0  0  0  0
  -28.1116  -36.2668   24.6205 H   0  0  0  0  0  0
  -27.2318  -37.1356   25.8860 H   0  0  0  0  0  0
  -20.9305  -29.8761   21.6948 H   0  0  0  0  0  0
  -26.0173  -38.2872   24.1458 H   0  0  0  0  0  0
  -28.1911  -16.4684   19.4806 H   0  0  0  0  0  0
  -31.4452  -17.5332   22.1133 H   0  0  0  0  0  0
  -27.8028  -18.8432   19.0003 H   0  0  0  0  0  0
  -31.0561  -19.9164   21.6268 H   0  0  0  0  0  0
  -28.7664  -23.4536   19.3107 H   0  0  0  0  0  0
  -27.8085  -23.1144   20.7249 H   0  0  0  0  0  0
  -30.3134  -24.8783   20.5932 H   0  0  0  0  0  0
  -29.6789  -24.2650   22.0882 H   0  0  0  0  0  0
  -29.6517  -21.7891   21.7399 H   0  0  0  0  0  0
  -30.6738  -22.0941   20.3368 H   0  0  0  0  0  0
  -28.7055  -26.3349   22.0844 H   0  0  0  0  0  0
  -27.4089  -25.3630   21.4531 H   0  0  0  0  0  0
  -29.1125  -15.0532   21.6036 H   0  0  0  0  0  0
  1 25  1  0  0  0
  1 30  2  0  0  0
  1 81  1  0  0  0
  2  3  1  0  0  0
  2 25  1  0  0  0
  2 83  1  0  0  0
  2 84  1  0  0  0
  3  4  1  0  0  0
  3 85  1  0  0  0
  3 86  1  0  0  0
  4  5  1  0  0  0
  4 87  1  0  0  0
  4 88  1  0  0  0
  5  6  1  0  0  0
  5 26  1  0  0  0
  5 89  1  0  0  0
  6 25  1  0  0  0
  6 90  1  0  0  0
  6 91  1  0  0  0
  7  8  2  0  0  0
  7 26  1  0  0  0
  7 29  1  0  0  0
  8  9  1  0  0  0
  8 22  1  0  0  0
  9 10  1  0  0  0
  9 27  2  0  0  0
 10 11  2  0  0  0
 10 15  1  0  0  0
 11 12  1  0  0  0
 11 92  1  0  0  0
 12 13  2  0  0  0
 12 93  1  0  0  0
 13 14  1  0  0  0
 13 31  1  0  0  0
 14 15  2  0  0  0
 14 94  1  0  0  0
 15 95  1  0  0  0
 16 17  2  0  0  0
 16 21  1  0  0  0
 16 31  1  0  0  0
 17 18  1  0  0  0
 17 96  1  0  0  0
 18 19  2  0  0  0
 18 97  1  0  0  0
 19 20  1  0  0  0
 19 24  1  0  0  0
 20 21  2  0  0  0
 20 98  1  0  0  0
 21 23  1  0  0  0
 22 28  1  0  0  0
 22 32  2  0  0  0
 26 27  1  0  0  0
 28 99  1  0  0  0
 28100  1  0  0  0
 29101  1  0  0  0
 29102  1  0  0  0
 33 34  1  0  0  0
 33 66  1  0  0  0
 33 70  2  0  0  0
 34 36  1  0  0  0
 34 59  1  0  0  0
 34103  1  0  0  0
 35 44  2  0  0  0
 35 45  1  0  0  0
 35 68  1  0  0  0
 36 56  1  0  0  0
 36104  1  0  0  0
 37 39  1  0  0  0
 37 47  1  0  0  0
 37 66  1  0  0  0
 37105  1  0  0  0
 38 43  2  0  0  0
 38 46  1  0  0  0
 38 47  1  0  0  0
 39 64  1  0  0  0
 39 67  2  0  0  0
 40 52  1  0  0  0
 40 53  2  0  0  0
 40 58  1  0  0  0
 41106  1  0  0  0
 41107  1  0  0  0
 41108  1  0  0  0
 41 48  1  0  0  0
 42 43  1  0  0  0
 42 66  1  0  0  0
 42109  1  0  0  0
 42110  1  0  0  0
 43 44  1  0  0  0
 44111  1  0  0  0
 45 46  2  0  0  0
 45112  1  0  0  0
 46113  1  0  0  0
 47114  1  0  0  0
 47115  1  0  0  0
 48 56  1  0  0  0
 48 65  1  0  0  0
 48116  1  0  0  0
 49 50  1  0  0  0
 49 53  1  0  0  0
 49 64  1  0  0  0
 49117  1  0  0  0
 50 51  1  0  0  0
 50118  1  0  0  0
 50119  1  0  0  0
 51 52  1  0  0  0
 51120  1  0  0  0
 51121  1  0  0  0
 52122  1  0  0  0
 52123  1  0  0  0
 53 54  1  0  0  0
 54 55  2  0  0  0
 54124  1  0  0  0
 55 57  1  0  0  0
 55125  1  0  0  0
 56 69  2  0  0  0
 57 58  2  0  0  0
 57126  1  0  0  0
 58127  1  0  0  0
 59 60  1  0  0  0
 59 61  1  0  0  0
 59 62  1  0  0  0
 60128  1  0  0  0
 60129  1  0  0  0
 60130  1  0  0  0
 61131  1  0  0  0
 61132  1  0  0  0
 61133  1  0  0  0
 62134  1  0  0  0
 62135  1  0  0  0
 62136  1  0  0  0
 63 65  1  0  0  0
 63137  1  0  0  0
 63138  1  0  0  0
 63139  1  0  0  0
 64140  1  0  0  0
 65141  1  0  0  0
 68 80  1  0  0  0
 71 73  2  0  0  0
 71 75  1  0  0  0
 71142  1  0  0  0
 72 74  1  0  0  0
 72 75  2  0  0  0
 72143  1  0  0  0
 73 76  1  0  0  0
 73144  1  0  0  0
 74 76  2  0  0  0
 74145  1  0  0  0
 75 81  1  0  0  0
 76 82  1  0  0  0
 77 78  1  0  0  0
 77 79  1  0  0  0
 77146  1  0  0  0
 77147  1  0  0  0
 78 80  1  0  0  0
 78148  1  0  0  0
 78149  1  0  0  0
 79 82  1  0  0  0
 79150  1  0  0  0
 79151  1  0  0  0
 80152  1  0  0  0
 80153  1  0  0  0
 81154  1  0  0  0
M  ISO  4   1 100  68 101  80 101  81 100
M  END
> <chiral flag>
0

> <version>
0

> <s_m_source_file>
/data/baiqing/PycharmProjects/Reinvent-master-3.2/result/LINK_invent/BTK/process_docking_weight1_custom_product_contain_oxygen_bond_distance_aromatic_linkinvent_7_9_3/rearranged_h_0001.sdf

> <i_m_source_file_index>
34

> <r_mmod_Potential_Energy-OPLS-2005>
-26.1432418823242

> <r_mmod_Stretch_Energy-OPLS-2005>
38.0520858764648

> <r_mmod_Bend_Energy-OPLS-2005>
103.493583679199

> <r_mmod_Torsional_Energy-OPLS-2005>
269.066009521484

> <r_mmod_Improper_Torsional_Energy-OPLS-2005>
5.56116437911987

> <r_mmod_Van_der_Waal_Energy-OPLS-2005>
142.235061645508

> <r_mmod_Electrostatic_Energy-OPLS-2005>
-386.073486328125

> <r_mmod_Solvation_Energy-OPLS-2005>
-212.002868652344

> <b_mmod_Minimization_Converged-OPLS-2005>
0

> <r_mmod_RMS_Derivative-OPLS-2005>
0.609314560890198

$$$$
34
                    3D
 Structure written by MMmdl.
143151  0  0  1  0            999 V2000
  -30.3577  -15.5671   20.3231 C   0  0  0  0  0  0
  -30.4319  -12.9913   19.5699 C   0  0  0  0  0  0
  -29.5588  -12.6327   18.3338 C   0  0  0  0  0  0
  -28.1192  -12.2999   18.7580 C   0  0  0  0  0  0
  -27.5914  -13.3067   19.8071 C   0  0  2  0  0  0
  -28.5886  -13.6150   20.9428 C   0  0  0  0  0  0
  -25.2301  -13.8296   20.5756 C   0  0  0  0  0  0
  -24.1691  -13.0443   20.9255 C   0  0  0  0  0  0
  -24.6389  -11.6952   20.8736 C   0  0  0  0  0  0
  -23.9102  -10.4298   21.0389 C   0  0  0  0  0  0
  -24.3646   -9.4214   21.9173 C   0  0  0  0  0  0
  -23.6312   -8.2252   22.0751 C   0  0  0  0  0  0
  -22.4291   -8.0287   21.3544 C   0  0  0  0  0  0
  -21.9931   -9.0259   20.4643 C   0  0  0  0  0  0
  -22.7268  -10.2133   20.3045 C   0  0  0  0  0  0
  -21.6860   -6.0740   22.5279 C   0  0  0  0  0  0
  -21.4020   -6.5642   23.8213 C   0  0  0  0  0  0
  -21.3661   -5.6794   24.9174 C   0  0  0  0  0  0
  -21.6044   -4.3056   24.7224 C   0  0  0  0  0  0
  -21.8819   -3.8149   23.4345 C   0  0  0  0  0  0
  -21.9195   -4.6967   22.3401 C   0  0  0  0  0  0
  -22.7711  -13.5173   21.1919 C   0  0  0  0  0  0
  -22.1663   -4.2152   21.0979 F   0  0  0  0  0  0
  -21.5627   -3.4539   25.7735 F   0  0  0  0  0  0
  -29.8085  -14.1589   20.3242 N   0  0  0  0  0  0
  -26.2718  -12.9616   20.3133 N   0  0  0  0  0  0
  -25.9323  -11.6691   20.5639 N   0  0  0  0  0  0
  -22.0390  -12.8144   22.0478 N   0  0  0  0  0  0
  -25.3943  -15.2040   20.4270 N   0  0  0  0  0  0
  -31.5804  -15.5619   20.1001 O   0  0  0  0  0  0
  -21.6651   -6.8886   21.4243 O   0  0  0  0  0  0
  -22.3379  -14.5473   20.6765 O   0  0  0  0  0  0
  -24.6810  -31.8033   23.1545 C   0  0  0  0  0  0
  -25.9404  -32.4484   23.8080 C   0  0  1  0  0  0
  -27.2239  -26.7351   20.2113 C   0  0  0  0  0  0
  -25.5996  -33.8308   24.1970 N   0  0  0  0  0  0
  -23.5057  -30.4068   21.5077 C   0  0  2  0  0  0
  -24.9631  -28.7556   20.1169 C   0  0  0  0  0  0
  -22.7756  -29.4332   22.4720 C   0  0  0  0  0  0
  -18.0338  -28.1420   22.8456 C   0  0  0  0  0  0
  -24.1495  -36.7159   23.2651 C   0  0  0  0  0  0
  -26.0850  -30.5472   21.4142 C   0  0  0  0  0  0
  -26.1516  -29.1157   20.7635 C   0  0  0  0  0  0
  -27.2692  -28.1324   20.7794 C   0  0  0  0  0  0
  -26.0040  -26.5780   19.5068 C   0  0  0  0  0  0
  -24.9265  -27.5116   19.4650 C   0  0  0  0  0  0
  -23.7579  -29.7070   20.1415 C   0  0  0  0  0  0
  -25.4144  -36.2905   24.0285 C   0  0  1  0  0  0
  -20.5972  -28.3777   23.1148 C   0  0  2  0  0  0
  -20.6805  -26.9440   22.5401 C   0  0  0  0  0  0
  -19.5780  -26.6372   21.5215 C   0  0  0  0  0  0
  -18.1964  -26.7947   22.1621 C   0  0  0  0  0  0
  -19.1603  -28.8923   23.2784 C   0  0  0  0  0  0
  -18.9509  -30.1507   23.8828 C   0  0  0  0  0  0
  -17.6498  -30.6603   24.0550 C   0  0  0  0  0  0
  -25.9121  -34.9294   23.4961 C   0  0  0  0  0  0
  -16.5388  -29.9084   23.6349 C   0  0  0  0  0  0
  -16.7317  -28.6507   23.0366 C   0  0  0  0  0  0
  -26.4592  -31.6505   25.0688 C   0  0  0  0  0  0
  -25.3667  -31.3812   26.1308 C   0  0  0  0  0  0
  -27.0520  -30.2847   24.6564 C   0  0  0  0  0  0
  -27.6046  -32.4358   25.7507 C   0  0  0  0  0  0
  -27.5564  -37.1739   24.8468 C   0  0  0  0  0  0
  -21.4406  -29.3031   22.3473 N   0  0  0  0  0  0
  -26.4273  -37.3662   23.9406 N   0  0  0  0  0  0
  -24.7804  -30.9511   22.0781 N   0  0  0  0  0  0
  -23.4214  -28.7927   23.3050 O   0  0  0  0  0  0
  -28.1781  -25.5210   20.2923 O   0  0  0  0  0  0
  -26.5757  -34.8865   22.4575 O   0  0  0  0  0  0
  -23.5836  -32.1092   23.6518 O   0  0  0  0  0  0
  -28.7608  -21.1884   21.3997 C   0  0  0  0  0  0
  -28.8886  -21.1257   19.1829 C   0  0  0  0  0  0
  -29.0820  -19.6928   21.4504 C   0  0  0  0  0  0
  -29.2074  -19.6296   19.2345 C   0  0  0  0  0  0
  -28.6136  -22.1276   20.2538 C   0  0  0  0  0  0
  -29.3543  -18.6895   20.3800 C   0  0  0  0  0  0
  -27.8572  -23.8218   20.1217 C   0  0  0  0  0  0
  -29.3629  -17.0818   20.4623 O   0  0  0  0  0  0
  -31.4401  -13.2383   19.2356 H   0  0  0  0  0  0
  -30.5465  -12.1264   20.2256 H   0  0  0  0  0  0
  -29.9947  -11.7952   17.7875 H   0  0  0  0  0  0
  -29.5480  -13.4779   17.6440 H   0  0  0  0  0  0
  -28.1235  -11.2967   19.1859 H   0  0  0  0  0  0
  -27.4597  -12.2624   17.8901 H   0  0  0  0  0  0
  -27.4674  -14.2359   19.2491 H   0  0  0  0  0  0
  -28.7970  -12.7293   21.5448 H   0  0  0  0  0  0
  -28.1712  -14.3621   21.6199 H   0  0  0  0  0  0
  -25.2786   -9.5694   22.4753 H   0  0  0  0  0  0
  -24.0018   -7.4647   22.7476 H   0  0  0  0  0  0
  -21.0860   -8.8781   19.8952 H   0  0  0  0  0  0
  -22.3721  -10.9671   19.6155 H   0  0  0  0  0  0
  -21.2016   -7.6151   23.9717 H   0  0  0  0  0  0
  -21.1482   -6.0523   25.9077 H   0  0  0  0  0  0
  -22.0596   -2.7611   23.2842 H   0  0  0  0  0  0
  -22.4040  -11.9818   22.4861 H   0  0  0  0  0  0
  -21.1000  -13.1137   22.2693 H   0  0  0  0  0  0
  -24.6327  -15.8599   20.5621 H   0  0  0  0  0  0
  -26.2546  -15.6502   20.1335 H   0  0  0  0  0  0
  -26.7485  -32.4967   23.0793 H   0  0  0  0  0  0
  -25.0065  -33.9353   25.0070 H   0  0  0  0  0  0
  -22.8293  -31.2434   21.3205 H   0  0  0  0  0  0
  -23.3772  -35.9474   23.3274 H   0  0  0  0  0  0
  -24.3563  -36.8856   22.2073 H   0  0  0  0  0  0
  -23.7242  -37.6325   23.6748 H   0  0  0  0  0  0
  -26.2848  -31.2745   20.6263 H   0  0  0  0  0  0
  -26.9372  -30.6137   22.0782 H   0  0  0  0  0  0
  -28.1627  -28.4119   21.3195 H   0  0  0  0  0  0
  -25.8400  -25.6348   19.0059 H   0  0  0  0  0  0
  -24.0289  -27.2274   18.9329 H   0  0  0  0  0  0
  -23.9308  -30.4686   19.3803 H   0  0  0  0  0  0
  -22.8635  -29.1720   19.8177 H   0  0  0  0  0  0
  -25.1352  -36.1674   25.0775 H   0  0  0  0  0  0
  -21.0056  -28.3399   24.1273 H   0  0  0  0  0  0
  -20.5671  -26.2401   23.3660 H   0  0  0  0  0  0
  -21.6666  -26.7386   22.1218 H   0  0  0  0  0  0
  -19.6937  -25.6264   21.1290 H   0  0  0  0  0  0
  -19.6722  -27.3144   20.6715 H   0  0  0  0  0  0
  -17.4232  -26.6687   21.4026 H   0  0  0  0  0  0
  -18.0356  -26.0108   22.9035 H   0  0  0  0  0  0
  -19.7984  -30.7342   24.2167 H   0  0  0  0  0  0
  -17.5048  -31.6276   24.5165 H   0  0  0  0  0  0
  -15.5385  -30.2963   23.7713 H   0  0  0  0  0  0
  -15.8719  -28.0802   22.7119 H   0  0  0  0  0  0
  -24.5881  -30.7129   25.7611 H   0  0  0  0  0  0
  -24.8823  -32.3030   26.4538 H   0  0  0  0  0  0
  -25.7853  -30.9108   27.0214 H   0  0  0  0  0  0
  -26.3231  -29.6471   24.1551 H   0  0  0  0  0  0
  -27.3953  -29.7280   25.5294 H   0  0  0  0  0  0
  -27.9210  -30.3979   24.0081 H   0  0  0  0  0  0
  -27.2589  -33.3723   26.1894 H   0  0  0  0  0  0
  -28.3956  -32.6816   25.0409 H   0  0  0  0  0  0
  -28.0606  -31.8615   26.5581 H   0  0  0  0  0  0
  -28.2554  -38.0058   24.7508 H   0  0  0  0  0  0
  -28.1086  -36.2580   24.6305 H   0  0  0  0  0  0
  -27.2277  -37.1387   25.8870 H   0  0  0  0  0  0
  -20.9704  -29.8693   21.6548 H   0  0  0  0  0  0
  -26.0103  -38.2712   24.1413 H   0  0  0  0  0  0
  -28.5391  -21.6280   22.3620 H   0  0  0  0  0  0
  -28.7802  -21.5166   18.1808 H   0  0  0  0  0  0
  -29.0490  -19.2708   22.4448 H   0  0  0  0  0  0
  -29.2823  -19.1583   18.2648 H   0  0  0  0  0  0
  -26.9811  -23.7079   20.7601 H   0  0  0  0  0  0
  -27.4424  -23.7838   19.1145 H   0  0  0  0  0  0
  1 25  1  0  0  0
  1 30  2  0  0  0
  1 78  1  0  0  0
  2  3  1  0  0  0
  2 25  1  0  0  0
  2 79  1  0  0  0
  2 80  1  0  0  0
  3  4  1  0  0  0
  3 81  1  0  0  0
  3 82  1  0  0  0
  4  5  1  0  0  0
  4 83  1  0  0  0
  4 84  1  0  0  0
  5  6  1  0  0  0
  5 26  1  0  0  0
  5 85  1  0  0  0
  6 25  1  0  0  0
  6 86  1  0  0  0
  6 87  1  0  0  0
  7  8  2  0  0  0
  7 26  1  0  0  0
  7 29  1  0  0  0
  8  9  1  0  0  0
  8 22  1  0  0  0
  9 10  1  0  0  0
  9 27  2  0  0  0
 10 11  2  0  0  0
 10 15  1  0  0  0
 11 12  1  0  0  0
 11 88  1  0  0  0
 12 13  2  0  0  0
 12 89  1  0  0  0
 13 14  1  0  0  0
 13 31  1  0  0  0
 14 15  2  0  0  0
 14 90  1  0  0  0
 15 91  1  0  0  0
 16 17  2  0  0  0
 16 21  1  0  0  0
 16 31  1  0  0  0
 17 18  1  0  0  0
 17 92  1  0  0  0
 18 19  2  0  0  0
 18 93  1  0  0  0
 19 20  1  0  0  0
 19 24  1  0  0  0
 20 21  2  0  0  0
 20 94  1  0  0  0
 21 23  1  0  0  0
 22 28  1  0  0  0
 22 32  2  0  0  0
 26 27  1  0  0  0
 28 95  1  0  0  0
 28 96  1  0  0  0
 29 97  1  0  0  0
 29 98  1  0  0  0
 33 34  1  0  0  0
 33 66  1  0  0  0
 33 70  2  0  0  0
 34 36  1  0  0  0
 34 59  1  0  0  0
 34 99  1  0  0  0
 35 44  2  0  0  0
 35 45  1  0  0  0
 35 68  1  0  0  0
 36 56  1  0  0  0
 36100  1  0  0  0
 37 39  1  0  0  0
 37 47  1  0  0  0
 37 66  1  0  0  0
 37101  1  0  0  0
 38 43  2  0  0  0
 38 46  1  0  0  0
 38 47  1  0  0  0
 39 64  1  0  0  0
 39 67  2  0  0  0
 40 52  1  0  0  0
 40 53  2  0  0  0
 40 58  1  0  0  0
 41102  1  0  0  0
 41103  1  0  0  0
 41104  1  0  0  0
 41 48  1  0  0  0
 42 43  1  0  0  0
 42 66  1  0  0  0
 42105  1  0  0  0
 42106  1  0  0  0
 43 44  1  0  0  0
 44107  1  0  0  0
 45 46  2  0  0  0
 45108  1  0  0  0
 46109  1  0  0  0
 47110  1  0  0  0
 47111  1  0  0  0
 48 56  1  0  0  0
 48 65  1  0  0  0
 48112  1  0  0  0
 49 50  1  0  0  0
 49 53  1  0  0  0
 49 64  1  0  0  0
 49113  1  0  0  0
 50 51  1  0  0  0
 50114  1  0  0  0
 50115  1  0  0  0
 51 52  1  0  0  0
 51116  1  0  0  0
 51117  1  0  0  0
 52118  1  0  0  0
 52119  1  0  0  0
 53 54  1  0  0  0
 54 55  2  0  0  0
 54120  1  0  0  0
 55 57  1  0  0  0
 55121  1  0  0  0
 56 69  2  0  0  0
 57 58  2  0  0  0
 57122  1  0  0  0
 58123  1  0  0  0
 59 60  1  0  0  0
 59 61  1  0  0  0
 59 62  1  0  0  0
 60124  1  0  0  0
 60125  1  0  0  0
 60126  1  0  0  0
 61127  1  0  0  0
 61128  1  0  0  0
 61129  1  0  0  0
 62130  1  0  0  0
 62131  1  0  0  0
 62132  1  0  0  0
 63 65  1  0  0  0
 63133  1  0  0  0
 63134  1  0  0  0
 63135  1  0  0  0
 64136  1  0  0  0
 65137  1  0  0  0
 68 77  1  0  0  0
 71 73  2  0  0  0
 71 75  1  0  0  0
 71138  1  0  0  0
 72 74  1  0  0  0
 72 75  2  0  0  0
 72139  1  0  0  0
 73 76  1  0  0  0
 73140  1  0  0  0
 74 76  2  0  0  0
 74141  1  0  0  0
 75 77  1  0  0  0
 76 78  1  0  0  0
 77142  1  0  0  0
 77143  1  0  0  0
M  ISO  4   1 100  68 101  77 101  78 100
M  END
> <chiral flag>
0

> <version>
0

> <s_m_source_file>
/data/baiqing/PycharmProjects/Reinvent-master-3.2/result/LINK_invent/BTK/process_docking_weight1_custom_product_contain_oxygen_bond_distance_aromatic_linkinvent_7_9_3/rearranged_h_0001.sdf

> <i_m_source_file_index>
35

> <r_mmod_Potential_Energy-OPLS-2005>
2282.251953125

> <r_mmod_Stretch_Energy-OPLS-2005>
951.206787109375

> <r_mmod_Bend_Energy-OPLS-2005>
655.168640136719

> <r_mmod_Torsional_Energy-OPLS-2005>
204.557037353516

> <r_mmod_Improper_Torsional_Energy-OPLS-2005>
10.9920215606689

> <r_mmod_Van_der_Waal_Energy-OPLS-2005>
131.146743774414

> <r_mmod_Electrostatic_Energy-OPLS-2005>
-283.733428955078

> <r_mmod_Solvation_Energy-OPLS-2005>
-196.833312988281

> <b_mmod_Minimization_Converged-OPLS-2005>
0

> <r_mmod_RMS_Derivative-OPLS-2005>
0.138768345117569

$$$$
35
                    3D
 Structure written by MMmdl.
178186  0  0  1  0            999 V2000
  -30.7360  -14.4516   20.5994 C   0  0  0  0  0  0
  -30.4134  -12.3042   19.4317 C   0  0  0  0  0  0
  -29.4989  -12.5333   18.2123 C   0  0  0  0  0  0
  -28.0164  -12.3970   18.6109 C   0  0  0  0  0  0
  -27.6627  -13.2208   19.8790 C   0  0  2  0  0  0
  -28.7018  -13.0011   21.0038 C   0  0  0  0  0  0
  -25.2548  -13.8203   20.5668 C   0  0  0  0  0  0
  -24.1811  -13.0450   20.9165 C   0  0  0  0  0  0
  -24.6389  -11.6934   20.8724 C   0  0  0  0  0  0
  -23.9063  -10.4306   21.0389 C   0  0  0  0  0  0
  -24.3624   -9.4222   21.9170 C   0  0  0  0  0  0
  -23.6302   -8.2246   22.0746 C   0  0  0  0  0  0
  -22.4277   -8.0280   21.3543 C   0  0  0  0  0  0
  -21.9910   -9.0246   20.4635 C   0  0  0  0  0  0
  -22.7237  -10.2126   20.3042 C   0  0  0  0  0  0
  -21.6849   -6.0741   22.5279 C   0  0  0  0  0  0
  -21.4004   -6.5643   23.8212 C   0  0  0  0  0  0
  -21.3663   -5.6794   24.9175 C   0  0  0  0  0  0
  -21.6040   -4.3047   24.7217 C   0  0  0  0  0  0
  -21.8826   -3.8147   23.4331 C   0  0  0  0  0  0
  -21.9184   -4.6975   22.3392 C   0  0  0  0  0  0
  -22.7823  -13.5221   21.1838 C   0  0  0  0  0  0
  -22.1655   -4.2157   21.0968 F   0  0  0  0  0  0
  -21.5639   -3.4527   25.7722 F   0  0  0  0  0  0
  -30.0402  -13.2882   20.4623 N   0  0  0  0  0  0
  -26.3016  -12.9400   20.3362 N   0  0  0  0  0  0
  -25.9328  -11.6544   20.5753 N   0  0  0  0  0  0
  -22.0459  -12.8219   22.0395 N   0  0  0  0  0  0
  -25.4236  -15.1929   20.4123 N   0  0  0  0  0  0
  -31.8417  -14.6196   20.0791 O   0  0  0  0  0  0
  -21.6644   -6.8878   21.4238 O   0  0  0  0  0  0
  -22.3508  -14.5530   20.6688 O   0  0  0  0  0  0
  -24.6127  -31.8698   23.2055 C   0  0  0  0  0  0
  -25.9046  -32.4804   23.8344 C   0  0  1  0  0  0
  -27.2355  -27.4482   20.1008 C   0  0  0  0  0  0
  -25.5914  -33.8603   24.2304 N   0  0  0  0  0  0
  -23.3960  -30.4897   21.5491 C   0  0  2  0  0  0
  -24.8422  -28.9546   20.1145 C   0  0  0  0  0  0
  -22.7366  -29.4679   22.5031 C   0  0  0  0  0  0
  -18.0245  -28.1389   22.8478 C   0  0  0  0  0  0
  -24.1480  -36.7295   23.2620 C   0  0  0  0  0  0
  -25.9231  -30.8396   21.3544 C   0  0  0  0  0  0
  -25.9988  -29.4726   20.7094 C   0  0  0  0  0  0
  -27.1944  -28.7230   20.7050 C   0  0  0  0  0  0
  -26.0558  -26.9374   19.5060 C   0  0  0  0  0  0
  -24.8645  -27.6831   19.5172 C   0  0  0  0  0  0
  -23.5972  -29.8100   20.1684 C   0  0  0  0  0  0
  -25.4099  -36.3104   24.0343 C   0  0  1  0  0  0
  -20.5825  -28.3652   23.1346 C   0  0  2  0  0  0
  -20.6747  -26.9392   22.5442 C   0  0  0  0  0  0
  -19.5749  -26.6382   21.5218 C   0  0  0  0  0  0
  -18.1902  -26.7942   22.1579 C   0  0  0  0  0  0
  -19.1486  -28.8841   23.2897 C   0  0  0  0  0  0
  -18.9431  -30.1447   23.8892 C   0  0  0  0  0  0
  -17.6440  -30.6603   24.0569 C   0  0  0  0  0  0
  -25.9043  -34.9474   23.5130 C   0  0  0  0  0  0
  -16.5328  -29.9102   23.6355 C   0  0  0  0  0  0
  -16.7225  -28.6523   23.0357 C   0  0  0  0  0  0
  -26.4474  -31.6573   25.0660 C   0  0  0  0  0  0
  -25.3732  -31.3751   26.1409 C   0  0  0  0  0  0
  -27.0294  -30.2992   24.6062 C   0  0  0  0  0  0
  -27.6044  -32.4292   25.7423 C   0  0  0  0  0  0
  -27.5625  -37.1745   24.8428 C   0  0  0  0  0  0
  -21.4098  -29.3020   22.3747 N   0  0  0  0  0  0
  -26.4275  -37.3805   23.9462 N   0  0  0  0  0  0
  -24.6617  -31.0811   22.0951 N   0  0  0  0  0  0
  -23.4146  -28.8252   23.3090 O   0  0  0  0  0  0
  -28.4335  -26.7644   20.1240 O   0  0  0  0  0  0
  -26.5599  -34.8956   22.4691 O   0  0  0  0  0  0
  -23.5329  -32.1452   23.7452 O   0  0  0  0  0  0
  -31.2448  -18.8227   20.0229 C   0  0  0  0  0  0
  -30.9234  -17.4528   20.0637 C   0  0  0  0  0  0
  -30.6046  -19.0444   22.3527 C   0  0  0  0  0  0
  -30.2718  -17.6616   22.3956 C   0  0  0  0  0  0
  -31.1051  -19.6353   21.1647 C   0  0  0  0  0  0
  -30.4552  -16.8434   21.2499 C   0  0  0  0  0  0
  -29.7743  -22.7385   20.8133 C   0  0  0  0  0  0
  -29.7443  -17.0554   23.6861 C   0  0  0  0  0  0
  -33.2747  -26.6783   19.7813 C   0  0  0  0  0  0
  -35.2449  -26.5096   21.3309 C   0  0  0  0  0  0
  -35.0312  -24.8805   19.4349 C   0  0  0  0  0  0
  -31.9247  -23.1802   22.1076 C   0  0  0  0  0  0
  -27.9081  -24.4009   20.7045 C   0  0  0  0  0  0
  -32.5998  -23.9387   20.9340 C   0  0  0  0  0  0
  -28.4971  -25.4079   19.6801 C   0  0  0  0  0  0
  -30.8693  -22.1044   21.7012 C   0  0  2  0  0  0
  -34.2512  -25.7077   20.4768 C   0  0  0  0  0  0
  -30.1218  -15.4457   21.2789 N   0  0  0  0  0  0
  -31.5400  -20.9706   21.0525 N   0  0  0  0  0  0
  -28.9345  -23.6093   21.3932 N   0  0  0  0  0  0
  -29.7324  -22.4769   19.6087 O   0  0  0  0  0  0
  -33.5744  -24.8622   21.4227 O   0  0  0  0  0  0
  -31.4624  -12.3776   19.1391 H   0  0  0  0  0  0
  -30.2859  -11.2917   19.8182 H   0  0  0  0  0  0
  -29.7490  -11.8297   17.4162 H   0  0  0  0  0  0
  -29.6792  -13.5311   17.8044 H   0  0  0  0  0  0
  -27.8112  -11.3393   18.7824 H   0  0  0  0  0  0
  -27.3780  -12.6983   17.7795 H   0  0  0  0  0  0
  -27.7069  -14.2731   19.5922 H   0  0  0  0  0  0
  -28.6669  -11.9697   21.3562 H   0  0  0  0  0  0
  -28.4599  -13.6126   21.8725 H   0  0  0  0  0  0
  -25.2778   -9.5691   22.4725 H   0  0  0  0  0  0
  -24.0014   -7.4642   22.7468 H   0  0  0  0  0  0
  -21.0837   -8.8744   19.8954 H   0  0  0  0  0  0
  -22.3689  -10.9644   19.6130 H   0  0  0  0  0  0
  -21.1993   -7.6150   23.9714 H   0  0  0  0  0  0
  -21.1482   -6.0516   25.9076 H   0  0  0  0  0  0
  -22.0600   -2.7608   23.2814 H   0  0  0  0  0  0
  -22.4056  -11.9865   22.4787 H   0  0  0  0  0  0
  -21.1076  -13.1242   22.2590 H   0  0  0  0  0  0
  -24.6572  -15.8466   20.5293 H   0  0  0  0  0  0
  -26.2817  -15.6398   20.1141 H   0  0  0  0  0  0
  -26.7114  -32.5523   23.1104 H   0  0  0  0  0  0
  -25.0113  -33.9744   25.0480 H   0  0  0  0  0  0
  -22.6852  -31.3064   21.4046 H   0  0  0  0  0  0
  -23.3801  -35.9557   23.3172 H   0  0  0  0  0  0
  -24.3626  -36.9008   22.2062 H   0  0  0  0  0  0
  -23.7137  -37.6427   23.6706 H   0  0  0  0  0  0
  -26.0360  -31.6049   20.5840 H   0  0  0  0  0  0
  -26.8127  -30.8921   21.9710 H   0  0  0  0  0  0
  -28.0864  -29.1183   21.1733 H   0  0  0  0  0  0
  -26.0256  -25.9667   19.0354 H   0  0  0  0  0  0
  -23.9715  -27.2692   19.0679 H   0  0  0  0  0  0
  -23.6807  -30.5725   19.3927 H   0  0  0  0  0  0
  -22.7279  -29.2086   19.8931 H   0  0  0  0  0  0
  -25.1252  -36.1933   25.0821 H   0  0  0  0  0  0
  -20.9884  -28.3205   24.1479 H   0  0  0  0  0  0
  -20.5652  -26.2235   23.3600 H   0  0  0  0  0  0
  -21.6629  -26.7478   22.1238 H   0  0  0  0  0  0
  -19.6916  -25.6294   21.1233 H   0  0  0  0  0  0
  -19.6743  -27.3206   20.6767 H   0  0  0  0  0  0
  -17.4208  -26.6717   21.3945 H   0  0  0  0  0  0
  -18.0261  -26.0081   22.8952 H   0  0  0  0  0  0
  -19.7923  -30.7252   24.2235 H   0  0  0  0  0  0
  -17.5028  -31.6286   24.5160 H   0  0  0  0  0  0
  -15.5332  -30.3017   23.7729 H   0  0  0  0  0  0
  -15.8601  -28.0868   22.7085 H   0  0  0  0  0  0
  -24.5891  -30.7084   25.7803 H   0  0  0  0  0  0
  -24.8920  -32.2932   26.4783 H   0  0  0  0  0  0
  -25.8040  -30.8998   27.0218 H   0  0  0  0  0  0
  -26.2858  -29.6741   24.1095 H   0  0  0  0  0  0
  -27.4026  -29.7218   25.4528 H   0  0  0  0  0  0
  -27.8702  -30.4270   23.9242 H   0  0  0  0  0  0
  -27.2661  -33.3590   26.2019 H   0  0  0  0  0  0
  -28.3847  -32.6851   25.0241 H   0  0  0  0  0  0
  -28.0739  -31.8404   26.5316 H   0  0  0  0  0  0
  -28.2491  -38.0192   24.7720 H   0  0  0  0  0  0
  -28.1268  -36.2746   24.5915 H   0  0  0  0  0  0
  -27.2404  -37.0969   25.8826 H   0  0  0  0  0  0
  -20.9243  -29.8669   21.6915 H   0  0  0  0  0  0
  -26.0155  -38.2850   24.1579 H   0  0  0  0  0  0
  -31.6173  -19.2389   19.0982 H   0  0  0  0  0  0
  -31.0485  -16.8769   19.1593 H   0  0  0  0  0  0
  -30.5030  -19.6340   23.2517 H   0  0  0  0  0  0
  -29.6932  -17.7881   24.4930 H   0  0  0  0  0  0
  -30.3863  -16.2386   24.0182 H   0  0  0  0  0  0
  -28.7412  -16.6578   23.5308 H   0  0  0  0  0  0
  -33.8153  -27.4254   19.1975 H   0  0  0  0  0  0
  -32.6637  -27.2182   20.5053 H   0  0  0  0  0  0
  -32.6064  -26.1723   19.0851 H   0  0  0  0  0  0
  -35.8211  -27.2134   20.7263 H   0  0  0  0  0  0
  -35.9556  -25.8535   21.8316 H   0  0  0  0  0  0
  -34.7348  -27.0863   22.1033 H   0  0  0  0  0  0
  -35.6150  -25.5254   18.7745 H   0  0  0  0  0  0
  -34.3760  -24.3005   18.7862 H   0  0  0  0  0  0
  -35.7285  -24.1886   19.9093 H   0  0  0  0  0  0
  -31.4565  -23.9146   22.7656 H   0  0  0  0  0  0
  -32.6938  -22.7097   22.7231 H   0  0  0  0  0  0
  -27.2167  -23.7221   20.2038 H   0  0  0  0  0  0
  -27.3126  -24.9279   21.4526 H   0  0  0  0  0  0
  -31.8457  -24.4783   20.3643 H   0  0  0  0  0  0
  -33.0673  -23.2192   20.2623 H   0  0  0  0  0  0
  -28.0378  -25.2882   18.6994 H   0  0  0  0  0  0
  -29.5529  -25.2024   19.5065 H   0  0  0  0  0  0
  -30.3792  -21.7629   22.6123 H   0  0  0  0  0  0
  -29.3003  -15.1829   21.7991 H   0  0  0  0  0  0
  -31.8013  -21.2154   20.1019 H   0  0  0  0  0  0
  -29.0219  -23.7470   22.3913 H   0  0  0  0  0  0
  1 25  1  0  0  0
  1 30  2  0  0  0
  1 88  1  0  0  0
  2  3  1  0  0  0
  2 25  1  0  0  0
  2 93  1  0  0  0
  2 94  1  0  0  0
  3  4  1  0  0  0
  3 95  1  0  0  0
  3 96  1  0  0  0
  4  5  1  0  0  0
  4 97  1  0  0  0
  4 98  1  0  0  0
  5  6  1  0  0  0
  5 26  1  0  0  0
  5 99  1  0  0  0
  6 25  1  0  0  0
  6100  1  0  0  0
  6101  1  0  0  0
  7  8  2  0  0  0
  7 26  1  0  0  0
  7 29  1  0  0  0
  8  9  1  0  0  0
  8 22  1  0  0  0
  9 10  1  0  0  0
  9 27  2  0  0  0
 10 11  2  0  0  0
 10 15  1  0  0  0
 11 12  1  0  0  0
 11102  1  0  0  0
 12 13  2  0  0  0
 12103  1  0  0  0
 13 14  1  0  0  0
 13 31  1  0  0  0
 14 15  2  0  0  0
 14104  1  0  0  0
 15105  1  0  0  0
 16 17  2  0  0  0
 16 21  1  0  0  0
 16 31  1  0  0  0
 17 18  1  0  0  0
 17106  1  0  0  0
 18 19  2  0  0  0
 18107  1  0  0  0
 19 20  1  0  0  0
 19 24  1  0  0  0
 20 21  2  0  0  0
 20108  1  0  0  0
 21 23  1  0  0  0
 22 28  1  0  0  0
 22 32  2  0  0  0
 26 27  1  0  0  0
 28109  1  0  0  0
 28110  1  0  0  0
 29111  1  0  0  0
 29112  1  0  0  0
 33 34  1  0  0  0
 33 66  1  0  0  0
 33 70  2  0  0  0
 34 36  1  0  0  0
 34 59  1  0  0  0
 34113  1  0  0  0
 35 44  2  0  0  0
 35 45  1  0  0  0
 35 68  1  0  0  0
 36 56  1  0  0  0
 36114  1  0  0  0
 37 39  1  0  0  0
 37 47  1  0  0  0
 37 66  1  0  0  0
 37115  1  0  0  0
 38 43  2  0  0  0
 38 46  1  0  0  0
 38 47  1  0  0  0
 39 64  1  0  0  0
 39 67  2  0  0  0
 40 52  1  0  0  0
 40 53  2  0  0  0
 40 58  1  0  0  0
 41116  1  0  0  0
 41117  1  0  0  0
 41118  1  0  0  0
 41 48  1  0  0  0
 42 43  1  0  0  0
 42 66  1  0  0  0
 42119  1  0  0  0
 42120  1  0  0  0
 43 44  1  0  0  0
 44121  1  0  0  0
 45 46  2  0  0  0
 45122  1  0  0  0
 46123  1  0  0  0
 47124  1  0  0  0
 47125  1  0  0  0
 48 56  1  0  0  0
 48 65  1  0  0  0
 48126  1  0  0  0
 49 50  1  0  0  0
 49 53  1  0  0  0
 49 64  1  0  0  0
 49127  1  0  0  0
 50 51  1  0  0  0
 50128  1  0  0  0
 50129  1  0  0  0
 51 52  1  0  0  0
 51130  1  0  0  0
 51131  1  0  0  0
 52132  1  0  0  0
 52133  1  0  0  0
 53 54  1  0  0  0
 54 55  2  0  0  0
 54134  1  0  0  0
 55 57  1  0  0  0
 55135  1  0  0  0
 56 69  2  0  0  0
 57 58  2  0  0  0
 57136  1  0  0  0
 58137  1  0  0  0
 59 60  1  0  0  0
 59 61  1  0  0  0
 59 62  1  0  0  0
 60138  1  0  0  0
 60139  1  0  0  0
 60140  1  0  0  0
 61141  1  0  0  0
 61142  1  0  0  0
 61143  1  0  0  0
 62144  1  0  0  0
 62145  1  0  0  0
 62146  1  0  0  0
 63 65  1  0  0  0
 63147  1  0  0  0
 63148  1  0  0  0
 63149  1  0  0  0
 64150  1  0  0  0
 65151  1  0  0  0
 68 85  1  0  0  0
 71 72  2  0  0  0
 71 75  1  0  0  0
 71152  1  0  0  0
 72 76  1  0  0  0
 72153  1  0  0  0
 73 74  1  0  0  0
 73 75  2  0  0  0
 73154  1  0  0  0
 74 76  2  0  0  0
 74 78  1  0  0  0
 75 89  1  0  0  0
 76 88  1  0  0  0
 77 86  1  0  0  0
 77 90  1  0  0  0
 77 91  2  0  0  0
 78155  1  0  0  0
 78156  1  0  0  0
 78157  1  0  0  0
 79158  1  0  0  0
 79159  1  0  0  0
 79160  1  0  0  0
 79 87  1  0  0  0
 80 87  1  0  0  0
 80161  1  0  0  0
 80162  1  0  0  0
 80163  1  0  0  0
 81 87  1  0  0  0
 81164  1  0  0  0
 81165  1  0  0  0
 81166  1  0  0  0
 82 84  1  0  0  0
 82167  1  0  0  0
 82168  1  0  0  0
 82 86  1  0  0  0
 83 85  1  0  0  0
 83 90  1  0  0  0
 83169  1  0  0  0
 83170  1  0  0  0
 84 92  1  0  0  0
 84171  1  0  0  0
 84172  1  0  0  0
 85173  1  0  0  0
 85174  1  0  0  0
 86 89  1  0  0  0
 86175  1  0  0  0
 87 92  1  0  0  0
 88176  1  0  0  0
 89177  1  0  0  0
 90178  1  0  0  0
M  ISO  4   1 100  68 101  85 101  88 100
M  END
> <chiral flag>
0

> <version>
0

> <s_m_source_file>
/data/baiqing/PycharmProjects/Reinvent-master-3.2/result/LINK_invent/BTK/process_docking_weight1_custom_product_contain_oxygen_bond_distance_aromatic_linkinvent_7_9_3/rearranged_h_0001.sdf

> <i_m_source_file_index>
36

> <r_mmod_Potential_Energy-OPLS-2005>
-227.56884765625

> <r_mmod_Stretch_Energy-OPLS-2005>
42.9851531982422

> <r_mmod_Bend_Energy-OPLS-2005>
126.991744995117

> <r_mmod_Torsional_Energy-OPLS-2005>
221.239791870117

> <r_mmod_Improper_Torsional_Energy-OPLS-2005>
6.63408422470093

> <r_mmod_Van_der_Waal_Energy-OPLS-2005>
162.403503417969

> <r_mmod_Electrostatic_Energy-OPLS-2005>
-562.047790527344

> <r_mmod_Solvation_Energy-OPLS-2005>
-237.389053344727

> <b_mmod_Minimization_Converged-OPLS-2005>
0

> <r_mmod_RMS_Derivative-OPLS-2005>
3.77023696899414

$$$$
36
                    3D
 Structure written by MMmdl.
160168  0  0  1  0            999 V2000
  -30.5183  -15.0490   20.4009 C   0  0  0  0  0  0
  -30.4374  -12.6570   19.5030 C   0  0  0  0  0  0
  -29.5223  -12.5401   18.2618 C   0  0  0  0  0  0
  -28.0603  -12.3085   18.6854 C   0  0  0  0  0  0
  -27.6215  -13.2578   19.8301 C   0  0  2  0  0  0
  -28.6637  -13.3404   20.9652 C   0  0  0  0  0  0
  -25.2429  -13.8228   20.5726 C   0  0  0  0  0  0
  -24.1761  -13.0436   20.9245 C   0  0  0  0  0  0
  -24.6394  -11.6928   20.8763 C   0  0  0  0  0  0
  -23.9084  -10.4293   21.0410 C   0  0  0  0  0  0
  -24.3631   -9.4205   21.9186 C   0  0  0  0  0  0
  -23.6300   -8.2242   22.0755 C   0  0  0  0  0  0
  -22.4282   -8.0283   21.3545 C   0  0  0  0  0  0
  -21.9921   -9.0258   20.4645 C   0  0  0  0  0  0
  -22.7256  -10.2135   20.3057 C   0  0  0  0  0  0
  -21.6856   -6.0737   22.5279 C   0  0  0  0  0  0
  -21.4016   -6.5640   23.8212 C   0  0  0  0  0  0
  -21.3659   -5.6793   24.9175 C   0  0  0  0  0  0
  -21.6046   -4.3055   24.7225 C   0  0  0  0  0  0
  -21.8818   -3.8147   23.4346 C   0  0  0  0  0  0
  -21.9193   -4.6964   22.3402 C   0  0  0  0  0  0
  -22.7780  -13.5199   21.1895 C   0  0  0  0  0  0
  -22.1662   -4.2149   21.0980 F   0  0  0  0  0  0
  -21.5628   -3.4538   25.7737 F   0  0  0  0  0  0
  -29.9237  -13.7787   20.3505 N   0  0  0  0  0  0
  -26.2854  -12.9477   20.3233 N   0  0  0  0  0  0
  -25.9327  -11.6598   20.5736 N   0  0  0  0  0  0
  -22.0436  -12.8182   22.0450 N   0  0  0  0  0  0
  -25.4061  -15.1961   20.4146 N   0  0  0  0  0  0
  -31.7340  -15.0655   20.1739 O   0  0  0  0  0  0
  -21.6644   -6.8881   21.4241 O   0  0  0  0  0  0
  -22.3461  -14.5502   20.6739 O   0  0  0  0  0  0
  -24.6503  -31.8371   23.1825 C   0  0  0  0  0  0
  -25.9244  -32.4659   23.8239 C   0  0  1  0  0  0
  -27.2168  -27.0644   20.1608 C   0  0  0  0  0  0
  -25.5965  -33.8468   24.2150 N   0  0  0  0  0  0
  -23.4580  -30.4544   21.5292 C   0  0  2  0  0  0
  -24.9088  -28.8684   20.1105 C   0  0  0  0  0  0
  -22.7603  -29.4511   22.4829 C   0  0  0  0  0  0
  -18.0312  -28.1400   22.8469 C   0  0  0  0  0  0
  -24.1494  -36.7240   23.2643 C   0  0  0  0  0  0
  -26.0192  -30.6872   21.3927 C   0  0  0  0  0  0
  -26.0893  -29.2916   20.7342 C   0  0  0  0  0  0
  -27.2429  -28.4077   20.7392 C   0  0  0  0  0  0
  -26.0086  -26.7616   19.4940 C   0  0  0  0  0  0
  -24.8856  -27.6193   19.4731 C   0  0  0  0  0  0
  -23.6893  -29.7801   20.1507 C   0  0  0  0  0  0
  -25.4130  -36.3011   24.0308 C   0  0  1  0  0  0
  -20.5929  -28.3735   23.1214 C   0  0  2  0  0  0
  -20.6794  -26.9429   22.5400 C   0  0  0  0  0  0
  -19.5768  -26.6379   21.5210 C   0  0  0  0  0  0
  -18.1949  -26.7936   22.1620 C   0  0  0  0  0  0
  -19.1570  -28.8887   23.2833 C   0  0  0  0  0  0
  -18.9485  -30.1479   23.8864 C   0  0  0  0  0  0
  -17.6481  -30.6595   24.0556 C   0  0  0  0  0  0
  -25.9084  -34.9388   23.5042 C   0  0  0  0  0  0
  -16.5371  -29.9085   23.6339 C   0  0  0  0  0  0
  -16.7296  -28.6504   23.0356 C   0  0  0  0  0  0
  -26.4540  -31.6555   25.0712 C   0  0  0  0  0  0
  -25.3701  -31.3763   26.1392 C   0  0  0  0  0  0
  -27.0418  -30.2941   24.6349 C   0  0  0  0  0  0
  -27.6056  -32.4338   25.7504 C   0  0  0  0  0  0
  -27.5575  -37.1777   24.8465 C   0  0  0  0  0  0
  -21.4286  -29.3050   22.3578 N   0  0  0  0  0  0
  -26.4287  -37.3730   23.9404 N   0  0  0  0  0  0
  -24.7295  -31.0160   22.0894 N   0  0  0  0  0  0
  -23.4211  -28.8063   23.3010 O   0  0  0  0  0  0
  -28.2429  -26.0283   20.2360 O   0  0  0  0  0  0
  -26.5679  -34.8899   22.4628 O   0  0  0  0  0  0
  -23.5604  -32.1281   23.7000 O   0  0  0  0  0  0
  -30.9613  -20.6018   20.7094 C   0  0  0  0  0  0
  -31.3998  -18.1664   20.7857 C   0  0  0  0  0  0
  -29.1785  -19.0157   20.3348 C   0  0  0  0  0  0
  -31.8604  -19.5094   20.8740 C   0  0  0  0  0  0
  -29.5816  -20.4683   20.4274 C   0  0  0  0  0  0
  -30.0653  -17.8049   20.5054 C   0  0  0  0  0  0
  -28.9948  -23.2144   20.3693 C   0  0  0  0  0  0
  -33.4942  -19.8652   22.7364 C   0  0  0  0  0  0
  -33.8566  -21.1072   20.5894 C   0  0  0  0  0  0
  -34.2859  -18.6731   20.6796 C   0  0  0  0  0  0
  -27.9185  -24.4795   20.0650 C   0  0  0  0  0  0
  -33.3466  -19.7837   21.2074 C   0  0  0  0  0  0
  -28.7403  -21.7870   20.2529 N   0  0  0  0  0  0
  -29.7430  -16.2713   20.4674 N   0  0  0  0  0  0
  -30.1112  -23.5884   20.7349 O   0  0  0  0  0  0
  -31.4668  -12.8252   19.1835 H   0  0  0  0  0  0
  -30.4513  -11.7220   20.0654 H   0  0  0  0  0  0
  -29.8588  -11.7286   17.6154 H   0  0  0  0  0  0
  -29.5916  -13.4536   17.6695 H   0  0  0  0  0  0
  -27.9758  -11.2727   19.0159 H   0  0  0  0  0  0
  -27.3939  -12.4099   17.8281 H   0  0  0  0  0  0
  -27.5662  -14.2475   19.3757 H   0  0  0  0  0  0
  -28.7777  -12.3809   21.4716 H   0  0  0  0  0  0
  -28.3467  -14.0578   21.7239 H   0  0  0  0  0  0
  -25.2770   -9.5683   22.4767 H   0  0  0  0  0  0
  -24.0006   -7.4635   22.7477 H   0  0  0  0  0  0
  -21.0852   -8.8781   19.8952 H   0  0  0  0  0  0
  -22.3712  -10.9676   19.6170 H   0  0  0  0  0  0
  -21.2010   -7.6148   23.9716 H   0  0  0  0  0  0
  -21.1483   -6.0523   25.9078 H   0  0  0  0  0  0
  -22.0596   -2.7609   23.2846 H   0  0  0  0  0  0
  -22.4063  -11.9847   22.4835 H   0  0  0  0  0  0
  -21.1051  -13.1196   22.2660 H   0  0  0  0  0  0
  -24.6318  -15.8421   20.5249 H   0  0  0  0  0  0
  -26.2405  -15.6398   20.0549 H   0  0  0  0  0  0
  -26.7307  -32.5241   23.0959 H   0  0  0  0  0  0
  -25.0078  -33.9570   25.0276 H   0  0  0  0  0  0
  -22.7643  -31.2825   21.3697 H   0  0  0  0  0  0
  -23.3764  -35.9564   23.3289 H   0  0  0  0  0  0
  -24.3574  -36.8896   22.2061 H   0  0  0  0  0  0
  -23.7246  -37.6424   23.6702 H   0  0  0  0  0  0
  -26.1842  -31.4378   20.6185 H   0  0  0  0  0  0
  -26.8852  -30.7388   22.0407 H   0  0  0  0  0  0
  -28.1396  -28.7268   21.2519 H   0  0  0  0  0  0
  -25.8941  -25.8080   19.0015 H   0  0  0  0  0  0
  -23.9857  -27.2901   18.9716 H   0  0  0  0  0  0
  -23.8340  -30.5532   19.3954 H   0  0  0  0  0  0
  -22.8021  -29.2276   19.8368 H   0  0  0  0  0  0
  -25.1323  -36.1827   25.0800 H   0  0  0  0  0  0
  -21.0017  -28.3336   24.1338 H   0  0  0  0  0  0
  -20.5683  -26.2351   23.3628 H   0  0  0  0  0  0
  -21.6659  -26.7426   22.1201 H   0  0  0  0  0  0
  -19.6930  -25.6280   21.1264 H   0  0  0  0  0  0
  -19.6709  -27.3168   20.6723 H   0  0  0  0  0  0
  -17.4216  -26.6676   21.4026 H   0  0  0  0  0  0
  -18.0351  -26.0088   22.9027 H   0  0  0  0  0  0
  -19.7962  -30.7300   24.2220 H   0  0  0  0  0  0
  -17.5036  -31.6272   24.5163 H   0  0  0  0  0  0
  -15.5370  -30.2976   23.7684 H   0  0  0  0  0  0
  -15.8696  -28.0813   22.7090 H   0  0  0  0  0  0
  -24.5896  -30.7099   25.7703 H   0  0  0  0  0  0
  -24.8874  -32.2949   26.4737 H   0  0  0  0  0  0
  -25.7964  -30.8986   27.0222 H   0  0  0  0  0  0
  -26.3055  -29.6642   24.1345 H   0  0  0  0  0  0
  -27.3988  -29.7270   25.4956 H   0  0  0  0  0  0
  -27.8982  -30.4155   23.9713 H   0  0  0  0  0  0
  -27.2644  -33.3672   26.1993 H   0  0  0  0  0  0
  -28.3913  -32.6843   25.0363 H   0  0  0  0  0  0
  -28.0673  -31.8521   26.5492 H   0  0  0  0  0  0
  -28.2579  -38.0086   24.7511 H   0  0  0  0  0  0
  -28.1086  -36.2613   24.6297 H   0  0  0  0  0  0
  -27.2289  -37.1425   25.8866 H   0  0  0  0  0  0
  -20.9511  -29.8760   21.6744 H   0  0  0  0  0  0
  -26.0149  -38.2794   24.1411 H   0  0  0  0  0  0
  -31.3550  -21.5952   20.8127 H   0  0  0  0  0  0
  -32.0985  -17.3681   20.9644 H   0  0  0  0  0  0
  -28.1368  -18.8210   20.1243 H   0  0  0  0  0  0
  -32.8807  -20.6648   23.1534 H   0  0  0  0  0  0
  -34.5268  -20.0573   23.0300 H   0  0  0  0  0  0
  -33.1856  -18.9352   23.2155 H   0  0  0  0  0  0
  -33.4011  -21.9892   21.0386 H   0  0  0  0  0  0
  -33.6742  -21.1408   19.5146 H   0  0  0  0  0  0
  -34.9306  -21.2265   20.7375 H   0  0  0  0  0  0
  -34.1535  -17.7232   21.1964 H   0  0  0  0  0  0
  -35.3340  -18.9381   20.8234 H   0  0  0  0  0  0
  -34.1407  -18.5016   19.6124 H   0  0  0  0  0  0
  -27.0366  -24.2729   20.6716 H   0  0  0  0  0  0
  -27.6029  -24.3383   19.0313 H   0  0  0  0  0  0
  -27.7816  -21.6120   19.9813 H   0  0  0  0  0  0
  -28.7546  -16.0729   20.4974 H   0  0  0  0  0  0
  1 25  1  0  0  0
  1 30  2  0  0  0
  1 84  1  0  0  0
  2  3  1  0  0  0
  2 25  1  0  0  0
  2 86  1  0  0  0
  2 87  1  0  0  0
  3  4  1  0  0  0
  3 88  1  0  0  0
  3 89  1  0  0  0
  4  5  1  0  0  0
  4 90  1  0  0  0
  4 91  1  0  0  0
  5  6  1  0  0  0
  5 26  1  0  0  0
  5 92  1  0  0  0
  6 25  1  0  0  0
  6 93  1  0  0  0
  6 94  1  0  0  0
  7  8  2  0  0  0
  7 26  1  0  0  0
  7 29  1  0  0  0
  8  9  1  0  0  0
  8 22  1  0  0  0
  9 10  1  0  0  0
  9 27  2  0  0  0
 10 11  2  0  0  0
 10 15  1  0  0  0
 11 12  1  0  0  0
 11 95  1  0  0  0
 12 13  2  0  0  0
 12 96  1  0  0  0
 13 14  1  0  0  0
 13 31  1  0  0  0
 14 15  2  0  0  0
 14 97  1  0  0  0
 15 98  1  0  0  0
 16 17  2  0  0  0
 16 21  1  0  0  0
 16 31  1  0  0  0
 17 18  1  0  0  0
 17 99  1  0  0  0
 18 19  2  0  0  0
 18100  1  0  0  0
 19 20  1  0  0  0
 19 24  1  0  0  0
 20 21  2  0  0  0
 20101  1  0  0  0
 21 23  1  0  0  0
 22 28  1  0  0  0
 22 32  2  0  0  0
 26 27  1  0  0  0
 28102  1  0  0  0
 28103  1  0  0  0
 29104  1  0  0  0
 29105  1  0  0  0
 33 34  1  0  0  0
 33 66  1  0  0  0
 33 70  2  0  0  0
 34 36  1  0  0  0
 34 59  1  0  0  0
 34106  1  0  0  0
 35 44  2  0  0  0
 35 45  1  0  0  0
 35 68  1  0  0  0
 36 56  1  0  0  0
 36107  1  0  0  0
 37 39  1  0  0  0
 37 47  1  0  0  0
 37 66  1  0  0  0
 37108  1  0  0  0
 38 43  2  0  0  0
 38 46  1  0  0  0
 38 47  1  0  0  0
 39 64  1  0  0  0
 39 67  2  0  0  0
 40 52  1  0  0  0
 40 53  2  0  0  0
 40 58  1  0  0  0
 41109  1  0  0  0
 41110  1  0  0  0
 41111  1  0  0  0
 41 48  1  0  0  0
 42 43  1  0  0  0
 42 66  1  0  0  0
 42112  1  0  0  0
 42113  1  0  0  0
 43 44  1  0  0  0
 44114  1  0  0  0
 45 46  2  0  0  0
 45115  1  0  0  0
 46116  1  0  0  0
 47117  1  0  0  0
 47118  1  0  0  0
 48 56  1  0  0  0
 48 65  1  0  0  0
 48119  1  0  0  0
 49 50  1  0  0  0
 49 53  1  0  0  0
 49 64  1  0  0  0
 49120  1  0  0  0
 50 51  1  0  0  0
 50121  1  0  0  0
 50122  1  0  0  0
 51 52  1  0  0  0
 51123  1  0  0  0
 51124  1  0  0  0
 52125  1  0  0  0
 52126  1  0  0  0
 53 54  1  0  0  0
 54 55  2  0  0  0
 54127  1  0  0  0
 55 57  1  0  0  0
 55128  1  0  0  0
 56 69  2  0  0  0
 57 58  2  0  0  0
 57129  1  0  0  0
 58130  1  0  0  0
 59 60  1  0  0  0
 59 61  1  0  0  0
 59 62  1  0  0  0
 60131  1  0  0  0
 60132  1  0  0  0
 60133  1  0  0  0
 61134  1  0  0  0
 61135  1  0  0  0
 61136  1  0  0  0
 62137  1  0  0  0
 62138  1  0  0  0
 62139  1  0  0  0
 63 65  1  0  0  0
 63140  1  0  0  0
 63141  1  0  0  0
 63142  1  0  0  0
 64143  1  0  0  0
 65144  1  0  0  0
 68 81  1  0  0  0
 71 74  2  0  0  0
 71 75  1  0  0  0
 71145  1  0  0  0
 72 74  1  0  0  0
 72 76  2  0  0  0
 72146  1  0  0  0
 73 75  2  0  0  0
 73 76  1  0  0  0
 73147  1  0  0  0
 74 82  1  0  0  0
 75 83  1  0  0  0
 76 84  1  0  0  0
 77 81  1  0  0  0
 77 83  1  0  0  0
 77 85  2  0  0  0
 78148  1  0  0  0
 78149  1  0  0  0
 78150  1  0  0  0
 78 82  1  0  0  0
 79 82  1  0  0  0
 79151  1  0  0  0
 79152  1  0  0  0
 79153  1  0  0  0
 80 82  1  0  0  0
 80154  1  0  0  0
 80155  1  0  0  0
 80156  1  0  0  0
 81157  1  0  0  0
 81158  1  0  0  0
 83159  1  0  0  0
 84160  1  0  0  0
M  ISO  4   1 100  68 101  81 101  84 100
M  END
> <chiral flag>
0

> <version>
0

> <s_m_source_file>
/data/baiqing/PycharmProjects/Reinvent-master-3.2/result/LINK_invent/BTK/process_docking_weight1_custom_product_contain_oxygen_bond_distance_aromatic_linkinvent_7_9_3/rearranged_h_0001.sdf

> <i_m_source_file_index>
37

> <r_mmod_Potential_Energy-OPLS-2005>
635.685729980469

> <r_mmod_Stretch_Energy-OPLS-2005>
349.831176757812

> <r_mmod_Bend_Energy-OPLS-2005>
279.562347412109

> <r_mmod_Torsional_Energy-OPLS-2005>
221.950408935547

> <r_mmod_Improper_Torsional_Energy-OPLS-2005>
5.23144388198853

> <r_mmod_Van_der_Waal_Energy-OPLS-2005>
145.247650146484

> <r_mmod_Electrostatic_Energy-OPLS-2005>
-394.645874023438

> <r_mmod_Solvation_Energy-OPLS-2005>
-238.964767456055

> <b_mmod_Minimization_Converged-OPLS-2005>
0

> <r_mmod_RMS_Derivative-OPLS-2005>
0.356183469295502

$$$$
37
                    3D
 Structure written by MMmdl.
160168  0  0  1  0            999 V2000
  -30.5077  -14.9146   20.4401 C   0  0  0  0  0  0
  -30.4544  -12.5634   19.4924 C   0  0  0  0  0  0
  -29.5266  -12.5349   18.2534 C   0  0  0  0  0  0
  -28.0569  -12.3227   18.6675 C   0  0  0  0  0  0
  -27.6397  -13.2370   19.8486 C   0  0  2  0  0  0
  -28.6827  -13.2104   20.9871 C   0  0  0  0  0  0
  -25.2511  -13.8195   20.5705 C   0  0  0  0  0  0
  -24.1807  -13.0437   20.9218 C   0  0  0  0  0  0
  -24.6402  -11.6917   20.8743 C   0  0  0  0  0  0
  -23.9076  -10.4293   21.0403 C   0  0  0  0  0  0
  -24.3622   -9.4206   21.9184 C   0  0  0  0  0  0
  -23.6293   -8.2244   22.0754 C   0  0  0  0  0  0
  -22.4274   -8.0283   21.3548 C   0  0  0  0  0  0
  -21.9914   -9.0258   20.4651 C   0  0  0  0  0  0
  -22.7244  -10.2137   20.3057 C   0  0  0  0  0  0
  -21.6856   -6.0737   22.5280 C   0  0  0  0  0  0
  -21.4018   -6.5640   23.8214 C   0  0  0  0  0  0
  -21.3657   -5.6791   24.9174 C   0  0  0  0  0  0
  -21.6041   -4.3054   24.7224 C   0  0  0  0  0  0
  -21.8818   -3.8149   23.4346 C   0  0  0  0  0  0
  -21.9195   -4.6965   22.3403 C   0  0  0  0  0  0
  -22.7829  -13.5224   21.1867 C   0  0  0  0  0  0
  -22.1661   -4.2150   21.0981 F   0  0  0  0  0  0
  -21.5625   -3.4537   25.7737 F   0  0  0  0  0  0
  -29.9677  -13.6316   20.4083 N   0  0  0  0  0  0
  -26.2934  -12.9406   20.3261 N   0  0  0  0  0  0
  -25.9335  -11.6545   20.5727 N   0  0  0  0  0  0
  -22.0471  -12.8219   22.0423 N   0  0  0  0  0  0
  -25.4194  -15.1921   20.4116 N   0  0  0  0  0  0
  -31.6886  -15.0590   20.1028 O   0  0  0  0  0  0
  -21.6638   -6.8881   21.4242 O   0  0  0  0  0  0
  -22.3515  -14.5526   20.6705 O   0  0  0  0  0  0
  -24.6426  -31.8455   23.1879 C   0  0  0  0  0  0
  -25.9205  -32.4699   23.8265 C   0  0  1  0  0  0
  -27.2190  -27.1462   20.1465 C   0  0  0  0  0  0
  -25.5964  -33.8506   24.2196 N   0  0  0  0  0  0
  -23.4454  -30.4647   21.5326 C   0  0  2  0  0  0
  -24.8945  -28.8933   20.1098 C   0  0  0  0  0  0
  -22.7567  -29.4552   22.4849 C   0  0  0  0  0  0
  -18.0311  -28.1392   22.8477 C   0  0  0  0  0  0
  -24.1492  -36.7253   23.2636 C   0  0  0  0  0  0
  -26.0002  -30.7224   21.3841 C   0  0  0  0  0  0
  -26.0720  -29.3337   20.7266 C   0  0  0  0  0  0
  -27.2357  -28.4770   20.7276 C   0  0  0  0  0  0
  -26.0123  -26.8050   19.4936 C   0  0  0  0  0  0
  -24.8772  -27.6418   19.4781 C   0  0  0  0  0  0
  -23.6710  -29.7944   20.1517 C   0  0  0  0  0  0
  -25.4124  -36.3039   24.0315 C   0  0  1  0  0  0
  -20.5922  -28.3723   23.1231 C   0  0  2  0  0  0
  -20.6794  -26.9427   22.5398 C   0  0  0  0  0  0
  -19.5764  -26.6387   21.5207 C   0  0  0  0  0  0
  -18.1950  -26.7928   22.1625 C   0  0  0  0  0  0
  -19.1567  -28.8874   23.2845 C   0  0  0  0  0  0
  -18.9482  -30.1469   23.8872 C   0  0  0  0  0  0
  -17.6481  -30.6591   24.0557 C   0  0  0  0  0  0
  -25.9074  -34.9414   23.5063 C   0  0  0  0  0  0
  -16.5373  -29.9085   23.6330 C   0  0  0  0  0  0
  -16.7296  -28.6500   23.0356 C   0  0  0  0  0  0
  -26.4525  -31.6558   25.0701 C   0  0  0  0  0  0
  -25.3721  -31.3771   26.1414 C   0  0  0  0  0  0
  -27.0352  -30.2944   24.6267 C   0  0  0  0  0  0
  -27.6068  -32.4302   25.7483 C   0  0  0  0  0  0
  -27.5577  -37.1786   24.8463 C   0  0  0  0  0  0
  -21.4258  -29.3055   22.3603 N   0  0  0  0  0  0
  -26.4286  -37.3756   23.9408 N   0  0  0  0  0  0
  -24.7159  -31.0322   22.0901 N   0  0  0  0  0  0
  -23.4222  -28.8100   23.2990 O   0  0  0  0  0  0
  -28.2753  -26.1656   20.2146 O   0  0  0  0  0  0
  -26.5654  -34.8913   22.4641 O   0  0  0  0  0  0
  -23.5548  -32.1322   23.7110 O   0  0  0  0  0  0
  -30.3719  -18.5051   20.0100 C   0  0  0  0  0  0
  -30.0467  -19.9321   19.9394 C   0  0  0  0  0  0
  -28.3668  -18.1412   21.1834 C   0  0  0  0  0  0
  -28.0169  -19.5544   21.1389 C   0  0  0  0  0  0
  -29.5260  -17.5181   20.6254 C   0  0  0  0  0  0
  -28.8489  -20.5352   20.4722 C   0  0  0  0  0  0
  -25.9953  -18.8984   22.6398 C   0  0  0  0  0  0
  -25.6695  -20.4599   20.7477 C   0  0  0  0  0  0
  -26.9418  -21.1592   22.8235 C   0  0  0  0  0  0
  -27.9775  -24.6456   20.0678 C   0  0  0  0  0  0
  -28.9584  -23.2937   20.3124 C   0  0  0  0  0  0
  -26.6897  -20.0118   21.8161 C   0  0  0  0  0  0
  -29.6338  -15.9909   20.7227 N   0  0  0  0  0  0
  -28.3396  -21.8938   20.2637 O   0  0  0  0  0  0
  -31.4856  -12.7380   19.1809 H   0  0  0  0  0  0
  -30.4546  -11.5961   19.9978 H   0  0  0  0  0  0
  -29.8383  -11.7496   17.5635 H   0  0  0  0  0  0
  -29.6192  -13.4760   17.7087 H   0  0  0  0  0  0
  -27.9444  -11.2772   18.9568 H   0  0  0  0  0  0
  -27.3958  -12.4762   17.8141 H   0  0  0  0  0  0
  -27.6188  -14.2494   19.4450 H   0  0  0  0  0  0
  -28.7596  -12.2118   21.4206 H   0  0  0  0  0  0
  -28.3828  -13.8706   21.8022 H   0  0  0  0  0  0
  -25.2767   -9.5678   22.4759 H   0  0  0  0  0  0
  -23.9999   -7.4634   22.7475 H   0  0  0  0  0  0
  -21.0846   -8.8782   19.8958 H   0  0  0  0  0  0
  -22.3705  -10.9675   19.6164 H   0  0  0  0  0  0
  -21.2015   -7.6147   23.9715 H   0  0  0  0  0  0
  -21.1476   -6.0523   25.9076 H   0  0  0  0  0  0
  -22.0599   -2.7612   23.2847 H   0  0  0  0  0  0
  -22.4079  -11.9878   22.4813 H   0  0  0  0  0  0
  -21.1089  -13.1246   22.2617 H   0  0  0  0  0  0
  -24.6422  -15.8359   20.5089 H   0  0  0  0  0  0
  -26.2478  -15.6290   20.0308 H   0  0  0  0  0  0
  -26.7269  -32.5305   23.0987 H   0  0  0  0  0  0
  -25.0111  -33.9620   25.0346 H   0  0  0  0  0  0
  -22.7467  -31.2902   21.3791 H   0  0  0  0  0  0
  -23.3765  -35.9571   23.3278 H   0  0  0  0  0  0
  -24.3579  -36.8907   22.2056 H   0  0  0  0  0  0
  -23.7235  -37.6441   23.6674 H   0  0  0  0  0  0
  -26.1541  -31.4765   20.6115 H   0  0  0  0  0  0
  -26.8720  -30.7730   22.0246 H   0  0  0  0  0  0
  -28.1323  -28.8084   21.2320 H   0  0  0  0  0  0
  -25.9061  -25.8500   19.0030 H   0  0  0  0  0  0
  -23.9786  -27.2989   18.9838 H   0  0  0  0  0  0
  -23.8085  -30.5683   19.3955 H   0  0  0  0  0  0
  -22.7854  -29.2377   19.8396 H   0  0  0  0  0  0
  -25.1314  -36.1862   25.0805 H   0  0  0  0  0  0
  -21.0021  -28.3316   24.1348 H   0  0  0  0  0  0
  -20.5692  -26.2340   23.3622 H   0  0  0  0  0  0
  -21.6660  -26.7436   22.1192 H   0  0  0  0  0  0
  -19.6926  -25.6295   21.1247 H   0  0  0  0  0  0
  -19.6689  -27.3186   20.6727 H   0  0  0  0  0  0
  -17.4215  -26.6664   21.4036 H   0  0  0  0  0  0
  -18.0356  -26.0083   22.9038 H   0  0  0  0  0  0
  -19.7959  -30.7285   24.2236 H   0  0  0  0  0  0
  -17.5036  -31.6265   24.5167 H   0  0  0  0  0  0
  -15.5371  -30.2982   23.7660 H   0  0  0  0  0  0
  -15.8695  -28.0809   22.7090 H   0  0  0  0  0  0
  -24.5850  -30.7181   25.7731 H   0  0  0  0  0  0
  -24.8980  -32.2976   26.4829 H   0  0  0  0  0  0
  -25.8013  -30.8924   27.0194 H   0  0  0  0  0  0
  -26.2941  -29.6693   24.1274 H   0  0  0  0  0  0
  -27.3953  -29.7226   25.4827 H   0  0  0  0  0  0
  -27.8868  -30.4159   23.9572 H   0  0  0  0  0  0
  -27.2685  -33.3644   26.1974 H   0  0  0  0  0  0
  -28.3930  -32.6789   25.0341 H   0  0  0  0  0  0
  -28.0661  -31.8469   26.5474 H   0  0  0  0  0  0
  -28.2585  -38.0090   24.7518 H   0  0  0  0  0  0
  -28.1086  -36.2625   24.6280 H   0  0  0  0  0  0
  -27.2294  -37.1427   25.8865 H   0  0  0  0  0  0
  -20.9467  -29.8785   21.6799 H   0  0  0  0  0  0
  -26.0153  -38.2822   24.1422 H   0  0  0  0  0  0
  -31.2858  -18.1712   19.5382 H   0  0  0  0  0  0
  -30.7299  -20.5715   19.3993 H   0  0  0  0  0  0
  -27.6970  -17.4498   21.6658 H   0  0  0  0  0  0
  -25.6601  -18.0685   22.0165 H   0  0  0  0  0  0
  -25.1039  -19.2737   23.1441 H   0  0  0  0  0  0
  -26.6490  -18.5024   23.4185 H   0  0  0  0  0  0
  -25.4666  -19.6575   20.0377 H   0  0  0  0  0  0
  -26.0044  -21.3211   20.1730 H   0  0  0  0  0  0
  -24.7179  -20.7407   21.2009 H   0  0  0  0  0  0
  -27.6732  -20.8676   23.5778 H   0  0  0  0  0  0
  -26.0264  -21.4322   23.3496 H   0  0  0  0  0  0
  -27.2998  -22.0765   22.3645 H   0  0  0  0  0  0
  -27.1091  -24.4760   20.7058 H   0  0  0  0  0  0
  -27.6105  -24.5213   19.0496 H   0  0  0  0  0  0
  -29.4247  -23.3907   21.2927 H   0  0  0  0  0  0
  -29.7760  -23.3189   19.5920 H   0  0  0  0  0  0
  -28.7699  -15.5917   21.0555 H   0  0  0  0  0  0
  1 25  1  0  0  0
  1 30  2  0  0  0
  1 83  1  0  0  0
  2  3  1  0  0  0
  2 25  1  0  0  0
  2 85  1  0  0  0
  2 86  1  0  0  0
  3  4  1  0  0  0
  3 87  1  0  0  0
  3 88  1  0  0  0
  4  5  1  0  0  0
  4 89  1  0  0  0
  4 90  1  0  0  0
  5  6  1  0  0  0
  5 26  1  0  0  0
  5 91  1  0  0  0
  6 25  1  0  0  0
  6 92  1  0  0  0
  6 93  1  0  0  0
  7  8  2  0  0  0
  7 26  1  0  0  0
  7 29  1  0  0  0
  8  9  1  0  0  0
  8 22  1  0  0  0
  9 10  1  0  0  0
  9 27  2  0  0  0
 10 11  2  0  0  0
 10 15  1  0  0  0
 11 12  1  0  0  0
 11 94  1  0  0  0
 12 13  2  0  0  0
 12 95  1  0  0  0
 13 14  1  0  0  0
 13 31  1  0  0  0
 14 15  2  0  0  0
 14 96  1  0  0  0
 15 97  1  0  0  0
 16 17  2  0  0  0
 16 21  1  0  0  0
 16 31  1  0  0  0
 17 18  1  0  0  0
 17 98  1  0  0  0
 18 19  2  0  0  0
 18 99  1  0  0  0
 19 20  1  0  0  0
 19 24  1  0  0  0
 20 21  2  0  0  0
 20100  1  0  0  0
 21 23  1  0  0  0
 22 28  1  0  0  0
 22 32  2  0  0  0
 26 27  1  0  0  0
 28101  1  0  0  0
 28102  1  0  0  0
 29103  1  0  0  0
 29104  1  0  0  0
 33 34  1  0  0  0
 33 66  1  0  0  0
 33 70  2  0  0  0
 34 36  1  0  0  0
 34 59  1  0  0  0
 34105  1  0  0  0
 35 44  2  0  0  0
 35 45  1  0  0  0
 35 68  1  0  0  0
 36 56  1  0  0  0
 36106  1  0  0  0
 37 39  1  0  0  0
 37 47  1  0  0  0
 37 66  1  0  0  0
 37107  1  0  0  0
 38 43  2  0  0  0
 38 46  1  0  0  0
 38 47  1  0  0  0
 39 64  1  0  0  0
 39 67  2  0  0  0
 40 52  1  0  0  0
 40 53  2  0  0  0
 40 58  1  0  0  0
 41108  1  0  0  0
 41109  1  0  0  0
 41110  1  0  0  0
 41 48  1  0  0  0
 42 43  1  0  0  0
 42 66  1  0  0  0
 42111  1  0  0  0
 42112  1  0  0  0
 43 44  1  0  0  0
 44113  1  0  0  0
 45 46  2  0  0  0
 45114  1  0  0  0
 46115  1  0  0  0
 47116  1  0  0  0
 47117  1  0  0  0
 48 56  1  0  0  0
 48 65  1  0  0  0
 48118  1  0  0  0
 49 50  1  0  0  0
 49 53  1  0  0  0
 49 64  1  0  0  0
 49119  1  0  0  0
 50 51  1  0  0  0
 50120  1  0  0  0
 50121  1  0  0  0
 51 52  1  0  0  0
 51122  1  0  0  0
 51123  1  0  0  0
 52124  1  0  0  0
 52125  1  0  0  0
 53 54  1  0  0  0
 54 55  2  0  0  0
 54126  1  0  0  0
 55 57  1  0  0  0
 55127  1  0  0  0
 56 69  2  0  0  0
 57 58  2  0  0  0
 57128  1  0  0  0
 58129  1  0  0  0
 59 60  1  0  0  0
 59 61  1  0  0  0
 59 62  1  0  0  0
 60130  1  0  0  0
 60131  1  0  0  0
 60132  1  0  0  0
 61133  1  0  0  0
 61134  1  0  0  0
 61135  1  0  0  0
 62136  1  0  0  0
 62137  1  0  0  0
 62138  1  0  0  0
 63 65  1  0  0  0
 63139  1  0  0  0
 63140  1  0  0  0
 63141  1  0  0  0
 64142  1  0  0  0
 65143  1  0  0  0
 68 80  1  0  0  0
 71 72  2  0  0  0
 71 75  1  0  0  0
 71144  1  0  0  0
 72 76  1  0  0  0
 72145  1  0  0  0
 73 74  1  0  0  0
 73 75  2  0  0  0
 73146  1  0  0  0
 74 76  2  0  0  0
 74 82  1  0  0  0
 75 83  1  0  0  0
 76 84  1  0  0  0
 77147  1  0  0  0
 77148  1  0  0  0
 77149  1  0  0  0
 77 82  1  0  0  0
 78 82  1  0  0  0
 78150  1  0  0  0
 78151  1  0  0  0
 78152  1  0  0  0
 79 82  1  0  0  0
 79153  1  0  0  0
 79154  1  0  0  0
 79155  1  0  0  0
 80 81  1  0  0  0
 80156  1  0  0  0
 80157  1  0  0  0
 81 84  1  0  0  0
 81158  1  0  0  0
 81159  1  0  0  0
 83160  1  0  0  0
M  ISO  4   1 100  68 101  80 101  83 100
M  END
> <chiral flag>
0

> <version>
0

> <s_m_source_file>
/data/baiqing/PycharmProjects/Reinvent-master-3.2/result/LINK_invent/BTK/process_docking_weight1_custom_product_contain_oxygen_bond_distance_aromatic_linkinvent_7_9_3/rearranged_h_0001.sdf

> <i_m_source_file_index>
38

> <r_mmod_Potential_Energy-OPLS-2005>
484.042633056641

> <r_mmod_Stretch_Energy-OPLS-2005>
227.078201293945

> <r_mmod_Bend_Energy-OPLS-2005>
300.873779296875

> <r_mmod_Torsional_Energy-OPLS-2005>
228.994125366211

> <r_mmod_Improper_Torsional_Energy-OPLS-2005>
4.46333265304565

> <r_mmod_Van_der_Waal_Energy-OPLS-2005>
142.062026977539

> <r_mmod_Electrostatic_Energy-OPLS-2005>
-393.816467285156

> <r_mmod_Solvation_Energy-OPLS-2005>
-202.53076171875

> <b_mmod_Minimization_Converged-OPLS-2005>
0

> <r_mmod_RMS_Derivative-OPLS-2005>
1.05013585090637

$$$$
38
                    3D
 Structure written by MMmdl.
151159  0  0  1  0            999 V2000
  -30.5078  -14.9131   20.4339 C   0  0  0  0  0  0
  -30.4552  -12.5618   19.4913 C   0  0  0  0  0  0
  -29.5273  -12.5323   18.2525 C   0  0  0  0  0  0
  -28.0571  -12.3199   18.6658 C   0  0  0  0  0  0
  -27.6387  -13.2348   19.8454 C   0  0  2  0  0  0
  -28.6824  -13.2139   20.9837 C   0  0  0  0  0  0
  -25.2507  -13.8181   20.5683 C   0  0  0  0  0  0
  -24.1809  -13.0434   20.9230 C   0  0  0  0  0  0
  -24.6402  -11.6912   20.8754 C   0  0  0  0  0  0
  -23.9074  -10.4292   21.0414 C   0  0  0  0  0  0
  -24.3620   -9.4204   21.9188 C   0  0  0  0  0  0
  -23.6290   -8.2245   22.0761 C   0  0  0  0  0  0
  -22.4272   -8.0285   21.3549 C   0  0  0  0  0  0
  -21.9909   -9.0262   20.4654 C   0  0  0  0  0  0
  -22.7246  -10.2137   20.3061 C   0  0  0  0  0  0
  -21.6855   -6.0735   22.5276 C   0  0  0  0  0  0
  -21.4019   -6.5640   23.8210 C   0  0  0  0  0  0
  -21.3658   -5.6793   24.9171 C   0  0  0  0  0  0
  -21.6042   -4.3055   24.7223 C   0  0  0  0  0  0
  -21.8820   -3.8146   23.4343 C   0  0  0  0  0  0
  -21.9192   -4.6963   22.3400 C   0  0  0  0  0  0
  -22.7831  -13.5224   21.1873 C   0  0  0  0  0  0
  -22.1661   -4.2149   21.0977 F   0  0  0  0  0  0
  -21.5621   -3.4539   25.7735 F   0  0  0  0  0  0
  -29.9677  -13.6315   20.4027 N   0  0  0  0  0  0
  -26.2922  -12.9386   20.3233 N   0  0  0  0  0  0
  -25.9328  -11.6533   20.5728 N   0  0  0  0  0  0
  -22.0467  -12.8223   22.0427 N   0  0  0  0  0  0
  -25.4194  -15.1896   20.4038 N   0  0  0  0  0  0
  -31.6961  -15.0571   20.1230 O   0  0  0  0  0  0
  -21.6641   -6.8880   21.4241 O   0  0  0  0  0  0
  -22.3523  -14.5527   20.6705 O   0  0  0  0  0  0
  -24.6429  -31.8450   23.1898 C   0  0  0  0  0  0
  -25.9205  -32.4698   23.8283 C   0  0  1  0  0  0
  -27.2221  -27.1513   20.1444 C   0  0  0  0  0  0
  -25.5957  -33.8505   24.2199 N   0  0  0  0  0  0
  -23.4456  -30.4657   21.5349 C   0  0  2  0  0  0
  -24.8953  -28.8950   20.1105 C   0  0  0  0  0  0
  -22.7559  -29.4558   22.4861 C   0  0  0  0  0  0
  -18.0306  -28.1394   22.8471 C   0  0  0  0  0  0
  -24.1494  -36.7263   23.2641 C   0  0  0  0  0  0
  -26.0010  -30.7230   21.3866 C   0  0  0  0  0  0
  -26.0729  -29.3360   20.7274 C   0  0  0  0  0  0
  -27.2368  -28.4805   20.7276 C   0  0  0  0  0  0
  -26.0159  -26.8094   19.4914 C   0  0  0  0  0  0
  -24.8790  -27.6441   19.4780 C   0  0  0  0  0  0
  -23.6713  -29.7958   20.1540 C   0  0  0  0  0  0
  -25.4124  -36.3035   24.0314 C   0  0  1  0  0  0
  -20.5917  -28.3725   23.1230 C   0  0  2  0  0  0
  -20.6795  -26.9430   22.5397 C   0  0  0  0  0  0
  -19.5771  -26.6382   21.5206 C   0  0  0  0  0  0
  -18.1951  -26.7933   22.1617 C   0  0  0  0  0  0
  -19.1561  -28.8877   23.2845 C   0  0  0  0  0  0
  -18.9479  -30.1471   23.8875 C   0  0  0  0  0  0
  -17.6477  -30.6590   24.0561 C   0  0  0  0  0  0
  -25.9074  -34.9408   23.5066 C   0  0  0  0  0  0
  -16.5369  -29.9085   23.6332 C   0  0  0  0  0  0
  -16.7291  -28.6502   23.0353 C   0  0  0  0  0  0
  -26.4528  -31.6563   25.0723 C   0  0  0  0  0  0
  -25.3713  -31.3747   26.1418 C   0  0  0  0  0  0
  -27.0392  -30.2962   24.6297 C   0  0  0  0  0  0
  -27.6059  -32.4323   25.7508 C   0  0  0  0  0  0
  -27.5573  -37.1791   24.8462 C   0  0  0  0  0  0
  -21.4253  -29.3053   22.3603 N   0  0  0  0  0  0
  -26.4288  -37.3746   23.9401 N   0  0  0  0  0  0
  -24.7163  -31.0317   22.0925 N   0  0  0  0  0  0
  -23.4204  -28.8103   23.3009 O   0  0  0  0  0  0
  -28.2810  -26.1748   20.2125 O   0  0  0  0  0  0
  -26.5659  -34.8902   22.4643 O   0  0  0  0  0  0
  -23.5552  -32.1318   23.7129 O   0  0  0  0  0  0
  -30.4839  -18.5510   20.3465 C   0  0  0  0  0  0
  -30.1706  -19.9849   20.2782 C   0  0  0  0  0  0
  -28.1957  -18.0853   20.6379 C   0  0  0  0  0  0
  -27.8684  -19.4934   20.5585 C   0  0  0  0  0  0
  -29.4993  -17.5121   20.5295 C   0  0  0  0  0  0
  -28.8394  -20.5383   20.3720 C   0  0  0  0  0  0
  -27.9882  -24.6566   20.0545 C   0  0  0  0  0  0
  -28.9684  -23.3083   20.3076 C   0  0  0  0  0  0
  -26.3963  -19.8953   20.6798 C   0  0  0  0  0  0
  -29.6156  -15.9878   20.6540 N   0  0  0  0  0  0
  -28.3411  -21.9143   20.2612 O   0  0  0  0  0  0
  -25.5955  -18.8521   20.9066 F   0  0  0  0  0  0
  -26.2327  -20.7506   21.6903 F   0  0  0  0  0  0
  -25.9875  -20.4799   19.5526 F   0  0  0  0  0  0
  -31.4874  -12.7349   19.1826 H   0  0  0  0  0  0
  -30.4531  -11.5967   20.0000 H   0  0  0  0  0  0
  -29.8394  -11.7469   17.5626 H   0  0  0  0  0  0
  -29.6198  -13.4725   17.7063 H   0  0  0  0  0  0
  -27.9423  -11.2740   18.9536 H   0  0  0  0  0  0
  -27.3971  -12.4743   17.8118 H   0  0  0  0  0  0
  -27.6153  -14.2455   19.4381 H   0  0  0  0  0  0
  -28.7590  -12.2188   21.4243 H   0  0  0  0  0  0
  -28.3845  -13.8809   21.7942 H   0  0  0  0  0  0
  -25.2764   -9.5677   22.4766 H   0  0  0  0  0  0
  -23.9993   -7.4635   22.7482 H   0  0  0  0  0  0
  -21.0838   -8.8789   19.8960 H   0  0  0  0  0  0
  -22.3708  -10.9678   19.6174 H   0  0  0  0  0  0
  -21.2025   -7.6151   23.9712 H   0  0  0  0  0  0
  -21.1474   -6.0524   25.9071 H   0  0  0  0  0  0
  -22.0599   -2.7609   23.2846 H   0  0  0  0  0  0
  -22.4073  -11.9890   22.4830 H   0  0  0  0  0  0
  -21.1083  -13.1255   22.2614 H   0  0  0  0  0  0
  -24.6415  -15.8334   20.4968 H   0  0  0  0  0  0
  -26.2218  -15.6051   19.9518 H   0  0  0  0  0  0
  -26.7270  -32.5306   23.1012 H   0  0  0  0  0  0
  -25.0083  -33.9622   25.0332 H   0  0  0  0  0  0
  -22.7485  -31.2921   21.3817 H   0  0  0  0  0  0
  -23.3754  -35.9599   23.3296 H   0  0  0  0  0  0
  -24.3577  -36.8904   22.2057 H   0  0  0  0  0  0
  -23.7257  -37.6462   23.6684 H   0  0  0  0  0  0
  -26.1555  -31.4781   20.6147 H   0  0  0  0  0  0
  -26.8721  -30.7726   22.0284 H   0  0  0  0  0  0
  -28.1333  -28.8136   21.2316 H   0  0  0  0  0  0
  -25.9123  -25.8553   18.9985 H   0  0  0  0  0  0
  -23.9798  -27.3011   18.9848 H   0  0  0  0  0  0
  -23.8089  -30.5713   19.3997 H   0  0  0  0  0  0
  -22.7859  -29.2388   19.8415 H   0  0  0  0  0  0
  -25.1314  -36.1866   25.0807 H   0  0  0  0  0  0
  -21.0010  -28.3319   24.1352 H   0  0  0  0  0  0
  -20.5693  -26.2340   23.3615 H   0  0  0  0  0  0
  -21.6663  -26.7440   22.1198 H   0  0  0  0  0  0
  -19.6941  -25.6286   21.1256 H   0  0  0  0  0  0
  -19.6710  -27.3175   20.6722 H   0  0  0  0  0  0
  -17.4219  -26.6663   21.4025 H   0  0  0  0  0  0
  -18.0364  -26.0079   22.9019 H   0  0  0  0  0  0
  -19.7957  -30.7291   24.2234 H   0  0  0  0  0  0
  -17.5033  -31.6267   24.5169 H   0  0  0  0  0  0
  -15.5371  -30.2985   23.7669 H   0  0  0  0  0  0
  -15.8688  -28.0816   22.7085 H   0  0  0  0  0  0
  -24.5898  -30.7092   25.7733 H   0  0  0  0  0  0
  -24.8901  -32.2927   26.4798 H   0  0  0  0  0  0
  -25.8000  -30.8945   27.0223 H   0  0  0  0  0  0
  -26.3007  -29.6682   24.1303 H   0  0  0  0  0  0
  -27.4005  -29.7265   25.4869 H   0  0  0  0  0  0
  -27.8915  -30.4199   23.9612 H   0  0  0  0  0  0
  -27.2654  -33.3634   26.2048 H   0  0  0  0  0  0
  -28.3895  -32.6864   25.0357 H   0  0  0  0  0  0
  -28.0701  -31.8474   26.5459 H   0  0  0  0  0  0
  -28.2589  -38.0088   24.7499 H   0  0  0  0  0  0
  -28.1072  -36.2618   24.6303 H   0  0  0  0  0  0
  -27.2287  -37.1453   25.8864 H   0  0  0  0  0  0
  -20.9464  -29.8758   21.6774 H   0  0  0  0  0  0
  -26.0155  -38.2816   24.1397 H   0  0  0  0  0  0
  -31.5208  -18.2570   20.2594 H   0  0  0  0  0  0
  -30.9918  -20.6717   20.1315 H   0  0  0  0  0  0
  -27.3774  -17.3989   20.7894 H   0  0  0  0  0  0
  -27.1110  -24.4818   20.6781 H   0  0  0  0  0  0
  -27.6362  -24.5378   19.0301 H   0  0  0  0  0  0
  -29.4342  -23.4078   21.2879 H   0  0  0  0  0  0
  -29.7863  -23.3300   19.5874 H   0  0  0  0  0  0
  -28.7260  -15.5793   20.8960 H   0  0  0  0  0  0
  1 25  1  0  0  0
  1 30  2  0  0  0
  1 80  1  0  0  0
  2  3  1  0  0  0
  2 25  1  0  0  0
  2 85  1  0  0  0
  2 86  1  0  0  0
  3  4  1  0  0  0
  3 87  1  0  0  0
  3 88  1  0  0  0
  4  5  1  0  0  0
  4 89  1  0  0  0
  4 90  1  0  0  0
  5  6  1  0  0  0
  5 26  1  0  0  0
  5 91  1  0  0  0
  6 25  1  0  0  0
  6 92  1  0  0  0
  6 93  1  0  0  0
  7  8  2  0  0  0
  7 26  1  0  0  0
  7 29  1  0  0  0
  8  9  1  0  0  0
  8 22  1  0  0  0
  9 10  1  0  0  0
  9 27  2  0  0  0
 10 11  2  0  0  0
 10 15  1  0  0  0
 11 12  1  0  0  0
 11 94  1  0  0  0
 12 13  2  0  0  0
 12 95  1  0  0  0
 13 14  1  0  0  0
 13 31  1  0  0  0
 14 15  2  0  0  0
 14 96  1  0  0  0
 15 97  1  0  0  0
 16 17  2  0  0  0
 16 21  1  0  0  0
 16 31  1  0  0  0
 17 18  1  0  0  0
 17 98  1  0  0  0
 18 19  2  0  0  0
 18 99  1  0  0  0
 19 20  1  0  0  0
 19 24  1  0  0  0
 20 21  2  0  0  0
 20100  1  0  0  0
 21 23  1  0  0  0
 22 28  1  0  0  0
 22 32  2  0  0  0
 26 27  1  0  0  0
 28101  1  0  0  0
 28102  1  0  0  0
 29103  1  0  0  0
 29104  1  0  0  0
 33 34  1  0  0  0
 33 66  1  0  0  0
 33 70  2  0  0  0
 34 36  1  0  0  0
 34 59  1  0  0  0
 34105  1  0  0  0
 35 44  2  0  0  0
 35 45  1  0  0  0
 35 68  1  0  0  0
 36 56  1  0  0  0
 36106  1  0  0  0
 37 39  1  0  0  0
 37 47  1  0  0  0
 37 66  1  0  0  0
 37107  1  0  0  0
 38 43  2  0  0  0
 38 46  1  0  0  0
 38 47  1  0  0  0
 39 64  1  0  0  0
 39 67  2  0  0  0
 40 52  1  0  0  0
 40 53  2  0  0  0
 40 58  1  0  0  0
 41108  1  0  0  0
 41109  1  0  0  0
 41110  1  0  0  0
 41 48  1  0  0  0
 42 43  1  0  0  0
 42 66  1  0  0  0
 42111  1  0  0  0
 42112  1  0  0  0
 43 44  1  0  0  0
 44113  1  0  0  0
 45 46  2  0  0  0
 45114  1  0  0  0
 46115  1  0  0  0
 47116  1  0  0  0
 47117  1  0  0  0
 48 56  1  0  0  0
 48 65  1  0  0  0
 48118  1  0  0  0
 49 50  1  0  0  0
 49 53  1  0  0  0
 49 64  1  0  0  0
 49119  1  0  0  0
 50 51  1  0  0  0
 50120  1  0  0  0
 50121  1  0  0  0
 51 52  1  0  0  0
 51122  1  0  0  0
 51123  1  0  0  0
 52124  1  0  0  0
 52125  1  0  0  0
 53 54  1  0  0  0
 54 55  2  0  0  0
 54126  1  0  0  0
 55 57  1  0  0  0
 55127  1  0  0  0
 56 69  2  0  0  0
 57 58  2  0  0  0
 57128  1  0  0  0
 58129  1  0  0  0
 59 60  1  0  0  0
 59 61  1  0  0  0
 59 62  1  0  0  0
 60130  1  0  0  0
 60131  1  0  0  0
 60132  1  0  0  0
 61133  1  0  0  0
 61134  1  0  0  0
 61135  1  0  0  0
 62136  1  0  0  0
 62137  1  0  0  0
 62138  1  0  0  0
 63 65  1  0  0  0
 63139  1  0  0  0
 63140  1  0  0  0
 63141  1  0  0  0
 64142  1  0  0  0
 65143  1  0  0  0
 68 77  1  0  0  0
 71 72  2  0  0  0
 71 75  1  0  0  0
 71144  1  0  0  0
 72 76  1  0  0  0
 72145  1  0  0  0
 73 74  1  0  0  0
 73 75  2  0  0  0
 73146  1  0  0  0
 74 76  2  0  0  0
 74 79  1  0  0  0
 75 80  1  0  0  0
 76 81  1  0  0  0
 77 78  1  0  0  0
 77147  1  0  0  0
 77148  1  0  0  0
 78 81  1  0  0  0
 78149  1  0  0  0
 78150  1  0  0  0
 79 82  1  0  0  0
 79 83  1  0  0  0
 79 84  1  0  0  0
 80151  1  0  0  0
M  ISO  4   1 100  68 101  77 101  80 100
M  END
> <chiral flag>
0

> <version>
0

> <s_m_source_file>
/data/baiqing/PycharmProjects/Reinvent-master-3.2/result/LINK_invent/BTK/process_docking_weight1_custom_product_contain_oxygen_bond_distance_aromatic_linkinvent_7_9_3/rearranged_h_0001.sdf

> <i_m_source_file_index>
39

> <r_mmod_Potential_Energy-OPLS-2005>
519.981262207031

> <r_mmod_Stretch_Energy-OPLS-2005>
218.96501159668

> <r_mmod_Bend_Energy-OPLS-2005>
302.493865966797

> <r_mmod_Torsional_Energy-OPLS-2005>
212.179336547852

> <r_mmod_Improper_Torsional_Energy-OPLS-2005>
4.66939496994019

> <r_mmod_Van_der_Waal_Energy-OPLS-2005>
133.448257446289

> <r_mmod_Electrostatic_Energy-OPLS-2005>
-318.606903076172

> <r_mmod_Solvation_Energy-OPLS-2005>
-208.098556518555

> <b_mmod_Minimization_Converged-OPLS-2005>
0

> <r_mmod_RMS_Derivative-OPLS-2005>
0.575366199016571

$$$$
39
                    3D
 Structure written by MMmdl.
152160  0  0  1  0            999 V2000
  -30.6493  -14.6606   20.4945 C   0  0  0  0  0  0
  -30.4246  -12.4107   19.4514 C   0  0  0  0  0  0
  -29.4996  -12.4989   18.2197 C   0  0  0  0  0  0
  -28.0249  -12.3364   18.6369 C   0  0  0  0  0  0
  -27.6430  -13.2255   19.8510 C   0  0  2  0  0  0
  -28.6890  -13.1264   20.9814 C   0  0  0  0  0  0
  -25.2514  -13.8189   20.5681 C   0  0  0  0  0  0
  -24.1801  -13.0441   20.9200 C   0  0  0  0  0  0
  -24.6386  -11.6916   20.8746 C   0  0  0  0  0  0
  -23.9064  -10.4291   21.0408 C   0  0  0  0  0  0
  -24.3616   -9.4207   21.9185 C   0  0  0  0  0  0
  -23.6292   -8.2242   22.0754 C   0  0  0  0  0  0
  -22.4275   -8.0278   21.3544 C   0  0  0  0  0  0
  -21.9910   -9.0251   20.4646 C   0  0  0  0  0  0
  -22.7236  -10.2132   20.3057 C   0  0  0  0  0  0
  -21.6854   -6.0733   22.5277 C   0  0  0  0  0  0
  -21.4014   -6.5637   23.8209 C   0  0  0  0  0  0
  -21.3660   -5.6791   24.9173 C   0  0  0  0  0  0
  -21.6046   -4.3053   24.7224 C   0  0  0  0  0  0
  -21.8819   -3.8144   23.4346 C   0  0  0  0  0  0
  -21.9193   -4.6961   22.3401 C   0  0  0  0  0  0
  -22.7823  -13.5225   21.1865 C   0  0  0  0  0  0
  -22.1661   -4.2144   21.0980 F   0  0  0  0  0  0
  -21.5632   -3.4538   25.7739 F   0  0  0  0  0  0
  -29.9936  -13.4603   20.3979 N   0  0  0  0  0  0
  -26.2938  -12.9386   20.3281 N   0  0  0  0  0  0
  -25.9314  -11.6534   20.5751 N   0  0  0  0  0  0
  -22.0475  -12.8210   22.0422 N   0  0  0  0  0  0
  -25.4206  -15.1911   20.4079 N   0  0  0  0  0  0
  -31.8354  -14.7519   20.1689 O   0  0  0  0  0  0
  -21.6640   -6.8874   21.4239 O   0  0  0  0  0  0
  -22.3506  -14.5532   20.6716 O   0  0  0  0  0  0
  -24.6261  -31.8588   23.2004 C   0  0  0  0  0  0
  -25.9105  -32.4774   23.8341 C   0  0  1  0  0  0
  -27.2245  -27.3179   20.1278 C   0  0  0  0  0  0
  -25.5923  -33.8574   24.2272 N   0  0  0  0  0  0
  -23.4203  -30.4801   21.5429 C   0  0  2  0  0  0
  -24.8670  -28.9256   20.1172 C   0  0  0  0  0  0
  -22.7473  -29.4620   22.4939 C   0  0  0  0  0  0
  -18.0286  -28.1394   22.8491 C   0  0  0  0  0  0
  -24.1486  -36.7290   23.2641 C   0  0  0  0  0  0
  -25.9596  -30.7903   21.3685 C   0  0  0  0  0  0
  -26.0354  -29.4144   20.7169 C   0  0  0  0  0  0
  -27.2215  -28.6234   20.7070 C   0  0  0  0  0  0
  -26.0366  -26.8695   19.5177 C   0  0  0  0  0  0
  -24.8687  -27.6588   19.5083 C   0  0  0  0  0  0
  -23.6356  -29.8083   20.1608 C   0  0  0  0  0  0
  -25.4112  -36.3081   24.0330 C   0  0  1  0  0  0
  -20.5887  -28.3693   23.1291 C   0  0  2  0  0  0
  -20.6776  -26.9417   22.5415 C   0  0  0  0  0  0
  -19.5750  -26.6393   21.5218 C   0  0  0  0  0  0
  -18.1930  -26.7937   22.1630 C   0  0  0  0  0  0
  -19.1539  -28.8861   23.2888 C   0  0  0  0  0  0
  -18.9462  -30.1465   23.8899 C   0  0  0  0  0  0
  -17.6461  -30.6595   24.0570 C   0  0  0  0  0  0
  -25.9050  -34.9450   23.5104 C   0  0  0  0  0  0
  -16.5353  -29.9094   23.6336 C   0  0  0  0  0  0
  -16.7274  -28.6516   23.0351 C   0  0  0  0  0  0
  -26.4493  -31.6585   25.0710 C   0  0  0  0  0  0
  -25.3729  -31.3720   26.1440 C   0  0  0  0  0  0
  -27.0336  -30.3013   24.6154 C   0  0  0  0  0  0
  -27.6053  -32.4317   25.7482 C   0  0  0  0  0  0
  -27.5577  -37.1803   24.8467 C   0  0  0  0  0  0
  -21.4187  -29.3043   22.3679 N   0  0  0  0  0  0
  -26.4289  -37.3776   23.9410 N   0  0  0  0  0  0
  -24.6876  -31.0603   22.0946 N   0  0  0  0  0  0
  -23.4194  -28.8171   23.3029 O   0  0  0  0  0  0
  -28.3440  -26.4807   20.1114 O   0  0  0  0  0  0
  -26.5619  -34.8920   22.4670 O   0  0  0  0  0  0
  -23.5425  -32.1378   23.7338 O   0  0  0  0  0  0
  -28.7360  -19.1166   20.9649 C   0  0  0  0  0  0
  -31.0018  -19.4483   20.2542 C   0  0  0  0  0  0
  -28.4748  -20.5207   20.7753 C   0  0  0  0  0  0
  -30.7474  -20.8370   20.0821 C   0  0  0  0  0  0
  -30.0234  -18.5443   20.7403 C   0  0  0  0  0  0
  -29.4937  -21.4321   20.3690 C   0  0  0  0  0  0
  -30.4966  -17.1145   21.2294 C   0  0  0  0  0  0
  -28.2290  -23.7675   20.0806 C   0  0  0  0  0  0
  -28.2645  -25.1877   20.8266 C   0  0  0  0  0  0
  -29.4064  -22.8683   20.2987 N   0  0  0  0  0  0
  -29.9223  -15.7872   20.8039 N   0  0  0  0  0  0
  -31.4664  -12.5243   19.1470 H   0  0  0  0  0  0
  -30.3552  -11.4269   19.9184 H   0  0  0  0  0  0
  -29.7673  -11.7339   17.4896 H   0  0  0  0  0  0
  -29.6376  -13.4598   17.7213 H   0  0  0  0  0  0
  -27.8691  -11.2860   18.8856 H   0  0  0  0  0  0
  -27.3675  -12.5480   17.7926 H   0  0  0  0  0  0
  -27.6481  -14.2533   19.4877 H   0  0  0  0  0  0
  -28.7092  -12.1210   21.4044 H   0  0  0  0  0  0
  -28.4364  -13.7971   21.8043 H   0  0  0  0  0  0
  -25.2763   -9.5683   22.4756 H   0  0  0  0  0  0
  -24.0002   -7.4634   22.7473 H   0  0  0  0  0  0
  -21.0841   -8.8770   19.8951 H   0  0  0  0  0  0
  -22.3695  -10.9670   19.6163 H   0  0  0  0  0  0
  -21.2005   -7.6145   23.9710 H   0  0  0  0  0  0
  -21.1484   -6.0523   25.9075 H   0  0  0  0  0  0
  -22.0598   -2.7606   23.2848 H   0  0  0  0  0  0
  -22.4098  -11.9870   22.4803 H   0  0  0  0  0  0
  -21.1094  -13.1230   22.2638 H   0  0  0  0  0  0
  -24.6514  -15.8435   20.5126 H   0  0  0  0  0  0
  -26.2635  -15.6290   20.0588 H   0  0  0  0  0  0
  -26.7173  -32.5447   23.1092 H   0  0  0  0  0  0
  -25.0066  -33.9713   25.0416 H   0  0  0  0  0  0
  -22.7144  -31.3004   21.3971 H   0  0  0  0  0  0
  -23.3746  -35.9626   23.3308 H   0  0  0  0  0  0
  -24.3576  -36.8905   22.2055 H   0  0  0  0  0  0
  -23.7237  -37.6494   23.6656 H   0  0  0  0  0  0
  -26.0864  -31.5498   20.5960 H   0  0  0  0  0  0
  -26.8418  -30.8448   21.9945 H   0  0  0  0  0  0
  -28.1240  -28.9973   21.1701 H   0  0  0  0  0  0
  -26.0118  -25.8950   19.0507 H   0  0  0  0  0  0
  -23.9721  -27.2787   19.0379 H   0  0  0  0  0  0
  -23.7567  -30.5810   19.4007 H   0  0  0  0  0  0
  -22.7551  -29.2377   19.8601 H   0  0  0  0  0  0
  -25.1293  -36.1933   25.0821 H   0  0  0  0  0  0
  -20.9985  -28.3271   24.1410 H   0  0  0  0  0  0
  -20.5689  -26.2302   23.3613 H   0  0  0  0  0  0
  -21.6646  -26.7455   22.1202 H   0  0  0  0  0  0
  -19.6909  -25.6304   21.1247 H   0  0  0  0  0  0
  -19.6689  -27.3207   20.6751 H   0  0  0  0  0  0
  -17.4202  -26.6693   21.4027 H   0  0  0  0  0  0
  -18.0328  -26.0080   22.9028 H   0  0  0  0  0  0
  -19.7934  -30.7290   24.2264 H   0  0  0  0  0  0
  -17.5012  -31.6273   24.5177 H   0  0  0  0  0  0
  -15.5352  -30.2998   23.7656 H   0  0  0  0  0  0
  -15.8675  -28.0839   22.7056 H   0  0  0  0  0  0
  -24.5901  -30.7071   25.7769 H   0  0  0  0  0  0
  -24.8921  -32.2886   26.4869 H   0  0  0  0  0  0
  -25.8056  -30.8894   27.0212 H   0  0  0  0  0  0
  -26.2905  -29.6762   24.1184 H   0  0  0  0  0  0
  -27.4051  -29.7268   25.4651 H   0  0  0  0  0  0
  -27.8767  -30.4309   23.9361 H   0  0  0  0  0  0
  -27.2664  -33.3615   26.2064 H   0  0  0  0  0  0
  -28.3861  -32.6883   25.0310 H   0  0  0  0  0  0
  -28.0722  -31.8437   26.5393 H   0  0  0  0  0  0
  -28.2603  -38.0092   24.7511 H   0  0  0  0  0  0
  -28.1064  -36.2625   24.6299 H   0  0  0  0  0  0
  -27.2297  -37.1462   25.8871 H   0  0  0  0  0  0
  -20.9368  -29.8751   21.6875 H   0  0  0  0  0  0
  -26.0171  -38.2851   24.1407 H   0  0  0  0  0  0
  -27.9472  -18.4921   21.3606 H   0  0  0  0  0  0
  -32.0071  -19.0934   20.0753 H   0  0  0  0  0  0
  -27.4911  -20.8984   21.0147 H   0  0  0  0  0  0
  -31.5699  -21.4607   19.7601 H   0  0  0  0  0  0
  -30.3855  -17.1352   22.3143 H   0  0  0  0  0  0
  -31.5775  -17.0775   21.0843 H   0  0  0  0  0  0
  -28.1131  -23.9332   19.0088 H   0  0  0  0  0  0
  -27.3292  -23.2355   20.3921 H   0  0  0  0  0  0
  -29.1096  -25.1825   21.5157 H   0  0  0  0  0  0
  -27.3970  -25.2245   21.4881 H   0  0  0  0  0  0
  -30.2922  -23.3330   20.1129 H   0  0  0  0  0  0
  -28.9353  -15.6543   20.9601 H   0  0  0  0  0  0
  1 25  1  0  0  0
  1 30  2  0  0  0
  1 81  1  0  0  0
  2  3  1  0  0  0
  2 25  1  0  0  0
  2 82  1  0  0  0
  2 83  1  0  0  0
  3  4  1  0  0  0
  3 84  1  0  0  0
  3 85  1  0  0  0
  4  5  1  0  0  0
  4 86  1  0  0  0
  4 87  1  0  0  0
  5  6  1  0  0  0
  5 26  1  0  0  0
  5 88  1  0  0  0
  6 25  1  0  0  0
  6 89  1  0  0  0
  6 90  1  0  0  0
  7  8  2  0  0  0
  7 26  1  0  0  0
  7 29  1  0  0  0
  8  9  1  0  0  0
  8 22  1  0  0  0
  9 10  1  0  0  0
  9 27  2  0  0  0
 10 11  2  0  0  0
 10 15  1  0  0  0
 11 12  1  0  0  0
 11 91  1  0  0  0
 12 13  2  0  0  0
 12 92  1  0  0  0
 13 14  1  0  0  0
 13 31  1  0  0  0
 14 15  2  0  0  0
 14 93  1  0  0  0
 15 94  1  0  0  0
 16 17  2  0  0  0
 16 21  1  0  0  0
 16 31  1  0  0  0
 17 18  1  0  0  0
 17 95  1  0  0  0
 18 19  2  0  0  0
 18 96  1  0  0  0
 19 20  1  0  0  0
 19 24  1  0  0  0
 20 21  2  0  0  0
 20 97  1  0  0  0
 21 23  1  0  0  0
 22 28  1  0  0  0
 22 32  2  0  0  0
 26 27  1  0  0  0
 28 98  1  0  0  0
 28 99  1  0  0  0
 29100  1  0  0  0
 29101  1  0  0  0
 33 34  1  0  0  0
 33 66  1  0  0  0
 33 70  2  0  0  0
 34 36  1  0  0  0
 34 59  1  0  0  0
 34102  1  0  0  0
 35 44  2  0  0  0
 35 45  1  0  0  0
 35 68  1  0  0  0
 36 56  1  0  0  0
 36103  1  0  0  0
 37 39  1  0  0  0
 37 47  1  0  0  0
 37 66  1  0  0  0
 37104  1  0  0  0
 38 43  2  0  0  0
 38 46  1  0  0  0
 38 47  1  0  0  0
 39 64  1  0  0  0
 39 67  2  0  0  0
 40 52  1  0  0  0
 40 53  2  0  0  0
 40 58  1  0  0  0
 41105  1  0  0  0
 41106  1  0  0  0
 41107  1  0  0  0
 41 48  1  0  0  0
 42 43  1  0  0  0
 42 66  1  0  0  0
 42108  1  0  0  0
 42109  1  0  0  0
 43 44  1  0  0  0
 44110  1  0  0  0
 45 46  2  0  0  0
 45111  1  0  0  0
 46112  1  0  0  0
 47113  1  0  0  0
 47114  1  0  0  0
 48 56  1  0  0  0
 48 65  1  0  0  0
 48115  1  0  0  0
 49 50  1  0  0  0
 49 53  1  0  0  0
 49 64  1  0  0  0
 49116  1  0  0  0
 50 51  1  0  0  0
 50117  1  0  0  0
 50118  1  0  0  0
 51 52  1  0  0  0
 51119  1  0  0  0
 51120  1  0  0  0
 52121  1  0  0  0
 52122  1  0  0  0
 53 54  1  0  0  0
 54 55  2  0  0  0
 54123  1  0  0  0
 55 57  1  0  0  0
 55124  1  0  0  0
 56 69  2  0  0  0
 57 58  2  0  0  0
 57125  1  0  0  0
 58126  1  0  0  0
 59 60  1  0  0  0
 59 61  1  0  0  0
 59 62  1  0  0  0
 60127  1  0  0  0
 60128  1  0  0  0
 60129  1  0  0  0
 61130  1  0  0  0
 61131  1  0  0  0
 61132  1  0  0  0
 62133  1  0  0  0
 62134  1  0  0  0
 62135  1  0  0  0
 63 65  1  0  0  0
 63136  1  0  0  0
 63137  1  0  0  0
 63138  1  0  0  0
 64139  1  0  0  0
 65140  1  0  0  0
 68 79  1  0  0  0
 71 73  2  0  0  0
 71 75  1  0  0  0
 71141  1  0  0  0
 72 74  1  0  0  0
 72 75  2  0  0  0
 72142  1  0  0  0
 73 76  1  0  0  0
 73143  1  0  0  0
 74 76  2  0  0  0
 74144  1  0  0  0
 75 77  1  0  0  0
 76 80  1  0  0  0
 77 81  1  0  0  0
 77145  1  0  0  0
 77146  1  0  0  0
 78 79  1  0  0  0
 78 80  1  0  0  0
 78147  1  0  0  0
 78148  1  0  0  0
 79149  1  0  0  0
 79150  1  0  0  0
 80151  1  0  0  0
 81152  1  0  0  0
M  ISO  4   1 100  68 101  79 101  81 100
M  END
> <chiral flag>
0

> <version>
0

> <s_m_source_file>
/data/baiqing/PycharmProjects/Reinvent-master-3.2/result/LINK_invent/BTK/process_docking_weight1_custom_product_contain_oxygen_bond_distance_aromatic_linkinvent_7_9_3/rearranged_h_0001.sdf

> <i_m_source_file_index>
40

> <r_mmod_Potential_Energy-OPLS-2005>
63.0585403442383

> <r_mmod_Stretch_Energy-OPLS-2005>
81.1610641479492

> <r_mmod_Bend_Energy-OPLS-2005>
174.89680480957

> <r_mmod_Torsional_Energy-OPLS-2005>
241.982162475586

> <r_mmod_Improper_Torsional_Energy-OPLS-2005>
6.58746862411499

> <r_mmod_Van_der_Waal_Energy-OPLS-2005>
138.201919555664

> <r_mmod_Electrostatic_Energy-OPLS-2005>
-409.924652099609

> <r_mmod_Solvation_Energy-OPLS-2005>
-222.65576171875

> <b_mmod_Minimization_Converged-OPLS-2005>
0

> <r_mmod_RMS_Derivative-OPLS-2005>
0.500587821006775

$$$$
40
                    3D
 Structure written by MMmdl.
151159  0  0  1  0            999 V2000
  -30.5078  -14.9126   20.4291 C   0  0  0  0  0  0
  -30.4550  -12.5587   19.4895 C   0  0  0  0  0  0
  -29.5261  -12.5209   18.2514 C   0  0  0  0  0  0
  -28.0560  -12.3143   18.6676 C   0  0  0  0  0  0
  -27.6385  -13.2339   19.8443 C   0  0  2  0  0  0
  -28.6832  -13.2117   20.9817 C   0  0  0  0  0  0
  -25.2504  -13.8178   20.5680 C   0  0  0  0  0  0
  -24.1805  -13.0432   20.9232 C   0  0  0  0  0  0
  -24.6397  -11.6909   20.8754 C   0  0  0  0  0  0
  -23.9069  -10.4289   21.0410 C   0  0  0  0  0  0
  -24.3618   -9.4202   21.9185 C   0  0  0  0  0  0
  -23.6291   -8.2238   22.0752 C   0  0  0  0  0  0
  -22.4272   -8.0280   21.3545 C   0  0  0  0  0  0
  -21.9911   -9.0256   20.4649 C   0  0  0  0  0  0
  -22.7242  -10.2134   20.3059 C   0  0  0  0  0  0
  -21.6853   -6.0731   22.5275 C   0  0  0  0  0  0
  -21.4014   -6.5634   23.8207 C   0  0  0  0  0  0
  -21.3658   -5.6789   24.9171 C   0  0  0  0  0  0
  -21.6044   -4.3052   24.7224 C   0  0  0  0  0  0
  -21.8819   -3.8144   23.4345 C   0  0  0  0  0  0
  -21.9194   -4.6960   22.3400 C   0  0  0  0  0  0
  -22.7824  -13.5217   21.1882 C   0  0  0  0  0  0
  -22.1664   -4.2145   21.0978 F   0  0  0  0  0  0
  -21.5629   -3.4537   25.7739 F   0  0  0  0  0  0
  -29.9671  -13.6310   20.3983 N   0  0  0  0  0  0
  -26.2922  -12.9384   20.3237 N   0  0  0  0  0  0
  -25.9326  -11.6531   20.5734 N   0  0  0  0  0  0
  -22.0469  -12.8210   22.0440 N   0  0  0  0  0  0
  -25.4173  -15.1893   20.4013 N   0  0  0  0  0  0
  -31.6973  -15.0557   20.1216 O   0  0  0  0  0  0
  -21.6637   -6.8877   21.4239 O   0  0  0  0  0  0
  -22.3513  -14.5519   20.6718 O   0  0  0  0  0  0
  -24.6426  -31.8461   23.1891 C   0  0  0  0  0  0
  -25.9206  -32.4703   23.8274 C   0  0  1  0  0  0
  -27.2217  -27.1522   20.1441 C   0  0  0  0  0  0
  -25.5958  -33.8509   24.2198 N   0  0  0  0  0  0
  -23.4448  -30.4656   21.5351 C   0  0  2  0  0  0
  -24.8940  -28.8959   20.1101 C   0  0  0  0  0  0
  -22.7564  -29.4556   22.4872 C   0  0  0  0  0  0
  -18.0311  -28.1402   22.8470 C   0  0  0  0  0  0
  -24.1489  -36.7247   23.2641 C   0  0  0  0  0  0
  -26.0000  -30.7242   21.3855 C   0  0  0  0  0  0
  -26.0722  -29.3376   20.7257 C   0  0  0  0  0  0
  -27.2368  -28.4832   20.7235 C   0  0  0  0  0  0
  -26.0132  -26.8081   19.4961 C   0  0  0  0  0  0
  -24.8773  -27.6437   19.4800 C   0  0  0  0  0  0
  -23.6697  -29.7957   20.1540 C   0  0  0  0  0  0
  -25.4124  -36.3035   24.0316 C   0  0  1  0  0  0
  -20.5919  -28.3722   23.1237 C   0  0  2  0  0  0
  -20.6785  -26.9427   22.5405 C   0  0  0  0  0  0
  -19.5763  -26.6391   21.5205 C   0  0  0  0  0  0
  -18.1947  -26.7943   22.1623 C   0  0  0  0  0  0
  -19.1566  -28.8884   23.2842 C   0  0  0  0  0  0
  -18.9486  -30.1481   23.8864 C   0  0  0  0  0  0
  -17.6481  -30.6593   24.0566 C   0  0  0  0  0  0
  -25.9073  -34.9412   23.5066 C   0  0  0  0  0  0
  -16.5373  -29.9085   23.6341 C   0  0  0  0  0  0
  -16.7296  -28.6511   23.0349 C   0  0  0  0  0  0
  -26.4525  -31.6569   25.0715 C   0  0  0  0  0  0
  -25.3714  -31.3768   26.1421 C   0  0  0  0  0  0
  -27.0387  -30.2968   24.6287 C   0  0  0  0  0  0
  -27.6070  -32.4324   25.7487 C   0  0  0  0  0  0
  -27.5577  -37.1779   24.8468 C   0  0  0  0  0  0
  -21.4259  -29.3050   22.3615 N   0  0  0  0  0  0
  -26.4284  -37.3752   23.9413 N   0  0  0  0  0  0
  -24.7156  -31.0328   22.0916 N   0  0  0  0  0  0
  -23.4212  -28.8108   23.3024 O   0  0  0  0  0  0
  -28.2811  -26.1761   20.2093 O   0  0  0  0  0  0
  -26.5656  -34.8908   22.4641 O   0  0  0  0  0  0
  -23.5549  -32.1334   23.7117 O   0  0  0  0  0  0
  -30.4981  -18.5519   20.3612 C   0  0  0  0  0  0
  -30.1892  -19.9880   20.2936 C   0  0  0  0  0  0
  -28.2011  -18.0862   20.5838 C   0  0  0  0  0  0
  -27.8880  -19.4943   20.5011 C   0  0  0  0  0  0
  -29.5071  -17.5122   20.5126 C   0  0  0  0  0  0
  -28.8570  -20.5410   20.3564 C   0  0  0  0  0  0
  -26.4237  -19.8906   20.5787 C   0  0  0  0  0  0
  -27.9856  -24.6570   20.0673 C   0  0  0  0  0  0
  -28.9726  -23.3093   20.2984 C   0  0  0  0  0  0
  -29.6169  -15.9892   20.6425 N   0  0  0  0  0  0
  -28.3469  -21.9125   20.2640 O   0  0  0  0  0  0
  -31.4864  -12.7322   19.1783 H   0  0  0  0  0  0
  -30.4552  -11.5952   20.0011 H   0  0  0  0  0  0
  -29.8364  -11.7263   17.5718 H   0  0  0  0  0  0
  -29.6212  -13.4531   17.6926 H   0  0  0  0  0  0
  -27.9426  -11.2703   18.9628 H   0  0  0  0  0  0
  -27.3936  -12.4616   17.8140 H   0  0  0  0  0  0
  -27.6165  -14.2440   19.4354 H   0  0  0  0  0  0
  -28.7612  -12.2149   21.4182 H   0  0  0  0  0  0
  -28.3866  -13.8760   21.7951 H   0  0  0  0  0  0
  -25.2766   -9.5673   22.4757 H   0  0  0  0  0  0
  -24.0002   -7.4623   22.7465 H   0  0  0  0  0  0
  -21.0845   -8.8772   19.8950 H   0  0  0  0  0  0
  -22.3698  -10.9671   19.6166 H   0  0  0  0  0  0
  -21.2006   -7.6141   23.9709 H   0  0  0  0  0  0
  -21.1480   -6.0519   25.9073 H   0  0  0  0  0  0
  -22.0601   -2.7608   23.2846 H   0  0  0  0  0  0
  -22.4090  -11.9880   22.4841 H   0  0  0  0  0  0
  -21.1080  -13.1223   22.2634 H   0  0  0  0  0  0
  -24.6324  -15.8270   20.4786 H   0  0  0  0  0  0
  -26.2202  -15.6046   19.9488 H   0  0  0  0  0  0
  -26.7271  -32.5312   23.1001 H   0  0  0  0  0  0
  -25.0091  -33.9622   25.0337 H   0  0  0  0  0  0
  -22.7459  -31.2905   21.3823 H   0  0  0  0  0  0
  -23.3759  -35.9569   23.3295 H   0  0  0  0  0  0
  -24.3573  -36.8888   22.2058 H   0  0  0  0  0  0
  -23.7234  -37.6437   23.6678 H   0  0  0  0  0  0
  -26.1562  -31.4800   20.6147 H   0  0  0  0  0  0
  -26.8703  -30.7725   22.0285 H   0  0  0  0  0  0
  -28.1348  -28.8186   21.2235 H   0  0  0  0  0  0
  -25.9055  -25.8516   19.0090 H   0  0  0  0  0  0
  -23.9787  -27.2988   18.9876 H   0  0  0  0  0  0
  -23.8038  -30.5700   19.3977 H   0  0  0  0  0  0
  -22.7838  -29.2374   19.8451 H   0  0  0  0  0  0
  -25.1311  -36.1858   25.0807 H   0  0  0  0  0  0
  -21.0017  -28.3310   24.1357 H   0  0  0  0  0  0
  -20.5676  -26.2334   23.3623 H   0  0  0  0  0  0
  -21.6653  -26.7430   22.1211 H   0  0  0  0  0  0
  -19.6916  -25.6295   21.1252 H   0  0  0  0  0  0
  -19.6697  -27.3186   20.6721 H   0  0  0  0  0  0
  -17.4216  -26.6684   21.4031 H   0  0  0  0  0  0
  -18.0349  -26.0094   22.9030 H   0  0  0  0  0  0
  -19.7959  -30.7305   24.2218 H   0  0  0  0  0  0
  -17.5036  -31.6269   24.5176 H   0  0  0  0  0  0
  -15.5373  -30.2976   23.7684 H   0  0  0  0  0  0
  -15.8697  -28.0825   22.7073 H   0  0  0  0  0  0
  -24.5878  -30.7127   25.7751 H   0  0  0  0  0  0
  -24.8915  -32.2959   26.4802 H   0  0  0  0  0  0
  -25.8008  -30.8972   27.0227 H   0  0  0  0  0  0
  -26.3005  -29.6690   24.1287 H   0  0  0  0  0  0
  -27.3999  -29.7272   25.4858 H   0  0  0  0  0  0
  -27.8910  -30.4212   23.9605 H   0  0  0  0  0  0
  -27.2688  -33.3652   26.2011 H   0  0  0  0  0  0
  -28.3905  -32.6841   25.0327 H   0  0  0  0  0  0
  -28.0701  -31.8475   26.5446 H   0  0  0  0  0  0
  -28.2596  -38.0074   24.7517 H   0  0  0  0  0  0
  -28.1072  -36.2607   24.6291 H   0  0  0  0  0  0
  -27.2295  -37.1428   25.8870 H   0  0  0  0  0  0
  -20.9471  -29.8758   21.6788 H   0  0  0  0  0  0
  -26.0150  -38.2817   24.1421 H   0  0  0  0  0  0
  -31.5364  -18.2579   20.3035 H   0  0  0  0  0  0
  -31.0155  -20.6750   20.1771 H   0  0  0  0  0  0
  -27.3711  -17.4062   20.7091 H   0  0  0  0  0  0
  -25.7651  -19.0220   20.5604 H   0  0  0  0  0  0
  -26.1540  -20.5279   19.7361 H   0  0  0  0  0  0
  -26.2286  -20.4418   21.4986 H   0  0  0  0  0  0
  -27.1285  -24.4868   20.7197 H   0  0  0  0  0  0
  -27.6022  -24.5305   19.0556 H   0  0  0  0  0  0
  -29.4624  -23.4098   21.2670 H   0  0  0  0  0  0
  -29.7733  -23.3330   19.5591 H   0  0  0  0  0  0
  -28.7227  -15.5870   20.8772 H   0  0  0  0  0  0
  1 25  1  0  0  0
  1 30  2  0  0  0
  1 80  1  0  0  0
  2  3  1  0  0  0
  2 25  1  0  0  0
  2 82  1  0  0  0
  2 83  1  0  0  0
  3  4  1  0  0  0
  3 84  1  0  0  0
  3 85  1  0  0  0
  4  5  1  0  0  0
  4 86  1  0  0  0
  4 87  1  0  0  0
  5  6  1  0  0  0
  5 26  1  0  0  0
  5 88  1  0  0  0
  6 25  1  0  0  0
  6 89  1  0  0  0
  6 90  1  0  0  0
  7  8  2  0  0  0
  7 26  1  0  0  0
  7 29  1  0  0  0
  8  9  1  0  0  0
  8 22  1  0  0  0
  9 10  1  0  0  0
  9 27  2  0  0  0
 10 11  2  0  0  0
 10 15  1  0  0  0
 11 12  1  0  0  0
 11 91  1  0  0  0
 12 13  2  0  0  0
 12 92  1  0  0  0
 13 14  1  0  0  0
 13 31  1  0  0  0
 14 15  2  0  0  0
 14 93  1  0  0  0
 15 94  1  0  0  0
 16 17  2  0  0  0
 16 21  1  0  0  0
 16 31  1  0  0  0
 17 18  1  0  0  0
 17 95  1  0  0  0
 18 19  2  0  0  0
 18 96  1  0  0  0
 19 20  1  0  0  0
 19 24  1  0  0  0
 20 21  2  0  0  0
 20 97  1  0  0  0
 21 23  1  0  0  0
 22 28  1  0  0  0
 22 32  2  0  0  0
 26 27  1  0  0  0
 28 98  1  0  0  0
 28 99  1  0  0  0
 29100  1  0  0  0
 29101  1  0  0  0
 33 34  1  0  0  0
 33 66  1  0  0  0
 33 70  2  0  0  0
 34 36  1  0  0  0
 34 59  1  0  0  0
 34102  1  0  0  0
 35 44  2  0  0  0
 35 45  1  0  0  0
 35 68  1  0  0  0
 36 56  1  0  0  0
 36103  1  0  0  0
 37 39  1  0  0  0
 37 47  1  0  0  0
 37 66  1  0  0  0
 37104  1  0  0  0
 38 43  2  0  0  0
 38 46  1  0  0  0
 38 47  1  0  0  0
 39 64  1  0  0  0
 39 67  2  0  0  0
 40 52  1  0  0  0
 40 53  2  0  0  0
 40 58  1  0  0  0
 41105  1  0  0  0
 41106  1  0  0  0
 41107  1  0  0  0
 41 48  1  0  0  0
 42 43  1  0  0  0
 42 66  1  0  0  0
 42108  1  0  0  0
 42109  1  0  0  0
 43 44  1  0  0  0
 44110  1  0  0  0
 45 46  2  0  0  0
 45111  1  0  0  0
 46112  1  0  0  0
 47113  1  0  0  0
 47114  1  0  0  0
 48 56  1  0  0  0
 48 65  1  0  0  0
 48115  1  0  0  0
 49 50  1  0  0  0
 49 53  1  0  0  0
 49 64  1  0  0  0
 49116  1  0  0  0
 50 51  1  0  0  0
 50117  1  0  0  0
 50118  1  0  0  0
 51 52  1  0  0  0
 51119  1  0  0  0
 51120  1  0  0  0
 52121  1  0  0  0
 52122  1  0  0  0
 53 54  1  0  0  0
 54 55  2  0  0  0
 54123  1  0  0  0
 55 57  1  0  0  0
 55124  1  0  0  0
 56 69  2  0  0  0
 57 58  2  0  0  0
 57125  1  0  0  0
 58126  1  0  0  0
 59 60  1  0  0  0
 59 61  1  0  0  0
 59 62  1  0  0  0
 60127  1  0  0  0
 60128  1  0  0  0
 60129  1  0  0  0
 61130  1  0  0  0
 61131  1  0  0  0
 61132  1  0  0  0
 62133  1  0  0  0
 62134  1  0  0  0
 62135  1  0  0  0
 63 65  1  0  0  0
 63136  1  0  0  0
 63137  1  0  0  0
 63138  1  0  0  0
 64139  1  0  0  0
 65140  1  0  0  0
 68 78  1  0  0  0
 71 72  2  0  0  0
 71 75  1  0  0  0
 71141  1  0  0  0
 72 76  1  0  0  0
 72142  1  0  0  0
 73 74  1  0  0  0
 73 75  2  0  0  0
 73143  1  0  0  0
 74 76  2  0  0  0
 74 77  1  0  0  0
 75 80  1  0  0  0
 76 81  1  0  0  0
 77144  1  0  0  0
 77145  1  0  0  0
 77146  1  0  0  0
 78 79  1  0  0  0
 78147  1  0  0  0
 78148  1  0  0  0
 79 81  1  0  0  0
 79149  1  0  0  0
 79150  1  0  0  0
 80151  1  0  0  0
M  ISO  4   1 100  68 101  78 101  80 100
M  END
> <chiral flag>
0

> <version>
0

> <s_m_source_file>
/data/baiqing/PycharmProjects/Reinvent-master-3.2/result/LINK_invent/BTK/process_docking_weight1_custom_product_contain_oxygen_bond_distance_aromatic_linkinvent_7_9_3/rearranged_h_0001.sdf

> <i_m_source_file_index>
41

> <r_mmod_Potential_Energy-OPLS-2005>
449.871917724609

> <r_mmod_Stretch_Energy-OPLS-2005>
217.125106811523

> <r_mmod_Bend_Energy-OPLS-2005>
303.068023681641

> <r_mmod_Torsional_Energy-OPLS-2005>
211.717910766602

> <r_mmod_Improper_Torsional_Energy-OPLS-2005>
4.76985454559326

> <r_mmod_Van_der_Waal_Energy-OPLS-2005>
131.463577270508

> <r_mmod_Electrostatic_Energy-OPLS-2005>
-380.574035644531

> <r_mmod_Solvation_Energy-OPLS-2005>
-211.898544311523

> <b_mmod_Minimization_Converged-OPLS-2005>
0

> <r_mmod_RMS_Derivative-OPLS-2005>
1.00794219970703

$$$$
41
                    3D
 Structure written by MMmdl.
181190  0  0  1  0            999 V2000
  -30.7246  -14.3729   20.6770 C   0  0  0  0  0  0
  -30.4294  -12.2856   19.3986 C   0  0  0  0  0  0
  -29.4954  -12.5306   18.1976 C   0  0  0  0  0  0
  -28.0162  -12.3800   18.6052 C   0  0  0  0  0  0
  -27.6706  -13.1943   19.8807 C   0  0  2  0  0  0
  -28.7005  -12.9049   20.9946 C   0  0  0  0  0  0
  -25.2615  -13.8139   20.5620 C   0  0  0  0  0  0
  -24.1848  -13.0438   20.9123 C   0  0  0  0  0  0
  -24.6382  -11.6904   20.8682 C   0  0  0  0  0  0
  -23.9034  -10.4292   21.0375 C   0  0  0  0  0  0
  -24.3594   -9.4218   21.9158 C   0  0  0  0  0  0
  -23.6266   -8.2250   22.0748 C   0  0  0  0  0  0
  -22.4250   -8.0276   21.3545 C   0  0  0  0  0  0
  -21.9875   -9.0251   20.4649 C   0  0  0  0  0  0
  -22.7197  -10.2121   20.3038 C   0  0  0  0  0  0
  -21.6855   -6.0727   22.5266 C   0  0  0  0  0  0
  -21.4025   -6.5629   23.8200 C   0  0  0  0  0  0
  -21.3661   -5.6773   24.9167 C   0  0  0  0  0  0
  -21.6045   -4.3034   24.7222 C   0  0  0  0  0  0
  -21.8827   -3.8129   23.4335 C   0  0  0  0  0  0
  -21.9190   -4.6951   22.3391 C   0  0  0  0  0  0
  -22.7873  -13.5267   21.1786 C   0  0  0  0  0  0
  -22.1656   -4.2143   21.0965 F   0  0  0  0  0  0
  -21.5630   -3.4512   25.7727 F   0  0  0  0  0  0
  -30.0475  -13.2135   20.4726 N   0  0  0  0  0  0
  -26.3047  -12.9294   20.3320 N   0  0  0  0  0  0
  -25.9297  -11.6474   20.5677 N   0  0  0  0  0  0
  -22.0497  -12.8301   22.0365 N   0  0  0  0  0  0
  -25.4364  -15.1860   20.4064 N   0  0  0  0  0  0
  -31.7710  -14.6606   20.0834 O   0  0  0  0  0  0
  -21.6628   -6.8866   21.4231 O   0  0  0  0  0  0
  -22.3555  -14.5573   20.6623 O   0  0  0  0  0  0
  -24.6139  -31.8689   23.2081 C   0  0  0  0  0  0
  -25.9034  -32.4823   23.8383 C   0  0  1  0  0  0
  -27.2429  -27.4545   20.0782 C   0  0  0  0  0  0
  -25.5906  -33.8620   24.2331 N   0  0  0  0  0  0
  -23.4010  -30.4900   21.5477 C   0  0  2  0  0  0
  -24.8464  -28.9560   20.1142 C   0  0  0  0  0  0
  -22.7400  -29.4659   22.4971 C   0  0  0  0  0  0
  -18.0265  -28.1373   22.8497 C   0  0  0  0  0  0
  -24.1490  -36.7305   23.2645 C   0  0  0  0  0  0
  -25.9274  -30.8369   21.3625 C   0  0  0  0  0  0
  -26.0041  -29.4707   20.7104 C   0  0  0  0  0  0
  -27.2010  -28.7269   20.6926 C   0  0  0  0  0  0
  -26.0688  -26.9530   19.4714 C   0  0  0  0  0  0
  -24.8716  -27.6918   19.4971 C   0  0  0  0  0  0
  -23.6073  -29.8179   20.1635 C   0  0  0  0  0  0
  -25.4112  -36.3110   24.0335 C   0  0  1  0  0  0
  -20.5871  -28.3655   23.1318 C   0  0  2  0  0  0
  -20.6758  -26.9388   22.5414 C   0  0  0  0  0  0
  -19.5729  -26.6383   21.5215 C   0  0  0  0  0  0
  -18.1913  -26.7921   22.1628 C   0  0  0  0  0  0
  -19.1519  -28.8818   23.2924 C   0  0  0  0  0  0
  -18.9442  -30.1424   23.8929 C   0  0  0  0  0  0
  -17.6455  -30.6587   24.0553 C   0  0  0  0  0  0
  -25.9031  -34.9478   23.5128 C   0  0  0  0  0  0
  -16.5339  -29.9088   23.6322 C   0  0  0  0  0  0
  -16.7258  -28.6497   23.0356 C   0  0  0  0  0  0
  -26.4477  -31.6592   25.0699 C   0  0  0  0  0  0
  -25.3748  -31.3726   26.1443 C   0  0  0  0  0  0
  -27.0262  -30.3007   24.6071 C   0  0  0  0  0  0
  -27.6059  -32.4306   25.7470 C   0  0  0  0  0  0
  -27.5579  -37.1792   24.8453 C   0  0  0  0  0  0
  -21.4132  -29.3027   22.3720 N   0  0  0  0  0  0
  -26.4287  -37.3801   23.9410 N   0  0  0  0  0  0
  -24.6662  -31.0796   22.0975 N   0  0  0  0  0  0
  -23.4193  -28.8225   23.3019 O   0  0  0  0  0  0
  -28.4384  -26.7691   20.0698 O   0  0  0  0  0  0
  -26.5589  -34.8920   22.4692 O   0  0  0  0  0  0
  -23.5319  -32.1420   23.7463 O   0  0  0  0  0  0
  -28.7707  -18.6171   21.4041 C   0  0  0  0  0  0
  -28.8617  -17.2191   21.5351 C   0  0  0  0  0  0
  -31.2975  -17.3696   21.4728 C   0  0  0  0  0  0
  -29.9424  -19.3920   21.2904 C   0  0  0  0  0  0
  -31.2071  -18.7729   21.3635 C   0  0  0  0  0  0
  -30.1224  -16.5871   21.5251 C   0  0  0  0  0  0
  -30.7162  -22.7117   22.4425 C   0  0  0  0  0  0
  -32.4733  -19.6083   21.3357 C   0  0  0  0  0  0
  -29.8470  -20.8833   21.0429 C   0  0  0  0  0  0
  -32.2741  -21.1331   21.1252 C   0  0  1  0  0  0
  -33.1192  -23.8973   22.3388 C   0  0  0  0  0  0
  -32.0482  -23.2248   24.5312 C   0  0  0  0  0  0
  -31.1523  -25.1062   23.1633 C   0  0  0  0  0  0
  -32.5512  -21.5770   19.6653 C   0  0  0  0  0  0
  -28.4178  -25.3379   20.0460 C   0  0  0  0  0  0
  -32.2515  -23.4875   18.2420 C   0  0  0  0  0  0
  -28.9779  -24.7786   18.7281 C   0  0  0  0  0  0
  -31.0422  -24.2374   17.6713 C   0  0  0  0  0  0
  -31.7794  -23.6830   23.0825 C   0  0  0  0  0  0
  -30.9722  -21.6470   21.6181 N   0  0  0  0  0  0
  -30.1661  -15.1752   21.5946 N   0  0  0  0  0  0
  -29.5446  -22.9553   22.7578 O   0  0  0  0  0  0
  -31.7781  -22.7243   19.3433 O   0  0  0  0  0  0
  -30.3925  -24.9446   18.7237 O   0  0  0  0  0  0
  -31.4726  -12.4028   19.0992 H   0  0  0  0  0  0
  -30.3352  -11.2571   19.7477 H   0  0  0  0  0  0
  -29.7344  -11.8428   17.3872 H   0  0  0  0  0  0
  -29.6680  -13.5340   17.8027 H   0  0  0  0  0  0
  -27.8248  -11.3192   18.7746 H   0  0  0  0  0  0
  -27.3684  -12.6752   17.7797 H   0  0  0  0  0  0
  -27.7404  -14.2536   19.6217 H   0  0  0  0  0  0
  -28.6636  -11.8525   21.2833 H   0  0  0  0  0  0
  -28.4333  -13.4417   21.9062 H   0  0  0  0  0  0
  -25.2765   -9.5699   22.4697 H   0  0  0  0  0  0
  -23.9988   -7.4661   22.7475 H   0  0  0  0  0  0
  -21.0797   -8.8775   19.8960 H   0  0  0  0  0  0
  -22.3673  -10.9657   19.6127 H   0  0  0  0  0  0
  -21.2028   -7.6141   23.9716 H   0  0  0  0  0  0
  -21.1470   -6.0492   25.9069 H   0  0  0  0  0  0
  -22.0602   -2.7592   23.2824 H   0  0  0  0  0  0
  -22.4098  -11.9995   22.4844 H   0  0  0  0  0  0
  -21.1122  -13.1356   22.2525 H   0  0  0  0  0  0
  -24.6666  -15.8377   20.5052 H   0  0  0  0  0  0
  -26.2822  -15.6223   20.0632 H   0  0  0  0  0  0
  -26.7131  -32.5535   23.1171 H   0  0  0  0  0  0
  -25.0058  -33.9809   25.0468 H   0  0  0  0  0  0
  -22.6880  -31.3033   21.4059 H   0  0  0  0  0  0
  -23.3746  -35.9638   23.3306 H   0  0  0  0  0  0
  -24.3580  -36.8904   22.2060 H   0  0  0  0  0  0
  -23.7240  -37.6516   23.6633 H   0  0  0  0  0  0
  -26.0385  -31.6062   20.5970 H   0  0  0  0  0  0
  -26.8177  -30.8884   21.9801 H   0  0  0  0  0  0
  -28.0953  -29.1239   21.1540 H   0  0  0  0  0  0
  -26.0676  -26.0025   18.9573 H   0  0  0  0  0  0
  -23.9833  -27.2871   19.0314 H   0  0  0  0  0  0
  -23.7129  -30.5900   19.3998 H   0  0  0  0  0  0
  -22.7319  -29.2287   19.8786 H   0  0  0  0  0  0
  -25.1293  -36.1972   25.0824 H   0  0  0  0  0  0
  -20.9985  -28.3219   24.1436 H   0  0  0  0  0  0
  -20.5659  -26.2272   23.3605 H   0  0  0  0  0  0
  -21.6631  -26.7430   22.1205 H   0  0  0  0  0  0
  -19.6904  -25.6306   21.1219 H   0  0  0  0  0  0
  -19.6671  -27.3215   20.6770 H   0  0  0  0  0  0
  -17.4194  -26.6681   21.4034 H   0  0  0  0  0  0
  -18.0297  -26.0058   22.9023 H   0  0  0  0  0  0
  -19.7916  -30.7230   24.2346 H   0  0  0  0  0  0
  -17.4994  -31.6278   24.5141 H   0  0  0  0  0  0
  -15.5336  -30.2997   23.7614 H   0  0  0  0  0  0
  -15.8662  -28.0819   22.7071 H   0  0  0  0  0  0
  -24.5904  -30.7105   25.7784 H   0  0  0  0  0  0
  -24.8975  -32.2893   26.4906 H   0  0  0  0  0  0
  -25.8099  -30.8879   27.0194 H   0  0  0  0  0  0
  -26.2794  -29.6806   24.1100 H   0  0  0  0  0  0
  -27.3987  -29.7204   25.4530 H   0  0  0  0  0  0
  -27.8656  -30.4287   23.9230 H   0  0  0  0  0  0
  -27.2687  -33.3603   26.2073 H   0  0  0  0  0  0
  -28.3859  -32.6883   25.0297 H   0  0  0  0  0  0
  -28.0728  -31.8414   26.5366 H   0  0  0  0  0  0
  -28.2595  -38.0099   24.7507 H   0  0  0  0  0  0
  -28.1083  -36.2617   24.6272 H   0  0  0  0  0  0
  -27.2280  -37.1438   25.8856 H   0  0  0  0  0  0
  -20.9269  -29.8764   21.6961 H   0  0  0  0  0  0
  -26.0163  -38.2875   24.1423 H   0  0  0  0  0  0
  -27.7958  -19.0875   21.3735 H   0  0  0  0  0  0
  -27.9512  -16.6378   21.5990 H   0  0  0  0  0  0
  -32.2690  -16.8959   21.5046 H   0  0  0  0  0  0
  -33.1704  -19.2096   20.5983 H   0  0  0  0  0  0
  -32.9534  -19.4479   22.3029 H   0  0  0  0  0  0
  -28.8574  -21.2254   21.3524 H   0  0  0  0  0  0
  -29.8565  -21.0332   19.9625 H   0  0  0  0  0  0
  -33.0858  -21.5352   21.7112 H   0  0  0  0  0  0
  -33.8907  -23.1903   22.6437 H   0  0  0  0  0  0
  -33.5560  -24.8672   22.5738 H   0  0  0  0  0  0
  -33.0033  -23.8713   21.2562 H   0  0  0  0  0  0
  -32.6270  -22.3011   24.5571 H   0  0  0  0  0  0
  -31.1188  -23.0434   25.0759 H   0  0  0  0  0  0
  -32.6049  -23.9743   25.0934 H   0  0  0  0  0  0
  -30.9686  -25.5058   22.1643 H   0  0  0  0  0  0
  -31.8088  -25.8134   23.6725 H   0  0  0  0  0  0
  -30.2075  -25.1258   23.7084 H   0  0  0  0  0  0
  -32.2817  -20.7826   18.9653 H   0  0  0  0  0  0
  -33.6158  -21.7681   19.5322 H   0  0  0  0  0  0
  -29.0305  -24.9860   20.8733 H   0  0  0  0  0  0
  -27.4346  -24.9136   20.2455 H   0  0  0  0  0  0
  -33.0228  -24.1779   18.5817 H   0  0  0  0  0  0
  -32.6800  -22.8553   17.4627 H   0  0  0  0  0  0
  -28.5259  -25.2482   17.8516 H   0  0  0  0  0  0
  -28.7379  -23.7117   18.6895 H   0  0  0  0  0  0
  -30.3837  -23.5124   17.1924 H   0  0  0  0  0  0
  -31.3485  -24.9372   16.8939 H   0  0  0  0  0  0
  -29.3838  -14.7433   22.0615 H   0  0  0  0  0  0
  1 25  1  0  0  0
  1 30  2  0  0  0
  1 91  1  0  0  0
  2  3  1  0  0  0
  2 25  1  0  0  0
  2 95  1  0  0  0
  2 96  1  0  0  0
  3  4  1  0  0  0
  3 97  1  0  0  0
  3 98  1  0  0  0
  4  5  1  0  0  0
  4 99  1  0  0  0
  4100  1  0  0  0
  5  6  1  0  0  0
  5 26  1  0  0  0
  5101  1  0  0  0
  6 25  1  0  0  0
  6102  1  0  0  0
  6103  1  0  0  0
  7  8  2  0  0  0
  7 26  1  0  0  0
  7 29  1  0  0  0
  8  9  1  0  0  0
  8 22  1  0  0  0
  9 10  1  0  0  0
  9 27  2  0  0  0
 10 11  2  0  0  0
 10 15  1  0  0  0
 11 12  1  0  0  0
 11104  1  0  0  0
 12 13  2  0  0  0
 12105  1  0  0  0
 13 14  1  0  0  0
 13 31  1  0  0  0
 14 15  2  0  0  0
 14106  1  0  0  0
 15107  1  0  0  0
 16 17  2  0  0  0
 16 21  1  0  0  0
 16 31  1  0  0  0
 17 18  1  0  0  0
 17108  1  0  0  0
 18 19  2  0  0  0
 18109  1  0  0  0
 19 20  1  0  0  0
 19 24  1  0  0  0
 20 21  2  0  0  0
 20110  1  0  0  0
 21 23  1  0  0  0
 22 28  1  0  0  0
 22 32  2  0  0  0
 26 27  1  0  0  0
 28111  1  0  0  0
 28112  1  0  0  0
 29113  1  0  0  0
 29114  1  0  0  0
 33 34  1  0  0  0
 33 66  1  0  0  0
 33 70  2  0  0  0
 34 36  1  0  0  0
 34 59  1  0  0  0
 34115  1  0  0  0
 35 44  2  0  0  0
 35 45  1  0  0  0
 35 68  1  0  0  0
 36 56  1  0  0  0
 36116  1  0  0  0
 37 39  1  0  0  0
 37 47  1  0  0  0
 37 66  1  0  0  0
 37117  1  0  0  0
 38 43  2  0  0  0
 38 46  1  0  0  0
 38 47  1  0  0  0
 39 64  1  0  0  0
 39 67  2  0  0  0
 40 52  1  0  0  0
 40 53  2  0  0  0
 40 58  1  0  0  0
 41118  1  0  0  0
 41119  1  0  0  0
 41120  1  0  0  0
 41 48  1  0  0  0
 42 43  1  0  0  0
 42 66  1  0  0  0
 42121  1  0  0  0
 42122  1  0  0  0
 43 44  1  0  0  0
 44123  1  0  0  0
 45 46  2  0  0  0
 45124  1  0  0  0
 46125  1  0  0  0
 47126  1  0  0  0
 47127  1  0  0  0
 48 56  1  0  0  0
 48 65  1  0  0  0
 48128  1  0  0  0
 49 50  1  0  0  0
 49 53  1  0  0  0
 49 64  1  0  0  0
 49129  1  0  0  0
 50 51  1  0  0  0
 50130  1  0  0  0
 50131  1  0  0  0
 51 52  1  0  0  0
 51132  1  0  0  0
 51133  1  0  0  0
 52134  1  0  0  0
 52135  1  0  0  0
 53 54  1  0  0  0
 54 55  2  0  0  0
 54136  1  0  0  0
 55 57  1  0  0  0
 55137  1  0  0  0
 56 69  2  0  0  0
 57 58  2  0  0  0
 57138  1  0  0  0
 58139  1  0  0  0
 59 60  1  0  0  0
 59 61  1  0  0  0
 59 62  1  0  0  0
 60140  1  0  0  0
 60141  1  0  0  0
 60142  1  0  0  0
 61143  1  0  0  0
 61144  1  0  0  0
 61145  1  0  0  0
 62146  1  0  0  0
 62147  1  0  0  0
 62148  1  0  0  0
 63 65  1  0  0  0
 63149  1  0  0  0
 63150  1  0  0  0
 63151  1  0  0  0
 64152  1  0  0  0
 65153  1  0  0  0
 68 85  1  0  0  0
 71 72  2  0  0  0
 71 74  1  0  0  0
 71154  1  0  0  0
 72 76  1  0  0  0
 72155  1  0  0  0
 73 75  1  0  0  0
 73 76  2  0  0  0
 73156  1  0  0  0
 74 75  2  0  0  0
 74 79  1  0  0  0
 75 78  1  0  0  0
 76 91  1  0  0  0
 77 89  1  0  0  0
 77 90  1  0  0  0
 77 92  2  0  0  0
 78 80  1  0  0  0
 78157  1  0  0  0
 78158  1  0  0  0
 79 90  1  0  0  0
 79159  1  0  0  0
 79160  1  0  0  0
 80 84  1  0  0  0
 80 90  1  0  0  0
 80161  1  0  0  0
 81162  1  0  0  0
 81163  1  0  0  0
 81164  1  0  0  0
 81 89  1  0  0  0
 82 89  1  0  0  0
 82165  1  0  0  0
 82166  1  0  0  0
 82167  1  0  0  0
 83 89  1  0  0  0
 83168  1  0  0  0
 83169  1  0  0  0
 83170  1  0  0  0
 84 93  1  0  0  0
 84171  1  0  0  0
 84172  1  0  0  0
 85 87  1  0  0  0
 85173  1  0  0  0
 85174  1  0  0  0
 86 88  1  0  0  0
 86 93  1  0  0  0
 86175  1  0  0  0
 86176  1  0  0  0
 87 94  1  0  0  0
 87177  1  0  0  0
 87178  1  0  0  0
 88 94  1  0  0  0
 88179  1  0  0  0
 88180  1  0  0  0
 91181  1  0  0  0
M  ISO  4   1 100  68 101  85 101  91 100
M  END
> <chiral flag>
0

> <version>
0

> <s_m_source_file>
/data/baiqing/PycharmProjects/Reinvent-master-3.2/result/LINK_invent/BTK/process_docking_weight1_custom_product_contain_oxygen_bond_distance_aromatic_linkinvent_7_9_3/rearranged_h_0001.sdf

> <i_m_source_file_index>
42

> <r_mmod_Potential_Energy-OPLS-2005>
79.5347061157227

> <r_mmod_Stretch_Energy-OPLS-2005>
44.7938117980957

> <r_mmod_Bend_Energy-OPLS-2005>
143.150726318359

> <r_mmod_Torsional_Energy-OPLS-2005>
314.859588623047

> <r_mmod_Improper_Torsional_Energy-OPLS-2005>
4.42999076843262

> <r_mmod_Van_der_Waal_Energy-OPLS-2005>
177.664215087891

> <r_mmod_Electrostatic_Energy-OPLS-2005>
-381.773956298828

> <r_mmod_Solvation_Energy-OPLS-2005>
-231.704925537109

> <b_mmod_Minimization_Converged-OPLS-2005>
0

> <r_mmod_RMS_Derivative-OPLS-2005>
4.66396284103394

$$$$
42
                    3D
 Structure written by MMmdl.
177185  0  0  1  0            999 V2000
  -30.1302  -15.2799   20.7969 C   0  0  0  0  0  0
  -30.4066  -12.8962   19.6482 C   0  0  0  0  0  0
  -29.5511  -12.6537   18.3662 C   0  0  0  0  0  0
  -28.0902  -12.3241   18.7251 C   0  0  0  0  0  0
  -27.5845  -13.2528   19.8543 C   0  0  2  0  0  0
  -28.5381  -13.3002   21.0550 C   0  0  0  0  0  0
  -25.2201  -13.8161   20.5650 C   0  0  0  0  0  0
  -24.1574  -13.0385   20.9208 C   0  0  0  0  0  0
  -24.6213  -11.6872   20.8694 C   0  0  0  0  0  0
  -23.8973  -10.4232   21.0405 C   0  0  0  0  0  0
  -24.3588   -9.4166   21.9178 C   0  0  0  0  0  0
  -23.6273   -8.2197   22.0754 C   0  0  0  0  0  0
  -22.4255   -8.0238   21.3547 C   0  0  0  0  0  0
  -21.9856   -9.0187   20.4646 C   0  0  0  0  0  0
  -22.7154  -10.2074   20.3048 C   0  0  0  0  0  0
  -21.6840   -6.0721   22.5291 C   0  0  0  0  0  0
  -21.3997   -6.5643   23.8219 C   0  0  0  0  0  0
  -21.3664   -5.6801   24.9187 C   0  0  0  0  0  0
  -21.6042   -4.3063   24.7231 C   0  0  0  0  0  0
  -21.8818   -3.8150   23.4354 C   0  0  0  0  0  0
  -21.9183   -4.6953   22.3408 C   0  0  0  0  0  0
  -22.7637  -13.5176   21.1920 C   0  0  0  0  0  0
  -22.1659   -4.2146   21.0981 F   0  0  0  0  0  0
  -21.5611   -3.4545   25.7742 F   0  0  0  0  0  0
  -29.7503  -13.9247   20.5603 N   0  0  0  0  0  0
  -26.2500  -12.9355   20.3010 N   0  0  0  0  0  0
  -25.9096  -11.6496   20.5582 N   0  0  0  0  0  0
  -22.0366  -12.8128   22.0502 N   0  0  0  0  0  0
  -25.3929  -15.1907   20.4230 N   0  0  0  0  0  0
  -31.3201  -15.4611   20.4559 O   0  0  0  0  0  0
  -21.6634   -6.8845   21.4247 O   0  0  0  0  0  0
  -22.3315  -14.5498   20.6799 O   0  0  0  0  0  0
  -25.3225  -30.9262   23.1702 C   0  0  0  0  0  0
  -26.1662  -32.1790   23.9645 C   0  0  1  0  0  0
  -27.3037  -28.1566   20.0680 C   0  0  0  0  0  0
  -25.6600  -33.6273   24.2376 N   0  0  0  0  0  0
  -23.3700  -30.1026   21.4020 C   0  0  2  0  0  0
  -24.6539  -28.6734   19.8114 C   0  0  0  0  0  0
  -22.6741  -29.1326   22.2008 C   0  0  0  0  0  0
  -17.9857  -28.1310   22.8472 C   0  0  0  0  0  0
  -24.1751  -36.5936   23.3100 C   0  0  0  0  0  0
  -25.2338  -30.8417   20.4207 C   0  0  0  0  0  0
  -25.6438  -29.5962   19.8571 C   0  0  0  0  0  0
  -26.9269  -29.3044   19.5032 C   0  0  0  0  0  0
  -26.3967  -27.0428   20.0050 C   0  0  0  0  0  0
  -25.0233  -27.3253   19.7299 C   0  0  0  0  0  0
  -23.2997  -29.2874   20.0352 C   0  0  0  0  0  0
  -25.4339  -36.1902   24.1102 C   0  0  1  0  0  0
  -20.5316  -28.3133   23.1118 C   0  0  2  0  0  0
  -20.5923  -26.8740   22.5568 C   0  0  0  0  0  0
  -19.5107  -26.6011   21.5230 C   0  0  0  0  0  0
  -18.1310  -26.7871   22.1566 C   0  0  0  0  0  0
  -19.1194  -28.8622   23.2827 C   0  0  0  0  0  0
  -18.9343  -30.1327   23.8747 C   0  0  0  0  0  0
  -17.6411  -30.6613   24.0432 C   0  0  0  0  0  0
  -26.0183  -34.8185   23.6355 C   0  0  0  0  0  0
  -16.5200  -29.9220   23.6292 C   0  0  0  0  0  0
  -16.6952  -28.6590   23.0379 C   0  0  0  0  0  0
  -26.6425  -31.6215   25.3428 C   0  0  0  0  0  0
  -25.5137  -31.4757   26.4105 C   0  0  0  0  0  0
  -27.3918  -30.2674   25.1468 C   0  0  0  0  0  0
  -27.7173  -32.5475   25.9412 C   0  0  0  0  0  0
  -27.5627  -37.1698   24.8779 C   0  0  0  0  0  0
  -21.3414  -29.2115   22.3116 N   0  0  0  0  0  0
  -26.4065  -37.3123   23.9992 N   0  0  0  0  0  0
  -24.7959  -30.5637   21.8337 N   0  0  0  0  0  0
  -23.3882  -28.2651   22.6179 O   0  0  0  0  0  0
  -28.1029  -28.6826   21.0636 O   0  0  0  0  0  0
  -26.8009  -34.8801   22.6829 O   0  0  0  0  0  0
  -24.8475  -30.3992   24.0376 O   0  0  0  0  0  0
  -27.2153  -23.4062   24.5709 C   0  0  0  0  0  0
  -28.2742  -22.4631   24.6549 C   0  0  0  0  0  0
  -26.3200  -21.9281   22.8887 C   0  0  0  0  0  0
  -26.1444  -23.2818   23.6690 C   0  0  0  0  0  0
  -28.4252  -21.2568   23.8840 C   0  0  0  0  0  0
  -27.4492  -20.8269   22.9301 C   0  0  0  0  0  0
  -24.9272  -24.4871   23.7326 C   0  0  0  0  0  0
  -27.6552  -19.1877   22.1902 C   0  0  0  0  0  0
  -29.6731  -20.3903   24.1102 C   0  0  0  0  0  0
  -29.0418  -18.0112   21.7316 C   0  0  0  0  0  0
  -23.6076  -26.9804   24.7631 C   0  0  0  0  0  0
  -23.3036  -28.8301   25.1049 C   0  0  0  0  0  0
  -27.8432  -30.2460   21.7019 C   0  0  0  0  0  0
  -27.1744  -32.0004   21.4328 C   0  0  0  0  0  0
  -22.9263  -31.9101   23.7002 C   0  0  0  0  0  0
  -23.9191  -32.8702   22.3065 C   0  0  0  0  0  0
  -24.8405  -25.8576   24.3588 N   0  0  0  0  0  0
  -29.1690  -16.3527   21.2897 N   0  0  0  0  0  0
  -30.6355  -20.9148   25.0966 N   0  3  0  0  0  0
  -23.9006  -24.1375   23.1509 O   0  0  0  0  0  0
  -22.6108  -30.3219   24.4302 O   0  0  0  0  0  0
  -25.6072  -32.8972   21.6583 O   0  0  0  0  0  0
  -31.4081  -13.2132   19.3613 H   0  0  0  0  0  0
  -30.5440  -11.9584   20.1882 H   0  0  0  0  0  0
  -29.9873  -11.8545   17.7678 H   0  0  0  0  0  0
  -29.5768  -13.5569   17.7517 H   0  0  0  0  0  0
  -28.0459  -11.2867   19.0596 H   0  0  0  0  0  0
  -27.4503  -12.3926   17.8434 H   0  0  0  0  0  0
  -27.5398  -14.2517   19.4185 H   0  0  0  0  0  0
  -28.7156  -12.3057   21.4676 H   0  0  0  0  0  0
  -28.1067  -13.8965   21.8588 H   0  0  0  0  0  0
  -25.2741   -9.5690   22.4750 H   0  0  0  0  0  0
  -24.0005   -7.4601   22.7490 H   0  0  0  0  0  0
  -21.0766   -8.8687   19.8970 H   0  0  0  0  0  0
  -22.3584  -10.9623   19.6170 H   0  0  0  0  0  0
  -21.2003   -7.6158   23.9708 H   0  0  0  0  0  0
  -21.1489   -6.0547   25.9090 H   0  0  0  0  0  0
  -22.0598   -2.7613   23.2851 H   0  0  0  0  0  0
  -22.4037  -11.9767   22.4805 H   0  0  0  0  0  0
  -21.1021  -13.1134   22.2846 H   0  0  0  0  0  0
  -24.6207  -15.8366   20.5469 H   0  0  0  0  0  0
  -26.2189  -15.6367   20.0438 H   0  0  0  0  0  0
  -27.1712  -32.3135   23.6403 H   0  0  0  0  0  0
  -25.0102  -33.7059   25.0047 H   0  0  0  0  0  0
  -22.6734  -30.9239   21.2819 H   0  0  0  0  0  0
  -23.3618  -35.8913   23.4874 H   0  0  0  0  0  0
  -24.3703  -36.6132   22.2359 H   0  0  0  0  0  0
  -23.8005  -37.5741   23.6041 H   0  0  0  0  0  0
  -24.4079  -31.3131   19.8784 H   0  0  0  0  0  0
  -25.7041  -31.6399   19.8611 H   0  0  0  0  0  0
  -27.6213  -30.1229   19.3697 H   0  0  0  0  0  0
  -26.6827  -26.0629   20.3641 H   0  0  0  0  0  0
  -24.2766  -26.5445   19.7685 H   0  0  0  0  0  0
  -23.0347  -29.9282   19.1900 H   0  0  0  0  0  0
  -22.5468  -28.4943   19.9564 H   0  0  0  0  0  0
  -25.1426  -36.0959   25.1584 H   0  0  0  0  0  0
  -20.9483  -28.2973   24.1158 H   0  0  0  0  0  0
  -20.4470  -26.1776   23.3848 H   0  0  0  0  0  0
  -21.5666  -26.6198   22.1419 H   0  0  0  0  0  0
  -19.6126  -25.5857   21.1387 H   0  0  0  0  0  0
  -19.6285  -27.2758   20.6743 H   0  0  0  0  0  0
  -17.3657  -26.6882   21.3864 H   0  0  0  0  0  0
  -17.9426  -25.9976   22.8877 H   0  0  0  0  0  0
  -19.7902  -30.7117   24.1938 H   0  0  0  0  0  0
  -17.5063  -31.6401   24.4885 H   0  0  0  0  0  0
  -15.5250  -30.3285   23.7521 H   0  0  0  0  0  0
  -15.8266  -28.1031   22.7075 H   0  0  0  0  0  0
  -25.4909  -30.4773   26.8476 H   0  0  0  0  0  0
  -24.5142  -31.6883   26.0403 H   0  0  0  0  0  0
  -25.6566  -32.1623   27.2470 H   0  0  0  0  0  0
  -26.8337  -29.4116   24.7722 H   0  0  0  0  0  0
  -27.7443  -29.9208   26.1195 H   0  0  0  0  0  0
  -28.3042  -30.3884   24.5655 H   0  0  0  0  0  0
  -27.3222  -33.5229   26.2269 H   0  0  0  0  0  0
  -28.5519  -32.7196   25.2596 H   0  0  0  0  0  0
  -28.1433  -32.1158   26.8477 H   0  0  0  0  0  0
  -28.2197  -38.0335   24.7745 H   0  0  0  0  0  0
  -28.1533  -36.2819   24.6464 H   0  0  0  0  0  0
  -27.2555  -37.1130   25.9234 H   0  0  0  0  0  0
  -20.8554  -29.9631   21.8466 H   0  0  0  0  0  0
  -25.9596  -38.2021   24.2028 H   0  0  0  0  0  0
  -27.2250  -24.2496   25.2490 H   0  0  0  0  0  0
  -29.0067  -22.7163   25.4071 H   0  0  0  0  0  0
  -25.4971  -21.7113   22.2201 H   0  0  0  0  0  0
  -27.0364  -19.2464   21.2944 H   0  0  0  0  0  0
  -27.0490  -18.5870   22.8670 H   0  0  0  0  0  0
  -30.1936  -20.2945   23.1577 H   0  0  0  0  0  0
  -29.3701  -19.3881   24.4198 H   0  0  0  0  0  0
  -29.7559  -18.0654   22.5512 H   0  0  0  0  0  0
  -29.5530  -18.5151   20.9112 H   0  0  0  0  0  0
  -22.7381  -26.6111   24.2226 H   0  0  0  0  0  0
  -23.3931  -26.5905   25.7584 H   0  0  0  0  0  0
  -24.0770  -29.1084   25.8172 H   0  0  0  0  0  0
  -22.4740  -28.6915   25.7982 H   0  0  0  0  0  0
  -27.5497  -29.9291   22.6802 H   0  0  0  0  0  0
  -28.8903  -30.4994   21.8553 H   0  0  0  0  0  0
  -27.5085  -32.2551   20.4253 H   0  0  0  0  0  0
  -27.9305  -32.6426   21.8820 H   0  0  0  0  0  0
  -21.9024  -32.2111   23.4815 H   0  0  0  0  0  0
  -23.1483  -32.5036   24.5850 H   0  0  0  0  0  0
  -23.7199  -33.9104   22.5427 H   0  0  0  0  0  0
  -23.3225  -32.8331   21.3990 H   0  0  0  0  0  0
  -25.7280  -26.1236   24.7658 H   0  0  0  0  0  0
  -28.2697  -15.9144   21.4258 H   0  0  0  0  0  0
  -30.1840  -21.0495   25.9816 H   0  0  0  0  0  0
  -31.0188  -21.7888   24.7856 H   0  0  0  0  0  0
  -31.3897  -20.2663   25.2263 H   0  0  0  0  0  0
  1 25  1  0  0  0
  1 30  2  0  0  0
  1 88  1  0  0  0
  2  3  1  0  0  0
  2 25  1  0  0  0
  2 93  1  0  0  0
  2 94  1  0  0  0
  3  4  1  0  0  0
  3 95  1  0  0  0
  3 96  1  0  0  0
  4  5  1  0  0  0
  4 97  1  0  0  0
  4 98  1  0  0  0
  5  6  1  0  0  0
  5 26  1  0  0  0
  5 99  1  0  0  0
  6 25  1  0  0  0
  6100  1  0  0  0
  6101  1  0  0  0
  7  8  2  0  0  0
  7 26  1  0  0  0
  7 29  1  0  0  0
  8  9  1  0  0  0
  8 22  1  0  0  0
  9 10  1  0  0  0
  9 27  2  0  0  0
 10 11  2  0  0  0
 10 15  1  0  0  0
 11 12  1  0  0  0
 11102  1  0  0  0
 12 13  2  0  0  0
 12103  1  0  0  0
 13 14  1  0  0  0
 13 31  1  0  0  0
 14 15  2  0  0  0
 14104  1  0  0  0
 15105  1  0  0  0
 16 17  2  0  0  0
 16 21  1  0  0  0
 16 31  1  0  0  0
 17 18  1  0  0  0
 17106  1  0  0  0
 18 19  2  0  0  0
 18107  1  0  0  0
 19 20  1  0  0  0
 19 24  1  0  0  0
 20 21  2  0  0  0
 20108  1  0  0  0
 21 23  1  0  0  0
 22 28  1  0  0  0
 22 32  2  0  0  0
 26 27  1  0  0  0
 28109  1  0  0  0
 28110  1  0  0  0
 29111  1  0  0  0
 29112  1  0  0  0
 33 34  1  0  0  0
 33 66  1  0  0  0
 33 70  2  0  0  0
 34 36  1  0  0  0
 34 59  1  0  0  0
 34113  1  0  0  0
 35 44  2  0  0  0
 35 45  1  0  0  0
 35 68  1  0  0  0
 36 56  1  0  0  0
 36114  1  0  0  0
 37 39  1  0  0  0
 37 47  1  0  0  0
 37 66  1  0  0  0
 37115  1  0  0  0
 38 43  2  0  0  0
 38 46  1  0  0  0
 38 47  1  0  0  0
 39 64  1  0  0  0
 39 67  2  0  0  0
 40 52  1  0  0  0
 40 53  2  0  0  0
 40 58  1  0  0  0
 41116  1  0  0  0
 41117  1  0  0  0
 41118  1  0  0  0
 41 48  1  0  0  0
 42 43  1  0  0  0
 42 66  1  0  0  0
 42119  1  0  0  0
 42120  1  0  0  0
 43 44  1  0  0  0
 44121  1  0  0  0
 45 46  2  0  0  0
 45122  1  0  0  0
 46123  1  0  0  0
 47124  1  0  0  0
 47125  1  0  0  0
 48 56  1  0  0  0
 48 65  1  0  0  0
 48126  1  0  0  0
 49 50  1  0  0  0
 49 53  1  0  0  0
 49 64  1  0  0  0
 49127  1  0  0  0
 50 51  1  0  0  0
 50128  1  0  0  0
 50129  1  0  0  0
 51 52  1  0  0  0
 51130  1  0  0  0
 51131  1  0  0  0
 52132  1  0  0  0
 52133  1  0  0  0
 53 54  1  0  0  0
 54 55  2  0  0  0
 54134  1  0  0  0
 55 57  1  0  0  0
 55135  1  0  0  0
 56 69  2  0  0  0
 57 58  2  0  0  0
 57136  1  0  0  0
 58137  1  0  0  0
 59 60  1  0  0  0
 59 61  1  0  0  0
 59 62  1  0  0  0
 60138  1  0  0  0
 60139  1  0  0  0
 60140  1  0  0  0
 61141  1  0  0  0
 61142  1  0  0  0
 61143  1  0  0  0
 62144  1  0  0  0
 62145  1  0  0  0
 62146  1  0  0  0
 63 65  1  0  0  0
 63147  1  0  0  0
 63148  1  0  0  0
 63149  1  0  0  0
 64150  1  0  0  0
 65151  1  0  0  0
 68 83  1  0  0  0
 71 72  2  0  0  0
 71 74  1  0  0  0
 71152  1  0  0  0
 72 75  1  0  0  0
 72153  1  0  0  0
 73 74  2  0  0  0
 73 76  1  0  0  0
 73154  1  0  0  0
 74 77  1  0  0  0
 75 76  2  0  0  0
 75 79  1  0  0  0
 76 78  1  0  0  0
 77 87  1  0  0  0
 77 90  2  0  0  0
 78 80  1  0  0  0
 78155  1  0  0  0
 78156  1  0  0  0
 79 89  1  0  0  0
 79157  1  0  0  0
 79158  1  0  0  0
 80 88  1  0  0  0
 80159  1  0  0  0
 80160  1  0  0  0
 81 82  1  0  0  0
 81 87  1  0  0  0
 81161  1  0  0  0
 81162  1  0  0  0
 82 91  1  0  0  0
 82163  1  0  0  0
 82164  1  0  0  0
 83 84  1  0  0  0
 83165  1  0  0  0
 83166  1  0  0  0
 84 92  1  0  0  0
 84167  1  0  0  0
 84168  1  0  0  0
 85 86  1  0  0  0
 85 91  1  0  0  0
 85169  1  0  0  0
 85170  1  0  0  0
 86 92  1  0  0  0
 86171  1  0  0  0
 86172  1  0  0  0
 87173  1  0  0  0
 88174  1  0  0  0
 89175  1  0  0  0
 89176  1  0  0  0
 89177  1  0  0  0
M  CHG  1  89   1
M  ISO  4   1 100  68 101  83 101  88 100
M  END
> <chiral flag>
0

> <version>
0

> <s_m_source_file>
/data/baiqing/PycharmProjects/Reinvent-master-3.2/result/LINK_invent/BTK/process_docking_weight1_custom_product_contain_oxygen_bond_distance_aromatic_linkinvent_7_9_3/rearranged_h_0001.sdf

> <i_m_source_file_index>
43

> <r_mmod_Potential_Energy-OPLS-2005>
7216.22705078125

> <r_mmod_Stretch_Energy-OPLS-2005>
2492.23046875

> <r_mmod_Bend_Energy-OPLS-2005>
1691.06091308594

> <r_mmod_Torsional_Energy-OPLS-2005>
476.937316894531

> <r_mmod_Improper_Torsional_Energy-OPLS-2005>
35.8228874206543

> <r_mmod_Van_der_Waal_Energy-OPLS-2005>
1109.04309082031

> <r_mmod_Electrostatic_Energy-OPLS-2005>
-346.076904296875

> <r_mmod_Solvation_Energy-OPLS-2005>
-551.26806640625

> <b_mmod_Minimization_Converged-OPLS-2005>
0

> <r_mmod_RMS_Derivative-OPLS-2005>
5.18968963623047

$$$$
43
                    3D
 Structure written by MMmdl.
151159  0  0  1  0            999 V2000
  -30.6108  -14.7369   20.4652 C   0  0  0  0  0  0
  -30.4303  -12.4501   19.4613 C   0  0  0  0  0  0
  -29.5092  -12.5150   18.2240 C   0  0  0  0  0  0
  -28.0329  -12.3463   18.6355 C   0  0  0  0  0  0
  -27.6403  -13.2328   19.8479 C   0  0  2  0  0  0
  -28.6879  -13.1550   20.9795 C   0  0  0  0  0  0
  -25.2497  -13.8193   20.5689 C   0  0  0  0  0  0
  -24.1799  -13.0435   20.9206 C   0  0  0  0  0  0
  -24.6398  -11.6912   20.8753 C   0  0  0  0  0  0
  -23.9079  -10.4292   21.0417 C   0  0  0  0  0  0
  -24.3631   -9.4201   21.9188 C   0  0  0  0  0  0
  -23.6308   -8.2234   22.0757 C   0  0  0  0  0  0
  -22.4287   -8.0274   21.3552 C   0  0  0  0  0  0
  -21.9919   -9.0249   20.4646 C   0  0  0  0  0  0
  -22.7255  -10.2131   20.3059 C   0  0  0  0  0  0
  -21.6853   -6.0736   22.5291 C   0  0  0  0  0  0
  -21.4009   -6.5644   23.8224 C   0  0  0  0  0  0
  -21.3658   -5.6798   24.9187 C   0  0  0  0  0  0
  -21.6049   -4.3060   24.7238 C   0  0  0  0  0  0
  -21.8812   -3.8151   23.4357 C   0  0  0  0  0  0
  -21.9192   -4.6964   22.3413 C   0  0  0  0  0  0
  -22.7822  -13.5209   21.1871 C   0  0  0  0  0  0
  -22.1660   -4.2154   21.0987 F   0  0  0  0  0  0
  -21.5634   -3.4535   25.7747 F   0  0  0  0  0  0
  -29.9861  -13.5116   20.3939 N   0  0  0  0  0  0
  -26.2928  -12.9409   20.3266 N   0  0  0  0  0  0
  -25.9322  -11.6549   20.5736 N   0  0  0  0  0  0
  -22.0474  -12.8197   22.0424 N   0  0  0  0  0  0
  -25.4157  -15.1922   20.4071 N   0  0  0  0  0  0
  -31.8076  -14.8217   20.1744 O   0  0  0  0  0  0
  -21.6643   -6.8875   21.4250 O   0  0  0  0  0  0
  -22.3494  -14.5514   20.6713 O   0  0  0  0  0  0
  -24.6315  -31.8538   23.1952 C   0  0  0  0  0  0
  -25.9134  -32.4755   23.8306 C   0  0  1  0  0  0
  -27.2287  -27.2612   20.1419 C   0  0  0  0  0  0
  -25.5939  -33.8555   24.2243 N   0  0  0  0  0  0
  -23.4291  -30.4712   21.5394 C   0  0  2  0  0  0
  -24.8790  -28.9083   20.1172 C   0  0  0  0  0  0
  -22.7498  -29.4577   22.4918 C   0  0  0  0  0  0
  -18.0293  -28.1377   22.8474 C   0  0  0  0  0  0
  -24.1498  -36.7275   23.2638 C   0  0  0  0  0  0
  -25.9726  -30.7677   21.3723 C   0  0  0  0  0  0
  -26.0492  -29.3862   20.7216 C   0  0  0  0  0  0
  -27.2298  -28.5767   20.7163 C   0  0  0  0  0  0
  -26.0371  -26.8408   19.5176 C   0  0  0  0  0  0
  -24.8772  -27.6437   19.5044 C   0  0  0  0  0  0
  -23.6486  -29.7954   20.1592 C   0  0  0  0  0  0
  -25.4130  -36.3070   24.0322 C   0  0  1  0  0  0
  -20.5895  -28.3681   23.1277 C   0  0  2  0  0  0
  -20.6776  -26.9398   22.5411 C   0  0  0  0  0  0
  -19.5758  -26.6371   21.5208 C   0  0  0  0  0  0
  -18.1939  -26.7920   22.1614 C   0  0  0  0  0  0
  -19.1545  -28.8847   23.2870 C   0  0  0  0  0  0
  -18.9463  -30.1452   23.8879 C   0  0  0  0  0  0
  -17.6460  -30.6579   24.0551 C   0  0  0  0  0  0
  -25.9065  -34.9440   23.5084 C   0  0  0  0  0  0
  -16.5352  -29.9068   23.6332 C   0  0  0  0  0  0
  -16.7278  -28.6489   23.0348 C   0  0  0  0  0  0
  -26.4508  -31.6573   25.0691 C   0  0  0  0  0  0
  -25.3734  -31.3693   26.1406 C   0  0  0  0  0  0
  -27.0353  -30.3002   24.6146 C   0  0  0  0  0  0
  -27.6080  -32.4289   25.7468 C   0  0  0  0  0  0
  -27.5587  -37.1795   24.8465 C   0  0  0  0  0  0
  -21.4208  -29.3024   22.3661 N   0  0  0  0  0  0
  -26.4302  -37.3769   23.9402 N   0  0  0  0  0  0
  -24.6966  -31.0491   22.0930 N   0  0  0  0  0  0
  -23.4192  -28.8132   23.3031 O   0  0  0  0  0  0
  -28.3401  -26.3923   20.1368 O   0  0  0  0  0  0
  -26.5625  -34.8916   22.4647 O   0  0  0  0  0  0
  -23.5464  -32.1355   23.7252 O   0  0  0  0  0  0
  -31.7791  -19.0248   21.4916 C   0  0  0  0  0  0
  -30.9240  -20.0860   21.1258 C   0  0  0  0  0  0
  -31.4139  -17.6752   21.3042 C   0  0  0  0  0  0
  -29.2982  -18.4344   20.3830 C   0  0  0  0  0  0
  -29.6543  -19.8424   20.5589 C   0  0  0  0  0  0
  -30.1678  -17.3164   20.7420 C   0  0  0  0  0  0
  -28.8016  -21.0522   20.0523 C   0  0  0  0  0  0
  -28.6137  -23.6754   19.8142 C   0  0  0  0  0  0
  -28.2221  -24.9919   20.6795 C   0  0  0  0  0  0
  -29.8175  -15.8731   20.6119 N   0  0  0  0  0  0
  -29.0181  -22.3527   20.4874 N   0  0  0  0  0  0
  -27.9350  -20.8296   19.2054 O   0  0  0  0  0  0
  -31.4735  -12.5690   19.1619 H   0  0  0  0  0  0
  -30.3648  -11.4709   19.9378 H   0  0  0  0  0  0
  -29.7881  -11.7484   17.4993 H   0  0  0  0  0  0
  -29.6415  -13.4735   17.7201 H   0  0  0  0  0  0
  -27.8719  -11.2961   18.8783 H   0  0  0  0  0  0
  -27.3838  -12.5621   17.7867 H   0  0  0  0  0  0
  -27.6343  -14.2572   19.4763 H   0  0  0  0  0  0
  -28.7234  -12.1530   21.4088 H   0  0  0  0  0  0
  -28.4304  -13.8300   21.7973 H   0  0  0  0  0  0
  -25.2778   -9.5679   22.4754 H   0  0  0  0  0  0
  -24.0027   -7.4621   22.7469 H   0  0  0  0  0  0
  -21.0851   -8.8759   19.8945 H   0  0  0  0  0  0
  -22.3709  -10.9664   19.6167 H   0  0  0  0  0  0
  -21.1989   -7.6152   23.9724 H   0  0  0  0  0  0
  -21.1498   -6.0534   25.9092 H   0  0  0  0  0  0
  -22.0594   -2.7611   23.2865 H   0  0  0  0  0  0
  -22.4094  -11.9875   22.4840 H   0  0  0  0  0  0
  -21.1078  -13.1208   22.2609 H   0  0  0  0  0  0
  -24.6384  -15.8380   20.4950 H   0  0  0  0  0  0
  -26.2490  -15.6312   20.0384 H   0  0  0  0  0  0
  -26.7189  -32.5406   23.1038 H   0  0  0  0  0  0
  -25.0109  -33.9690   25.0405 H   0  0  0  0  0  0
  -22.7261  -31.2934   21.3884 H   0  0  0  0  0  0
  -23.3772  -35.9594   23.3299 H   0  0  0  0  0  0
  -24.3585  -36.8899   22.2052 H   0  0  0  0  0  0
  -23.7236  -37.6470   23.6662 H   0  0  0  0  0  0
  -26.1057  -31.5241   20.5978 H   0  0  0  0  0  0
  -26.8520  -30.8228   22.0025 H   0  0  0  0  0  0
  -28.1319  -28.9413   21.1874 H   0  0  0  0  0  0
  -26.0012  -25.8700   19.0429 H   0  0  0  0  0  0
  -23.9804  -27.2713   19.0285 H   0  0  0  0  0  0
  -23.7736  -30.5666   19.3978 H   0  0  0  0  0  0
  -22.7672  -29.2260   19.8576 H   0  0  0  0  0  0
  -25.1319  -36.1918   25.0813 H   0  0  0  0  0  0
  -20.9990  -28.3253   24.1398 H   0  0  0  0  0  0
  -20.5676  -26.2283   23.3604 H   0  0  0  0  0  0
  -21.6645  -26.7416   22.1213 H   0  0  0  0  0  0
  -19.6923  -25.6281   21.1239 H   0  0  0  0  0  0
  -19.6719  -27.3175   20.6734 H   0  0  0  0  0  0
  -17.4214  -26.6663   21.4011 H   0  0  0  0  0  0
  -18.0344  -26.0066   22.9016 H   0  0  0  0  0  0
  -19.7936  -30.7273   24.2245 H   0  0  0  0  0  0
  -17.5010  -31.6268   24.5136 H   0  0  0  0  0  0
  -15.5347  -30.2953   23.7676 H   0  0  0  0  0  0
  -15.8682  -28.0803   22.7063 H   0  0  0  0  0  0
  -24.5932  -30.7032   25.7706 H   0  0  0  0  0  0
  -24.8901  -32.2843   26.4835 H   0  0  0  0  0  0
  -25.8059  -30.8859   27.0173 H   0  0  0  0  0  0
  -26.2914  -29.6746   24.1204 H   0  0  0  0  0  0
  -27.4087  -29.7277   25.4641 H   0  0  0  0  0  0
  -27.8767  -30.4297   23.9341 H   0  0  0  0  0  0
  -27.2724  -33.3599   26.2043 H   0  0  0  0  0  0
  -28.3902  -32.6818   25.0302 H   0  0  0  0  0  0
  -28.0726  -31.8398   26.5381 H   0  0  0  0  0  0
  -28.2605  -38.0097   24.7528 H   0  0  0  0  0  0
  -28.1088  -36.2626   24.6286 H   0  0  0  0  0  0
  -27.2295  -37.1434   25.8866 H   0  0  0  0  0  0
  -20.9392  -29.8734   21.6857 H   0  0  0  0  0  0
  -26.0185  -38.2843   24.1411 H   0  0  0  0  0  0
  -32.7464  -19.2518   21.9194 H   0  0  0  0  0  0
  -31.2726  -21.1003   21.2636 H   0  0  0  0  0  0
  -32.1187  -16.9140   21.6116 H   0  0  0  0  0  0
  -28.3384  -18.2134   19.9354 H   0  0  0  0  0  0
  -29.4737  -23.9441   19.1997 H   0  0  0  0  0  0
  -27.8079  -23.4825   19.1046 H   0  0  0  0  0  0
  -28.8750  -24.9913   21.5525 H   0  0  0  0  0  0
  -27.2218  -24.8475   21.0893 H   0  0  0  0  0  0
  -28.8304  -15.6720   20.6284 H   0  0  0  0  0  0
  -29.6825  -22.4432   21.2434 H   0  0  0  0  0  0
  1 25  1  0  0  0
  1 30  2  0  0  0
  1 80  1  0  0  0
  2  3  1  0  0  0
  2 25  1  0  0  0
  2 83  1  0  0  0
  2 84  1  0  0  0
  3  4  1  0  0  0
  3 85  1  0  0  0
  3 86  1  0  0  0
  4  5  1  0  0  0
  4 87  1  0  0  0
  4 88  1  0  0  0
  5  6  1  0  0  0
  5 26  1  0  0  0
  5 89  1  0  0  0
  6 25  1  0  0  0
  6 90  1  0  0  0
  6 91  1  0  0  0
  7  8  2  0  0  0
  7 26  1  0  0  0
  7 29  1  0  0  0
  8  9  1  0  0  0
  8 22  1  0  0  0
  9 10  1  0  0  0
  9 27  2  0  0  0
 10 11  2  0  0  0
 10 15  1  0  0  0
 11 12  1  0  0  0
 11 92  1  0  0  0
 12 13  2  0  0  0
 12 93  1  0  0  0
 13 14  1  0  0  0
 13 31  1  0  0  0
 14 15  2  0  0  0
 14 94  1  0  0  0
 15 95  1  0  0  0
 16 17  2  0  0  0
 16 21  1  0  0  0
 16 31  1  0  0  0
 17 18  1  0  0  0
 17 96  1  0  0  0
 18 19  2  0  0  0
 18 97  1  0  0  0
 19 20  1  0  0  0
 19 24  1  0  0  0
 20 21  2  0  0  0
 20 98  1  0  0  0
 21 23  1  0  0  0
 22 28  1  0  0  0
 22 32  2  0  0  0
 26 27  1  0  0  0
 28 99  1  0  0  0
 28100  1  0  0  0
 29101  1  0  0  0
 29102  1  0  0  0
 33 34  1  0  0  0
 33 66  1  0  0  0
 33 70  2  0  0  0
 34 36  1  0  0  0
 34 59  1  0  0  0
 34103  1  0  0  0
 35 44  2  0  0  0
 35 45  1  0  0  0
 35 68  1  0  0  0
 36 56  1  0  0  0
 36104  1  0  0  0
 37 39  1  0  0  0
 37 47  1  0  0  0
 37 66  1  0  0  0
 37105  1  0  0  0
 38 43  2  0  0  0
 38 46  1  0  0  0
 38 47  1  0  0  0
 39 64  1  0  0  0
 39 67  2  0  0  0
 40 52  1  0  0  0
 40 53  2  0  0  0
 40 58  1  0  0  0
 41106  1  0  0  0
 41107  1  0  0  0
 41108  1  0  0  0
 41 48  1  0  0  0
 42 43  1  0  0  0
 42 66  1  0  0  0
 42109  1  0  0  0
 42110  1  0  0  0
 43 44  1  0  0  0
 44111  1  0  0  0
 45 46  2  0  0  0
 45112  1  0  0  0
 46113  1  0  0  0
 47114  1  0  0  0
 47115  1  0  0  0
 48 56  1  0  0  0
 48 65  1  0  0  0
 48116  1  0  0  0
 49 50  1  0  0  0
 49 53  1  0  0  0
 49 64  1  0  0  0
 49117  1  0  0  0
 50 51  1  0  0  0
 50118  1  0  0  0
 50119  1  0  0  0
 51 52  1  0  0  0
 51120  1  0  0  0
 51121  1  0  0  0
 52122  1  0  0  0
 52123  1  0  0  0
 53 54  1  0  0  0
 54 55  2  0  0  0
 54124  1  0  0  0
 55 57  1  0  0  0
 55125  1  0  0  0
 56 69  2  0  0  0
 57 58  2  0  0  0
 57126  1  0  0  0
 58127  1  0  0  0
 59 60  1  0  0  0
 59 61  1  0  0  0
 59 62  1  0  0  0
 60128  1  0  0  0
 60129  1  0  0  0
 60130  1  0  0  0
 61131  1  0  0  0
 61132  1  0  0  0
 61133  1  0  0  0
 62134  1  0  0  0
 62135  1  0  0  0
 62136  1  0  0  0
 63 65  1  0  0  0
 63137  1  0  0  0
 63138  1  0  0  0
 63139  1  0  0  0
 64140  1  0  0  0
 65141  1  0  0  0
 68 79  1  0  0  0
 71 72  2  0  0  0
 71 73  1  0  0  0
 71142  1  0  0  0
 72 75  1  0  0  0
 72143  1  0  0  0
 73 76  2  0  0  0
 73144  1  0  0  0
 74 75  2  0  0  0
 74 76  1  0  0  0
 74145  1  0  0  0
 75 77  1  0  0  0
 76 80  1  0  0  0
 77 81  1  0  0  0
 77 82  2  0  0  0
 78 79  1  0  0  0
 78 81  1  0  0  0
 78146  1  0  0  0
 78147  1  0  0  0
 79148  1  0  0  0
 79149  1  0  0  0
 80150  1  0  0  0
 81151  1  0  0  0
M  ISO  4   1 100  68 101  79 101  80 100
M  END
> <chiral flag>
0

> <version>
0

> <s_m_source_file>
/data/baiqing/PycharmProjects/Reinvent-master-3.2/result/LINK_invent/BTK/process_docking_weight1_custom_product_contain_oxygen_bond_distance_aromatic_linkinvent_7_9_3/rearranged_h_0001.sdf

> <i_m_source_file_index>
44

> <r_mmod_Potential_Energy-OPLS-2005>
78.586296081543

> <r_mmod_Stretch_Energy-OPLS-2005>
125.418853759766

> <r_mmod_Bend_Energy-OPLS-2005>
158.979034423828

> <r_mmod_Torsional_Energy-OPLS-2005>
249.130096435547

> <r_mmod_Improper_Torsional_Energy-OPLS-2005>
6.98363304138184

> <r_mmod_Van_der_Waal_Energy-OPLS-2005>
135.837265014648

> <r_mmod_Electrostatic_Energy-OPLS-2005>
-442.598510742188

> <r_mmod_Solvation_Energy-OPLS-2005>
-235.281036376953

> <b_mmod_Minimization_Converged-OPLS-2005>
0

> <r_mmod_RMS_Derivative-OPLS-2005>
1.91622853279114

$$$$
44
                    3D
 Structure written by MMmdl.
143151  0  0  1  0            999 V2000
  -30.2987  -15.5756   20.3426 C   0  0  0  0  0  0
  -30.4350  -13.0341   19.5492 C   0  0  0  0  0  0
  -29.5562  -12.6490   18.3241 C   0  0  0  0  0  0
  -28.1207  -12.3075   18.7557 C   0  0  0  0  0  0
  -27.6009  -13.3030   19.8183 C   0  0  2  0  0  0
  -28.6191  -13.5912   20.9466 C   0  0  0  0  0  0
  -25.2328  -13.8278   20.5775 C   0  0  0  0  0  0
  -24.1718  -13.0431   20.9280 C   0  0  0  0  0  0
  -24.6411  -11.6939   20.8757 C   0  0  0  0  0  0
  -23.9110  -10.4291   21.0397 C   0  0  0  0  0  0
  -24.3647   -9.4210   21.9185 C   0  0  0  0  0  0
  -23.6303   -8.2251   22.0758 C   0  0  0  0  0  0
  -22.4282   -8.0288   21.3548 C   0  0  0  0  0  0
  -21.9931   -9.0267   20.4653 C   0  0  0  0  0  0
  -22.7272  -10.2136   20.3053 C   0  0  0  0  0  0
  -21.6858   -6.0739   22.5276 C   0  0  0  0  0  0
  -21.4025   -6.5643   23.8212 C   0  0  0  0  0  0
  -21.3669   -5.6792   24.9175 C   0  0  0  0  0  0
  -21.6042   -4.3053   24.7219 C   0  0  0  0  0  0
  -21.8819   -3.8147   23.4341 C   0  0  0  0  0  0
  -21.9194   -4.6968   22.3402 C   0  0  0  0  0  0
  -22.7732  -13.5168   21.1911 C   0  0  0  0  0  0
  -22.1660   -4.2156   21.0979 F   0  0  0  0  0  0
  -21.5628   -3.4537   25.7734 F   0  0  0  0  0  0
  -29.8066  -14.2028   20.3081 N   0  0  0  0  0  0
  -26.2782  -12.9597   20.3215 N   0  0  0  0  0  0
  -25.9355  -11.6675   20.5681 N   0  0  0  0  0  0
  -22.0389  -12.8158   22.0466 N   0  0  0  0  0  0
  -25.3906  -15.2023   20.4224 N   0  0  0  0  0  0
  -31.5278  -15.5626   20.1384 O   0  0  0  0  0  0
  -21.6641   -6.8886   21.4239 O   0  0  0  0  0  0
  -22.3417  -14.5462   20.6743 O   0  0  0  0  0  0
  -24.6817  -31.8031   23.1563 C   0  0  0  0  0  0
  -25.9405  -32.4494   23.8095 C   0  0  1  0  0  0
  -27.2231  -26.7240   20.2079 C   0  0  0  0  0  0
  -25.5986  -33.8317   24.1976 N   0  0  0  0  0  0
  -23.5068  -30.4084   21.5100 C   0  0  2  0  0  0
  -24.9639  -28.7567   20.1215 C   0  0  0  0  0  0
  -22.7755  -29.4342   22.4723 C   0  0  0  0  0  0
  -18.0336  -28.1422   22.8450 C   0  0  0  0  0  0
  -24.1498  -36.7174   23.2650 C   0  0  0  0  0  0
  -26.0882  -30.5417   21.4210 C   0  0  0  0  0  0
  -26.1537  -29.1090   20.7710 C   0  0  0  0  0  0
  -27.2687  -28.1186   20.7882 C   0  0  0  0  0  0
  -26.0000  -26.5835   19.5023 C   0  0  0  0  0  0
  -24.9233  -27.5156   19.4672 C   0  0  0  0  0  0
  -23.7607  -29.7105   20.1443 C   0  0  0  0  0  0
  -25.4151  -36.2919   24.0280 C   0  0  1  0  0  0
  -20.5971  -28.3782   23.1143 C   0  0  2  0  0  0
  -20.6809  -26.9442   22.5399 C   0  0  0  0  0  0
  -19.5782  -26.6370   21.5214 C   0  0  0  0  0  0
  -18.1966  -26.7948   22.1619 C   0  0  0  0  0  0
  -19.1601  -28.8923   23.2778 C   0  0  0  0  0  0
  -18.9510  -30.1507   23.8823 C   0  0  0  0  0  0
  -17.6501  -30.6605   24.0546 C   0  0  0  0  0  0
  -25.9122  -34.9302   23.4962 C   0  0  0  0  0  0
  -16.5390  -29.9086   23.6349 C   0  0  0  0  0  0
  -16.7317  -28.6509   23.0364 C   0  0  0  0  0  0
  -26.4577  -31.6523   25.0711 C   0  0  0  0  0  0
  -25.3638  -31.3853   26.1326 C   0  0  0  0  0  0
  -27.0495  -30.2851   24.6618 C   0  0  0  0  0  0
  -27.6022  -32.4383   25.7531 C   0  0  0  0  0  0
  -27.5568  -37.1757   24.8467 C   0  0  0  0  0  0
  -21.4403  -29.3035   22.3466 N   0  0  0  0  0  0
  -26.4289  -37.3669   23.9390 N   0  0  0  0  0  0
  -24.7825  -30.9492   22.0822 N   0  0  0  0  0  0
  -23.4204  -28.7929   23.3053 O   0  0  0  0  0  0
  -28.1610  -25.4883   20.2496 O   0  0  0  0  0  0
  -26.5761  -34.8863   22.4578 O   0  0  0  0  0  0
  -23.5841  -32.1092   23.6527 O   0  0  0  0  0  0
  -29.7828  -21.2920   20.0003 C   0  0  0  0  0  0
  -27.7449  -20.8148   20.7179 C   0  0  0  0  0  0
  -30.1269  -19.7835   20.0189 C   0  0  0  0  0  0
  -28.0767  -19.3343   20.7407 C   0  0  0  0  0  0
  -28.5208  -22.0288   20.3473 C   0  0  0  0  0  0
  -29.3063  -18.5838   20.3946 C   0  0  0  0  0  0
  -27.7746  -23.7103   20.3643 C   0  0  0  0  0  0
  -29.4576  -16.8712   20.4446 N   0  0  0  0  0  0
  -26.5601  -23.5804   20.5320 O   0  0  0  0  0  0
  -31.4322  -13.2978   19.1950 H   0  0  0  0  0  0
  -30.5844  -12.1744   20.2047 H   0  0  0  0  0  0
  -29.9980  -11.8108   17.7837 H   0  0  0  0  0  0
  -29.5348  -13.4872   17.6256 H   0  0  0  0  0  0
  -28.1277  -11.3008   19.1750 H   0  0  0  0  0  0
  -27.4554  -12.2762   17.8926 H   0  0  0  0  0  0
  -27.4774  -14.2394   19.2724 H   0  0  0  0  0  0
  -28.8605  -12.6897   21.5124 H   0  0  0  0  0  0
  -28.1976  -14.2975   21.6641 H   0  0  0  0  0  0
  -25.2793   -9.5684   22.4766 H   0  0  0  0  0  0
  -24.0017   -7.4643   22.7481 H   0  0  0  0  0  0
  -21.0865   -8.8797   19.8955 H   0  0  0  0  0  0
  -22.3738  -10.9684   19.6168 H   0  0  0  0  0  0
  -21.2021   -7.6151   23.9717 H   0  0  0  0  0  0
  -21.1491   -6.0522   25.9079 H   0  0  0  0  0  0
  -22.0585   -2.7607   23.2830 H   0  0  0  0  0  0
  -22.4018  -11.9849   22.4900 H   0  0  0  0  0  0
  -21.1006  -13.1184   22.2657 H   0  0  0  0  0  0
  -24.6072  -15.8384   20.5219 H   0  0  0  0  0  0
  -26.2122  -15.6452   20.0342 H   0  0  0  0  0  0
  -26.7486  -32.4969   23.0807 H   0  0  0  0  0  0
  -25.0028  -33.9374   25.0058 H   0  0  0  0  0  0
  -22.8310  -31.2459   21.3238 H   0  0  0  0  0  0
  -23.3767  -35.9500   23.3299 H   0  0  0  0  0  0
  -24.3556  -36.8847   22.2067 H   0  0  0  0  0  0
  -23.7264  -37.6352   23.6736 H   0  0  0  0  0  0
  -26.2914  -31.2683   20.6329 H   0  0  0  0  0  0
  -26.9399  -30.6075   22.0860 H   0  0  0  0  0  0
  -28.1639  -28.3918   21.3281 H   0  0  0  0  0  0
  -25.8319  -25.6458   18.9929 H   0  0  0  0  0  0
  -24.0238  -27.2339   18.9362 H   0  0  0  0  0  0
  -23.9385  -30.4734   19.3858 H   0  0  0  0  0  0
  -22.8648  -29.1800   19.8166 H   0  0  0  0  0  0
  -25.1365  -36.1693   25.0773 H   0  0  0  0  0  0
  -21.0055  -28.3414   24.1271 H   0  0  0  0  0  0
  -20.5684  -26.2404   23.3660 H   0  0  0  0  0  0
  -21.6673  -26.7394   22.1214 H   0  0  0  0  0  0
  -19.6941  -25.6262   21.1296 H   0  0  0  0  0  0
  -19.6724  -27.3135   20.6709 H   0  0  0  0  0  0
  -17.4230  -26.6674   21.4033 H   0  0  0  0  0  0
  -18.0359  -26.0120   22.9043 H   0  0  0  0  0  0
  -19.7986  -30.7338   24.2166 H   0  0  0  0  0  0
  -17.5053  -31.6280   24.5160 H   0  0  0  0  0  0
  -15.5388  -30.2963   23.7725 H   0  0  0  0  0  0
  -15.8718  -28.0805   22.7126 H   0  0  0  0  0  0
  -24.5819  -30.7213   25.7623 H   0  0  0  0  0  0
  -24.8829  -32.3084   26.4570 H   0  0  0  0  0  0
  -25.7799  -30.9118   27.0227 H   0  0  0  0  0  0
  -26.3197  -29.6471   24.1625 H   0  0  0  0  0  0
  -27.3913  -29.7302   25.5367 H   0  0  0  0  0  0
  -27.9193  -30.3954   24.0141 H   0  0  0  0  0  0
  -27.2548  -33.3730   26.1941 H   0  0  0  0  0  0
  -28.3923  -32.6881   25.0442 H   0  0  0  0  0  0
  -28.0594  -31.8636   26.5592 H   0  0  0  0  0  0
  -28.2583  -38.0051   24.7477 H   0  0  0  0  0  0
  -28.1065  -36.2574   24.6352 H   0  0  0  0  0  0
  -27.2268  -37.1464   25.8864 H   0  0  0  0  0  0
  -20.9701  -29.8686   21.6531 H   0  0  0  0  0  0
  -26.0122  -38.2726   24.1364 H   0  0  0  0  0  0
  -30.5856  -21.9284   19.6554 H   0  0  0  0  0  0
  -26.7321  -21.0287   21.0307 H   0  0  0  0  0  0
  -31.1295  -19.5518   19.6887 H   0  0  0  0  0  0
  -27.2550  -18.7116   21.0674 H   0  0  0  0  0  0
  -28.5348  -16.5055   20.6296 H   0  0  0  0  0  0
  1 25  1  0  0  0
  1 30  2  0  0  0
  1 78  1  0  0  0
  2  3  1  0  0  0
  2 25  1  0  0  0
  2 80  1  0  0  0
  2 81  1  0  0  0
  3  4  1  0  0  0
  3 82  1  0  0  0
  3 83  1  0  0  0
  4  5  1  0  0  0
  4 84  1  0  0  0
  4 85  1  0  0  0
  5  6  1  0  0  0
  5 26  1  0  0  0
  5 86  1  0  0  0
  6 25  1  0  0  0
  6 87  1  0  0  0
  6 88  1  0  0  0
  7  8  2  0  0  0
  7 26  1  0  0  0
  7 29  1  0  0  0
  8  9  1  0  0  0
  8 22  1  0  0  0
  9 10  1  0  0  0
  9 27  2  0  0  0
 10 11  2  0  0  0
 10 15  1  0  0  0
 11 12  1  0  0  0
 11 89  1  0  0  0
 12 13  2  0  0  0
 12 90  1  0  0  0
 13 14  1  0  0  0
 13 31  1  0  0  0
 14 15  2  0  0  0
 14 91  1  0  0  0
 15 92  1  0  0  0
 16 17  2  0  0  0
 16 21  1  0  0  0
 16 31  1  0  0  0
 17 18  1  0  0  0
 17 93  1  0  0  0
 18 19  2  0  0  0
 18 94  1  0  0  0
 19 20  1  0  0  0
 19 24  1  0  0  0
 20 21  2  0  0  0
 20 95  1  0  0  0
 21 23  1  0  0  0
 22 28  1  0  0  0
 22 32  2  0  0  0
 26 27  1  0  0  0
 28 96  1  0  0  0
 28 97  1  0  0  0
 29 98  1  0  0  0
 29 99  1  0  0  0
 33 34  1  0  0  0
 33 66  1  0  0  0
 33 70  2  0  0  0
 34 36  1  0  0  0
 34 59  1  0  0  0
 34100  1  0  0  0
 35 44  2  0  0  0
 35 45  1  0  0  0
 35 68  1  0  0  0
 36 56  1  0  0  0
 36101  1  0  0  0
 37 39  1  0  0  0
 37 47  1  0  0  0
 37 66  1  0  0  0
 37102  1  0  0  0
 38 43  2  0  0  0
 38 46  1  0  0  0
 38 47  1  0  0  0
 39 64  1  0  0  0
 39 67  2  0  0  0
 40 52  1  0  0  0
 40 53  2  0  0  0
 40 58  1  0  0  0
 41103  1  0  0  0
 41104  1  0  0  0
 41105  1  0  0  0
 41 48  1  0  0  0
 42 43  1  0  0  0
 42 66  1  0  0  0
 42106  1  0  0  0
 42107  1  0  0  0
 43 44  1  0  0  0
 44108  1  0  0  0
 45 46  2  0  0  0
 45109  1  0  0  0
 46110  1  0  0  0
 47111  1  0  0  0
 47112  1  0  0  0
 48 56  1  0  0  0
 48 65  1  0  0  0
 48113  1  0  0  0
 49 50  1  0  0  0
 49 53  1  0  0  0
 49 64  1  0  0  0
 49114  1  0  0  0
 50 51  1  0  0  0
 50115  1  0  0  0
 50116  1  0  0  0
 51 52  1  0  0  0
 51117  1  0  0  0
 51118  1  0  0  0
 52119  1  0  0  0
 52120  1  0  0  0
 53 54  1  0  0  0
 54 55  2  0  0  0
 54121  1  0  0  0
 55 57  1  0  0  0
 55122  1  0  0  0
 56 69  2  0  0  0
 57 58  2  0  0  0
 57123  1  0  0  0
 58124  1  0  0  0
 59 60  1  0  0  0
 59 61  1  0  0  0
 59 62  1  0  0  0
 60125  1  0  0  0
 60126  1  0  0  0
 60127  1  0  0  0
 61128  1  0  0  0
 61129  1  0  0  0
 61130  1  0  0  0
 62131  1  0  0  0
 62132  1  0  0  0
 62133  1  0  0  0
 63 65  1  0  0  0
 63134  1  0  0  0
 63135  1  0  0  0
 63136  1  0  0  0
 64137  1  0  0  0
 65138  1  0  0  0
 68 77  1  0  0  0
 71 73  2  0  0  0
 71 75  1  0  0  0
 71139  1  0  0  0
 72 74  1  0  0  0
 72 75  2  0  0  0
 72140  1  0  0  0
 73 76  1  0  0  0
 73141  1  0  0  0
 74 76  2  0  0  0
 74142  1  0  0  0
 75 77  1  0  0  0
 76 78  1  0  0  0
 77 79  2  0  0  0
 78143  1  0  0  0
M  ISO  4   1 100  68 101  77 101  78 100
M  END
> <chiral flag>
0

> <version>
0

> <s_m_source_file>
/data/baiqing/PycharmProjects/Reinvent-master-3.2/result/LINK_invent/BTK/process_docking_weight1_custom_product_contain_oxygen_bond_distance_aromatic_linkinvent_7_9_3/rearranged_h_0001.sdf

> <i_m_source_file_index>
45

> <r_mmod_Potential_Energy-OPLS-2005>
2317.6826171875

> <r_mmod_Stretch_Energy-OPLS-2005>
971.868286132812

> <r_mmod_Bend_Energy-OPLS-2005>
700.785766601562

> <r_mmod_Torsional_Energy-OPLS-2005>
210.507049560547

> <r_mmod_Improper_Torsional_Energy-OPLS-2005>
3.51418352127075

> <r_mmod_Van_der_Waal_Energy-OPLS-2005>
133.609512329102

> <r_mmod_Electrostatic_Energy-OPLS-2005>
-324.899841308594

> <r_mmod_Solvation_Energy-OPLS-2005>
-218.083419799805

> <b_mmod_Minimization_Converged-OPLS-2005>
0

> <r_mmod_RMS_Derivative-OPLS-2005>
1.56283736228943

$$$$
45
                    3D
 Structure written by MMmdl.
158165  0  0  1  0            999 V2000
  -30.7658  -14.3889   20.6360 C   0  0  0  0  0  0
  -30.4074  -12.2785   19.4144 C   0  0  0  0  0  0
  -29.4903  -12.5247   18.1997 C   0  0  0  0  0  0
  -28.0096  -12.3990   18.6040 C   0  0  0  0  0  0
  -27.6673  -13.2142   19.8803 C   0  0  2  0  0  0
  -28.7046  -12.9686   21.0009 C   0  0  0  0  0  0
  -25.2610  -13.8184   20.5647 C   0  0  0  0  0  0
  -24.1858  -13.0456   20.9146 C   0  0  0  0  0  0
  -24.6424  -11.6929   20.8746 C   0  0  0  0  0  0
  -23.9089  -10.4310   21.0422 C   0  0  0  0  0  0
  -24.3632   -9.4216   21.9193 C   0  0  0  0  0  0
  -23.6297   -8.2260   22.0762 C   0  0  0  0  0  0
  -22.4270   -8.0312   21.3575 C   0  0  0  0  0  0
  -21.9914   -9.0289   20.4670 C   0  0  0  0  0  0
  -22.7263  -10.2147   20.3065 C   0  0  0  0  0  0
  -21.6865   -6.0758   22.5298 C   0  0  0  0  0  0
  -21.4021   -6.5664   23.8236 C   0  0  0  0  0  0
  -21.3647   -5.6804   24.9185 C   0  0  0  0  0  0
  -21.6029   -4.3063   24.7226 C   0  0  0  0  0  0
  -21.8820   -3.8171   23.4356 C   0  0  0  0  0  0
  -21.9192   -4.6994   22.3407 C   0  0  0  0  0  0
  -22.7896  -13.5264   21.1841 C   0  0  0  0  0  0
  -22.1674   -4.2188   21.0981 F   0  0  0  0  0  0
  -21.5602   -3.4532   25.7736 F   0  0  0  0  0  0
  -30.0476  -13.2474   20.4604 N   0  0  0  0  0  0
  -26.3053  -12.9366   20.3350 N   0  0  0  0  0  0
  -25.9345  -11.6514   20.5746 N   0  0  0  0  0  0
  -22.0528  -12.8243   22.0385 N   0  0  0  0  0  0
  -25.4334  -15.1903   20.4105 N   0  0  0  0  0  0
  -31.8181  -14.6281   20.0402 O   0  0  0  0  0  0
  -21.6647   -6.8898   21.4256 O   0  0  0  0  0  0
  -22.3575  -14.5598   20.6747 O   0  0  0  0  0  0
  -24.6101  -31.8715   23.2139 C   0  0  0  0  0  0
  -25.9010  -32.4844   23.8419 C   0  0  1  0  0  0
  -27.2304  -27.4522   20.0946 C   0  0  0  0  0  0
  -25.5879  -33.8642   24.2359 N   0  0  0  0  0  0
  -23.3960  -30.4948   21.5544 C   0  0  2  0  0  0
  -24.8404  -28.9644   20.1208 C   0  0  0  0  0  0
  -22.7356  -29.4691   22.5019 C   0  0  0  0  0  0
  -18.0253  -28.1394   22.8486 C   0  0  0  0  0  0
  -24.1489  -36.7329   23.2643 C   0  0  0  0  0  0
  -25.9212  -30.8438   21.3623 C   0  0  0  0  0  0
  -25.9996  -29.4780   20.7130 C   0  0  0  0  0  0
  -27.1971  -28.7292   20.6948 C   0  0  0  0  0  0
  -26.0461  -26.9464   19.5050 C   0  0  0  0  0  0
  -24.8574  -27.6953   19.5186 C   0  0  0  0  0  0
  -23.6038  -29.8301   20.1683 C   0  0  0  0  0  0
  -25.4106  -36.3135   24.0358 C   0  0  1  0  0  0
  -20.5828  -28.3668   23.1298 C   0  0  2  0  0  0
  -20.6728  -26.9382   22.5424 C   0  0  0  0  0  0
  -19.5700  -26.6354   21.5215 C   0  0  0  0  0  0
  -18.1898  -26.7920   22.1655 C   0  0  0  0  0  0
  -19.1504  -28.8837   23.2895 C   0  0  0  0  0  0
  -18.9473  -30.1463   23.8858 C   0  0  0  0  0  0
  -17.6481  -30.6617   24.0554 C   0  0  0  0  0  0
  -25.9029  -34.9498   23.5147 C   0  0  0  0  0  0
  -16.5367  -29.9126   23.6339 C   0  0  0  0  0  0
  -16.7258  -28.6546   23.0341 C   0  0  0  0  0  0
  -26.4436  -31.6599   25.0716 C   0  0  0  0  0  0
  -25.3739  -31.3674   26.1494 C   0  0  0  0  0  0
  -27.0236  -30.3066   24.5996 C   0  0  0  0  0  0
  -27.6022  -32.4286   25.7473 C   0  0  0  0  0  0
  -27.5581  -37.1820   24.8466 C   0  0  0  0  0  0
  -21.4087  -29.3057   22.3715 N   0  0  0  0  0  0
  -26.4307  -37.3794   23.9404 N   0  0  0  0  0  0
  -24.6609  -31.0829   22.1033 N   0  0  0  0  0  0
  -23.4132  -28.8227   23.3053 O   0  0  0  0  0  0
  -28.4214  -26.7587   20.0955 O   0  0  0  0  0  0
  -26.5578  -34.8930   22.4697 O   0  0  0  0  0  0
  -23.5302  -32.1467   23.7550 O   0  0  0  0  0  0
  -30.8032  -16.6265   21.6666 C   0  0  0  0  0  0
  -30.0066  -17.4124   22.7233 C   0  0  0  0  0  0
  -28.3843  -25.3277   20.1107 C   0  0  0  0  0  0
  -27.9345  -24.7756   21.4773 C   0  0  0  0  0  0
  -28.1748  -18.1294   21.3338 C   0  0  0  0  0  0
  -27.1010  -19.1651   21.7100 C   0  0  0  0  0  0
  -27.4055  -22.7646   22.6157 C   0  0  0  0  0  0
  -26.7461  -21.3890   22.4286 C   0  0  0  0  0  0
  -30.2482  -15.2873   21.4780 N   0  0  0  0  0  0
  -28.6015  -17.4062   22.4848 O   0  0  0  0  0  0
  -27.5942  -23.3981   21.3515 O   0  0  0  0  0  0
  -27.7040  -20.4209   22.0108 O   0  0  0  0  0  0
  -31.4545  -12.3509   19.1182 H   0  0  0  0  0  0
  -30.2767  -11.2628   19.7914 H   0  0  0  0  0  0
  -29.7224  -11.8254   17.3950 H   0  0  0  0  0  0
  -29.6777  -13.5220   17.7984 H   0  0  0  0  0  0
  -27.7996  -11.3426   18.7700 H   0  0  0  0  0  0
  -27.3646  -12.7129   17.7823 H   0  0  0  0  0  0
  -27.7166  -14.2687   19.6085 H   0  0  0  0  0  0
  -28.6574  -11.9347   21.3434 H   0  0  0  0  0  0
  -28.4595  -13.5680   21.8779 H   0  0  0  0  0  0
  -25.2789   -9.5683   22.4748 H   0  0  0  0  0  0
  -24.0037   -7.4633   22.7446 H   0  0  0  0  0  0
  -21.0869   -8.8814   19.8962 H   0  0  0  0  0  0
  -22.3768  -10.9680   19.6159 H   0  0  0  0  0  0
  -21.2035   -7.6184   23.9755 H   0  0  0  0  0  0
  -21.1443   -6.0531   25.9085 H   0  0  0  0  0  0
  -22.0608   -2.7644   23.2837 H   0  0  0  0  0  0
  -22.4168  -11.9919   22.4781 H   0  0  0  0  0  0
  -21.1157  -13.1310   22.2571 H   0  0  0  0  0  0
  -24.6752  -15.8507   20.5350 H   0  0  0  0  0  0
  -26.2984  -15.6303   20.1253 H   0  0  0  0  0  0
  -26.7092  -32.5561   23.1204 H   0  0  0  0  0  0
  -25.0030  -33.9781   25.0512 H   0  0  0  0  0  0
  -22.6840  -31.3118   21.4153 H   0  0  0  0  0  0
  -23.3746  -35.9659   23.3322 H   0  0  0  0  0  0
  -24.3596  -36.8909   22.2051 H   0  0  0  0  0  0
  -23.7252  -37.6548   23.6635 H   0  0  0  0  0  0
  -26.0240  -31.6055   20.5894 H   0  0  0  0  0  0
  -26.8156  -30.9024   21.9711 H   0  0  0  0  0  0
  -28.0959  -29.1251   21.1473 H   0  0  0  0  0  0
  -26.0144  -25.9838   19.0197 H   0  0  0  0  0  0
  -23.9650  -27.2922   19.0616 H   0  0  0  0  0  0
  -23.7141  -30.6060   19.4081 H   0  0  0  0  0  0
  -22.7275  -29.2498   19.8720 H   0  0  0  0  0  0
  -25.1284  -36.2002   25.0854 H   0  0  0  0  0  0
  -20.9891  -28.3229   24.1424 H   0  0  0  0  0  0
  -20.5602  -26.2251   23.3610 H   0  0  0  0  0  0
  -21.6611  -26.7407   22.1227 H   0  0  0  0  0  0
  -19.6846  -25.6250   21.1270 H   0  0  0  0  0  0
  -19.6652  -27.3143   20.6733 H   0  0  0  0  0  0
  -17.4137  -26.6615   21.4110 H   0  0  0  0  0  0
  -18.0347  -26.0112   22.9107 H   0  0  0  0  0  0
  -19.7981  -30.7257   24.2181 H   0  0  0  0  0  0
  -17.5108  -31.6305   24.5150 H   0  0  0  0  0  0
  -15.5386  -30.3040   23.7694 H   0  0  0  0  0  0
  -15.8663  -28.0877   22.7024 H   0  0  0  0  0  0
  -24.5943  -30.6961   25.7877 H   0  0  0  0  0  0
  -24.8897  -32.2806   26.4953 H   0  0  0  0  0  0
  -25.8157  -30.8882   27.0242 H   0  0  0  0  0  0
  -26.2729  -29.6882   24.1065 H   0  0  0  0  0  0
  -27.4075  -29.7227   25.4369 H   0  0  0  0  0  0
  -27.8537  -30.4433   23.9068 H   0  0  0  0  0  0
  -27.2658  -33.3587   26.2067 H   0  0  0  0  0  0
  -28.3831  -32.6835   25.0301 H   0  0  0  0  0  0
  -28.0682  -31.8392   26.5376 H   0  0  0  0  0  0
  -28.2621  -38.0097   24.7492 H   0  0  0  0  0  0
  -28.1059  -36.2630   24.6327 H   0  0  0  0  0  0
  -27.2290  -37.1508   25.8865 H   0  0  0  0  0  0
  -20.9228  -29.8741   21.6898 H   0  0  0  0  0  0
  -26.0211  -38.2877   24.1379 H   0  0  0  0  0  0
  -31.8503  -16.5537   21.9721 H   0  0  0  0  0  0
  -30.8015  -17.1641   20.7154 H   0  0  0  0  0  0
  -30.3767  -18.4353   22.8054 H   0  0  0  0  0  0
  -30.1733  -16.9517   23.6981 H   0  0  0  0  0  0
  -27.7738  -24.9237   19.3056 H   0  0  0  0  0  0
  -29.3912  -24.9687   19.9042 H   0  0  0  0  0  0
  -27.0649  -25.3227   21.8493 H   0  0  0  0  0  0
  -28.7350  -24.9156   22.2048 H   0  0  0  0  0  0
  -28.9949  -18.6094   20.7986 H   0  0  0  0  0  0
  -27.7358  -17.3974   20.6547 H   0  0  0  0  0  0
  -26.4948  -18.8077   22.5443 H   0  0  0  0  0  0
  -26.4299  -19.2956   20.8600 H   0  0  0  0  0  0
  -26.7483  -23.3755   23.2379 H   0  0  0  0  0  0
  -28.3573  -22.6684   23.1402 H   0  0  0  0  0  0
  -25.9108  -21.4697   21.7303 H   0  0  0  0  0  0
  -26.3306  -21.0636   23.3829 H   0  0  0  0  0  0
  -29.3893  -15.0652   21.9615 H   0  0  0  0  0  0
  1 25  1  0  0  0
  1 30  2  0  0  0
  1 79  1  0  0  0
  2  3  1  0  0  0
  2 25  1  0  0  0
  2 83  1  0  0  0
  2 84  1  0  0  0
  3  4  1  0  0  0
  3 85  1  0  0  0
  3 86  1  0  0  0
  4  5  1  0  0  0
  4 87  1  0  0  0
  4 88  1  0  0  0
  5  6  1  0  0  0
  5 26  1  0  0  0
  5 89  1  0  0  0
  6 25  1  0  0  0
  6 90  1  0  0  0
  6 91  1  0  0  0
  7  8  2  0  0  0
  7 26  1  0  0  0
  7 29  1  0  0  0
  8  9  1  0  0  0
  8 22  1  0  0  0
  9 10  1  0  0  0
  9 27  2  0  0  0
 10 11  2  0  0  0
 10 15  1  0  0  0
 11 12  1  0  0  0
 11 92  1  0  0  0
 12 13  2  0  0  0
 12 93  1  0  0  0
 13 14  1  0  0  0
 13 31  1  0  0  0
 14 15  2  0  0  0
 14 94  1  0  0  0
 15 95  1  0  0  0
 16 17  2  0  0  0
 16 21  1  0  0  0
 16 31  1  0  0  0
 17 18  1  0  0  0
 17 96  1  0  0  0
 18 19  2  0  0  0
 18 97  1  0  0  0
 19 20  1  0  0  0
 19 24  1  0  0  0
 20 21  2  0  0  0
 20 98  1  0  0  0
 21 23  1  0  0  0
 22 28  1  0  0  0
 22 32  2  0  0  0
 26 27  1  0  0  0
 28 99  1  0  0  0
 28100  1  0  0  0
 29101  1  0  0  0
 29102  1  0  0  0
 33 34  1  0  0  0
 33 66  1  0  0  0
 33 70  2  0  0  0
 34 36  1  0  0  0
 34 59  1  0  0  0
 34103  1  0  0  0
 35 44  2  0  0  0
 35 45  1  0  0  0
 35 68  1  0  0  0
 36 56  1  0  0  0
 36104  1  0  0  0
 37 39  1  0  0  0
 37 47  1  0  0  0
 37 66  1  0  0  0
 37105  1  0  0  0
 38 43  2  0  0  0
 38 46  1  0  0  0
 38 47  1  0  0  0
 39 64  1  0  0  0
 39 67  2  0  0  0
 40 52  1  0  0  0
 40 53  2  0  0  0
 40 58  1  0  0  0
 41106  1  0  0  0
 41107  1  0  0  0
 41108  1  0  0  0
 41 48  1  0  0  0
 42 43  1  0  0  0
 42 66  1  0  0  0
 42109  1  0  0  0
 42110  1  0  0  0
 43 44  1  0  0  0
 44111  1  0  0  0
 45 46  2  0  0  0
 45112  1  0  0  0
 46113  1  0  0  0
 47114  1  0  0  0
 47115  1  0  0  0
 48 56  1  0  0  0
 48 65  1  0  0  0
 48116  1  0  0  0
 49 50  1  0  0  0
 49 53  1  0  0  0
 49 64  1  0  0  0
 49117  1  0  0  0
 50 51  1  0  0  0
 50118  1  0  0  0
 50119  1  0  0  0
 51 52  1  0  0  0
 51120  1  0  0  0
 51121  1  0  0  0
 52122  1  0  0  0
 52123  1  0  0  0
 53 54  1  0  0  0
 54 55  2  0  0  0
 54124  1  0  0  0
 55 57  1  0  0  0
 55125  1  0  0  0
 56 69  2  0  0  0
 57 58  2  0  0  0
 57126  1  0  0  0
 58127  1  0  0  0
 59 60  1  0  0  0
 59 61  1  0  0  0
 59 62  1  0  0  0
 60128  1  0  0  0
 60129  1  0  0  0
 60130  1  0  0  0
 61131  1  0  0  0
 61132  1  0  0  0
 61133  1  0  0  0
 62134  1  0  0  0
 62135  1  0  0  0
 62136  1  0  0  0
 63 65  1  0  0  0
 63137  1  0  0  0
 63138  1  0  0  0
 63139  1  0  0  0
 64140  1  0  0  0
 65141  1  0  0  0
 68 73  1  0  0  0
 71 72  1  0  0  0
 71 79  1  0  0  0
 71142  1  0  0  0
 71143  1  0  0  0
 72 80  1  0  0  0
 72144  1  0  0  0
 72145  1  0  0  0
 73 74  1  0  0  0
 73146  1  0  0  0
 73147  1  0  0  0
 74 81  1  0  0  0
 74148  1  0  0  0
 74149  1  0  0  0
 75 76  1  0  0  0
 75 80  1  0  0  0
 75150  1  0  0  0
 75151  1  0  0  0
 76 82  1  0  0  0
 76152  1  0  0  0
 76153  1  0  0  0
 77 78  1  0  0  0
 77 81  1  0  0  0
 77154  1  0  0  0
 77155  1  0  0  0
 78 82  1  0  0  0
 78156  1  0  0  0
 78157  1  0  0  0
 79158  1  0  0  0
M  ISO  4   1 100  68 101  73 101  79 100
M  END
> <chiral flag>
0

> <version>
0

> <s_m_source_file>
/data/baiqing/PycharmProjects/Reinvent-master-3.2/result/LINK_invent/BTK/process_docking_weight1_custom_product_contain_oxygen_bond_distance_aromatic_linkinvent_7_9_3/rearranged_h_0001.sdf

> <i_m_source_file_index>
46

> <r_mmod_Potential_Energy-OPLS-2005>
-132.649719238281

> <r_mmod_Stretch_Energy-OPLS-2005>
31.9378795623779

> <r_mmod_Bend_Energy-OPLS-2005>
94.8774032592773

> <r_mmod_Torsional_Energy-OPLS-2005>
201.347106933594

> <r_mmod_Improper_Torsional_Energy-OPLS-2005>
1.87841999530792

> <r_mmod_Van_der_Waal_Energy-OPLS-2005>
137.073379516602

> <r_mmod_Electrostatic_Energy-OPLS-2005>
-394.197540283203

> <r_mmod_Solvation_Energy-OPLS-2005>
-213.581817626953

> <b_mmod_Minimization_Converged-OPLS-2005>
0

> <r_mmod_RMS_Derivative-OPLS-2005>
4.17057800292969

$$$$
46
                    3D
 Structure written by MMmdl.
158166  0  0  1  0            999 V2000
  -30.7398  -14.4652   20.5994 C   0  0  0  0  0  0
  -30.4142  -12.3060   19.4450 C   0  0  0  0  0  0
  -29.5029  -12.5181   18.2187 C   0  0  0  0  0  0
  -28.0213  -12.3817   18.6210 C   0  0  0  0  0  0
  -27.6638  -13.2203   19.8792 C   0  0  2  0  0  0
  -28.7021  -13.0126   21.0084 C   0  0  0  0  0  0
  -25.2559  -13.8202   20.5676 C   0  0  0  0  0  0
  -24.1824  -13.0458   20.9181 C   0  0  0  0  0  0
  -24.6399  -11.6935   20.8696 C   0  0  0  0  0  0
  -23.9051  -10.4311   21.0353 C   0  0  0  0  0  0
  -24.3596   -9.4235   21.9151 C   0  0  0  0  0  0
  -23.6304   -8.2255   22.0732 C   0  0  0  0  0  0
  -22.4290   -8.0276   21.3515 C   0  0  0  0  0  0
  -21.9904   -9.0249   20.4628 C   0  0  0  0  0  0
  -22.7203  -10.2143   20.3021 C   0  0  0  0  0  0
  -21.6864   -6.0759   22.5262 C   0  0  0  0  0  0
  -21.4058   -6.5659   23.8210 C   0  0  0  0  0  0
  -21.3659   -5.6794   24.9151 C   0  0  0  0  0  0
  -21.6041   -4.3066   24.7206 C   0  0  0  0  0  0
  -21.8814   -3.8152   23.4330 C   0  0  0  0  0  0
  -21.9212   -4.6983   22.3382 C   0  0  0  0  0  0
  -22.7831  -13.5233   21.1827 C   0  0  0  0  0  0
  -22.1645   -4.2167   21.0963 F   0  0  0  0  0  0
  -21.5608   -3.4535   25.7713 F   0  0  0  0  0  0
  -30.0393  -13.3017   20.4646 N   0  0  0  0  0  0
  -26.3027  -12.9415   20.3353 N   0  0  0  0  0  0
  -25.9345  -11.6562   20.5743 N   0  0  0  0  0  0
  -22.0458  -12.8254   22.0390 N   0  0  0  0  0  0
  -25.4260  -15.1911   20.4041 N   0  0  0  0  0  0
  -31.8416  -14.6189   20.0633 O   0  0  0  0  0  0
  -21.6646   -6.8873   21.4217 O   0  0  0  0  0  0
  -22.3528  -14.5528   20.6657 O   0  0  0  0  0  0
  -24.6111  -31.8684   23.2097 C   0  0  0  0  0  0
  -25.8998  -32.4835   23.8392 C   0  0  1  0  0  0
  -27.2613  -27.4526   20.1023 C   0  0  0  0  0  0
  -25.5865  -33.8636   24.2318 N   0  0  0  0  0  0
  -23.4016  -30.4882   21.5497 C   0  0  2  0  0  0
  -24.8577  -28.9550   20.1172 C   0  0  0  0  0  0
  -22.7390  -29.4655   22.5002 C   0  0  0  0  0  0
  -18.0268  -28.1368   22.8499 C   0  0  0  0  0  0
  -24.1489  -36.7323   23.2641 C   0  0  0  0  0  0
  -25.9265  -30.8437   21.3573 C   0  0  0  0  0  0
  -26.0135  -29.4752   20.7151 C   0  0  0  0  0  0
  -27.2176  -28.7350   20.7090 C   0  0  0  0  0  0
  -26.0908  -26.9534   19.4963 C   0  0  0  0  0  0
  -24.8903  -27.6919   19.5046 C   0  0  0  0  0  0
  -23.6126  -29.8128   20.1676 C   0  0  0  0  0  0
  -25.4112  -36.3111   24.0332 C   0  0  1  0  0  0
  -20.5860  -28.3651   23.1326 C   0  0  2  0  0  0
  -20.6756  -26.9398   22.5424 C   0  0  0  0  0  0
  -19.5746  -26.6383   21.5211 C   0  0  0  0  0  0
  -18.1921  -26.7918   22.1617 C   0  0  0  0  0  0
  -19.1519  -28.8829   23.2904 C   0  0  0  0  0  0
  -18.9443  -30.1431   23.8919 C   0  0  0  0  0  0
  -17.6446  -30.6585   24.0559 C   0  0  0  0  0  0
  -25.9024  -34.9482   23.5119 C   0  0  0  0  0  0
  -16.5342  -29.9083   23.6324 C   0  0  0  0  0  0
  -16.7254  -28.6495   23.0362 C   0  0  0  0  0  0
  -26.4461  -31.6597   25.0692 C   0  0  0  0  0  0
  -25.3747  -31.3702   26.1453 C   0  0  0  0  0  0
  -27.0262  -30.3039   24.6010 C   0  0  0  0  0  0
  -27.6031  -32.4331   25.7452 C   0  0  0  0  0  0
  -27.5576  -37.1816   24.8469 C   0  0  0  0  0  0
  -21.4128  -29.3014   22.3728 N   0  0  0  0  0  0
  -26.4296  -37.3792   23.9404 N   0  0  0  0  0  0
  -24.6649  -31.0800   22.0986 N   0  0  0  0  0  0
  -23.4163  -28.8212   23.3051 O   0  0  0  0  0  0
  -28.3777  -26.6383   20.0430 O   0  0  0  0  0  0
  -26.5600  -34.8934   22.4691 O   0  0  0  0  0  0
  -23.5304  -32.1426   23.7497 O   0  0  0  0  0  0
  -31.7428  -17.3819   21.0285 C   0  0  0  0  0  0
  -29.3500  -17.7970   21.0430 C   0  0  0  0  0  0
  -31.9814  -18.7326   20.6830 C   0  0  0  0  0  0
  -29.5870  -19.1513   20.6992 C   0  0  0  0  0  0
  -30.4226  -16.8753   21.1290 C   0  0  0  0  0  0
  -30.8985  -19.6097   20.4615 C   0  0  0  0  0  0
  -30.9081  -24.8120   20.1195 C   0  0  0  0  0  0
  -30.1921  -25.5186   21.2969 C   0  0  0  0  0  0
  -31.9398  -23.7316   20.5533 C   0  0  0  0  0  0
  -29.4517  -26.8441   20.9605 C   0  0  0  0  0  0
  -30.1353  -15.4731   21.2705 N   0  0  0  0  0  0
  -31.3423  -22.4140   20.8845 N   0  0  0  0  0  0
  -32.4739  -21.1553   18.9510 O   0  0  0  0  0  0
  -29.9766  -21.5814   18.8785 O   0  0  0  0  0  0
  -31.1780  -21.2157   19.6460 S   0  0  0  0  0  0
  -31.4652  -12.3731   19.1603 H   0  0  0  0  0  0
  -30.2833  -11.3001   19.8462 H   0  0  0  0  0  0
  -29.7551  -11.8028   17.4354 H   0  0  0  0  0  0
  -29.6802  -13.5121   17.8028 H   0  0  0  0  0  0
  -27.8289  -11.3253   18.8072 H   0  0  0  0  0  0
  -27.3777  -12.6600   17.7843 H   0  0  0  0  0  0
  -27.7074  -14.2689   19.5827 H   0  0  0  0  0  0
  -28.6694  -11.9813   21.3668 H   0  0  0  0  0  0
  -28.4579  -13.6293   21.8725 H   0  0  0  0  0  0
  -25.2744   -9.5781   22.4712 H   0  0  0  0  0  0
  -24.0044   -7.4688   22.7488 H   0  0  0  0  0  0
  -21.0813   -8.8756   19.8975 H   0  0  0  0  0  0
  -22.3619  -10.9672   19.6121 H   0  0  0  0  0  0
  -21.2068   -7.6166   23.9734 H   0  0  0  0  0  0
  -21.1469   -6.0497   25.9060 H   0  0  0  0  0  0
  -22.0600   -2.7621   23.2797 H   0  0  0  0  0  0
  -22.4111  -11.9959   22.4829 H   0  0  0  0  0  0
  -21.1083  -13.1287   22.2577 H   0  0  0  0  0  0
  -24.6534  -15.8402   20.5058 H   0  0  0  0  0  0
  -26.2652  -15.6293   20.0455 H   0  0  0  0  0  0
  -26.7067  -32.5591   23.1167 H   0  0  0  0  0  0
  -24.9984  -33.9812   25.0434 H   0  0  0  0  0  0
  -22.6887  -31.3028   21.4071 H   0  0  0  0  0  0
  -23.3725  -35.9680   23.3355 H   0  0  0  0  0  0
  -24.3561  -36.8886   22.2038 H   0  0  0  0  0  0
  -23.7266  -37.6561   23.6625 H   0  0  0  0  0  0
  -26.0217  -31.6052   20.5823 H   0  0  0  0  0  0
  -26.8200  -30.9138   21.9648 H   0  0  0  0  0  0
  -28.1026  -29.1605   21.1609 H   0  0  0  0  0  0
  -26.1076  -25.9830   19.0192 H   0  0  0  0  0  0
  -24.0045  -27.2865   19.0364 H   0  0  0  0  0  0
  -23.7092  -30.5840   19.4027 H   0  0  0  0  0  0
  -22.7419  -29.2204   19.8793 H   0  0  0  0  0  0
  -25.1289  -36.1986   25.0821 H   0  0  0  0  0  0
  -20.9947  -28.3216   24.1441 H   0  0  0  0  0  0
  -20.5663  -26.2256   23.3594 H   0  0  0  0  0  0
  -21.6623  -26.7445   22.1214 H   0  0  0  0  0  0
  -19.6912  -25.6298   21.1223 H   0  0  0  0  0  0
  -19.6688  -27.3198   20.6748 H   0  0  0  0  0  0
  -17.4189  -26.6660   21.4020 H   0  0  0  0  0  0
  -18.0332  -26.0055   22.9013 H   0  0  0  0  0  0
  -19.7925  -30.7234   24.2300 H   0  0  0  0  0  0
  -17.5015  -31.6276   24.5146 H   0  0  0  0  0  0
  -15.5349  -30.2995   23.7646 H   0  0  0  0  0  0
  -15.8650  -28.0820   22.7075 H   0  0  0  0  0  0
  -24.5898  -30.7072   25.7804 H   0  0  0  0  0  0
  -24.8962  -32.2857   26.4937 H   0  0  0  0  0  0
  -25.8111  -30.8849   27.0183 H   0  0  0  0  0  0
  -26.2748  -29.6824   24.1113 H   0  0  0  0  0  0
  -27.4099  -29.7257   25.4425 H   0  0  0  0  0  0
  -27.8569  -30.4372   23.9071 H   0  0  0  0  0  0
  -27.2628  -33.3630   26.2029 H   0  0  0  0  0  0
  -28.3827  -32.6904   25.0268 H   0  0  0  0  0  0
  -28.0702  -31.8458   26.5364 H   0  0  0  0  0  0
  -28.2627  -38.0083   24.7475 H   0  0  0  0  0  0
  -28.1038  -36.2610   24.6350 H   0  0  0  0  0  0
  -27.2288  -37.1532   25.8874 H   0  0  0  0  0  0
  -20.9283  -29.8693   21.6919 H   0  0  0  0  0  0
  -26.0192  -38.2877   24.1398 H   0  0  0  0  0  0
  -32.5919  -16.7225   21.1448 H   0  0  0  0  0  0
  -28.3290  -17.4650   21.1636 H   0  0  0  0  0  0
  -32.9919  -19.0726   20.5135 H   0  0  0  0  0  0
  -28.7556  -19.8257   20.5473 H   0  0  0  0  0  0
  -31.4486  -25.5758   19.5559 H   0  0  0  0  0  0
  -30.1794  -24.4031   19.4178 H   0  0  0  0  0  0
  -30.9391  -25.7598   22.0538 H   0  0  0  0  0  0
  -29.5077  -24.8172   21.7744 H   0  0  0  0  0  0
  -32.5214  -24.0897   21.4034 H   0  0  0  0  0  0
  -32.6658  -23.5951   19.7502 H   0  0  0  0  0  0
  -30.1410  -27.5798   20.5419 H   0  0  0  0  0  0
  -29.0784  -27.2533   21.9029 H   0  0  0  0  0  0
  -29.2332  -15.2359   21.6519 H   0  0  0  0  0  0
  -30.4668  -22.4992   21.4031 H   0  0  0  0  0  0
  1 25  1  0  0  0
  1 30  2  0  0  0
  1 81  1  0  0  0
  2  3  1  0  0  0
  2 25  1  0  0  0
  2 86  1  0  0  0
  2 87  1  0  0  0
  3  4  1  0  0  0
  3 88  1  0  0  0
  3 89  1  0  0  0
  4  5  1  0  0  0
  4 90  1  0  0  0
  4 91  1  0  0  0
  5  6  1  0  0  0
  5 26  1  0  0  0
  5 92  1  0  0  0
  6 25  1  0  0  0
  6 93  1  0  0  0
  6 94  1  0  0  0
  7  8  2  0  0  0
  7 26  1  0  0  0
  7 29  1  0  0  0
  8  9  1  0  0  0
  8 22  1  0  0  0
  9 10  1  0  0  0
  9 27  2  0  0  0
 10 11  2  0  0  0
 10 15  1  0  0  0
 11 12  1  0  0  0
 11 95  1  0  0  0
 12 13  2  0  0  0
 12 96  1  0  0  0
 13 14  1  0  0  0
 13 31  1  0  0  0
 14 15  2  0  0  0
 14 97  1  0  0  0
 15 98  1  0  0  0
 16 17  2  0  0  0
 16 21  1  0  0  0
 16 31  1  0  0  0
 17 18  1  0  0  0
 17 99  1  0  0  0
 18 19  2  0  0  0
 18100  1  0  0  0
 19 20  1  0  0  0
 19 24  1  0  0  0
 20 21  2  0  0  0
 20101  1  0  0  0
 21 23  1  0  0  0
 22 28  1  0  0  0
 22 32  2  0  0  0
 26 27  1  0  0  0
 28102  1  0  0  0
 28103  1  0  0  0
 29104  1  0  0  0
 29105  1  0  0  0
 33 34  1  0  0  0
 33 66  1  0  0  0
 33 70  2  0  0  0
 34 36  1  0  0  0
 34 59  1  0  0  0
 34106  1  0  0  0
 35 44  2  0  0  0
 35 45  1  0  0  0
 35 68  1  0  0  0
 36 56  1  0  0  0
 36107  1  0  0  0
 37 39  1  0  0  0
 37 47  1  0  0  0
 37 66  1  0  0  0
 37108  1  0  0  0
 38 43  2  0  0  0
 38 46  1  0  0  0
 38 47  1  0  0  0
 39 64  1  0  0  0
 39 67  2  0  0  0
 40 52  1  0  0  0
 40 53  2  0  0  0
 40 58  1  0  0  0
 41109  1  0  0  0
 41110  1  0  0  0
 41111  1  0  0  0
 41 48  1  0  0  0
 42 43  1  0  0  0
 42 66  1  0  0  0
 42112  1  0  0  0
 42113  1  0  0  0
 43 44  1  0  0  0
 44114  1  0  0  0
 45 46  2  0  0  0
 45115  1  0  0  0
 46116  1  0  0  0
 47117  1  0  0  0
 47118  1  0  0  0
 48 56  1  0  0  0
 48 65  1  0  0  0
 48119  1  0  0  0
 49 50  1  0  0  0
 49 53  1  0  0  0
 49 64  1  0  0  0
 49120  1  0  0  0
 50 51  1  0  0  0
 50121  1  0  0  0
 50122  1  0  0  0
 51 52  1  0  0  0
 51123  1  0  0  0
 51124  1  0  0  0
 52125  1  0  0  0
 52126  1  0  0  0
 53 54  1  0  0  0
 54 55  2  0  0  0
 54127  1  0  0  0
 55 57  1  0  0  0
 55128  1  0  0  0
 56 69  2  0  0  0
 57 58  2  0  0  0
 57129  1  0  0  0
 58130  1  0  0  0
 59 60  1  0  0  0
 59 61  1  0  0  0
 59 62  1  0  0  0
 60131  1  0  0  0
 60132  1  0  0  0
 60133  1  0  0  0
 61134  1  0  0  0
 61135  1  0  0  0
 61136  1  0  0  0
 62137  1  0  0  0
 62138  1  0  0  0
 62139  1  0  0  0
 63 65  1  0  0  0
 63140  1  0  0  0
 63141  1  0  0  0
 63142  1  0  0  0
 64143  1  0  0  0
 65144  1  0  0  0
 68 80  1  0  0  0
 71 73  2  0  0  0
 71 75  1  0  0  0
 71145  1  0  0  0
 72 74  1  0  0  0
 72 75  2  0  0  0
 72146  1  0  0  0
 73 76  1  0  0  0
 73147  1  0  0  0
 74 76  2  0  0  0
 74148  1  0  0  0
 75 81  1  0  0  0
 76 85  1  0  0  0
 77 78  1  0  0  0
 77 79  1  0  0  0
 77149  1  0  0  0
 77150  1  0  0  0
 78 80  1  0  0  0
 78151  1  0  0  0
 78152  1  0  0  0
 79 82  1  0  0  0
 79153  1  0  0  0
 79154  1  0  0  0
 80155  1  0  0  0
 80156  1  0  0  0
 81157  1  0  0  0
 82158  1  0  0  0
 82 85  1  0  0  0
 83 85  2  0  0  0
 84 85  2  0  0  0
M  ISO  4   1 100  68 101  80 101  81 100
M  END
> <chiral flag>
0

> <version>
0

> <s_m_source_file>
/data/baiqing/PycharmProjects/Reinvent-master-3.2/result/LINK_invent/BTK/process_docking_weight1_custom_product_contain_oxygen_bond_distance_aromatic_linkinvent_7_9_3/rearranged_h_0001.sdf

> <i_m_source_file_index>
47

> <r_mmod_Potential_Energy-OPLS-2005>
-129.050491333008

> <r_mmod_Stretch_Energy-OPLS-2005>
41.1465721130371

> <r_mmod_Bend_Energy-OPLS-2005>
109.11988067627

> <r_mmod_Torsional_Energy-OPLS-2005>
240.834594726562

> <r_mmod_Improper_Torsional_Energy-OPLS-2005>
9.27954864501953

> <r_mmod_Van_der_Waal_Energy-OPLS-2005>
145.945266723633

> <r_mmod_Electrostatic_Energy-OPLS-2005>
-438.6015625

> <r_mmod_Solvation_Energy-OPLS-2005>
-248.021942138672

> <b_mmod_Minimization_Converged-OPLS-2005>
0

> <r_mmod_RMS_Derivative-OPLS-2005>
4.36986875534058

$$$$
47
                    3D
 Structure written by MMmdl.
154162  0  0  1  0            999 V2000
  -30.7342  -14.4583   20.6035 C   0  0  0  0  0  0
  -30.4163  -12.3147   19.4169 C   0  0  0  0  0  0
  -29.4879  -12.5063   18.2019 C   0  0  0  0  0  0
  -28.0119  -12.3647   18.6202 C   0  0  0  0  0  0
  -27.6599  -13.2106   19.8727 C   0  0  2  0  0  0
  -28.7023  -13.0043   20.9942 C   0  0  0  0  0  0
  -25.2589  -13.8171   20.5693 C   0  0  0  0  0  0
  -24.1840  -13.0444   20.9180 C   0  0  0  0  0  0
  -24.6397  -11.6913   20.8742 C   0  0  0  0  0  0
  -23.9062  -10.4295   21.0410 C   0  0  0  0  0  0
  -24.3610   -9.4209   21.9186 C   0  0  0  0  0  0
  -23.6288   -8.2244   22.0755 C   0  0  0  0  0  0
  -22.4271   -8.0282   21.3545 C   0  0  0  0  0  0
  -21.9908   -9.0259   20.4649 C   0  0  0  0  0  0
  -22.7236  -10.2138   20.3062 C   0  0  0  0  0  0
  -21.6848   -6.0737   22.5278 C   0  0  0  0  0  0
  -21.4012   -6.5643   23.8212 C   0  0  0  0  0  0
  -21.3657   -5.6795   24.9176 C   0  0  0  0  0  0
  -21.6040   -4.3058   24.7228 C   0  0  0  0  0  0
  -21.8816   -3.8152   23.4350 C   0  0  0  0  0  0
  -21.9191   -4.6966   22.3406 C   0  0  0  0  0  0
  -22.7863  -13.5242   21.1843 C   0  0  0  0  0  0
  -22.1662   -4.2154   21.0983 F   0  0  0  0  0  0
  -21.5627   -3.4540   25.7741 F   0  0  0  0  0  0
  -30.0321  -13.3039   20.4381 N   0  0  0  0  0  0
  -26.3021  -12.9346   20.3367 N   0  0  0  0  0  0
  -25.9323  -11.6503   20.5771 N   0  0  0  0  0  0
  -22.0503  -12.8240   22.0402 N   0  0  0  0  0  0
  -25.4325  -15.1889   20.4112 N   0  0  0  0  0  0
  -31.8376  -14.6401   20.0819 O   0  0  0  0  0  0
  -21.6634   -6.8880   21.4242 O   0  0  0  0  0  0
  -22.3550  -14.5549   20.6691 O   0  0  0  0  0  0
  -24.6160  -31.8660   23.2092 C   0  0  0  0  0  0
  -25.9047  -32.4811   23.8386 C   0  0  1  0  0  0
  -27.2304  -27.4118   20.0944 C   0  0  0  0  0  0
  -25.5891  -33.8607   24.2317 N   0  0  0  0  0  0
  -23.4050  -30.4897   21.5514 C   0  0  2  0  0  0
  -24.8498  -28.9550   20.1146 C   0  0  0  0  0  0
  -22.7418  -29.4644   22.4993 C   0  0  0  0  0  0
  -18.0266  -28.1373   22.8496 C   0  0  0  0  0  0
  -24.1484  -36.7311   23.2639 C   0  0  0  0  0  0
  -25.9363  -30.8245   21.3660 C   0  0  0  0  0  0
  -26.0125  -29.4586   20.7106 C   0  0  0  0  0  0
  -27.2054  -28.6952   20.6952 C   0  0  0  0  0  0
  -26.0465  -26.9334   19.4859 C   0  0  0  0  0  0
  -24.8627  -27.6925   19.4995 C   0  0  0  0  0  0
  -23.6132  -29.8231   20.1660 C   0  0  0  0  0  0
  -25.4105  -36.3103   24.0336 C   0  0  1  0  0  0
  -20.5859  -28.3655   23.1320 C   0  0  2  0  0  0
  -20.6756  -26.9388   22.5423 C   0  0  0  0  0  0
  -19.5736  -26.6384   21.5216 C   0  0  0  0  0  0
  -18.1915  -26.7920   22.1631 C   0  0  0  0  0  0
  -19.1518  -28.8833   23.2903 C   0  0  0  0  0  0
  -18.9445  -30.1442   23.8907 C   0  0  0  0  0  0
  -17.6448  -30.6581   24.0564 C   0  0  0  0  0  0
  -25.9033  -34.9467   23.5128 C   0  0  0  0  0  0
  -16.5339  -29.9082   23.6329 C   0  0  0  0  0  0
  -16.7255  -28.6499   23.0349 C   0  0  0  0  0  0
  -26.4472  -31.6592   25.0719 C   0  0  0  0  0  0
  -25.3744  -31.3693   26.1476 C   0  0  0  0  0  0
  -27.0302  -30.3030   24.6105 C   0  0  0  0  0  0
  -27.6044  -32.4315   25.7482 C   0  0  0  0  0  0
  -27.5575  -37.1811   24.8467 C   0  0  0  0  0  0
  -21.4146  -29.3019   22.3730 N   0  0  0  0  0  0
  -26.4289  -37.3791   23.9411 N   0  0  0  0  0  0
  -24.6709  -31.0748   22.1001 N   0  0  0  0  0  0
  -23.4182  -28.8181   23.3039 O   0  0  0  0  0  0
  -28.3949  -26.6609   20.1204 O   0  0  0  0  0  0
  -26.5604  -34.8924   22.4694 O   0  0  0  0  0  0
  -23.5350  -32.1410   23.7486 O   0  0  0  0  0  0
  -28.5714  -19.7732   21.9927 C   0  0  0  0  0  0
  -30.3835  -20.2354   20.4494 C   0  0  0  0  0  0
  -29.0201  -18.4385   22.1307 C   0  0  0  0  0  0
  -30.8335  -18.9006   20.5894 C   0  0  0  0  0  0
  -29.2640  -20.7074   21.1808 C   0  0  0  0  0  0
  -30.1823  -17.9998   21.4625 C   0  0  0  0  0  0
  -28.8627  -22.1753   21.1985 C   0  0  0  0  0  0
  -30.8219  -16.6459   21.8034 C   0  0  0  0  0  0
  -29.5322  -24.4932   20.4918 C   0  0  0  0  0  0
  -28.2737  -25.2291   19.9711 C   0  0  0  0  0  0
  -29.5021  -23.0213   20.3705 N   0  0  0  0  0  0
  -30.1461  -15.4258   21.3315 N   0  0  0  0  0  0
  -28.0102  -22.5761   21.9939 O   0  0  0  0  0  0
  -31.4600  -12.4082   19.1122 H   0  0  0  0  0  0
  -30.3168  -11.3054   19.8198 H   0  0  0  0  0  0
  -29.7271  -11.7779   17.4260 H   0  0  0  0  0  0
  -29.6532  -13.4903   17.7602 H   0  0  0  0  0  0
  -27.8257  -11.3088   18.8219 H   0  0  0  0  0  0
  -27.3577  -12.6337   17.7902 H   0  0  0  0  0  0
  -27.7014  -14.2568   19.5689 H   0  0  0  0  0  0
  -28.6792  -11.9723   21.3472 H   0  0  0  0  0  0
  -28.4595  -13.6144   21.8644 H   0  0  0  0  0  0
  -25.2756   -9.5683   22.4759 H   0  0  0  0  0  0
  -23.9995   -7.4638   22.7477 H   0  0  0  0  0  0
  -21.0835   -8.8776   19.8962 H   0  0  0  0  0  0
  -22.3692  -10.9674   19.6171 H   0  0  0  0  0  0
  -21.2003   -7.6151   23.9717 H   0  0  0  0  0  0
  -21.1480   -6.0528   25.9074 H   0  0  0  0  0  0
  -22.0599   -2.7616   23.2850 H   0  0  0  0  0  0
  -22.4105  -11.9894   22.4785 H   0  0  0  0  0  0
  -21.1124  -13.1281   22.2606 H   0  0  0  0  0  0
  -24.6716  -15.8492   20.5269 H   0  0  0  0  0  0
  -26.2929  -15.6271   20.1054 H   0  0  0  0  0  0
  -26.7111  -32.5517   23.1142 H   0  0  0  0  0  0
  -25.0026  -33.9767   25.0451 H   0  0  0  0  0  0
  -22.6939  -31.3062   21.4122 H   0  0  0  0  0  0
  -23.3737  -35.9654   23.3315 H   0  0  0  0  0  0
  -24.3570  -36.8916   22.2049 H   0  0  0  0  0  0
  -23.7247  -37.6525   23.6646 H   0  0  0  0  0  0
  -26.0540  -31.5901   20.5979 H   0  0  0  0  0  0
  -26.8217  -30.8745   21.9878 H   0  0  0  0  0  0
  -28.1021  -29.0785   21.1615 H   0  0  0  0  0  0
  -26.0153  -25.9721   18.9934 H   0  0  0  0  0  0
  -23.9696  -27.3007   19.0325 H   0  0  0  0  0  0
  -23.7204  -30.5969   19.4049 H   0  0  0  0  0  0
  -22.7372  -29.2422   19.8722 H   0  0  0  0  0  0
  -25.1284  -36.1967   25.0828 H   0  0  0  0  0  0
  -20.9945  -28.3214   24.1443 H   0  0  0  0  0  0
  -20.5660  -26.2254   23.3605 H   0  0  0  0  0  0
  -21.6625  -26.7433   22.1211 H   0  0  0  0  0  0
  -19.6895  -25.6302   21.1225 H   0  0  0  0  0  0
  -19.6676  -27.3211   20.6757 H   0  0  0  0  0  0
  -17.4184  -26.6663   21.4034 H   0  0  0  0  0  0
  -18.0318  -26.0061   22.9026 H   0  0  0  0  0  0
  -19.7922  -30.7256   24.2277 H   0  0  0  0  0  0
  -17.5002  -31.6263   24.5159 H   0  0  0  0  0  0
  -15.5339  -30.2985   23.7649 H   0  0  0  0  0  0
  -15.8655  -28.0824   22.7053 H   0  0  0  0  0  0
  -24.5921  -30.7032   25.7820 H   0  0  0  0  0  0
  -24.8937  -32.2843   26.4941 H   0  0  0  0  0  0
  -25.8111  -30.8860   27.0225 H   0  0  0  0  0  0
  -26.2846  -29.6800   24.1153 H   0  0  0  0  0  0
  -27.4050  -29.7261   25.4569 H   0  0  0  0  0  0
  -27.8692  -30.4339   23.9268 H   0  0  0  0  0  0
  -27.2652  -33.3598   26.2090 H   0  0  0  0  0  0
  -28.3834  -32.6901   25.0297 H   0  0  0  0  0  0
  -28.0732  -31.8424   26.5377 H   0  0  0  0  0  0
  -28.2608  -38.0095   24.7497 H   0  0  0  0  0  0
  -28.1056  -36.2625   24.6312 H   0  0  0  0  0  0
  -27.2291  -37.1484   25.8870 H   0  0  0  0  0  0
  -20.9302  -29.8745   21.6957 H   0  0  0  0  0  0
  -26.0178  -38.2869   24.1413 H   0  0  0  0  0  0
  -27.7130  -20.0936   22.5673 H   0  0  0  0  0  0
  -30.9482  -20.9020   19.8135 H   0  0  0  0  0  0
  -28.5081  -17.7729   22.8123 H   0  0  0  0  0  0
  -31.7289  -18.5907   20.0672 H   0  0  0  0  0  0
  -30.8725  -16.5756   22.8912 H   0  0  0  0  0  0
  -31.8658  -16.6707   21.4856 H   0  0  0  0  0  0
  -29.7001  -24.7587   21.5368 H   0  0  0  0  0  0
  -30.4051  -24.8537   19.9472 H   0  0  0  0  0  0
  -28.1193  -24.9883   18.9185 H   0  0  0  0  0  0
  -27.4067  -24.8642   20.5248 H   0  0  0  0  0  0
  -30.1568  -22.6082   19.7216 H   0  0  0  0  0  0
  -29.2260  -15.2327   21.6963 H   0  0  0  0  0  0
  1 25  1  0  0  0
  1 30  2  0  0  0
  1 82  1  0  0  0
  2  3  1  0  0  0
  2 25  1  0  0  0
  2 84  1  0  0  0
  2 85  1  0  0  0
  3  4  1  0  0  0
  3 86  1  0  0  0
  3 87  1  0  0  0
  4  5  1  0  0  0
  4 88  1  0  0  0
  4 89  1  0  0  0
  5  6  1  0  0  0
  5 26  1  0  0  0
  5 90  1  0  0  0
  6 25  1  0  0  0
  6 91  1  0  0  0
  6 92  1  0  0  0
  7  8  2  0  0  0
  7 26  1  0  0  0
  7 29  1  0  0  0
  8  9  1  0  0  0
  8 22  1  0  0  0
  9 10  1  0  0  0
  9 27  2  0  0  0
 10 11  2  0  0  0
 10 15  1  0  0  0
 11 12  1  0  0  0
 11 93  1  0  0  0
 12 13  2  0  0  0
 12 94  1  0  0  0
 13 14  1  0  0  0
 13 31  1  0  0  0
 14 15  2  0  0  0
 14 95  1  0  0  0
 15 96  1  0  0  0
 16 17  2  0  0  0
 16 21  1  0  0  0
 16 31  1  0  0  0
 17 18  1  0  0  0
 17 97  1  0  0  0
 18 19  2  0  0  0
 18 98  1  0  0  0
 19 20  1  0  0  0
 19 24  1  0  0  0
 20 21  2  0  0  0
 20 99  1  0  0  0
 21 23  1  0  0  0
 22 28  1  0  0  0
 22 32  2  0  0  0
 26 27  1  0  0  0
 28100  1  0  0  0
 28101  1  0  0  0
 29102  1  0  0  0
 29103  1  0  0  0
 33 34  1  0  0  0
 33 66  1  0  0  0
 33 70  2  0  0  0
 34 36  1  0  0  0
 34 59  1  0  0  0
 34104  1  0  0  0
 35 44  2  0  0  0
 35 45  1  0  0  0
 35 68  1  0  0  0
 36 56  1  0  0  0
 36105  1  0  0  0
 37 39  1  0  0  0
 37 47  1  0  0  0
 37 66  1  0  0  0
 37106  1  0  0  0
 38 43  2  0  0  0
 38 46  1  0  0  0
 38 47  1  0  0  0
 39 64  1  0  0  0
 39 67  2  0  0  0
 40 52  1  0  0  0
 40 53  2  0  0  0
 40 58  1  0  0  0
 41107  1  0  0  0
 41108  1  0  0  0
 41109  1  0  0  0
 41 48  1  0  0  0
 42 43  1  0  0  0
 42 66  1  0  0  0
 42110  1  0  0  0
 42111  1  0  0  0
 43 44  1  0  0  0
 44112  1  0  0  0
 45 46  2  0  0  0
 45113  1  0  0  0
 46114  1  0  0  0
 47115  1  0  0  0
 47116  1  0  0  0
 48 56  1  0  0  0
 48 65  1  0  0  0
 48117  1  0  0  0
 49 50  1  0  0  0
 49 53  1  0  0  0
 49 64  1  0  0  0
 49118  1  0  0  0
 50 51  1  0  0  0
 50119  1  0  0  0
 50120  1  0  0  0
 51 52  1  0  0  0
 51121  1  0  0  0
 51122  1  0  0  0
 52123  1  0  0  0
 52124  1  0  0  0
 53 54  1  0  0  0
 54 55  2  0  0  0
 54125  1  0  0  0
 55 57  1  0  0  0
 55126  1  0  0  0
 56 69  2  0  0  0
 57 58  2  0  0  0
 57127  1  0  0  0
 58128  1  0  0  0
 59 60  1  0  0  0
 59 61  1  0  0  0
 59 62  1  0  0  0
 60129  1  0  0  0
 60130  1  0  0  0
 60131  1  0  0  0
 61132  1  0  0  0
 61133  1  0  0  0
 61134  1  0  0  0
 62135  1  0  0  0
 62136  1  0  0  0
 62137  1  0  0  0
 63 65  1  0  0  0
 63138  1  0  0  0
 63139  1  0  0  0
 63140  1  0  0  0
 64141  1  0  0  0
 65142  1  0  0  0
 68 80  1  0  0  0
 71 73  2  0  0  0
 71 75  1  0  0  0
 71143  1  0  0  0
 72 74  1  0  0  0
 72 75  2  0  0  0
 72144  1  0  0  0
 73 76  1  0  0  0
 73145  1  0  0  0
 74 76  2  0  0  0
 74146  1  0  0  0
 75 77  1  0  0  0
 76 78  1  0  0  0
 77 81  1  0  0  0
 77 83  2  0  0  0
 78 82  1  0  0  0
 78147  1  0  0  0
 78148  1  0  0  0
 79 80  1  0  0  0
 79 81  1  0  0  0
 79149  1  0  0  0
 79150  1  0  0  0
 80151  1  0  0  0
 80152  1  0  0  0
 81153  1  0  0  0
 82154  1  0  0  0
M  ISO  4   1 100  68 101  80 101  82 100
M  END
> <chiral flag>
0

> <version>
0

> <s_m_source_file>
/data/baiqing/PycharmProjects/Reinvent-master-3.2/result/LINK_invent/BTK/process_docking_weight1_custom_product_contain_oxygen_bond_distance_aromatic_linkinvent_7_9_3/rearranged_h_0001.sdf

> <i_m_source_file_index>
48

> <r_mmod_Potential_Energy-OPLS-2005>
-182.11897277832

> <r_mmod_Stretch_Energy-OPLS-2005>
40.2984046936035

> <r_mmod_Bend_Energy-OPLS-2005>
97.0383911132812

> <r_mmod_Torsional_Energy-OPLS-2005>
208.573883056641

> <r_mmod_Improper_Torsional_Energy-OPLS-2005>
3.58618783950806

> <r_mmod_Van_der_Waal_Energy-OPLS-2005>
158.756042480469

> <r_mmod_Electrostatic_Energy-OPLS-2005>
-468.736846923828

> <r_mmod_Solvation_Energy-OPLS-2005>
-235.333068847656

> <b_mmod_Minimization_Converged-OPLS-2005>
0

> <r_mmod_RMS_Derivative-OPLS-2005>
0.93354457616806

$$$$
48
                    3D
 Structure written by MMmdl.
147155  0  0  1  0            999 V2000
  -30.2519  -15.7625   20.3142 C   0  0  0  0  0  0
  -30.4212  -13.1764   19.5332 C   0  0  0  0  0  0
  -29.5602  -12.6790   18.3330 C   0  0  0  0  0  0
  -28.1398  -12.3030   18.7799 C   0  0  0  0  0  0
  -27.5931  -13.3192   19.8070 C   0  0  2  0  0  0
  -28.6040  -13.7034   20.9150 C   0  0  0  0  0  0
  -25.2316  -13.8296   20.5826 C   0  0  0  0  0  0
  -24.1708  -13.0436   20.9306 C   0  0  0  0  0  0
  -24.6419  -11.6950   20.8758 C   0  0  0  0  0  0
  -23.9121  -10.4292   21.0390 C   0  0  0  0  0  0
  -24.3647   -9.4205   21.9176 C   0  0  0  0  0  0
  -23.6294   -8.2257   22.0767 C   0  0  0  0  0  0
  -22.4277   -8.0290   21.3557 C   0  0  0  0  0  0
  -21.9919   -9.0270   20.4663 C   0  0  0  0  0  0
  -22.7278  -10.2134   20.3052 C   0  0  0  0  0  0
  -21.6859   -6.0737   22.5277 C   0  0  0  0  0  0
  -21.4029   -6.5643   23.8214 C   0  0  0  0  0  0
  -21.3653   -5.6793   24.9170 C   0  0  0  0  0  0
  -21.6039   -4.3057   24.7219 C   0  0  0  0  0  0
  -21.8818   -3.8146   23.4341 C   0  0  0  0  0  0
  -21.9199   -4.6963   22.3399 C   0  0  0  0  0  0
  -22.7712  -13.5167   21.1911 C   0  0  0  0  0  0
  -22.1663   -4.2152   21.0974 F   0  0  0  0  0  0
  -21.5613   -3.4538   25.7729 F   0  0  0  0  0  0
  -29.7539  -14.3698   20.2485 N   0  0  0  0  0  0
  -26.2777  -12.9651   20.3238 N   0  0  0  0  0  0
  -25.9368  -11.6710   20.5666 N   0  0  0  0  0  0
  -22.0358  -12.8166   22.0465 N   0  0  0  0  0  0
  -25.3873  -15.2045   20.4291 N   0  0  0  0  0  0
  -31.4923  -15.6829   20.1863 O   0  0  0  0  0  0
  -21.6643   -6.8883   21.4242 O   0  0  0  0  0  0
  -22.3391  -14.5455   20.6717 O   0  0  0  0  0  0
  -24.6938  -31.7874   23.1423 C   0  0  0  0  0  0
  -25.9471  -32.4398   23.8010 C   0  0  1  0  0  0
  -27.2312  -26.5959   20.2279 C   0  0  0  0  0  0
  -25.6013  -33.8232   24.1884 N   0  0  0  0  0  0
  -23.5251  -30.3840   21.4999 C   0  0  2  0  0  0
  -24.9838  -28.7015   20.1228 C   0  0  0  0  0  0
  -22.7813  -29.4253   22.4687 C   0  0  0  0  0  0
  -18.0341  -28.1429   22.8435 C   0  0  0  0  0  0
  -24.1500  -36.7114   23.2657 C   0  0  0  0  0  0
  -26.1107  -30.4854   21.4238 C   0  0  0  0  0  0
  -26.1753  -29.0387   20.7757 C   0  0  0  0  0  0
  -27.2800  -28.0168   20.7908 C   0  0  0  0  0  0
  -26.0046  -26.4953   19.5171 C   0  0  0  0  0  0
  -24.9433  -27.4568   19.4692 C   0  0  0  0  0  0
  -23.7850  -29.6708   20.1403 C   0  0  0  0  0  0
  -25.4154  -36.2847   24.0269 C   0  0  1  0  0  0
  -20.5981  -28.3799   23.1112 C   0  0  2  0  0  0
  -20.6808  -26.9449   22.5402 C   0  0  0  0  0  0
  -19.5783  -26.6369   21.5215 C   0  0  0  0  0  0
  -18.1964  -26.7951   22.1615 C   0  0  0  0  0  0
  -19.1610  -28.8937   23.2746 C   0  0  0  0  0  0
  -18.9518  -30.1516   23.8799 C   0  0  0  0  0  0
  -17.6507  -30.6605   24.0551 C   0  0  0  0  0  0
  -25.9142  -34.9246   23.4918 C   0  0  0  0  0  0
  -16.5395  -29.9086   23.6359 C   0  0  0  0  0  0
  -16.7320  -28.6513   23.0364 C   0  0  0  0  0  0
  -26.4620  -31.6467   25.0674 C   0  0  0  0  0  0
  -25.3668  -31.3821   26.1274 C   0  0  0  0  0  0
  -27.0576  -30.2787   24.6662 C   0  0  0  0  0  0
  -27.6040  -32.4363   25.7499 C   0  0  0  0  0  0
  -27.5557  -37.1715   24.8469 C   0  0  0  0  0  0
  -21.4453  -29.3019   22.3427 N   0  0  0  0  0  0
  -26.4270  -37.3620   23.9405 N   0  0  0  0  0  0
  -24.8008  -30.9218   22.0740 N   0  0  0  0  0  0
  -23.4200  -28.7887   23.3095 O   0  0  0  0  0  0
  -28.1840  -25.3309   20.2886 O   0  0  0  0  0  0
  -26.5810  -34.8847   22.4552 O   0  0  0  0  0  0
  -23.5930  -32.1004   23.6303 O   0  0  0  0  0  0
  -31.2518  -20.8176   20.2790 C   0  0  0  0  0  0
  -30.9119  -19.4246   20.2942 C   0  0  0  0  0  0
  -28.6703  -20.2649   20.2863 C   0  0  0  0  0  0
  -30.3765  -21.9621   20.2701 C   0  0  0  0  0  0
  -28.9513  -21.8831   20.2697 C   0  0  0  0  0  0
  -29.5961  -18.9097   20.3040 C   0  0  0  0  0  0
  -31.0632  -23.3181   20.2715 C   0  0  0  0  0  0
  -27.9654  -23.5318   20.2228 C   0  0  0  0  0  0
  -29.4705  -17.1512   20.3314 N   0  0  0  0  0  0
  -31.4007  -13.4633   19.1474 H   0  0  0  0  0  0
  -30.6242  -12.3603   20.2285 H   0  0  0  0  0  0
  -30.0394  -11.8283   17.8444 H   0  0  0  0  0  0
  -29.5070  -13.4706   17.5850 H   0  0  0  0  0  0
  -28.1839  -11.3136   19.2368 H   0  0  0  0  0  0
  -27.4745  -12.2192   17.9196 H   0  0  0  0  0  0
  -27.4380  -14.2238   19.2175 H   0  0  0  0  0  0
  -28.8973  -12.8379   21.5112 H   0  0  0  0  0  0
  -28.1487  -14.4132   21.6068 H   0  0  0  0  0  0
  -25.2792   -9.5671   22.4748 H   0  0  0  0  0  0
  -23.9998   -7.4648   22.7483 H   0  0  0  0  0  0
  -21.0851   -8.8794   19.8964 H   0  0  0  0  0  0
  -22.3739  -10.9667   19.6151 H   0  0  0  0  0  0
  -21.2034   -7.6156   23.9717 H   0  0  0  0  0  0
  -21.1469   -6.0523   25.9076 H   0  0  0  0  0  0
  -22.0598   -2.7609   23.2843 H   0  0  0  0  0  0
  -22.3990  -11.9872   22.4926 H   0  0  0  0  0  0
  -21.0951  -13.1153   22.2613 H   0  0  0  0  0  0
  -24.6122  -15.8462   20.5560 H   0  0  0  0  0  0
  -26.2143  -15.6521   20.0570 H   0  0  0  0  0  0
  -26.7570  -32.4844   23.0737 H   0  0  0  0  0  0
  -25.0034  -33.9252   24.9955 H   0  0  0  0  0  0
  -22.8554  -31.2225   21.3012 H   0  0  0  0  0  0
  -23.3779  -35.9426   23.3271 H   0  0  0  0  0  0
  -24.3556  -36.8829   22.2080 H   0  0  0  0  0  0
  -23.7251  -37.6274   23.6774 H   0  0  0  0  0  0
  -26.3273  -31.2038   20.6320 H   0  0  0  0  0  0
  -26.9559  -30.5557   22.0958 H   0  0  0  0  0  0
  -28.1747  -28.2845   21.3341 H   0  0  0  0  0  0
  -25.8204  -25.5592   19.0097 H   0  0  0  0  0  0
  -24.0468  -27.1861   18.9281 H   0  0  0  0  0  0
  -23.9683  -30.4274   19.3759 H   0  0  0  0  0  0
  -22.8871  -29.1430   19.8130 H   0  0  0  0  0  0
  -25.1373  -36.1595   25.0759 H   0  0  0  0  0  0
  -21.0039  -28.3442   24.1247 H   0  0  0  0  0  0
  -20.5668  -26.2427   23.3675 H   0  0  0  0  0  0
  -21.6671  -26.7384   22.1225 H   0  0  0  0  0  0
  -19.6948  -25.6260   21.1294 H   0  0  0  0  0  0
  -19.6725  -27.3139   20.6712 H   0  0  0  0  0  0
  -17.4234  -26.6668   21.4029 H   0  0  0  0  0  0
  -18.0363  -26.0123   22.9039 H   0  0  0  0  0  0
  -19.7997  -30.7355   24.2121 H   0  0  0  0  0  0
  -17.5065  -31.6275   24.5175 H   0  0  0  0  0  0
  -15.5392  -30.2964   23.7740 H   0  0  0  0  0  0
  -15.8720  -28.0811   22.7128 H   0  0  0  0  0  0
  -24.5838  -30.7198   25.7568 H   0  0  0  0  0  0
  -24.8889  -32.3061   26.4533 H   0  0  0  0  0  0
  -25.7813  -30.9072   27.0173 H   0  0  0  0  0  0
  -26.3321  -29.6357   24.1665 H   0  0  0  0  0  0
  -27.3964  -29.7280   25.5451 H   0  0  0  0  0  0
  -27.9315  -30.3876   24.0237 H   0  0  0  0  0  0
  -27.2541  -33.3718   26.1873 H   0  0  0  0  0  0
  -28.3948  -32.6840   25.0408 H   0  0  0  0  0  0
  -28.0610  -31.8647   26.5590 H   0  0  0  0  0  0
  -28.2551  -38.0033   24.7502 H   0  0  0  0  0  0
  -28.1076  -36.2551   24.6317 H   0  0  0  0  0  0
  -27.2266  -37.1373   25.8871 H   0  0  0  0  0  0
  -20.9786  -29.8635   21.6445 H   0  0  0  0  0  0
  -26.0082  -38.2662   24.1412 H   0  0  0  0  0  0
  -32.3137  -21.0223   20.2758 H   0  0  0  0  0  0
  -31.7304  -18.7170   20.3024 H   0  0  0  0  0  0
  -27.6140  -20.0392   20.2805 H   0  0  0  0  0  0
  -31.9341  -23.3048   19.6150 H   0  0  0  0  0  0
  -31.4064  -23.5622   21.2778 H   0  0  0  0  0  0
  -30.4263  -24.1260   19.9206 H   0  0  0  0  0  0
  -27.2477  -23.3725   21.0269 H   0  0  0  0  0  0
  -27.3678  -23.4072   19.3200 H   0  0  0  0  0  0
  -28.4937  -16.8986   20.3606 H   0  0  0  0  0  0
  1 25  1  0  0  0
  1 30  2  0  0  0
  1 79  1  0  0  0
  2  3  1  0  0  0
  2 25  1  0  0  0
  2 80  1  0  0  0
  2 81  1  0  0  0
  3  4  1  0  0  0
  3 82  1  0  0  0
  3 83  1  0  0  0
  4  5  1  0  0  0
  4 84  1  0  0  0
  4 85  1  0  0  0
  5  6  1  0  0  0
  5 26  1  0  0  0
  5 86  1  0  0  0
  6 25  1  0  0  0
  6 87  1  0  0  0
  6 88  1  0  0  0
  7  8  2  0  0  0
  7 26  1  0  0  0
  7 29  1  0  0  0
  8  9  1  0  0  0
  8 22  1  0  0  0
  9 10  1  0  0  0
  9 27  2  0  0  0
 10 11  2  0  0  0
 10 15  1  0  0  0
 11 12  1  0  0  0
 11 89  1  0  0  0
 12 13  2  0  0  0
 12 90  1  0  0  0
 13 14  1  0  0  0
 13 31  1  0  0  0
 14 15  2  0  0  0
 14 91  1  0  0  0
 15 92  1  0  0  0
 16 17  2  0  0  0
 16 21  1  0  0  0
 16 31  1  0  0  0
 17 18  1  0  0  0
 17 93  1  0  0  0
 18 19  2  0  0  0
 18 94  1  0  0  0
 19 20  1  0  0  0
 19 24  1  0  0  0
 20 21  2  0  0  0
 20 95  1  0  0  0
 21 23  1  0  0  0
 22 28  1  0  0  0
 22 32  2  0  0  0
 26 27  1  0  0  0
 28 96  1  0  0  0
 28 97  1  0  0  0
 29 98  1  0  0  0
 29 99  1  0  0  0
 33 34  1  0  0  0
 33 66  1  0  0  0
 33 70  2  0  0  0
 34 36  1  0  0  0
 34 59  1  0  0  0
 34100  1  0  0  0
 35 44  2  0  0  0
 35 45  1  0  0  0
 35 68  1  0  0  0
 36 56  1  0  0  0
 36101  1  0  0  0
 37 39  1  0  0  0
 37 47  1  0  0  0
 37 66  1  0  0  0
 37102  1  0  0  0
 38 43  2  0  0  0
 38 46  1  0  0  0
 38 47  1  0  0  0
 39 64  1  0  0  0
 39 67  2  0  0  0
 40 52  1  0  0  0
 40 53  2  0  0  0
 40 58  1  0  0  0
 41103  1  0  0  0
 41104  1  0  0  0
 41105  1  0  0  0
 41 48  1  0  0  0
 42 43  1  0  0  0
 42 66  1  0  0  0
 42106  1  0  0  0
 42107  1  0  0  0
 43 44  1  0  0  0
 44108  1  0  0  0
 45 46  2  0  0  0
 45109  1  0  0  0
 46110  1  0  0  0
 47111  1  0  0  0
 47112  1  0  0  0
 48 56  1  0  0  0
 48 65  1  0  0  0
 48113  1  0  0  0
 49 50  1  0  0  0
 49 53  1  0  0  0
 49 64  1  0  0  0
 49114  1  0  0  0
 50 51  1  0  0  0
 50115  1  0  0  0
 50116  1  0  0  0
 51 52  1  0  0  0
 51117  1  0  0  0
 51118  1  0  0  0
 52119  1  0  0  0
 52120  1  0  0  0
 53 54  1  0  0  0
 54 55  2  0  0  0
 54121  1  0  0  0
 55 57  1  0  0  0
 55122  1  0  0  0
 56 69  2  0  0  0
 57 58  2  0  0  0
 57123  1  0  0  0
 58124  1  0  0  0
 59 60  1  0  0  0
 59 61  1  0  0  0
 59 62  1  0  0  0
 60125  1  0  0  0
 60126  1  0  0  0
 60127  1  0  0  0
 61128  1  0  0  0
 61129  1  0  0  0
 61130  1  0  0  0
 62131  1  0  0  0
 62132  1  0  0  0
 62133  1  0  0  0
 63 65  1  0  0  0
 63134  1  0  0  0
 63135  1  0  0  0
 63136  1  0  0  0
 64137  1  0  0  0
 65138  1  0  0  0
 68 78  1  0  0  0
 71 72  2  0  0  0
 71 74  1  0  0  0
 71139  1  0  0  0
 72 76  1  0  0  0
 72140  1  0  0  0
 73 75  1  0  0  0
 73 76  2  0  0  0
 73141  1  0  0  0
 74 75  2  0  0  0
 74 77  1  0  0  0
 75 78  1  0  0  0
 76 79  1  0  0  0
 77142  1  0  0  0
 77143  1  0  0  0
 77144  1  0  0  0
 78145  1  0  0  0
 78146  1  0  0  0
 79147  1  0  0  0
M  ISO  4   1 100  68 101  78 101  79 100
M  END
> <chiral flag>
0

> <version>
0

> <s_m_source_file>
/data/baiqing/PycharmProjects/Reinvent-master-3.2/result/LINK_invent/BTK/process_docking_weight1_custom_product_contain_oxygen_bond_distance_aromatic_linkinvent_7_9_3/rearranged_h_0001.sdf

> <i_m_source_file_index>
49

> <r_mmod_Potential_Energy-OPLS-2005>
2818.52709960938

> <r_mmod_Stretch_Energy-OPLS-2005>
1265.76171875

> <r_mmod_Bend_Energy-OPLS-2005>
640.604736328125

> <r_mmod_Torsional_Energy-OPLS-2005>
223.875564575195

> <r_mmod_Improper_Torsional_Energy-OPLS-2005>
4.03831148147583

> <r_mmod_Van_der_Waal_Energy-OPLS-2005>
129.832015991211

> <r_mmod_Electrostatic_Energy-OPLS-2005>
-351.264251708984

> <r_mmod_Solvation_Energy-OPLS-2005>
-210.974365234375

> <b_mmod_Minimization_Converged-OPLS-2005>
0

> <r_mmod_RMS_Derivative-OPLS-2005>
1.94058072566986

$$$$
49
                    3D
 Structure written by MMmdl.
160168  0  0  1  0            999 V2000
  -30.6294  -14.6368   20.5121 C   0  0  0  0  0  0
  -30.4400  -12.3938   19.4533 C   0  0  0  0  0  0
  -29.5140  -12.5300   18.2237 C   0  0  0  0  0  0
  -28.0350  -12.3573   18.6336 C   0  0  0  0  0  0
  -27.6553  -13.2209   19.8657 C   0  0  2  0  0  0
  -28.7001  -13.0676   20.9970 C   0  0  0  0  0  0
  -25.2534  -13.8173   20.5668 C   0  0  0  0  0  0
  -24.1803  -13.0443   20.9184 C   0  0  0  0  0  0
  -24.6376  -11.6921   20.8728 C   0  0  0  0  0  0
  -23.9052  -10.4306   21.0421 C   0  0  0  0  0  0
  -24.3613   -9.4223   21.9199 C   0  0  0  0  0  0
  -23.6286   -8.2251   22.0759 C   0  0  0  0  0  0
  -22.4266   -8.0291   21.3553 C   0  0  0  0  0  0
  -21.9892   -9.0264   20.4653 C   0  0  0  0  0  0
  -22.7222  -10.2145   20.3064 C   0  0  0  0  0  0
  -21.6853   -6.0742   22.5286 C   0  0  0  0  0  0
  -21.4020   -6.5650   23.8223 C   0  0  0  0  0  0
  -21.3655   -5.6785   24.9181 C   0  0  0  0  0  0
  -21.6038   -4.3052   24.7230 C   0  0  0  0  0  0
  -21.8813   -3.8152   23.4347 C   0  0  0  0  0  0
  -21.9186   -4.6970   22.3408 C   0  0  0  0  0  0
  -22.7831  -13.5248   21.1852 C   0  0  0  0  0  0
  -22.1660   -4.2168   21.0981 F   0  0  0  0  0  0
  -21.5632   -3.4532   25.7743 F   0  0  0  0  0  0
  -30.0206  -13.4096   20.4396 N   0  0  0  0  0  0
  -26.2981  -12.9372   20.3302 N   0  0  0  0  0  0
  -25.9306  -11.6521   20.5716 N   0  0  0  0  0  0
  -22.0442  -12.8257   22.0410 N   0  0  0  0  0  0
  -25.4223  -15.1898   20.4100 N   0  0  0  0  0  0
  -31.7819  -14.8108   20.1035 O   0  0  0  0  0  0
  -21.6628   -6.8883   21.4245 O   0  0  0  0  0  0
  -22.3527  -14.5555   20.6696 O   0  0  0  0  0  0
  -24.6258  -31.8590   23.1977 C   0  0  0  0  0  0
  -25.9114  -32.4771   23.8328 C   0  0  1  0  0  0
  -27.2320  -27.3052   20.1598 C   0  0  0  0  0  0
  -25.5925  -33.8565   24.2262 N   0  0  0  0  0  0
  -23.4222  -30.4784   21.5384 C   0  0  2  0  0  0
  -24.8733  -28.9199   20.1187 C   0  0  0  0  0  0
  -22.7479  -29.4630   22.4908 C   0  0  0  0  0  0
  -18.0300  -28.1389   22.8457 C   0  0  0  0  0  0
  -24.1494  -36.7288   23.2629 C   0  0  0  0  0  0
  -25.9613  -30.7859   21.3703 C   0  0  0  0  0  0
  -26.0379  -29.4093   20.7224 C   0  0  0  0  0  0
  -27.2230  -28.6146   20.7281 C   0  0  0  0  0  0
  -26.0470  -26.8607   19.5359 C   0  0  0  0  0  0
  -24.8793  -27.6503   19.5150 C   0  0  0  0  0  0
  -23.6415  -29.8034   20.1573 C   0  0  0  0  0  0
  -25.4117  -36.3073   24.0319 C   0  0  1  0  0  0
  -20.5893  -28.3705   23.1247 C   0  0  2  0  0  0
  -20.6796  -26.9423   22.5391 C   0  0  0  0  0  0
  -19.5781  -26.6382   21.5189 C   0  0  0  0  0  0
  -18.1955  -26.7928   22.1597 C   0  0  0  0  0  0
  -19.1547  -28.8862   23.2846 C   0  0  0  0  0  0
  -18.9478  -30.1462   23.8868 C   0  0  0  0  0  0
  -17.6477  -30.6583   24.0560 C   0  0  0  0  0  0
  -25.9054  -34.9452   23.5091 C   0  0  0  0  0  0
  -16.5370  -29.9080   23.6327 C   0  0  0  0  0  0
  -16.7290  -28.6507   23.0330 C   0  0  0  0  0  0
  -26.4501  -31.6581   25.0705 C   0  0  0  0  0  0
  -25.3724  -31.3725   26.1426 C   0  0  0  0  0  0
  -27.0359  -30.3011   24.6164 C   0  0  0  0  0  0
  -27.6063  -32.4319   25.7480 C   0  0  0  0  0  0
  -27.5584  -37.1787   24.8452 C   0  0  0  0  0  0
  -21.4190  -29.3048   22.3634 N   0  0  0  0  0  0
  -26.4290  -37.3775   23.9405 N   0  0  0  0  0  0
  -24.6885  -31.0602   22.0925 N   0  0  0  0  0  0
  -23.4192  -28.8175   23.3009 O   0  0  0  0  0  0
  -28.3542  -26.4649   20.1837 O   0  0  0  0  0  0
  -26.5630  -34.8924   22.4662 O   0  0  0  0  0  0
  -23.5429  -32.1395   23.7301 O   0  0  0  0  0  0
  -30.7414  -18.0291   21.2385 C   0  0  0  0  0  0
  -30.6001  -19.4354   21.0213 C   0  0  0  0  0  0
  -28.8576  -17.6452   19.8034 C   0  0  0  0  0  0
  -28.7034  -19.0503   19.5679 C   0  0  0  0  0  0
  -29.8668  -17.0948   20.6269 C   0  0  0  0  0  0
  -29.5867  -19.9960   20.1943 C   0  0  0  0  0  0
  -27.5862  -19.4355   18.6457 C   0  0  0  0  0  0
  -25.1160  -21.3547   18.6960 C   0  0  0  0  0  0
  -28.9886  -23.8828   20.0442 C   0  0  0  0  0  0
  -26.3546  -21.3191   17.7878 C   0  0  0  0  0  0
  -28.2072  -25.0928   20.7409 C   0  0  0  0  0  0
  -28.8915  -22.3972   20.6471 C   0  0  0  0  0  0
  -29.8389  -15.6686   20.9352 N   0  0  0  0  0  0
  -26.8391  -18.6165   18.1022 O   0  0  0  0  0  0
  -29.6217  -21.3758   19.8809 O   0  0  0  0  0  0
  -27.4530  -20.7620   18.4895 O   0  0  0  0  0  0
  -31.4867  -12.5075   19.1635 H   0  0  0  0  0  0
  -30.3588  -11.3956   19.8857 H   0  0  0  0  0  0
  -29.7846  -11.7994   17.4615 H   0  0  0  0  0  0
  -29.6557  -13.5123   17.7672 H   0  0  0  0  0  0
  -27.8711  -11.3030   18.8604 H   0  0  0  0  0  0
  -27.3805  -12.5914   17.7931 H   0  0  0  0  0  0
  -27.6748  -14.2578   19.5295 H   0  0  0  0  0  0
  -28.7048  -12.0436   21.3717 H   0  0  0  0  0  0
  -28.4445  -13.6906   21.8556 H   0  0  0  0  0  0
  -25.2775   -9.5708   22.4754 H   0  0  0  0  0  0
  -24.0023   -7.4628   22.7457 H   0  0  0  0  0  0
  -21.0833   -8.8762   19.8947 H   0  0  0  0  0  0
  -22.3688  -10.9669   19.6153 H   0  0  0  0  0  0
  -21.2027   -7.6153   23.9736 H   0  0  0  0  0  0
  -21.1476   -6.0520   25.9083 H   0  0  0  0  0  0
  -22.0591   -2.7616   23.2833 H   0  0  0  0  0  0
  -22.4050  -11.9960   22.4863 H   0  0  0  0  0  0
  -21.1058  -13.1296   22.2569 H   0  0  0  0  0  0
  -24.6493  -15.8384   20.5126 H   0  0  0  0  0  0
  -26.2686  -15.6288   20.0737 H   0  0  0  0  0  0
  -26.7170  -32.5445   23.1065 H   0  0  0  0  0  0
  -25.0089  -33.9720   25.0420 H   0  0  0  0  0  0
  -22.7155  -31.2971   21.3872 H   0  0  0  0  0  0
  -23.3766  -35.9608   23.3280 H   0  0  0  0  0  0
  -24.3581  -36.8930   22.2042 H   0  0  0  0  0  0
  -23.7248  -37.6480   23.6678 H   0  0  0  0  0  0
  -26.0930  -31.5413   20.5945 H   0  0  0  0  0  0
  -26.8409  -30.8390   22.0004 H   0  0  0  0  0  0
  -28.1179  -28.9856   21.2057 H   0  0  0  0  0  0
  -26.0185  -25.8817   19.0776 H   0  0  0  0  0  0
  -23.9836  -27.2649   19.0474 H   0  0  0  0  0  0
  -23.7673  -30.5743   19.3957 H   0  0  0  0  0  0
  -22.7616  -29.2327   19.8545 H   0  0  0  0  0  0
  -25.1294  -36.1909   25.0810 H   0  0  0  0  0  0
  -20.9989  -28.3303   24.1367 H   0  0  0  0  0  0
  -20.5690  -26.2322   23.3599 H   0  0  0  0  0  0
  -21.6673  -26.7452   22.1199 H   0  0  0  0  0  0
  -19.6953  -25.6282   21.1247 H   0  0  0  0  0  0
  -19.6727  -27.3166   20.6695 H   0  0  0  0  0  0
  -17.4223  -26.6651   21.4002 H   0  0  0  0  0  0
  -18.0371  -26.0077   22.9005 H   0  0  0  0  0  0
  -19.7956  -30.7280   24.2218 H   0  0  0  0  0  0
  -17.5041  -31.6254   24.5175 H   0  0  0  0  0  0
  -15.5371  -30.2979   23.7674 H   0  0  0  0  0  0
  -15.8688  -28.0832   22.7042 H   0  0  0  0  0  0
  -24.5869  -30.7120   25.7734 H   0  0  0  0  0  0
  -24.8953  -32.2899   26.4882 H   0  0  0  0  0  0
  -25.8024  -30.8853   27.0185 H   0  0  0  0  0  0
  -26.2936  -29.6732   24.1218 H   0  0  0  0  0  0
  -27.4100  -29.7291   25.4666 H   0  0  0  0  0  0
  -27.8787  -30.4313   23.9370 H   0  0  0  0  0  0
  -27.2679  -33.3616   26.2071 H   0  0  0  0  0  0
  -28.3870  -32.6881   25.0305 H   0  0  0  0  0  0
  -28.0744  -31.8436   26.5383 H   0  0  0  0  0  0
  -28.2575  -38.0113   24.7539 H   0  0  0  0  0  0
  -28.1114  -36.2644   24.6235 H   0  0  0  0  0  0
  -27.2304  -37.1376   25.8855 H   0  0  0  0  0  0
  -20.9383  -29.8742   21.6804 H   0  0  0  0  0  0
  -26.0168  -38.2843   24.1431 H   0  0  0  0  0  0
  -31.5231  -17.6766   21.8959 H   0  0  0  0  0  0
  -31.3106  -20.1009   21.4917 H   0  0  0  0  0  0
  -28.1744  -16.9538   19.3305 H   0  0  0  0  0  0
  -24.3035  -21.9067   18.2253 H   0  0  0  0  0  0
  -25.3369  -21.8331   19.6512 H   0  0  0  0  0  0
  -24.7510  -20.3485   18.9012 H   0  0  0  0  0  0
  -30.0457  -24.1484   20.0101 H   0  0  0  0  0  0
  -28.6614  -23.8390   19.0051 H   0  0  0  0  0  0
  -26.6303  -22.3347   17.5039 H   0  0  0  0  0  0
  -26.1585  -20.7735   16.8636 H   0  0  0  0  0  0
  -28.5636  -25.1573   21.7724 H   0  0  0  0  0  0
  -27.1553  -24.8177   20.8328 H   0  0  0  0  0  0
  -27.8433  -22.1049   20.7203 H   0  0  0  0  0  0
  -29.2772  -22.3878   21.6664 H   0  0  0  0  0  0
  -28.9380  -15.3364   21.2477 H   0  0  0  0  0  0
  1 25  1  0  0  0
  1 30  2  0  0  0
  1 83  1  0  0  0
  2  3  1  0  0  0
  2 25  1  0  0  0
  2 87  1  0  0  0
  2 88  1  0  0  0
  3  4  1  0  0  0
  3 89  1  0  0  0
  3 90  1  0  0  0
  4  5  1  0  0  0
  4 91  1  0  0  0
  4 92  1  0  0  0
  5  6  1  0  0  0
  5 26  1  0  0  0
  5 93  1  0  0  0
  6 25  1  0  0  0
  6 94  1  0  0  0
  6 95  1  0  0  0
  7  8  2  0  0  0
  7 26  1  0  0  0
  7 29  1  0  0  0
  8  9  1  0  0  0
  8 22  1  0  0  0
  9 10  1  0  0  0
  9 27  2  0  0  0
 10 11  2  0  0  0
 10 15  1  0  0  0
 11 12  1  0  0  0
 11 96  1  0  0  0
 12 13  2  0  0  0
 12 97  1  0  0  0
 13 14  1  0  0  0
 13 31  1  0  0  0
 14 15  2  0  0  0
 14 98  1  0  0  0
 15 99  1  0  0  0
 16 17  2  0  0  0
 16 21  1  0  0  0
 16 31  1  0  0  0
 17 18  1  0  0  0
 17100  1  0  0  0
 18 19  2  0  0  0
 18101  1  0  0  0
 19 20  1  0  0  0
 19 24  1  0  0  0
 20 21  2  0  0  0
 20102  1  0  0  0
 21 23  1  0  0  0
 22 28  1  0  0  0
 22 32  2  0  0  0
 26 27  1  0  0  0
 28103  1  0  0  0
 28104  1  0  0  0
 29105  1  0  0  0
 29106  1  0  0  0
 33 34  1  0  0  0
 33 66  1  0  0  0
 33 70  2  0  0  0
 34 36  1  0  0  0
 34 59  1  0  0  0
 34107  1  0  0  0
 35 44  2  0  0  0
 35 45  1  0  0  0
 35 68  1  0  0  0
 36 56  1  0  0  0
 36108  1  0  0  0
 37 39  1  0  0  0
 37 47  1  0  0  0
 37 66  1  0  0  0
 37109  1  0  0  0
 38 43  2  0  0  0
 38 46  1  0  0  0
 38 47  1  0  0  0
 39 64  1  0  0  0
 39 67  2  0  0  0
 40 52  1  0  0  0
 40 53  2  0  0  0
 40 58  1  0  0  0
 41110  1  0  0  0
 41111  1  0  0  0
 41112  1  0  0  0
 41 48  1  0  0  0
 42 43  1  0  0  0
 42 66  1  0  0  0
 42113  1  0  0  0
 42114  1  0  0  0
 43 44  1  0  0  0
 44115  1  0  0  0
 45 46  2  0  0  0
 45116  1  0  0  0
 46117  1  0  0  0
 47118  1  0  0  0
 47119  1  0  0  0
 48 56  1  0  0  0
 48 65  1  0  0  0
 48120  1  0  0  0
 49 50  1  0  0  0
 49 53  1  0  0  0
 49 64  1  0  0  0
 49121  1  0  0  0
 50 51  1  0  0  0
 50122  1  0  0  0
 50123  1  0  0  0
 51 52  1  0  0  0
 51124  1  0  0  0
 51125  1  0  0  0
 52126  1  0  0  0
 52127  1  0  0  0
 53 54  1  0  0  0
 54 55  2  0  0  0
 54128  1  0  0  0
 55 57  1  0  0  0
 55129  1  0  0  0
 56 69  2  0  0  0
 57 58  2  0  0  0
 57130  1  0  0  0
 58131  1  0  0  0
 59 60  1  0  0  0
 59 61  1  0  0  0
 59 62  1  0  0  0
 60132  1  0  0  0
 60133  1  0  0  0
 60134  1  0  0  0
 61135  1  0  0  0
 61136  1  0  0  0
 61137  1  0  0  0
 62138  1  0  0  0
 62139  1  0  0  0
 62140  1  0  0  0
 63 65  1  0  0  0
 63141  1  0  0  0
 63142  1  0  0  0
 63143  1  0  0  0
 64144  1  0  0  0
 65145  1  0  0  0
 68 81  1  0  0  0
 71 72  2  0  0  0
 71 75  1  0  0  0
 71146  1  0  0  0
 72 76  1  0  0  0
 72147  1  0  0  0
 73 74  1  0  0  0
 73 75  2  0  0  0
 73148  1  0  0  0
 74 76  2  0  0  0
 74 77  1  0  0  0
 75 83  1  0  0  0
 76 85  1  0  0  0
 77 84  2  0  0  0
 77 86  1  0  0  0
 78 80  1  0  0  0
 78149  1  0  0  0
 78150  1  0  0  0
 78151  1  0  0  0
 79 81  1  0  0  0
 79 82  1  0  0  0
 79152  1  0  0  0
 79153  1  0  0  0
 80 86  1  0  0  0
 80154  1  0  0  0
 80155  1  0  0  0
 81156  1  0  0  0
 81157  1  0  0  0
 82 85  1  0  0  0
 82158  1  0  0  0
 82159  1  0  0  0
 83160  1  0  0  0
M  ISO  4   1 100  68 101  81 101  83 100
M  END
> <chiral flag>
0

> <version>
0

> <s_m_source_file>
/data/baiqing/PycharmProjects/Reinvent-master-3.2/result/LINK_invent/BTK/process_docking_weight1_custom_product_contain_oxygen_bond_distance_aromatic_linkinvent_7_9_3/rearranged_h_0001.sdf

> <i_m_source_file_index>
50

> <r_mmod_Potential_Energy-OPLS-2005>
102.044486999512

> <r_mmod_Stretch_Energy-OPLS-2005>
85.3802795410156

> <r_mmod_Bend_Energy-OPLS-2005>
142.894439697266

> <r_mmod_Torsional_Energy-OPLS-2005>
280.612823486328

> <r_mmod_Improper_Torsional_Energy-OPLS-2005>
6.32540845870972

> <r_mmod_Van_der_Waal_Energy-OPLS-2005>
139.149169921875

> <r_mmod_Electrostatic_Energy-OPLS-2005>
-383.461578369141

> <r_mmod_Solvation_Energy-OPLS-2005>
-219.033172607422

> <b_mmod_Minimization_Converged-OPLS-2005>
0

> <r_mmod_RMS_Derivative-OPLS-2005>
3.26810026168823

$$$$
50
                    3D
 Structure written by MMmdl.
165174  0  0  1  0            999 V2000
  -30.6157  -14.6444   20.4999 C   0  0  0  0  0  0
  -30.4395  -12.3957   19.4506 C   0  0  0  0  0  0
  -29.5075  -12.5089   18.2227 C   0  0  0  0  0  0
  -28.0295  -12.3482   18.6334 C   0  0  0  0  0  0
  -27.6530  -13.2165   19.8633 C   0  0  2  0  0  0
  -28.6977  -13.0673   20.9925 C   0  0  0  0  0  0
  -25.2559  -13.8177   20.5691 C   0  0  0  0  0  0
  -24.1827  -13.0444   20.9198 C   0  0  0  0  0  0
  -24.6393  -11.6917   20.8746 C   0  0  0  0  0  0
  -23.9061  -10.4298   21.0412 C   0  0  0  0  0  0
  -24.3619   -9.4210   21.9183 C   0  0  0  0  0  0
  -23.6298   -8.2243   22.0750 C   0  0  0  0  0  0
  -22.4277   -8.0282   21.3544 C   0  0  0  0  0  0
  -21.9911   -9.0255   20.4645 C   0  0  0  0  0  0
  -22.7238  -10.2135   20.3057 C   0  0  0  0  0  0
  -21.6852   -6.0739   22.5281 C   0  0  0  0  0  0
  -21.4008   -6.5643   23.8215 C   0  0  0  0  0  0
  -21.3660   -5.6795   24.9179 C   0  0  0  0  0  0
  -21.6046   -4.3057   24.7227 C   0  0  0  0  0  0
  -21.8819   -3.8148   23.4349 C   0  0  0  0  0  0
  -21.9191   -4.6966   22.3407 C   0  0  0  0  0  0
  -22.7851  -13.5234   21.1869 C   0  0  0  0  0  0
  -22.1661   -4.2155   21.0984 F   0  0  0  0  0  0
  -21.5632   -3.4536   25.7739 F   0  0  0  0  0  0
  -30.0129  -13.4143   20.4313 N   0  0  0  0  0  0
  -26.2982  -12.9353   20.3310 N   0  0  0  0  0  0
  -25.9317  -11.6508   20.5751 N   0  0  0  0  0  0
  -22.0489  -12.8226   22.0420 N   0  0  0  0  0  0
  -25.4287  -15.1900   20.4115 N   0  0  0  0  0  0
  -31.7774  -14.8053   20.1144 O   0  0  0  0  0  0
  -21.6641   -6.8881   21.4243 O   0  0  0  0  0  0
  -22.3544  -14.5542   20.6721 O   0  0  0  0  0  0
  -24.6261  -31.8595   23.2026 C   0  0  0  0  0  0
  -25.9114  -32.4779   23.8354 C   0  0  1  0  0  0
  -27.2247  -27.3199   20.1168 C   0  0  0  0  0  0
  -25.5931  -33.8577   24.2284 N   0  0  0  0  0  0
  -23.4199  -30.4845   21.5441 C   0  0  2  0  0  0
  -24.8660  -28.9391   20.1102 C   0  0  0  0  0  0
  -22.7473  -29.4634   22.4924 C   0  0  0  0  0  0
  -18.0291  -28.1385   22.8492 C   0  0  0  0  0  0
  -24.1484  -36.7286   23.2636 C   0  0  0  0  0  0
  -25.9604  -30.7919   21.3718 C   0  0  0  0  0  0
  -26.0348  -29.4192   20.7138 C   0  0  0  0  0  0
  -27.2170  -28.6218   20.7059 C   0  0  0  0  0  0
  -26.0320  -26.8925   19.4881 C   0  0  0  0  0  0
  -24.8665  -27.6816   19.4878 C   0  0  0  0  0  0
  -23.6344  -29.8196   20.1594 C   0  0  0  0  0  0
  -25.4106  -36.3076   24.0333 C   0  0  1  0  0  0
  -20.5892  -28.3690   23.1281 C   0  0  2  0  0  0
  -20.6779  -26.9414   22.5405 C   0  0  0  0  0  0
  -19.5752  -26.6384   21.5211 C   0  0  0  0  0  0
  -18.1932  -26.7931   22.1626 C   0  0  0  0  0  0
  -19.1544  -28.8854   23.2885 C   0  0  0  0  0  0
  -18.9466  -30.1455   23.8903 C   0  0  0  0  0  0
  -17.6467  -30.6590   24.0565 C   0  0  0  0  0  0
  -25.9049  -34.9450   23.5106 C   0  0  0  0  0  0
  -16.5355  -29.9094   23.6329 C   0  0  0  0  0  0
  -16.7279  -28.6508   23.0356 C   0  0  0  0  0  0
  -26.4499  -31.6587   25.0720 C   0  0  0  0  0  0
  -25.3742  -31.3743   26.1457 C   0  0  0  0  0  0
  -27.0321  -30.3005   24.6169 C   0  0  0  0  0  0
  -27.6067  -32.4311   25.7486 C   0  0  0  0  0  0
  -27.5579  -37.1790   24.8464 C   0  0  0  0  0  0
  -21.4186  -29.3046   22.3672 N   0  0  0  0  0  0
  -26.4280  -37.3774   23.9424 N   0  0  0  0  0  0
  -24.6876  -31.0618   22.0968 N   0  0  0  0  0  0
  -23.4197  -28.8171   23.3000 O   0  0  0  0  0  0
  -28.3465  -26.4764   20.1714 O   0  0  0  0  0  0
  -26.5608  -34.8917   22.4667 O   0  0  0  0  0  0
  -23.5431  -32.1388   23.7367 O   0  0  0  0  0  0
  -30.9845  -19.2727   20.0633 C   0  0  0  0  0  0
  -30.9723  -17.8478   20.1410 C   0  0  0  0  0  0
  -28.8207  -17.9604   21.1995 C   0  0  0  0  0  0
  -28.8368  -19.3918   21.1343 C   0  0  0  0  0  0
  -29.9328  -20.1010   20.5561 C   0  0  0  0  0  0
  -29.8907  -17.1448   20.7294 C   0  0  0  0  0  0
  -27.7046  -20.5051   22.9769 C   0  0  0  0  0  0
  -27.6817  -20.1099   21.6883 C   0  0  0  0  0  0
  -30.1339  -21.6404   20.5826 C   0  0  0  0  0  0
  -26.5840  -21.2656   23.6647 C   0  0  0  0  0  0
  -26.4845  -20.4033   20.7936 C   0  0  0  0  0  0
  -25.2809  -21.2650   22.8480 C   0  0  0  0  0  0
  -25.5624  -21.4986   21.3594 C   0  0  0  0  0  0
  -29.3342  -24.0561   20.4688 C   0  0  0  0  0  0
  -28.1390  -25.0130   20.0528 C   0  0  0  0  0  0
  -29.8008  -15.6861   20.8687 N   0  0  0  0  0  0
  -29.1332  -22.5572   20.4015 N   0  0  0  0  0  0
  -31.2864  -22.0484   20.7443 O   0  0  0  0  0  0
  -31.4796  -12.5262   19.1469 H   0  0  0  0  0  0
  -30.3803  -11.3985   19.8893 H   0  0  0  0  0  0
  -29.7714  -11.7558   17.4785 H   0  0  0  0  0  0
  -29.6492  -13.4773   17.7395 H   0  0  0  0  0  0
  -27.8639  -11.2953   18.8619 H   0  0  0  0  0  0
  -27.3756  -12.5816   17.7923 H   0  0  0  0  0  0
  -27.6712  -14.2530   19.5256 H   0  0  0  0  0  0
  -28.7088  -12.0432   21.3690 H   0  0  0  0  0  0
  -28.4419  -13.6938   21.8483 H   0  0  0  0  0  0
  -25.2765   -9.5689   22.4757 H   0  0  0  0  0  0
  -24.0011   -7.4631   22.7460 H   0  0  0  0  0  0
  -21.0844   -8.8774   19.8949 H   0  0  0  0  0  0
  -22.3698  -10.9676   19.6169 H   0  0  0  0  0  0
  -21.1994   -7.6150   23.9722 H   0  0  0  0  0  0
  -21.1484   -6.0523   25.9085 H   0  0  0  0  0  0
  -22.0597   -2.7608   23.2846 H   0  0  0  0  0  0
  -22.4101  -11.9890   22.4818 H   0  0  0  0  0  0
  -21.1103  -13.1250   22.2610 H   0  0  0  0  0  0
  -24.6617  -15.8443   20.5214 H   0  0  0  0  0  0
  -26.2735  -15.6257   20.0646 H   0  0  0  0  0  0
  -26.7181  -32.5444   23.1104 H   0  0  0  0  0  0
  -25.0100  -33.9717   25.0447 H   0  0  0  0  0  0
  -22.7141  -31.3057   21.4016 H   0  0  0  0  0  0
  -23.3755  -35.9608   23.3279 H   0  0  0  0  0  0
  -24.3590  -36.8925   22.2056 H   0  0  0  0  0  0
  -23.7221  -37.6478   23.6667 H   0  0  0  0  0  0
  -26.0914  -31.5557   20.6041 H   0  0  0  0  0  0
  -26.8416  -30.8397   22.0001 H   0  0  0  0  0  0
  -28.1144  -28.9866   21.1862 H   0  0  0  0  0  0
  -25.9721  -25.9333   18.9960 H   0  0  0  0  0  0
  -23.9715  -27.3100   19.0075 H   0  0  0  0  0  0
  -23.7535  -30.5964   19.4030 H   0  0  0  0  0  0
  -22.7544  -29.2488   19.8580 H   0  0  0  0  0  0
  -25.1286  -36.1912   25.0824 H   0  0  0  0  0  0
  -20.9993  -28.3257   24.1398 H   0  0  0  0  0  0
  -20.5672  -26.2303   23.3605 H   0  0  0  0  0  0
  -21.6646  -26.7437   22.1195 H   0  0  0  0  0  0
  -19.6911  -25.6292   21.1246 H   0  0  0  0  0  0
  -19.6688  -27.3192   20.6740 H   0  0  0  0  0  0
  -17.4199  -26.6678   21.4030 H   0  0  0  0  0  0
  -18.0340  -26.0073   22.9026 H   0  0  0  0  0  0
  -19.7943  -30.7271   24.2269 H   0  0  0  0  0  0
  -17.5025  -31.6273   24.5164 H   0  0  0  0  0  0
  -15.5357  -30.2999   23.7654 H   0  0  0  0  0  0
  -15.8677  -28.0827   22.7073 H   0  0  0  0  0  0
  -24.5899  -30.7108   25.7800 H   0  0  0  0  0  0
  -24.8954  -32.2916   26.4890 H   0  0  0  0  0  0
  -25.8067  -30.8912   27.0227 H   0  0  0  0  0  0
  -26.2880  -29.6764   24.1203 H   0  0  0  0  0  0
  -27.4031  -29.7254   25.4663 H   0  0  0  0  0  0
  -27.8753  -30.4289   23.9378 H   0  0  0  0  0  0
  -27.2700  -33.3633   26.2034 H   0  0  0  0  0  0
  -28.3895  -32.6827   25.0320 H   0  0  0  0  0  0
  -28.0707  -31.8443   26.5424 H   0  0  0  0  0  0
  -28.2576  -38.0106   24.7534 H   0  0  0  0  0  0
  -28.1091  -36.2639   24.6249 H   0  0  0  0  0  0
  -27.2309  -37.1391   25.8868 H   0  0  0  0  0  0
  -20.9357  -29.8777   21.6891 H   0  0  0  0  0  0
  -26.0158  -38.2842   24.1446 H   0  0  0  0  0  0
  -31.8556  -19.7457   19.6320 H   0  0  0  0  0  0
  -31.8211  -17.3074   19.7479 H   0  0  0  0  0  0
  -27.9618  -17.4821   21.6505 H   0  0  0  0  0  0
  -28.5765  -20.2981   23.5827 H   0  0  0  0  0  0
  -26.9266  -22.2885   23.8276 H   0  0  0  0  0  0
  -26.4052  -20.8337   24.6502 H   0  0  0  0  0  0
  -25.9349  -19.4747   20.6355 H   0  0  0  0  0  0
  -26.8413  -20.7190   19.8127 H   0  0  0  0  0  0
  -24.5979  -22.0241   23.2319 H   0  0  0  0  0  0
  -24.7732  -20.3068   22.9703 H   0  0  0  0  0  0
  -24.6279  -21.5252   20.7973 H   0  0  0  0  0  0
  -26.0256  -22.4782   21.2304 H   0  0  0  0  0  0
  -29.6247  -24.3008   21.4913 H   0  0  0  0  0  0
  -30.1953  -24.3124   19.8499 H   0  0  0  0  0  0
  -27.2723  -24.7353   20.6544 H   0  0  0  0  0  0
  -27.8847  -24.7891   19.0165 H   0  0  0  0  0  0
  -28.9141  -15.3598   21.2208 H   0  0  0  0  0  0
  -28.1948  -22.2076   20.2677 H   0  0  0  0  0  0
  1 25  1  0  0  0
  1 30  2  0  0  0
  1 86  1  0  0  0
  2  3  1  0  0  0
  2 25  1  0  0  0
  2 89  1  0  0  0
  2 90  1  0  0  0
  3  4  1  0  0  0
  3 91  1  0  0  0
  3 92  1  0  0  0
  4  5  1  0  0  0
  4 93  1  0  0  0
  4 94  1  0  0  0
  5  6  1  0  0  0
  5 26  1  0  0  0
  5 95  1  0  0  0
  6 25  1  0  0  0
  6 96  1  0  0  0
  6 97  1  0  0  0
  7  8  2  0  0  0
  7 26  1  0  0  0
  7 29  1  0  0  0
  8  9  1  0  0  0
  8 22  1  0  0  0
  9 10  1  0  0  0
  9 27  2  0  0  0
 10 11  2  0  0  0
 10 15  1  0  0  0
 11 12  1  0  0  0
 11 98  1  0  0  0
 12 13  2  0  0  0
 12 99  1  0  0  0
 13 14  1  0  0  0
 13 31  1  0  0  0
 14 15  2  0  0  0
 14100  1  0  0  0
 15101  1  0  0  0
 16 17  2  0  0  0
 16 21  1  0  0  0
 16 31  1  0  0  0
 17 18  1  0  0  0
 17102  1  0  0  0
 18 19  2  0  0  0
 18103  1  0  0  0
 19 20  1  0  0  0
 19 24  1  0  0  0
 20 21  2  0  0  0
 20104  1  0  0  0
 21 23  1  0  0  0
 22 28  1  0  0  0
 22 32  2  0  0  0
 26 27  1  0  0  0
 28105  1  0  0  0
 28106  1  0  0  0
 29107  1  0  0  0
 29108  1  0  0  0
 33 34  1  0  0  0
 33 66  1  0  0  0
 33 70  2  0  0  0
 34 36  1  0  0  0
 34 59  1  0  0  0
 34109  1  0  0  0
 35 44  2  0  0  0
 35 45  1  0  0  0
 35 68  1  0  0  0
 36 56  1  0  0  0
 36110  1  0  0  0
 37 39  1  0  0  0
 37 47  1  0  0  0
 37 66  1  0  0  0
 37111  1  0  0  0
 38 43  2  0  0  0
 38 46  1  0  0  0
 38 47  1  0  0  0
 39 64  1  0  0  0
 39 67  2  0  0  0
 40 52  1  0  0  0
 40 53  2  0  0  0
 40 58  1  0  0  0
 41112  1  0  0  0
 41113  1  0  0  0
 41114  1  0  0  0
 41 48  1  0  0  0
 42 43  1  0  0  0
 42 66  1  0  0  0
 42115  1  0  0  0
 42116  1  0  0  0
 43 44  1  0  0  0
 44117  1  0  0  0
 45 46  2  0  0  0
 45118  1  0  0  0
 46119  1  0  0  0
 47120  1  0  0  0
 47121  1  0  0  0
 48 56  1  0  0  0
 48 65  1  0  0  0
 48122  1  0  0  0
 49 50  1  0  0  0
 49 53  1  0  0  0
 49 64  1  0  0  0
 49123  1  0  0  0
 50 51  1  0  0  0
 50124  1  0  0  0
 50125  1  0  0  0
 51 52  1  0  0  0
 51126  1  0  0  0
 51127  1  0  0  0
 52128  1  0  0  0
 52129  1  0  0  0
 53 54  1  0  0  0
 54 55  2  0  0  0
 54130  1  0  0  0
 55 57  1  0  0  0
 55131  1  0  0  0
 56 69  2  0  0  0
 57 58  2  0  0  0
 57132  1  0  0  0
 58133  1  0  0  0
 59 60  1  0  0  0
 59 61  1  0  0  0
 59 62  1  0  0  0
 60134  1  0  0  0
 60135  1  0  0  0
 60136  1  0  0  0
 61137  1  0  0  0
 61138  1  0  0  0
 61139  1  0  0  0
 62140  1  0  0  0
 62141  1  0  0  0
 62142  1  0  0  0
 63 65  1  0  0  0
 63143  1  0  0  0
 63144  1  0  0  0
 63145  1  0  0  0
 64146  1  0  0  0
 65147  1  0  0  0
 68 85  1  0  0  0
 71 72  2  0  0  0
 71 75  1  0  0  0
 71148  1  0  0  0
 72 76  1  0  0  0
 72149  1  0  0  0
 73 74  1  0  0  0
 73 76  2  0  0  0
 73150  1  0  0  0
 74 75  2  0  0  0
 74 78  1  0  0  0
 75 79  1  0  0  0
 76 86  1  0  0  0
 77 78  2  0  0  0
 77 80  1  0  0  0
 77151  1  0  0  0
 78 81  1  0  0  0
 79 87  1  0  0  0
 79 88  2  0  0  0
 80 82  1  0  0  0
 80152  1  0  0  0
 80153  1  0  0  0
 81 83  1  0  0  0
 81154  1  0  0  0
 81155  1  0  0  0
 82 83  1  0  0  0
 82156  1  0  0  0
 82157  1  0  0  0
 83158  1  0  0  0
 83159  1  0  0  0
 84 85  1  0  0  0
 84 87  1  0  0  0
 84160  1  0  0  0
 84161  1  0  0  0
 85162  1  0  0  0
 85163  1  0  0  0
 86164  1  0  0  0
 87165  1  0  0  0
M  ISO  4   1 100  68 101  85 101  86 100
M  END
> <chiral flag>
0

> <version>
0

> <s_m_source_file>
/data/baiqing/PycharmProjects/Reinvent-master-3.2/result/LINK_invent/BTK/process_docking_weight1_custom_product_contain_oxygen_bond_distance_aromatic_linkinvent_7_9_3/rearranged_h_0001.sdf

> <i_m_source_file_index>
51

> <r_mmod_Potential_Energy-OPLS-2005>
32.4333724975586

> <r_mmod_Stretch_Energy-OPLS-2005>
81.604736328125

> <r_mmod_Bend_Energy-OPLS-2005>
147.807769775391

> <r_mmod_Torsional_Energy-OPLS-2005>
250.512008666992

> <r_mmod_Improper_Torsional_Energy-OPLS-2005>
4.55268383026123

> <r_mmod_Van_der_Waal_Energy-OPLS-2005>
146.995086669922

> <r_mmod_Electrostatic_Energy-OPLS-2005>
-423.340728759766

> <r_mmod_Solvation_Energy-OPLS-2005>
-224.513824462891

> <b_mmod_Minimization_Converged-OPLS-2005>
0

> <r_mmod_RMS_Derivative-OPLS-2005>
0.965569078922272

$$$$
51
                    3D
 Structure written by MMmdl.
147155  0  0  1  0            999 V2000
  -30.4199  -15.1785   20.4077 C   0  0  0  0  0  0
  -30.4434  -12.7436   19.5359 C   0  0  0  0  0  0
  -29.5361  -12.5807   18.2885 C   0  0  0  0  0  0
  -28.0756  -12.3212   18.6994 C   0  0  0  0  0  0
  -27.6183  -13.2694   19.8376 C   0  0  2  0  0  0
  -28.6491  -13.3686   20.9817 C   0  0  0  0  0  0
  -25.2398  -13.8251   20.5735 C   0  0  0  0  0  0
  -24.1742  -13.0447   20.9244 C   0  0  0  0  0  0
  -24.6393  -11.6938   20.8752 C   0  0  0  0  0  0
  -23.9093  -10.4302   21.0411 C   0  0  0  0  0  0
  -24.3638   -9.4215   21.9178 C   0  0  0  0  0  0
  -23.6314   -8.2250   22.0747 C   0  0  0  0  0  0
  -22.4291   -8.0289   21.3545 C   0  0  0  0  0  0
  -21.9935   -9.0272   20.4646 C   0  0  0  0  0  0
  -22.7267  -10.2147   20.3058 C   0  0  0  0  0  0
  -21.6856   -6.0747   22.5280 C   0  0  0  0  0  0
  -21.4015   -6.5644   23.8214 C   0  0  0  0  0  0
  -21.3661   -5.6794   24.9171 C   0  0  0  0  0  0
  -21.6039   -4.3058   24.7224 C   0  0  0  0  0  0
  -21.8813   -3.8150   23.4345 C   0  0  0  0  0  0
  -21.9193   -4.6969   22.3401 C   0  0  0  0  0  0
  -22.7759  -13.5193   21.1916 C   0  0  0  0  0  0
  -22.1662   -4.2155   21.0985 F   0  0  0  0  0  0
  -21.5633   -3.4541   25.7739 F   0  0  0  0  0  0
  -29.9007  -13.8606   20.3858 N   0  0  0  0  0  0
  -26.2826  -12.9509   20.3243 N   0  0  0  0  0  0
  -25.9327  -11.6621   20.5714 N   0  0  0  0  0  0
  -22.0442  -12.8163   22.0481 N   0  0  0  0  0  0
  -25.4065  -15.1986   20.4180 N   0  0  0  0  0  0
  -31.6195  -15.2546   20.1039 O   0  0  0  0  0  0
  -21.6645   -6.8893   21.4244 O   0  0  0  0  0  0
  -22.3433  -14.5506   20.6779 O   0  0  0  0  0  0
  -24.6577  -31.8292   23.1741 C   0  0  0  0  0  0
  -25.9272  -32.4616   23.8213 C   0  0  1  0  0  0
  -27.2156  -26.9802   20.1894 C   0  0  0  0  0  0
  -25.5943  -33.8437   24.2122 N   0  0  0  0  0  0
  -23.4723  -30.4436   21.5204 C   0  0  2  0  0  0
  -24.9261  -28.8409   20.1091 C   0  0  0  0  0  0
  -22.7641  -29.4482   22.4765 C   0  0  0  0  0  0
  -18.0337  -28.1353   22.8534 C   0  0  0  0  0  0
  -24.1490  -36.7222   23.2652 C   0  0  0  0  0  0
  -26.0372  -30.6537   21.3993 C   0  0  0  0  0  0
  -26.1055  -29.2485   20.7451 C   0  0  0  0  0  0
  -27.2468  -28.3367   20.7623 C   0  0  0  0  0  0
  -26.0136  -26.7108   19.4999 C   0  0  0  0  0  0
  -24.9029  -27.5926   19.4648 C   0  0  0  0  0  0
  -23.7123  -29.7661   20.1432 C   0  0  0  0  0  0
  -25.4128  -36.2998   24.0319 C   0  0  1  0  0  0
  -20.5951  -28.3754   23.1160 C   0  0  2  0  0  0
  -20.6836  -26.9471   22.5281 C   0  0  0  0  0  0
  -19.5714  -26.6366   21.5196 C   0  0  0  0  0  0
  -18.1980  -26.7843   22.1789 C   0  0  0  0  0  0
  -19.1590  -28.8895   23.2811 C   0  0  0  0  0  0
  -18.9494  -30.1508   23.8787 C   0  0  0  0  0  0
  -17.6489  -30.6615   24.0459 C   0  0  0  0  0  0
  -25.9082  -34.9368   23.5047 C   0  0  0  0  0  0
  -16.5377  -29.9067   23.6299 C   0  0  0  0  0  0
  -16.7308  -28.6436   23.0417 C   0  0  0  0  0  0
  -26.4548  -31.6536   25.0708 C   0  0  0  0  0  0
  -25.3699  -31.3755   26.1372 C   0  0  0  0  0  0
  -27.0436  -30.2919   24.6397 C   0  0  0  0  0  0
  -27.6056  -32.4326   25.7501 C   0  0  0  0  0  0
  -27.5575  -37.1775   24.8477 C   0  0  0  0  0  0
  -21.4311  -29.3114   22.3557 N   0  0  0  0  0  0
  -26.4285  -37.3721   23.9410 N   0  0  0  0  0  0
  -24.7432  -31.0015   22.0853 N   0  0  0  0  0  0
  -23.4211  -28.7982   23.2937 O   0  0  0  0  0  0
  -28.2297  -25.9091   20.2855 O   0  0  0  0  0  0
  -26.5698  -34.8894   22.4640 O   0  0  0  0  0  0
  -23.5656  -32.1229   23.6866 O   0  0  0  0  0  0
  -30.0405  -20.3927   19.7329 C   0  0  0  0  0  0
  -28.2858  -20.2223   21.2111 C   0  0  0  0  0  0
  -30.2556  -18.9213   19.7784 C   0  0  0  0  0  0
  -28.4911  -18.7521   21.2474 C   0  0  0  0  0  0
  -29.0404  -21.1948   20.4368 C   0  0  0  0  0  0
  -29.4970  -17.9531   20.5530 C   0  0  0  0  0  0
  -29.0415  -22.9312   20.5599 C   0  0  0  0  0  0
  -27.9942  -24.3010   20.1489 C   0  0  0  0  0  0
  -29.5703  -16.3507   20.6420 N   0  0  0  0  0  0
  -31.4677  -12.9427   19.2166 H   0  0  0  0  0  0
  -30.4922  -11.8132   20.1030 H   0  0  0  0  0  0
  -29.8993  -11.7719   17.6550 H   0  0  0  0  0  0
  -29.5855  -13.4889   17.6849 H   0  0  0  0  0  0
  -28.0020  -11.2856   19.0331 H   0  0  0  0  0  0
  -27.4168  -12.4120   17.8353 H   0  0  0  0  0  0
  -27.5552  -14.2570   19.3783 H   0  0  0  0  0  0
  -28.7834  -12.4042   21.4725 H   0  0  0  0  0  0
  -28.2980  -14.0594   21.7504 H   0  0  0  0  0  0
  -25.2785   -9.5675   22.4752 H   0  0  0  0  0  0
  -24.0022   -7.4631   22.7451 H   0  0  0  0  0  0
  -21.0874   -8.8790   19.8948 H   0  0  0  0  0  0
  -22.3731  -10.9684   19.6165 H   0  0  0  0  0  0
  -21.2004   -7.6150   23.9716 H   0  0  0  0  0  0
  -21.1490   -6.0530   25.9075 H   0  0  0  0  0  0
  -22.0591   -2.7617   23.2846 H   0  0  0  0  0  0
  -22.4099  -11.9825   22.4840 H   0  0  0  0  0  0
  -21.1061  -13.1149   22.2726 H   0  0  0  0  0  0
  -24.6370  -15.8508   20.5231 H   0  0  0  0  0  0
  -26.2500  -15.6372   20.0746 H   0  0  0  0  0  0
  -26.7333  -32.5197   23.0929 H   0  0  0  0  0  0
  -25.0036  -33.9524   25.0241 H   0  0  0  0  0  0
  -22.7860  -31.2764   21.3532 H   0  0  0  0  0  0
  -23.3768  -35.9540   23.3304 H   0  0  0  0  0  0
  -24.3563  -36.8864   22.2066 H   0  0  0  0  0  0
  -23.7229  -37.6408   23.6699 H   0  0  0  0  0  0
  -26.2124  -31.3977   20.6219 H   0  0  0  0  0  0
  -26.8992  -30.7092   22.0515 H   0  0  0  0  0  0
  -28.1398  -28.6440   21.2902 H   0  0  0  0  0  0
  -25.9044  -25.7572   19.0039 H   0  0  0  0  0  0
  -24.0074  -27.2838   18.9412 H   0  0  0  0  0  0
  -23.8760  -30.5395   19.3916 H   0  0  0  0  0  0
  -22.8224  -29.2248   19.8171 H   0  0  0  0  0  0
  -25.1316  -36.1821   25.0814 H   0  0  0  0  0  0
  -21.0055  -28.3306   24.1266 H   0  0  0  0  0  0
  -20.5885  -26.2365   23.3497 H   0  0  0  0  0  0
  -21.6658  -26.7513   22.0941 H   0  0  0  0  0  0
  -19.6884  -25.6277   21.1232 H   0  0  0  0  0  0
  -19.6496  -27.3175   20.6705 H   0  0  0  0  0  0
  -17.4132  -26.6403   21.4344 H   0  0  0  0  0  0
  -18.0613  -26.0055   22.9317 H   0  0  0  0  0  0
  -19.7980  -30.7371   24.2072 H   0  0  0  0  0  0
  -17.5033  -31.6342   24.4949 H   0  0  0  0  0  0
  -15.5372  -30.2968   23.7612 H   0  0  0  0  0  0
  -15.8706  -28.0693   22.7248 H   0  0  0  0  0  0
  -24.5888  -30.7090   25.7689 H   0  0  0  0  0  0
  -24.8860  -32.2931   26.4734 H   0  0  0  0  0  0
  -25.7935  -30.8964   27.0211 H   0  0  0  0  0  0
  -26.3083  -29.6604   24.1385 H   0  0  0  0  0  0
  -27.3985  -29.7261   25.5027 H   0  0  0  0  0  0
  -27.9023  -30.4130   23.9782 H   0  0  0  0  0  0
  -27.2645  -33.3663   26.2005 H   0  0  0  0  0  0
  -28.3906  -32.6842   25.0348 H   0  0  0  0  0  0
  -28.0700  -31.8506   26.5480 H   0  0  0  0  0  0
  -28.2590  -38.0071   24.7496 H   0  0  0  0  0  0
  -28.1063  -36.2594   24.6329 H   0  0  0  0  0  0
  -27.2283  -37.1454   25.8877 H   0  0  0  0  0  0
  -20.9532  -29.8939   21.6821 H   0  0  0  0  0  0
  -26.0147  -38.2790   24.1409 H   0  0  0  0  0  0
  -30.7419  -20.9456   19.1256 H   0  0  0  0  0  0
  -27.5153  -20.6130   21.8621 H   0  0  0  0  0  0
  -31.0611  -18.5335   19.1705 H   0  0  0  0  0  0
  -27.8148  -18.2083   21.8916 H   0  0  0  0  0  0
  -29.9867  -23.1912   20.0848 H   0  0  0  0  0  0
  -29.2406  -23.0836   21.6200 H   0  0  0  0  0  0
  -27.0590  -24.1235   20.6812 H   0  0  0  0  0  0
  -27.7400  -24.1585   19.0980 H   0  0  0  0  0  0
  -28.6928  -15.9915   20.9849 H   0  0  0  0  0  0
  1 25  1  0  0  0
  1 30  2  0  0  0
  1 79  1  0  0  0
  2  3  1  0  0  0
  2 25  1  0  0  0
  2 80  1  0  0  0
  2 81  1  0  0  0
  3  4  1  0  0  0
  3 82  1  0  0  0
  3 83  1  0  0  0
  4  5  1  0  0  0
  4 84  1  0  0  0
  4 85  1  0  0  0
  5  6  1  0  0  0
  5 26  1  0  0  0
  5 86  1  0  0  0
  6 25  1  0  0  0
  6 87  1  0  0  0
  6 88  1  0  0  0
  7  8  2  0  0  0
  7 26  1  0  0  0
  7 29  1  0  0  0
  8  9  1  0  0  0
  8 22  1  0  0  0
  9 10  1  0  0  0
  9 27  2  0  0  0
 10 11  2  0  0  0
 10 15  1  0  0  0
 11 12  1  0  0  0
 11 89  1  0  0  0
 12 13  2  0  0  0
 12 90  1  0  0  0
 13 14  1  0  0  0
 13 31  1  0  0  0
 14 15  2  0  0  0
 14 91  1  0  0  0
 15 92  1  0  0  0
 16 17  2  0  0  0
 16 21  1  0  0  0
 16 31  1  0  0  0
 17 18  1  0  0  0
 17 93  1  0  0  0
 18 19  2  0  0  0
 18 94  1  0  0  0
 19 20  1  0  0  0
 19 24  1  0  0  0
 20 21  2  0  0  0
 20 95  1  0  0  0
 21 23  1  0  0  0
 22 28  1  0  0  0
 22 32  2  0  0  0
 26 27  1  0  0  0
 28 96  1  0  0  0
 28 97  1  0  0  0
 29 98  1  0  0  0
 29 99  1  0  0  0
 33 34  1  0  0  0
 33 66  1  0  0  0
 33 70  2  0  0  0
 34 36  1  0  0  0
 34 59  1  0  0  0
 34100  1  0  0  0
 35 44  2  0  0  0
 35 45  1  0  0  0
 35 68  1  0  0  0
 36 56  1  0  0  0
 36101  1  0  0  0
 37 39  1  0  0  0
 37 47  1  0  0  0
 37 66  1  0  0  0
 37102  1  0  0  0
 38 43  2  0  0  0
 38 46  1  0  0  0
 38 47  1  0  0  0
 39 64  1  0  0  0
 39 67  2  0  0  0
 40 52  1  0  0  0
 40 53  2  0  0  0
 40 58  1  0  0  0
 41103  1  0  0  0
 41104  1  0  0  0
 41105  1  0  0  0
 41 48  1  0  0  0
 42 43  1  0  0  0
 42 66  1  0  0  0
 42106  1  0  0  0
 42107  1  0  0  0
 43 44  1  0  0  0
 44108  1  0  0  0
 45 46  2  0  0  0
 45109  1  0  0  0
 46110  1  0  0  0
 47111  1  0  0  0
 47112  1  0  0  0
 48 56  1  0  0  0
 48 65  1  0  0  0
 48113  1  0  0  0
 49 50  1  0  0  0
 49 53  1  0  0  0
 49 64  1  0  0  0
 49114  1  0  0  0
 50 51  1  0  0  0
 50115  1  0  0  0
 50116  1  0  0  0
 51 52  1  0  0  0
 51117  1  0  0  0
 51118  1  0  0  0
 52119  1  0  0  0
 52120  1  0  0  0
 53 54  1  0  0  0
 54 55  2  0  0  0
 54121  1  0  0  0
 55 57  1  0  0  0
 55122  1  0  0  0
 56 69  2  0  0  0
 57 58  2  0  0  0
 57123  1  0  0  0
 58124  1  0  0  0
 59 60  1  0  0  0
 59 61  1  0  0  0
 59 62  1  0  0  0
 60125  1  0  0  0
 60126  1  0  0  0
 60127  1  0  0  0
 61128  1  0  0  0
 61129  1  0  0  0
 61130  1  0  0  0
 62131  1  0  0  0
 62132  1  0  0  0
 62133  1  0  0  0
 63 65  1  0  0  0
 63134  1  0  0  0
 63135  1  0  0  0
 63136  1  0  0  0
 64137  1  0  0  0
 65138  1  0  0  0
 68 78  1  0  0  0
 71 73  2  0  0  0
 71 75  1  0  0  0
 71139  1  0  0  0
 72 74  1  0  0  0
 72 75  2  0  0  0
 72140  1  0  0  0
 73 76  1  0  0  0
 73141  1  0  0  0
 74 76  2  0  0  0
 74142  1  0  0  0
 75 77  1  0  0  0
 76 79  1  0  0  0
 77 78  1  0  0  0
 77143  1  0  0  0
 77144  1  0  0  0
 78145  1  0  0  0
 78146  1  0  0  0
 79147  1  0  0  0
M  ISO  4   1 100  68 101  78 101  79 100
M  END
> <chiral flag>
0

> <version>
0

> <s_m_source_file>
/data/baiqing/PycharmProjects/Reinvent-master-3.2/result/LINK_invent/BTK/process_docking_weight1_custom_product_contain_oxygen_bond_distance_aromatic_linkinvent_7_9_3/rearranged_h_0001.sdf

> <i_m_source_file_index>
52

> <r_mmod_Potential_Energy-OPLS-2005>
1025.51647949219

> <r_mmod_Stretch_Energy-OPLS-2005>
450.272552490234

> <r_mmod_Bend_Energy-OPLS-2005>
407.48046875

> <r_mmod_Torsional_Energy-OPLS-2005>
218.750228881836

> <r_mmod_Improper_Torsional_Energy-OPLS-2005>
5.29044628143311

> <r_mmod_Van_der_Waal_Energy-OPLS-2005>
127.384757995605

> <r_mmod_Electrostatic_Energy-OPLS-2005>
-353.050445556641

> <r_mmod_Solvation_Energy-OPLS-2005>
-210.476058959961

> <b_mmod_Minimization_Converged-OPLS-2005>
0

> <r_mmod_RMS_Derivative-OPLS-2005>
2.94189381599426

$$$$
52
                    3D
 Structure written by MMmdl.
171179  0  0  1  0            999 V2000
  -30.5117  -14.9151   20.4429 C   0  0  0  0  0  0
  -30.4521  -12.5662   19.4926 C   0  0  0  0  0  0
  -29.5223  -12.5388   18.2553 C   0  0  0  0  0  0
  -28.0550  -12.3212   18.6717 C   0  0  0  0  0  0
  -27.6385  -13.2376   19.8512 C   0  0  2  0  0  0
  -28.6823  -13.2152   20.9893 C   0  0  0  0  0  0
  -25.2500  -13.8199   20.5713 C   0  0  0  0  0  0
  -24.1795  -13.0433   20.9206 C   0  0  0  0  0  0
  -24.6397  -11.6913   20.8737 C   0  0  0  0  0  0
  -23.9067  -10.4288   21.0398 C   0  0  0  0  0  0
  -24.3613   -9.4204   21.9178 C   0  0  0  0  0  0
  -23.6287   -8.2238   22.0753 C   0  0  0  0  0  0
  -22.4272   -8.0275   21.3539 C   0  0  0  0  0  0
  -21.9908   -9.0248   20.4643 C   0  0  0  0  0  0
  -22.7236  -10.2126   20.3053 C   0  0  0  0  0  0
  -21.6857   -6.0730   22.5275 C   0  0  0  0  0  0
  -21.4016   -6.5635   23.8205 C   0  0  0  0  0  0
  -21.3660   -5.6787   24.9167 C   0  0  0  0  0  0
  -21.6049   -4.3051   24.7223 C   0  0  0  0  0  0
  -21.8815   -3.8143   23.4344 C   0  0  0  0  0  0
  -21.9192   -4.6957   22.3399 C   0  0  0  0  0  0
  -22.7813  -13.5212   21.1863 C   0  0  0  0  0  0
  -22.1660   -4.2141   21.0977 F   0  0  0  0  0  0
  -21.5628   -3.4539   25.7739 F   0  0  0  0  0  0
  -29.9671  -13.6341   20.4096 N   0  0  0  0  0  0
  -26.2924  -12.9406   20.3286 N   0  0  0  0  0  0
  -25.9329  -11.6543   20.5750 N   0  0  0  0  0  0
  -22.0467  -12.8199   22.0419 N   0  0  0  0  0  0
  -25.4189  -15.1926   20.4149 N   0  0  0  0  0  0
  -31.6899  -15.0554   20.0942 O   0  0  0  0  0  0
  -21.6637   -6.8874   21.4238 O   0  0  0  0  0  0
  -22.3494  -14.5517   20.6710 O   0  0  0  0  0  0
  -24.6439  -31.8440   23.1906 C   0  0  0  0  0  0
  -25.9222  -32.4696   23.8279 C   0  0  1  0  0  0
  -27.2155  -27.1427   20.1503 C   0  0  0  0  0  0
  -25.5966  -33.8499   24.2199 N   0  0  0  0  0  0
  -23.4459  -30.4648   21.5362 C   0  0  2  0  0  0
  -24.8940  -28.8927   20.1134 C   0  0  0  0  0  0
  -22.7558  -29.4541   22.4865 C   0  0  0  0  0  0
  -18.0301  -28.1386   22.8456 C   0  0  0  0  0  0
  -24.1488  -36.7262   23.2642 C   0  0  0  0  0  0
  -26.0014  -30.7184   21.3885 C   0  0  0  0  0  0
  -26.0709  -29.3298   20.7332 C   0  0  0  0  0  0
  -27.2323  -28.4708   20.7367 C   0  0  0  0  0  0
  -26.0170  -26.8129   19.4795 C   0  0  0  0  0  0
  -24.8795  -27.6467   19.4711 C   0  0  0  0  0  0
  -23.6720  -29.7954   20.1549 C   0  0  0  0  0  0
  -25.4114  -36.3032   24.0317 C   0  0  1  0  0  0
  -20.5909  -28.3708   23.1231 C   0  0  2  0  0  0
  -20.6786  -26.9413   22.5389 C   0  0  0  0  0  0
  -19.5769  -26.6373   21.5193 C   0  0  0  0  0  0
  -18.1949  -26.7916   22.1603 C   0  0  0  0  0  0
  -19.1554  -28.8866   23.2834 C   0  0  0  0  0  0
  -18.9476  -30.1465   23.8856 C   0  0  0  0  0  0
  -17.6478  -30.6584   24.0551 C   0  0  0  0  0  0
  -25.9068  -34.9407   23.5062 C   0  0  0  0  0  0
  -16.5368  -29.9072   23.6344 C   0  0  0  0  0  0
  -16.7284  -28.6498   23.0343 C   0  0  0  0  0  0
  -26.4552  -31.6561   25.0720 C   0  0  0  0  0  0
  -25.3736  -31.3736   26.1411 C   0  0  0  0  0  0
  -27.0434  -30.2966   24.6290 C   0  0  0  0  0  0
  -27.6066  -32.4346   25.7517 C   0  0  0  0  0  0
  -27.5567  -37.1788   24.8464 C   0  0  0  0  0  0
  -21.4254  -29.3051   22.3623 N   0  0  0  0  0  0
  -26.4274  -37.3745   23.9412 N   0  0  0  0  0  0
  -24.7171  -31.0296   22.0945 N   0  0  0  0  0  0
  -23.4205  -28.8063   23.2997 O   0  0  0  0  0  0
  -28.2746  -26.1663   20.1936 O   0  0  0  0  0  0
  -26.5640  -34.8907   22.4633 O   0  0  0  0  0  0
  -23.5569  -32.1311   23.7141 O   0  0  0  0  0  0
  -30.1183  -18.4651   19.7361 C   0  0  0  0  0  0
  -29.8251  -19.9037   19.7341 C   0  0  0  0  0  0
  -28.8116  -18.2158   21.6788 C   0  0  0  0  0  0
  -28.5357  -19.6358   21.7038 C   0  0  0  0  0  0
  -29.6035  -17.5297   20.7066 C   0  0  0  0  0  0
  -28.9934  -20.5698   20.7065 C   0  0  0  0  0  0
  -27.7885  -20.1163   22.8822 C   0  0  0  0  0  0
  -28.0610  -21.2555   23.5503 C   0  0  0  0  0  0
  -27.2781  -21.6686   24.6988 C   0  0  0  0  0  0
  -29.3441  -21.1629   29.1404 C   0  0  0  0  0  0
  -30.0735  -23.3849   28.1925 C   0  0  0  0  0  0
  -27.6874  -22.5369   27.8026 C   0  0  0  0  0  0
  -27.3537  -23.3557   26.5365 C   0  0  0  0  0  0
  -27.9695  -24.6508   20.3896 C   0  0  0  0  0  0
  -28.9498  -23.2933   20.2002 C   0  0  0  0  0  0
  -29.1753  -22.1556   27.9804 C   0  0  0  0  0  0
  -29.6537  -15.9977   20.7466 N   0  0  0  0  0  0
  -27.8331  -22.7204   25.3116 N   0  0  0  0  0  0
  -26.2394  -21.1352   25.0939 O   0  0  0  0  0  0
  -28.4926  -21.9477   20.7675 O   0  0  0  0  0  0
  -31.4828  -12.7412   19.1794 H   0  0  0  0  0  0
  -30.4551  -11.5998   19.9984 H   0  0  0  0  0  0
  -29.8355  -11.7574   17.5618 H   0  0  0  0  0  0
  -29.6090  -13.4820   17.7131 H   0  0  0  0  0  0
  -27.9478  -11.2762   18.9645 H   0  0  0  0  0  0
  -27.3900  -12.4679   17.8202 H   0  0  0  0  0  0
  -27.6162  -14.2491   19.4452 H   0  0  0  0  0  0
  -28.7593  -12.2196   21.4285 H   0  0  0  0  0  0
  -28.3833  -13.8809   21.7999 H   0  0  0  0  0  0
  -25.2757   -9.5680   22.4753 H   0  0  0  0  0  0
  -23.9993   -7.4637   22.7478 H   0  0  0  0  0  0
  -21.0836   -8.8764   19.8955 H   0  0  0  0  0  0
  -22.3689  -10.9661   19.6162 H   0  0  0  0  0  0
  -21.2010   -7.6145   23.9708 H   0  0  0  0  0  0
  -21.1490   -6.0520   25.9067 H   0  0  0  0  0  0
  -22.0597   -2.7607   23.2848 H   0  0  0  0  0  0
  -22.4088  -11.9862   22.4802 H   0  0  0  0  0  0
  -21.1084  -13.1223   22.2638 H   0  0  0  0  0  0
  -24.6486  -15.8436   20.5215 H   0  0  0  0  0  0
  -26.2632  -15.6349   20.0761 H   0  0  0  0  0  0
  -26.7276  -32.5306   23.0995 H   0  0  0  0  0  0
  -25.0148  -33.9615   25.0368 H   0  0  0  0  0  0
  -22.7495  -31.2911   21.3827 H   0  0  0  0  0  0
  -23.3756  -35.9591   23.3284 H   0  0  0  0  0  0
  -24.3569  -36.8911   22.2059 H   0  0  0  0  0  0
  -23.7244  -37.6452   23.6691 H   0  0  0  0  0  0
  -26.1509  -31.4687   20.6112 H   0  0  0  0  0  0
  -26.8764  -30.7723   22.0250 H   0  0  0  0  0  0
  -28.1277  -28.7990   21.2449 H   0  0  0  0  0  0
  -25.9260  -25.8789   18.9472 H   0  0  0  0  0  0
  -23.9847  -27.3134   18.9634 H   0  0  0  0  0  0
  -23.8086  -30.5707   19.4002 H   0  0  0  0  0  0
  -22.7871  -29.2370   19.8439 H   0  0  0  0  0  0
  -25.1298  -36.1852   25.0808 H   0  0  0  0  0  0
  -20.9993  -28.3285   24.1356 H   0  0  0  0  0  0
  -20.5671  -26.2318   23.3603 H   0  0  0  0  0  0
  -21.6650  -26.7410   22.1193 H   0  0  0  0  0  0
  -19.6938  -25.6277   21.1247 H   0  0  0  0  0  0
  -19.6714  -27.3161   20.6707 H   0  0  0  0  0  0
  -17.4212  -26.6656   21.4013 H   0  0  0  0  0  0
  -18.0348  -26.0052   22.8998 H   0  0  0  0  0  0
  -19.7954  -30.7294   24.2190 H   0  0  0  0  0  0
  -17.5034  -31.6259   24.5165 H   0  0  0  0  0  0
  -15.5370  -30.2970   23.7704 H   0  0  0  0  0  0
  -15.8674  -28.0833   22.7059 H   0  0  0  0  0  0
  -24.5922  -30.7078   25.7730 H   0  0  0  0  0  0
  -24.8926  -32.2914   26.4801 H   0  0  0  0  0  0
  -25.8017  -30.8929   27.0214 H   0  0  0  0  0  0
  -26.3052  -29.6679   24.1297 H   0  0  0  0  0  0
  -27.4066  -29.7269   25.4855 H   0  0  0  0  0  0
  -27.8945  -30.4230   23.9594 H   0  0  0  0  0  0
  -27.2641  -33.3678   26.2003 H   0  0  0  0  0  0
  -28.3927  -32.6854   25.0383 H   0  0  0  0  0  0
  -28.0676  -31.8533   26.5515 H   0  0  0  0  0  0
  -28.2563  -38.0106   24.7508 H   0  0  0  0  0  0
  -28.1084  -36.2626   24.6283 H   0  0  0  0  0  0
  -27.2286  -37.1421   25.8871 H   0  0  0  0  0  0
  -20.9469  -29.8791   21.6818 H   0  0  0  0  0  0
  -26.0138  -38.2814   24.1417 H   0  0  0  0  0  0
  -30.7191  -18.0761   18.9256 H   0  0  0  0  0  0
  -30.2278  -20.4980   18.9270 H   0  0  0  0  0  0
  -28.3830  -17.6196   22.4721 H   0  0  0  0  0  0
  -26.9652  -19.4948   23.2084 H   0  0  0  0  0  0
  -28.8884  -21.8703   23.2252 H   0  0  0  0  0  0
  -30.3855  -20.8572   29.2504 H   0  0  0  0  0  0
  -28.7577  -20.2581   28.9744 H   0  0  0  0  0  0
  -29.0227  -21.5974   30.0880 H   0  0  0  0  0  0
  -31.1155  -23.0911   28.3259 H   0  0  0  0  0  0
  -29.7738  -23.9500   29.0758 H   0  0  0  0  0  0
  -30.0401  -24.0608   27.3376 H   0  0  0  0  0  0
  -27.0884  -21.6252   27.7852 H   0  0  0  0  0  0
  -27.3462  -23.0898   28.6792 H   0  0  0  0  0  0
  -27.7984  -24.3493   26.6045 H   0  0  0  0  0  0
  -26.2761  -23.5154   26.4707 H   0  0  0  0  0  0
  -27.6268  -24.6032   21.4232 H   0  0  0  0  0  0
  -27.0826  -24.4017   19.8126 H   0  0  0  0  0  0
  -29.9113  -23.5063   20.6678 H   0  0  0  0  0  0
  -29.1592  -23.1592   19.1386 H   0  0  0  0  0  0
  -29.5155  -21.6441   27.0786 H   0  0  0  0  0  0
  -28.7969  -15.6166   21.1186 H   0  0  0  0  0  0
  -28.6791  -23.0977   24.9058 H   0  0  0  0  0  0
  1 25  1  0  0  0
  1 30  2  0  0  0
  1 87  1  0  0  0
  2  3  1  0  0  0
  2 25  1  0  0  0
  2 91  1  0  0  0
  2 92  1  0  0  0
  3  4  1  0  0  0
  3 93  1  0  0  0
  3 94  1  0  0  0
  4  5  1  0  0  0
  4 95  1  0  0  0
  4 96  1  0  0  0
  5  6  1  0  0  0
  5 26  1  0  0  0
  5 97  1  0  0  0
  6 25  1  0  0  0
  6 98  1  0  0  0
  6 99  1  0  0  0
  7  8  2  0  0  0
  7 26  1  0  0  0
  7 29  1  0  0  0
  8  9  1  0  0  0
  8 22  1  0  0  0
  9 10  1  0  0  0
  9 27  2  0  0  0
 10 11  2  0  0  0
 10 15  1  0  0  0
 11 12  1  0  0  0
 11100  1  0  0  0
 12 13  2  0  0  0
 12101  1  0  0  0
 13 14  1  0  0  0
 13 31  1  0  0  0
 14 15  2  0  0  0
 14102  1  0  0  0
 15103  1  0  0  0
 16 17  2  0  0  0
 16 21  1  0  0  0
 16 31  1  0  0  0
 17 18  1  0  0  0
 17104  1  0  0  0
 18 19  2  0  0  0
 18105  1  0  0  0
 19 20  1  0  0  0
 19 24  1  0  0  0
 20 21  2  0  0  0
 20106  1  0  0  0
 21 23  1  0  0  0
 22 28  1  0  0  0
 22 32  2  0  0  0
 26 27  1  0  0  0
 28107  1  0  0  0
 28108  1  0  0  0
 29109  1  0  0  0
 29110  1  0  0  0
 33 34  1  0  0  0
 33 66  1  0  0  0
 33 70  2  0  0  0
 34 36  1  0  0  0
 34 59  1  0  0  0
 34111  1  0  0  0
 35 44  2  0  0  0
 35 45  1  0  0  0
 35 68  1  0  0  0
 36 56  1  0  0  0
 36112  1  0  0  0
 37 39  1  0  0  0
 37 47  1  0  0  0
 37 66  1  0  0  0
 37113  1  0  0  0
 38 43  2  0  0  0
 38 46  1  0  0  0
 38 47  1  0  0  0
 39 64  1  0  0  0
 39 67  2  0  0  0
 40 52  1  0  0  0
 40 53  2  0  0  0
 40 58  1  0  0  0
 41114  1  0  0  0
 41115  1  0  0  0
 41116  1  0  0  0
 41 48  1  0  0  0
 42 43  1  0  0  0
 42 66  1  0  0  0
 42117  1  0  0  0
 42118  1  0  0  0
 43 44  1  0  0  0
 44119  1  0  0  0
 45 46  2  0  0  0
 45120  1  0  0  0
 46121  1  0  0  0
 47122  1  0  0  0
 47123  1  0  0  0
 48 56  1  0  0  0
 48 65  1  0  0  0
 48124  1  0  0  0
 49 50  1  0  0  0
 49 53  1  0  0  0
 49 64  1  0  0  0
 49125  1  0  0  0
 50 51  1  0  0  0
 50126  1  0  0  0
 50127  1  0  0  0
 51 52  1  0  0  0
 51128  1  0  0  0
 51129  1  0  0  0
 52130  1  0  0  0
 52131  1  0  0  0
 53 54  1  0  0  0
 54 55  2  0  0  0
 54132  1  0  0  0
 55 57  1  0  0  0
 55133  1  0  0  0
 56 69  2  0  0  0
 57 58  2  0  0  0
 57134  1  0  0  0
 58135  1  0  0  0
 59 60  1  0  0  0
 59 61  1  0  0  0
 59 62  1  0  0  0
 60136  1  0  0  0
 60137  1  0  0  0
 60138  1  0  0  0
 61139  1  0  0  0
 61140  1  0  0  0
 61141  1  0  0  0
 62142  1  0  0  0
 62143  1  0  0  0
 62144  1  0  0  0
 63 65  1  0  0  0
 63145  1  0  0  0
 63146  1  0  0  0
 63147  1  0  0  0
 64148  1  0  0  0
 65149  1  0  0  0
 68 84  1  0  0  0
 71 72  2  0  0  0
 71 75  1  0  0  0
 71150  1  0  0  0
 72 76  1  0  0  0
 72151  1  0  0  0
 73 74  1  0  0  0
 73 75  2  0  0  0
 73152  1  0  0  0
 74 76  2  0  0  0
 74 77  1  0  0  0
 75 87  1  0  0  0
 76 90  1  0  0  0
 77 78  2  0  0  0
 77153  1  0  0  0
 78 79  1  0  0  0
 78154  1  0  0  0
 79 88  1  0  0  0
 79 89  2  0  0  0
 80155  1  0  0  0
 80156  1  0  0  0
 80157  1  0  0  0
 80 86  1  0  0  0
 81 86  1  0  0  0
 81158  1  0  0  0
 81159  1  0  0  0
 81160  1  0  0  0
 82 83  1  0  0  0
 82 86  1  0  0  0
 82161  1  0  0  0
 82162  1  0  0  0
 83 88  1  0  0  0
 83163  1  0  0  0
 83164  1  0  0  0
 84 85  1  0  0  0
 84165  1  0  0  0
 84166  1  0  0  0
 85 90  1  0  0  0
 85167  1  0  0  0
 85168  1  0  0  0
 86169  1  0  0  0
 87170  1  0  0  0
 88171  1  0  0  0
M  ISO  4   1 100  68 101  84 101  87 100
M  END
> <chiral flag>
0

> <version>
0

> <s_m_source_file>
/data/baiqing/PycharmProjects/Reinvent-master-3.2/result/LINK_invent/BTK/process_docking_weight1_custom_product_contain_oxygen_bond_distance_aromatic_linkinvent_7_9_3/rearranged_h_0001.sdf

> <i_m_source_file_index>
53

> <r_mmod_Potential_Energy-OPLS-2005>
428.898345947266

> <r_mmod_Stretch_Energy-OPLS-2005>
221.182067871094

> <r_mmod_Bend_Energy-OPLS-2005>
302.334655761719

> <r_mmod_Torsional_Energy-OPLS-2005>
256.089477539062

> <r_mmod_Improper_Torsional_Energy-OPLS-2005>
4.04508495330811

> <r_mmod_Van_der_Waal_Energy-OPLS-2005>
134.78108215332

> <r_mmod_Electrostatic_Energy-OPLS-2005>
-427.96728515625

> <r_mmod_Solvation_Energy-OPLS-2005>
-238.242813110352

> <b_mmod_Minimization_Converged-OPLS-2005>
0

> <r_mmod_RMS_Derivative-OPLS-2005>
1.42982828617096

$$$$
53
                    3D
 Structure written by MMmdl.
160168  0  0  1  0            999 V2000
  -30.5077  -14.9146   20.4401 C   0  0  0  0  0  0
  -30.4544  -12.5634   19.4924 C   0  0  0  0  0  0
  -29.5266  -12.5349   18.2534 C   0  0  0  0  0  0
  -28.0569  -12.3227   18.6675 C   0  0  0  0  0  0
  -27.6397  -13.2370   19.8486 C   0  0  2  0  0  0
  -28.6827  -13.2104   20.9871 C   0  0  0  0  0  0
  -25.2511  -13.8195   20.5705 C   0  0  0  0  0  0
  -24.1807  -13.0437   20.9218 C   0  0  0  0  0  0
  -24.6402  -11.6917   20.8743 C   0  0  0  0  0  0
  -23.9076  -10.4293   21.0403 C   0  0  0  0  0  0
  -24.3622   -9.4206   21.9184 C   0  0  0  0  0  0
  -23.6293   -8.2244   22.0754 C   0  0  0  0  0  0
  -22.4274   -8.0283   21.3548 C   0  0  0  0  0  0
  -21.9914   -9.0258   20.4651 C   0  0  0  0  0  0
  -22.7244  -10.2137   20.3057 C   0  0  0  0  0  0
  -21.6856   -6.0737   22.5280 C   0  0  0  0  0  0
  -21.4018   -6.5640   23.8214 C   0  0  0  0  0  0
  -21.3657   -5.6791   24.9174 C   0  0  0  0  0  0
  -21.6041   -4.3054   24.7224 C   0  0  0  0  0  0
  -21.8818   -3.8149   23.4346 C   0  0  0  0  0  0
  -21.9195   -4.6965   22.3403 C   0  0  0  0  0  0
  -22.7829  -13.5224   21.1867 C   0  0  0  0  0  0
  -22.1661   -4.2150   21.0981 F   0  0  0  0  0  0
  -21.5625   -3.4537   25.7737 F   0  0  0  0  0  0
  -29.9677  -13.6316   20.4083 N   0  0  0  0  0  0
  -26.2934  -12.9406   20.3261 N   0  0  0  0  0  0
  -25.9335  -11.6545   20.5727 N   0  0  0  0  0  0
  -22.0471  -12.8219   22.0423 N   0  0  0  0  0  0
  -25.4194  -15.1921   20.4116 N   0  0  0  0  0  0
  -31.6886  -15.0590   20.1028 O   0  0  0  0  0  0
  -21.6638   -6.8881   21.4242 O   0  0  0  0  0  0
  -22.3515  -14.5526   20.6705 O   0  0  0  0  0  0
  -24.6426  -31.8455   23.1879 C   0  0  0  0  0  0
  -25.9205  -32.4699   23.8265 C   0  0  1  0  0  0
  -27.2190  -27.1462   20.1465 C   0  0  0  0  0  0
  -25.5964  -33.8506   24.2196 N   0  0  0  0  0  0
  -23.4454  -30.4647   21.5326 C   0  0  2  0  0  0
  -24.8945  -28.8933   20.1098 C   0  0  0  0  0  0
  -22.7567  -29.4552   22.4849 C   0  0  0  0  0  0
  -18.0311  -28.1392   22.8477 C   0  0  0  0  0  0
  -24.1492  -36.7253   23.2636 C   0  0  0  0  0  0
  -26.0002  -30.7224   21.3841 C   0  0  0  0  0  0
  -26.0720  -29.3337   20.7266 C   0  0  0  0  0  0
  -27.2357  -28.4770   20.7276 C   0  0  0  0  0  0
  -26.0123  -26.8050   19.4936 C   0  0  0  0  0  0
  -24.8772  -27.6418   19.4781 C   0  0  0  0  0  0
  -23.6710  -29.7944   20.1517 C   0  0  0  0  0  0
  -25.4124  -36.3039   24.0315 C   0  0  1  0  0  0
  -20.5922  -28.3723   23.1231 C   0  0  2  0  0  0
  -20.6794  -26.9427   22.5398 C   0  0  0  0  0  0
  -19.5764  -26.6387   21.5207 C   0  0  0  0  0  0
  -18.1950  -26.7928   22.1625 C   0  0  0  0  0  0
  -19.1567  -28.8874   23.2845 C   0  0  0  0  0  0
  -18.9482  -30.1469   23.8872 C   0  0  0  0  0  0
  -17.6481  -30.6591   24.0557 C   0  0  0  0  0  0
  -25.9074  -34.9414   23.5063 C   0  0  0  0  0  0
  -16.5373  -29.9085   23.6330 C   0  0  0  0  0  0
  -16.7296  -28.6500   23.0356 C   0  0  0  0  0  0
  -26.4525  -31.6558   25.0701 C   0  0  0  0  0  0
  -25.3721  -31.3771   26.1414 C   0  0  0  0  0  0
  -27.0352  -30.2944   24.6267 C   0  0  0  0  0  0
  -27.6068  -32.4302   25.7483 C   0  0  0  0  0  0
  -27.5577  -37.1786   24.8463 C   0  0  0  0  0  0
  -21.4258  -29.3055   22.3603 N   0  0  0  0  0  0
  -26.4286  -37.3756   23.9408 N   0  0  0  0  0  0
  -24.7159  -31.0322   22.0901 N   0  0  0  0  0  0
  -23.4222  -28.8100   23.2990 O   0  0  0  0  0  0
  -28.2753  -26.1656   20.2146 O   0  0  0  0  0  0
  -26.5654  -34.8913   22.4641 O   0  0  0  0  0  0
  -23.5548  -32.1322   23.7110 O   0  0  0  0  0  0
  -30.3719  -18.5051   20.0100 C   0  0  0  0  0  0
  -30.0467  -19.9321   19.9394 C   0  0  0  0  0  0
  -28.3668  -18.1412   21.1834 C   0  0  0  0  0  0
  -28.0169  -19.5544   21.1389 C   0  0  0  0  0  0
  -29.5260  -17.5181   20.6254 C   0  0  0  0  0  0
  -28.8489  -20.5352   20.4722 C   0  0  0  0  0  0
  -25.9953  -18.8984   22.6398 C   0  0  0  0  0  0
  -25.6695  -20.4599   20.7477 C   0  0  0  0  0  0
  -26.9418  -21.1592   22.8235 C   0  0  0  0  0  0
  -27.9775  -24.6456   20.0678 C   0  0  0  0  0  0
  -28.9584  -23.2937   20.3124 C   0  0  0  0  0  0
  -26.6897  -20.0118   21.8161 C   0  0  0  0  0  0
  -29.6338  -15.9909   20.7227 N   0  0  0  0  0  0
  -28.3396  -21.8938   20.2637 O   0  0  0  0  0  0
  -31.4856  -12.7380   19.1809 H   0  0  0  0  0  0
  -30.4546  -11.5961   19.9978 H   0  0  0  0  0  0
  -29.8383  -11.7496   17.5635 H   0  0  0  0  0  0
  -29.6192  -13.4760   17.7087 H   0  0  0  0  0  0
  -27.9444  -11.2772   18.9568 H   0  0  0  0  0  0
  -27.3958  -12.4762   17.8141 H   0  0  0  0  0  0
  -27.6188  -14.2494   19.4450 H   0  0  0  0  0  0
  -28.7596  -12.2118   21.4206 H   0  0  0  0  0  0
  -28.3828  -13.8706   21.8022 H   0  0  0  0  0  0
  -25.2767   -9.5678   22.4759 H   0  0  0  0  0  0
  -23.9999   -7.4634   22.7475 H   0  0  0  0  0  0
  -21.0846   -8.8782   19.8958 H   0  0  0  0  0  0
  -22.3705  -10.9675   19.6164 H   0  0  0  0  0  0
  -21.2015   -7.6147   23.9715 H   0  0  0  0  0  0
  -21.1476   -6.0523   25.9076 H   0  0  0  0  0  0
  -22.0599   -2.7612   23.2847 H   0  0  0  0  0  0
  -22.4079  -11.9878   22.4813 H   0  0  0  0  0  0
  -21.1089  -13.1246   22.2617 H   0  0  0  0  0  0
  -24.6422  -15.8359   20.5089 H   0  0  0  0  0  0
  -26.2478  -15.6290   20.0308 H   0  0  0  0  0  0
  -26.7269  -32.5305   23.0987 H   0  0  0  0  0  0
  -25.0111  -33.9620   25.0346 H   0  0  0  0  0  0
  -22.7467  -31.2902   21.3791 H   0  0  0  0  0  0
  -23.3765  -35.9571   23.3278 H   0  0  0  0  0  0
  -24.3579  -36.8907   22.2056 H   0  0  0  0  0  0
  -23.7235  -37.6441   23.6674 H   0  0  0  0  0  0
  -26.1541  -31.4765   20.6115 H   0  0  0  0  0  0
  -26.8720  -30.7730   22.0246 H   0  0  0  0  0  0
  -28.1323  -28.8084   21.2320 H   0  0  0  0  0  0
  -25.9061  -25.8500   19.0030 H   0  0  0  0  0  0
  -23.9786  -27.2989   18.9838 H   0  0  0  0  0  0
  -23.8085  -30.5683   19.3955 H   0  0  0  0  0  0
  -22.7854  -29.2377   19.8396 H   0  0  0  0  0  0
  -25.1314  -36.1862   25.0805 H   0  0  0  0  0  0
  -21.0021  -28.3316   24.1348 H   0  0  0  0  0  0
  -20.5692  -26.2340   23.3622 H   0  0  0  0  0  0
  -21.6660  -26.7436   22.1192 H   0  0  0  0  0  0
  -19.6926  -25.6295   21.1247 H   0  0  0  0  0  0
  -19.6689  -27.3186   20.6727 H   0  0  0  0  0  0
  -17.4215  -26.6664   21.4036 H   0  0  0  0  0  0
  -18.0356  -26.0083   22.9038 H   0  0  0  0  0  0
  -19.7959  -30.7285   24.2236 H   0  0  0  0  0  0
  -17.5036  -31.6265   24.5167 H   0  0  0  0  0  0
  -15.5371  -30.2982   23.7660 H   0  0  0  0  0  0
  -15.8695  -28.0809   22.7090 H   0  0  0  0  0  0
  -24.5850  -30.7181   25.7731 H   0  0  0  0  0  0
  -24.8980  -32.2976   26.4829 H   0  0  0  0  0  0
  -25.8013  -30.8924   27.0194 H   0  0  0  0  0  0
  -26.2941  -29.6693   24.1274 H   0  0  0  0  0  0
  -27.3953  -29.7226   25.4827 H   0  0  0  0  0  0
  -27.8868  -30.4159   23.9572 H   0  0  0  0  0  0
  -27.2685  -33.3644   26.1974 H   0  0  0  0  0  0
  -28.3930  -32.6789   25.0341 H   0  0  0  0  0  0
  -28.0661  -31.8469   26.5474 H   0  0  0  0  0  0
  -28.2585  -38.0090   24.7518 H   0  0  0  0  0  0
  -28.1086  -36.2625   24.6280 H   0  0  0  0  0  0
  -27.2294  -37.1427   25.8865 H   0  0  0  0  0  0
  -20.9467  -29.8785   21.6799 H   0  0  0  0  0  0
  -26.0153  -38.2822   24.1422 H   0  0  0  0  0  0
  -31.2858  -18.1712   19.5382 H   0  0  0  0  0  0
  -30.7299  -20.5715   19.3993 H   0  0  0  0  0  0
  -27.6970  -17.4498   21.6658 H   0  0  0  0  0  0
  -25.6601  -18.0685   22.0165 H   0  0  0  0  0  0
  -25.1039  -19.2737   23.1441 H   0  0  0  0  0  0
  -26.6490  -18.5024   23.4185 H   0  0  0  0  0  0
  -25.4666  -19.6575   20.0377 H   0  0  0  0  0  0
  -26.0044  -21.3211   20.1730 H   0  0  0  0  0  0
  -24.7179  -20.7407   21.2009 H   0  0  0  0  0  0
  -27.6732  -20.8676   23.5778 H   0  0  0  0  0  0
  -26.0264  -21.4322   23.3496 H   0  0  0  0  0  0
  -27.2998  -22.0765   22.3645 H   0  0  0  0  0  0
  -27.1091  -24.4760   20.7058 H   0  0  0  0  0  0
  -27.6105  -24.5213   19.0496 H   0  0  0  0  0  0
  -29.4247  -23.3907   21.2927 H   0  0  0  0  0  0
  -29.7760  -23.3189   19.5920 H   0  0  0  0  0  0
  -28.7699  -15.5917   21.0555 H   0  0  0  0  0  0
  1 25  1  0  0  0
  1 30  2  0  0  0
  1 83  1  0  0  0
  2  3  1  0  0  0
  2 25  1  0  0  0
  2 85  1  0  0  0
  2 86  1  0  0  0
  3  4  1  0  0  0
  3 87  1  0  0  0
  3 88  1  0  0  0
  4  5  1  0  0  0
  4 89  1  0  0  0
  4 90  1  0  0  0
  5  6  1  0  0  0
  5 26  1  0  0  0
  5 91  1  0  0  0
  6 25  1  0  0  0
  6 92  1  0  0  0
  6 93  1  0  0  0
  7  8  2  0  0  0
  7 26  1  0  0  0
  7 29  1  0  0  0
  8  9  1  0  0  0
  8 22  1  0  0  0
  9 10  1  0  0  0
  9 27  2  0  0  0
 10 11  2  0  0  0
 10 15  1  0  0  0
 11 12  1  0  0  0
 11 94  1  0  0  0
 12 13  2  0  0  0
 12 95  1  0  0  0
 13 14  1  0  0  0
 13 31  1  0  0  0
 14 15  2  0  0  0
 14 96  1  0  0  0
 15 97  1  0  0  0
 16 17  2  0  0  0
 16 21  1  0  0  0
 16 31  1  0  0  0
 17 18  1  0  0  0
 17 98  1  0  0  0
 18 19  2  0  0  0
 18 99  1  0  0  0
 19 20  1  0  0  0
 19 24  1  0  0  0
 20 21  2  0  0  0
 20100  1  0  0  0
 21 23  1  0  0  0
 22 28  1  0  0  0
 22 32  2  0  0  0
 26 27  1  0  0  0
 28101  1  0  0  0
 28102  1  0  0  0
 29103  1  0  0  0
 29104  1  0  0  0
 33 34  1  0  0  0
 33 66  1  0  0  0
 33 70  2  0  0  0
 34 36  1  0  0  0
 34 59  1  0  0  0
 34105  1  0  0  0
 35 44  2  0  0  0
 35 45  1  0  0  0
 35 68  1  0  0  0
 36 56  1  0  0  0
 36106  1  0  0  0
 37 39  1  0  0  0
 37 47  1  0  0  0
 37 66  1  0  0  0
 37107  1  0  0  0
 38 43  2  0  0  0
 38 46  1  0  0  0
 38 47  1  0  0  0
 39 64  1  0  0  0
 39 67  2  0  0  0
 40 52  1  0  0  0
 40 53  2  0  0  0
 40 58  1  0  0  0
 41108  1  0  0  0
 41109  1  0  0  0
 41110  1  0  0  0
 41 48  1  0  0  0
 42 43  1  0  0  0
 42 66  1  0  0  0
 42111  1  0  0  0
 42112  1  0  0  0
 43 44  1  0  0  0
 44113  1  0  0  0
 45 46  2  0  0  0
 45114  1  0  0  0
 46115  1  0  0  0
 47116  1  0  0  0
 47117  1  0  0  0
 48 56  1  0  0  0
 48 65  1  0  0  0
 48118  1  0  0  0
 49 50  1  0  0  0
 49 53  1  0  0  0
 49 64  1  0  0  0
 49119  1  0  0  0
 50 51  1  0  0  0
 50120  1  0  0  0
 50121  1  0  0  0
 51 52  1  0  0  0
 51122  1  0  0  0
 51123  1  0  0  0
 52124  1  0  0  0
 52125  1  0  0  0
 53 54  1  0  0  0
 54 55  2  0  0  0
 54126  1  0  0  0
 55 57  1  0  0  0
 55127  1  0  0  0
 56 69  2  0  0  0
 57 58  2  0  0  0
 57128  1  0  0  0
 58129  1  0  0  0
 59 60  1  0  0  0
 59 61  1  0  0  0
 59 62  1  0  0  0
 60130  1  0  0  0
 60131  1  0  0  0
 60132  1  0  0  0
 61133  1  0  0  0
 61134  1  0  0  0
 61135  1  0  0  0
 62136  1  0  0  0
 62137  1  0  0  0
 62138  1  0  0  0
 63 65  1  0  0  0
 63139  1  0  0  0
 63140  1  0  0  0
 63141  1  0  0  0
 64142  1  0  0  0
 65143  1  0  0  0
 68 80  1  0  0  0
 71 72  2  0  0  0
 71 75  1  0  0  0
 71144  1  0  0  0
 72 76  1  0  0  0
 72145  1  0  0  0
 73 74  1  0  0  0
 73 75  2  0  0  0
 73146  1  0  0  0
 74 76  2  0  0  0
 74 82  1  0  0  0
 75 83  1  0  0  0
 76 84  1  0  0  0
 77147  1  0  0  0
 77148  1  0  0  0
 77149  1  0  0  0
 77 82  1  0  0  0
 78 82  1  0  0  0
 78150  1  0  0  0
 78151  1  0  0  0
 78152  1  0  0  0
 79 82  1  0  0  0
 79153  1  0  0  0
 79154  1  0  0  0
 79155  1  0  0  0
 80 81  1  0  0  0
 80156  1  0  0  0
 80157  1  0  0  0
 81 84  1  0  0  0
 81158  1  0  0  0
 81159  1  0  0  0
 83160  1  0  0  0
M  ISO  4   1 100  68 101  80 101  83 100
M  END
> <chiral flag>
0

> <version>
0

> <s_m_source_file>
/data/baiqing/PycharmProjects/Reinvent-master-3.2/result/LINK_invent/BTK/process_docking_weight1_custom_product_contain_oxygen_bond_distance_aromatic_linkinvent_7_9_3/rearranged_h_0001.sdf

> <i_m_source_file_index>
54

> <r_mmod_Potential_Energy-OPLS-2005>
484.042633056641

> <r_mmod_Stretch_Energy-OPLS-2005>
227.078201293945

> <r_mmod_Bend_Energy-OPLS-2005>
300.873779296875

> <r_mmod_Torsional_Energy-OPLS-2005>
228.994125366211

> <r_mmod_Improper_Torsional_Energy-OPLS-2005>
4.46333265304565

> <r_mmod_Van_der_Waal_Energy-OPLS-2005>
142.062026977539

> <r_mmod_Electrostatic_Energy-OPLS-2005>
-393.816467285156

> <r_mmod_Solvation_Energy-OPLS-2005>
-202.53076171875

> <b_mmod_Minimization_Converged-OPLS-2005>
0

> <r_mmod_RMS_Derivative-OPLS-2005>
1.05013585090637

$$$$
54
                    3D
 Structure written by MMmdl.
146154  0  0  1  0            999 V2000
  -30.4831  -15.1826   20.3850 C   0  0  0  0  0  0
  -30.4364  -12.7514   19.5216 C   0  0  0  0  0  0
  -29.5297  -12.5600   18.2811 C   0  0  0  0  0  0
  -28.0767  -12.2956   18.7113 C   0  0  0  0  0  0
  -27.6147  -13.2687   19.8250 C   0  0  2  0  0  0
  -28.6507  -13.4188   20.9601 C   0  0  0  0  0  0
  -25.2399  -13.8238   20.5739 C   0  0  0  0  0  0
  -24.1746  -13.0434   20.9251 C   0  0  0  0  0  0
  -24.6394  -11.6928   20.8760 C   0  0  0  0  0  0
  -23.9088  -10.4287   21.0403 C   0  0  0  0  0  0
  -24.3634   -9.4200   21.9179 C   0  0  0  0  0  0
  -23.6301   -8.2238   22.0753 C   0  0  0  0  0  0
  -22.4283   -8.0276   21.3543 C   0  0  0  0  0  0
  -21.9920   -9.0252   20.4646 C   0  0  0  0  0  0
  -22.7258  -10.2127   20.3053 C   0  0  0  0  0  0
  -21.6855   -6.0733   22.5279 C   0  0  0  0  0  0
  -21.4019   -6.5641   23.8211 C   0  0  0  0  0  0
  -21.3660   -5.6795   24.9174 C   0  0  0  0  0  0
  -21.6041   -4.3057   24.7227 C   0  0  0  0  0  0
  -21.8817   -3.8147   23.4351 C   0  0  0  0  0  0
  -21.9192   -4.6960   22.3405 C   0  0  0  0  0  0
  -22.7762  -13.5180   21.1906 C   0  0  0  0  0  0
  -22.1659   -4.2145   21.0982 F   0  0  0  0  0  0
  -21.5626   -3.4543   25.7743 F   0  0  0  0  0  0
  -29.8955  -13.8944   20.3383 N   0  0  0  0  0  0
  -26.2827  -12.9506   20.3225 N   0  0  0  0  0  0
  -25.9330  -11.6617   20.5729 N   0  0  0  0  0  0
  -22.0434  -12.8156   22.0468 N   0  0  0  0  0  0
  -25.4030  -15.1972   20.4166 N   0  0  0  0  0  0
  -31.7004  -15.1794   20.1598 O   0  0  0  0  0  0
  -21.6644   -6.8877   21.4241 O   0  0  0  0  0  0
  -22.3433  -14.5479   20.6748 O   0  0  0  0  0  0
  -24.6595  -31.8293   23.1777 C   0  0  0  0  0  0
  -25.9302  -32.4617   23.8213 C   0  0  1  0  0  0
  -27.2077  -26.9694   20.1758 C   0  0  0  0  0  0
  -25.5986  -33.8431   24.2113 N   0  0  0  0  0  0
  -23.4718  -30.4468   21.5253 C   0  0  2  0  0  0
  -24.9249  -28.8501   20.1105 C   0  0  0  0  0  0
  -22.7648  -29.4474   22.4783 C   0  0  0  0  0  0
  -18.0318  -28.1413   22.8465 C   0  0  0  0  0  0
  -24.1486  -36.7224   23.2643 C   0  0  0  0  0  0
  -26.0405  -30.6471   21.4069 C   0  0  0  0  0  0
  -26.1074  -29.2417   20.7523 C   0  0  0  0  0  0
  -27.2449  -28.3188   20.7727 C   0  0  0  0  0  0
  -26.0065  -26.7420   19.4635 C   0  0  0  0  0  0
  -24.8962  -27.6167   19.4480 C   0  0  0  0  0  0
  -23.7112  -29.7741   20.1476 C   0  0  0  0  0  0
  -25.4121  -36.2980   24.0305 C   0  0  1  0  0  0
  -20.5943  -28.3754   23.1181 C   0  0  2  0  0  0
  -20.6794  -26.9437   22.5389 C   0  0  0  0  0  0
  -19.5765  -26.6380   21.5204 C   0  0  0  0  0  0
  -18.1947  -26.7947   22.1616 C   0  0  0  0  0  0
  -19.1583  -28.8901   23.2815 C   0  0  0  0  0  0
  -18.9501  -30.1489   23.8855 C   0  0  0  0  0  0
  -17.6499  -30.6604   24.0558 C   0  0  0  0  0  0
  -25.9091  -34.9365   23.5020 C   0  0  0  0  0  0
  -16.5386  -29.9097   23.6343 C   0  0  0  0  0  0
  -16.7303  -28.6515   23.0364 C   0  0  0  0  0  0
  -26.4565  -31.6552   25.0727 C   0  0  0  0  0  0
  -25.3701  -31.3798   26.1389 C   0  0  0  0  0  0
  -27.0468  -30.2922   24.6447 C   0  0  0  0  0  0
  -27.6053  -32.4368   25.7529 C   0  0  0  0  0  0
  -27.5574  -37.1748   24.8452 C   0  0  0  0  0  0
  -21.4321  -29.3063   22.3539 N   0  0  0  0  0  0
  -26.4261  -37.3721   23.9429 N   0  0  0  0  0  0
  -24.7447  -31.0001   22.0898 N   0  0  0  0  0  0
  -23.4217  -28.8013   23.2985 O   0  0  0  0  0  0
  -28.1630  -25.8308   20.2346 O   0  0  0  0  0  0
  -26.5689  -34.8894   22.4608 O   0  0  0  0  0  0
  -23.5675  -32.1244   23.6895 O   0  0  0  0  0  0
  -29.8014  -22.2551   20.1126 C   0  0  0  0  0  0
  -27.7067  -21.5018   20.6766 C   0  0  0  0  0  0
  -30.2544  -20.8368   20.1021 C   0  0  0  0  0  0
  -28.1551  -20.0870   20.6661 C   0  0  0  0  0  0
  -28.4622  -22.7321   20.4052 C   0  0  0  0  0  0
  -29.4901  -19.6151   20.3732 C   0  0  0  0  0  0
  -27.7066  -24.2627   20.4893 C   0  0  0  0  0  0
  -30.2005  -18.0291   20.3499 C   0  0  0  0  0  0
  -29.7497  -16.4539   20.4780 N   0  0  0  0  0  0
  -26.5263  -24.1554   20.8318 O   0  0  0  0  0  0
  -31.4609  -12.9350   19.1951 H   0  0  0  0  0  0
  -30.4786  -11.8370   20.1154 H   0  0  0  0  0  0
  -29.8952  -11.7377   17.6646 H   0  0  0  0  0  0
  -29.5696  -13.4545   17.6572 H   0  0  0  0  0  0
  -28.0282  -11.2707   19.0814 H   0  0  0  0  0  0
  -27.4057  -12.3428   17.8529 H   0  0  0  0  0  0
  -27.5392  -14.2404   19.3359 H   0  0  0  0  0  0
  -28.7975  -12.4799   21.4962 H   0  0  0  0  0  0
  -28.3053  -14.1472   21.6952 H   0  0  0  0  0  0
  -25.2779   -9.5672   22.4755 H   0  0  0  0  0  0
  -24.0006   -7.4631   22.7476 H   0  0  0  0  0  0
  -21.0849   -8.8773   19.8955 H   0  0  0  0  0  0
  -22.3713  -10.9664   19.6163 H   0  0  0  0  0  0
  -21.2018   -7.6150   23.9711 H   0  0  0  0  0  0
  -21.1482   -6.0531   25.9075 H   0  0  0  0  0  0
  -22.0595   -2.7608   23.2856 H   0  0  0  0  0  0
  -22.4085  -11.9828   22.4847 H   0  0  0  0  0  0
  -21.1045  -13.1146   22.2691 H   0  0  0  0  0  0
  -24.6299  -15.8451   20.5245 H   0  0  0  0  0  0
  -26.2422  -15.6392   20.0654 H   0  0  0  0  0  0
  -26.7370  -32.5169   23.0930 H   0  0  0  0  0  0
  -25.0111  -33.9521   25.0246 H   0  0  0  0  0  0
  -22.7829  -31.2782   21.3607 H   0  0  0  0  0  0
  -23.3765  -35.9534   23.3243 H   0  0  0  0  0  0
  -24.3568  -36.8932   22.2068 H   0  0  0  0  0  0
  -23.7225  -37.6390   23.6735 H   0  0  0  0  0  0
  -26.2190  -31.3894   20.6279 H   0  0  0  0  0  0
  -26.9023  -30.7017   22.0598 H   0  0  0  0  0  0
  -28.1357  -28.6103   21.3110 H   0  0  0  0  0  0
  -25.8847  -25.8058   18.9382 H   0  0  0  0  0  0
  -24.0019  -27.3133   18.9212 H   0  0  0  0  0  0
  -23.8695  -30.5487   19.3959 H   0  0  0  0  0  0
  -22.8201  -29.2331   19.8245 H   0  0  0  0  0  0
  -25.1307  -36.1767   25.0793 H   0  0  0  0  0  0
  -21.0042  -28.3363   24.1302 H   0  0  0  0  0  0
  -20.5658  -26.2381   23.3630 H   0  0  0  0  0  0
  -21.6658  -26.7400   22.1206 H   0  0  0  0  0  0
  -19.6919  -25.6273   21.1276 H   0  0  0  0  0  0
  -19.6706  -27.3154   20.6703 H   0  0  0  0  0  0
  -17.4210  -26.6690   21.4025 H   0  0  0  0  0  0
  -18.0346  -26.0099   22.9020 H   0  0  0  0  0  0
  -19.7980  -30.7311   24.2210 H   0  0  0  0  0  0
  -17.5057  -31.6281   24.5169 H   0  0  0  0  0  0
  -15.5390  -30.2997   23.7689 H   0  0  0  0  0  0
  -15.8698  -28.0824   22.7111 H   0  0  0  0  0  0
  -24.5880  -30.7149   25.7705 H   0  0  0  0  0  0
  -24.8894  -32.3003   26.4712 H   0  0  0  0  0  0
  -25.7937  -30.9029   27.0235 H   0  0  0  0  0  0
  -26.3137  -29.6598   24.1430 H   0  0  0  0  0  0
  -27.3987  -29.7284   25.5098 H   0  0  0  0  0  0
  -27.9078  -30.4113   23.9868 H   0  0  0  0  0  0
  -27.2610  -33.3706   26.1989 H   0  0  0  0  0  0
  -28.3927  -32.6883   25.0410 H   0  0  0  0  0  0
  -28.0655  -31.8584   26.5550 H   0  0  0  0  0  0
  -28.2521  -38.0113   24.7577 H   0  0  0  0  0  0
  -28.1140  -36.2646   24.6167 H   0  0  0  0  0  0
  -27.2306  -37.1253   25.8854 H   0  0  0  0  0  0
  -20.9554  -29.8806   21.6725 H   0  0  0  0  0  0
  -26.0105  -38.2761   24.1505 H   0  0  0  0  0  0
  -30.5420  -23.0092   19.8868 H   0  0  0  0  0  0
  -26.6633  -21.6376   20.9266 H   0  0  0  0  0  0
  -31.2993  -20.6883   19.8657 H   0  0  0  0  0  0
  -27.4154  -19.3357   20.9072 H   0  0  0  0  0  0
  -30.9792  -18.1106   21.1092 H   0  0  0  0  0  0
  -30.7611  -18.0352   19.4144 H   0  0  0  0  0  0
  -28.7586  -16.3279   20.6208 H   0  0  0  0  0  0
  1 25  1  0  0  0
  1 30  2  0  0  0
  1 79  1  0  0  0
  2  3  1  0  0  0
  2 25  1  0  0  0
  2 81  1  0  0  0
  2 82  1  0  0  0
  3  4  1  0  0  0
  3 83  1  0  0  0
  3 84  1  0  0  0
  4  5  1  0  0  0
  4 85  1  0  0  0
  4 86  1  0  0  0
  5  6  1  0  0  0
  5 26  1  0  0  0
  5 87  1  0  0  0
  6 25  1  0  0  0
  6 88  1  0  0  0
  6 89  1  0  0  0
  7  8  2  0  0  0
  7 26  1  0  0  0
  7 29  1  0  0  0
  8  9  1  0  0  0
  8 22  1  0  0  0
  9 10  1  0  0  0
  9 27  2  0  0  0
 10 11  2  0  0  0
 10 15  1  0  0  0
 11 12  1  0  0  0
 11 90  1  0  0  0
 12 13  2  0  0  0
 12 91  1  0  0  0
 13 14  1  0  0  0
 13 31  1  0  0  0
 14 15  2  0  0  0
 14 92  1  0  0  0
 15 93  1  0  0  0
 16 17  2  0  0  0
 16 21  1  0  0  0
 16 31  1  0  0  0
 17 18  1  0  0  0
 17 94  1  0  0  0
 18 19  2  0  0  0
 18 95  1  0  0  0
 19 20  1  0  0  0
 19 24  1  0  0  0
 20 21  2  0  0  0
 20 96  1  0  0  0
 21 23  1  0  0  0
 22 28  1  0  0  0
 22 32  2  0  0  0
 26 27  1  0  0  0
 28 97  1  0  0  0
 28 98  1  0  0  0
 29 99  1  0  0  0
 29100  1  0  0  0
 33 34  1  0  0  0
 33 66  1  0  0  0
 33 70  2  0  0  0
 34 36  1  0  0  0
 34 59  1  0  0  0
 34101  1  0  0  0
 35 44  2  0  0  0
 35 45  1  0  0  0
 35 68  1  0  0  0
 36 56  1  0  0  0
 36102  1  0  0  0
 37 39  1  0  0  0
 37 47  1  0  0  0
 37 66  1  0  0  0
 37103  1  0  0  0
 38 43  2  0  0  0
 38 46  1  0  0  0
 38 47  1  0  0  0
 39 64  1  0  0  0
 39 67  2  0  0  0
 40 52  1  0  0  0
 40 53  2  0  0  0
 40 58  1  0  0  0
 41104  1  0  0  0
 41105  1  0  0  0
 41106  1  0  0  0
 41 48  1  0  0  0
 42 43  1  0  0  0
 42 66  1  0  0  0
 42107  1  0  0  0
 42108  1  0  0  0
 43 44  1  0  0  0
 44109  1  0  0  0
 45 46  2  0  0  0
 45110  1  0  0  0
 46111  1  0  0  0
 47112  1  0  0  0
 47113  1  0  0  0
 48 56  1  0  0  0
 48 65  1  0  0  0
 48114  1  0  0  0
 49 50  1  0  0  0
 49 53  1  0  0  0
 49 64  1  0  0  0
 49115  1  0  0  0
 50 51  1  0  0  0
 50116  1  0  0  0
 50117  1  0  0  0
 51 52  1  0  0  0
 51118  1  0  0  0
 51119  1  0  0  0
 52120  1  0  0  0
 52121  1  0  0  0
 53 54  1  0  0  0
 54 55  2  0  0  0
 54122  1  0  0  0
 55 57  1  0  0  0
 55123  1  0  0  0
 56 69  2  0  0  0
 57 58  2  0  0  0
 57124  1  0  0  0
 58125  1  0  0  0
 59 60  1  0  0  0
 59 61  1  0  0  0
 59 62  1  0  0  0
 60126  1  0  0  0
 60127  1  0  0  0
 60128  1  0  0  0
 61129  1  0  0  0
 61130  1  0  0  0
 61131  1  0  0  0
 62132  1  0  0  0
 62133  1  0  0  0
 62134  1  0  0  0
 63 65  1  0  0  0
 63135  1  0  0  0
 63136  1  0  0  0
 63137  1  0  0  0
 64138  1  0  0  0
 65139  1  0  0  0
 68 77  1  0  0  0
 71 73  2  0  0  0
 71 75  1  0  0  0
 71140  1  0  0  0
 72 74  1  0  0  0
 72 75  2  0  0  0
 72141  1  0  0  0
 73 76  1  0  0  0
 73142  1  0  0  0
 74 76  2  0  0  0
 74143  1  0  0  0
 75 77  1  0  0  0
 76 78  1  0  0  0
 77 80  2  0  0  0
 78 79  1  0  0  0
 78144  1  0  0  0
 78145  1  0  0  0
 79146  1  0  0  0
M  ISO  4   1 100  68 101  77 101  79 100
M  END
> <chiral flag>
0

> <version>
0

> <s_m_source_file>
/data/baiqing/PycharmProjects/Reinvent-master-3.2/result/LINK_invent/BTK/process_docking_weight1_custom_product_contain_oxygen_bond_distance_aromatic_linkinvent_7_9_3/rearranged_h_0001.sdf

> <i_m_source_file_index>
55

> <r_mmod_Potential_Energy-OPLS-2005>
1085.07116699219

> <r_mmod_Stretch_Energy-OPLS-2005>
486.674896240234

> <r_mmod_Bend_Energy-OPLS-2005>
437.386505126953

> <r_mmod_Torsional_Energy-OPLS-2005>
199.433502197266

> <r_mmod_Improper_Torsional_Energy-OPLS-2005>
4.08563709259033

> <r_mmod_Van_der_Waal_Energy-OPLS-2005>
136.574249267578

> <r_mmod_Electrostatic_Energy-OPLS-2005>
-357.084655761719

> <r_mmod_Solvation_Energy-OPLS-2005>
-217.116302490234

> <b_mmod_Minimization_Converged-OPLS-2005>
0

> <r_mmod_RMS_Derivative-OPLS-2005>
0.776556968688965

$$$$
55
                    3D
 Structure written by MMmdl.
166174  0  0  1  0            999 V2000
  -30.5441  -14.5976   20.6073 C   0  0  0  0  0  0
  -30.4634  -12.4022   19.4072 C   0  0  0  0  0  0
  -29.5088  -12.5171   18.1933 C   0  0  0  0  0  0
  -28.0281  -12.3460   18.6015 C   0  0  0  0  0  0
  -27.6573  -13.1843   19.8542 C   0  0  2  0  0  0
  -28.6944  -12.9250   20.9639 C   0  0  0  0  0  0
  -25.2585  -13.8115   20.5500 C   0  0  0  0  0  0
  -24.1838  -13.0454   20.9105 C   0  0  0  0  0  0
  -24.6339  -11.6900   20.8657 C   0  0  0  0  0  0
  -23.9004  -10.4308   21.0376 C   0  0  0  0  0  0
  -24.3590   -9.4252   21.9166 C   0  0  0  0  0  0
  -23.6287   -8.2286   22.0770 C   0  0  0  0  0  0
  -22.4271   -8.0291   21.3557 C   0  0  0  0  0  0
  -21.9867   -9.0250   20.4660 C   0  0  0  0  0  0
  -22.7173  -10.2135   20.3047 C   0  0  0  0  0  0
  -21.6861   -6.0737   22.5287 C   0  0  0  0  0  0
  -21.4021   -6.5646   23.8215 C   0  0  0  0  0  0
  -21.3638   -5.6801   24.9171 C   0  0  0  0  0  0
  -21.6039   -4.3068   24.7218 C   0  0  0  0  0  0
  -21.8831   -3.8155   23.4343 C   0  0  0  0  0  0
  -21.9199   -4.6967   22.3403 C   0  0  0  0  0  0
  -22.7868  -13.5278   21.1831 C   0  0  0  0  0  0
  -22.1680   -4.2149   21.0982 F   0  0  0  0  0  0
  -21.5589   -3.4556   25.7729 F   0  0  0  0  0  0
  -30.0078  -13.3475   20.4433 N   0  0  0  0  0  0
  -26.2972  -12.9229   20.3170 N   0  0  0  0  0  0
  -25.9242  -11.6417   20.5626 N   0  0  0  0  0  0
  -22.0530  -12.8261   22.0383 N   0  0  0  0  0  0
  -25.4368  -15.1814   20.3763 N   0  0  0  0  0  0
  -31.6645  -14.8924   20.1690 O   0  0  0  0  0  0
  -21.6662   -6.8874   21.4246 O   0  0  0  0  0  0
  -22.3551  -14.5607   20.6714 O   0  0  0  0  0  0
  -24.6184  -31.8675   23.2055 C   0  0  0  0  0  0
  -25.9073  -32.4814   23.8364 C   0  0  1  0  0  0
  -27.2285  -27.3722   20.1101 C   0  0  0  0  0  0
  -25.5922  -33.8613   24.2301 N   0  0  0  0  0  0
  -23.4083  -30.4868   21.5516 C   0  0  2  0  0  0
  -24.8560  -28.9408   20.1178 C   0  0  0  0  0  0
  -22.7465  -29.4643   22.5033 C   0  0  0  0  0  0
  -18.0306  -28.1335   22.8511 C   0  0  0  0  0  0
  -24.1491  -36.7291   23.2643 C   0  0  0  0  0  0
  -25.9416  -30.8134   21.3659 C   0  0  0  0  0  0
  -26.0209  -29.4420   20.7112 C   0  0  0  0  0  0
  -27.2137  -28.6713   20.6910 C   0  0  0  0  0  0
  -26.0425  -26.8987   19.5118 C   0  0  0  0  0  0
  -24.8662  -27.6740   19.5077 C   0  0  0  0  0  0
  -23.6186  -29.8143   20.1667 C   0  0  0  0  0  0
  -25.4125  -36.3096   24.0330 C   0  0  1  0  0  0
  -20.5904  -28.3644   23.1314 C   0  0  2  0  0  0
  -20.6787  -26.9372   22.5410 C   0  0  0  0  0  0
  -19.5750  -26.6356   21.5210 C   0  0  0  0  0  0
  -18.1937  -26.7887   22.1620 C   0  0  0  0  0  0
  -19.1558  -28.8805   23.2904 C   0  0  0  0  0  0
  -18.9468  -30.1416   23.8887 C   0  0  0  0  0  0
  -17.6451  -30.6547   24.0534 C   0  0  0  0  0  0
  -25.9048  -34.9468   23.5122 C   0  0  0  0  0  0
  -16.5347  -29.9034   23.6300 C   0  0  0  0  0  0
  -16.7294  -28.6448   23.0355 C   0  0  0  0  0  0
  -26.4489  -31.6608   25.0698 C   0  0  0  0  0  0
  -25.3708  -31.3723   26.1411 C   0  0  0  0  0  0
  -27.0318  -30.3043   24.6089 C   0  0  0  0  0  0
  -27.6070  -32.4335   25.7446 C   0  0  0  0  0  0
  -27.5593  -37.1806   24.8486 C   0  0  0  0  0  0
  -21.4201  -29.3008   22.3742 N   0  0  0  0  0  0
  -26.4315  -37.3778   23.9400 N   0  0  0  0  0  0
  -24.6751  -31.0723   22.0975 N   0  0  0  0  0  0
  -23.4217  -28.8226   23.3124 O   0  0  0  0  0  0
  -28.3772  -26.5890   20.1030 O   0  0  0  0  0  0
  -26.5605  -34.8933   22.4681 O   0  0  0  0  0  0
  -23.5373  -32.1468   23.7424 O   0  0  0  0  0  0
  -29.0814  -19.5913   22.2543 C   0  0  0  0  0  0
  -28.9310  -18.5728   23.2036 C   0  0  0  0  0  0
  -29.8045  -17.9330   20.6316 C   0  0  0  0  0  0
  -29.4926  -19.3026   20.9417 C   0  0  0  0  0  0
  -29.1577  -17.2060   22.9001 C   0  0  0  0  0  0
  -29.6315  -16.8693   21.5810 C   0  0  0  0  0  0
  -29.6121  -20.4394   19.9232 C   0  0  0  0  0  0
  -28.6210  -16.7736   25.4122 C   0  0  0  0  0  0
  -29.8323  -15.0471   24.1742 C   0  0  0  0  0  0
  -27.3857  -15.5810   23.6328 C   0  0  0  0  0  0
  -28.2732  -24.0755   19.4613 C   0  0  0  0  0  0
  -29.3721  -22.9389   19.4729 C   0  0  0  0  0  0
  -28.2824  -25.2016   20.5563 C   0  0  0  0  0  0
  -28.7708  -16.1592   23.9924 C   0  0  0  0  0  0
  -29.6659  -15.4711   21.1898 N   0  0  0  0  0  0
  -29.1098  -21.6741   20.2271 N   0  0  0  0  0  0
  -30.1757  -20.2219   18.8479 O   0  0  0  0  0  0
  -31.4907  -12.6018   19.0960 H   0  0  0  0  0  0
  -30.4610  -11.3833   19.7943 H   0  0  0  0  0  0
  -29.7716  -11.7720   17.4407 H   0  0  0  0  0  0
  -29.6348  -13.4875   17.7106 H   0  0  0  0  0  0
  -27.8608  -11.2876   18.8063 H   0  0  0  0  0  0
  -27.3767  -12.5988   17.7638 H   0  0  0  0  0  0
  -27.7061  -14.2325   19.5614 H   0  0  0  0  0  0
  -28.7136  -11.8622   21.2105 H   0  0  0  0  0  0
  -28.4155  -13.4091   21.8942 H   0  0  0  0  0  0
  -25.2742   -9.5757   22.4713 H   0  0  0  0  0  0
  -24.0005   -7.4701   22.7516 H   0  0  0  0  0  0
  -21.0779   -8.8743   19.8993 H   0  0  0  0  0  0
  -22.3612  -10.9654   19.6152 H   0  0  0  0  0  0
  -21.2059   -7.6163   23.9700 H   0  0  0  0  0  0
  -21.1421   -6.0543   25.9060 H   0  0  0  0  0  0
  -22.0628   -2.7617   23.2852 H   0  0  0  0  0  0
  -22.4183  -11.9899   22.4693 H   0  0  0  0  0  0
  -21.1157  -13.1293   22.2655 H   0  0  0  0  0  0
  -24.6654  -15.8363   20.4286 H   0  0  0  0  0  0
  -26.2708  -15.5928   19.9791 H   0  0  0  0  0  0
  -26.7142  -32.5513   23.1131 H   0  0  0  0  0  0
  -25.0087  -33.9781   25.0453 H   0  0  0  0  0  0
  -22.6967  -31.3023   21.4077 H   0  0  0  0  0  0
  -23.3751  -35.9617   23.3346 H   0  0  0  0  0  0
  -24.3595  -36.8856   22.2041 H   0  0  0  0  0  0
  -23.7245  -37.6510   23.6643 H   0  0  0  0  0  0
  -26.0613  -31.5848   20.6045 H   0  0  0  0  0  0
  -26.8240  -30.8673   21.9908 H   0  0  0  0  0  0
  -28.1154  -29.0610   21.1419 H   0  0  0  0  0  0
  -26.0269  -25.9285   19.0369 H   0  0  0  0  0  0
  -23.9719  -27.2906   19.0377 H   0  0  0  0  0  0
  -23.7317  -30.5860   19.4056 H   0  0  0  0  0  0
  -22.7397  -29.2436   19.8706 H   0  0  0  0  0  0
  -25.1307  -36.1955   25.0819 H   0  0  0  0  0  0
  -20.9986  -28.3168   24.1446 H   0  0  0  0  0  0
  -20.5705  -26.2232   23.3609 H   0  0  0  0  0  0
  -21.6654  -26.7426   22.1174 H   0  0  0  0  0  0
  -19.6911  -25.6287   21.1214 H   0  0  0  0  0  0
  -19.6650  -27.3191   20.6762 H   0  0  0  0  0  0
  -17.4217  -26.6684   21.4004 H   0  0  0  0  0  0
  -18.0293  -25.9993   22.8973 H   0  0  0  0  0  0
  -19.7936  -30.7238   24.2250 H   0  0  0  0  0  0
  -17.5008  -31.6238   24.5126 H   0  0  0  0  0  0
  -15.5349  -30.2906   23.7649 H   0  0  0  0  0  0
  -15.8706  -28.0747   22.7065 H   0  0  0  0  0  0
  -24.5891  -30.7087   25.7729 H   0  0  0  0  0  0
  -24.8886  -32.2867   26.4849 H   0  0  0  0  0  0
  -25.7990  -30.8878   27.0191 H   0  0  0  0  0  0
  -26.2865  -29.6785   24.1173 H   0  0  0  0  0  0
  -27.4132  -29.7300   25.4543 H   0  0  0  0  0  0
  -27.8682  -30.4383   23.9229 H   0  0  0  0  0  0
  -27.2711  -33.3651   26.2033 H   0  0  0  0  0  0
  -28.3842  -32.6882   25.0225 H   0  0  0  0  0  0
  -28.0779  -31.8446   26.5330 H   0  0  0  0  0  0
  -28.2642  -38.0080   24.7484 H   0  0  0  0  0  0
  -28.1046  -36.2592   24.6362 H   0  0  0  0  0  0
  -27.2297  -37.1513   25.8894 H   0  0  0  0  0  0
  -20.9409  -29.8681   21.6898 H   0  0  0  0  0  0
  -26.0194  -38.2865   24.1356 H   0  0  0  0  0  0
  -28.8485  -20.5994   22.5606 H   0  0  0  0  0  0
  -28.5826  -18.9008   24.1701 H   0  0  0  0  0  0
  -30.1175  -17.6872   19.6258 H   0  0  0  0  0  0
  -29.5290  -17.2876   25.7309 H   0  0  0  0  0  0
  -28.4189  -16.0040   26.1575 H   0  0  0  0  0  0
  -27.7861  -17.4713   25.4959 H   0  0  0  0  0  0
  -30.8249  -15.4757   24.3199 H   0  0  0  0  0  0
  -29.8933  -14.3444   23.3533 H   0  0  0  0  0  0
  -29.6126  -14.4257   25.0428 H   0  0  0  0  0  0
  -26.6270  -16.3648   23.6540 H   0  0  0  0  0  0
  -27.0691  -14.8074   24.3334 H   0  0  0  0  0  0
  -27.3528  -15.1587   22.6329 H   0  0  0  0  0  0
  -27.2855  -23.6209   19.4136 H   0  0  0  0  0  0
  -28.3774  -24.5908   18.5056 H   0  0  0  0  0  0
  -30.3313  -23.3510   19.7895 H   0  0  0  0  0  0
  -29.5232  -22.6594   18.4300 H   0  0  0  0  0  0
  -27.4087  -25.0716   21.1979 H   0  0  0  0  0  0
  -29.1346  -25.0314   21.2153 H   0  0  0  0  0  0
  -28.8720  -14.9637   21.5459 H   0  0  0  0  0  0
  -28.6089  -21.7550   21.1004 H   0  0  0  0  0  0
  1 25  1  0  0  0
  1 30  2  0  0  0
  1 85  1  0  0  0
  2  3  1  0  0  0
  2 25  1  0  0  0
  2 88  1  0  0  0
  2 89  1  0  0  0
  3  4  1  0  0  0
  3 90  1  0  0  0
  3 91  1  0  0  0
  4  5  1  0  0  0
  4 92  1  0  0  0
  4 93  1  0  0  0
  5  6  1  0  0  0
  5 26  1  0  0  0
  5 94  1  0  0  0
  6 25  1  0  0  0
  6 95  1  0  0  0
  6 96  1  0  0  0
  7  8  2  0  0  0
  7 26  1  0  0  0
  7 29  1  0  0  0
  8  9  1  0  0  0
  8 22  1  0  0  0
  9 10  1  0  0  0
  9 27  2  0  0  0
 10 11  2  0  0  0
 10 15  1  0  0  0
 11 12  1  0  0  0
 11 97  1  0  0  0
 12 13  2  0  0  0
 12 98  1  0  0  0
 13 14  1  0  0  0
 13 31  1  0  0  0
 14 15  2  0  0  0
 14 99  1  0  0  0
 15100  1  0  0  0
 16 17  2  0  0  0
 16 21  1  0  0  0
 16 31  1  0  0  0
 17 18  1  0  0  0
 17101  1  0  0  0
 18 19  2  0  0  0
 18102  1  0  0  0
 19 20  1  0  0  0
 19 24  1  0  0  0
 20 21  2  0  0  0
 20103  1  0  0  0
 21 23  1  0  0  0
 22 28  1  0  0  0
 22 32  2  0  0  0
 26 27  1  0  0  0
 28104  1  0  0  0
 28105  1  0  0  0
 29106  1  0  0  0
 29107  1  0  0  0
 33 34  1  0  0  0
 33 66  1  0  0  0
 33 70  2  0  0  0
 34 36  1  0  0  0
 34 59  1  0  0  0
 34108  1  0  0  0
 35 44  2  0  0  0
 35 45  1  0  0  0
 35 68  1  0  0  0
 36 56  1  0  0  0
 36109  1  0  0  0
 37 39  1  0  0  0
 37 47  1  0  0  0
 37 66  1  0  0  0
 37110  1  0  0  0
 38 43  2  0  0  0
 38 46  1  0  0  0
 38 47  1  0  0  0
 39 64  1  0  0  0
 39 67  2  0  0  0
 40 52  1  0  0  0
 40 53  2  0  0  0
 40 58  1  0  0  0
 41111  1  0  0  0
 41112  1  0  0  0
 41113  1  0  0  0
 41 48  1  0  0  0
 42 43  1  0  0  0
 42 66  1  0  0  0
 42114  1  0  0  0
 42115  1  0  0  0
 43 44  1  0  0  0
 44116  1  0  0  0
 45 46  2  0  0  0
 45117  1  0  0  0
 46118  1  0  0  0
 47119  1  0  0  0
 47120  1  0  0  0
 48 56  1  0  0  0
 48 65  1  0  0  0
 48121  1  0  0  0
 49 50  1  0  0  0
 49 53  1  0  0  0
 49 64  1  0  0  0
 49122  1  0  0  0
 50 51  1  0  0  0
 50123  1  0  0  0
 50124  1  0  0  0
 51 52  1  0  0  0
 51125  1  0  0  0
 51126  1  0  0  0
 52127  1  0  0  0
 52128  1  0  0  0
 53 54  1  0  0  0
 54 55  2  0  0  0
 54129  1  0  0  0
 55 57  1  0  0  0
 55130  1  0  0  0
 56 69  2  0  0  0
 57 58  2  0  0  0
 57131  1  0  0  0
 58132  1  0  0  0
 59 60  1  0  0  0
 59 61  1  0  0  0
 59 62  1  0  0  0
 60133  1  0  0  0
 60134  1  0  0  0
 60135  1  0  0  0
 61136  1  0  0  0
 61137  1  0  0  0
 61138  1  0  0  0
 62139  1  0  0  0
 62140  1  0  0  0
 62141  1  0  0  0
 63 65  1  0  0  0
 63142  1  0  0  0
 63143  1  0  0  0
 63144  1  0  0  0
 64145  1  0  0  0
 65146  1  0  0  0
 68 83  1  0  0  0
 71 72  2  0  0  0
 71 74  1  0  0  0
 71147  1  0  0  0
 72 75  1  0  0  0
 72148  1  0  0  0
 73 74  2  0  0  0
 73 76  1  0  0  0
 73149  1  0  0  0
 74 77  1  0  0  0
 75 76  2  0  0  0
 75 84  1  0  0  0
 76 85  1  0  0  0
 77 86  1  0  0  0
 77 87  2  0  0  0
 78150  1  0  0  0
 78151  1  0  0  0
 78152  1  0  0  0
 78 84  1  0  0  0
 79 84  1  0  0  0
 79153  1  0  0  0
 79154  1  0  0  0
 79155  1  0  0  0
 80 84  1  0  0  0
 80156  1  0  0  0
 80157  1  0  0  0
 80158  1  0  0  0
 81 82  1  0  0  0
 81 83  1  0  0  0
 81159  1  0  0  0
 81160  1  0  0  0
 82 86  1  0  0  0
 82161  1  0  0  0
 82162  1  0  0  0
 83163  1  0  0  0
 83164  1  0  0  0
 85165  1  0  0  0
 86166  1  0  0  0
M  ISO  4   1 100  68 101  83 101  85 100
M  END
> <chiral flag>
0

> <version>
0

> <s_m_source_file>
/data/baiqing/PycharmProjects/Reinvent-master-3.2/result/LINK_invent/BTK/process_docking_weight1_custom_product_contain_oxygen_bond_distance_aromatic_linkinvent_7_9_3/rearranged_h_0001.sdf

> <i_m_source_file_index>
56

> <r_mmod_Potential_Energy-OPLS-2005>
41.6402244567871

> <r_mmod_Stretch_Energy-OPLS-2005>
71.1767578125

> <r_mmod_Bend_Energy-OPLS-2005>
159.506240844727

> <r_mmod_Torsional_Energy-OPLS-2005>
273.101348876953

> <r_mmod_Improper_Torsional_Energy-OPLS-2005>
5.55714654922485

> <r_mmod_Van_der_Waal_Energy-OPLS-2005>
156.346267700195

> <r_mmod_Electrostatic_Energy-OPLS-2005>
-438.388061523438

> <r_mmod_Solvation_Energy-OPLS-2005>
-223.5361328125

> <b_mmod_Minimization_Converged-OPLS-2005>
0

> <r_mmod_RMS_Derivative-OPLS-2005>
4.34752035140991

$$$$
56
                    3D
 Structure written by MMmdl.
143151  0  0  1  0            999 V2000
  -30.2576  -15.7519   20.3227 C   0  0  0  0  0  0
  -30.4183  -13.1701   19.5398 C   0  0  0  0  0  0
  -29.5561  -12.6848   18.3357 C   0  0  0  0  0  0
  -28.1381  -12.3038   18.7843 C   0  0  0  0  0  0
  -27.5928  -13.3194   19.8114 C   0  0  2  0  0  0
  -28.6024  -13.7007   20.9225 C   0  0  0  0  0  0
  -25.2309  -13.8301   20.5816 C   0  0  0  0  0  0
  -24.1710  -13.0434   20.9298 C   0  0  0  0  0  0
  -24.6429  -11.6950   20.8767 C   0  0  0  0  0  0
  -23.9134  -10.4295   21.0397 C   0  0  0  0  0  0
  -24.3665   -9.4205   21.9179 C   0  0  0  0  0  0
  -23.6321   -8.2249   22.0754 C   0  0  0  0  0  0
  -22.4300   -8.0292   21.3547 C   0  0  0  0  0  0
  -21.9952   -9.0268   20.4645 C   0  0  0  0  0  0
  -22.7298  -10.2137   20.3049 C   0  0  0  0  0  0
  -21.6860   -6.0746   22.5279 C   0  0  0  0  0  0
  -21.4019   -6.5646   23.8214 C   0  0  0  0  0  0
  -21.3662   -5.6796   24.9174 C   0  0  0  0  0  0
  -21.6046   -4.3058   24.7221 C   0  0  0  0  0  0
  -21.8818   -3.8153   23.4341 C   0  0  0  0  0  0
  -21.9196   -4.6973   22.3400 C   0  0  0  0  0  0
  -22.7719  -13.5155   21.1927 C   0  0  0  0  0  0
  -22.1662   -4.2160   21.0977 F   0  0  0  0  0  0
  -21.5628   -3.4539   25.7732 F   0  0  0  0  0  0
  -29.7559  -14.3624   20.2582 N   0  0  0  0  0  0
  -26.2772  -12.9654   20.3253 N   0  0  0  0  0  0
  -25.9380  -11.6711   20.5697 N   0  0  0  0  0  0
  -22.0386  -12.8128   22.0477 N   0  0  0  0  0  0
  -25.3880  -15.2044   20.4253 N   0  0  0  0  0  0
  -31.4970  -15.6743   20.1855 O   0  0  0  0  0  0
  -21.6652   -6.8894   21.4244 O   0  0  0  0  0  0
  -22.3391  -14.5452   20.6761 O   0  0  0  0  0  0
  -24.6923  -31.7902   23.1450 C   0  0  0  0  0  0
  -25.9462  -32.4421   23.8027 C   0  0  1  0  0  0
  -27.2336  -26.6128   20.2196 C   0  0  0  0  0  0
  -25.6006  -33.8250   24.1902 N   0  0  0  0  0  0
  -23.5232  -30.3883   21.5009 C   0  0  2  0  0  0
  -24.9828  -28.7117   20.1218 C   0  0  0  0  0  0
  -22.7809  -29.4263   22.4688 C   0  0  0  0  0  0
  -18.0347  -28.1427   22.8455 C   0  0  0  0  0  0
  -24.1496  -36.7130   23.2654 C   0  0  0  0  0  0
  -26.1081  -30.4918   21.4258 C   0  0  0  0  0  0
  -26.1726  -29.0462   20.7791 C   0  0  0  0  0  0
  -27.2759  -28.0260   20.7987 C   0  0  0  0  0  0
  -26.0080  -26.5143   19.5048 C   0  0  0  0  0  0
  -24.9440  -27.4712   19.4618 C   0  0  0  0  0  0
  -23.7832  -29.6781   20.1400 C   0  0  0  0  0  0
  -25.4149  -36.2868   24.0276 C   0  0  1  0  0  0
  -20.5989  -28.3793   23.1126 C   0  0  2  0  0  0
  -20.6810  -26.9443   22.5406 C   0  0  0  0  0  0
  -19.5785  -26.6370   21.5222 C   0  0  0  0  0  0
  -18.1967  -26.7954   22.1621 C   0  0  0  0  0  0
  -19.1617  -28.8935   23.2770 C   0  0  0  0  0  0
  -18.9518  -30.1517   23.8818 C   0  0  0  0  0  0
  -17.6506  -30.6606   24.0548 C   0  0  0  0  0  0
  -25.9134  -34.9261   23.4931 C   0  0  0  0  0  0
  -16.5394  -29.9086   23.6354 C   0  0  0  0  0  0
  -16.7326  -28.6508   23.0371 C   0  0  0  0  0  0
  -26.4610  -31.6491   25.0686 C   0  0  0  0  0  0
  -25.3651  -31.3836   26.1282 C   0  0  0  0  0  0
  -27.0556  -30.2816   24.6656 C   0  0  0  0  0  0
  -27.6043  -32.4374   25.7506 C   0  0  0  0  0  0
  -27.5563  -37.1721   24.8464 C   0  0  0  0  0  0
  -21.4448  -29.3022   22.3436 N   0  0  0  0  0  0
  -26.4268  -37.3639   23.9410 N   0  0  0  0  0  0
  -24.7989  -30.9255   22.0758 N   0  0  0  0  0  0
  -23.4209  -28.7875   23.3071 O   0  0  0  0  0  0
  -28.1727  -25.3404   20.2776 O   0  0  0  0  0  0
  -26.5786  -34.8855   22.4556 O   0  0  0  0  0  0
  -23.5923  -32.1021   23.6344 O   0  0  0  0  0  0
  -31.2216  -20.8387   20.4023 C   0  0  0  0  0  0
  -30.3150  -21.9548   20.3621 C   0  0  0  0  0  0
  -30.9058  -19.4351   20.3878 C   0  0  0  0  0  0
  -28.6527  -20.2272   20.2909 C   0  0  0  0  0  0
  -28.9036  -21.8454   20.2968 C   0  0  0  0  0  0
  -29.5963  -18.8933   20.3340 C   0  0  0  0  0  0
  -27.9160  -23.4417   20.2369 C   0  0  0  0  0  0
  -29.4765  -17.1371   20.3462 N   0  0  0  0  0  0
  -26.7163  -23.1717   20.1455 O   0  0  0  0  0  0
  -31.4004  -13.4534   19.1599 H   0  0  0  0  0  0
  -30.6126  -12.3496   20.2325 H   0  0  0  0  0  0
  -30.0341  -11.8402   17.8379 H   0  0  0  0  0  0
  -29.4975  -13.4845   17.5960 H   0  0  0  0  0  0
  -28.1862  -11.3154   19.2426 H   0  0  0  0  0  0
  -27.4699  -12.2172   17.9265 H   0  0  0  0  0  0
  -27.4396  -14.2250   19.2228 H   0  0  0  0  0  0
  -28.8915  -12.8379   21.5243 H   0  0  0  0  0  0
  -28.1468  -14.4130   21.6120 H   0  0  0  0  0  0
  -25.2803   -9.5677   22.4764 H   0  0  0  0  0  0
  -24.0023   -7.4641   22.7480 H   0  0  0  0  0  0
  -21.0881   -8.8796   19.8950 H   0  0  0  0  0  0
  -22.3758  -10.9679   19.6163 H   0  0  0  0  0  0
  -21.2012   -7.6154   23.9722 H   0  0  0  0  0  0
  -21.1484   -6.0523   25.9079 H   0  0  0  0  0  0
  -22.0595   -2.7615   23.2836 H   0  0  0  0  0  0
  -22.4033  -11.9804   22.4867 H   0  0  0  0  0  0
  -21.0992  -13.1120   22.2680 H   0  0  0  0  0  0
  -24.6136  -15.8498   20.5379 H   0  0  0  0  0  0
  -26.2234  -15.6473   20.0672 H   0  0  0  0  0  0
  -26.7553  -32.4872   23.0743 H   0  0  0  0  0  0
  -25.0058  -33.9274   24.9993 H   0  0  0  0  0  0
  -22.8534  -31.2280   21.3035 H   0  0  0  0  0  0
  -23.3780  -35.9437   23.3258 H   0  0  0  0  0  0
  -24.3559  -36.8854   22.2079 H   0  0  0  0  0  0
  -23.7235  -37.6281   23.6774 H   0  0  0  0  0  0
  -26.3215  -31.2098   20.6328 H   0  0  0  0  0  0
  -26.9550  -30.5638   22.0955 H   0  0  0  0  0  0
  -28.1682  -28.2906   21.3479 H   0  0  0  0  0  0
  -25.8262  -25.5815   18.9907 H   0  0  0  0  0  0
  -24.0494  -27.2037   18.9162 H   0  0  0  0  0  0
  -23.9664  -30.4346   19.3762 H   0  0  0  0  0  0
  -22.8862  -29.1493   19.8130 H   0  0  0  0  0  0
  -25.1363  -36.1617   25.0766 H   0  0  0  0  0  0
  -21.0068  -28.3426   24.1253 H   0  0  0  0  0  0
  -20.5667  -26.2419   23.3678 H   0  0  0  0  0  0
  -21.6671  -26.7368   22.1228 H   0  0  0  0  0  0
  -19.6935  -25.6258   21.1307 H   0  0  0  0  0  0
  -19.6730  -27.3135   20.6717 H   0  0  0  0  0  0
  -17.4238  -26.6703   21.4022 H   0  0  0  0  0  0
  -18.0342  -26.0113   22.9031 H   0  0  0  0  0  0
  -19.7991  -30.7358   24.2150 H   0  0  0  0  0  0
  -17.5053  -31.6278   24.5167 H   0  0  0  0  0  0
  -15.5390  -30.2960   23.7723 H   0  0  0  0  0  0
  -15.8729  -28.0798   22.7132 H   0  0  0  0  0  0
  -24.5868  -30.7153   25.7577 H   0  0  0  0  0  0
  -24.8807  -32.3069   26.4471 H   0  0  0  0  0  0
  -25.7807  -30.9152   27.0213 H   0  0  0  0  0  0
  -26.3293  -29.6402   24.1656 H   0  0  0  0  0  0
  -27.3949  -29.7299   25.5433 H   0  0  0  0  0  0
  -27.9289  -30.3915   24.0226 H   0  0  0  0  0  0
  -27.2574  -33.3760   26.1841 H   0  0  0  0  0  0
  -28.3975  -32.6799   25.0421 H   0  0  0  0  0  0
  -28.0580  -31.8666   26.5618 H   0  0  0  0  0  0
  -28.2537  -38.0055   24.7522 H   0  0  0  0  0  0
  -28.1102  -36.2577   24.6281 H   0  0  0  0  0  0
  -27.2280  -37.1342   25.8865 H   0  0  0  0  0  0
  -20.9772  -29.8661   21.6476 H   0  0  0  0  0  0
  -26.0086  -38.2682   24.1428 H   0  0  0  0  0  0
  -32.2734  -21.0854   20.4495 H   0  0  0  0  0  0
  -30.7405  -22.9493   20.3805 H   0  0  0  0  0  0
  -31.7347  -18.7419   20.4258 H   0  0  0  0  0  0
  -27.6001  -19.9870   20.2458 H   0  0  0  0  0  0
  -28.4998  -16.8818   20.3783 H   0  0  0  0  0  0
  1 25  1  0  0  0
  1 30  2  0  0  0
  1 78  1  0  0  0
  2  3  1  0  0  0
  2 25  1  0  0  0
  2 80  1  0  0  0
  2 81  1  0  0  0
  3  4  1  0  0  0
  3 82  1  0  0  0
  3 83  1  0  0  0
  4  5  1  0  0  0
  4 84  1  0  0  0
  4 85  1  0  0  0
  5  6  1  0  0  0
  5 26  1  0  0  0
  5 86  1  0  0  0
  6 25  1  0  0  0
  6 87  1  0  0  0
  6 88  1  0  0  0
  7  8  2  0  0  0
  7 26  1  0  0  0
  7 29  1  0  0  0
  8  9  1  0  0  0
  8 22  1  0  0  0
  9 10  1  0  0  0
  9 27  2  0  0  0
 10 11  2  0  0  0
 10 15  1  0  0  0
 11 12  1  0  0  0
 11 89  1  0  0  0
 12 13  2  0  0  0
 12 90  1  0  0  0
 13 14  1  0  0  0
 13 31  1  0  0  0
 14 15  2  0  0  0
 14 91  1  0  0  0
 15 92  1  0  0  0
 16 17  2  0  0  0
 16 21  1  0  0  0
 16 31  1  0  0  0
 17 18  1  0  0  0
 17 93  1  0  0  0
 18 19  2  0  0  0
 18 94  1  0  0  0
 19 20  1  0  0  0
 19 24  1  0  0  0
 20 21  2  0  0  0
 20 95  1  0  0  0
 21 23  1  0  0  0
 22 28  1  0  0  0
 22 32  2  0  0  0
 26 27  1  0  0  0
 28 96  1  0  0  0
 28 97  1  0  0  0
 29 98  1  0  0  0
 29 99  1  0  0  0
 33 34  1  0  0  0
 33 66  1  0  0  0
 33 70  2  0  0  0
 34 36  1  0  0  0
 34 59  1  0  0  0
 34100  1  0  0  0
 35 44  2  0  0  0
 35 45  1  0  0  0
 35 68  1  0  0  0
 36 56  1  0  0  0
 36101  1  0  0  0
 37 39  1  0  0  0
 37 47  1  0  0  0
 37 66  1  0  0  0
 37102  1  0  0  0
 38 43  2  0  0  0
 38 46  1  0  0  0
 38 47  1  0  0  0
 39 64  1  0  0  0
 39 67  2  0  0  0
 40 52  1  0  0  0
 40 53  2  0  0  0
 40 58  1  0  0  0
 41103  1  0  0  0
 41104  1  0  0  0
 41105  1  0  0  0
 41 48  1  0  0  0
 42 43  1  0  0  0
 42 66  1  0  0  0
 42106  1  0  0  0
 42107  1  0  0  0
 43 44  1  0  0  0
 44108  1  0  0  0
 45 46  2  0  0  0
 45109  1  0  0  0
 46110  1  0  0  0
 47111  1  0  0  0
 47112  1  0  0  0
 48 56  1  0  0  0
 48 65  1  0  0  0
 48113  1  0  0  0
 49 50  1  0  0  0
 49 53  1  0  0  0
 49 64  1  0  0  0
 49114  1  0  0  0
 50 51  1  0  0  0
 50115  1  0  0  0
 50116  1  0  0  0
 51 52  1  0  0  0
 51117  1  0  0  0
 51118  1  0  0  0
 52119  1  0  0  0
 52120  1  0  0  0
 53 54  1  0  0  0
 54 55  2  0  0  0
 54121  1  0  0  0
 55 57  1  0  0  0
 55122  1  0  0  0
 56 69  2  0  0  0
 57 58  2  0  0  0
 57123  1  0  0  0
 58124  1  0  0  0
 59 60  1  0  0  0
 59 61  1  0  0  0
 59 62  1  0  0  0
 60125  1  0  0  0
 60126  1  0  0  0
 60127  1  0  0  0
 61128  1  0  0  0
 61129  1  0  0  0
 61130  1  0  0  0
 62131  1  0  0  0
 62132  1  0  0  0
 62133  1  0  0  0
 63 65  1  0  0  0
 63134  1  0  0  0
 63135  1  0  0  0
 63136  1  0  0  0
 64137  1  0  0  0
 65138  1  0  0  0
 68 77  1  0  0  0
 71 72  2  0  0  0
 71 73  1  0  0  0
 71139  1  0  0  0
 72 75  1  0  0  0
 72140  1  0  0  0
 73 76  2  0  0  0
 73141  1  0  0  0
 74 75  2  0  0  0
 74 76  1  0  0  0
 74142  1  0  0  0
 75 77  1  0  0  0
 76 78  1  0  0  0
 77 79  2  0  0  0
 78143  1  0  0  0
M  ISO  4   1 100  68 101  77 101  78 100
M  END
> <chiral flag>
0

> <version>
0

> <s_m_source_file>
/data/baiqing/PycharmProjects/Reinvent-master-3.2/result/LINK_invent/BTK/process_docking_weight1_custom_product_contain_oxygen_bond_distance_aromatic_linkinvent_7_9_3/rearranged_h_0001.sdf

> <i_m_source_file_index>
57

> <r_mmod_Potential_Energy-OPLS-2005>
2827.7021484375

> <r_mmod_Stretch_Energy-OPLS-2005>
1326.43420410156

> <r_mmod_Bend_Energy-OPLS-2005>
628.14794921875

> <r_mmod_Torsional_Energy-OPLS-2005>
208.083679199219

> <r_mmod_Improper_Torsional_Energy-OPLS-2005>
4.02426671981812

> <r_mmod_Van_der_Waal_Energy-OPLS-2005>
125.236923217773

> <r_mmod_Electrostatic_Energy-OPLS-2005>
-339.206512451172

> <r_mmod_Solvation_Energy-OPLS-2005>
-219.378082275391

> <b_mmod_Minimization_Converged-OPLS-2005>
0

> <r_mmod_RMS_Derivative-OPLS-2005>
0.436173737049103

$$$$
57
                    3D
 Structure written by MMmdl.
147155  0  0  1  0            999 V2000
  -30.4075  -15.3385   20.3686 C   0  0  0  0  0  0
  -30.4394  -12.8683   19.5103 C   0  0  0  0  0  0
  -29.5353  -12.5855   18.2833 C   0  0  0  0  0  0
  -28.0893  -12.2930   18.7211 C   0  0  0  0  0  0
  -27.6063  -13.2779   19.8137 C   0  0  2  0  0  0
  -28.6417  -13.4868   20.9380 C   0  0  0  0  0  0
  -25.2377  -13.8243   20.5753 C   0  0  0  0  0  0
  -24.1737  -13.0429   20.9269 C   0  0  0  0  0  0
  -24.6398  -11.6928   20.8766 C   0  0  0  0  0  0
  -23.9094  -10.4288   21.0407 C   0  0  0  0  0  0
  -24.3638   -9.4202   21.9186 C   0  0  0  0  0  0
  -23.6304   -8.2241   22.0755 C   0  0  0  0  0  0
  -22.4285   -8.0282   21.3545 C   0  0  0  0  0  0
  -21.9928   -9.0257   20.4645 C   0  0  0  0  0  0
  -22.7265  -10.2131   20.3055 C   0  0  0  0  0  0
  -21.6855   -6.0738   22.5279 C   0  0  0  0  0  0
  -21.4016   -6.5641   23.8213 C   0  0  0  0  0  0
  -21.3660   -5.6793   24.9174 C   0  0  0  0  0  0
  -21.6044   -4.3056   24.7225 C   0  0  0  0  0  0
  -21.8819   -3.8148   23.4346 C   0  0  0  0  0  0
  -21.9193   -4.6965   22.3402 C   0  0  0  0  0  0
  -22.7753  -13.5180   21.1913 C   0  0  0  0  0  0
  -22.1661   -4.2151   21.0979 F   0  0  0  0  0  0
  -21.5628   -3.4539   25.7737 F   0  0  0  0  0  0
  -29.8534  -14.0220   20.2918 N   0  0  0  0  0  0
  -26.2801  -12.9521   20.3202 N   0  0  0  0  0  0
  -25.9334  -11.6624   20.5711 N   0  0  0  0  0  0
  -22.0412  -12.8161   22.0465 N   0  0  0  0  0  0
  -25.3993  -15.1980   20.4188 N   0  0  0  0  0  0
  -31.6420  -15.3254   20.2462 O   0  0  0  0  0  0
  -21.6644   -6.8882   21.4242 O   0  0  0  0  0  0
  -22.3433  -14.5481   20.6751 O   0  0  0  0  0  0
  -24.6676  -31.8193   23.1665 C   0  0  0  0  0  0
  -25.9335  -32.4567   23.8148 C   0  0  1  0  0  0
  -27.2191  -26.8807   20.2005 C   0  0  0  0  0  0
  -25.5984  -33.8383   24.2051 N   0  0  0  0  0  0
  -23.4844  -30.4287   21.5177 C   0  0  2  0  0  0
  -24.9377  -28.8020   20.1222 C   0  0  0  0  0  0
  -22.7687  -29.4421   22.4778 C   0  0  0  0  0  0
  -18.0326  -28.1411   22.8465 C   0  0  0  0  0  0
  -24.1494  -36.7197   23.2648 C   0  0  0  0  0  0
  -26.0566  -30.6118   21.4026 C   0  0  0  0  0  0
  -26.1252  -29.1943   20.7534 C   0  0  0  0  0  0
  -27.2630  -28.2590   20.7592 C   0  0  0  0  0  0
  -25.9986  -26.6489   19.5275 C   0  0  0  0  0  0
  -24.9018  -27.5500   19.4879 C   0  0  0  0  0  0
  -23.7278  -29.7379   20.1478 C   0  0  0  0  0  0
  -25.4137  -36.2954   24.0296 C   0  0  1  0  0  0
  -20.5953  -28.3760   23.1180 C   0  0  2  0  0  0
  -20.6801  -26.9438   22.5402 C   0  0  0  0  0  0
  -19.5775  -26.6377   21.5215 C   0  0  0  0  0  0
  -18.1957  -26.7943   22.1622 C   0  0  0  0  0  0
  -19.1588  -28.8907   23.2808 C   0  0  0  0  0  0
  -18.9497  -30.1496   23.8845 C   0  0  0  0  0  0
  -17.6489  -30.6599   24.0554 C   0  0  0  0  0  0
  -25.9105  -34.9339   23.4997 C   0  0  0  0  0  0
  -16.5379  -29.9085   23.6345 C   0  0  0  0  0  0
  -16.7307  -28.6506   23.0363 C   0  0  0  0  0  0
  -26.4569  -31.6528   25.0695 C   0  0  0  0  0  0
  -25.3682  -31.3791   26.1341 C   0  0  0  0  0  0
  -27.0475  -30.2890   24.6459 C   0  0  0  0  0  0
  -27.6050  -32.4348   25.7505 C   0  0  0  0  0  0
  -27.5568  -37.1756   24.8467 C   0  0  0  0  0  0
  -21.4353  -29.3043   22.3525 N   0  0  0  0  0  0
  -26.4278  -37.3695   23.9408 N   0  0  0  0  0  0
  -24.7582  -30.9814   22.0825 N   0  0  0  0  0  0
  -23.4213  -28.7999   23.3043 O   0  0  0  0  0  0
  -28.2246  -25.7619   20.1857 O   0  0  0  0  0  0
  -26.5721  -34.8883   22.4598 O   0  0  0  0  0  0
  -23.5734  -32.1182   23.6731 O   0  0  0  0  0  0
  -28.9453  -21.1695   17.9988 C   0  0  0  0  0  0
  -29.2196  -19.9454   18.6761 C   0  0  0  0  0  0
  -28.6601  -22.4175   18.6269 C   0  0  0  0  0  0
  -28.9239  -21.2205   20.7003 C   0  0  0  0  0  0
  -29.2567  -19.8277   20.0822 C   0  0  0  0  0  0
  -28.6045  -22.5905   20.0271 C   0  0  0  0  0  0
  -29.8038  -18.2707   20.7308 C   0  0  0  0  0  0
  -28.0097  -24.1588   20.6024 C   0  0  0  0  0  0
  -29.6295  -16.6212   20.3858 N   0  0  0  0  0  0
  -31.4482  -13.0988   19.1653 H   0  0  0  0  0  0
  -30.5387  -11.9797   20.1359 H   0  0  0  0  0  0
  -29.9296  -11.7509   17.7022 H   0  0  0  0  0  0
  -29.5454  -13.4526   17.6211 H   0  0  0  0  0  0
  -28.0631  -11.2750   19.1117 H   0  0  0  0  0  0
  -27.4172  -12.3093   17.8623 H   0  0  0  0  0  0
  -27.5076  -14.2341   19.2984 H   0  0  0  0  0  0
  -28.8363  -12.5627   21.4844 H   0  0  0  0  0  0
  -28.2690  -14.2079   21.6672 H   0  0  0  0  0  0
  -25.2779   -9.5677   22.4767 H   0  0  0  0  0  0
  -24.0008   -7.4632   22.7477 H   0  0  0  0  0  0
  -21.0859   -8.8781   19.8951 H   0  0  0  0  0  0
  -22.3724  -10.9673   19.6167 H   0  0  0  0  0  0
  -21.2010   -7.6149   23.9716 H   0  0  0  0  0  0
  -21.1482   -6.0523   25.9077 H   0  0  0  0  0  0
  -22.0597   -2.7610   23.2845 H   0  0  0  0  0  0
  -22.4047  -11.9832   22.4857 H   0  0  0  0  0  0
  -21.1022  -13.1164   22.2666 H   0  0  0  0  0  0
  -24.6265  -15.8451   20.5329 H   0  0  0  0  0  0
  -26.2357  -15.6418   20.0643 H   0  0  0  0  0  0
  -26.7408  -32.5095   23.0864 H   0  0  0  0  0  0
  -25.0072  -33.9453   25.0163 H   0  0  0  0  0  0
  -22.8002  -31.2613   21.3415 H   0  0  0  0  0  0
  -23.3771  -35.9511   23.3272 H   0  0  0  0  0  0
  -24.3570  -36.8885   22.2070 H   0  0  0  0  0  0
  -23.7237  -37.6366   23.6734 H   0  0  0  0  0  0
  -26.2389  -31.3476   20.6182 H   0  0  0  0  0  0
  -26.9157  -30.6743   22.0585 H   0  0  0  0  0  0
  -28.1689  -28.5669   21.2622 H   0  0  0  0  0  0
  -25.8699  -25.6954   19.0348 H   0  0  0  0  0  0
  -24.0014  -27.2428   18.9738 H   0  0  0  0  0  0
  -23.8906  -30.5027   19.3876 H   0  0  0  0  0  0
  -22.8360  -29.1960   19.8281 H   0  0  0  0  0  0
  -25.1338  -36.1743   25.0787 H   0  0  0  0  0  0
  -21.0037  -28.3369   24.1305 H   0  0  0  0  0  0
  -20.5680  -26.2380   23.3646 H   0  0  0  0  0  0
  -21.6664  -26.7409   22.1210 H   0  0  0  0  0  0
  -19.6934  -25.6274   21.1279 H   0  0  0  0  0  0
  -19.6713  -27.3158   20.6722 H   0  0  0  0  0  0
  -17.4226  -26.6685   21.4027 H   0  0  0  0  0  0
  -18.0352  -26.0099   22.9032 H   0  0  0  0  0  0
  -19.7972  -30.7327   24.2191 H   0  0  0  0  0  0
  -17.5039  -31.6274   24.5166 H   0  0  0  0  0  0
  -15.5377  -30.2969   23.7699 H   0  0  0  0  0  0
  -15.8708  -28.0806   22.7109 H   0  0  0  0  0  0
  -24.5883  -30.7122   25.7647 H   0  0  0  0  0  0
  -24.8852  -32.2996   26.4628 H   0  0  0  0  0  0
  -25.7902  -30.9048   27.0211 H   0  0  0  0  0  0
  -26.3154  -29.6552   24.1444 H   0  0  0  0  0  0
  -27.3969  -29.7271   25.5132 H   0  0  0  0  0  0
  -27.9108  -30.4062   23.9907 H   0  0  0  0  0  0
  -27.2610  -33.3698   26.1940 H   0  0  0  0  0  0
  -28.3937  -32.6831   25.0390 H   0  0  0  0  0  0
  -28.0634  -31.8571   26.5540 H   0  0  0  0  0  0
  -28.2565  -38.0071   24.7512 H   0  0  0  0  0  0
  -28.1085  -36.2596   24.6297 H   0  0  0  0  0  0
  -27.2284  -37.1400   25.8869 H   0  0  0  0  0  0
  -20.9620  -29.8722   21.6636 H   0  0  0  0  0  0
  -26.0121  -38.2751   24.1416 H   0  0  0  0  0  0
  -28.9516  -21.1496   16.9175 H   0  0  0  0  0  0
  -29.4437  -19.0700   18.0814 H   0  0  0  0  0  0
  -28.4390  -23.2690   17.9978 H   0  0  0  0  0  0
  -28.9082  -21.2402   21.7811 H   0  0  0  0  0  0
  -29.5077  -18.3294   21.7784 H   0  0  0  0  0  0
  -30.8867  -18.3942   20.7676 H   0  0  0  0  0  0
  -28.2486  -24.1429   21.6657 H   0  0  0  0  0  0
  -26.9275  -24.0300   20.5824 H   0  0  0  0  0  0
  -28.6486  -16.3991   20.3052 H   0  0  0  0  0  0
  1 25  1  0  0  0
  1 30  2  0  0  0
  1 79  1  0  0  0
  2  3  1  0  0  0
  2 25  1  0  0  0
  2 80  1  0  0  0
  2 81  1  0  0  0
  3  4  1  0  0  0
  3 82  1  0  0  0
  3 83  1  0  0  0
  4  5  1  0  0  0
  4 84  1  0  0  0
  4 85  1  0  0  0
  5  6  1  0  0  0
  5 26  1  0  0  0
  5 86  1  0  0  0
  6 25  1  0  0  0
  6 87  1  0  0  0
  6 88  1  0  0  0
  7  8  2  0  0  0
  7 26  1  0  0  0
  7 29  1  0  0  0
  8  9  1  0  0  0
  8 22  1  0  0  0
  9 10  1  0  0  0
  9 27  2  0  0  0
 10 11  2  0  0  0
 10 15  1  0  0  0
 11 12  1  0  0  0
 11 89  1  0  0  0
 12 13  2  0  0  0
 12 90  1  0  0  0
 13 14  1  0  0  0
 13 31  1  0  0  0
 14 15  2  0  0  0
 14 91  1  0  0  0
 15 92  1  0  0  0
 16 17  2  0  0  0
 16 21  1  0  0  0
 16 31  1  0  0  0
 17 18  1  0  0  0
 17 93  1  0  0  0
 18 19  2  0  0  0
 18 94  1  0  0  0
 19 20  1  0  0  0
 19 24  1  0  0  0
 20 21  2  0  0  0
 20 95  1  0  0  0
 21 23  1  0  0  0
 22 28  1  0  0  0
 22 32  2  0  0  0
 26 27  1  0  0  0
 28 96  1  0  0  0
 28 97  1  0  0  0
 29 98  1  0  0  0
 29 99  1  0  0  0
 33 34  1  0  0  0
 33 66  1  0  0  0
 33 70  2  0  0  0
 34 36  1  0  0  0
 34 59  1  0  0  0
 34100  1  0  0  0
 35 44  2  0  0  0
 35 45  1  0  0  0
 35 68  1  0  0  0
 36 56  1  0  0  0
 36101  1  0  0  0
 37 39  1  0  0  0
 37 47  1  0  0  0
 37 66  1  0  0  0
 37102  1  0  0  0
 38 43  2  0  0  0
 38 46  1  0  0  0
 38 47  1  0  0  0
 39 64  1  0  0  0
 39 67  2  0  0  0
 40 52  1  0  0  0
 40 53  2  0  0  0
 40 58  1  0  0  0
 41103  1  0  0  0
 41104  1  0  0  0
 41105  1  0  0  0
 41 48  1  0  0  0
 42 43  1  0  0  0
 42 66  1  0  0  0
 42106  1  0  0  0
 42107  1  0  0  0
 43 44  1  0  0  0
 44108  1  0  0  0
 45 46  2  0  0  0
 45109  1  0  0  0
 46110  1  0  0  0
 47111  1  0  0  0
 47112  1  0  0  0
 48 56  1  0  0  0
 48 65  1  0  0  0
 48113  1  0  0  0
 49 50  1  0  0  0
 49 53  1  0  0  0
 49 64  1  0  0  0
 49114  1  0  0  0
 50 51  1  0  0  0
 50115  1  0  0  0
 50116  1  0  0  0
 51 52  1  0  0  0
 51117  1  0  0  0
 51118  1  0  0  0
 52119  1  0  0  0
 52120  1  0  0  0
 53 54  1  0  0  0
 54 55  2  0  0  0
 54121  1  0  0  0
 55 57  1  0  0  0
 55122  1  0  0  0
 56 69  2  0  0  0
 57 58  2  0  0  0
 57123  1  0  0  0
 58124  1  0  0  0
 59 60  1  0  0  0
 59 61  1  0  0  0
 59 62  1  0  0  0
 60125  1  0  0  0
 60126  1  0  0  0
 60127  1  0  0  0
 61128  1  0  0  0
 61129  1  0  0  0
 61130  1  0  0  0
 62131  1  0  0  0
 62132  1  0  0  0
 62133  1  0  0  0
 63 65  1  0  0  0
 63134  1  0  0  0
 63135  1  0  0  0
 63136  1  0  0  0
 64137  1  0  0  0
 65138  1  0  0  0
 68 78  1  0  0  0
 71 72  2  0  0  0
 71 73  1  0  0  0
 71139  1  0  0  0
 72 75  1  0  0  0
 72140  1  0  0  0
 73 76  2  0  0  0
 73141  1  0  0  0
 74 75  2  0  0  0
 74 76  1  0  0  0
 74142  1  0  0  0
 75 77  1  0  0  0
 76 78  1  0  0  0
 77 79  1  0  0  0
 77143  1  0  0  0
 77144  1  0  0  0
 78145  1  0  0  0
 78146  1  0  0  0
 79147  1  0  0  0
M  ISO  4   1 100  68 101  78 101  79 100
M  END
> <chiral flag>
0

> <version>
0

> <s_m_source_file>
/data/baiqing/PycharmProjects/Reinvent-master-3.2/result/LINK_invent/BTK/process_docking_weight1_custom_product_contain_oxygen_bond_distance_aromatic_linkinvent_7_9_3/rearranged_h_0001.sdf

> <i_m_source_file_index>
58

> <r_mmod_Potential_Energy-OPLS-2005>
1401.74060058594

> <r_mmod_Stretch_Energy-OPLS-2005>
643.052795410156

> <r_mmod_Bend_Energy-OPLS-2005>
451.203063964844

> <r_mmod_Torsional_Energy-OPLS-2005>
238.437026977539

> <r_mmod_Improper_Torsional_Energy-OPLS-2005>
6.01917123794556

> <r_mmod_Van_der_Waal_Energy-OPLS-2005>
122.058601379395

> <r_mmod_Electrostatic_Energy-OPLS-2005>
-377.779266357422

> <r_mmod_Solvation_Energy-OPLS-2005>
-214.792663574219

> <b_mmod_Minimization_Converged-OPLS-2005>
1

> <r_mmod_RMS_Derivative-OPLS-2005>
0.046136412769556

$$$$
58
                    3D
 Structure written by MMmdl.
137144  0  0  1  0            999 V2000
  -29.9622  -16.5635   20.2664 C   0  0  0  0  0  0
  -30.3146  -13.7964   19.5233 C   0  0  0  0  0  0
  -29.5702  -12.9451   18.4142 C   0  0  0  0  0  0
  -28.2376  -12.3814   18.9086 C   0  0  0  0  0  0
  -27.5746  -13.4257   19.8177 C   0  0  2  0  0  0
  -28.5152  -14.1357   20.8613 C   0  0  0  0  0  0
  -25.2174  -13.8479   20.5951 C   0  0  0  0  0  0
  -24.1675  -13.0467   20.9341 C   0  0  0  0  0  0
  -24.6541  -11.7031   20.8745 C   0  0  0  0  0  0
  -23.9255  -10.4321   21.0342 C   0  0  0  0  0  0
  -24.3739   -9.4228   21.9149 C   0  0  0  0  0  0
  -23.6364   -8.2283   22.0747 C   0  0  0  0  0  0
  -22.4340   -8.0323   21.3544 C   0  0  0  0  0  0
  -22.0014   -9.0304   20.4634 C   0  0  0  0  0  0
  -22.7395  -10.2158   20.3018 C   0  0  0  0  0  0
  -21.6878   -6.0765   22.5277 C   0  0  0  0  0  0
  -21.4033   -6.5657   23.8214 C   0  0  0  0  0  0
  -21.3665   -5.6802   24.9171 C   0  0  0  0  0  0
  -21.6043   -4.3064   24.7217 C   0  0  0  0  0  0
  -21.8816   -3.8163   23.4335 C   0  0  0  0  0  0
  -21.9200   -4.6987   22.3396 C   0  0  0  0  0  0
  -22.7650  -13.5092   21.1938 C   0  0  0  0  0  0
  -22.1663   -4.2170   21.0973 F   0  0  0  0  0  0
  -21.5624   -3.4543   25.7727 F   0  0  0  0  0  0
  -29.5188  -15.0444   20.1465 N   0  0  0  0  0  0
  -26.2805  -13.0063   20.3476 N   0  0  0  0  0  0
  -25.9548  -11.6990   20.5678 N   0  0  0  0  0  0
  -22.0351  -12.8040   22.0489 N   0  0  0  0  0  0
  -25.3555  -15.2242   20.4383 N   0  0  0  0  0  0
  -31.2063  -16.3142   20.2293 O   0  0  0  0  0  0
  -21.6677   -6.8928   21.4248 O   0  0  0  0  0  0
  -22.3283  -14.5375   20.6771 O   0  0  0  0  0  0
  -24.7449  -31.7216   23.0979 C   0  0  0  0  0  0
  -25.9712  -32.4091   23.7768 C   0  0  1  0  0  0
  -27.2626  -26.0606   20.2671 C   0  0  0  0  0  0
  -25.6018  -33.7953   24.1581 N   0  0  0  0  0  0
  -23.5996  -30.2922   21.4680 C   0  0  2  0  0  0
  -25.0624  -28.4936   20.1392 C   0  0  0  0  0  0
  -22.8035  -29.3895   22.4550 C   0  0  0  0  0  0
  -18.0376  -28.1454   22.8421 C   0  0  0  0  0  0
  -24.1496  -36.6992   23.2671 C   0  0  0  0  0  0
  -26.1999  -30.2411   21.4589 C   0  0  0  0  0  0
  -26.2597  -28.7329   20.8212 C   0  0  0  0  0  0
  -27.3097  -27.5690   20.8335 C   0  0  0  0  0  0
  -26.0272  -26.1946   19.5192 C   0  0  0  0  0  0
  -25.0234  -27.2541   19.4619 C   0  0  0  0  0  0
  -23.8874  -29.5253   20.1333 C   0  0  0  0  0  0
  -25.4170  -36.2677   24.0236 C   0  0  1  0  0  0
  -20.6038  -28.3836   23.1031 C   0  0  2  0  0  0
  -20.6806  -26.9436   22.5420 C   0  0  0  0  0  0
  -19.5796  -26.6348   21.5224 C   0  0  0  0  0  0
  -18.1977  -26.7969   22.1607 C   0  0  0  0  0  0
  -19.1657  -28.8984   23.2686 C   0  0  0  0  0  0
  -18.9553  -30.1552   23.8759 C   0  0  0  0  0  0
  -17.6536  -30.6619   24.0537 C   0  0  0  0  0  0
  -25.9187  -34.9084   23.4798 C   0  0  0  0  0  0
  -16.5422  -29.9090   23.6366 C   0  0  0  0  0  0
  -16.7352  -28.6518   23.0376 C   0  0  0  0  0  0
  -26.4693  -31.6408   25.0652 C   0  0  0  0  0  0
  -25.3596  -31.3898   26.1149 C   0  0  0  0  0  0
  -27.0730  -30.2690   24.7003 C   0  0  0  0  0  0
  -27.6017  -32.4426   25.7501 C   0  0  0  0  0  0
  -27.5543  -37.1648   24.8466 C   0  0  0  0  0  0
  -21.4628  -29.2949   22.3282 N   0  0  0  0  0  0
  -26.4242  -37.3509   23.9408 N   0  0  0  0  0  0
  -24.8802  -30.8007   22.0600 N   0  0  0  0  0  0
  -23.4175  -28.7613   23.3197 O   0  0  0  0  0  0
  -28.1668  -24.5661   20.3212 O   0  0  0  0  0  0
  -26.5925  -34.8791   22.4483 O   0  0  0  0  0  0
  -23.6336  -32.0588   23.5524 O   0  0  0  0  0  0
  -29.2006  -20.3375   20.3201 C   0  0  0  0  0  0
  -28.2004  -22.4649   20.2188 C   0  0  0  0  0  0
  -29.3170  -18.2279   20.2702 N   0  0  0  0  0  0
  -31.2155  -14.1817   19.0448 H   0  0  0  0  0  0
  -30.7050  -13.1434   20.3066 H   0  0  0  0  0  0
  -30.2109  -12.1390   18.0541 H   0  0  0  0  0  0
  -29.3823  -13.5901   17.5547 H   0  0  0  0  0  0
  -28.4305  -11.4738   19.4819 H   0  0  0  0  0  0
  -27.5913  -12.1016   18.0755 H   0  0  0  0  0  0
  -27.3204  -14.2160   19.1091 H   0  0  0  0  0  0
  -28.9720  -13.4238   21.5512 H   0  0  0  0  0  0
  -27.9168  -14.7884   21.4973 H   0  0  0  0  0  0
  -25.2871   -9.5690   22.4748 H   0  0  0  0  0  0
  -24.0047   -7.4683   22.7489 H   0  0  0  0  0  0
  -21.0938   -8.8851   19.8945 H   0  0  0  0  0  0
  -22.3854  -10.9697   19.6127 H   0  0  0  0  0  0
  -21.2035   -7.6165   23.9725 H   0  0  0  0  0  0
  -21.1486   -6.0529   25.9075 H   0  0  0  0  0  0
  -22.0587   -2.7625   23.2829 H   0  0  0  0  0  0
  -22.4039  -11.9742   22.4895 H   0  0  0  0  0  0
  -21.0937  -13.0980   22.2674 H   0  0  0  0  0  0
  -24.5768  -15.8638   20.5540 H   0  0  0  0  0  0
  -26.2060  -15.6839   20.1380 H   0  0  0  0  0  0
  -26.7876  -32.4443   23.0543 H   0  0  0  0  0  0
  -24.9961  -33.8879   24.9601 H   0  0  0  0  0  0
  -22.9629  -31.1444   21.2211 H   0  0  0  0  0  0
  -23.3792  -35.9283   23.3224 H   0  0  0  0  0  0
  -24.3542  -36.8804   22.2107 H   0  0  0  0  0  0
  -23.7229  -37.6104   23.6874 H   0  0  0  0  0  0
  -26.4659  -30.9211   20.6487 H   0  0  0  0  0  0
  -27.0298  -30.3291   22.1459 H   0  0  0  0  0  0
  -28.1985  -27.7908   21.4071 H   0  0  0  0  0  0
  -25.7596  -25.3099   18.9588 H   0  0  0  0  0  0
  -24.1415  -27.0455   18.8719 H   0  0  0  0  0  0
  -24.1127  -30.2559   19.3556 H   0  0  0  0  0  0
  -22.9802  -29.0216   19.7958 H   0  0  0  0  0  0
  -25.1411  -36.1346   25.0723 H   0  0  0  0  0  0
  -21.0093  -28.3507   24.1170 H   0  0  0  0  0  0
  -20.5606  -26.2478   23.3738 H   0  0  0  0  0  0
  -21.6663  -26.7276   22.1281 H   0  0  0  0  0  0
  -19.6940  -25.6222   21.1342 H   0  0  0  0  0  0
  -19.6763  -27.3084   20.6699 H   0  0  0  0  0  0
  -17.4253  -26.6718   21.4002 H   0  0  0  0  0  0
  -18.0338  -26.0144   22.9029 H   0  0  0  0  0  0
  -19.8031  -30.7398   24.2071 H   0  0  0  0  0  0
  -17.5087  -31.6284   24.5168 H   0  0  0  0  0  0
  -15.5417  -30.2952   23.7771 H   0  0  0  0  0  0
  -15.8752  -28.0794   22.7169 H   0  0  0  0  0  0
  -24.5845  -30.7190   25.7424 H   0  0  0  0  0  0
  -24.8725  -32.3171   26.4173 H   0  0  0  0  0  0
  -25.7627  -30.9316   27.0189 H   0  0  0  0  0  0
  -26.3552  -29.6093   24.2123 H   0  0  0  0  0  0
  -27.4038  -29.7408   25.5956 H   0  0  0  0  0  0
  -27.9570  -30.3690   24.0706 H   0  0  0  0  0  0
  -27.2476  -33.3875   26.1635 H   0  0  0  0  0  0
  -28.4042  -32.6752   25.0488 H   0  0  0  0  0  0
  -28.0450  -31.8868   26.5774 H   0  0  0  0  0  0
  -28.2488  -38.0006   24.7515 H   0  0  0  0  0  0
  -28.1107  -36.2518   24.6291 H   0  0  0  0  0  0
  -27.2256  -37.1265   25.8866 H   0  0  0  0  0  0
  -21.0089  -29.8498   21.6159 H   0  0  0  0  0  0
  -26.0011  -38.2526   24.1435 H   0  0  0  0  0  0
  -30.0015  -20.5173   19.6027 H   0  0  0  0  0  0
  -29.6902  -20.4553   21.2869 H   0  0  0  0  0  0
  -27.7199  -22.3753   19.2446 H   0  0  0  0  0  0
  -27.3860  -22.2933   20.9225 H   0  0  0  0  0  0
  -30.3181  -18.3884   20.2986 H   0  0  0  0  0  0
  1 25  1  0  0  0
  1 30  2  0  0  0
  1 73  1  0  0  0
  2  3  1  0  0  0
  2 25  1  0  0  0
  2 74  1  0  0  0
  2 75  1  0  0  0
  3  4  1  0  0  0
  3 76  1  0  0  0
  3 77  1  0  0  0
  4  5  1  0  0  0
  4 78  1  0  0  0
  4 79  1  0  0  0
  5  6  1  0  0  0
  5 26  1  0  0  0
  5 80  1  0  0  0
  6 25  1  0  0  0
  6 81  1  0  0  0
  6 82  1  0  0  0
  7  8  2  0  0  0
  7 26  1  0  0  0
  7 29  1  0  0  0
  8  9  1  0  0  0
  8 22  1  0  0  0
  9 10  1  0  0  0
  9 27  2  0  0  0
 10 11  2  0  0  0
 10 15  1  0  0  0
 11 12  1  0  0  0
 11 83  1  0  0  0
 12 13  2  0  0  0
 12 84  1  0  0  0
 13 14  1  0  0  0
 13 31  1  0  0  0
 14 15  2  0  0  0
 14 85  1  0  0  0
 15 86  1  0  0  0
 16 17  2  0  0  0
 16 21  1  0  0  0
 16 31  1  0  0  0
 17 18  1  0  0  0
 17 87  1  0  0  0
 18 19  2  0  0  0
 18 88  1  0  0  0
 19 20  1  0  0  0
 19 24  1  0  0  0
 20 21  2  0  0  0
 20 89  1  0  0  0
 21 23  1  0  0  0
 22 28  1  0  0  0
 22 32  2  0  0  0
 26 27  1  0  0  0
 28 90  1  0  0  0
 28 91  1  0  0  0
 29 92  1  0  0  0
 29 93  1  0  0  0
 33 34  1  0  0  0
 33 66  1  0  0  0
 33 70  2  0  0  0
 34 36  1  0  0  0
 34 59  1  0  0  0
 34 94  1  0  0  0
 35 44  2  0  0  0
 35 45  1  0  0  0
 35 68  1  0  0  0
 36 56  1  0  0  0
 36 95  1  0  0  0
 37 39  1  0  0  0
 37 47  1  0  0  0
 37 66  1  0  0  0
 37 96  1  0  0  0
 38 43  2  0  0  0
 38 46  1  0  0  0
 38 47  1  0  0  0
 39 64  1  0  0  0
 39 67  2  0  0  0
 40 52  1  0  0  0
 40 53  2  0  0  0
 40 58  1  0  0  0
 41 97  1  0  0  0
 41 98  1  0  0  0
 41 99  1  0  0  0
 41 48  1  0  0  0
 42 43  1  0  0  0
 42 66  1  0  0  0
 42100  1  0  0  0
 42101  1  0  0  0
 43 44  1  0  0  0
 44102  1  0  0  0
 45 46  2  0  0  0
 45103  1  0  0  0
 46104  1  0  0  0
 47105  1  0  0  0
 47106  1  0  0  0
 48 56  1  0  0  0
 48 65  1  0  0  0
 48107  1  0  0  0
 49 50  1  0  0  0
 49 53  1  0  0  0
 49 64  1  0  0  0
 49108  1  0  0  0
 50 51  1  0  0  0
 50109  1  0  0  0
 50110  1  0  0  0
 51 52  1  0  0  0
 51111  1  0  0  0
 51112  1  0  0  0
 52113  1  0  0  0
 52114  1  0  0  0
 53 54  1  0  0  0
 54 55  2  0  0  0
 54115  1  0  0  0
 55 57  1  0  0  0
 55116  1  0  0  0
 56 69  2  0  0  0
 57 58  2  0  0  0
 57117  1  0  0  0
 58118  1  0  0  0
 59 60  1  0  0  0
 59 61  1  0  0  0
 59 62  1  0  0  0
 60119  1  0  0  0
 60120  1  0  0  0
 60121  1  0  0  0
 61122  1  0  0  0
 61123  1  0  0  0
 61124  1  0  0  0
 62125  1  0  0  0
 62126  1  0  0  0
 62127  1  0  0  0
 63 65  1  0  0  0
 63128  1  0  0  0
 63129  1  0  0  0
 63130  1  0  0  0
 64131  1  0  0  0
 65132  1  0  0  0
 68 72  1  0  0  0
 71 72  1  0  0  0
 71 73  1  0  0  0
 71133  1  0  0  0
 71134  1  0  0  0
 72135  1  0  0  0
 72136  1  0  0  0
 73137  1  0  0  0
M  ISO  4   1 100  68 101  72 101  73 100
M  END
> <chiral flag>
0

> <version>
0

> <s_m_source_file>
/data/baiqing/PycharmProjects/Reinvent-master-3.2/result/LINK_invent/BTK/process_docking_weight1_custom_product_contain_oxygen_bond_distance_aromatic_linkinvent_7_9_3/rearranged_h_0001.sdf

> <i_m_source_file_index>
59

> <r_mmod_Potential_Energy-OPLS-2005>
6948.9697265625

> <r_mmod_Stretch_Energy-OPLS-2005>
3136.46411132812

> <r_mmod_Bend_Energy-OPLS-2005>
1268.50207519531

> <r_mmod_Torsional_Energy-OPLS-2005>
217.324829101562

> <r_mmod_Improper_Torsional_Energy-OPLS-2005>
4.82364273071289

> <r_mmod_Van_der_Waal_Energy-OPLS-2005>
120.95548248291

> <r_mmod_Electrostatic_Energy-OPLS-2005>
-391.247985839844

> <r_mmod_Solvation_Energy-OPLS-2005>
-221.174652099609

> <b_mmod_Minimization_Converged-OPLS-2005>
1

> <r_mmod_RMS_Derivative-OPLS-2005>
0.042349461466074

$$$$
59
                    3D
 Structure written by MMmdl.
157165  0  0  1  0            999 V2000
  -30.8088  -14.4059   20.6146 C   0  0  0  0  0  0
  -30.4021  -12.2901   19.4311 C   0  0  0  0  0  0
  -29.4850  -12.4966   18.2122 C   0  0  0  0  0  0
  -28.0134  -12.3557   18.6339 C   0  0  0  0  0  0
  -27.6643  -13.2149   19.8788 C   0  0  2  0  0  0
  -28.7082  -13.0354   21.0088 C   0  0  0  0  0  0
  -25.2597  -13.8184   20.5697 C   0  0  0  0  0  0
  -24.1841  -13.0438   20.9175 C   0  0  0  0  0  0
  -24.6413  -11.6919   20.8752 C   0  0  0  0  0  0
  -23.9078  -10.4289   21.0412 C   0  0  0  0  0  0
  -24.3623   -9.4198   21.9192 C   0  0  0  0  0  0
  -23.6284   -8.2235   22.0762 C   0  0  0  0  0  0
  -22.4271   -8.0278   21.3544 C   0  0  0  0  0  0
  -21.9918   -9.0261   20.4646 C   0  0  0  0  0  0
  -22.7255  -10.2131   20.3054 C   0  0  0  0  0  0
  -21.6853   -6.0728   22.5271 C   0  0  0  0  0  0
  -21.4013   -6.5636   23.8206 C   0  0  0  0  0  0
  -21.3657   -5.6790   24.9169 C   0  0  0  0  0  0
  -21.6042   -4.3050   24.7227 C   0  0  0  0  0  0
  -21.8825   -3.8143   23.4350 C   0  0  0  0  0  0
  -21.9195   -4.6954   22.3398 C   0  0  0  0  0  0
  -22.7857  -13.5230   21.1813 C   0  0  0  0  0  0
  -22.1662   -4.2131   21.0976 F   0  0  0  0  0  0
  -21.5633   -3.4542   25.7745 F   0  0  0  0  0  0
  -30.0489  -13.2880   20.4552 N   0  0  0  0  0  0
  -26.3047  -12.9375   20.3419 N   0  0  0  0  0  0
  -25.9344  -11.6532   20.5821 N   0  0  0  0  0  0
  -22.0511  -12.8216   22.0374 N   0  0  0  0  0  0
  -25.4325  -15.1893   20.4098 N   0  0  0  0  0  0
  -31.8359  -14.5855   19.9581 O   0  0  0  0  0  0
  -21.6644   -6.8871   21.4229 O   0  0  0  0  0  0
  -22.3543  -14.5536   20.6666 O   0  0  0  0  0  0
  -24.6125  -31.8699   23.2146 C   0  0  0  0  0  0
  -25.9044  -32.4835   23.8409 C   0  0  1  0  0  0
  -27.2351  -27.4529   20.0909 C   0  0  0  0  0  0
  -25.5924  -33.8638   24.2353 N   0  0  0  0  0  0
  -23.3993  -30.4907   21.5545 C   0  0  2  0  0  0
  -24.8442  -28.9625   20.1136 C   0  0  0  0  0  0
  -22.7401  -29.4621   22.5021 C   0  0  0  0  0  0
  -18.0252  -28.1348   22.8484 C   0  0  0  0  0  0
  -24.1487  -36.7313   23.2642 C   0  0  0  0  0  0
  -25.9242  -30.8392   21.3642 C   0  0  0  0  0  0
  -26.0002  -29.4737   20.7143 C   0  0  0  0  0  0
  -27.1964  -28.7238   20.7032 C   0  0  0  0  0  0
  -26.0616  -26.9551   19.4762 C   0  0  0  0  0  0
  -24.8675  -27.7010   19.4942 C   0  0  0  0  0  0
  -23.6083  -29.8307   20.1647 C   0  0  0  0  0  0
  -25.4111  -36.3130   24.0340 C   0  0  1  0  0  0
  -20.5846  -28.3634   23.1327 C   0  0  2  0  0  0
  -20.6761  -26.9372   22.5413 C   0  0  0  0  0  0
  -19.5743  -26.6382   21.5197 C   0  0  0  0  0  0
  -18.1916  -26.7904   22.1596 C   0  0  0  0  0  0
  -19.1504  -28.8814   23.2895 C   0  0  0  0  0  0
  -18.9438  -30.1426   23.8897 C   0  0  0  0  0  0
  -17.6449  -30.6577   24.0540 C   0  0  0  0  0  0
  -25.9035  -34.9502   23.5141 C   0  0  0  0  0  0
  -16.5342  -29.9073   23.6306 C   0  0  0  0  0  0
  -16.7245  -28.6489   23.0322 C   0  0  0  0  0  0
  -26.4506  -31.6607   25.0714 C   0  0  0  0  0  0
  -25.3781  -31.3662   26.1460 C   0  0  0  0  0  0
  -27.0294  -30.3055   24.6012 C   0  0  0  0  0  0
  -27.6073  -32.4346   25.7488 C   0  0  0  0  0  0
  -27.5585  -37.1821   24.8467 C   0  0  0  0  0  0
  -21.4130  -29.3014   22.3773 N   0  0  0  0  0  0
  -26.4304  -37.3812   23.9406 N   0  0  0  0  0  0
  -24.6628  -31.0800   22.1051 N   0  0  0  0  0  0
  -23.4186  -28.8182   23.3059 O   0  0  0  0  0  0
  -28.4347  -26.7750   20.0987 O   0  0  0  0  0  0
  -26.5578  -34.8959   22.4688 O   0  0  0  0  0  0
  -23.5322  -32.1485   23.7553 O   0  0  0  0  0  0
  -33.1949  -17.7682   22.1885 C   0  0  0  0  0  0
  -32.4706  -18.9632   22.3344 C   0  0  0  0  0  0
  -32.5136  -16.5657   21.9320 C   0  0  0  0  0  0
  -30.3787  -17.7390   22.0107 C   0  0  0  0  0  0
  -31.0607  -18.9596   22.2375 C   0  0  0  0  0  0
  -31.1002  -16.5382   21.8138 C   0  0  0  0  0  0
  -30.3009  -20.2389   22.4257 C   0  0  0  0  0  0
  -29.7560  -23.3208   20.7806 C   0  0  0  0  0  0
  -29.3020  -24.7594   21.0662 C   0  0  0  0  0  0
  -30.4329  -22.6936   22.0083 C   0  0  0  0  0  0
  -28.4578  -25.3576   19.9337 C   0  0  0  0  0  0
  -30.3982  -15.3283   21.5080 N   0  0  0  0  0  0
  -30.8111  -21.3010   21.7882 N   0  0  0  0  0  0
  -29.2904  -20.2810   23.1282 O   0  0  0  0  0  0
  -31.4492  -12.3427   19.1267 H   0  0  0  0  0  0
  -30.2735  -11.2892   19.8429 H   0  0  0  0  0  0
  -29.7223  -11.7637   17.4391 H   0  0  0  0  0  0
  -29.6573  -13.4796   17.7713 H   0  0  0  0  0  0
  -27.8352  -11.3013   18.8513 H   0  0  0  0  0  0
  -27.3551  -12.6085   17.8013 H   0  0  0  0  0  0
  -27.7008  -14.2561   19.5594 H   0  0  0  0  0  0
  -28.6701  -12.0203   21.4053 H   0  0  0  0  0  0
  -28.4692  -13.6891   21.8474 H   0  0  0  0  0  0
  -25.2764   -9.5665   22.4775 H   0  0  0  0  0  0
  -23.9985   -7.4631   22.7492 H   0  0  0  0  0  0
  -21.0852   -8.8784   19.8954 H   0  0  0  0  0  0
  -22.3726  -10.9671   19.6162 H   0  0  0  0  0  0
  -21.2005   -7.6147   23.9694 H   0  0  0  0  0  0
  -21.1474   -6.0531   25.9069 H   0  0  0  0  0  0
  -22.0610   -2.7601   23.2862 H   0  0  0  0  0  0
  -22.4136  -11.9866   22.4733 H   0  0  0  0  0  0
  -21.1122  -13.1232   22.2580 H   0  0  0  0  0  0
  -24.6713  -15.8512   20.5138 H   0  0  0  0  0  0
  -26.2959  -15.6246   20.1073 H   0  0  0  0  0  0
  -26.7112  -32.5560   23.1163 H   0  0  0  0  0  0
  -25.0133  -33.9789   25.0534 H   0  0  0  0  0  0
  -22.6888  -31.3069   21.4189 H   0  0  0  0  0  0
  -23.3758  -35.9635   23.3307 H   0  0  0  0  0  0
  -24.3584  -36.8915   22.2057 H   0  0  0  0  0  0
  -23.7235  -37.6522   23.6636 H   0  0  0  0  0  0
  -26.0282  -31.6035   20.5933 H   0  0  0  0  0  0
  -26.8164  -30.8998   21.9741 H   0  0  0  0  0  0
  -28.0944  -29.1155   21.1639 H   0  0  0  0  0  0
  -26.0478  -26.0100   18.9534 H   0  0  0  0  0  0
  -23.9805  -27.3059   19.0175 H   0  0  0  0  0  0
  -23.7275  -30.6125   19.4138 H   0  0  0  0  0  0
  -22.7304  -29.2588   19.8588 H   0  0  0  0  0  0
  -25.1278  -36.2012   25.0829 H   0  0  0  0  0  0
  -20.9907  -28.3205   24.1450 H   0  0  0  0  0  0
  -20.5710  -26.2219   23.3596 H   0  0  0  0  0  0
  -21.6629  -26.7470   22.1162 H   0  0  0  0  0  0
  -19.6913  -25.6307   21.1191 H   0  0  0  0  0  0
  -19.6676  -27.3225   20.6754 H   0  0  0  0  0  0
  -17.4184  -26.6649   21.3987 H   0  0  0  0  0  0
  -18.0281  -26.0045   22.8979 H   0  0  0  0  0  0
  -19.7935  -30.7206   24.2287 H   0  0  0  0  0  0
  -17.5021  -31.6248   24.5165 H   0  0  0  0  0  0
  -15.5347  -30.2971   23.7671 H   0  0  0  0  0  0
  -15.8632  -28.0838   22.7018 H   0  0  0  0  0  0
  -24.5967  -30.6996   25.7798 H   0  0  0  0  0  0
  -24.8951  -32.2782   26.4972 H   0  0  0  0  0  0
  -25.8169  -30.8804   27.0177 H   0  0  0  0  0  0
  -26.2752  -29.6845   24.1156 H   0  0  0  0  0  0
  -27.4171  -29.7280   25.4412 H   0  0  0  0  0  0
  -27.8567  -30.4367   23.9034 H   0  0  0  0  0  0
  -27.2652  -33.3636   26.2066 H   0  0  0  0  0  0
  -28.3886  -32.6938   25.0327 H   0  0  0  0  0  0
  -28.0723  -31.8467   26.5408 H   0  0  0  0  0  0
  -28.2613  -38.0128   24.7538 H   0  0  0  0  0  0
  -28.1084  -36.2643   24.6265 H   0  0  0  0  0  0
  -27.2281  -37.1452   25.8877 H   0  0  0  0  0  0
  -20.9329  -29.8735   21.6973 H   0  0  0  0  0  0
  -26.0193  -38.2888   24.1422 H   0  0  0  0  0  0
  -34.2746  -17.7719   22.2683 H   0  0  0  0  0  0
  -33.0064  -19.8811   22.5395 H   0  0  0  0  0  0
  -33.1010  -15.6642   21.8178 H   0  0  0  0  0  0
  -29.2985  -17.7456   21.9511 H   0  0  0  0  0  0
  -30.4465  -23.3280   19.9353 H   0  0  0  0  0  0
  -28.9024  -22.7156   20.4745 H   0  0  0  0  0  0
  -30.1807  -25.3773   21.2504 H   0  0  0  0  0  0
  -28.7207  -24.7870   21.9893 H   0  0  0  0  0  0
  -29.7888  -22.7863   22.8842 H   0  0  0  0  0  0
  -31.3375  -23.2527   22.2464 H   0  0  0  0  0  0
  -27.4810  -24.8751   19.9710 H   0  0  0  0  0  0
  -28.9013  -25.1326   18.9626 H   0  0  0  0  0  0
  -29.4852  -15.1974   21.9148 H   0  0  0  0  0  0
  -31.5896  -21.1199   21.1674 H   0  0  0  0  0  0
  1 25  1  0  0  0
  1 30  2  0  0  0
  1 82  1  0  0  0
  2  3  1  0  0  0
  2 25  1  0  0  0
  2 85  1  0  0  0
  2 86  1  0  0  0
  3  4  1  0  0  0
  3 87  1  0  0  0
  3 88  1  0  0  0
  4  5  1  0  0  0
  4 89  1  0  0  0
  4 90  1  0  0  0
  5  6  1  0  0  0
  5 26  1  0  0  0
  5 91  1  0  0  0
  6 25  1  0  0  0
  6 92  1  0  0  0
  6 93  1  0  0  0
  7  8  2  0  0  0
  7 26  1  0  0  0
  7 29  1  0  0  0
  8  9  1  0  0  0
  8 22  1  0  0  0
  9 10  1  0  0  0
  9 27  2  0  0  0
 10 11  2  0  0  0
 10 15  1  0  0  0
 11 12  1  0  0  0
 11 94  1  0  0  0
 12 13  2  0  0  0
 12 95  1  0  0  0
 13 14  1  0  0  0
 13 31  1  0  0  0
 14 15  2  0  0  0
 14 96  1  0  0  0
 15 97  1  0  0  0
 16 17  2  0  0  0
 16 21  1  0  0  0
 16 31  1  0  0  0
 17 18  1  0  0  0
 17 98  1  0  0  0
 18 19  2  0  0  0
 18 99  1  0  0  0
 19 20  1  0  0  0
 19 24  1  0  0  0
 20 21  2  0  0  0
 20100  1  0  0  0
 21 23  1  0  0  0
 22 28  1  0  0  0
 22 32  2  0  0  0
 26 27  1  0  0  0
 28101  1  0  0  0
 28102  1  0  0  0
 29103  1  0  0  0
 29104  1  0  0  0
 33 34  1  0  0  0
 33 66  1  0  0  0
 33 70  2  0  0  0
 34 36  1  0  0  0
 34 59  1  0  0  0
 34105  1  0  0  0
 35 44  2  0  0  0
 35 45  1  0  0  0
 35 68  1  0  0  0
 36 56  1  0  0  0
 36106  1  0  0  0
 37 39  1  0  0  0
 37 47  1  0  0  0
 37 66  1  0  0  0
 37107  1  0  0  0
 38 43  2  0  0  0
 38 46  1  0  0  0
 38 47  1  0  0  0
 39 64  1  0  0  0
 39 67  2  0  0  0
 40 52  1  0  0  0
 40 53  2  0  0  0
 40 58  1  0  0  0
 41108  1  0  0  0
 41109  1  0  0  0
 41110  1  0  0  0
 41 48  1  0  0  0
 42 43  1  0  0  0
 42 66  1  0  0  0
 42111  1  0  0  0
 42112  1  0  0  0
 43 44  1  0  0  0
 44113  1  0  0  0
 45 46  2  0  0  0
 45114  1  0  0  0
 46115  1  0  0  0
 47116  1  0  0  0
 47117  1  0  0  0
 48 56  1  0  0  0
 48 65  1  0  0  0
 48118  1  0  0  0
 49 50  1  0  0  0
 49 53  1  0  0  0
 49 64  1  0  0  0
 49119  1  0  0  0
 50 51  1  0  0  0
 50120  1  0  0  0
 50121  1  0  0  0
 51 52  1  0  0  0
 51122  1  0  0  0
 51123  1  0  0  0
 52124  1  0  0  0
 52125  1  0  0  0
 53 54  1  0  0  0
 54 55  2  0  0  0
 54126  1  0  0  0
 55 57  1  0  0  0
 55127  1  0  0  0
 56 69  2  0  0  0
 57 58  2  0  0  0
 57128  1  0  0  0
 58129  1  0  0  0
 59 60  1  0  0  0
 59 61  1  0  0  0
 59 62  1  0  0  0
 60130  1  0  0  0
 60131  1  0  0  0
 60132  1  0  0  0
 61133  1  0  0  0
 61134  1  0  0  0
 61135  1  0  0  0
 62136  1  0  0  0
 62137  1  0  0  0
 62138  1  0  0  0
 63 65  1  0  0  0
 63139  1  0  0  0
 63140  1  0  0  0
 63141  1  0  0  0
 64142  1  0  0  0
 65143  1  0  0  0
 68 81  1  0  0  0
 71 72  2  0  0  0
 71 73  1  0  0  0
 71144  1  0  0  0
 72 75  1  0  0  0
 72145  1  0  0  0
 73 76  2  0  0  0
 73146  1  0  0  0
 74 75  2  0  0  0
 74 76  1  0  0  0
 74147  1  0  0  0
 75 77  1  0  0  0
 76 82  1  0  0  0
 77 83  1  0  0  0
 77 84  2  0  0  0
 78 79  1  0  0  0
 78 80  1  0  0  0
 78148  1  0  0  0
 78149  1  0  0  0
 79 81  1  0  0  0
 79150  1  0  0  0
 79151  1  0  0  0
 80 83  1  0  0  0
 80152  1  0  0  0
 80153  1  0  0  0
 81154  1  0  0  0
 81155  1  0  0  0
 82156  1  0  0  0
 83157  1  0  0  0
M  ISO  4   1 100  68 101  81 101  82 100
M  END
> <chiral flag>
0

> <version>
0

> <s_m_source_file>
/data/baiqing/PycharmProjects/Reinvent-master-3.2/result/LINK_invent/BTK/process_docking_weight1_custom_product_contain_oxygen_bond_distance_aromatic_linkinvent_7_9_3/rearranged_h_0001.sdf

> <i_m_source_file_index>
60

> <r_mmod_Potential_Energy-OPLS-2005>
-120.534523010254

> <r_mmod_Stretch_Energy-OPLS-2005>
34.2773170471191

> <r_mmod_Bend_Energy-OPLS-2005>
97.4316787719727

> <r_mmod_Torsional_Energy-OPLS-2005>
228.261764526367

> <r_mmod_Improper_Torsional_Energy-OPLS-2005>
1.94049167633057

> <r_mmod_Van_der_Waal_Energy-OPLS-2005>
166.155792236328

> <r_mmod_Electrostatic_Energy-OPLS-2005>
-432.180847167969

> <r_mmod_Solvation_Energy-OPLS-2005>
-228.631439208984

> <b_mmod_Minimization_Converged-OPLS-2005>
0

> <r_mmod_RMS_Derivative-OPLS-2005>
3.67431449890137

$$$$
60
                    3D
 Structure written by MMmdl.
146154  0  0  1  0            999 V2000
  -30.4831  -15.1826   20.3850 C   0  0  0  0  0  0
  -30.4364  -12.7514   19.5216 C   0  0  0  0  0  0
  -29.5297  -12.5600   18.2811 C   0  0  0  0  0  0
  -28.0767  -12.2956   18.7113 C   0  0  0  0  0  0
  -27.6147  -13.2687   19.8250 C   0  0  2  0  0  0
  -28.6507  -13.4188   20.9601 C   0  0  0  0  0  0
  -25.2399  -13.8238   20.5739 C   0  0  0  0  0  0
  -24.1746  -13.0434   20.9251 C   0  0  0  0  0  0
  -24.6394  -11.6928   20.8760 C   0  0  0  0  0  0
  -23.9088  -10.4287   21.0403 C   0  0  0  0  0  0
  -24.3634   -9.4200   21.9179 C   0  0  0  0  0  0
  -23.6301   -8.2238   22.0753 C   0  0  0  0  0  0
  -22.4283   -8.0276   21.3543 C   0  0  0  0  0  0
  -21.9920   -9.0252   20.4646 C   0  0  0  0  0  0
  -22.7258  -10.2127   20.3053 C   0  0  0  0  0  0
  -21.6855   -6.0733   22.5279 C   0  0  0  0  0  0
  -21.4019   -6.5641   23.8211 C   0  0  0  0  0  0
  -21.3660   -5.6795   24.9174 C   0  0  0  0  0  0
  -21.6041   -4.3057   24.7227 C   0  0  0  0  0  0
  -21.8817   -3.8147   23.4351 C   0  0  0  0  0  0
  -21.9192   -4.6960   22.3405 C   0  0  0  0  0  0
  -22.7762  -13.5180   21.1906 C   0  0  0  0  0  0
  -22.1659   -4.2145   21.0982 F   0  0  0  0  0  0
  -21.5626   -3.4543   25.7743 F   0  0  0  0  0  0
  -29.8955  -13.8944   20.3383 N   0  0  0  0  0  0
  -26.2827  -12.9506   20.3225 N   0  0  0  0  0  0
  -25.9330  -11.6617   20.5729 N   0  0  0  0  0  0
  -22.0434  -12.8156   22.0468 N   0  0  0  0  0  0
  -25.4030  -15.1972   20.4166 N   0  0  0  0  0  0
  -31.7004  -15.1794   20.1598 O   0  0  0  0  0  0
  -21.6644   -6.8877   21.4241 O   0  0  0  0  0  0
  -22.3433  -14.5479   20.6748 O   0  0  0  0  0  0
  -24.6595  -31.8293   23.1777 C   0  0  0  0  0  0
  -25.9302  -32.4617   23.8213 C   0  0  1  0  0  0
  -27.2077  -26.9694   20.1758 C   0  0  0  0  0  0
  -25.5986  -33.8431   24.2113 N   0  0  0  0  0  0
  -23.4718  -30.4468   21.5253 C   0  0  2  0  0  0
  -24.9249  -28.8501   20.1105 C   0  0  0  0  0  0
  -22.7648  -29.4474   22.4783 C   0  0  0  0  0  0
  -18.0318  -28.1413   22.8465 C   0  0  0  0  0  0
  -24.1486  -36.7224   23.2643 C   0  0  0  0  0  0
  -26.0405  -30.6471   21.4069 C   0  0  0  0  0  0
  -26.1074  -29.2417   20.7523 C   0  0  0  0  0  0
  -27.2449  -28.3188   20.7727 C   0  0  0  0  0  0
  -26.0065  -26.7420   19.4635 C   0  0  0  0  0  0
  -24.8962  -27.6167   19.4480 C   0  0  0  0  0  0
  -23.7112  -29.7741   20.1476 C   0  0  0  0  0  0
  -25.4121  -36.2980   24.0305 C   0  0  1  0  0  0
  -20.5943  -28.3754   23.1181 C   0  0  2  0  0  0
  -20.6794  -26.9437   22.5389 C   0  0  0  0  0  0
  -19.5765  -26.6380   21.5204 C   0  0  0  0  0  0
  -18.1947  -26.7947   22.1616 C   0  0  0  0  0  0
  -19.1583  -28.8901   23.2815 C   0  0  0  0  0  0
  -18.9501  -30.1489   23.8855 C   0  0  0  0  0  0
  -17.6499  -30.6604   24.0558 C   0  0  0  0  0  0
  -25.9091  -34.9365   23.5020 C   0  0  0  0  0  0
  -16.5386  -29.9097   23.6343 C   0  0  0  0  0  0
  -16.7303  -28.6515   23.0364 C   0  0  0  0  0  0
  -26.4565  -31.6552   25.0727 C   0  0  0  0  0  0
  -25.3701  -31.3798   26.1389 C   0  0  0  0  0  0
  -27.0468  -30.2922   24.6447 C   0  0  0  0  0  0
  -27.6053  -32.4368   25.7529 C   0  0  0  0  0  0
  -27.5574  -37.1748   24.8452 C   0  0  0  0  0  0
  -21.4321  -29.3063   22.3539 N   0  0  0  0  0  0
  -26.4261  -37.3721   23.9429 N   0  0  0  0  0  0
  -24.7447  -31.0001   22.0898 N   0  0  0  0  0  0
  -23.4217  -28.8013   23.2985 O   0  0  0  0  0  0
  -28.1630  -25.8308   20.2346 O   0  0  0  0  0  0
  -26.5689  -34.8894   22.4608 O   0  0  0  0  0  0
  -23.5675  -32.1244   23.6895 O   0  0  0  0  0  0
  -29.8014  -22.2551   20.1126 C   0  0  0  0  0  0
  -27.7067  -21.5018   20.6766 C   0  0  0  0  0  0
  -30.2544  -20.8368   20.1021 C   0  0  0  0  0  0
  -28.1551  -20.0870   20.6661 C   0  0  0  0  0  0
  -28.4622  -22.7321   20.4052 C   0  0  0  0  0  0
  -29.4901  -19.6151   20.3732 C   0  0  0  0  0  0
  -27.7066  -24.2627   20.4893 C   0  0  0  0  0  0
  -30.2005  -18.0291   20.3499 C   0  0  0  0  0  0
  -29.7497  -16.4539   20.4780 N   0  0  0  0  0  0
  -26.5263  -24.1554   20.8318 O   0  0  0  0  0  0
  -31.4609  -12.9350   19.1951 H   0  0  0  0  0  0
  -30.4786  -11.8370   20.1154 H   0  0  0  0  0  0
  -29.8952  -11.7377   17.6646 H   0  0  0  0  0  0
  -29.5696  -13.4545   17.6572 H   0  0  0  0  0  0
  -28.0282  -11.2707   19.0814 H   0  0  0  0  0  0
  -27.4057  -12.3428   17.8529 H   0  0  0  0  0  0
  -27.5392  -14.2404   19.3359 H   0  0  0  0  0  0
  -28.7975  -12.4799   21.4962 H   0  0  0  0  0  0
  -28.3053  -14.1472   21.6952 H   0  0  0  0  0  0
  -25.2779   -9.5672   22.4755 H   0  0  0  0  0  0
  -24.0006   -7.4631   22.7476 H   0  0  0  0  0  0
  -21.0849   -8.8773   19.8955 H   0  0  0  0  0  0
  -22.3713  -10.9664   19.6163 H   0  0  0  0  0  0
  -21.2018   -7.6150   23.9711 H   0  0  0  0  0  0
  -21.1482   -6.0531   25.9075 H   0  0  0  0  0  0
  -22.0595   -2.7608   23.2856 H   0  0  0  0  0  0
  -22.4085  -11.9828   22.4847 H   0  0  0  0  0  0
  -21.1045  -13.1146   22.2691 H   0  0  0  0  0  0
  -24.6299  -15.8451   20.5245 H   0  0  0  0  0  0
  -26.2422  -15.6392   20.0654 H   0  0  0  0  0  0
  -26.7370  -32.5169   23.0930 H   0  0  0  0  0  0
  -25.0111  -33.9521   25.0246 H   0  0  0  0  0  0
  -22.7829  -31.2782   21.3607 H   0  0  0  0  0  0
  -23.3765  -35.9534   23.3243 H   0  0  0  0  0  0
  -24.3568  -36.8932   22.2068 H   0  0  0  0  0  0
  -23.7225  -37.6390   23.6735 H   0  0  0  0  0  0
  -26.2190  -31.3894   20.6279 H   0  0  0  0  0  0
  -26.9023  -30.7017   22.0598 H   0  0  0  0  0  0
  -28.1357  -28.6103   21.3110 H   0  0  0  0  0  0
  -25.8847  -25.8058   18.9382 H   0  0  0  0  0  0
  -24.0019  -27.3133   18.9212 H   0  0  0  0  0  0
  -23.8695  -30.5487   19.3959 H   0  0  0  0  0  0
  -22.8201  -29.2331   19.8245 H   0  0  0  0  0  0
  -25.1307  -36.1767   25.0793 H   0  0  0  0  0  0
  -21.0042  -28.3363   24.1302 H   0  0  0  0  0  0
  -20.5658  -26.2381   23.3630 H   0  0  0  0  0  0
  -21.6658  -26.7400   22.1206 H   0  0  0  0  0  0
  -19.6919  -25.6273   21.1276 H   0  0  0  0  0  0
  -19.6706  -27.3154   20.6703 H   0  0  0  0  0  0
  -17.4210  -26.6690   21.4025 H   0  0  0  0  0  0
  -18.0346  -26.0099   22.9020 H   0  0  0  0  0  0
  -19.7980  -30.7311   24.2210 H   0  0  0  0  0  0
  -17.5057  -31.6281   24.5169 H   0  0  0  0  0  0
  -15.5390  -30.2997   23.7689 H   0  0  0  0  0  0
  -15.8698  -28.0824   22.7111 H   0  0  0  0  0  0
  -24.5880  -30.7149   25.7705 H   0  0  0  0  0  0
  -24.8894  -32.3003   26.4712 H   0  0  0  0  0  0
  -25.7937  -30.9029   27.0235 H   0  0  0  0  0  0
  -26.3137  -29.6598   24.1430 H   0  0  0  0  0  0
  -27.3987  -29.7284   25.5098 H   0  0  0  0  0  0
  -27.9078  -30.4113   23.9868 H   0  0  0  0  0  0
  -27.2610  -33.3706   26.1989 H   0  0  0  0  0  0
  -28.3927  -32.6883   25.0410 H   0  0  0  0  0  0
  -28.0655  -31.8584   26.5550 H   0  0  0  0  0  0
  -28.2521  -38.0113   24.7577 H   0  0  0  0  0  0
  -28.1140  -36.2646   24.6167 H   0  0  0  0  0  0
  -27.2306  -37.1253   25.8854 H   0  0  0  0  0  0
  -20.9554  -29.8806   21.6725 H   0  0  0  0  0  0
  -26.0105  -38.2761   24.1505 H   0  0  0  0  0  0
  -30.5420  -23.0092   19.8868 H   0  0  0  0  0  0
  -26.6633  -21.6376   20.9266 H   0  0  0  0  0  0
  -31.2993  -20.6883   19.8657 H   0  0  0  0  0  0
  -27.4154  -19.3357   20.9072 H   0  0  0  0  0  0
  -30.9792  -18.1106   21.1092 H   0  0  0  0  0  0
  -30.7611  -18.0352   19.4144 H   0  0  0  0  0  0
  -28.7586  -16.3279   20.6208 H   0  0  0  0  0  0
  1 25  1  0  0  0
  1 30  2  0  0  0
  1 79  1  0  0  0
  2  3  1  0  0  0
  2 25  1  0  0  0
  2 81  1  0  0  0
  2 82  1  0  0  0
  3  4  1  0  0  0
  3 83  1  0  0  0
  3 84  1  0  0  0
  4  5  1  0  0  0
  4 85  1  0  0  0
  4 86  1  0  0  0
  5  6  1  0  0  0
  5 26  1  0  0  0
  5 87  1  0  0  0
  6 25  1  0  0  0
  6 88  1  0  0  0
  6 89  1  0  0  0
  7  8  2  0  0  0
  7 26  1  0  0  0
  7 29  1  0  0  0
  8  9  1  0  0  0
  8 22  1  0  0  0
  9 10  1  0  0  0
  9 27  2  0  0  0
 10 11  2  0  0  0
 10 15  1  0  0  0
 11 12  1  0  0  0
 11 90  1  0  0  0
 12 13  2  0  0  0
 12 91  1  0  0  0
 13 14  1  0  0  0
 13 31  1  0  0  0
 14 15  2  0  0  0
 14 92  1  0  0  0
 15 93  1  0  0  0
 16 17  2  0  0  0
 16 21  1  0  0  0
 16 31  1  0  0  0
 17 18  1  0  0  0
 17 94  1  0  0  0
 18 19  2  0  0  0
 18 95  1  0  0  0
 19 20  1  0  0  0
 19 24  1  0  0  0
 20 21  2  0  0  0
 20 96  1  0  0  0
 21 23  1  0  0  0
 22 28  1  0  0  0
 22 32  2  0  0  0
 26 27  1  0  0  0
 28 97  1  0  0  0
 28 98  1  0  0  0
 29 99  1  0  0  0
 29100  1  0  0  0
 33 34  1  0  0  0
 33 66  1  0  0  0
 33 70  2  0  0  0
 34 36  1  0  0  0
 34 59  1  0  0  0
 34101  1  0  0  0
 35 44  2  0  0  0
 35 45  1  0  0  0
 35 68  1  0  0  0
 36 56  1  0  0  0
 36102  1  0  0  0
 37 39  1  0  0  0
 37 47  1  0  0  0
 37 66  1  0  0  0
 37103  1  0  0  0
 38 43  2  0  0  0
 38 46  1  0  0  0
 38 47  1  0  0  0
 39 64  1  0  0  0
 39 67  2  0  0  0
 40 52  1  0  0  0
 40 53  2  0  0  0
 40 58  1  0  0  0
 41104  1  0  0  0
 41105  1  0  0  0
 41106  1  0  0  0
 41 48  1  0  0  0
 42 43  1  0  0  0
 42 66  1  0  0  0
 42107  1  0  0  0
 42108  1  0  0  0
 43 44  1  0  0  0
 44109  1  0  0  0
 45 46  2  0  0  0
 45110  1  0  0  0
 46111  1  0  0  0
 47112  1  0  0  0
 47113  1  0  0  0
 48 56  1  0  0  0
 48 65  1  0  0  0
 48114  1  0  0  0
 49 50  1  0  0  0
 49 53  1  0  0  0
 49 64  1  0  0  0
 49115  1  0  0  0
 50 51  1  0  0  0
 50116  1  0  0  0
 50117  1  0  0  0
 51 52  1  0  0  0
 51118  1  0  0  0
 51119  1  0  0  0
 52120  1  0  0  0
 52121  1  0  0  0
 53 54  1  0  0  0
 54 55  2  0  0  0
 54122  1  0  0  0
 55 57  1  0  0  0
 55123  1  0  0  0
 56 69  2  0  0  0
 57 58  2  0  0  0
 57124  1  0  0  0
 58125  1  0  0  0
 59 60  1  0  0  0
 59 61  1  0  0  0
 59 62  1  0  0  0
 60126  1  0  0  0
 60127  1  0  0  0
 60128  1  0  0  0
 61129  1  0  0  0
 61130  1  0  0  0
 61131  1  0  0  0
 62132  1  0  0  0
 62133  1  0  0  0
 62134  1  0  0  0
 63 65  1  0  0  0
 63135  1  0  0  0
 63136  1  0  0  0
 63137  1  0  0  0
 64138  1  0  0  0
 65139  1  0  0  0
 68 77  1  0  0  0
 71 73  2  0  0  0
 71 75  1  0  0  0
 71140  1  0  0  0
 72 74  1  0  0  0
 72 75  2  0  0  0
 72141  1  0  0  0
 73 76  1  0  0  0
 73142  1  0  0  0
 74 76  2  0  0  0
 74143  1  0  0  0
 75 77  1  0  0  0
 76 78  1  0  0  0
 77 80  2  0  0  0
 78 79  1  0  0  0
 78144  1  0  0  0
 78145  1  0  0  0
 79146  1  0  0  0
M  ISO  4   1 100  68 101  77 101  79 100
M  END
> <chiral flag>
0

> <version>
0

> <s_m_source_file>
/data/baiqing/PycharmProjects/Reinvent-master-3.2/result/LINK_invent/BTK/process_docking_weight1_custom_product_contain_oxygen_bond_distance_aromatic_linkinvent_7_9_3/rearranged_h_0001.sdf

> <i_m_source_file_index>
61

> <r_mmod_Potential_Energy-OPLS-2005>
1085.07116699219

> <r_mmod_Stretch_Energy-OPLS-2005>
486.674896240234

> <r_mmod_Bend_Energy-OPLS-2005>
437.386505126953

> <r_mmod_Torsional_Energy-OPLS-2005>
199.433502197266

> <r_mmod_Improper_Torsional_Energy-OPLS-2005>
4.08563709259033

> <r_mmod_Van_der_Waal_Energy-OPLS-2005>
136.574249267578

> <r_mmod_Electrostatic_Energy-OPLS-2005>
-357.084655761719

> <r_mmod_Solvation_Energy-OPLS-2005>
-217.116302490234

> <b_mmod_Minimization_Converged-OPLS-2005>
0

> <r_mmod_RMS_Derivative-OPLS-2005>
0.776556968688965

$$$$
61
                    3D
 Structure written by MMmdl.
154162  0  0  1  0            999 V2000
  -30.6755  -14.4856   20.5768 C   0  0  0  0  0  0
  -30.4342  -12.3171   19.4176 C   0  0  0  0  0  0
  -29.4979  -12.5126   18.2056 C   0  0  0  0  0  0
  -28.0186  -12.3671   18.6170 C   0  0  0  0  0  0
  -27.6648  -13.1978   19.8787 C   0  0  2  0  0  0
  -28.7076  -12.9625   20.9954 C   0  0  0  0  0  0
  -25.2602  -13.8130   20.5673 C   0  0  0  0  0  0
  -24.1842  -13.0423   20.9167 C   0  0  0  0  0  0
  -24.6385  -11.6887   20.8730 C   0  0  0  0  0  0
  -23.9043  -10.4283   21.0398 C   0  0  0  0  0  0
  -24.3599   -9.4204   21.9179 C   0  0  0  0  0  0
  -23.6282   -8.2238   22.0750 C   0  0  0  0  0  0
  -22.4265   -8.0274   21.3540 C   0  0  0  0  0  0
  -21.9891   -9.0244   20.4642 C   0  0  0  0  0  0
  -22.7215  -10.2127   20.3049 C   0  0  0  0  0  0
  -21.6847   -6.0734   22.5281 C   0  0  0  0  0  0
  -21.4010   -6.5638   23.8215 C   0  0  0  0  0  0
  -21.3657   -5.6790   24.9177 C   0  0  0  0  0  0
  -21.6046   -4.3054   24.7227 C   0  0  0  0  0  0
  -21.8819   -3.8146   23.4348 C   0  0  0  0  0  0
  -21.9189   -4.6963   22.3404 C   0  0  0  0  0  0
  -22.7867  -13.5235   21.1838 C   0  0  0  0  0  0
  -22.1658   -4.2149   21.0981 F   0  0  0  0  0  0
  -21.5629   -3.4536   25.7739 F   0  0  0  0  0  0
  -30.0402  -13.2864   20.4518 N   0  0  0  0  0  0
  -26.3039  -12.9284   20.3378 N   0  0  0  0  0  0
  -25.9314  -11.6454   20.5768 N   0  0  0  0  0  0
  -22.0499  -12.8240   22.0398 N   0  0  0  0  0  0
  -25.4309  -15.1846   20.4077 N   0  0  0  0  0  0
  -31.7868  -14.7150   20.0889 O   0  0  0  0  0  0
  -21.6629   -6.8873   21.4241 O   0  0  0  0  0  0
  -22.3561  -14.5548   20.6692 O   0  0  0  0  0  0
  -24.6151  -31.8672   23.2098 C   0  0  0  0  0  0
  -25.9041  -32.4819   23.8398 C   0  0  1  0  0  0
  -27.2388  -27.4345   20.0997 C   0  0  0  0  0  0
  -25.5895  -33.8618   24.2330 N   0  0  0  0  0  0
  -23.4050  -30.4890   21.5488 C   0  0  2  0  0  0
  -24.8559  -28.9546   20.1136 C   0  0  0  0  0  0
  -22.7418  -29.4648   22.4978 C   0  0  0  0  0  0
  -18.0273  -28.1376   22.8491 C   0  0  0  0  0  0
  -24.1485  -36.7316   23.2637 C   0  0  0  0  0  0
  -25.9338  -30.8323   21.3646 C   0  0  0  0  0  0
  -26.0148  -29.4661   20.7128 C   0  0  0  0  0  0
  -27.2123  -28.7122   20.7056 C   0  0  0  0  0  0
  -26.0685  -26.9379   19.4924 C   0  0  0  0  0  0
  -24.8772  -27.6891   19.5001 C   0  0  0  0  0  0
  -23.6163  -29.8202   20.1638 C   0  0  0  0  0  0
  -25.4103  -36.3112   24.0340 C   0  0  1  0  0  0
  -20.5865  -28.3664   23.1313 C   0  0  2  0  0  0
  -20.6760  -26.9399   22.5417 C   0  0  0  0  0  0
  -19.5740  -26.6384   21.5212 C   0  0  0  0  0  0
  -18.1920  -26.7923   22.1622 C   0  0  0  0  0  0
  -19.1523  -28.8836   23.2899 C   0  0  0  0  0  0
  -18.9451  -30.1442   23.8910 C   0  0  0  0  0  0
  -17.6454  -30.6584   24.0563 C   0  0  0  0  0  0
  -25.9033  -34.9476   23.5134 C   0  0  0  0  0  0
  -16.5344  -29.9087   23.6323 C   0  0  0  0  0  0
  -16.7261  -28.6501   23.0347 C   0  0  0  0  0  0
  -26.4474  -31.6595   25.0723 C   0  0  0  0  0  0
  -25.3747  -31.3694   26.1476 C   0  0  0  0  0  0
  -27.0307  -30.3037   24.6097 C   0  0  0  0  0  0
  -27.6053  -32.4313   25.7484 C   0  0  0  0  0  0
  -27.5587  -37.1801   24.8456 C   0  0  0  0  0  0
  -21.4145  -29.3031   22.3720 N   0  0  0  0  0  0
  -26.4285  -37.3801   23.9423 N   0  0  0  0  0  0
  -24.6693  -31.0768   22.0998 N   0  0  0  0  0  0
  -23.4184  -28.8193   23.3028 O   0  0  0  0  0  0
  -28.3688  -26.6472   20.1027 O   0  0  0  0  0  0
  -26.5596  -34.8928   22.4695 O   0  0  0  0  0  0
  -23.5340  -32.1421   23.7489 O   0  0  0  0  0  0
  -28.8313  -17.2028   19.9449 C   0  0  0  0  0  0
  -30.6632  -17.8086   21.4193 C   0  0  0  0  0  0
  -28.6050  -18.5670   19.6701 C   0  0  0  0  0  0
  -30.4286  -19.1810   21.1450 C   0  0  0  0  0  0
  -29.8580  -16.8071   20.8280 C   0  0  0  0  0  0
  -29.3791  -19.5781   20.2763 C   0  0  0  0  0  0
  -28.8315  -23.2801   20.3855 C   0  0  0  0  0  0
  -29.3915  -24.5523   21.0758 C   0  0  0  0  0  0
  -29.6401  -21.9813   20.6659 C   0  0  0  0  0  0
  -28.4049  -25.7441   21.2175 C   0  0  0  0  0  0
  -29.9575  -15.4355   21.2065 N   0  0  0  0  0  0
  -29.0320  -20.8859   19.9737 O   0  0  0  0  0  0
  -31.4757  -12.4372   19.1133 H   0  0  0  0  0  0
  -30.3545  -11.3010   19.8065 H   0  0  0  0  0  0
  -29.7398  -11.7918   17.4231 H   0  0  0  0  0  0
  -29.6606  -13.5003   17.7710 H   0  0  0  0  0  0
  -27.8282  -11.3100   18.8058 H   0  0  0  0  0  0
  -27.3681  -12.6487   17.7880 H   0  0  0  0  0  0
  -27.7112  -14.2455   19.5883 H   0  0  0  0  0  0
  -28.6895  -11.9185   21.3125 H   0  0  0  0  0  0
  -28.4599  -13.5349   21.8901 H   0  0  0  0  0  0
  -25.2743   -9.5684   22.4755 H   0  0  0  0  0  0
  -23.9992   -7.4627   22.7466 H   0  0  0  0  0  0
  -21.0821   -8.8758   19.8950 H   0  0  0  0  0  0
  -22.3669  -10.9663   19.6158 H   0  0  0  0  0  0
  -21.2003   -7.6145   23.9723 H   0  0  0  0  0  0
  -21.1479   -6.0517   25.9082 H   0  0  0  0  0  0
  -22.0603   -2.7608   23.2846 H   0  0  0  0  0  0
  -22.4096  -11.9892   22.4784 H   0  0  0  0  0  0
  -21.1127  -13.1289   22.2612 H   0  0  0  0  0  0
  -24.6616  -15.8368   20.5163 H   0  0  0  0  0  0
  -26.2840  -15.6286   20.0960 H   0  0  0  0  0  0
  -26.7115  -32.5537   23.1169 H   0  0  0  0  0  0
  -25.0047  -33.9783   25.0475 H   0  0  0  0  0  0
  -22.6937  -31.3056   21.4079 H   0  0  0  0  0  0
  -23.3751  -35.9643   23.3285 H   0  0  0  0  0  0
  -24.3588  -36.8946   22.2055 H   0  0  0  0  0  0
  -23.7226  -37.6513   23.6658 H   0  0  0  0  0  0
  -26.0464  -31.5983   20.5961 H   0  0  0  0  0  0
  -26.8208  -30.8871   21.9834 H   0  0  0  0  0  0
  -28.1067  -29.0996   21.1735 H   0  0  0  0  0  0
  -26.0792  -25.9628   19.0255 H   0  0  0  0  0  0
  -23.9870  -27.2886   19.0350 H   0  0  0  0  0  0
  -23.7247  -30.5947   19.4035 H   0  0  0  0  0  0
  -22.7412  -29.2391   19.8674 H   0  0  0  0  0  0
  -25.1275  -36.1974   25.0832 H   0  0  0  0  0  0
  -20.9956  -28.3229   24.1433 H   0  0  0  0  0  0
  -20.5657  -26.2274   23.3606 H   0  0  0  0  0  0
  -21.6632  -26.7437   22.1211 H   0  0  0  0  0  0
  -19.6901  -25.6298   21.1232 H   0  0  0  0  0  0
  -19.6681  -27.3200   20.6748 H   0  0  0  0  0  0
  -17.4190  -26.6672   21.4024 H   0  0  0  0  0  0
  -18.0320  -26.0061   22.9015 H   0  0  0  0  0  0
  -19.7929  -30.7252   24.2285 H   0  0  0  0  0  0
  -17.5012  -31.6266   24.5161 H   0  0  0  0  0  0
  -15.5346  -30.2994   23.7641 H   0  0  0  0  0  0
  -15.8659  -28.0827   22.7054 H   0  0  0  0  0  0
  -24.5910  -30.7058   25.7810 H   0  0  0  0  0  0
  -24.8955  -32.2848   26.4957 H   0  0  0  0  0  0
  -25.8108  -30.8834   27.0214 H   0  0  0  0  0  0
  -26.2851  -29.6793   24.1161 H   0  0  0  0  0  0
  -27.4090  -29.7277   25.4554 H   0  0  0  0  0  0
  -27.8680  -30.4358   23.9241 H   0  0  0  0  0  0
  -27.2673  -33.3596   26.2100 H   0  0  0  0  0  0
  -28.3841  -32.6899   25.0298 H   0  0  0  0  0  0
  -28.0745  -31.8413   26.5367 H   0  0  0  0  0  0
  -28.2574  -38.0131   24.7559 H   0  0  0  0  0  0
  -28.1116  -36.2668   24.6205 H   0  0  0  0  0  0
  -27.2318  -37.1356   25.8860 H   0  0  0  0  0  0
  -20.9305  -29.8761   21.6948 H   0  0  0  0  0  0
  -26.0173  -38.2872   24.1458 H   0  0  0  0  0  0
  -28.1911  -16.4684   19.4806 H   0  0  0  0  0  0
  -31.4452  -17.5332   22.1133 H   0  0  0  0  0  0
  -27.8028  -18.8432   19.0003 H   0  0  0  0  0  0
  -31.0561  -19.9164   21.6268 H   0  0  0  0  0  0
  -28.7664  -23.4536   19.3107 H   0  0  0  0  0  0
  -27.8085  -23.1144   20.7249 H   0  0  0  0  0  0
  -30.3134  -24.8783   20.5932 H   0  0  0  0  0  0
  -29.6789  -24.2650   22.0882 H   0  0  0  0  0  0
  -29.6517  -21.7891   21.7399 H   0  0  0  0  0  0
  -30.6738  -22.0941   20.3368 H   0  0  0  0  0  0
  -28.7055  -26.3349   22.0844 H   0  0  0  0  0  0
  -27.4089  -25.3630   21.4531 H   0  0  0  0  0  0
  -29.1125  -15.0532   21.6036 H   0  0  0  0  0  0
  1 25  1  0  0  0
  1 30  2  0  0  0
  1 81  1  0  0  0
  2  3  1  0  0  0
  2 25  1  0  0  0
  2 83  1  0  0  0
  2 84  1  0  0  0
  3  4  1  0  0  0
  3 85  1  0  0  0
  3 86  1  0  0  0
  4  5  1  0  0  0
  4 87  1  0  0  0
  4 88  1  0  0  0
  5  6  1  0  0  0
  5 26  1  0  0  0
  5 89  1  0  0  0
  6 25  1  0  0  0
  6 90  1  0  0  0
  6 91  1  0  0  0
  7  8  2  0  0  0
  7 26  1  0  0  0
  7 29  1  0  0  0
  8  9  1  0  0  0
  8 22  1  0  0  0
  9 10  1  0  0  0
  9 27  2  0  0  0
 10 11  2  0  0  0
 10 15  1  0  0  0
 11 12  1  0  0  0
 11 92  1  0  0  0
 12 13  2  0  0  0
 12 93  1  0  0  0
 13 14  1  0  0  0
 13 31  1  0  0  0
 14 15  2  0  0  0
 14 94  1  0  0  0
 15 95  1  0  0  0
 16 17  2  0  0  0
 16 21  1  0  0  0
 16 31  1  0  0  0
 17 18  1  0  0  0
 17 96  1  0  0  0
 18 19  2  0  0  0
 18 97  1  0  0  0
 19 20  1  0  0  0
 19 24  1  0  0  0
 20 21  2  0  0  0
 20 98  1  0  0  0
 21 23  1  0  0  0
 22 28  1  0  0  0
 22 32  2  0  0  0
 26 27  1  0  0  0
 28 99  1  0  0  0
 28100  1  0  0  0
 29101  1  0  0  0
 29102  1  0  0  0
 33 34  1  0  0  0
 33 66  1  0  0  0
 33 70  2  0  0  0
 34 36  1  0  0  0
 34 59  1  0  0  0
 34103  1  0  0  0
 35 44  2  0  0  0
 35 45  1  0  0  0
 35 68  1  0  0  0
 36 56  1  0  0  0
 36104  1  0  0  0
 37 39  1  0  0  0
 37 47  1  0  0  0
 37 66  1  0  0  0
 37105  1  0  0  0
 38 43  2  0  0  0
 38 46  1  0  0  0
 38 47  1  0  0  0
 39 64  1  0  0  0
 39 67  2  0  0  0
 40 52  1  0  0  0
 40 53  2  0  0  0
 40 58  1  0  0  0
 41106  1  0  0  0
 41107  1  0  0  0
 41108  1  0  0  0
 41 48  1  0  0  0
 42 43  1  0  0  0
 42 66  1  0  0  0
 42109  1  0  0  0
 42110  1  0  0  0
 43 44  1  0  0  0
 44111  1  0  0  0
 45 46  2  0  0  0
 45112  1  0  0  0
 46113  1  0  0  0
 47114  1  0  0  0
 47115  1  0  0  0
 48 56  1  0  0  0
 48 65  1  0  0  0
 48116  1  0  0  0
 49 50  1  0  0  0
 49 53  1  0  0  0
 49 64  1  0  0  0
 49117  1  0  0  0
 50 51  1  0  0  0
 50118  1  0  0  0
 50119  1  0  0  0
 51 52  1  0  0  0
 51120  1  0  0  0
 51121  1  0  0  0
 52122  1  0  0  0
 52123  1  0  0  0
 53 54  1  0  0  0
 54 55  2  0  0  0
 54124  1  0  0  0
 55 57  1  0  0  0
 55125  1  0  0  0
 56 69  2  0  0  0
 57 58  2  0  0  0
 57126  1  0  0  0
 58127  1  0  0  0
 59 60  1  0  0  0
 59 61  1  0  0  0
 59 62  1  0  0  0
 60128  1  0  0  0
 60129  1  0  0  0
 60130  1  0  0  0
 61131  1  0  0  0
 61132  1  0  0  0
 61133  1  0  0  0
 62134  1  0  0  0
 62135  1  0  0  0
 62136  1  0  0  0
 63 65  1  0  0  0
 63137  1  0  0  0
 63138  1  0  0  0
 63139  1  0  0  0
 64140  1  0  0  0
 65141  1  0  0  0
 68 80  1  0  0  0
 71 73  2  0  0  0
 71 75  1  0  0  0
 71142  1  0  0  0
 72 74  1  0  0  0
 72 75  2  0  0  0
 72143  1  0  0  0
 73 76  1  0  0  0
 73144  1  0  0  0
 74 76  2  0  0  0
 74145  1  0  0  0
 75 81  1  0  0  0
 76 82  1  0  0  0
 77 78  1  0  0  0
 77 79  1  0  0  0
 77146  1  0  0  0
 77147  1  0  0  0
 78 80  1  0  0  0
 78148  1  0  0  0
 78149  1  0  0  0
 79 82  1  0  0  0
 79150  1  0  0  0
 79151  1  0  0  0
 80152  1  0  0  0
 80153  1  0  0  0
 81154  1  0  0  0
M  ISO  4   1 100  68 101  80 101  81 100
M  END
> <chiral flag>
0

> <version>
0

> <s_m_source_file>
/data/baiqing/PycharmProjects/Reinvent-master-3.2/result/LINK_invent/BTK/process_docking_weight1_custom_product_contain_oxygen_bond_distance_aromatic_linkinvent_7_9_3/rearranged_h_0001.sdf

> <i_m_source_file_index>
62

> <r_mmod_Potential_Energy-OPLS-2005>
-26.1432418823242

> <r_mmod_Stretch_Energy-OPLS-2005>
38.0520858764648

> <r_mmod_Bend_Energy-OPLS-2005>
103.493583679199

> <r_mmod_Torsional_Energy-OPLS-2005>
269.066009521484

> <r_mmod_Improper_Torsional_Energy-OPLS-2005>
5.56116437911987

> <r_mmod_Van_der_Waal_Energy-OPLS-2005>
142.235061645508

> <r_mmod_Electrostatic_Energy-OPLS-2005>
-386.073486328125

> <r_mmod_Solvation_Energy-OPLS-2005>
-212.002868652344

> <b_mmod_Minimization_Converged-OPLS-2005>
0

> <r_mmod_RMS_Derivative-OPLS-2005>
0.609314560890198

$$$$
62
                    3D
 Structure written by MMmdl.
162171  0  0  1  0            999 V2000
  -30.6978  -14.4581   20.4859 C   0  0  0  0  0  0
  -30.4145  -12.2717   19.4298 C   0  0  0  0  0  0
  -29.4899  -12.4742   18.2101 C   0  0  0  0  0  0
  -28.0079  -12.3514   18.6177 C   0  0  0  0  0  0
  -27.6548  -13.2004   19.8678 C   0  0  2  0  0  0
  -28.7003  -13.0133   20.9919 C   0  0  0  0  0  0
  -25.2580  -13.8189   20.5693 C   0  0  0  0  0  0
  -24.1812  -13.0481   20.9174 C   0  0  0  0  0  0
  -24.6348  -11.6932   20.8731 C   0  0  0  0  0  0
  -23.9010  -10.4331   21.0407 C   0  0  0  0  0  0
  -24.3591   -9.4246   21.9169 C   0  0  0  0  0  0
  -23.6289   -8.2264   22.0728 C   0  0  0  0  0  0
  -22.4264   -8.0299   21.3512 C   0  0  0  0  0  0
  -21.9889   -9.0273   20.4607 C   0  0  0  0  0  0
  -22.7203  -10.2161   20.3027 C   0  0  0  0  0  0
  -21.6836   -6.0732   22.5245 C   0  0  0  0  0  0
  -21.4018   -6.5625   23.8182 C   0  0  0  0  0  0
  -21.3677   -5.6772   24.9133 C   0  0  0  0  0  0
  -21.6062   -4.3036   24.7173 C   0  0  0  0  0  0
  -21.8823   -3.8131   23.4283 C   0  0  0  0  0  0
  -21.9206   -4.6964   22.3351 C   0  0  0  0  0  0
  -22.7844  -13.5306   21.1861 C   0  0  0  0  0  0
  -22.1684   -4.2153   21.0925 F   0  0  0  0  0  0
  -21.5629   -3.4516   25.7685 F   0  0  0  0  0  0
  -30.0315  -13.2787   20.4255 N   0  0  0  0  0  0
  -26.2984  -12.9311   20.3362 N   0  0  0  0  0  0
  -25.9274  -11.6476   20.5765 N   0  0  0  0  0  0
  -22.0481  -12.8285   22.0402 N   0  0  0  0  0  0
  -25.4365  -15.1904   20.4103 N   0  0  0  0  0  0
  -31.8859  -14.5898   20.1916 O   0  0  0  0  0  0
  -21.6628   -6.8888   21.4214 O   0  0  0  0  0  0
  -22.3544  -14.5632   20.6744 O   0  0  0  0  0  0
  -24.6117  -31.8727   23.2124 C   0  0  0  0  0  0
  -25.9033  -32.4838   23.8421 C   0  0  1  0  0  0
  -27.2306  -27.4815   20.0730 C   0  0  0  0  0  0
  -25.5914  -33.8631   24.2332 N   0  0  0  0  0  0
  -23.3971  -30.4984   21.5519 C   0  0  2  0  0  0
  -24.8444  -28.9766   20.1033 C   0  0  0  0  0  0
  -22.7398  -29.4687   22.4985 C   0  0  0  0  0  0
  -18.0303  -28.1346   22.8519 C   0  0  0  0  0  0
  -24.1489  -36.7307   23.2639 C   0  0  0  0  0  0
  -25.9219  -30.8539   21.3591 C   0  0  0  0  0  0
  -26.0029  -29.4948   20.6989 C   0  0  0  0  0  0
  -27.2045  -28.7571   20.6777 C   0  0  0  0  0  0
  -26.0648  -26.9780   19.4580 C   0  0  0  0  0  0
  -24.8689  -27.7181   19.4813 C   0  0  0  0  0  0
  -23.6011  -29.8342   20.1630 C   0  0  0  0  0  0
  -25.4108  -36.3114   24.0343 C   0  0  1  0  0  0
  -20.5884  -28.3689   23.1360 C   0  0  2  0  0  0
  -20.6828  -26.9399   22.5538 C   0  0  0  0  0  0
  -19.5829  -26.6328   21.5330 C   0  0  0  0  0  0
  -18.1983  -26.7866   22.1699 C   0  0  0  0  0  0
  -19.1536  -28.8843   23.2914 C   0  0  0  0  0  0
  -18.9455  -30.1465   23.8880 C   0  0  0  0  0  0
  -17.6452  -30.6595   24.0509 C   0  0  0  0  0  0
  -25.9035  -34.9484   23.5126 C   0  0  0  0  0  0
  -16.5349  -29.9080   23.6280 C   0  0  0  0  0  0
  -16.7286  -28.6474   23.0354 C   0  0  0  0  0  0
  -26.4467  -31.6603   25.0716 C   0  0  0  0  0  0
  -25.3735  -31.3734   26.1458 C   0  0  0  0  0  0
  -27.0261  -30.3039   24.6065 C   0  0  0  0  0  0
  -27.6055  -32.4308   25.7463 C   0  0  0  0  0  0
  -27.5584  -37.1808   24.8460 C   0  0  0  0  0  0
  -21.4133  -29.3053   22.3739 N   0  0  0  0  0  0
  -26.4284  -37.3802   23.9415 N   0  0  0  0  0  0
  -24.6624  -31.0857   22.1012 N   0  0  0  0  0  0
  -23.4204  -28.8201   23.2980 O   0  0  0  0  0  0
  -28.3573  -26.6895   20.1265 O   0  0  0  0  0  0
  -26.5583  -34.8933   22.4678 O   0  0  0  0  0  0
  -23.5314  -32.1488   23.7523 O   0  0  0  0  0  0
  -24.2406  -24.4420   23.1124 C   0  0  0  0  0  0
  -24.5555  -23.1400   23.5387 C   0  0  0  0  0  0
  -28.0716  -18.4568   21.6236 C   0  0  0  0  0  0
  -28.8444  -17.1400   23.5188 C   0  0  0  0  0  0
  -25.2504  -25.2690   22.5928 C   0  0  0  0  0  0
  -28.6526  -17.5208   20.7481 C   0  0  0  0  0  0
  -29.4252  -16.1976   22.6470 C   0  0  0  0  0  0
  -26.8882  -23.4724   22.8857 C   0  0  0  0  0  0
  -25.8762  -22.6436   23.4366 C   0  0  0  0  0  0
  -28.1717  -18.2772   23.0191 C   0  0  0  0  0  0
  -29.3324  -16.3910   21.2499 C   0  0  0  0  0  0
  -26.5704  -24.7896   22.4735 C   0  0  0  0  0  0
  -26.1777  -21.2978   24.0370 C   0  0  0  0  0  0
  -28.3590  -25.5593   20.9172 C   0  0  0  0  0  0
  -27.5401  -19.2510   24.0085 C   0  0  0  0  0  0
  -29.9018  -15.5185   20.2927 N   0  0  0  0  0  0
  -27.5363  -25.7198   22.0282 N   0  0  0  0  0  0
  -27.1277  -20.5467   23.4633 N   0  0  0  0  0  0
  -25.5298  -20.9096   25.0119 O   0  0  0  0  0  0
  -29.0774  -24.5850   20.6881 O   0  0  0  0  0  0
  -31.4597  -12.3572   19.1289 H   0  0  0  0  0  0
  -30.2965  -11.2711   19.8491 H   0  0  0  0  0  0
  -29.7249  -11.7395   17.4399 H   0  0  0  0  0  0
  -29.6665  -13.4525   17.7577 H   0  0  0  0  0  0
  -27.8093  -11.2983   18.8205 H   0  0  0  0  0  0
  -27.3621  -12.6287   17.7828 H   0  0  0  0  0  0
  -27.6812  -14.2414   19.5492 H   0  0  0  0  0  0
  -28.6610  -11.9972   21.3901 H   0  0  0  0  0  0
  -28.4819  -13.6763   21.8289 H   0  0  0  0  0  0
  -25.2734   -9.5747   22.4738 H   0  0  0  0  0  0
  -24.0030   -7.4655   22.7440 H   0  0  0  0  0  0
  -21.0832   -8.8792   19.8896 H   0  0  0  0  0  0
  -22.3686  -10.9711   19.6135 H   0  0  0  0  0  0
  -21.2001   -7.6121   23.9692 H   0  0  0  0  0  0
  -21.1512   -6.0472   25.9049 H   0  0  0  0  0  0
  -22.0591   -2.7593   23.2757 H   0  0  0  0  0  0
  -22.4101  -11.9969   22.4814 H   0  0  0  0  0  0
  -21.1075  -13.1250   22.2584 H   0  0  0  0  0  0
  -24.6867  -15.8579   20.5456 H   0  0  0  0  0  0
  -26.3132  -15.6244   20.1497 H   0  0  0  0  0  0
  -26.7100  -32.5576   23.1198 H   0  0  0  0  0  0
  -25.0088  -33.9803   25.0491 H   0  0  0  0  0  0
  -22.6860  -31.3171   21.4170 H   0  0  0  0  0  0
  -23.3747  -35.9644   23.3311 H   0  0  0  0  0  0
  -24.3576  -36.8898   22.2047 H   0  0  0  0  0  0
  -23.7226  -37.6523   23.6623 H   0  0  0  0  0  0
  -26.0321  -31.6303   20.5993 H   0  0  0  0  0  0
  -26.8103  -30.9004   21.9782 H   0  0  0  0  0  0
  -28.0976  -29.1533   21.1394 H   0  0  0  0  0  0
  -26.0764  -26.0049   18.9887 H   0  0  0  0  0  0
  -23.9784  -27.3173   19.0173 H   0  0  0  0  0  0
  -23.7009  -30.6103   19.4034 H   0  0  0  0  0  0
  -22.7272  -29.2489   19.8705 H   0  0  0  0  0  0
  -25.1279  -36.1991   25.0834 H   0  0  0  0  0  0
  -20.9992  -28.3325   24.1483 H   0  0  0  0  0  0
  -20.5720  -26.2341   23.3779 H   0  0  0  0  0  0
  -21.6722  -26.7456   22.1417 H   0  0  0  0  0  0
  -19.7046  -25.6222   21.1436 H   0  0  0  0  0  0
  -19.6788  -27.3095   20.6839 H   0  0  0  0  0  0
  -17.4278  -26.6589   21.4081 H   0  0  0  0  0  0
  -18.0379  -25.9991   22.9099 H   0  0  0  0  0  0
  -19.7907  -30.7320   24.2248 H   0  0  0  0  0  0
  -17.5003  -31.6316   24.5016 H   0  0  0  0  0  0
  -15.5346  -30.3004   23.7554 H   0  0  0  0  0  0
  -15.8709  -28.0777   22.7056 H   0  0  0  0  0  0
  -24.5903  -30.7070   25.7816 H   0  0  0  0  0  0
  -24.8929  -32.2903   26.4884 H   0  0  0  0  0  0
  -25.8091  -30.8936   27.0226 H   0  0  0  0  0  0
  -26.2798  -29.6836   24.1070 H   0  0  0  0  0  0
  -27.3983  -29.7228   25.4519 H   0  0  0  0  0  0
  -27.8665  -30.4351   23.9231 H   0  0  0  0  0  0
  -27.2684  -33.3601   26.2069 H   0  0  0  0  0  0
  -28.3842  -32.6871   25.0262 H   0  0  0  0  0  0
  -28.0734  -31.8397   26.5352 H   0  0  0  0  0  0
  -28.2610  -38.0104   24.7513 H   0  0  0  0  0  0
  -28.1075  -36.2635   24.6275 H   0  0  0  0  0  0
  -27.2305  -37.1446   25.8866 H   0  0  0  0  0  0
  -20.9269  -29.8807   21.7011 H   0  0  0  0  0  0
  -26.0183  -38.2882   24.1435 H   0  0  0  0  0  0
  -23.2316  -24.8150   23.2088 H   0  0  0  0  0  0
  -23.7781  -22.5244   23.9732 H   0  0  0  0  0  0
  -27.5432  -19.2996   21.2044 H   0  0  0  0  0  0
  -28.9129  -16.9846   24.5853 H   0  0  0  0  0  0
  -24.9978  -26.2798   22.2959 H   0  0  0  0  0  0
  -28.5616  -17.6720   19.6810 H   0  0  0  0  0  0
  -29.9386  -15.3430   23.0665 H   0  0  0  0  0  0
  -27.9117  -23.1219   22.8418 H   0  0  0  0  0  0
  -28.2358  -19.4247   24.8316 H   0  0  0  0  0  0
  -26.6800  -18.7375   24.4416 H   0  0  0  0  0  0
  -30.1488  -16.0025   19.4431 H   0  0  0  0  0  0
  -27.2322  -26.6801   22.1080 H   0  0  0  0  0  0
  -27.6111  -20.9034   22.6519 H   0  0  0  0  0  0
  1 25  1  0  0  0
  1 30  2  0  0  0
  1 86  1  0  0  0
  2  3  1  0  0  0
  2 25  1  0  0  0
  2 91  1  0  0  0
  2 92  1  0  0  0
  3  4  1  0  0  0
  3 93  1  0  0  0
  3 94  1  0  0  0
  4  5  1  0  0  0
  4 95  1  0  0  0
  4 96  1  0  0  0
  5  6  1  0  0  0
  5 26  1  0  0  0
  5 97  1  0  0  0
  6 25  1  0  0  0
  6 98  1  0  0  0
  6 99  1  0  0  0
  7  8  2  0  0  0
  7 26  1  0  0  0
  7 29  1  0  0  0
  8  9  1  0  0  0
  8 22  1  0  0  0
  9 10  1  0  0  0
  9 27  2  0  0  0
 10 11  2  0  0  0
 10 15  1  0  0  0
 11 12  1  0  0  0
 11100  1  0  0  0
 12 13  2  0  0  0
 12101  1  0  0  0
 13 14  1  0  0  0
 13 31  1  0  0  0
 14 15  2  0  0  0
 14102  1  0  0  0
 15103  1  0  0  0
 16 17  2  0  0  0
 16 21  1  0  0  0
 16 31  1  0  0  0
 17 18  1  0  0  0
 17104  1  0  0  0
 18 19  2  0  0  0
 18105  1  0  0  0
 19 20  1  0  0  0
 19 24  1  0  0  0
 20 21  2  0  0  0
 20106  1  0  0  0
 21 23  1  0  0  0
 22 28  1  0  0  0
 22 32  2  0  0  0
 26 27  1  0  0  0
 28107  1  0  0  0
 28108  1  0  0  0
 29109  1  0  0  0
 29110  1  0  0  0
 33 34  1  0  0  0
 33 66  1  0  0  0
 33 70  2  0  0  0
 34 36  1  0  0  0
 34 59  1  0  0  0
 34111  1  0  0  0
 35 44  2  0  0  0
 35 45  1  0  0  0
 35 68  1  0  0  0
 36 56  1  0  0  0
 36112  1  0  0  0
 37 39  1  0  0  0
 37 47  1  0  0  0
 37 66  1  0  0  0
 37113  1  0  0  0
 38 43  2  0  0  0
 38 46  1  0  0  0
 38 47  1  0  0  0
 39 64  1  0  0  0
 39 67  2  0  0  0
 40 52  1  0  0  0
 40 53  2  0  0  0
 40 58  1  0  0  0
 41114  1  0  0  0
 41115  1  0  0  0
 41116  1  0  0  0
 41 48  1  0  0  0
 42 43  1  0  0  0
 42 66  1  0  0  0
 42117  1  0  0  0
 42118  1  0  0  0
 43 44  1  0  0  0
 44119  1  0  0  0
 45 46  2  0  0  0
 45120  1  0  0  0
 46121  1  0  0  0
 47122  1  0  0  0
 47123  1  0  0  0
 48 56  1  0  0  0
 48 65  1  0  0  0
 48124  1  0  0  0
 49 50  1  0  0  0
 49 53  1  0  0  0
 49 64  1  0  0  0
 49125  1  0  0  0
 50 51  1  0  0  0
 50126  1  0  0  0
 50127  1  0  0  0
 51 52  1  0  0  0
 51128  1  0  0  0
 51129  1  0  0  0
 52130  1  0  0  0
 52131  1  0  0  0
 53 54  1  0  0  0
 54 55  2  0  0  0
 54132  1  0  0  0
 55 57  1  0  0  0
 55133  1  0  0  0
 56 69  2  0  0  0
 57 58  2  0  0  0
 57134  1  0  0  0
 58135  1  0  0  0
 59 60  1  0  0  0
 59 61  1  0  0  0
 59 62  1  0  0  0
 60136  1  0  0  0
 60137  1  0  0  0
 60138  1  0  0  0
 61139  1  0  0  0
 61140  1  0  0  0
 61141  1  0  0  0
 62142  1  0  0  0
 62143  1  0  0  0
 62144  1  0  0  0
 63 65  1  0  0  0
 63145  1  0  0  0
 63146  1  0  0  0
 63147  1  0  0  0
 64148  1  0  0  0
 65149  1  0  0  0
 68 84  1  0  0  0
 71 72  2  0  0  0
 71 75  1  0  0  0
 71150  1  0  0  0
 72 79  1  0  0  0
 72151  1  0  0  0
 73 76  2  0  0  0
 73 80  1  0  0  0
 73152  1  0  0  0
 74 77  1  0  0  0
 74 80  2  0  0  0
 74153  1  0  0  0
 75 82  2  0  0  0
 75154  1  0  0  0
 76 81  1  0  0  0
 76155  1  0  0  0
 77 81  2  0  0  0
 77156  1  0  0  0
 78 79  2  0  0  0
 78 82  1  0  0  0
 78157  1  0  0  0
 79 83  1  0  0  0
 80 85  1  0  0  0
 81 86  1  0  0  0
 82 87  1  0  0  0
 83 88  1  0  0  0
 83 89  2  0  0  0
 84 87  1  0  0  0
 84 90  2  0  0  0
 85 88  1  0  0  0
 85158  1  0  0  0
 85159  1  0  0  0
 86160  1  0  0  0
 87161  1  0  0  0
 88162  1  0  0  0
M  ISO  4   1 100  68 101  84 101  86 100
M  END
> <chiral flag>
0

> <version>
0

> <s_m_source_file>
/data/baiqing/PycharmProjects/Reinvent-master-3.2/result/LINK_invent/BTK/process_docking_weight1_custom_product_contain_oxygen_bond_distance_aromatic_linkinvent_7_9_3/rearranged_h_0001.sdf

> <i_m_source_file_index>
63

> <r_mmod_Potential_Energy-OPLS-2005>
-75.4557189941406

> <r_mmod_Stretch_Energy-OPLS-2005>
35.3434829711914

> <r_mmod_Bend_Energy-OPLS-2005>
106.810859680176

> <r_mmod_Torsional_Energy-OPLS-2005>
317.364807128906

> <r_mmod_Improper_Torsional_Energy-OPLS-2005>
26.9061965942383

> <r_mmod_Van_der_Waal_Energy-OPLS-2005>
166.156951904297

> <r_mmod_Electrostatic_Energy-OPLS-2005>
-512.451904296875

> <r_mmod_Solvation_Energy-OPLS-2005>
-234.300415039062

> <b_mmod_Minimization_Converged-OPLS-2005>
0

> <r_mmod_RMS_Derivative-OPLS-2005>
3.83926391601562

$$$$
63
                    3D
 Structure written by MMmdl.
156165  0  0  1  0            999 V2000
  -30.5689  -14.6507   20.5506 C   0  0  0  0  0  0
  -30.4560  -12.4109   19.4499 C   0  0  0  0  0  0
  -29.5113  -12.5178   18.2294 C   0  0  0  0  0  0
  -28.0357  -12.3423   18.6413 C   0  0  0  0  0  0
  -27.6588  -13.2031   19.8746 C   0  0  2  0  0  0
  -28.7004  -13.0137   21.0019 C   0  0  0  0  0  0
  -25.2599  -13.8132   20.5694 C   0  0  0  0  0  0
  -24.1844  -13.0429   20.9180 C   0  0  0  0  0  0
  -24.6385  -11.6888   20.8731 C   0  0  0  0  0  0
  -23.9047  -10.4282   21.0399 C   0  0  0  0  0  0
  -24.3602   -9.4208   21.9186 C   0  0  0  0  0  0
  -23.6288   -8.2238   22.0755 C   0  0  0  0  0  0
  -22.4268   -8.0273   21.3536 C   0  0  0  0  0  0
  -21.9895   -9.0241   20.4643 C   0  0  0  0  0  0
  -22.7213  -10.2127   20.3058 C   0  0  0  0  0  0
  -21.6849   -6.0728   22.5271 C   0  0  0  0  0  0
  -21.4012   -6.5640   23.8205 C   0  0  0  0  0  0
  -21.3661   -5.6790   24.9168 C   0  0  0  0  0  0
  -21.6046   -4.3054   24.7220 C   0  0  0  0  0  0
  -21.8820   -3.8142   23.4344 C   0  0  0  0  0  0
  -21.9196   -4.6953   22.3397 C   0  0  0  0  0  0
  -22.7882  -13.5244   21.1836 C   0  0  0  0  0  0
  -22.1663   -4.2145   21.0975 F   0  0  0  0  0  0
  -21.5627   -3.4542   25.7739 F   0  0  0  0  0  0
  -30.0163  -13.3976   20.4582 N   0  0  0  0  0  0
  -26.3008  -12.9281   20.3348 N   0  0  0  0  0  0
  -25.9308  -11.6443   20.5761 N   0  0  0  0  0  0
  -22.0513  -12.8247   22.0391 N   0  0  0  0  0  0
  -25.4360  -15.1854   20.4090 N   0  0  0  0  0  0
  -31.6976  -14.8948   20.1081 O   0  0  0  0  0  0
  -21.6623   -6.8873   21.4234 O   0  0  0  0  0  0
  -22.3571  -14.5550   20.6688 O   0  0  0  0  0  0
  -24.6232  -31.8589   23.2020 C   0  0  0  0  0  0
  -25.9088  -32.4777   23.8360 C   0  0  1  0  0  0
  -27.2314  -27.3274   20.1365 C   0  0  0  0  0  0
  -25.5891  -33.8577   24.2279 N   0  0  0  0  0  0
  -23.4184  -30.4743   21.5454 C   0  0  2  0  0  0
  -24.8699  -28.9260   20.1194 C   0  0  0  0  0  0
  -22.7473  -29.4570   22.4974 C   0  0  0  0  0  0
  -18.0287  -28.1330   22.8489 C   0  0  0  0  0  0
  -24.1480  -36.7308   23.2639 C   0  0  0  0  0  0
  -25.9565  -30.7945   21.3684 C   0  0  0  0  0  0
  -26.0368  -29.4186   20.7187 C   0  0  0  0  0  0
  -27.2239  -28.6318   20.7129 C   0  0  0  0  0  0
  -26.0467  -26.8735   19.5207 C   0  0  0  0  0  0
  -24.8756  -27.6581   19.5116 C   0  0  0  0  0  0
  -23.6341  -29.8035   20.1629 C   0  0  0  0  0  0
  -25.4115  -36.3092   24.0328 C   0  0  1  0  0  0
  -20.5885  -28.3626   23.1303 C   0  0  2  0  0  0
  -20.6762  -26.9344   22.5419 C   0  0  0  0  0  0
  -19.5734  -26.6343   21.5210 C   0  0  0  0  0  0
  -18.1913  -26.7875   22.1621 C   0  0  0  0  0  0
  -19.1544  -28.8800   23.2876 C   0  0  0  0  0  0
  -18.9467  -30.1410   23.8868 C   0  0  0  0  0  0
  -17.6469  -30.6542   24.0542 C   0  0  0  0  0  0
  -25.9036  -34.9451   23.5115 C   0  0  0  0  0  0
  -16.5358  -29.9034   23.6316 C   0  0  0  0  0  0
  -16.7276  -28.6451   23.0342 C   0  0  0  0  0  0
  -26.4458  -31.6597   25.0732 C   0  0  0  0  0  0
  -25.3684  -31.3734   26.1458 C   0  0  0  0  0  0
  -27.0293  -30.3034   24.6161 C   0  0  0  0  0  0
  -27.6038  -32.4318   25.7492 C   0  0  0  0  0  0
  -27.5583  -37.1801   24.8463 C   0  0  0  0  0  0
  -21.4187  -29.3000   22.3745 N   0  0  0  0  0  0
  -26.4302  -37.3788   23.9402 N   0  0  0  0  0  0
  -24.6857  -31.0570   22.0976 N   0  0  0  0  0  0
  -23.4209  -28.8106   23.3046 O   0  0  0  0  0  0
  -28.3569  -26.4990   20.1399 O   0  0  0  0  0  0
  -26.5628  -34.8921   22.4687 O   0  0  0  0  0  0
  -23.5388  -32.1393   23.7339 O   0  0  0  0  0  0
  -30.0105  -19.4185   20.3676 C   0  0  0  0  0  0
  -30.3735  -18.0240   20.3945 C   0  0  0  0  0  0
  -28.3051  -17.5310   21.4991 C   0  0  0  0  0  0
  -28.7686  -19.9080   20.8854 C   0  0  0  0  0  0
  -29.5211  -17.0382   20.9691 C   0  0  0  0  0  0
  -27.9291  -18.8978   21.4438 C   0  0  0  0  0  0
  -27.0456  -21.5615   21.3575 C   0  0  0  0  0  0
  -26.0862  -20.3670   21.4126 C   0  0  0  0  0  0
  -28.6383  -23.8604   19.9548 C   0  0  0  0  0  0
  -29.1917  -22.5430   20.7087 C   0  0  0  0  0  0
  -28.2474  -25.1706   20.7817 C   0  0  0  0  0  0
  -28.3079  -21.3274   20.9118 N   0  0  0  0  0  0
  -29.7317  -15.5924   21.0909 N   0  0  0  0  0  0
  -26.6359  -22.6579   21.7538 O   0  0  0  0  0  0
  -26.7111  -19.2245   21.9832 O   0  0  0  0  0  0
  -31.4882  -12.5827   19.1386 H   0  0  0  0  0  0
  -30.4357  -11.4052   19.8727 H   0  0  0  0  0  0
  -29.7778  -11.7703   17.4812 H   0  0  0  0  0  0
  -29.6418  -13.4909   17.7548 H   0  0  0  0  0  0
  -27.8777  -11.2864   18.8707 H   0  0  0  0  0  0
  -27.3796  -12.5743   17.8012 H   0  0  0  0  0  0
  -27.6913  -14.2434   19.5497 H   0  0  0  0  0  0
  -28.7222  -11.9734   21.3285 H   0  0  0  0  0  0
  -28.4315  -13.5857   21.8908 H   0  0  0  0  0  0
  -25.2740   -9.5680   22.4768 H   0  0  0  0  0  0
  -23.9989   -7.4631   22.7486 H   0  0  0  0  0  0
  -21.0823   -8.8763   19.8959 H   0  0  0  0  0  0
  -22.3668  -10.9667   19.6180 H   0  0  0  0  0  0
  -21.2004   -7.6139   23.9707 H   0  0  0  0  0  0
  -21.1484   -6.0518   25.9071 H   0  0  0  0  0  0
  -22.0601   -2.7603   23.2845 H   0  0  0  0  0  0
  -22.4117  -11.9907   22.4775 H   0  0  0  0  0  0
  -21.1142  -13.1297   22.2618 H   0  0  0  0  0  0
  -24.6682  -15.8403   20.5135 H   0  0  0  0  0  0
  -26.2779  -15.6148   20.0461 H   0  0  0  0  0  0
  -26.7180  -32.5458   23.1138 H   0  0  0  0  0  0
  -24.9997  -33.9737   25.0396 H   0  0  0  0  0  0
  -22.7108  -31.2919   21.3965 H   0  0  0  0  0  0
  -23.3743  -35.9630   23.3300 H   0  0  0  0  0  0
  -24.3567  -36.8945   22.2055 H   0  0  0  0  0  0
  -23.7258  -37.6518   23.6663 H   0  0  0  0  0  0
  -26.0739  -31.5518   20.5898 H   0  0  0  0  0  0
  -26.8415  -30.8575   21.9908 H   0  0  0  0  0  0
  -28.1242  -29.0052   21.1799 H   0  0  0  0  0  0
  -26.0246  -25.8964   19.0589 H   0  0  0  0  0  0
  -23.9797  -27.2772   19.0412 H   0  0  0  0  0  0
  -23.7489  -30.5748   19.4002 H   0  0  0  0  0  0
  -22.7553  -29.2255   19.8672 H   0  0  0  0  0  0
  -25.1279  -36.1969   25.0822 H   0  0  0  0  0  0
  -20.9948  -28.3182   24.1433 H   0  0  0  0  0  0
  -20.5644  -26.2203   23.3610 H   0  0  0  0  0  0
  -21.6625  -26.7326   22.1214 H   0  0  0  0  0  0
  -19.6861  -25.6249   21.1231 H   0  0  0  0  0  0
  -19.6682  -27.3147   20.6739 H   0  0  0  0  0  0
  -17.4171  -26.6650   21.4015 H   0  0  0  0  0  0
  -18.0290  -25.9986   22.8987 H   0  0  0  0  0  0
  -19.7944  -30.7229   24.2216 H   0  0  0  0  0  0
  -17.5014  -31.6220   24.5130 H   0  0  0  0  0  0
  -15.5346  -30.2913   23.7620 H   0  0  0  0  0  0
  -15.8696  -28.0761   22.7039 H   0  0  0  0  0  0
  -24.5859  -30.7078   25.7800 H   0  0  0  0  0  0
  -24.8850  -32.2875   26.4886 H   0  0  0  0  0  0
  -25.7987  -30.8921   27.0246 H   0  0  0  0  0  0
  -26.2859  -29.6822   24.1157 H   0  0  0  0  0  0
  -27.4002  -29.7263   25.4647 H   0  0  0  0  0  0
  -27.8695  -30.4374   23.9354 H   0  0  0  0  0  0
  -27.2687  -33.3646   26.2057 H   0  0  0  0  0  0
  -28.3816  -32.6861   25.0270 H   0  0  0  0  0  0
  -28.0711  -31.8441   26.5407 H   0  0  0  0  0  0
  -28.2581  -38.0102   24.7514 H   0  0  0  0  0  0
  -28.1088  -36.2649   24.6273 H   0  0  0  0  0  0
  -27.2298  -37.1455   25.8857 H   0  0  0  0  0  0
  -20.9373  -29.8793   21.7021 H   0  0  0  0  0  0
  -26.0185  -38.2849   24.1432 H   0  0  0  0  0  0
  -30.7126  -20.1086   19.9252 H   0  0  0  0  0  0
  -31.3232  -17.7232   19.9749 H   0  0  0  0  0  0
  -27.6087  -16.8410   21.9559 H   0  0  0  0  0  0
  -25.7268  -20.1338   20.4075 H   0  0  0  0  0  0
  -25.2114  -20.6256   22.0102 H   0  0  0  0  0  0
  -27.8223  -23.5964   19.2781 H   0  0  0  0  0  0
  -29.4449  -24.1742   19.2907 H   0  0  0  0  0  0
  -29.5821  -22.8388   21.6840 H   0  0  0  0  0  0
  -30.0687  -22.2075   20.1576 H   0  0  0  0  0  0
  -28.9042  -25.2142   21.6518 H   0  0  0  0  0  0
  -27.2475  -25.0526   21.2014 H   0  0  0  0  0  0
  -28.9426  -15.1280   21.5158 H   0  0  0  0  0  0
  1 25  1  0  0  0
  1 30  2  0  0  0
  1 83  1  0  0  0
  2  3  1  0  0  0
  2 25  1  0  0  0
  2 86  1  0  0  0
  2 87  1  0  0  0
  3  4  1  0  0  0
  3 88  1  0  0  0
  3 89  1  0  0  0
  4  5  1  0  0  0
  4 90  1  0  0  0
  4 91  1  0  0  0
  5  6  1  0  0  0
  5 26  1  0  0  0
  5 92  1  0  0  0
  6 25  1  0  0  0
  6 93  1  0  0  0
  6 94  1  0  0  0
  7  8  2  0  0  0
  7 26  1  0  0  0
  7 29  1  0  0  0
  8  9  1  0  0  0
  8 22  1  0  0  0
  9 10  1  0  0  0
  9 27  2  0  0  0
 10 11  2  0  0  0
 10 15  1  0  0  0
 11 12  1  0  0  0
 11 95  1  0  0  0
 12 13  2  0  0  0
 12 96  1  0  0  0
 13 14  1  0  0  0
 13 31  1  0  0  0
 14 15  2  0  0  0
 14 97  1  0  0  0
 15 98  1  0  0  0
 16 17  2  0  0  0
 16 21  1  0  0  0
 16 31  1  0  0  0
 17 18  1  0  0  0
 17 99  1  0  0  0
 18 19  2  0  0  0
 18100  1  0  0  0
 19 20  1  0  0  0
 19 24  1  0  0  0
 20 21  2  0  0  0
 20101  1  0  0  0
 21 23  1  0  0  0
 22 28  1  0  0  0
 22 32  2  0  0  0
 26 27  1  0  0  0
 28102  1  0  0  0
 28103  1  0  0  0
 29104  1  0  0  0
 29105  1  0  0  0
 33 34  1  0  0  0
 33 66  1  0  0  0
 33 70  2  0  0  0
 34 36  1  0  0  0
 34 59  1  0  0  0
 34106  1  0  0  0
 35 44  2  0  0  0
 35 45  1  0  0  0
 35 68  1  0  0  0
 36 56  1  0  0  0
 36107  1  0  0  0
 37 39  1  0  0  0
 37 47  1  0  0  0
 37 66  1  0  0  0
 37108  1  0  0  0
 38 43  2  0  0  0
 38 46  1  0  0  0
 38 47  1  0  0  0
 39 64  1  0  0  0
 39 67  2  0  0  0
 40 52  1  0  0  0
 40 53  2  0  0  0
 40 58  1  0  0  0
 41109  1  0  0  0
 41110  1  0  0  0
 41111  1  0  0  0
 41 48  1  0  0  0
 42 43  1  0  0  0
 42 66  1  0  0  0
 42112  1  0  0  0
 42113  1  0  0  0
 43 44  1  0  0  0
 44114  1  0  0  0
 45 46  2  0  0  0
 45115  1  0  0  0
 46116  1  0  0  0
 47117  1  0  0  0
 47118  1  0  0  0
 48 56  1  0  0  0
 48 65  1  0  0  0
 48119  1  0  0  0
 49 50  1  0  0  0
 49 53  1  0  0  0
 49 64  1  0  0  0
 49120  1  0  0  0
 50 51  1  0  0  0
 50121  1  0  0  0
 50122  1  0  0  0
 51 52  1  0  0  0
 51123  1  0  0  0
 51124  1  0  0  0
 52125  1  0  0  0
 52126  1  0  0  0
 53 54  1  0  0  0
 54 55  2  0  0  0
 54127  1  0  0  0
 55 57  1  0  0  0
 55128  1  0  0  0
 56 69  2  0  0  0
 57 58  2  0  0  0
 57129  1  0  0  0
 58130  1  0  0  0
 59 60  1  0  0  0
 59 61  1  0  0  0
 59 62  1  0  0  0
 60131  1  0  0  0
 60132  1  0  0  0
 60133  1  0  0  0
 61134  1  0  0  0
 61135  1  0  0  0
 61136  1  0  0  0
 62137  1  0  0  0
 62138  1  0  0  0
 62139  1  0  0  0
 63 65  1  0  0  0
 63140  1  0  0  0
 63141  1  0  0  0
 63142  1  0  0  0
 64143  1  0  0  0
 65144  1  0  0  0
 68 81  1  0  0  0
 71 72  2  0  0  0
 71 74  1  0  0  0
 71145  1  0  0  0
 72 75  1  0  0  0
 72146  1  0  0  0
 73 75  2  0  0  0
 73 76  1  0  0  0
 73147  1  0  0  0
 74 76  2  0  0  0
 74 82  1  0  0  0
 75 83  1  0  0  0
 76 85  1  0  0  0
 77 78  1  0  0  0
 77 82  1  0  0  0
 77 84  2  0  0  0
 78 85  1  0  0  0
 78148  1  0  0  0
 78149  1  0  0  0
 79 80  1  0  0  0
 79 81  1  0  0  0
 79150  1  0  0  0
 79151  1  0  0  0
 80 82  1  0  0  0
 80152  1  0  0  0
 80153  1  0  0  0
 81154  1  0  0  0
 81155  1  0  0  0
 83156  1  0  0  0
M  ISO  4   1 100  68 101  81 101  83 100
M  END
> <chiral flag>
0

> <version>
0

> <s_m_source_file>
/data/baiqing/PycharmProjects/Reinvent-master-3.2/result/LINK_invent/BTK/process_docking_weight1_custom_product_contain_oxygen_bond_distance_aromatic_linkinvent_7_9_3/rearranged_h_0001.sdf

> <i_m_source_file_index>
64

> <r_mmod_Potential_Energy-OPLS-2005>
203.992538452148

> <r_mmod_Stretch_Energy-OPLS-2005>
94.5673828125

> <r_mmod_Bend_Energy-OPLS-2005>
169.212860107422

> <r_mmod_Torsional_Energy-OPLS-2005>
275.849090576172

> <r_mmod_Improper_Torsional_Energy-OPLS-2005>
3.8448600769043

> <r_mmod_Van_der_Waal_Energy-OPLS-2005>
158.27116394043

> <r_mmod_Electrostatic_Energy-OPLS-2005>
-326.625946044922

> <r_mmod_Solvation_Energy-OPLS-2005>
-220.618499755859

> <b_mmod_Minimization_Converged-OPLS-2005>
0

> <r_mmod_RMS_Derivative-OPLS-2005>
3.38369750976562

$$$$
64
                    3D
 Structure written by MMmdl.
181189  0  0  1  0            999 V2000
  -30.7243  -14.4065   20.5999 C   0  0  0  0  0  0
  -30.4227  -12.2813   19.3955 C   0  0  0  0  0  0
  -29.4893  -12.5184   18.1905 C   0  0  0  0  0  0
  -28.0104  -12.3817   18.6063 C   0  0  0  0  0  0
  -27.6665  -13.2019   19.8775 C   0  0  2  0  0  0
  -28.7095  -12.9422   20.9877 C   0  0  0  0  0  0
  -25.2628  -13.8146   20.5676 C   0  0  0  0  0  0
  -24.1862  -13.0434   20.9150 C   0  0  0  0  0  0
  -24.6407  -11.6897   20.8721 C   0  0  0  0  0  0
  -23.9065  -10.4297   21.0416 C   0  0  0  0  0  0
  -24.3609   -9.4209   21.9194 C   0  0  0  0  0  0
  -23.6281   -8.2247   22.0759 C   0  0  0  0  0  0
  -22.4268   -8.0288   21.3547 C   0  0  0  0  0  0
  -21.9910   -9.0266   20.4647 C   0  0  0  0  0  0
  -22.7242  -10.2139   20.3066 C   0  0  0  0  0  0
  -21.6848   -6.0736   22.5282 C   0  0  0  0  0  0
  -21.4012   -6.5638   23.8217 C   0  0  0  0  0  0
  -21.3664   -5.6792   24.9182 C   0  0  0  0  0  0
  -21.6048   -4.3056   24.7233 C   0  0  0  0  0  0
  -21.8819   -3.8146   23.4355 C   0  0  0  0  0  0
  -21.9190   -4.6964   22.3407 C   0  0  0  0  0  0
  -22.7884  -13.5236   21.1821 C   0  0  0  0  0  0
  -22.1664   -4.2148   21.0988 F   0  0  0  0  0  0
  -21.5624   -3.4541   25.7747 F   0  0  0  0  0  0
  -30.0441  -13.2443   20.4374 N   0  0  0  0  0  0
  -26.3061  -12.9304   20.3382 N   0  0  0  0  0  0
  -25.9334  -11.6462   20.5760 N   0  0  0  0  0  0
  -22.0523  -12.8236   22.0383 N   0  0  0  0  0  0
  -25.4359  -15.1865   20.4091 N   0  0  0  0  0  0
  -31.8566  -14.5913   20.1483 O   0  0  0  0  0  0
  -21.6632   -6.8883   21.4246 O   0  0  0  0  0  0
  -22.3567  -14.5555   20.6696 O   0  0  0  0  0  0
  -24.6117  -31.8699   23.2142 C   0  0  0  0  0  0
  -25.9028  -32.4830   23.8429 C   0  0  1  0  0  0
  -27.2374  -27.4728   20.0887 C   0  0  0  0  0  0
  -25.5903  -33.8629   24.2356 N   0  0  0  0  0  0
  -23.3979  -30.4931   21.5543 C   0  0  2  0  0  0
  -24.8448  -28.9590   20.1191 C   0  0  0  0  0  0
  -22.7387  -29.4673   22.5027 C   0  0  0  0  0  0
  -18.0266  -28.1367   22.8501 C   0  0  0  0  0  0
  -24.1482  -36.7312   23.2643 C   0  0  0  0  0  0
  -25.9224  -30.8465   21.3618 C   0  0  0  0  0  0
  -26.0019  -29.4835   20.7095 C   0  0  0  0  0  0
  -27.2035  -28.7468   20.6910 C   0  0  0  0  0  0
  -26.0681  -26.9477   19.5018 C   0  0  0  0  0  0
  -24.8702  -27.6874   19.5168 C   0  0  0  0  0  0
  -23.6045  -29.8220   20.1693 C   0  0  0  0  0  0
  -25.4104  -36.3119   24.0349 C   0  0  1  0  0  0
  -20.5851  -28.3647   23.1330 C   0  0  2  0  0  0
  -20.6757  -26.9388   22.5415 C   0  0  0  0  0  0
  -19.5732  -26.6376   21.5212 C   0  0  0  0  0  0
  -18.1908  -26.7922   22.1620 C   0  0  0  0  0  0
  -19.1515  -28.8827   23.2913 C   0  0  0  0  0  0
  -18.9447  -30.1439   23.8916 C   0  0  0  0  0  0
  -17.6451  -30.6584   24.0560 C   0  0  0  0  0  0
  -25.9030  -34.9483   23.5146 C   0  0  0  0  0  0
  -16.5344  -29.9084   23.6331 C   0  0  0  0  0  0
  -16.7257  -28.6496   23.0362 C   0  0  0  0  0  0
  -26.4484  -31.6605   25.0744 C   0  0  0  0  0  0
  -25.3765  -31.3686   26.1500 C   0  0  0  0  0  0
  -27.0336  -30.3069   24.6092 C   0  0  0  0  0  0
  -27.6065  -32.4340   25.7487 C   0  0  0  0  0  0
  -27.5579  -37.1803   24.8470 C   0  0  0  0  0  0
  -21.4118  -29.3024   22.3747 N   0  0  0  0  0  0
  -26.4290  -37.3800   23.9422 N   0  0  0  0  0  0
  -24.6623  -31.0837   22.1021 N   0  0  0  0  0  0
  -23.4177  -28.8213   23.3057 O   0  0  0  0  0  0
  -28.4099  -26.7653   20.0605 O   0  0  0  0  0  0
  -26.5573  -34.8927   22.4696 O   0  0  0  0  0  0
  -23.5325  -32.1432   23.7564 O   0  0  0  0  0  0
  -28.1984  -22.4373   19.1181 C   0  0  0  0  0  0
  -26.3794  -22.5485   20.7336 C   0  0  0  0  0  0
  -28.6445  -23.7067   19.5363 C   0  0  0  0  0  0
  -26.8295  -23.8150   21.1553 C   0  0  0  0  0  0
  -27.0609  -21.8477   19.7159 C   0  0  0  0  0  0
  -27.9670  -24.3978   20.5602 C   0  0  0  0  0  0
  -26.5629  -20.4633   19.3151 C   0  0  0  0  0  0
  -28.4933  -25.7384   21.0447 C   0  0  0  0  0  0
  -26.8892  -20.0395   17.8729 C   0  0  0  0  0  0
  -30.3157  -16.8049   21.3710 C   0  0  0  0  0  0
  -26.2122  -18.7211   17.4819 C   0  0  0  0  0  0
  -31.2630  -17.4430   20.3333 C   0  0  0  0  0  0
  -26.0582  -17.1885   15.6743 C   0  0  0  0  0  0
  -31.8748  -17.4533   18.0411 C   0  0  0  0  0  0
  -26.9151  -16.7225   14.4928 C   0  0  0  0  0  0
  -31.7979  -16.5256   16.8205 C   0  0  0  0  0  0
  -29.2515  -16.4052   14.1508 C   0  0  0  0  0  0
  -30.5063  -15.9802   14.9192 C   0  0  0  0  0  0
  -30.0120  -15.3786   21.1854 N   0  0  0  0  0  0
  -26.6501  -18.3787   16.1790 O   0  0  0  0  0  0
  -30.9020  -17.0654   19.0086 O   0  0  0  0  0  0
  -28.1470  -16.2664   15.0310 O   0  0  0  0  0  0
  -30.6896  -16.8775   16.0084 O   0  0  0  0  0  0
  -31.4659  -12.3787   19.0894 H   0  0  0  0  0  0
  -30.3179  -11.2612   19.7699 H   0  0  0  0  0  0
  -29.7181  -11.8186   17.3855 H   0  0  0  0  0  0
  -29.6624  -13.5168   17.7846 H   0  0  0  0  0  0
  -27.8105  -11.3241   18.7841 H   0  0  0  0  0  0
  -27.3608  -12.6816   17.7833 H   0  0  0  0  0  0
  -27.7212  -14.2550   19.6015 H   0  0  0  0  0  0
  -28.6747  -11.8972   21.2989 H   0  0  0  0  0  0
  -28.4813  -13.5142   21.8877 H   0  0  0  0  0  0
  -25.2766   -9.5664   22.4757 H   0  0  0  0  0  0
  -23.9987   -7.4634   22.7477 H   0  0  0  0  0  0
  -21.0846   -8.8781   19.8945 H   0  0  0  0  0  0
  -22.3720  -10.9670   19.6163 H   0  0  0  0  0  0
  -21.2007   -7.6145   23.9721 H   0  0  0  0  0  0
  -21.1483   -6.0523   25.9077 H   0  0  0  0  0  0
  -22.0595   -2.7610   23.2859 H   0  0  0  0  0  0
  -22.4126  -11.9874   22.4737 H   0  0  0  0  0  0
  -21.1158  -13.1290   22.2614 H   0  0  0  0  0  0
  -24.6732  -15.8456   20.5222 H   0  0  0  0  0  0
  -26.2970  -15.6247   20.1090 H   0  0  0  0  0  0
  -26.7096  -32.5551   23.1197 H   0  0  0  0  0  0
  -25.0127  -33.9805   25.0550 H   0  0  0  0  0  0
  -22.6854  -31.3087   21.4157 H   0  0  0  0  0  0
  -23.3749  -35.9640   23.3321 H   0  0  0  0  0  0
  -24.3578  -36.8909   22.2055 H   0  0  0  0  0  0
  -23.7223  -37.6518   23.6645 H   0  0  0  0  0  0
  -26.0327  -31.6149   20.5963 H   0  0  0  0  0  0
  -26.8112  -30.8982   21.9791 H   0  0  0  0  0  0
  -28.1024  -29.1511   21.1349 H   0  0  0  0  0  0
  -26.0870  -25.9725   19.0344 H   0  0  0  0  0  0
  -23.9778  -27.2759   19.0663 H   0  0  0  0  0  0
  -23.7089  -30.5959   19.4078 H   0  0  0  0  0  0
  -22.7286  -29.2396   19.8763 H   0  0  0  0  0  0
  -25.1273  -36.1996   25.0840 H   0  0  0  0  0  0
  -20.9944  -28.3203   24.1452 H   0  0  0  0  0  0
  -20.5666  -26.2253   23.3594 H   0  0  0  0  0  0
  -21.6626  -26.7435   22.1200 H   0  0  0  0  0  0
  -19.6896  -25.6291   21.1230 H   0  0  0  0  0  0
  -19.6681  -27.3193   20.6748 H   0  0  0  0  0  0
  -17.4184  -26.6696   21.4011 H   0  0  0  0  0  0
  -18.0297  -26.0047   22.8995 H   0  0  0  0  0  0
  -19.7924  -30.7247   24.2291 H   0  0  0  0  0  0
  -17.5011  -31.6267   24.5144 H   0  0  0  0  0  0
  -15.5346  -30.2990   23.7653 H   0  0  0  0  0  0
  -15.8654  -28.0816   22.7089 H   0  0  0  0  0  0
  -24.5933  -30.7044   25.7835 H   0  0  0  0  0  0
  -24.8963  -32.2826   26.4998 H   0  0  0  0  0  0
  -25.8135  -30.8820   27.0226 H   0  0  0  0  0  0
  -26.2873  -29.6789   24.1215 H   0  0  0  0  0  0
  -27.4214  -29.7351   25.4531 H   0  0  0  0  0  0
  -27.8656  -30.4435   23.9180 H   0  0  0  0  0  0
  -27.2694  -33.3637   26.2091 H   0  0  0  0  0  0
  -28.3846  -32.6907   25.0283 H   0  0  0  0  0  0
  -28.0766  -31.8450   26.5372 H   0  0  0  0  0  0
  -28.2598  -38.0097   24.7528 H   0  0  0  0  0  0
  -28.1069  -36.2633   24.6286 H   0  0  0  0  0  0
  -27.2301  -37.1443   25.8871 H   0  0  0  0  0  0
  -20.9287  -29.8740   21.6955 H   0  0  0  0  0  0
  -26.0187  -38.2881   24.1428 H   0  0  0  0  0  0
  -28.7505  -21.9278   18.3413 H   0  0  0  0  0  0
  -25.5103  -22.1131   21.2077 H   0  0  0  0  0  0
  -29.5195  -24.1459   19.0775 H   0  0  0  0  0  0
  -26.3027  -24.3345   21.9439 H   0  0  0  0  0  0
  -25.4811  -20.4362   19.4543 H   0  0  0  0  0  0
  -26.9800  -19.7364   20.0139 H   0  0  0  0  0  0
  -29.5427  -25.6143   21.3124 H   0  0  0  0  0  0
  -27.9833  -26.0337   21.9639 H   0  0  0  0  0  0
  -27.9669  -19.9277   17.7528 H   0  0  0  0  0  0
  -26.5736  -20.8198   17.1800 H   0  0  0  0  0  0
  -29.3653  -17.3400   21.3543 H   0  0  0  0  0  0
  -30.7249  -16.9499   22.3718 H   0  0  0  0  0  0
  -25.1266  -18.8257   17.5051 H   0  0  0  0  0  0
  -26.4866  -17.9345   18.1873 H   0  0  0  0  0  0
  -32.2840  -17.1320   20.5608 H   0  0  0  0  0  0
  -31.2421  -18.5307   20.4253 H   0  0  0  0  0  0
  -26.0090  -16.4036   16.4319 H   0  0  0  0  0  0
  -25.0376  -17.4004   15.3523 H   0  0  0  0  0  0
  -31.7413  -18.4984   17.7599 H   0  0  0  0  0  0
  -32.8822  -17.3619   18.4514 H   0  0  0  0  0  0
  -27.0479  -17.5439   13.7861 H   0  0  0  0  0  0
  -26.4327  -15.9051   13.9562 H   0  0  0  0  0  0
  -31.7325  -15.4867   17.1492 H   0  0  0  0  0  0
  -32.7118  -16.6217   16.2322 H   0  0  0  0  0  0
  -29.1113  -15.7800   13.2679 H   0  0  0  0  0  0
  -29.3584  -17.4386   13.8148 H   0  0  0  0  0  0
  -31.3743  -16.0034   14.2577 H   0  0  0  0  0  0
  -30.3955  -14.9558   15.2782 H   0  0  0  0  0  0
  -29.0917  -15.0945   21.4861 H   0  0  0  0  0  0
  1 25  1  0  0  0
  1 30  2  0  0  0
  1 89  1  0  0  0
  2  3  1  0  0  0
  2 25  1  0  0  0
  2 94  1  0  0  0
  2 95  1  0  0  0
  3  4  1  0  0  0
  3 96  1  0  0  0
  3 97  1  0  0  0
  4  5  1  0  0  0
  4 98  1  0  0  0
  4 99  1  0  0  0
  5  6  1  0  0  0
  5 26  1  0  0  0
  5100  1  0  0  0
  6 25  1  0  0  0
  6101  1  0  0  0
  6102  1  0  0  0
  7  8  2  0  0  0
  7 26  1  0  0  0
  7 29  1  0  0  0
  8  9  1  0  0  0
  8 22  1  0  0  0
  9 10  1  0  0  0
  9 27  2  0  0  0
 10 11  2  0  0  0
 10 15  1  0  0  0
 11 12  1  0  0  0
 11103  1  0  0  0
 12 13  2  0  0  0
 12104  1  0  0  0
 13 14  1  0  0  0
 13 31  1  0  0  0
 14 15  2  0  0  0
 14105  1  0  0  0
 15106  1  0  0  0
 16 17  2  0  0  0
 16 21  1  0  0  0
 16 31  1  0  0  0
 17 18  1  0  0  0
 17107  1  0  0  0
 18 19  2  0  0  0
 18108  1  0  0  0
 19 20  1  0  0  0
 19 24  1  0  0  0
 20 21  2  0  0  0
 20109  1  0  0  0
 21 23  1  0  0  0
 22 28  1  0  0  0
 22 32  2  0  0  0
 26 27  1  0  0  0
 28110  1  0  0  0
 28111  1  0  0  0
 29112  1  0  0  0
 29113  1  0  0  0
 33 34  1  0  0  0
 33 66  1  0  0  0
 33 70  2  0  0  0
 34 36  1  0  0  0
 34 59  1  0  0  0
 34114  1  0  0  0
 35 44  2  0  0  0
 35 45  1  0  0  0
 35 68  1  0  0  0
 36 56  1  0  0  0
 36115  1  0  0  0
 37 39  1  0  0  0
 37 47  1  0  0  0
 37 66  1  0  0  0
 37116  1  0  0  0
 38 43  2  0  0  0
 38 46  1  0  0  0
 38 47  1  0  0  0
 39 64  1  0  0  0
 39 67  2  0  0  0
 40 52  1  0  0  0
 40 53  2  0  0  0
 40 58  1  0  0  0
 41117  1  0  0  0
 41118  1  0  0  0
 41119  1  0  0  0
 41 48  1  0  0  0
 42 43  1  0  0  0
 42 66  1  0  0  0
 42120  1  0  0  0
 42121  1  0  0  0
 43 44  1  0  0  0
 44122  1  0  0  0
 45 46  2  0  0  0
 45123  1  0  0  0
 46124  1  0  0  0
 47125  1  0  0  0
 47126  1  0  0  0
 48 56  1  0  0  0
 48 65  1  0  0  0
 48127  1  0  0  0
 49 50  1  0  0  0
 49 53  1  0  0  0
 49 64  1  0  0  0
 49128  1  0  0  0
 50 51  1  0  0  0
 50129  1  0  0  0
 50130  1  0  0  0
 51 52  1  0  0  0
 51131  1  0  0  0
 51132  1  0  0  0
 52133  1  0  0  0
 52134  1  0  0  0
 53 54  1  0  0  0
 54 55  2  0  0  0
 54135  1  0  0  0
 55 57  1  0  0  0
 55136  1  0  0  0
 56 69  2  0  0  0
 57 58  2  0  0  0
 57137  1  0  0  0
 58138  1  0  0  0
 59 60  1  0  0  0
 59 61  1  0  0  0
 59 62  1  0  0  0
 60139  1  0  0  0
 60140  1  0  0  0
 60141  1  0  0  0
 61142  1  0  0  0
 61143  1  0  0  0
 61144  1  0  0  0
 62145  1  0  0  0
 62146  1  0  0  0
 62147  1  0  0  0
 63 65  1  0  0  0
 63148  1  0  0  0
 63149  1  0  0  0
 63150  1  0  0  0
 64151  1  0  0  0
 65152  1  0  0  0
 68 78  1  0  0  0
 71 73  2  0  0  0
 71 75  1  0  0  0
 71153  1  0  0  0
 72 74  1  0  0  0
 72 75  2  0  0  0
 72154  1  0  0  0
 73 76  1  0  0  0
 73155  1  0  0  0
 74 76  2  0  0  0
 74156  1  0  0  0
 75 77  1  0  0  0
 76 78  1  0  0  0
 77 79  1  0  0  0
 77157  1  0  0  0
 77158  1  0  0  0
 78159  1  0  0  0
 78160  1  0  0  0
 79 81  1  0  0  0
 79161  1  0  0  0
 79162  1  0  0  0
 80 82  1  0  0  0
 80 89  1  0  0  0
 80163  1  0  0  0
 80164  1  0  0  0
 81 90  1  0  0  0
 81165  1  0  0  0
 81166  1  0  0  0
 82 91  1  0  0  0
 82167  1  0  0  0
 82168  1  0  0  0
 83 85  1  0  0  0
 83 90  1  0  0  0
 83169  1  0  0  0
 83170  1  0  0  0
 84 86  1  0  0  0
 84 91  1  0  0  0
 84171  1  0  0  0
 84172  1  0  0  0
 85 92  1  0  0  0
 85173  1  0  0  0
 85174  1  0  0  0
 86 93  1  0  0  0
 86175  1  0  0  0
 86176  1  0  0  0
 87 88  1  0  0  0
 87 92  1  0  0  0
 87177  1  0  0  0
 87178  1  0  0  0
 88 93  1  0  0  0
 88179  1  0  0  0
 88180  1  0  0  0
 89181  1  0  0  0
M  ISO  4   1 100  68 101  78 101  89 100
M  END
> <chiral flag>
0

> <version>
0

> <s_m_source_file>
/data/baiqing/PycharmProjects/Reinvent-master-3.2/result/LINK_invent/BTK/process_docking_weight1_custom_product_contain_oxygen_bond_distance_aromatic_linkinvent_7_9_3/rearranged_h_0001.sdf

> <i_m_source_file_index>
65

> <r_mmod_Potential_Energy-OPLS-2005>
-103.600517272949

> <r_mmod_Stretch_Energy-OPLS-2005>
32.430606842041

> <r_mmod_Bend_Energy-OPLS-2005>
97.8940734863281

> <r_mmod_Torsional_Energy-OPLS-2005>
235.301193237305

> <r_mmod_Improper_Torsional_Energy-OPLS-2005>
2.83288073539734

> <r_mmod_Van_der_Waal_Energy-OPLS-2005>
142.498458862305

> <r_mmod_Electrostatic_Energy-OPLS-2005>
-381.53466796875

> <r_mmod_Solvation_Energy-OPLS-2005>
-242.385925292969

> <b_mmod_Minimization_Converged-OPLS-2005>
0

> <r_mmod_RMS_Derivative-OPLS-2005>
1.62179291248322

$$$$
65
                    3D
 Structure written by MMmdl.
151159  0  0  1  0            999 V2000
  -30.6264  -14.6511   20.4934 C   0  0  0  0  0  0
  -30.4401  -12.3970   19.4577 C   0  0  0  0  0  0
  -29.5116  -12.5061   18.2275 C   0  0  0  0  0  0
  -28.0342  -12.3427   18.6380 C   0  0  0  0  0  0
  -27.6523  -13.2182   19.8607 C   0  0  2  0  0  0
  -28.6973  -13.0835   20.9919 C   0  0  0  0  0  0
  -25.2549  -13.8173   20.5674 C   0  0  0  0  0  0
  -24.1818  -13.0440   20.9199 C   0  0  0  0  0  0
  -24.6385  -11.6910   20.8730 C   0  0  0  0  0  0
  -23.9053  -10.4292   21.0400 C   0  0  0  0  0  0
  -24.3606   -9.4209   21.9176 C   0  0  0  0  0  0
  -23.6281   -8.2246   22.0747 C   0  0  0  0  0  0
  -22.4267   -8.0277   21.3539 C   0  0  0  0  0  0
  -21.9901   -9.0253   20.4647 C   0  0  0  0  0  0
  -22.7225  -10.2134   20.3052 C   0  0  0  0  0  0
  -21.6854   -6.0727   22.5277 C   0  0  0  0  0  0
  -21.4015   -6.5633   23.8209 C   0  0  0  0  0  0
  -21.3661   -5.6785   24.9171 C   0  0  0  0  0  0
  -21.6047   -4.3048   24.7221 C   0  0  0  0  0  0
  -21.8818   -3.8139   23.4343 C   0  0  0  0  0  0
  -21.9192   -4.6954   22.3398 C   0  0  0  0  0  0
  -22.7840  -13.5234   21.1863 C   0  0  0  0  0  0
  -22.1661   -4.2141   21.0974 F   0  0  0  0  0  0
  -21.5631   -3.4533   25.7734 F   0  0  0  0  0  0
  -30.0138  -13.4249   20.4288 N   0  0  0  0  0  0
  -26.2979  -12.9357   20.3299 N   0  0  0  0  0  0
  -25.9316  -11.6514   20.5743 N   0  0  0  0  0  0
  -22.0479  -12.8232   22.0422 N   0  0  0  0  0  0
  -25.4234  -15.1889   20.4030 N   0  0  0  0  0  0
  -31.7939  -14.7990   20.1210 O   0  0  0  0  0  0
  -21.6637   -6.8870   21.4240 O   0  0  0  0  0  0
  -22.3528  -14.5537   20.6703 O   0  0  0  0  0  0
  -24.6262  -31.8612   23.2022 C   0  0  0  0  0  0
  -25.9109  -32.4791   23.8352 C   0  0  1  0  0  0
  -27.2237  -27.3209   20.1134 C   0  0  0  0  0  0
  -25.5922  -33.8587   24.2278 N   0  0  0  0  0  0
  -23.4185  -30.4845   21.5465 C   0  0  2  0  0  0
  -24.8645  -28.9418   20.1120 C   0  0  0  0  0  0
  -22.7477  -29.4625   22.4950 C   0  0  0  0  0  0
  -18.0289  -28.1385   22.8498 C   0  0  0  0  0  0
  -24.1486  -36.7292   23.2639 C   0  0  0  0  0  0
  -25.9604  -30.7929   21.3723 C   0  0  0  0  0  0
  -26.0350  -29.4209   20.7137 C   0  0  0  0  0  0
  -27.2180  -28.6236   20.7017 C   0  0  0  0  0  0
  -26.0251  -26.8951   19.4920 C   0  0  0  0  0  0
  -24.8619  -27.6844   19.4916 C   0  0  0  0  0  0
  -23.6323  -29.8204   20.1618 C   0  0  0  0  0  0
  -25.4116  -36.3092   24.0329 C   0  0  1  0  0  0
  -20.5891  -28.3686   23.1294 C   0  0  2  0  0  0
  -20.6774  -26.9411   22.5413 C   0  0  0  0  0  0
  -19.5745  -26.6385   21.5218 C   0  0  0  0  0  0
  -18.1929  -26.7926   22.1635 C   0  0  0  0  0  0
  -19.1543  -28.8851   23.2889 C   0  0  0  0  0  0
  -18.9463  -30.1457   23.8897 C   0  0  0  0  0  0
  -17.6461  -30.6584   24.0568 C   0  0  0  0  0  0
  -25.9052  -34.9462   23.5108 C   0  0  0  0  0  0
  -16.5353  -29.9083   23.6335 C   0  0  0  0  0  0
  -16.7276  -28.6502   23.0355 C   0  0  0  0  0  0
  -26.4485  -31.6597   25.0718 C   0  0  0  0  0  0
  -25.3712  -31.3736   26.1439 C   0  0  0  0  0  0
  -27.0324  -30.3024   24.6158 C   0  0  0  0  0  0
  -27.6044  -32.4329   25.7492 C   0  0  0  0  0  0
  -27.5577  -37.1811   24.8473 C   0  0  0  0  0  0
  -21.4192  -29.3038   22.3688 N   0  0  0  0  0  0
  -26.4297  -37.3785   23.9401 N   0  0  0  0  0  0
  -24.6871  -31.0625   22.0972 N   0  0  0  0  0  0
  -23.4208  -28.8160   23.3021 O   0  0  0  0  0  0
  -28.3434  -26.4727   20.1594 O   0  0  0  0  0  0
  -26.5616  -34.8929   22.4672 O   0  0  0  0  0  0
  -23.5424  -32.1415   23.7351 O   0  0  0  0  0  0
  -31.1629  -19.2852   20.2503 C   0  0  0  0  0  0
  -28.8217  -19.4112   20.7643 C   0  0  0  0  0  0
  -31.1335  -17.8616   20.3566 C   0  0  0  0  0  0
  -28.7896  -17.9852   20.8716 C   0  0  0  0  0  0
  -30.0160  -20.1041   20.4481 C   0  0  0  0  0  0
  -29.9386  -17.1642   20.6737 C   0  0  0  0  0  0
  -30.1650  -21.6712   20.3822 C   0  0  0  0  0  0
  -28.1167  -25.0111   20.0385 C   0  0  0  0  0  0
  -29.3045  -23.9944   20.3254 C   0  0  0  0  0  0
  -29.8139  -15.7088   20.8227 N   0  0  0  0  0  0
  -28.9968  -22.5497   20.2887 O   0  0  0  0  0  0
  -31.4817  -12.5193   19.1579 H   0  0  0  0  0  0
  -30.3726  -11.4030   19.9039 H   0  0  0  0  0  0
  -29.7780  -11.7510   17.4868 H   0  0  0  0  0  0
  -29.6543  -13.4731   17.7422 H   0  0  0  0  0  0
  -27.8764  -11.2903   18.8771 H   0  0  0  0  0  0
  -27.3793  -12.5641   17.7944 H   0  0  0  0  0  0
  -27.6678  -14.2512   19.5118 H   0  0  0  0  0  0
  -28.7090  -12.0646   21.3839 H   0  0  0  0  0  0
  -28.4420  -13.7236   21.8375 H   0  0  0  0  0  0
  -25.2748   -9.5688   22.4755 H   0  0  0  0  0  0
  -23.9992   -7.4635   22.7463 H   0  0  0  0  0  0
  -21.0836   -8.8767   19.8953 H   0  0  0  0  0  0
  -22.3675  -10.9670   19.6164 H   0  0  0  0  0  0
  -21.2011   -7.6142   23.9712 H   0  0  0  0  0  0
  -21.1487   -6.0515   25.9075 H   0  0  0  0  0  0
  -22.0596   -2.7602   23.2843 H   0  0  0  0  0  0
  -22.4080  -11.9904   22.4843 H   0  0  0  0  0  0
  -21.1093  -13.1264   22.2612 H   0  0  0  0  0  0
  -24.6440  -15.8330   20.4830 H   0  0  0  0  0  0
  -26.2524  -15.6203   20.0162 H   0  0  0  0  0  0
  -26.7175  -32.5460   23.1103 H   0  0  0  0  0  0
  -25.0084  -33.9739   25.0428 H   0  0  0  0  0  0
  -22.7116  -31.3044   21.4046 H   0  0  0  0  0  0
  -23.3748  -35.9629   23.3331 H   0  0  0  0  0  0
  -24.3571  -36.8877   22.2048 H   0  0  0  0  0  0
  -23.7246  -37.6504   23.6641 H   0  0  0  0  0  0
  -26.0897  -31.5560   20.6036 H   0  0  0  0  0  0
  -26.8429  -30.8429   21.9984 H   0  0  0  0  0  0
  -28.1173  -28.9897   21.1784 H   0  0  0  0  0  0
  -25.9517  -25.9357   19.0053 H   0  0  0  0  0  0
  -23.9646  -27.3117   19.0162 H   0  0  0  0  0  0
  -23.7501  -30.5973   19.4051 H   0  0  0  0  0  0
  -22.7523  -29.2489   19.8605 H   0  0  0  0  0  0
  -25.1301  -36.1947   25.0822 H   0  0  0  0  0  0
  -20.9991  -28.3253   24.1412 H   0  0  0  0  0  0
  -20.5675  -26.2298   23.3609 H   0  0  0  0  0  0
  -21.6642  -26.7433   22.1204 H   0  0  0  0  0  0
  -19.6897  -25.6298   21.1239 H   0  0  0  0  0  0
  -19.6671  -27.3204   20.6751 H   0  0  0  0  0  0
  -17.4196  -26.6693   21.4034 H   0  0  0  0  0  0
  -18.0322  -26.0062   22.9026 H   0  0  0  0  0  0
  -19.7934  -30.7284   24.2260 H   0  0  0  0  0  0
  -17.5009  -31.6265   24.5171 H   0  0  0  0  0  0
  -15.5353  -30.2981   23.7643 H   0  0  0  0  0  0
  -15.8684  -28.0813   22.7065 H   0  0  0  0  0  0
  -24.5893  -30.7078   25.7766 H   0  0  0  0  0  0
  -24.8893  -32.2904   26.4847 H   0  0  0  0  0  0
  -25.8031  -30.8925   27.0224 H   0  0  0  0  0  0
  -26.2896  -29.6786   24.1171 H   0  0  0  0  0  0
  -27.4018  -29.7265   25.4651 H   0  0  0  0  0  0
  -27.8768  -30.4318   23.9384 H   0  0  0  0  0  0
  -27.2653  -33.3632   26.2066 H   0  0  0  0  0  0
  -28.3862  -32.6884   25.0326 H   0  0  0  0  0  0
  -28.0707  -31.8453   26.5412 H   0  0  0  0  0  0
  -28.2623  -38.0081   24.7495 H   0  0  0  0  0  0
  -28.1045  -36.2614   24.6341 H   0  0  0  0  0  0
  -27.2292  -37.1511   25.8876 H   0  0  0  0  0  0
  -20.9364  -29.8763   21.6903 H   0  0  0  0  0  0
  -26.0180  -38.2864   24.1382 H   0  0  0  0  0  0
  -32.1060  -19.7615   20.0227 H   0  0  0  0  0  0
  -27.9179  -19.9777   20.9432 H   0  0  0  0  0  0
  -32.0566  -17.3200   20.2021 H   0  0  0  0  0  0
  -27.8460  -17.5195   21.1183 H   0  0  0  0  0  0
  -30.8009  -21.8883   19.5221 H   0  0  0  0  0  0
  -30.7412  -21.9668   21.2605 H   0  0  0  0  0  0
  -27.2967  -24.7460   20.7086 H   0  0  0  0  0  0
  -27.7733  -24.8006   19.0259 H   0  0  0  0  0  0
  -29.7207  -24.2188   21.3080 H   0  0  0  0  0  0
  -30.1002  -24.1986   19.6075 H   0  0  0  0  0  0
  -28.9002  -15.4012   21.1154 H   0  0  0  0  0  0
  1 25  1  0  0  0
  1 30  2  0  0  0
  1 80  1  0  0  0
  2  3  1  0  0  0
  2 25  1  0  0  0
  2 82  1  0  0  0
  2 83  1  0  0  0
  3  4  1  0  0  0
  3 84  1  0  0  0
  3 85  1  0  0  0
  4  5  1  0  0  0
  4 86  1  0  0  0
  4 87  1  0  0  0
  5  6  1  0  0  0
  5 26  1  0  0  0
  5 88  1  0  0  0
  6 25  1  0  0  0
  6 89  1  0  0  0
  6 90  1  0  0  0
  7  8  2  0  0  0
  7 26  1  0  0  0
  7 29  1  0  0  0
  8  9  1  0  0  0
  8 22  1  0  0  0
  9 10  1  0  0  0
  9 27  2  0  0  0
 10 11  2  0  0  0
 10 15  1  0  0  0
 11 12  1  0  0  0
 11 91  1  0  0  0
 12 13  2  0  0  0
 12 92  1  0  0  0
 13 14  1  0  0  0
 13 31  1  0  0  0
 14 15  2  0  0  0
 14 93  1  0  0  0
 15 94  1  0  0  0
 16 17  2  0  0  0
 16 21  1  0  0  0
 16 31  1  0  0  0
 17 18  1  0  0  0
 17 95  1  0  0  0
 18 19  2  0  0  0
 18 96  1  0  0  0
 19 20  1  0  0  0
 19 24  1  0  0  0
 20 21  2  0  0  0
 20 97  1  0  0  0
 21 23  1  0  0  0
 22 28  1  0  0  0
 22 32  2  0  0  0
 26 27  1  0  0  0
 28 98  1  0  0  0
 28 99  1  0  0  0
 29100  1  0  0  0
 29101  1  0  0  0
 33 34  1  0  0  0
 33 66  1  0  0  0
 33 70  2  0  0  0
 34 36  1  0  0  0
 34 59  1  0  0  0
 34102  1  0  0  0
 35 44  2  0  0  0
 35 45  1  0  0  0
 35 68  1  0  0  0
 36 56  1  0  0  0
 36103  1  0  0  0
 37 39  1  0  0  0
 37 47  1  0  0  0
 37 66  1  0  0  0
 37104  1  0  0  0
 38 43  2  0  0  0
 38 46  1  0  0  0
 38 47  1  0  0  0
 39 64  1  0  0  0
 39 67  2  0  0  0
 40 52  1  0  0  0
 40 53  2  0  0  0
 40 58  1  0  0  0
 41105  1  0  0  0
 41106  1  0  0  0
 41107  1  0  0  0
 41 48  1  0  0  0
 42 43  1  0  0  0
 42 66  1  0  0  0
 42108  1  0  0  0
 42109  1  0  0  0
 43 44  1  0  0  0
 44110  1  0  0  0
 45 46  2  0  0  0
 45111  1  0  0  0
 46112  1  0  0  0
 47113  1  0  0  0
 47114  1  0  0  0
 48 56  1  0  0  0
 48 65  1  0  0  0
 48115  1  0  0  0
 49 50  1  0  0  0
 49 53  1  0  0  0
 49 64  1  0  0  0
 49116  1  0  0  0
 50 51  1  0  0  0
 50117  1  0  0  0
 50118  1  0  0  0
 51 52  1  0  0  0
 51119  1  0  0  0
 51120  1  0  0  0
 52121  1  0  0  0
 52122  1  0  0  0
 53 54  1  0  0  0
 54 55  2  0  0  0
 54123  1  0  0  0
 55 57  1  0  0  0
 55124  1  0  0  0
 56 69  2  0  0  0
 57 58  2  0  0  0
 57125  1  0  0  0
 58126  1  0  0  0
 59 60  1  0  0  0
 59 61  1  0  0  0
 59 62  1  0  0  0
 60127  1  0  0  0
 60128  1  0  0  0
 60129  1  0  0  0
 61130  1  0  0  0
 61131  1  0  0  0
 61132  1  0  0  0
 62133  1  0  0  0
 62134  1  0  0  0
 62135  1  0  0  0
 63 65  1  0  0  0
 63136  1  0  0  0
 63137  1  0  0  0
 63138  1  0  0  0
 64139  1  0  0  0
 65140  1  0  0  0
 68 78  1  0  0  0
 71 73  2  0  0  0
 71 75  1  0  0  0
 71141  1  0  0  0
 72 74  1  0  0  0
 72 75  2  0  0  0
 72142  1  0  0  0
 73 76  1  0  0  0
 73143  1  0  0  0
 74 76  2  0  0  0
 74144  1  0  0  0
 75 77  1  0  0  0
 76 80  1  0  0  0
 77 81  1  0  0  0
 77145  1  0  0  0
 77146  1  0  0  0
 78 79  1  0  0  0
 78147  1  0  0  0
 78148  1  0  0  0
 79 81  1  0  0  0
 79149  1  0  0  0
 79150  1  0  0  0
 80151  1  0  0  0
M  ISO  4   1 100  68 101  78 101  80 100
M  END
> <chiral flag>
0

> <version>
0

> <s_m_source_file>
/data/baiqing/PycharmProjects/Reinvent-master-3.2/result/LINK_invent/BTK/process_docking_weight1_custom_product_contain_oxygen_bond_distance_aromatic_linkinvent_7_9_3/rearranged_h_0001.sdf

> <i_m_source_file_index>
66

> <r_mmod_Potential_Energy-OPLS-2005>
71.3989562988281

> <r_mmod_Stretch_Energy-OPLS-2005>
81.4491424560547

> <r_mmod_Bend_Energy-OPLS-2005>
139.137191772461

> <r_mmod_Torsional_Energy-OPLS-2005>
214.261306762695

> <r_mmod_Improper_Torsional_Energy-OPLS-2005>
4.55642652511597

> <r_mmod_Van_der_Waal_Energy-OPLS-2005>
145.136138916016

> <r_mmod_Electrostatic_Energy-OPLS-2005>
-354.966857910156

> <r_mmod_Solvation_Energy-OPLS-2005>
-208.114410400391

> <b_mmod_Minimization_Converged-OPLS-2005>
0

> <r_mmod_RMS_Derivative-OPLS-2005>
1.38521814346313

$$$$
66
                    3D
 Structure written by MMmdl.
157165  0  0  1  0            999 V2000
  -30.7266  -14.3951   20.6775 C   0  0  0  0  0  0
  -30.4299  -12.2979   19.4017 C   0  0  0  0  0  0
  -29.4945  -12.5378   18.1998 C   0  0  0  0  0  0
  -28.0167  -12.3859   18.6105 C   0  0  0  0  0  0
  -27.6713  -13.2007   19.8838 C   0  0  2  0  0  0
  -28.7067  -12.9256   20.9972 C   0  0  0  0  0  0
  -25.2629  -13.8150   20.5662 C   0  0  0  0  0  0
  -24.1863  -13.0434   20.9160 C   0  0  0  0  0  0
  -24.6399  -11.6892   20.8705 C   0  0  0  0  0  0
  -23.9060  -10.4284   21.0386 C   0  0  0  0  0  0
  -24.3607   -9.4204   21.9174 C   0  0  0  0  0  0
  -23.6283   -8.2239   22.0750 C   0  0  0  0  0  0
  -22.4266   -8.0274   21.3541 C   0  0  0  0  0  0
  -21.9892   -9.0247   20.4648 C   0  0  0  0  0  0
  -22.7220  -10.2127   20.3048 C   0  0  0  0  0  0
  -21.6850   -6.0735   22.5279 C   0  0  0  0  0  0
  -21.4015   -6.5641   23.8210 C   0  0  0  0  0  0
  -21.3653   -5.6784   24.9169 C   0  0  0  0  0  0
  -21.6043   -4.3050   24.7220 C   0  0  0  0  0  0
  -21.8821   -3.8143   23.4339 C   0  0  0  0  0  0
  -21.9188   -4.6962   22.3393 C   0  0  0  0  0  0
  -22.7887  -13.5241   21.1826 C   0  0  0  0  0  0
  -22.1656   -4.2146   21.0975 F   0  0  0  0  0  0
  -21.5620   -3.4534   25.7735 F   0  0  0  0  0  0
  -30.0563  -13.2291   20.4770 N   0  0  0  0  0  0
  -26.3073  -12.9307   20.3381 N   0  0  0  0  0  0
  -25.9324  -11.6468   20.5726 N   0  0  0  0  0  0
  -22.0517  -12.8241   22.0386 N   0  0  0  0  0  0
  -25.4354  -15.1868   20.4071 N   0  0  0  0  0  0
  -31.7353  -14.7181   20.0418 O   0  0  0  0  0  0
  -21.6625   -6.8876   21.4240 O   0  0  0  0  0  0
  -22.3577  -14.5545   20.6671 O   0  0  0  0  0  0
  -24.6129  -31.8704   23.2126 C   0  0  0  0  0  0
  -25.9031  -32.4838   23.8410 C   0  0  1  0  0  0
  -27.2365  -27.4596   20.0932 C   0  0  0  0  0  0
  -25.5885  -33.8631   24.2337 N   0  0  0  0  0  0
  -23.4004  -30.4940   21.5508 C   0  0  2  0  0  0
  -24.8491  -28.9604   20.1185 C   0  0  0  0  0  0
  -22.7402  -29.4683   22.4997 C   0  0  0  0  0  0
  -18.0279  -28.1362   22.8519 C   0  0  0  0  0  0
  -24.1483  -36.7323   23.2635 C   0  0  0  0  0  0
  -25.9276  -30.8402   21.3670 C   0  0  0  0  0  0
  -26.0060  -29.4742   20.7200 C   0  0  0  0  0  0
  -27.2046  -28.7274   20.7154 C   0  0  0  0  0  0
  -26.0728  -26.9609   19.4748 C   0  0  0  0  0  0
  -24.8754  -27.6998   19.4955 C   0  0  0  0  0  0
  -23.6099  -29.8252   20.1655 C   0  0  0  0  0  0
  -25.4106  -36.3124   24.0339 C   0  0  1  0  0  0
  -20.5868  -28.3663   23.1309 C   0  0  2  0  0  0
  -20.6793  -26.9416   22.5367 C   0  0  0  0  0  0
  -19.5726  -26.6347   21.5234 C   0  0  0  0  0  0
  -18.1932  -26.7885   22.1701 C   0  0  0  0  0  0
  -19.1528  -28.8834   23.2906 C   0  0  0  0  0  0
  -18.9459  -30.1442   23.8913 C   0  0  0  0  0  0
  -17.6459  -30.6582   24.0560 C   0  0  0  0  0  0
  -25.9021  -34.9483   23.5133 C   0  0  0  0  0  0
  -16.5347  -29.9084   23.6324 C   0  0  0  0  0  0
  -16.7267  -28.6497   23.0354 C   0  0  0  0  0  0
  -26.4464  -31.6607   25.0728 C   0  0  0  0  0  0
  -25.3730  -31.3721   26.1475 C   0  0  0  0  0  0
  -27.0295  -30.3047   24.6102 C   0  0  0  0  0  0
  -27.6043  -32.4326   25.7495 C   0  0  0  0  0  0
  -27.5586  -37.1819   24.8462 C   0  0  0  0  0  0
  -21.4134  -29.3050   22.3746 N   0  0  0  0  0  0
  -26.4300  -37.3800   23.9402 N   0  0  0  0  0  0
  -24.6648  -31.0815   22.1023 N   0  0  0  0  0  0
  -23.4188  -28.8209   23.3018 O   0  0  0  0  0  0
  -28.3777  -26.6973   20.0617 O   0  0  0  0  0  0
  -26.5587  -34.8930   22.4696 O   0  0  0  0  0  0
  -23.5322  -32.1444   23.7526 O   0  0  0  0  0  0
  -29.6299  -18.7189   20.6702 C   0  0  0  0  0  0
  -29.0585  -18.3998   23.0065 C   0  0  0  0  0  0
  -30.0826  -17.3818   20.5976 C   0  0  0  0  0  0
  -29.4953  -17.0634   22.9352 C   0  0  0  0  0  0
  -29.0942  -19.2382   21.8726 C   0  0  0  0  0  0
  -29.9880  -16.5314   21.7266 C   0  0  0  0  0  0
  -28.4636  -20.5712   21.9753 C   0  0  0  0  0  0
  -28.1259  -21.3958   20.9634 C   0  0  0  0  0  0
  -27.3570  -22.6981   21.1513 C   0  0  0  0  0  0
  -29.0439  -24.5773   21.0607 C   0  0  0  0  0  0
  -28.6968  -26.0612   21.3025 C   0  0  0  0  0  0
  -30.2591  -15.1339   21.6959 N   0  0  0  0  0  0
  -27.9235  -23.8509   20.4151 N   0  3  0  0  0  0
  -31.4718  -12.4136   19.0987 H   0  0  0  0  0  0
  -30.3401  -11.2711   19.7576 H   0  0  0  0  0  0
  -29.7352  -11.8425   17.3939 H   0  0  0  0  0  0
  -29.6633  -13.5394   17.7995 H   0  0  0  0  0  0
  -27.8269  -11.3262   18.7835 H   0  0  0  0  0  0
  -27.3641  -12.6797   17.7876 H   0  0  0  0  0  0
  -27.7342  -14.2572   19.6224 H   0  0  0  0  0  0
  -28.6662  -11.8767   21.2954 H   0  0  0  0  0  0
  -28.4422  -13.4829   21.8951 H   0  0  0  0  0  0
  -25.2752   -9.5674   22.4755 H   0  0  0  0  0  0
  -23.9980   -7.4634   22.7478 H   0  0  0  0  0  0
  -21.0814   -8.8771   19.8971 H   0  0  0  0  0  0
  -22.3675  -10.9662   19.6160 H   0  0  0  0  0  0
  -21.2016   -7.6149   23.9721 H   0  0  0  0  0  0
  -21.1477   -6.0508   25.9075 H   0  0  0  0  0  0
  -22.0611   -2.7609   23.2830 H   0  0  0  0  0  0
  -22.4101  -11.9884   22.4755 H   0  0  0  0  0  0
  -21.1161  -13.1318   22.2616 H   0  0  0  0  0  0
  -24.6782  -15.8497   20.5301 H   0  0  0  0  0  0
  -26.2997  -15.6257   20.1126 H   0  0  0  0  0  0
  -26.7117  -32.5548   23.1195 H   0  0  0  0  0  0
  -25.0069  -33.9802   25.0506 H   0  0  0  0  0  0
  -22.6892  -31.3107   21.4123 H   0  0  0  0  0  0
  -23.3737  -35.9660   23.3314 H   0  0  0  0  0  0
  -24.3582  -36.8912   22.2043 H   0  0  0  0  0  0
  -23.7244  -37.6538   23.6636 H   0  0  0  0  0  0
  -26.0371  -31.6062   20.5974 H   0  0  0  0  0  0
  -26.8163  -30.8943   21.9838 H   0  0  0  0  0  0
  -28.0977  -29.1242   21.1780 H   0  0  0  0  0  0
  -26.0885  -26.0021   18.9761 H   0  0  0  0  0  0
  -23.9880  -27.3022   19.0214 H   0  0  0  0  0  0
  -23.7177  -30.5987   19.4039 H   0  0  0  0  0  0
  -22.7356  -29.2408   19.8715 H   0  0  0  0  0  0
  -25.1292  -36.2002   25.0834 H   0  0  0  0  0  0
  -20.9963  -28.3194   24.1423 H   0  0  0  0  0  0
  -20.5817  -26.2260   23.3546 H   0  0  0  0  0  0
  -21.6637  -26.7523   22.1069 H   0  0  0  0  0  0
  -19.6870  -25.6242   21.1292 H   0  0  0  0  0  0
  -19.6603  -27.3136   20.6747 H   0  0  0  0  0  0
  -17.4160  -26.6558   21.4154 H   0  0  0  0  0  0
  -18.0409  -26.0065   22.9164 H   0  0  0  0  0  0
  -19.7940  -30.7265   24.2272 H   0  0  0  0  0  0
  -17.5013  -31.6262   24.5155 H   0  0  0  0  0  0
  -15.5349  -30.2990   23.7638 H   0  0  0  0  0  0
  -15.8669  -28.0814   22.7058 H   0  0  0  0  0  0
  -24.5891  -30.7088   25.7817 H   0  0  0  0  0  0
  -24.8944  -32.2880   26.4942 H   0  0  0  0  0  0
  -25.8075  -30.8875   27.0225 H   0  0  0  0  0  0
  -26.2846  -29.6818   24.1137 H   0  0  0  0  0  0
  -27.4043  -29.7280   25.4570 H   0  0  0  0  0  0
  -27.8688  -30.4375   23.9272 H   0  0  0  0  0  0
  -27.2659  -33.3608   26.2118 H   0  0  0  0  0  0
  -28.3826  -32.6914   25.0305 H   0  0  0  0  0  0
  -28.0736  -31.8420   26.5374 H   0  0  0  0  0  0
  -28.2617  -38.0106   24.7515 H   0  0  0  0  0  0
  -28.1074  -36.2642   24.6295 H   0  0  0  0  0  0
  -27.2303  -37.1479   25.8865 H   0  0  0  0  0  0
  -20.9279  -29.8794   21.7004 H   0  0  0  0  0  0
  -26.0191  -38.2877   24.1399 H   0  0  0  0  0  0
  -29.6728  -19.3283   19.7793 H   0  0  0  0  0  0
  -28.6468  -18.7653   23.9372 H   0  0  0  0  0  0
  -30.4508  -17.0125   19.6507 H   0  0  0  0  0  0
  -29.4091  -16.4385   23.8138 H   0  0  0  0  0  0
  -28.2259  -20.8926   22.9804 H   0  0  0  0  0  0
  -28.3550  -21.1263   19.9432 H   0  0  0  0  0  0
  -27.2296  -22.9357   22.2092 H   0  0  0  0  0  0
  -26.3555  -22.5222   20.7582 H   0  0  0  0  0  0
  -29.3140  -24.1056   22.0064 H   0  0  0  0  0  0
  -29.9235  -24.5068   20.4211 H   0  0  0  0  0  0
  -29.5518  -26.5736   21.7464 H   0  0  0  0  0  0
  -27.8801  -26.1361   22.0250 H   0  0  0  0  0  0
  -29.7173  -14.5962   22.3547 H   0  0  0  0  0  0
  -27.1755  -24.5168   20.3053 H   0  0  0  0  0  0
  -28.1877  -23.5662   19.4851 H   0  0  0  0  0  0
  1 25  1  0  0  0
  1 30  2  0  0  0
  1 82  1  0  0  0
  2  3  1  0  0  0
  2 25  1  0  0  0
  2 84  1  0  0  0
  2 85  1  0  0  0
  3  4  1  0  0  0
  3 86  1  0  0  0
  3 87  1  0  0  0
  4  5  1  0  0  0
  4 88  1  0  0  0
  4 89  1  0  0  0
  5  6  1  0  0  0
  5 26  1  0  0  0
  5 90  1  0  0  0
  6 25  1  0  0  0
  6 91  1  0  0  0
  6 92  1  0  0  0
  7  8  2  0  0  0
  7 26  1  0  0  0
  7 29  1  0  0  0
  8  9  1  0  0  0
  8 22  1  0  0  0
  9 10  1  0  0  0
  9 27  2  0  0  0
 10 11  2  0  0  0
 10 15  1  0  0  0
 11 12  1  0  0  0
 11 93  1  0  0  0
 12 13  2  0  0  0
 12 94  1  0  0  0
 13 14  1  0  0  0
 13 31  1  0  0  0
 14 15  2  0  0  0
 14 95  1  0  0  0
 15 96  1  0  0  0
 16 17  2  0  0  0
 16 21  1  0  0  0
 16 31  1  0  0  0
 17 18  1  0  0  0
 17 97  1  0  0  0
 18 19  2  0  0  0
 18 98  1  0  0  0
 19 20  1  0  0  0
 19 24  1  0  0  0
 20 21  2  0  0  0
 20 99  1  0  0  0
 21 23  1  0  0  0
 22 28  1  0  0  0
 22 32  2  0  0  0
 26 27  1  0  0  0
 28100  1  0  0  0
 28101  1  0  0  0
 29102  1  0  0  0
 29103  1  0  0  0
 33 34  1  0  0  0
 33 66  1  0  0  0
 33 70  2  0  0  0
 34 36  1  0  0  0
 34 59  1  0  0  0
 34104  1  0  0  0
 35 44  2  0  0  0
 35 45  1  0  0  0
 35 68  1  0  0  0
 36 56  1  0  0  0
 36105  1  0  0  0
 37 39  1  0  0  0
 37 47  1  0  0  0
 37 66  1  0  0  0
 37106  1  0  0  0
 38 43  2  0  0  0
 38 46  1  0  0  0
 38 47  1  0  0  0
 39 64  1  0  0  0
 39 67  2  0  0  0
 40 52  1  0  0  0
 40 53  2  0  0  0
 40 58  1  0  0  0
 41107  1  0  0  0
 41108  1  0  0  0
 41109  1  0  0  0
 41 48  1  0  0  0
 42 43  1  0  0  0
 42 66  1  0  0  0
 42110  1  0  0  0
 42111  1  0  0  0
 43 44  1  0  0  0
 44112  1  0  0  0
 45 46  2  0  0  0
 45113  1  0  0  0
 46114  1  0  0  0
 47115  1  0  0  0
 47116  1  0  0  0
 48 56  1  0  0  0
 48 65  1  0  0  0
 48117  1  0  0  0
 49 50  1  0  0  0
 49 53  1  0  0  0
 49 64  1  0  0  0
 49118  1  0  0  0
 50 51  1  0  0  0
 50119  1  0  0  0
 50120  1  0  0  0
 51 52  1  0  0  0
 51121  1  0  0  0
 51122  1  0  0  0
 52123  1  0  0  0
 52124  1  0  0  0
 53 54  1  0  0  0
 54 55  2  0  0  0
 54125  1  0  0  0
 55 57  1  0  0  0
 55126  1  0  0  0
 56 69  2  0  0  0
 57 58  2  0  0  0
 57127  1  0  0  0
 58128  1  0  0  0
 59 60  1  0  0  0
 59 61  1  0  0  0
 59 62  1  0  0  0
 60129  1  0  0  0
 60130  1  0  0  0
 60131  1  0  0  0
 61132  1  0  0  0
 61133  1  0  0  0
 61134  1  0  0  0
 62135  1  0  0  0
 62136  1  0  0  0
 62137  1  0  0  0
 63 65  1  0  0  0
 63138  1  0  0  0
 63139  1  0  0  0
 63140  1  0  0  0
 64141  1  0  0  0
 65142  1  0  0  0
 68 81  1  0  0  0
 71 73  2  0  0  0
 71 75  1  0  0  0
 71143  1  0  0  0
 72 74  1  0  0  0
 72 75  2  0  0  0
 72144  1  0  0  0
 73 76  1  0  0  0
 73145  1  0  0  0
 74 76  2  0  0  0
 74146  1  0  0  0
 75 77  1  0  0  0
 76 82  1  0  0  0
 77 78  2  0  0  0
 77147  1  0  0  0
 78 79  1  0  0  0
 78148  1  0  0  0
 79 83  1  0  0  0
 79149  1  0  0  0
 79150  1  0  0  0
 80 81  1  0  0  0
 80 83  1  0  0  0
 80151  1  0  0  0
 80152  1  0  0  0
 81153  1  0  0  0
 81154  1  0  0  0
 82155  1  0  0  0
 83156  1  0  0  0
 83157  1  0  0  0
M  CHG  1  83   1
M  ISO  4   1 100  68 101  81 101  82 100
M  END
> <chiral flag>
0

> <version>
0

> <s_m_source_file>
/data/baiqing/PycharmProjects/Reinvent-master-3.2/result/LINK_invent/BTK/process_docking_weight1_custom_product_contain_oxygen_bond_distance_aromatic_linkinvent_7_9_3/rearranged_h_0001.sdf

> <i_m_source_file_index>
67

> <r_mmod_Potential_Energy-OPLS-2005>
-169.976821899414

> <r_mmod_Stretch_Energy-OPLS-2005>
33.646411895752

> <r_mmod_Bend_Energy-OPLS-2005>
95.2066345214844

> <r_mmod_Torsional_Energy-OPLS-2005>
264.603546142578

> <r_mmod_Improper_Torsional_Energy-OPLS-2005>
5.14249658584595

> <r_mmod_Van_der_Waal_Energy-OPLS-2005>
146.88850402832

> <r_mmod_Electrostatic_Energy-OPLS-2005>
-285.930297851562

> <r_mmod_Solvation_Energy-OPLS-2005>
-437.403045654297

> <b_mmod_Minimization_Converged-OPLS-2005>
0

> <r_mmod_RMS_Derivative-OPLS-2005>
1.77667689323425

$$$$
67
                    3D
 Structure written by MMmdl.
148156  0  0  1  0            999 V2000
  -30.5066  -14.9122   20.4364 C   0  0  0  0  0  0
  -30.4572  -12.5594   19.4935 C   0  0  0  0  0  0
  -29.5282  -12.5199   18.2554 C   0  0  0  0  0  0
  -28.0576  -12.3117   18.6710 C   0  0  0  0  0  0
  -27.6394  -13.2328   19.8459 C   0  0  2  0  0  0
  -28.6827  -13.2097   20.9842 C   0  0  0  0  0  0
  -25.2503  -13.8179   20.5680 C   0  0  0  0  0  0
  -24.1804  -13.0432   20.9234 C   0  0  0  0  0  0
  -24.6391  -11.6909   20.8755 C   0  0  0  0  0  0
  -23.9061  -10.4290   21.0411 C   0  0  0  0  0  0
  -24.3611   -9.4205   21.9186 C   0  0  0  0  0  0
  -23.6288   -8.2238   22.0750 C   0  0  0  0  0  0
  -22.4271   -8.0275   21.3541 C   0  0  0  0  0  0
  -21.9904   -9.0252   20.4648 C   0  0  0  0  0  0
  -22.7230  -10.2135   20.3062 C   0  0  0  0  0  0
  -21.6854   -6.0729   22.5277 C   0  0  0  0  0  0
  -21.4013   -6.5632   23.8208 C   0  0  0  0  0  0
  -21.3661   -5.6786   24.9171 C   0  0  0  0  0  0
  -21.6045   -4.3047   24.7224 C   0  0  0  0  0  0
  -21.8820   -3.8140   23.4344 C   0  0  0  0  0  0
  -21.9192   -4.6957   22.3400 C   0  0  0  0  0  0
  -22.7825  -13.5222   21.1889 C   0  0  0  0  0  0
  -22.1662   -4.2144   21.0978 F   0  0  0  0  0  0
  -21.5632   -3.4531   25.7736 F   0  0  0  0  0  0
  -29.9671  -13.6300   20.4031 N   0  0  0  0  0  0
  -26.2923  -12.9383   20.3242 N   0  0  0  0  0  0
  -25.9319  -11.6532   20.5738 N   0  0  0  0  0  0
  -22.0468  -12.8219   22.0447 N   0  0  0  0  0  0
  -25.4177  -15.1897   20.4031 N   0  0  0  0  0  0
  -31.6939  -15.0568   20.1209 O   0  0  0  0  0  0
  -21.6638   -6.8871   21.4237 O   0  0  0  0  0  0
  -22.3514  -14.5527   20.6726 O   0  0  0  0  0  0
  -24.6416  -31.8453   23.1901 C   0  0  0  0  0  0
  -25.9200  -32.4701   23.8277 C   0  0  1  0  0  0
  -27.2194  -27.1518   20.1453 C   0  0  0  0  0  0
  -25.5965  -33.8506   24.2202 N   0  0  0  0  0  0
  -23.4439  -30.4666   21.5351 C   0  0  2  0  0  0
  -24.8937  -28.8974   20.1099 C   0  0  0  0  0  0
  -22.7560  -29.4552   22.4860 C   0  0  0  0  0  0
  -18.0312  -28.1393   22.8469 C   0  0  0  0  0  0
  -24.1494  -36.7247   23.2641 C   0  0  0  0  0  0
  -25.9996  -30.7244   21.3866 C   0  0  0  0  0  0
  -26.0718  -29.3381   20.7263 C   0  0  0  0  0  0
  -27.2360  -28.4820   20.7257 C   0  0  0  0  0  0
  -26.0120  -26.8101   19.4939 C   0  0  0  0  0  0
  -24.8768  -27.6464   19.4781 C   0  0  0  0  0  0
  -23.6696  -29.7981   20.1537 C   0  0  0  0  0  0
  -25.4127  -36.3034   24.0317 C   0  0  1  0  0  0
  -20.5919  -28.3710   23.1237 C   0  0  2  0  0  0
  -20.6792  -26.9413   22.5410 C   0  0  0  0  0  0
  -19.5774  -26.6379   21.5205 C   0  0  0  0  0  0
  -18.1953  -26.7936   22.1610 C   0  0  0  0  0  0
  -19.1566  -28.8871   23.2846 C   0  0  0  0  0  0
  -18.9483  -30.1470   23.8866 C   0  0  0  0  0  0
  -17.6479  -30.6586   24.0558 C   0  0  0  0  0  0
  -25.9073  -34.9409   23.5067 C   0  0  0  0  0  0
  -16.5370  -29.9077   23.6341 C   0  0  0  0  0  0
  -16.7296  -28.6502   23.0351 C   0  0  0  0  0  0
  -26.4529  -31.6562   25.0707 C   0  0  0  0  0  0
  -25.3724  -31.3768   26.1419 C   0  0  0  0  0  0
  -27.0377  -30.2956   24.6276 C   0  0  0  0  0  0
  -27.6086  -32.4308   25.7471 C   0  0  0  0  0  0
  -27.5583  -37.1776   24.8464 C   0  0  0  0  0  0
  -21.4255  -29.3039   22.3609 N   0  0  0  0  0  0
  -26.4289  -37.3749   23.9414 N   0  0  0  0  0  0
  -24.7147  -31.0329   22.0924 N   0  0  0  0  0  0
  -23.4217  -28.8100   23.2999 O   0  0  0  0  0  0
  -28.2775  -26.1735   20.2098 O   0  0  0  0  0  0
  -26.5645  -34.8903   22.4634 O   0  0  0  0  0  0
  -23.5543  -32.1324   23.7138 O   0  0  0  0  0  0
  -28.2153  -18.0953   20.7491 C   0  0  0  0  0  0
  -30.4833  -18.5413   20.2926 C   0  0  0  0  0  0
  -27.9193  -19.5039   20.6778 C   0  0  0  0  0  0
  -30.1796  -19.9799   20.2323 C   0  0  0  0  0  0
  -29.5053  -17.5105   20.5545 C   0  0  0  0  0  0
  -28.8633  -20.5436   20.4177 C   0  0  0  0  0  0
  -28.9684  -23.3056   20.2949 C   0  0  0  0  0  0
  -27.9754  -24.6526   20.0919 C   0  0  0  0  0  0
  -29.6169  -15.9865   20.6674 N   0  0  0  0  0  0
  -28.3409  -21.9105   20.3531 O   0  0  0  0  0  0
  -31.4885  -12.7346   19.1825 H   0  0  0  0  0  0
  -30.4604  -11.5956   20.0058 H   0  0  0  0  0  0
  -29.8405  -11.7242   17.5774 H   0  0  0  0  0  0
  -29.6216  -13.4520   17.6963 H   0  0  0  0  0  0
  -27.9473  -11.2684   18.9696 H   0  0  0  0  0  0
  -27.3947  -12.4547   17.8166 H   0  0  0  0  0  0
  -27.6179  -14.2430   19.4364 H   0  0  0  0  0  0
  -28.7602  -12.2129   21.4208 H   0  0  0  0  0  0
  -28.3848  -13.8728   21.7977 H   0  0  0  0  0  0
  -25.2756   -9.5682   22.4757 H   0  0  0  0  0  0
  -24.0001   -7.4627   22.7461 H   0  0  0  0  0  0
  -21.0838   -8.8770   19.8954 H   0  0  0  0  0  0
  -22.3684  -10.9672   19.6174 H   0  0  0  0  0  0
  -21.2003   -7.6140   23.9709 H   0  0  0  0  0  0
  -21.1487   -6.0516   25.9075 H   0  0  0  0  0  0
  -22.0599   -2.7601   23.2843 H   0  0  0  0  0  0
  -22.4081  -11.9886   22.4849 H   0  0  0  0  0  0
  -21.1085  -13.1247   22.2656 H   0  0  0  0  0  0
  -24.6341  -15.8285   20.4849 H   0  0  0  0  0  0
  -26.2245  -15.6094   19.9608 H   0  0  0  0  0  0
  -26.7255  -32.5312   23.0996 H   0  0  0  0  0  0
  -25.0126  -33.9625   25.0360 H   0  0  0  0  0  0
  -22.7454  -31.2921   21.3833 H   0  0  0  0  0  0
  -23.3765  -35.9568   23.3292 H   0  0  0  0  0  0
  -24.3585  -36.8891   22.2059 H   0  0  0  0  0  0
  -23.7234  -37.6436   23.6677 H   0  0  0  0  0  0
  -26.1556  -31.4817   20.6172 H   0  0  0  0  0  0
  -26.8696  -30.7724   22.0293 H   0  0  0  0  0  0
  -28.1328  -28.8166   21.2280 H   0  0  0  0  0  0
  -25.9048  -25.8561   19.0019 H   0  0  0  0  0  0
  -23.9779  -27.3044   18.9838 H   0  0  0  0  0  0
  -23.8045  -30.5736   19.3988 H   0  0  0  0  0  0
  -22.7847  -29.2399   19.8437 H   0  0  0  0  0  0
  -25.1317  -36.1861   25.0809 H   0  0  0  0  0  0
  -21.0016  -28.3300   24.1354 H   0  0  0  0  0  0
  -20.5666  -26.2323   23.3628 H   0  0  0  0  0  0
  -21.6663  -26.7413   22.1221 H   0  0  0  0  0  0
  -19.6932  -25.6284   21.1253 H   0  0  0  0  0  0
  -19.6722  -27.3173   20.6721 H   0  0  0  0  0  0
  -17.4228  -26.6678   21.4008 H   0  0  0  0  0  0
  -18.0350  -26.0083   22.9011 H   0  0  0  0  0  0
  -19.7958  -30.7296   24.2215 H   0  0  0  0  0  0
  -17.5033  -31.6263   24.5169 H   0  0  0  0  0  0
  -15.5368  -30.2966   23.7685 H   0  0  0  0  0  0
  -15.8700  -28.0816   22.7066 H   0  0  0  0  0  0
  -24.5925  -30.7071   25.7773 H   0  0  0  0  0  0
  -24.8874  -32.2948   26.4746 H   0  0  0  0  0  0
  -25.8030  -30.9039   27.0255 H   0  0  0  0  0  0
  -26.2979  -29.6681   24.1289 H   0  0  0  0  0  0
  -27.4002  -29.7261   25.4844 H   0  0  0  0  0  0
  -27.8892  -30.4194   23.9579 H   0  0  0  0  0  0
  -27.2718  -33.3642   26.1990 H   0  0  0  0  0  0
  -28.3920  -32.6807   25.0300 H   0  0  0  0  0  0
  -28.0715  -31.8451   26.5425 H   0  0  0  0  0  0
  -28.2603  -38.0072   24.7518 H   0  0  0  0  0  0
  -28.1082  -36.2608   24.6283 H   0  0  0  0  0  0
  -27.2305  -37.1418   25.8868 H   0  0  0  0  0  0
  -20.9454  -29.8756   21.6799 H   0  0  0  0  0  0
  -26.0160  -38.2816   24.1435 H   0  0  0  0  0  0
  -27.3841  -17.4389   20.9640 H   0  0  0  0  0  0
  -31.5080  -18.2375   20.1325 H   0  0  0  0  0  0
  -26.8912  -19.7983   20.8356 H   0  0  0  0  0  0
  -30.9941  -20.6580   20.0223 H   0  0  0  0  0  0
  -29.5285  -23.4334   21.2214 H   0  0  0  0  0  0
  -29.7148  -23.2995   19.5002 H   0  0  0  0  0  0
  -27.1411  -24.4904   20.7758 H   0  0  0  0  0  0
  -27.5573  -24.5134   19.0959 H   0  0  0  0  0  0
  -28.7281  -15.5826   20.9203 H   0  0  0  0  0  0
  1 25  1  0  0  0
  1 30  2  0  0  0
  1 79  1  0  0  0
  2  3  1  0  0  0
  2 25  1  0  0  0
  2 81  1  0  0  0
  2 82  1  0  0  0
  3  4  1  0  0  0
  3 83  1  0  0  0
  3 84  1  0  0  0
  4  5  1  0  0  0
  4 85  1  0  0  0
  4 86  1  0  0  0
  5  6  1  0  0  0
  5 26  1  0  0  0
  5 87  1  0  0  0
  6 25  1  0  0  0
  6 88  1  0  0  0
  6 89  1  0  0  0
  7  8  2  0  0  0
  7 26  1  0  0  0
  7 29  1  0  0  0
  8  9  1  0  0  0
  8 22  1  0  0  0
  9 10  1  0  0  0
  9 27  2  0  0  0
 10 11  2  0  0  0
 10 15  1  0  0  0
 11 12  1  0  0  0
 11 90  1  0  0  0
 12 13  2  0  0  0
 12 91  1  0  0  0
 13 14  1  0  0  0
 13 31  1  0  0  0
 14 15  2  0  0  0
 14 92  1  0  0  0
 15 93  1  0  0  0
 16 17  2  0  0  0
 16 21  1  0  0  0
 16 31  1  0  0  0
 17 18  1  0  0  0
 17 94  1  0  0  0
 18 19  2  0  0  0
 18 95  1  0  0  0
 19 20  1  0  0  0
 19 24  1  0  0  0
 20 21  2  0  0  0
 20 96  1  0  0  0
 21 23  1  0  0  0
 22 28  1  0  0  0
 22 32  2  0  0  0
 26 27  1  0  0  0
 28 97  1  0  0  0
 28 98  1  0  0  0
 29 99  1  0  0  0
 29100  1  0  0  0
 33 34  1  0  0  0
 33 66  1  0  0  0
 33 70  2  0  0  0
 34 36  1  0  0  0
 34 59  1  0  0  0
 34101  1  0  0  0
 35 44  2  0  0  0
 35 45  1  0  0  0
 35 68  1  0  0  0
 36 56  1  0  0  0
 36102  1  0  0  0
 37 39  1  0  0  0
 37 47  1  0  0  0
 37 66  1  0  0  0
 37103  1  0  0  0
 38 43  2  0  0  0
 38 46  1  0  0  0
 38 47  1  0  0  0
 39 64  1  0  0  0
 39 67  2  0  0  0
 40 52  1  0  0  0
 40 53  2  0  0  0
 40 58  1  0  0  0
 41104  1  0  0  0
 41105  1  0  0  0
 41106  1  0  0  0
 41 48  1  0  0  0
 42 43  1  0  0  0
 42 66  1  0  0  0
 42107  1  0  0  0
 42108  1  0  0  0
 43 44  1  0  0  0
 44109  1  0  0  0
 45 46  2  0  0  0
 45110  1  0  0  0
 46111  1  0  0  0
 47112  1  0  0  0
 47113  1  0  0  0
 48 56  1  0  0  0
 48 65  1  0  0  0
 48114  1  0  0  0
 49 50  1  0  0  0
 49 53  1  0  0  0
 49 64  1  0  0  0
 49115  1  0  0  0
 50 51  1  0  0  0
 50116  1  0  0  0
 50117  1  0  0  0
 51 52  1  0  0  0
 51118  1  0  0  0
 51119  1  0  0  0
 52120  1  0  0  0
 52121  1  0  0  0
 53 54  1  0  0  0
 54 55  2  0  0  0
 54122  1  0  0  0
 55 57  1  0  0  0
 55123  1  0  0  0
 56 69  2  0  0  0
 57 58  2  0  0  0
 57124  1  0  0  0
 58125  1  0  0  0
 59 60  1  0  0  0
 59 61  1  0  0  0
 59 62  1  0  0  0
 60126  1  0  0  0
 60127  1  0  0  0
 60128  1  0  0  0
 61129  1  0  0  0
 61130  1  0  0  0
 61131  1  0  0  0
 62132  1  0  0  0
 62133  1  0  0  0
 62134  1  0  0  0
 63 65  1  0  0  0
 63135  1  0  0  0
 63136  1  0  0  0
 63137  1  0  0  0
 64138  1  0  0  0
 65139  1  0  0  0
 68 78  1  0  0  0
 71 73  2  0  0  0
 71 75  1  0  0  0
 71140  1  0  0  0
 72 74  1  0  0  0
 72 75  2  0  0  0
 72141  1  0  0  0
 73 76  1  0  0  0
 73142  1  0  0  0
 74 76  2  0  0  0
 74143  1  0  0  0
 75 79  1  0  0  0
 76 80  1  0  0  0
 77 78  1  0  0  0
 77 80  1  0  0  0
 77144  1  0  0  0
 77145  1  0  0  0
 78146  1  0  0  0
 78147  1  0  0  0
 79148  1  0  0  0
M  ISO  4   1 100  68 101  78 101  79 100
M  END
> <chiral flag>
0

> <version>
0

> <s_m_source_file>
/data/baiqing/PycharmProjects/Reinvent-master-3.2/result/LINK_invent/BTK/process_docking_weight1_custom_product_contain_oxygen_bond_distance_aromatic_linkinvent_7_9_3/rearranged_h_0001.sdf

> <i_m_source_file_index>
68

> <r_mmod_Potential_Energy-OPLS-2005>
453.292022705078

> <r_mmod_Stretch_Energy-OPLS-2005>
216.148208618164

> <r_mmod_Bend_Energy-OPLS-2005>
303.559814453125

> <r_mmod_Torsional_Energy-OPLS-2005>
210.8935546875

> <r_mmod_Improper_Torsional_Energy-OPLS-2005>
4.47378873825073

> <r_mmod_Van_der_Waal_Energy-OPLS-2005>
131.151794433594

> <r_mmod_Electrostatic_Energy-OPLS-2005>
-373.256744384766

> <r_mmod_Solvation_Energy-OPLS-2005>
-214.08235168457

> <b_mmod_Minimization_Converged-OPLS-2005>
0

> <r_mmod_RMS_Derivative-OPLS-2005>
0.848834156990051

$$$$
68
                    3D
 Structure written by MMmdl.
147155  0  0  1  0            999 V2000
  -30.3092  -15.6938   20.3635 C   0  0  0  0  0  0
  -30.4266  -13.1350   19.5680 C   0  0  0  0  0  0
  -29.5585  -12.6862   18.3537 C   0  0  0  0  0  0
  -28.1455  -12.3010   18.8028 C   0  0  0  0  0  0
  -27.6013  -13.3132   19.8284 C   0  0  2  0  0  0
  -28.6081  -13.6758   20.9529 C   0  0  0  0  0  0
  -25.2341  -13.8304   20.5824 C   0  0  0  0  0  0
  -24.1738  -13.0468   20.9307 C   0  0  0  0  0  0
  -24.6418  -11.6966   20.8746 C   0  0  0  0  0  0
  -23.9111  -10.4300   21.0387 C   0  0  0  0  0  0
  -24.3652   -9.4206   21.9158 C   0  0  0  0  0  0
  -23.6302   -8.2234   22.0731 C   0  0  0  0  0  0
  -22.4281   -8.0261   21.3531 C   0  0  0  0  0  0
  -21.9936   -9.0257   20.4628 C   0  0  0  0  0  0
  -22.7277  -10.2129   20.3033 C   0  0  0  0  0  0
  -21.6870   -6.0726   22.5275 C   0  0  0  0  0  0
  -21.4026   -6.5636   23.8207 C   0  0  0  0  0  0
  -21.3671   -5.6782   24.9174 C   0  0  0  0  0  0
  -21.6039   -4.3026   24.7228 C   0  0  0  0  0  0
  -21.8823   -3.8137   23.4351 C   0  0  0  0  0  0
  -21.9206   -4.6945   22.3404 C   0  0  0  0  0  0
  -22.7729  -13.5157   21.1942 C   0  0  0  0  0  0
  -22.1660   -4.2142   21.0973 F   0  0  0  0  0  0
  -21.5634   -3.4520   25.7749 F   0  0  0  0  0  0
  -29.7863  -14.3169   20.3156 N   0  0  0  0  0  0
  -26.2802  -12.9641   20.3304 N   0  0  0  0  0  0
  -25.9381  -11.6729   20.5747 N   0  0  0  0  0  0
  -22.0399  -12.8123   22.0470 N   0  0  0  0  0  0
  -25.3921  -15.2034   20.4234 N   0  0  0  0  0  0
  -31.5317  -15.6283   20.1184 O   0  0  0  0  0  0
  -21.6640   -6.8866   21.4233 O   0  0  0  0  0  0
  -22.3376  -14.5454   20.6751 O   0  0  0  0  0  0
  -24.6860  -31.7944   23.1498 C   0  0  0  0  0  0
  -25.9423  -32.4438   23.8044 C   0  0  1  0  0  0
  -27.2603  -26.6608   20.2664 C   0  0  0  0  0  0
  -25.5987  -33.8269   24.1921 N   0  0  0  0  0  0
  -23.5164  -30.3876   21.5003 C   0  0  2  0  0  0
  -24.9918  -28.7161   20.1219 C   0  0  0  0  0  0
  -22.7780  -29.4274   22.4712 C   0  0  0  0  0  0
  -18.0338  -28.1405   22.8452 C   0  0  0  0  0  0
  -24.1508  -36.7146   23.2652 C   0  0  0  0  0  0
  -26.0988  -30.5190   21.4219 C   0  0  0  0  0  0
  -26.1727  -29.0760   20.7842 C   0  0  0  0  0  0
  -27.2839  -28.0747   20.8247 C   0  0  0  0  0  0
  -26.0548  -26.5274   19.5268 C   0  0  0  0  0  0
  -24.9764  -27.4705   19.4658 C   0  0  0  0  0  0
  -23.7808  -29.6694   20.1406 C   0  0  0  0  0  0
  -25.4163  -36.2881   24.0272 C   0  0  1  0  0  0
  -20.5984  -28.3783   23.1134 C   0  0  2  0  0  0
  -20.6806  -26.9435   22.5419 C   0  0  0  0  0  0
  -19.5782  -26.6360   21.5225 C   0  0  0  0  0  0
  -18.1962  -26.7935   22.1618 C   0  0  0  0  0  0
  -19.1606  -28.8922   23.2770 C   0  0  0  0  0  0
  -18.9513  -30.1512   23.8809 C   0  0  0  0  0  0
  -17.6502  -30.6601   24.0558 C   0  0  0  0  0  0
  -25.9135  -34.9269   23.4932 C   0  0  0  0  0  0
  -16.5389  -29.9091   23.6354 C   0  0  0  0  0  0
  -16.7320  -28.6516   23.0372 C   0  0  0  0  0  0
  -26.4615  -31.6478   25.0671 C   0  0  0  0  0  0
  -25.3668  -31.3815   26.1282 C   0  0  0  0  0  0
  -27.0542  -30.2804   24.6591 C   0  0  0  0  0  0
  -27.6046  -32.4364   25.7501 C   0  0  0  0  0  0
  -27.5562  -37.1750   24.8473 C   0  0  0  0  0  0
  -21.4431  -29.3009   22.3450 N   0  0  0  0  0  0
  -26.4287  -37.3636   23.9384 N   0  0  0  0  0  0
  -24.7896  -30.9362   22.0759 N   0  0  0  0  0  0
  -23.4207  -28.7883   23.3083 O   0  0  0  0  0  0
  -28.2214  -25.4277   20.4353 O   0  0  0  0  0  0
  -26.5785  -34.8835   22.4554 O   0  0  0  0  0  0
  -23.5862  -32.1036   23.6408 O   0  0  0  0  0  0
  -29.7529  -20.7811   23.4491 C   0  0  0  0  0  0
  -29.4210  -22.1246   23.4444 C   0  0  0  0  0  0
  -29.6442  -20.0246   22.2812 C   0  0  0  0  0  0
  -28.9996  -22.7425   22.2645 C   0  0  0  0  0  0
  -29.2251  -20.4774   21.0002 C   0  0  0  0  0  0
  -28.8465  -22.1358   20.9822 C   0  0  0  0  0  0
  -29.4843  -18.8420   20.1252 C   0  0  0  0  0  0
  -28.2494  -23.6690   20.0874 C   0  0  0  0  0  0
  -29.5555  -17.0681   20.5041 N   0  0  0  0  0  0
  -31.4146  -13.4073   19.1950 H   0  0  0  0  0  0
  -30.6058  -12.2969   20.2467 H   0  0  0  0  0  0
  -30.0354  -11.8505   17.8383 H   0  0  0  0  0  0
  -29.4949  -13.5003   17.6293 H   0  0  0  0  0  0
  -28.1990  -11.3135   19.2626 H   0  0  0  0  0  0
  -27.4750  -12.2045   17.9484 H   0  0  0  0  0  0
  -27.4598  -14.2243   19.2439 H   0  0  0  0  0  0
  -28.8809  -12.8061   21.5509 H   0  0  0  0  0  0
  -28.1536  -14.3847   21.6446 H   0  0  0  0  0  0
  -25.2809   -9.5685   22.4737 H   0  0  0  0  0  0
  -24.0044   -7.4622   22.7433 H   0  0  0  0  0  0
  -21.0879   -8.8769   19.8918 H   0  0  0  0  0  0
  -22.3726  -10.9675   19.6127 H   0  0  0  0  0  0
  -21.2005   -7.6153   23.9722 H   0  0  0  0  0  0
  -21.1489   -6.0504   25.9079 H   0  0  0  0  0  0
  -22.0592   -2.7611   23.2854 H   0  0  0  0  0  0
  -22.4063  -11.9842   22.4958 H   0  0  0  0  0  0
  -21.0957  -13.1063   22.2625 H   0  0  0  0  0  0
  -24.6236  -15.8548   20.5321 H   0  0  0  0  0  0
  -26.2308  -15.6410   20.0703 H   0  0  0  0  0  0
  -26.7503  -32.4948   23.0756 H   0  0  0  0  0  0
  -25.0047  -33.9313   25.0018 H   0  0  0  0  0  0
  -22.8412  -31.2233   21.2986 H   0  0  0  0  0  0
  -23.3750  -35.9490   23.3317 H   0  0  0  0  0  0
  -24.3542  -36.8809   22.2053 H   0  0  0  0  0  0
  -23.7296  -37.6342   23.6735 H   0  0  0  0  0  0
  -26.2993  -31.2351   20.6239 H   0  0  0  0  0  0
  -26.9456  -30.5993   22.0889 H   0  0  0  0  0  0
  -28.1583  -28.3619   21.3907 H   0  0  0  0  0  0
  -25.8994  -25.5793   19.0347 H   0  0  0  0  0  0
  -24.0935  -27.1822   18.9124 H   0  0  0  0  0  0
  -23.9560  -30.4220   19.3722 H   0  0  0  0  0  0
  -22.8909  -29.1272   19.8219 H   0  0  0  0  0  0
  -25.1387  -36.1626   25.0758 H   0  0  0  0  0  0
  -21.0062  -28.3403   24.1266 H   0  0  0  0  0  0
  -20.5672  -26.2403   23.3682 H   0  0  0  0  0  0
  -21.6661  -26.7398   22.1224 H   0  0  0  0  0  0
  -19.6953  -25.6259   21.1290 H   0  0  0  0  0  0
  -19.6721  -27.3140   20.6714 H   0  0  0  0  0  0
  -17.4255  -26.6702   21.4016 H   0  0  0  0  0  0
  -18.0355  -26.0113   22.9030 H   0  0  0  0  0  0
  -19.7989  -30.7360   24.2149 H   0  0  0  0  0  0
  -17.5051  -31.6270   24.5159 H   0  0  0  0  0  0
  -15.5388  -30.2957   23.7731 H   0  0  0  0  0  0
  -15.8718  -28.0794   22.7134 H   0  0  0  0  0  0
  -24.5881  -30.7136   25.7616 H   0  0  0  0  0  0
  -24.8833  -32.3040   26.4492 H   0  0  0  0  0  0
  -25.7840  -30.9141   27.0201 H   0  0  0  0  0  0
  -26.3265  -29.6425   24.1577 H   0  0  0  0  0  0
  -27.3943  -29.7255   25.5344 H   0  0  0  0  0  0
  -27.9259  -30.3919   24.0139 H   0  0  0  0  0  0
  -27.2555  -33.3727   26.1850 H   0  0  0  0  0  0
  -28.3970  -32.6815   25.0426 H   0  0  0  0  0  0
  -28.0571  -31.8644   26.5607 H   0  0  0  0  0  0
  -28.2599  -38.0024   24.7452 H   0  0  0  0  0  0
  -28.1041  -36.2550   24.6407 H   0  0  0  0  0  0
  -27.2259  -37.1507   25.8870 H   0  0  0  0  0  0
  -20.9771  -29.8637   21.6473 H   0  0  0  0  0  0
  -26.0110  -38.2691   24.1342 H   0  0  0  0  0  0
  -30.1259  -20.3287   24.3583 H   0  0  0  0  0  0
  -29.4991  -22.6952   24.3621 H   0  0  0  0  0  0
  -29.9593  -18.9993   22.4057 H   0  0  0  0  0  0
  -28.7794  -23.7973   22.3830 H   0  0  0  0  0  0
  -30.4239  -19.0030   19.5937 H   0  0  0  0  0  0
  -28.7415  -18.8799   19.3264 H   0  0  0  0  0  0
  -27.2551  -23.4210   19.7160 H   0  0  0  0  0  0
  -28.8689  -23.6442   19.1935 H   0  0  0  0  0  0
  -28.6385  -16.8108   20.8345 H   0  0  0  0  0  0
  1 25  1  0  0  0
  1 30  2  0  0  0
  1 79  1  0  0  0
  2  3  1  0  0  0
  2 25  1  0  0  0
  2 80  1  0  0  0
  2 81  1  0  0  0
  3  4  1  0  0  0
  3 82  1  0  0  0
  3 83  1  0  0  0
  4  5  1  0  0  0
  4 84  1  0  0  0
  4 85  1  0  0  0
  5  6  1  0  0  0
  5 26  1  0  0  0
  5 86  1  0  0  0
  6 25  1  0  0  0
  6 87  1  0  0  0
  6 88  1  0  0  0
  7  8  2  0  0  0
  7 26  1  0  0  0
  7 29  1  0  0  0
  8  9  1  0  0  0
  8 22  1  0  0  0
  9 10  1  0  0  0
  9 27  2  0  0  0
 10 11  2  0  0  0
 10 15  1  0  0  0
 11 12  1  0  0  0
 11 89  1  0  0  0
 12 13  2  0  0  0
 12 90  1  0  0  0
 13 14  1  0  0  0
 13 31  1  0  0  0
 14 15  2  0  0  0
 14 91  1  0  0  0
 15 92  1  0  0  0
 16 17  2  0  0  0
 16 21  1  0  0  0
 16 31  1  0  0  0
 17 18  1  0  0  0
 17 93  1  0  0  0
 18 19  2  0  0  0
 18 94  1  0  0  0
 19 20  1  0  0  0
 19 24  1  0  0  0
 20 21  2  0  0  0
 20 95  1  0  0  0
 21 23  1  0  0  0
 22 28  1  0  0  0
 22 32  2  0  0  0
 26 27  1  0  0  0
 28 96  1  0  0  0
 28 97  1  0  0  0
 29 98  1  0  0  0
 29 99  1  0  0  0
 33 34  1  0  0  0
 33 66  1  0  0  0
 33 70  2  0  0  0
 34 36  1  0  0  0
 34 59  1  0  0  0
 34100  1  0  0  0
 35 44  2  0  0  0
 35 45  1  0  0  0
 35 68  1  0  0  0
 36 56  1  0  0  0
 36101  1  0  0  0
 37 39  1  0  0  0
 37 47  1  0  0  0
 37 66  1  0  0  0
 37102  1  0  0  0
 38 43  2  0  0  0
 38 46  1  0  0  0
 38 47  1  0  0  0
 39 64  1  0  0  0
 39 67  2  0  0  0
 40 52  1  0  0  0
 40 53  2  0  0  0
 40 58  1  0  0  0
 41103  1  0  0  0
 41104  1  0  0  0
 41105  1  0  0  0
 41 48  1  0  0  0
 42 43  1  0  0  0
 42 66  1  0  0  0
 42106  1  0  0  0
 42107  1  0  0  0
 43 44  1  0  0  0
 44108  1  0  0  0
 45 46  2  0  0  0
 45109  1  0  0  0
 46110  1  0  0  0
 47111  1  0  0  0
 47112  1  0  0  0
 48 56  1  0  0  0
 48 65  1  0  0  0
 48113  1  0  0  0
 49 50  1  0  0  0
 49 53  1  0  0  0
 49 64  1  0  0  0
 49114  1  0  0  0
 50 51  1  0  0  0
 50115  1  0  0  0
 50116  1  0  0  0
 51 52  1  0  0  0
 51117  1  0  0  0
 51118  1  0  0  0
 52119  1  0  0  0
 52120  1  0  0  0
 53 54  1  0  0  0
 54 55  2  0  0  0
 54121  1  0  0  0
 55 57  1  0  0  0
 55122  1  0  0  0
 56 69  2  0  0  0
 57 58  2  0  0  0
 57123  1  0  0  0
 58124  1  0  0  0
 59 60  1  0  0  0
 59 61  1  0  0  0
 59 62  1  0  0  0
 60125  1  0  0  0
 60126  1  0  0  0
 60127  1  0  0  0
 61128  1  0  0  0
 61129  1  0  0  0
 61130  1  0  0  0
 62131  1  0  0  0
 62132  1  0  0  0
 62133  1  0  0  0
 63 65  1  0  0  0
 63134  1  0  0  0
 63135  1  0  0  0
 63136  1  0  0  0
 64137  1  0  0  0
 65138  1  0  0  0
 68 78  1  0  0  0
 71 72  2  0  0  0
 71 73  1  0  0  0
 71139  1  0  0  0
 72 74  1  0  0  0
 72140  1  0  0  0
 73 75  2  0  0  0
 73141  1  0  0  0
 74 76  2  0  0  0
 74142  1  0  0  0
 75 76  1  0  0  0
 75 77  1  0  0  0
 76 78  1  0  0  0
 77 79  1  0  0  0
 77143  1  0  0  0
 77144  1  0  0  0
 78145  1  0  0  0
 78146  1  0  0  0
 79147  1  0  0  0
M  ISO  4   1 100  68 101  78 101  79 100
M  END
> <chiral flag>
0

> <version>
0

> <s_m_source_file>
/data/baiqing/PycharmProjects/Reinvent-master-3.2/result/LINK_invent/BTK/process_docking_weight1_custom_product_contain_oxygen_bond_distance_aromatic_linkinvent_7_9_3/rearranged_h_0001.sdf

> <i_m_source_file_index>
69

> <r_mmod_Potential_Energy-OPLS-2005>
2826.20043945312

> <r_mmod_Stretch_Energy-OPLS-2005>
1262.44714355469

> <r_mmod_Bend_Energy-OPLS-2005>
804.282165527344

> <r_mmod_Torsional_Energy-OPLS-2005>
219.274536132812

> <r_mmod_Improper_Torsional_Energy-OPLS-2005>
4.54312515258789

> <r_mmod_Van_der_Waal_Energy-OPLS-2005>
128.410491943359

> <r_mmod_Electrostatic_Energy-OPLS-2005>
-372.703125

> <r_mmod_Solvation_Energy-OPLS-2005>
-220.16291809082

> <b_mmod_Minimization_Converged-OPLS-2005>
0

> <r_mmod_RMS_Derivative-OPLS-2005>
5.85740661621094

$$$$
69
                    3D
 Structure written by MMmdl.
151159  0  0  1  0            999 V2000
  -30.6264  -14.6511   20.4934 C   0  0  0  0  0  0
  -30.4401  -12.3970   19.4577 C   0  0  0  0  0  0
  -29.5116  -12.5061   18.2275 C   0  0  0  0  0  0
  -28.0342  -12.3427   18.6380 C   0  0  0  0  0  0
  -27.6523  -13.2182   19.8607 C   0  0  2  0  0  0
  -28.6973  -13.0835   20.9919 C   0  0  0  0  0  0
  -25.2549  -13.8173   20.5674 C   0  0  0  0  0  0
  -24.1818  -13.0440   20.9199 C   0  0  0  0  0  0
  -24.6385  -11.6910   20.8730 C   0  0  0  0  0  0
  -23.9053  -10.4292   21.0400 C   0  0  0  0  0  0
  -24.3606   -9.4209   21.9176 C   0  0  0  0  0  0
  -23.6281   -8.2246   22.0747 C   0  0  0  0  0  0
  -22.4267   -8.0277   21.3539 C   0  0  0  0  0  0
  -21.9901   -9.0253   20.4647 C   0  0  0  0  0  0
  -22.7225  -10.2134   20.3052 C   0  0  0  0  0  0
  -21.6854   -6.0727   22.5277 C   0  0  0  0  0  0
  -21.4015   -6.5633   23.8209 C   0  0  0  0  0  0
  -21.3661   -5.6785   24.9171 C   0  0  0  0  0  0
  -21.6047   -4.3048   24.7221 C   0  0  0  0  0  0
  -21.8818   -3.8139   23.4343 C   0  0  0  0  0  0
  -21.9192   -4.6954   22.3398 C   0  0  0  0  0  0
  -22.7840  -13.5234   21.1863 C   0  0  0  0  0  0
  -22.1661   -4.2141   21.0974 F   0  0  0  0  0  0
  -21.5631   -3.4533   25.7734 F   0  0  0  0  0  0
  -30.0138  -13.4249   20.4288 N   0  0  0  0  0  0
  -26.2979  -12.9357   20.3299 N   0  0  0  0  0  0
  -25.9316  -11.6514   20.5743 N   0  0  0  0  0  0
  -22.0479  -12.8232   22.0422 N   0  0  0  0  0  0
  -25.4234  -15.1889   20.4030 N   0  0  0  0  0  0
  -31.7939  -14.7990   20.1210 O   0  0  0  0  0  0
  -21.6637   -6.8870   21.4240 O   0  0  0  0  0  0
  -22.3528  -14.5537   20.6703 O   0  0  0  0  0  0
  -24.6262  -31.8612   23.2022 C   0  0  0  0  0  0
  -25.9109  -32.4791   23.8352 C   0  0  1  0  0  0
  -27.2237  -27.3209   20.1134 C   0  0  0  0  0  0
  -25.5922  -33.8587   24.2278 N   0  0  0  0  0  0
  -23.4185  -30.4845   21.5465 C   0  0  2  0  0  0
  -24.8645  -28.9418   20.1120 C   0  0  0  0  0  0
  -22.7477  -29.4625   22.4950 C   0  0  0  0  0  0
  -18.0289  -28.1385   22.8498 C   0  0  0  0  0  0
  -24.1486  -36.7292   23.2639 C   0  0  0  0  0  0
  -25.9604  -30.7929   21.3723 C   0  0  0  0  0  0
  -26.0350  -29.4209   20.7137 C   0  0  0  0  0  0
  -27.2180  -28.6236   20.7017 C   0  0  0  0  0  0
  -26.0251  -26.8951   19.4920 C   0  0  0  0  0  0
  -24.8619  -27.6844   19.4916 C   0  0  0  0  0  0
  -23.6323  -29.8204   20.1618 C   0  0  0  0  0  0
  -25.4116  -36.3092   24.0329 C   0  0  1  0  0  0
  -20.5891  -28.3686   23.1294 C   0  0  2  0  0  0
  -20.6774  -26.9411   22.5413 C   0  0  0  0  0  0
  -19.5745  -26.6385   21.5218 C   0  0  0  0  0  0
  -18.1929  -26.7926   22.1635 C   0  0  0  0  0  0
  -19.1543  -28.8851   23.2889 C   0  0  0  0  0  0
  -18.9463  -30.1457   23.8897 C   0  0  0  0  0  0
  -17.6461  -30.6584   24.0568 C   0  0  0  0  0  0
  -25.9052  -34.9462   23.5108 C   0  0  0  0  0  0
  -16.5353  -29.9083   23.6335 C   0  0  0  0  0  0
  -16.7276  -28.6502   23.0355 C   0  0  0  0  0  0
  -26.4485  -31.6597   25.0718 C   0  0  0  0  0  0
  -25.3712  -31.3736   26.1439 C   0  0  0  0  0  0
  -27.0324  -30.3024   24.6158 C   0  0  0  0  0  0
  -27.6044  -32.4329   25.7492 C   0  0  0  0  0  0
  -27.5577  -37.1811   24.8473 C   0  0  0  0  0  0
  -21.4192  -29.3038   22.3688 N   0  0  0  0  0  0
  -26.4297  -37.3785   23.9401 N   0  0  0  0  0  0
  -24.6871  -31.0625   22.0972 N   0  0  0  0  0  0
  -23.4208  -28.8160   23.3021 O   0  0  0  0  0  0
  -28.3434  -26.4727   20.1594 O   0  0  0  0  0  0
  -26.5616  -34.8929   22.4672 O   0  0  0  0  0  0
  -23.5424  -32.1415   23.7351 O   0  0  0  0  0  0
  -31.1629  -19.2852   20.2503 C   0  0  0  0  0  0
  -28.8217  -19.4112   20.7643 C   0  0  0  0  0  0
  -31.1335  -17.8616   20.3566 C   0  0  0  0  0  0
  -28.7896  -17.9852   20.8716 C   0  0  0  0  0  0
  -30.0160  -20.1041   20.4481 C   0  0  0  0  0  0
  -29.9386  -17.1642   20.6737 C   0  0  0  0  0  0
  -30.1650  -21.6712   20.3822 C   0  0  0  0  0  0
  -28.1167  -25.0111   20.0385 C   0  0  0  0  0  0
  -29.3045  -23.9944   20.3254 C   0  0  0  0  0  0
  -29.8139  -15.7088   20.8227 N   0  0  0  0  0  0
  -28.9968  -22.5497   20.2887 O   0  0  0  0  0  0
  -31.4817  -12.5193   19.1579 H   0  0  0  0  0  0
  -30.3726  -11.4030   19.9039 H   0  0  0  0  0  0
  -29.7780  -11.7510   17.4868 H   0  0  0  0  0  0
  -29.6543  -13.4731   17.7422 H   0  0  0  0  0  0
  -27.8764  -11.2903   18.8771 H   0  0  0  0  0  0
  -27.3793  -12.5641   17.7944 H   0  0  0  0  0  0
  -27.6678  -14.2512   19.5118 H   0  0  0  0  0  0
  -28.7090  -12.0646   21.3839 H   0  0  0  0  0  0
  -28.4420  -13.7236   21.8375 H   0  0  0  0  0  0
  -25.2748   -9.5688   22.4755 H   0  0  0  0  0  0
  -23.9992   -7.4635   22.7463 H   0  0  0  0  0  0
  -21.0836   -8.8767   19.8953 H   0  0  0  0  0  0
  -22.3675  -10.9670   19.6164 H   0  0  0  0  0  0
  -21.2011   -7.6142   23.9712 H   0  0  0  0  0  0
  -21.1487   -6.0515   25.9075 H   0  0  0  0  0  0
  -22.0596   -2.7602   23.2843 H   0  0  0  0  0  0
  -22.4080  -11.9904   22.4843 H   0  0  0  0  0  0
  -21.1093  -13.1264   22.2612 H   0  0  0  0  0  0
  -24.6440  -15.8330   20.4830 H   0  0  0  0  0  0
  -26.2524  -15.6203   20.0162 H   0  0  0  0  0  0
  -26.7175  -32.5460   23.1103 H   0  0  0  0  0  0
  -25.0084  -33.9739   25.0428 H   0  0  0  0  0  0
  -22.7116  -31.3044   21.4046 H   0  0  0  0  0  0
  -23.3748  -35.9629   23.3331 H   0  0  0  0  0  0
  -24.3571  -36.8877   22.2048 H   0  0  0  0  0  0
  -23.7246  -37.6504   23.6641 H   0  0  0  0  0  0
  -26.0897  -31.5560   20.6036 H   0  0  0  0  0  0
  -26.8429  -30.8429   21.9984 H   0  0  0  0  0  0
  -28.1173  -28.9897   21.1784 H   0  0  0  0  0  0
  -25.9517  -25.9357   19.0053 H   0  0  0  0  0  0
  -23.9646  -27.3117   19.0162 H   0  0  0  0  0  0
  -23.7501  -30.5973   19.4051 H   0  0  0  0  0  0
  -22.7523  -29.2489   19.8605 H   0  0  0  0  0  0
  -25.1301  -36.1947   25.0822 H   0  0  0  0  0  0
  -20.9991  -28.3253   24.1412 H   0  0  0  0  0  0
  -20.5675  -26.2298   23.3609 H   0  0  0  0  0  0
  -21.6642  -26.7433   22.1204 H   0  0  0  0  0  0
  -19.6897  -25.6298   21.1239 H   0  0  0  0  0  0
  -19.6671  -27.3204   20.6751 H   0  0  0  0  0  0
  -17.4196  -26.6693   21.4034 H   0  0  0  0  0  0
  -18.0322  -26.0062   22.9026 H   0  0  0  0  0  0
  -19.7934  -30.7284   24.2260 H   0  0  0  0  0  0
  -17.5009  -31.6265   24.5171 H   0  0  0  0  0  0
  -15.5353  -30.2981   23.7643 H   0  0  0  0  0  0
  -15.8684  -28.0813   22.7065 H   0  0  0  0  0  0
  -24.5893  -30.7078   25.7766 H   0  0  0  0  0  0
  -24.8893  -32.2904   26.4847 H   0  0  0  0  0  0
  -25.8031  -30.8925   27.0224 H   0  0  0  0  0  0
  -26.2896  -29.6786   24.1171 H   0  0  0  0  0  0
  -27.4018  -29.7265   25.4651 H   0  0  0  0  0  0
  -27.8768  -30.4318   23.9384 H   0  0  0  0  0  0
  -27.2653  -33.3632   26.2066 H   0  0  0  0  0  0
  -28.3862  -32.6884   25.0326 H   0  0  0  0  0  0
  -28.0707  -31.8453   26.5412 H   0  0  0  0  0  0
  -28.2623  -38.0081   24.7495 H   0  0  0  0  0  0
  -28.1045  -36.2614   24.6341 H   0  0  0  0  0  0
  -27.2292  -37.1511   25.8876 H   0  0  0  0  0  0
  -20.9364  -29.8763   21.6903 H   0  0  0  0  0  0
  -26.0180  -38.2864   24.1382 H   0  0  0  0  0  0
  -32.1060  -19.7615   20.0227 H   0  0  0  0  0  0
  -27.9179  -19.9777   20.9432 H   0  0  0  0  0  0
  -32.0566  -17.3200   20.2021 H   0  0  0  0  0  0
  -27.8460  -17.5195   21.1183 H   0  0  0  0  0  0
  -30.8009  -21.8883   19.5221 H   0  0  0  0  0  0
  -30.7412  -21.9668   21.2605 H   0  0  0  0  0  0
  -27.2967  -24.7460   20.7086 H   0  0  0  0  0  0
  -27.7733  -24.8006   19.0259 H   0  0  0  0  0  0
  -29.7207  -24.2188   21.3080 H   0  0  0  0  0  0
  -30.1002  -24.1986   19.6075 H   0  0  0  0  0  0
  -28.9002  -15.4012   21.1154 H   0  0  0  0  0  0
  1 25  1  0  0  0
  1 30  2  0  0  0
  1 80  1  0  0  0
  2  3  1  0  0  0
  2 25  1  0  0  0
  2 82  1  0  0  0
  2 83  1  0  0  0
  3  4  1  0  0  0
  3 84  1  0  0  0
  3 85  1  0  0  0
  4  5  1  0  0  0
  4 86  1  0  0  0
  4 87  1  0  0  0
  5  6  1  0  0  0
  5 26  1  0  0  0
  5 88  1  0  0  0
  6 25  1  0  0  0
  6 89  1  0  0  0
  6 90  1  0  0  0
  7  8  2  0  0  0
  7 26  1  0  0  0
  7 29  1  0  0  0
  8  9  1  0  0  0
  8 22  1  0  0  0
  9 10  1  0  0  0
  9 27  2  0  0  0
 10 11  2  0  0  0
 10 15  1  0  0  0
 11 12  1  0  0  0
 11 91  1  0  0  0
 12 13  2  0  0  0
 12 92  1  0  0  0
 13 14  1  0  0  0
 13 31  1  0  0  0
 14 15  2  0  0  0
 14 93  1  0  0  0
 15 94  1  0  0  0
 16 17  2  0  0  0
 16 21  1  0  0  0
 16 31  1  0  0  0
 17 18  1  0  0  0
 17 95  1  0  0  0
 18 19  2  0  0  0
 18 96  1  0  0  0
 19 20  1  0  0  0
 19 24  1  0  0  0
 20 21  2  0  0  0
 20 97  1  0  0  0
 21 23  1  0  0  0
 22 28  1  0  0  0
 22 32  2  0  0  0
 26 27  1  0  0  0
 28 98  1  0  0  0
 28 99  1  0  0  0
 29100  1  0  0  0
 29101  1  0  0  0
 33 34  1  0  0  0
 33 66  1  0  0  0
 33 70  2  0  0  0
 34 36  1  0  0  0
 34 59  1  0  0  0
 34102  1  0  0  0
 35 44  2  0  0  0
 35 45  1  0  0  0
 35 68  1  0  0  0
 36 56  1  0  0  0
 36103  1  0  0  0
 37 39  1  0  0  0
 37 47  1  0  0  0
 37 66  1  0  0  0
 37104  1  0  0  0
 38 43  2  0  0  0
 38 46  1  0  0  0
 38 47  1  0  0  0
 39 64  1  0  0  0
 39 67  2  0  0  0
 40 52  1  0  0  0
 40 53  2  0  0  0
 40 58  1  0  0  0
 41105  1  0  0  0
 41106  1  0  0  0
 41107  1  0  0  0
 41 48  1  0  0  0
 42 43  1  0  0  0
 42 66  1  0  0  0
 42108  1  0  0  0
 42109  1  0  0  0
 43 44  1  0  0  0
 44110  1  0  0  0
 45 46  2  0  0  0
 45111  1  0  0  0
 46112  1  0  0  0
 47113  1  0  0  0
 47114  1  0  0  0
 48 56  1  0  0  0
 48 65  1  0  0  0
 48115  1  0  0  0
 49 50  1  0  0  0
 49 53  1  0  0  0
 49 64  1  0  0  0
 49116  1  0  0  0
 50 51  1  0  0  0
 50117  1  0  0  0
 50118  1  0  0  0
 51 52  1  0  0  0
 51119  1  0  0  0
 51120  1  0  0  0
 52121  1  0  0  0
 52122  1  0  0  0
 53 54  1  0  0  0
 54 55  2  0  0  0
 54123  1  0  0  0
 55 57  1  0  0  0
 55124  1  0  0  0
 56 69  2  0  0  0
 57 58  2  0  0  0
 57125  1  0  0  0
 58126  1  0  0  0
 59 60  1  0  0  0
 59 61  1  0  0  0
 59 62  1  0  0  0
 60127  1  0  0  0
 60128  1  0  0  0
 60129  1  0  0  0
 61130  1  0  0  0
 61131  1  0  0  0
 61132  1  0  0  0
 62133  1  0  0  0
 62134  1  0  0  0
 62135  1  0  0  0
 63 65  1  0  0  0
 63136  1  0  0  0
 63137  1  0  0  0
 63138  1  0  0  0
 64139  1  0  0  0
 65140  1  0  0  0
 68 78  1  0  0  0
 71 73  2  0  0  0
 71 75  1  0  0  0
 71141  1  0  0  0
 72 74  1  0  0  0
 72 75  2  0  0  0
 72142  1  0  0  0
 73 76  1  0  0  0
 73143  1  0  0  0
 74 76  2  0  0  0
 74144  1  0  0  0
 75 77  1  0  0  0
 76 80  1  0  0  0
 77 81  1  0  0  0
 77145  1  0  0  0
 77146  1  0  0  0
 78 79  1  0  0  0
 78147  1  0  0  0
 78148  1  0  0  0
 79 81  1  0  0  0
 79149  1  0  0  0
 79150  1  0  0  0
 80151  1  0  0  0
M  ISO  4   1 100  68 101  78 101  80 100
M  END
> <chiral flag>
0

> <version>
0

> <s_m_source_file>
/data/baiqing/PycharmProjects/Reinvent-master-3.2/result/LINK_invent/BTK/process_docking_weight1_custom_product_contain_oxygen_bond_distance_aromatic_linkinvent_7_9_3/rearranged_h_0001.sdf

> <i_m_source_file_index>
70

> <r_mmod_Potential_Energy-OPLS-2005>
71.3989562988281

> <r_mmod_Stretch_Energy-OPLS-2005>
81.4491424560547

> <r_mmod_Bend_Energy-OPLS-2005>
139.137191772461

> <r_mmod_Torsional_Energy-OPLS-2005>
214.261306762695

> <r_mmod_Improper_Torsional_Energy-OPLS-2005>
4.55642652511597

> <r_mmod_Van_der_Waal_Energy-OPLS-2005>
145.136138916016

> <r_mmod_Electrostatic_Energy-OPLS-2005>
-354.966857910156

> <r_mmod_Solvation_Energy-OPLS-2005>
-208.114410400391

> <b_mmod_Minimization_Converged-OPLS-2005>
0

> <r_mmod_RMS_Derivative-OPLS-2005>
1.38521814346313

$$$$
70
                    3D
 Structure written by MMmdl.
154162  0  0  1  0            999 V2000
  -30.6896  -14.5241   20.4615 C   0  0  0  0  0  0
  -30.4107  -12.3048   19.4464 C   0  0  0  0  0  0
  -29.4970  -12.4872   18.2177 C   0  0  0  0  0  0
  -28.0192  -12.3515   18.6274 C   0  0  0  0  0  0
  -27.6549  -13.2133   19.8688 C   0  0  2  0  0  0
  -28.7011  -13.0559   20.9987 C   0  0  0  0  0  0
  -25.2557  -13.8159   20.5697 C   0  0  0  0  0  0
  -24.1849  -13.0405   20.9178 C   0  0  0  0  0  0
  -24.6400  -11.6877   20.8709 C   0  0  0  0  0  0
  -23.9110  -10.4263   21.0369 C   0  0  0  0  0  0
  -24.3667   -9.4188   21.9158 C   0  0  0  0  0  0
  -23.6336   -8.2237   22.0748 C   0  0  0  0  0  0
  -22.4298   -8.0290   21.3555 C   0  0  0  0  0  0
  -21.9942   -9.0248   20.4636 C   0  0  0  0  0  0
  -22.7269  -10.2128   20.3026 C   0  0  0  0  0  0
  -21.6854   -6.0765   22.5285 C   0  0  0  0  0  0
  -21.4017   -6.5653   23.8217 C   0  0  0  0  0  0
  -21.3662   -5.6801   24.9175 C   0  0  0  0  0  0
  -21.6040   -4.3061   24.7224 C   0  0  0  0  0  0
  -21.8818   -3.8183   23.4335 C   0  0  0  0  0  0
  -21.9196   -4.7005   22.3400 C   0  0  0  0  0  0
  -22.7862  -13.5187   21.1842 C   0  0  0  0  0  0
  -22.1643   -4.2187   21.0973 F   0  0  0  0  0  0
  -21.5643   -3.4527   25.7734 F   0  0  0  0  0  0
  -30.0268  -13.3344   20.4286 N   0  0  0  0  0  0
  -26.3009  -12.9357   20.3368 N   0  0  0  0  0  0
  -25.9332  -11.6500   20.5772 N   0  0  0  0  0  0
  -22.0576  -12.8163   22.0414 N   0  0  0  0  0  0
  -25.4180  -15.1909   20.4087 N   0  0  0  0  0  0
  -31.8746  -14.6200   20.1361 O   0  0  0  0  0  0
  -21.6644   -6.8905   21.4247 O   0  0  0  0  0  0
  -22.3499  -14.5465   20.6687 O   0  0  0  0  0  0
  -24.6098  -31.8696   23.2106 C   0  0  0  0  0  0
  -25.8981  -32.4847   23.8441 C   0  0  1  0  0  0
  -27.2370  -27.4122   20.1334 C   0  0  0  0  0  0
  -25.5852  -33.8650   24.2362 N   0  0  0  0  0  0
  -23.4009  -30.4895   21.5506 C   0  0  2  0  0  0
  -24.8510  -28.9477   20.1178 C   0  0  0  0  0  0
  -22.7369  -29.4678   22.5015 C   0  0  0  0  0  0
  -18.0263  -28.1366   22.8488 C   0  0  0  0  0  0
  -24.1482  -36.7316   23.2653 C   0  0  0  0  0  0
  -25.9280  -30.8318   21.3624 C   0  0  0  0  0  0
  -26.0088  -29.4633   20.7117 C   0  0  0  0  0  0
  -27.2029  -28.7060   20.7081 C   0  0  0  0  0  0
  -26.0630  -26.9134   19.5246 C   0  0  0  0  0  0
  -24.8754  -27.6752   19.5172 C   0  0  0  0  0  0
  -23.6100  -29.8127   20.1678 C   0  0  0  0  0  0
  -25.4097  -36.3127   24.0364 C   0  0  1  0  0  0
  -20.5842  -28.3653   23.1328 C   0  0  2  0  0  0
  -20.6744  -26.9392   22.5408 C   0  0  0  0  0  0
  -19.5739  -26.6370   21.5190 C   0  0  0  0  0  0
  -18.1916  -26.7926   22.1601 C   0  0  0  0  0  0
  -19.1511  -28.8824   23.2910 C   0  0  0  0  0  0
  -18.9438  -30.1440   23.8911 C   0  0  0  0  0  0
  -17.6441  -30.6583   24.0554 C   0  0  0  0  0  0
  -25.9006  -34.9493   23.5148 C   0  0  0  0  0  0
  -16.5333  -29.9067   23.6324 C   0  0  0  0  0  0
  -16.7251  -28.6479   23.0346 C   0  0  0  0  0  0
  -26.4419  -31.6641   25.0773 C   0  0  0  0  0  0
  -25.3740  -31.3716   26.1569 C   0  0  0  0  0  0
  -27.0235  -30.3102   24.6104 C   0  0  0  0  0  0
  -27.5995  -32.4401   25.7510 C   0  0  0  0  0  0
  -27.5579  -37.1815   24.8474 C   0  0  0  0  0  0
  -21.4106  -29.3036   22.3739 N   0  0  0  0  0  0
  -26.4291  -37.3794   23.9418 N   0  0  0  0  0  0
  -24.6645  -31.0779   22.1003 N   0  0  0  0  0  0
  -23.4142  -28.8244   23.3077 O   0  0  0  0  0  0
  -28.4200  -26.6996   20.1958 O   0  0  0  0  0  0
  -26.5565  -34.8938   22.4710 O   0  0  0  0  0  0
  -23.5283  -32.1471   23.7508 O   0  0  0  0  0  0
  -30.0827  -19.2296   19.0166 C   0  0  0  0  0  0
  -28.9154  -18.5990   21.0427 C   0  0  0  0  0  0
  -29.6399  -20.5614   19.1589 C   0  0  0  0  0  0
  -28.4762  -19.9473   21.1948 C   0  0  0  0  0  0
  -29.7158  -18.2203   19.9364 C   0  0  0  0  0  0
  -28.8168  -20.9420   20.2344 C   0  0  0  0  0  0
  -30.2024  -16.7857   19.6272 C   0  0  0  0  0  0
  -27.8054  -24.4599   21.2358 C   0  0  0  0  0  0
  -28.2876  -22.9833   21.4401 C   0  0  0  0  0  0
  -28.4449  -25.2589   20.0625 C   0  0  0  0  0  0
  -29.9168  -15.6369   20.5198 N   0  0  0  0  0  0
  -28.3452  -22.2467   20.2188 O   0  0  0  0  0  0
  -31.4598  -12.3660   19.1501 H   0  0  0  0  0  0
  -30.2755  -11.3070   19.8691 H   0  0  0  0  0  0
  -29.7366  -11.7474   17.4514 H   0  0  0  0  0  0
  -29.6724  -13.4630   17.7654 H   0  0  0  0  0  0
  -27.8359  -11.2986   18.8415 H   0  0  0  0  0  0
  -27.3737  -12.6028   17.7869 H   0  0  0  0  0  0
  -27.6812  -14.2523   19.5426 H   0  0  0  0  0  0
  -28.6889  -12.0447   21.4057 H   0  0  0  0  0  0
  -28.4770  -13.7219   21.8345 H   0  0  0  0  0  0
  -25.2816   -9.5671   22.4714 H   0  0  0  0  0  0
  -24.0077   -7.4620   22.7423 H   0  0  0  0  0  0
  -21.0903   -8.8747   19.8902 H   0  0  0  0  0  0
  -22.3722  -10.9688   19.6141 H   0  0  0  0  0  0
  -21.1989   -7.6152   23.9730 H   0  0  0  0  0  0
  -21.1474   -6.0526   25.9081 H   0  0  0  0  0  0
  -22.0591   -2.7647   23.2819 H   0  0  0  0  0  0
  -22.4300  -11.9873   22.4819 H   0  0  0  0  0  0
  -21.1142  -13.1092   22.2549 H   0  0  0  0  0  0
  -24.6381  -15.8296   20.5153 H   0  0  0  0  0  0
  -26.2530  -15.6467   20.0669 H   0  0  0  0  0  0
  -26.7041  -32.5560   23.1212 H   0  0  0  0  0  0
  -25.0069  -33.9856   25.0548 H   0  0  0  0  0  0
  -22.6914  -31.3070   21.4055 H   0  0  0  0  0  0
  -23.3751  -35.9636   23.3332 H   0  0  0  0  0  0
  -24.3574  -36.8891   22.2055 H   0  0  0  0  0  0
  -23.7209  -37.6525   23.6639 H   0  0  0  0  0  0
  -26.0373  -31.5957   20.5928 H   0  0  0  0  0  0
  -26.8166  -30.8928   21.9783 H   0  0  0  0  0  0
  -28.0966  -29.1024   21.1706 H   0  0  0  0  0  0
  -26.0464  -25.9361   19.0640 H   0  0  0  0  0  0
  -23.9833  -27.2686   19.0638 H   0  0  0  0  0  0
  -23.7177  -30.5870   19.4059 H   0  0  0  0  0  0
  -22.7337  -29.2305   19.8734 H   0  0  0  0  0  0
  -25.1263  -36.2015   25.0850 H   0  0  0  0  0  0
  -20.9946  -28.3199   24.1447 H   0  0  0  0  0  0
  -20.5591  -26.2258   23.3589 H   0  0  0  0  0  0
  -21.6623  -26.7403   22.1238 H   0  0  0  0  0  0
  -19.6892  -25.6266   21.1244 H   0  0  0  0  0  0
  -19.6704  -27.3155   20.6702 H   0  0  0  0  0  0
  -17.4178  -26.6683   21.4001 H   0  0  0  0  0  0
  -18.0330  -26.0055   22.8986 H   0  0  0  0  0  0
  -19.7907  -30.7248   24.2293 H   0  0  0  0  0  0
  -17.4986  -31.6267   24.5140 H   0  0  0  0  0  0
  -15.5333  -30.2957   23.7649 H   0  0  0  0  0  0
  -15.8662  -28.0795   22.7065 H   0  0  0  0  0  0
  -24.5885  -30.7069   25.7947 H   0  0  0  0  0  0
  -24.8966  -32.2840   26.5141 H   0  0  0  0  0  0
  -25.8172  -30.8832   27.0254 H   0  0  0  0  0  0
  -26.2737  -29.6921   24.1132 H   0  0  0  0  0  0
  -27.3975  -29.7290   25.4538 H   0  0  0  0  0  0
  -27.8596  -30.4458   23.9251 H   0  0  0  0  0  0
  -27.2581  -33.3676   26.2126 H   0  0  0  0  0  0
  -28.3746  -32.7021   25.0301 H   0  0  0  0  0  0
  -28.0720  -31.8531   26.5389 H   0  0  0  0  0  0
  -28.2610  -38.0103   24.7490 H   0  0  0  0  0  0
  -28.1067  -36.2626   24.6329 H   0  0  0  0  0  0
  -27.2315  -37.1499   25.8889 H   0  0  0  0  0  0
  -20.9257  -29.8761   21.6981 H   0  0  0  0  0  0
  -26.0204  -38.2883   24.1395 H   0  0  0  0  0  0
  -30.7007  -18.9838   18.1647 H   0  0  0  0  0  0
  -28.6099  -17.8550   21.7650 H   0  0  0  0  0  0
  -29.9236  -21.3005   18.4228 H   0  0  0  0  0  0
  -27.8384  -20.1965   22.0317 H   0  0  0  0  0  0
  -31.2747  -16.8705   19.4316 H   0  0  0  0  0  0
  -29.7664  -16.5194   18.6622 H   0  0  0  0  0  0
  -27.9987  -24.9990   22.1652 H   0  0  0  0  0  0
  -26.7217  -24.4705   21.1233 H   0  0  0  0  0  0
  -27.6106  -22.4867   22.1328 H   0  0  0  0  0  0
  -29.2721  -22.9660   21.9113 H   0  0  0  0  0  0
  -28.0369  -24.9438   19.1023 H   0  0  0  0  0  0
  -29.5009  -24.9925   20.0213 H   0  0  0  0  0  0
  -28.9616  -15.5095   20.8101 H   0  0  0  0  0  0
  1 25  1  0  0  0
  1 30  2  0  0  0
  1 81  1  0  0  0
  2  3  1  0  0  0
  2 25  1  0  0  0
  2 83  1  0  0  0
  2 84  1  0  0  0
  3  4  1  0  0  0
  3 85  1  0  0  0
  3 86  1  0  0  0
  4  5  1  0  0  0
  4 87  1  0  0  0
  4 88  1  0  0  0
  5  6  1  0  0  0
  5 26  1  0  0  0
  5 89  1  0  0  0
  6 25  1  0  0  0
  6 90  1  0  0  0
  6 91  1  0  0  0
  7  8  2  0  0  0
  7 26  1  0  0  0
  7 29  1  0  0  0
  8  9  1  0  0  0
  8 22  1  0  0  0
  9 10  1  0  0  0
  9 27  2  0  0  0
 10 11  2  0  0  0
 10 15  1  0  0  0
 11 12  1  0  0  0
 11 92  1  0  0  0
 12 13  2  0  0  0
 12 93  1  0  0  0
 13 14  1  0  0  0
 13 31  1  0  0  0
 14 15  2  0  0  0
 14 94  1  0  0  0
 15 95  1  0  0  0
 16 17  2  0  0  0
 16 21  1  0  0  0
 16 31  1  0  0  0
 17 18  1  0  0  0
 17 96  1  0  0  0
 18 19  2  0  0  0
 18 97  1  0  0  0
 19 20  1  0  0  0
 19 24  1  0  0  0
 20 21  2  0  0  0
 20 98  1  0  0  0
 21 23  1  0  0  0
 22 28  1  0  0  0
 22 32  2  0  0  0
 26 27  1  0  0  0
 28 99  1  0  0  0
 28100  1  0  0  0
 29101  1  0  0  0
 29102  1  0  0  0
 33 34  1  0  0  0
 33 66  1  0  0  0
 33 70  2  0  0  0
 34 36  1  0  0  0
 34 59  1  0  0  0
 34103  1  0  0  0
 35 44  2  0  0  0
 35 45  1  0  0  0
 35 68  1  0  0  0
 36 56  1  0  0  0
 36104  1  0  0  0
 37 39  1  0  0  0
 37 47  1  0  0  0
 37 66  1  0  0  0
 37105  1  0  0  0
 38 43  2  0  0  0
 38 46  1  0  0  0
 38 47  1  0  0  0
 39 64  1  0  0  0
 39 67  2  0  0  0
 40 52  1  0  0  0
 40 53  2  0  0  0
 40 58  1  0  0  0
 41106  1  0  0  0
 41107  1  0  0  0
 41108  1  0  0  0
 41 48  1  0  0  0
 42 43  1  0  0  0
 42 66  1  0  0  0
 42109  1  0  0  0
 42110  1  0  0  0
 43 44  1  0  0  0
 44111  1  0  0  0
 45 46  2  0  0  0
 45112  1  0  0  0
 46113  1  0  0  0
 47114  1  0  0  0
 47115  1  0  0  0
 48 56  1  0  0  0
 48 65  1  0  0  0
 48116  1  0  0  0
 49 50  1  0  0  0
 49 53  1  0  0  0
 49 64  1  0  0  0
 49117  1  0  0  0
 50 51  1  0  0  0
 50118  1  0  0  0
 50119  1  0  0  0
 51 52  1  0  0  0
 51120  1  0  0  0
 51121  1  0  0  0
 52122  1  0  0  0
 52123  1  0  0  0
 53 54  1  0  0  0
 54 55  2  0  0  0
 54124  1  0  0  0
 55 57  1  0  0  0
 55125  1  0  0  0
 56 69  2  0  0  0
 57 58  2  0  0  0
 57126  1  0  0  0
 58127  1  0  0  0
 59 60  1  0  0  0
 59 61  1  0  0  0
 59 62  1  0  0  0
 60128  1  0  0  0
 60129  1  0  0  0
 60130  1  0  0  0
 61131  1  0  0  0
 61132  1  0  0  0
 61133  1  0  0  0
 62134  1  0  0  0
 62135  1  0  0  0
 62136  1  0  0  0
 63 65  1  0  0  0
 63137  1  0  0  0
 63138  1  0  0  0
 63139  1  0  0  0
 64140  1  0  0  0
 65141  1  0  0  0
 68 80  1  0  0  0
 71 73  2  0  0  0
 71 75  1  0  0  0
 71142  1  0  0  0
 72 74  1  0  0  0
 72 75  2  0  0  0
 72143  1  0  0  0
 73 76  1  0  0  0
 73144  1  0  0  0
 74 76  2  0  0  0
 74145  1  0  0  0
 75 77  1  0  0  0
 76 82  1  0  0  0
 77 81  1  0  0  0
 77146  1  0  0  0
 77147  1  0  0  0
 78 79  1  0  0  0
 78 80  1  0  0  0
 78148  1  0  0  0
 78149  1  0  0  0
 79 82  1  0  0  0
 79150  1  0  0  0
 79151  1  0  0  0
 80152  1  0  0  0
 80153  1  0  0  0
 81154  1  0  0  0
M  ISO  4   1 100  68 101  80 101  81 100
M  END
> <chiral flag>
0

> <version>
0

> <s_m_source_file>
/data/baiqing/PycharmProjects/Reinvent-master-3.2/result/LINK_invent/BTK/process_docking_weight1_custom_product_contain_oxygen_bond_distance_aromatic_linkinvent_7_9_3/rearranged_h_0001.sdf

> <i_m_source_file_index>
71

> <r_mmod_Potential_Energy-OPLS-2005>
-43.8608894348145

> <r_mmod_Stretch_Energy-OPLS-2005>
44.3968620300293

> <r_mmod_Bend_Energy-OPLS-2005>
128.683959960938

> <r_mmod_Torsional_Energy-OPLS-2005>
231.517532348633

> <r_mmod_Improper_Torsional_Energy-OPLS-2005>
11.4373321533203

> <r_mmod_Van_der_Waal_Energy-OPLS-2005>
144.70849609375

> <r_mmod_Electrostatic_Energy-OPLS-2005>
-417.623291015625

> <r_mmod_Solvation_Energy-OPLS-2005>
-211.263778686523

> <b_mmod_Minimization_Converged-OPLS-2005>
0

> <r_mmod_RMS_Derivative-OPLS-2005>
4.2318434715271

$$$$
71
                    3D
 Structure written by MMmdl.
143150  0  0  1  0            999 V2000
  -30.3355  -15.5533   20.3377 C   0  0  0  0  0  0
  -30.4278  -13.0206   19.5356 C   0  0  0  0  0  0
  -29.5464  -12.6353   18.3151 C   0  0  0  0  0  0
  -28.1142  -12.2965   18.7563 C   0  0  0  0  0  0
  -27.5983  -13.2998   19.8136 C   0  0  2  0  0  0
  -28.6188  -13.6020   20.9348 C   0  0  0  0  0  0
  -25.2335  -13.8272   20.5783 C   0  0  0  0  0  0
  -24.1716  -13.0431   20.9280 C   0  0  0  0  0  0
  -24.6407  -11.6939   20.8763 C   0  0  0  0  0  0
  -23.9108  -10.4290   21.0398 C   0  0  0  0  0  0
  -24.3646   -9.4204   21.9179 C   0  0  0  0  0  0
  -23.6308   -8.2245   22.0753 C   0  0  0  0  0  0
  -22.4289   -8.0285   21.3544 C   0  0  0  0  0  0
  -21.9934   -9.0259   20.4644 C   0  0  0  0  0  0
  -22.7275  -10.2132   20.3050 C   0  0  0  0  0  0
  -21.6858   -6.0738   22.5278 C   0  0  0  0  0  0
  -21.4019   -6.5642   23.8212 C   0  0  0  0  0  0
  -21.3660   -5.6794   24.9173 C   0  0  0  0  0  0
  -21.6043   -4.3057   24.7224 C   0  0  0  0  0  0
  -21.8819   -3.8148   23.4345 C   0  0  0  0  0  0
  -21.9194   -4.6965   22.3402 C   0  0  0  0  0  0
  -22.7731  -13.5167   21.1917 C   0  0  0  0  0  0
  -22.1662   -4.2150   21.0979 F   0  0  0  0  0  0
  -21.5626   -3.4540   25.7737 F   0  0  0  0  0  0
  -29.8047  -14.1993   20.2827 N   0  0  0  0  0  0
  -26.2777  -12.9589   20.3227 N   0  0  0  0  0  0
  -25.9352  -11.6669   20.5705 N   0  0  0  0  0  0
  -22.0396  -12.8145   22.0471 N   0  0  0  0  0  0
  -25.3934  -15.2012   20.4226 N   0  0  0  0  0  0
  -31.5687  -15.5024   20.1771 O   0  0  0  0  0  0
  -21.6647   -6.8885   21.4242 O   0  0  0  0  0  0
  -22.3406  -14.5465   20.6752 O   0  0  0  0  0  0
  -24.6800  -31.8038   23.1543 C   0  0  0  0  0  0
  -25.9399  -32.4487   23.8074 C   0  0  1  0  0  0
  -27.2247  -26.7418   20.2123 C   0  0  0  0  0  0
  -25.5993  -33.8310   24.1966 N   0  0  0  0  0  0
  -23.5038  -30.4073   21.5074 C   0  0  2  0  0  0
  -24.9602  -28.7545   20.1181 C   0  0  0  0  0  0
  -22.7746  -29.4338   22.4723 C   0  0  0  0  0  0
  -18.0336  -28.1422   22.8456 C   0  0  0  0  0  0
  -24.1495  -36.7162   23.2653 C   0  0  0  0  0  0
  -26.0826  -30.5501   21.4119 C   0  0  0  0  0  0
  -26.1487  -29.1190   20.7619 C   0  0  0  0  0  0
  -27.2682  -28.1399   20.7756 C   0  0  0  0  0  0
  -26.0029  -26.5744   19.5148 C   0  0  0  0  0  0
  -24.9238  -27.5069   19.4714 C   0  0  0  0  0  0
  -23.7552  -29.7060   20.1417 C   0  0  0  0  0  0
  -25.4144  -36.2907   24.0285 C   0  0  1  0  0  0
  -20.5969  -28.3778   23.1151 C   0  0  2  0  0  0
  -20.6806  -26.9441   22.5404 C   0  0  0  0  0  0
  -19.5783  -26.6372   21.5218 C   0  0  0  0  0  0
  -18.1963  -26.7949   22.1618 C   0  0  0  0  0  0
  -19.1601  -28.8923   23.2785 C   0  0  0  0  0  0
  -18.9509  -30.1507   23.8830 C   0  0  0  0  0  0
  -17.6500  -30.6605   24.0552 C   0  0  0  0  0  0
  -25.9122  -34.9297   23.4960 C   0  0  0  0  0  0
  -16.5389  -29.9089   23.6351 C   0  0  0  0  0  0
  -16.7316  -28.6511   23.0366 C   0  0  0  0  0  0
  -26.4590  -31.6507   25.0681 C   0  0  0  0  0  0
  -25.3664  -31.3815   26.1302 C   0  0  0  0  0  0
  -27.0517  -30.2851   24.6551 C   0  0  0  0  0  0
  -27.6045  -32.4359   25.7497 C   0  0  0  0  0  0
  -27.5563  -37.1737   24.8467 C   0  0  0  0  0  0
  -21.4398  -29.3031   22.3473 N   0  0  0  0  0  0
  -26.4272  -37.3665   23.9408 N   0  0  0  0  0  0
  -24.7786  -30.9523   22.0774 N   0  0  0  0  0  0
  -23.4209  -28.7935   23.3052 O   0  0  0  0  0  0
  -28.2041  -25.5512   20.2801 O   0  0  0  0  0  0
  -26.5758  -34.8869   22.4574 O   0  0  0  0  0  0
  -23.5828  -32.1094   23.6523 O   0  0  0  0  0  0
  -28.7651  -20.2674   20.2904 C   0  0  0  0  0  0
  -29.0007  -22.1779   20.3080 C   0  0  0  0  0  0
  -29.8051  -18.6520   20.3467 C   0  0  0  0  0  0
  -28.0034  -23.8204   20.2032 C   0  0  0  0  0  0
  -29.5782  -16.9027   20.3825 N   0  0  0  0  0  0
  -31.4268  -13.2705   19.1767 H   0  0  0  0  0  0
  -30.5690  -12.1647   20.1980 H   0  0  0  0  0  0
  -29.9845  -11.7945   17.7757 H   0  0  0  0  0  0
  -29.5210  -13.4708   17.6137 H   0  0  0  0  0  0
  -28.1271  -11.2932   19.1840 H   0  0  0  0  0  0
  -27.4439  -12.2569   17.8969 H   0  0  0  0  0  0
  -27.4709  -14.2301   19.2582 H   0  0  0  0  0  0
  -28.8604  -12.7103   21.5153 H   0  0  0  0  0  0
  -28.2012  -14.3242   21.6380 H   0  0  0  0  0  0
  -25.2785   -9.5679   22.4764 H   0  0  0  0  0  0
  -24.0009   -7.4638   22.7481 H   0  0  0  0  0  0
  -21.0862   -8.8785   19.8952 H   0  0  0  0  0  0
  -22.3730  -10.9673   19.6163 H   0  0  0  0  0  0
  -21.2015   -7.6151   23.9715 H   0  0  0  0  0  0
  -21.1481   -6.0525   25.9076 H   0  0  0  0  0  0
  -22.0596   -2.7611   23.2846 H   0  0  0  0  0  0
  -22.4039  -11.9821   22.4865 H   0  0  0  0  0  0
  -21.1004  -13.1141   22.2671 H   0  0  0  0  0  0
  -24.6207  -15.8487   20.5359 H   0  0  0  0  0  0
  -26.2324  -15.6443   20.0726 H   0  0  0  0  0  0
  -26.7477  -32.4971   23.0784 H   0  0  0  0  0  0
  -25.0059  -33.9354   25.0062 H   0  0  0  0  0  0
  -22.8274  -31.2439   21.3201 H   0  0  0  0  0  0
  -23.3774  -35.9475   23.3272 H   0  0  0  0  0  0
  -24.3562  -36.8864   22.2076 H   0  0  0  0  0  0
  -23.7238  -37.6325   23.6753 H   0  0  0  0  0  0
  -26.2810  -31.2776   20.6238 H   0  0  0  0  0  0
  -26.9354  -30.6164   22.0750 H   0  0  0  0  0  0
  -28.1647  -28.4248   21.3080 H   0  0  0  0  0  0
  -25.8443  -25.6278   19.0182 H   0  0  0  0  0  0
  -24.0252  -27.2191   18.9430 H   0  0  0  0  0  0
  -23.9278  -30.4668   19.3796 H   0  0  0  0  0  0
  -22.8607  -29.1707   19.8189 H   0  0  0  0  0  0
  -25.1351  -36.1675   25.0775 H   0  0  0  0  0  0
  -21.0052  -28.3402   24.1277 H   0  0  0  0  0  0
  -20.5676  -26.2401   23.3662 H   0  0  0  0  0  0
  -21.6667  -26.7393   22.1218 H   0  0  0  0  0  0
  -19.6942  -25.6265   21.1292 H   0  0  0  0  0  0
  -19.6728  -27.3145   20.6718 H   0  0  0  0  0  0
  -17.4233  -26.6692   21.4021 H   0  0  0  0  0  0
  -18.0352  -26.0108   22.9031 H   0  0  0  0  0  0
  -19.7986  -30.7339   24.2170 H   0  0  0  0  0  0
  -17.5053  -31.6279   24.5166 H   0  0  0  0  0  0
  -15.5388  -30.2971   23.7716 H   0  0  0  0  0  0
  -15.8715  -28.0809   22.7122 H   0  0  0  0  0  0
  -24.5873  -30.7140   25.7600 H   0  0  0  0  0  0
  -24.8826  -32.3036   26.4537 H   0  0  0  0  0  0
  -25.7846  -30.9101   27.0204 H   0  0  0  0  0  0
  -26.3228  -29.6473   24.1543 H   0  0  0  0  0  0
  -27.3966  -29.7288   25.5278 H   0  0  0  0  0  0
  -27.9198  -30.3989   24.0055 H   0  0  0  0  0  0
  -27.2593  -33.3729   26.1879 H   0  0  0  0  0  0
  -28.3955  -32.6809   25.0396 H   0  0  0  0  0  0
  -28.0603  -31.8616   26.5574 H   0  0  0  0  0  0
  -28.2553  -38.0057   24.7511 H   0  0  0  0  0  0
  -28.1085  -36.2580   24.6299 H   0  0  0  0  0  0
  -27.2276  -37.1380   25.8868 H   0  0  0  0  0  0
  -20.9695  -29.8687   21.6544 H   0  0  0  0  0  0
  -26.0103  -38.2714   24.1421 H   0  0  0  0  0  0
  -28.1541  -20.1192   19.3998 H   0  0  0  0  0  0
  -28.0571  -20.1169   21.1057 H   0  0  0  0  0  0
  -29.7448  -22.3205   19.5244 H   0  0  0  0  0  0
  -29.5730  -22.3235   21.2244 H   0  0  0  0  0  0
  -30.4440  -18.8018   21.2176 H   0  0  0  0  0  0
  -30.4945  -18.7676   19.5099 H   0  0  0  0  0  0
  -27.2299  -23.6732   20.9571 H   0  0  0  0  0  0
  -27.4624  -23.7113   19.2633 H   0  0  0  0  0  0
  -28.5926  -16.6942   20.4591 H   0  0  0  0  0  0
  1 25  1  0  0  0
  1 30  2  0  0  0
  1 75  1  0  0  0
  2  3  1  0  0  0
  2 25  1  0  0  0
  2 76  1  0  0  0
  2 77  1  0  0  0
  3  4  1  0  0  0
  3 78  1  0  0  0
  3 79  1  0  0  0
  4  5  1  0  0  0
  4 80  1  0  0  0
  4 81  1  0  0  0
  5  6  1  0  0  0
  5 26  1  0  0  0
  5 82  1  0  0  0
  6 25  1  0  0  0
  6 83  1  0  0  0
  6 84  1  0  0  0
  7  8  2  0  0  0
  7 26  1  0  0  0
  7 29  1  0  0  0
  8  9  1  0  0  0
  8 22  1  0  0  0
  9 10  1  0  0  0
  9 27  2  0  0  0
 10 11  2  0  0  0
 10 15  1  0  0  0
 11 12  1  0  0  0
 11 85  1  0  0  0
 12 13  2  0  0  0
 12 86  1  0  0  0
 13 14  1  0  0  0
 13 31  1  0  0  0
 14 15  2  0  0  0
 14 87  1  0  0  0
 15 88  1  0  0  0
 16 17  2  0  0  0
 16 21  1  0  0  0
 16 31  1  0  0  0
 17 18  1  0  0  0
 17 89  1  0  0  0
 18 19  2  0  0  0
 18 90  1  0  0  0
 19 20  1  0  0  0
 19 24  1  0  0  0
 20 21  2  0  0  0
 20 91  1  0  0  0
 21 23  1  0  0  0
 22 28  1  0  0  0
 22 32  2  0  0  0
 26 27  1  0  0  0
 28 92  1  0  0  0
 28 93  1  0  0  0
 29 94  1  0  0  0
 29 95  1  0  0  0
 33 34  1  0  0  0
 33 66  1  0  0  0
 33 70  2  0  0  0
 34 36  1  0  0  0
 34 59  1  0  0  0
 34 96  1  0  0  0
 35 44  2  0  0  0
 35 45  1  0  0  0
 35 68  1  0  0  0
 36 56  1  0  0  0
 36 97  1  0  0  0
 37 39  1  0  0  0
 37 47  1  0  0  0
 37 66  1  0  0  0
 37 98  1  0  0  0
 38 43  2  0  0  0
 38 46  1  0  0  0
 38 47  1  0  0  0
 39 64  1  0  0  0
 39 67  2  0  0  0
 40 52  1  0  0  0
 40 53  2  0  0  0
 40 58  1  0  0  0
 41 99  1  0  0  0
 41100  1  0  0  0
 41101  1  0  0  0
 41 48  1  0  0  0
 42 43  1  0  0  0
 42 66  1  0  0  0
 42102  1  0  0  0
 42103  1  0  0  0
 43 44  1  0  0  0
 44104  1  0  0  0
 45 46  2  0  0  0
 45105  1  0  0  0
 46106  1  0  0  0
 47107  1  0  0  0
 47108  1  0  0  0
 48 56  1  0  0  0
 48 65  1  0  0  0
 48109  1  0  0  0
 49 50  1  0  0  0
 49 53  1  0  0  0
 49 64  1  0  0  0
 49110  1  0  0  0
 50 51  1  0  0  0
 50111  1  0  0  0
 50112  1  0  0  0
 51 52  1  0  0  0
 51113  1  0  0  0
 51114  1  0  0  0
 52115  1  0  0  0
 52116  1  0  0  0
 53 54  1  0  0  0
 54 55  2  0  0  0
 54117  1  0  0  0
 55 57  1  0  0  0
 55118  1  0  0  0
 56 69  2  0  0  0
 57 58  2  0  0  0
 57119  1  0  0  0
 58120  1  0  0  0
 59 60  1  0  0  0
 59 61  1  0  0  0
 59 62  1  0  0  0
 60121  1  0  0  0
 60122  1  0  0  0
 60123  1  0  0  0
 61124  1  0  0  0
 61125  1  0  0  0
 61126  1  0  0  0
 62127  1  0  0  0
 62128  1  0  0  0
 62129  1  0  0  0
 63 65  1  0  0  0
 63130  1  0  0  0
 63131  1  0  0  0
 63132  1  0  0  0
 64133  1  0  0  0
 65134  1  0  0  0
 68 74  1  0  0  0
 71 72  1  0  0  0
 71 73  1  0  0  0
 71135  1  0  0  0
 71136  1  0  0  0
 72 74  1  0  0  0
 72137  1  0  0  0
 72138  1  0  0  0
 73 75  1  0  0  0
 73139  1  0  0  0
 73140  1  0  0  0
 74141  1  0  0  0
 74142  1  0  0  0
 75143  1  0  0  0
M  ISO  4   1 100  68 101  74 101  75 100
M  END
> <chiral flag>
0

> <version>
0

> <s_m_source_file>
/data/baiqing/PycharmProjects/Reinvent-master-3.2/result/LINK_invent/BTK/process_docking_weight1_custom_product_contain_oxygen_bond_distance_aromatic_linkinvent_7_9_3/rearranged_h_0001.sdf

> <i_m_source_file_index>
72

> <r_mmod_Potential_Energy-OPLS-2005>
2236.59155273438

> <r_mmod_Stretch_Energy-OPLS-2005>
1088.18041992188

> <r_mmod_Bend_Energy-OPLS-2005>
600.093139648438

> <r_mmod_Torsional_Energy-OPLS-2005>
206.369812011719

> <r_mmod_Improper_Torsional_Energy-OPLS-2005>
3.66827178001404

> <r_mmod_Van_der_Waal_Energy-OPLS-2005>
110.215888977051

> <r_mmod_Electrostatic_Energy-OPLS-2005>
-352.887237548828

> <r_mmod_Solvation_Energy-OPLS-2005>
-215.827575683594

> <b_mmod_Minimization_Converged-OPLS-2005>
0

> <r_mmod_RMS_Derivative-OPLS-2005>
0.268112510442734

$$$$
72
                    3D
 Structure written by MMmdl.
149157  0  0  1  0            999 V2000
  -30.5146  -14.8970   20.4391 C   0  0  0  0  0  0
  -30.4552  -12.5516   19.4882 C   0  0  0  0  0  0
  -29.5258  -12.5307   18.2503 C   0  0  0  0  0  0
  -28.0549  -12.3233   18.6638 C   0  0  0  0  0  0
  -27.6402  -13.2347   19.8478 C   0  0  2  0  0  0
  -28.6849  -13.2020   20.9851 C   0  0  0  0  0  0
  -25.2507  -13.8183   20.5687 C   0  0  0  0  0  0
  -24.1808  -13.0432   20.9226 C   0  0  0  0  0  0
  -24.6401  -11.6911   20.8754 C   0  0  0  0  0  0
  -23.9075  -10.4289   21.0411 C   0  0  0  0  0  0
  -24.3623   -9.4203   21.9187 C   0  0  0  0  0  0
  -23.6294   -8.2241   22.0755 C   0  0  0  0  0  0
  -22.4276   -8.0282   21.3546 C   0  0  0  0  0  0
  -21.9915   -9.0257   20.4649 C   0  0  0  0  0  0
  -22.7247  -10.2135   20.3059 C   0  0  0  0  0  0
  -21.6853   -6.0735   22.5279 C   0  0  0  0  0  0
  -21.4014   -6.5639   23.8213 C   0  0  0  0  0  0
  -21.3660   -5.6792   24.9174 C   0  0  0  0  0  0
  -21.6043   -4.3054   24.7225 C   0  0  0  0  0  0
  -21.8819   -3.8147   23.4346 C   0  0  0  0  0  0
  -21.9192   -4.6963   22.3402 C   0  0  0  0  0  0
  -22.7828  -13.5218   21.1878 C   0  0  0  0  0  0
  -22.1661   -4.2149   21.0980 F   0  0  0  0  0  0
  -21.5629   -3.4538   25.7738 F   0  0  0  0  0  0
  -29.9715  -13.6175   20.4055 N   0  0  0  0  0  0
  -26.2931  -12.9392   20.3252 N   0  0  0  0  0  0
  -25.9331  -11.6536   20.5737 N   0  0  0  0  0  0
  -22.0468  -12.8211   22.0432 N   0  0  0  0  0  0
  -25.4175  -15.1904   20.4053 N   0  0  0  0  0  0
  -31.7003  -15.0433   20.1203 O   0  0  0  0  0  0
  -21.6639   -6.8879   21.4241 O   0  0  0  0  0  0
  -22.3517  -14.5522   20.6717 O   0  0  0  0  0  0
  -24.6418  -31.8461   23.1900 C   0  0  0  0  0  0
  -25.9198  -32.4706   23.8284 C   0  0  1  0  0  0
  -27.2215  -27.1597   20.1448 C   0  0  0  0  0  0
  -25.5952  -33.8511   24.2202 N   0  0  0  0  0  0
  -23.4442  -30.4665   21.5354 C   0  0  2  0  0  0
  -24.8938  -28.8978   20.1109 C   0  0  0  0  0  0
  -22.7558  -29.4559   22.4868 C   0  0  0  0  0  0
  -18.0304  -28.1393   22.8479 C   0  0  0  0  0  0
  -24.1491  -36.7261   23.2642 C   0  0  0  0  0  0
  -25.9991  -30.7276   21.3852 C   0  0  0  0  0  0
  -26.0714  -29.3413   20.7262 C   0  0  0  0  0  0
  -27.2366  -28.4889   20.7252 C   0  0  0  0  0  0
  -26.0150  -26.8126   19.4950 C   0  0  0  0  0  0
  -24.8774  -27.6458   19.4806 C   0  0  0  0  0  0
  -23.6694  -29.7971   20.1543 C   0  0  0  0  0  0
  -25.4122  -36.3039   24.0317 C   0  0  1  0  0  0
  -20.5915  -28.3719   23.1239 C   0  0  2  0  0  0
  -20.6788  -26.9424   22.5403 C   0  0  0  0  0  0
  -19.5761  -26.6381   21.5211 C   0  0  0  0  0  0
  -18.1943  -26.7932   22.1625 C   0  0  0  0  0  0
  -19.1560  -28.8874   23.2852 C   0  0  0  0  0  0
  -18.9476  -30.1470   23.8878 C   0  0  0  0  0  0
  -17.6473  -30.6590   24.0559 C   0  0  0  0  0  0
  -25.9071  -34.9413   23.5067 C   0  0  0  0  0  0
  -16.5364  -29.9083   23.6334 C   0  0  0  0  0  0
  -16.7289  -28.6501   23.0356 C   0  0  0  0  0  0
  -26.4524  -31.6567   25.0718 C   0  0  0  0  0  0
  -25.3713  -31.3748   26.1414 C   0  0  0  0  0  0
  -27.0389  -30.2967   24.6285 C   0  0  0  0  0  0
  -27.6055  -32.4330   25.7504 C   0  0  0  0  0  0
  -27.5576  -37.1788   24.8466 C   0  0  0  0  0  0
  -21.4253  -29.3049   22.3614 N   0  0  0  0  0  0
  -26.4288  -37.3749   23.9407 N   0  0  0  0  0  0
  -24.7148  -31.0338   22.0923 N   0  0  0  0  0  0
  -23.4209  -28.8104   23.3009 O   0  0  0  0  0  0
  -28.2835  -26.1892   20.2094 O   0  0  0  0  0  0
  -26.5654  -34.8907   22.4644 O   0  0  0  0  0  0
  -23.5542  -32.1327   23.7132 O   0  0  0  0  0  0
  -28.2366  -18.0817   20.7183 C   0  0  0  0  0  0
  -30.5202  -18.5072   20.3130 C   0  0  0  0  0  0
  -27.9516  -19.4917   20.6393 C   0  0  0  0  0  0
  -30.2296  -19.9455   20.2477 C   0  0  0  0  0  0
  -29.5263  -17.4891   20.5531 C   0  0  0  0  0  0
  -28.9146  -20.5197   20.4005 C   0  0  0  0  0  0
  -29.0141  -23.3595   20.3275 C   0  0  0  0  0  0
  -27.9882  -24.6721   20.1002 C   0  0  0  0  0  0
  -29.6283  -15.9693   20.6755 N   0  0  0  0  0  0
  -28.4323  -21.9218   20.3165 N   0  0  0  0  0  0
  -31.4870  -12.7245   19.1781 H   0  0  0  0  0  0
  -30.4529  -11.5836   19.9914 H   0  0  0  0  0  0
  -29.8345  -11.7459   17.5584 H   0  0  0  0  0  0
  -29.6220  -13.4719   17.7066 H   0  0  0  0  0  0
  -27.9371  -11.2769   18.9476 H   0  0  0  0  0  0
  -27.3945  -12.4832   17.8106 H   0  0  0  0  0  0
  -27.6204  -14.2483   19.4471 H   0  0  0  0  0  0
  -28.7581  -12.2031   21.4177 H   0  0  0  0  0  0
  -28.3907  -13.8636   21.8015 H   0  0  0  0  0  0
  -25.2767   -9.5678   22.4764 H   0  0  0  0  0  0
  -24.0002   -7.4631   22.7473 H   0  0  0  0  0  0
  -21.0846   -8.8778   19.8954 H   0  0  0  0  0  0
  -22.3707  -10.9675   19.6169 H   0  0  0  0  0  0
  -21.2007   -7.6147   23.9716 H   0  0  0  0  0  0
  -21.1482   -6.0522   25.9077 H   0  0  0  0  0  0
  -22.0598   -2.7609   23.2845 H   0  0  0  0  0  0
  -22.4085  -11.9877   22.4826 H   0  0  0  0  0  0
  -21.1084  -13.1235   22.2631 H   0  0  0  0  0  0
  -24.6349  -15.8303   20.4887 H   0  0  0  0  0  0
  -26.2295  -15.6146   19.9775 H   0  0  0  0  0  0
  -26.7265  -32.5321   23.1016 H   0  0  0  0  0  0
  -25.0078  -33.9628   25.0335 H   0  0  0  0  0  0
  -22.7459  -31.2919   21.3824 H   0  0  0  0  0  0
  -23.3756  -35.9590   23.3296 H   0  0  0  0  0  0
  -24.3578  -36.8900   22.2058 H   0  0  0  0  0  0
  -23.7245  -37.6455   23.6682 H   0  0  0  0  0  0
  -26.1521  -31.4836   20.6138 H   0  0  0  0  0  0
  -26.8706  -30.7772   22.0264 H   0  0  0  0  0  0
  -28.1343  -28.8249   21.2250 H   0  0  0  0  0  0
  -25.9116  -25.8577   19.0039 H   0  0  0  0  0  0
  -23.9784  -27.3007   18.9886 H   0  0  0  0  0  0
  -23.8040  -30.5720   19.3988 H   0  0  0  0  0  0
  -22.7849  -29.2378   19.8444 H   0  0  0  0  0  0
  -25.1309  -36.1870   25.0810 H   0  0  0  0  0  0
  -21.0009  -28.3307   24.1359 H   0  0  0  0  0  0
  -20.5681  -26.2332   23.3621 H   0  0  0  0  0  0
  -21.6654  -26.7430   22.1202 H   0  0  0  0  0  0
  -19.6922  -25.6286   21.1255 H   0  0  0  0  0  0
  -19.6696  -27.3179   20.6731 H   0  0  0  0  0  0
  -17.4210  -26.6675   21.4030 H   0  0  0  0  0  0
  -18.0345  -26.0079   22.9027 H   0  0  0  0  0  0
  -19.7952  -30.7291   24.2239 H   0  0  0  0  0  0
  -17.5025  -31.6268   24.5164 H   0  0  0  0  0  0
  -15.5364  -30.2978   23.7667 H   0  0  0  0  0  0
  -15.8690  -28.0811   22.7084 H   0  0  0  0  0  0
  -24.5901  -30.7086   25.7736 H   0  0  0  0  0  0
  -24.8891  -32.2927   26.4787 H   0  0  0  0  0  0
  -25.8001  -30.8958   27.0225 H   0  0  0  0  0  0
  -26.3004  -29.6690   24.1283 H   0  0  0  0  0  0
  -27.4003  -29.7262   25.4851 H   0  0  0  0  0  0
  -27.8911  -30.4209   23.9599 H   0  0  0  0  0  0
  -27.2648  -33.3646   26.2033 H   0  0  0  0  0  0
  -28.3894  -32.6864   25.0354 H   0  0  0  0  0  0
  -28.0693  -31.8488   26.5463 H   0  0  0  0  0  0
  -28.2588  -38.0089   24.7508 H   0  0  0  0  0  0
  -28.1076  -36.2618   24.6298 H   0  0  0  0  0  0
  -27.2293  -37.1442   25.8869 H   0  0  0  0  0  0
  -20.9458  -29.8765   21.6799 H   0  0  0  0  0  0
  -26.0156  -38.2819   24.1405 H   0  0  0  0  0  0
  -27.3971  -17.4306   20.9148 H   0  0  0  0  0  0
  -31.5454  -18.1939   20.1758 H   0  0  0  0  0  0
  -26.9191  -19.7814   20.7746 H   0  0  0  0  0  0
  -31.0561  -20.6149   20.0569 H   0  0  0  0  0  0
  -29.5153  -23.4908   21.2874 H   0  0  0  0  0  0
  -29.8051  -23.4065   19.5781 H   0  0  0  0  0  0
  -27.1462  -24.5051   20.7732 H   0  0  0  0  0  0
  -27.5883  -24.5250   19.0974 H   0  0  0  0  0  0
  -28.7396  -15.5694   20.9336 H   0  0  0  0  0  0
  -27.4167  -21.9648   20.3636 H   0  0  0  0  0  0
  1 25  1  0  0  0
  1 30  2  0  0  0
  1 79  1  0  0  0
  2  3  1  0  0  0
  2 25  1  0  0  0
  2 81  1  0  0  0
  2 82  1  0  0  0
  3  4  1  0  0  0
  3 83  1  0  0  0
  3 84  1  0  0  0
  4  5  1  0  0  0
  4 85  1  0  0  0
  4 86  1  0  0  0
  5  6  1  0  0  0
  5 26  1  0  0  0
  5 87  1  0  0  0
  6 25  1  0  0  0
  6 88  1  0  0  0
  6 89  1  0  0  0
  7  8  2  0  0  0
  7 26  1  0  0  0
  7 29  1  0  0  0
  8  9  1  0  0  0
  8 22  1  0  0  0
  9 10  1  0  0  0
  9 27  2  0  0  0
 10 11  2  0  0  0
 10 15  1  0  0  0
 11 12  1  0  0  0
 11 90  1  0  0  0
 12 13  2  0  0  0
 12 91  1  0  0  0
 13 14  1  0  0  0
 13 31  1  0  0  0
 14 15  2  0  0  0
 14 92  1  0  0  0
 15 93  1  0  0  0
 16 17  2  0  0  0
 16 21  1  0  0  0
 16 31  1  0  0  0
 17 18  1  0  0  0
 17 94  1  0  0  0
 18 19  2  0  0  0
 18 95  1  0  0  0
 19 20  1  0  0  0
 19 24  1  0  0  0
 20 21  2  0  0  0
 20 96  1  0  0  0
 21 23  1  0  0  0
 22 28  1  0  0  0
 22 32  2  0  0  0
 26 27  1  0  0  0
 28 97  1  0  0  0
 28 98  1  0  0  0
 29 99  1  0  0  0
 29100  1  0  0  0
 33 34  1  0  0  0
 33 66  1  0  0  0
 33 70  2  0  0  0
 34 36  1  0  0  0
 34 59  1  0  0  0
 34101  1  0  0  0
 35 44  2  0  0  0
 35 45  1  0  0  0
 35 68  1  0  0  0
 36 56  1  0  0  0
 36102  1  0  0  0
 37 39  1  0  0  0
 37 47  1  0  0  0
 37 66  1  0  0  0
 37103  1  0  0  0
 38 43  2  0  0  0
 38 46  1  0  0  0
 38 47  1  0  0  0
 39 64  1  0  0  0
 39 67  2  0  0  0
 40 52  1  0  0  0
 40 53  2  0  0  0
 40 58  1  0  0  0
 41104  1  0  0  0
 41105  1  0  0  0
 41106  1  0  0  0
 41 48  1  0  0  0
 42 43  1  0  0  0
 42 66  1  0  0  0
 42107  1  0  0  0
 42108  1  0  0  0
 43 44  1  0  0  0
 44109  1  0  0  0
 45 46  2  0  0  0
 45110  1  0  0  0
 46111  1  0  0  0
 47112  1  0  0  0
 47113  1  0  0  0
 48 56  1  0  0  0
 48 65  1  0  0  0
 48114  1  0  0  0
 49 50  1  0  0  0
 49 53  1  0  0  0
 49 64  1  0  0  0
 49115  1  0  0  0
 50 51  1  0  0  0
 50116  1  0  0  0
 50117  1  0  0  0
 51 52  1  0  0  0
 51118  1  0  0  0
 51119  1  0  0  0
 52120  1  0  0  0
 52121  1  0  0  0
 53 54  1  0  0  0
 54 55  2  0  0  0
 54122  1  0  0  0
 55 57  1  0  0  0
 55123  1  0  0  0
 56 69  2  0  0  0
 57 58  2  0  0  0
 57124  1  0  0  0
 58125  1  0  0  0
 59 60  1  0  0  0
 59 61  1  0  0  0
 59 62  1  0  0  0
 60126  1  0  0  0
 60127  1  0  0  0
 60128  1  0  0  0
 61129  1  0  0  0
 61130  1  0  0  0
 61131  1  0  0  0
 62132  1  0  0  0
 62133  1  0  0  0
 62134  1  0  0  0
 63 65  1  0  0  0
 63135  1  0  0  0
 63136  1  0  0  0
 63137  1  0  0  0
 64138  1  0  0  0
 65139  1  0  0  0
 68 78  1  0  0  0
 71 73  2  0  0  0
 71 75  1  0  0  0
 71140  1  0  0  0
 72 74  1  0  0  0
 72 75  2  0  0  0
 72141  1  0  0  0
 73 76  1  0  0  0
 73142  1  0  0  0
 74 76  2  0  0  0
 74143  1  0  0  0
 75 79  1  0  0  0
 76 80  1  0  0  0
 77 78  1  0  0  0
 77 80  1  0  0  0
 77144  1  0  0  0
 77145  1  0  0  0
 78146  1  0  0  0
 78147  1  0  0  0
 79148  1  0  0  0
 80149  1  0  0  0
M  ISO  4   1 100  68 101  78 101  79 100
M  END
> <chiral flag>
0

> <version>
0

> <s_m_source_file>
/data/baiqing/PycharmProjects/Reinvent-master-3.2/result/LINK_invent/BTK/process_docking_weight1_custom_product_contain_oxygen_bond_distance_aromatic_linkinvent_7_9_3/rearranged_h_0001.sdf

> <i_m_source_file_index>
73

> <r_mmod_Potential_Energy-OPLS-2005>
390.738555908203

> <r_mmod_Stretch_Energy-OPLS-2005>
202.600051879883

> <r_mmod_Bend_Energy-OPLS-2005>
288.785308837891

> <r_mmod_Torsional_Energy-OPLS-2005>
203.258590698242

> <r_mmod_Improper_Torsional_Energy-OPLS-2005>
4.59908533096313

> <r_mmod_Van_der_Waal_Energy-OPLS-2005>
131.553817749023

> <r_mmod_Electrostatic_Energy-OPLS-2005>
-379.286437988281

> <r_mmod_Solvation_Energy-OPLS-2005>
-225.920135498047

> <b_mmod_Minimization_Converged-OPLS-2005>
0

> <r_mmod_RMS_Derivative-OPLS-2005>
0.165144622325897

$$$$
73
                    3D
 Structure written by MMmdl.
158165  0  0  1  0            999 V2000
  -30.6979  -14.4374   20.6070 C   0  0  0  0  0  0
  -30.4229  -12.2932   19.4312 C   0  0  0  0  0  0
  -29.5006  -12.5176   18.2142 C   0  0  0  0  0  0
  -28.0201  -12.3686   18.6148 C   0  0  0  0  0  0
  -27.6621  -13.1971   19.8765 C   0  0  2  0  0  0
  -28.6942  -12.9357   20.9946 C   0  0  0  0  0  0
  -25.2620  -13.8149   20.5675 C   0  0  0  0  0  0
  -24.1840  -13.0438   20.9175 C   0  0  0  0  0  0
  -24.6373  -11.6906   20.8715 C   0  0  0  0  0  0
  -23.9050  -10.4292   21.0401 C   0  0  0  0  0  0
  -24.3601   -9.4207   21.9190 C   0  0  0  0  0  0
  -23.6291   -8.2243   22.0749 C   0  0  0  0  0  0
  -22.4268   -8.0291   21.3561 C   0  0  0  0  0  0
  -21.9905   -9.0248   20.4660 C   0  0  0  0  0  0
  -22.7217  -10.2136   20.3072 C   0  0  0  0  0  0
  -21.6844   -6.0755   22.5288 C   0  0  0  0  0  0
  -21.3995   -6.5652   23.8217 C   0  0  0  0  0  0
  -21.3655   -5.6809   24.9178 C   0  0  0  0  0  0
  -21.6030   -4.3070   24.7228 C   0  0  0  0  0  0
  -21.8828   -3.8173   23.4352 C   0  0  0  0  0  0
  -21.9173   -4.6988   22.3405 C   0  0  0  0  0  0
  -22.7869  -13.5256   21.1840 C   0  0  0  0  0  0
  -22.1666   -4.2176   21.0988 F   0  0  0  0  0  0
  -21.5620   -3.4549   25.7744 F   0  0  0  0  0  0
  -30.0248  -13.2647   20.4631 N   0  0  0  0  0  0
  -26.3004  -12.9287   20.3314 N   0  0  0  0  0  0
  -25.9285  -11.6454   20.5702 N   0  0  0  0  0  0
  -22.0500  -12.8239   22.0391 N   0  0  0  0  0  0
  -25.4449  -15.1863   20.4166 N   0  0  0  0  0  0
  -31.8247  -14.6235   20.1413 O   0  0  0  0  0  0
  -21.6638   -6.8887   21.4256 O   0  0  0  0  0  0
  -22.3569  -14.5563   20.6702 O   0  0  0  0  0  0
  -24.6105  -31.8729   23.2150 C   0  0  0  0  0  0
  -25.9002  -32.4873   23.8427 C   0  0  1  0  0  0
  -27.2193  -27.4482   20.1143 C   0  0  0  0  0  0
  -25.5868  -33.8676   24.2368 N   0  0  0  0  0  0
  -23.3985  -30.4971   21.5536 C   0  0  2  0  0  0
  -24.8478  -28.9723   20.1099 C   0  0  0  0  0  0
  -22.7384  -29.4685   22.5006 C   0  0  0  0  0  0
  -18.0239  -28.1395   22.8478 C   0  0  0  0  0  0
  -24.1484  -36.7324   23.2650 C   0  0  0  0  0  0
  -25.9283  -30.8425   21.3675 C   0  0  0  0  0  0
  -26.0047  -29.4773   20.7187 C   0  0  0  0  0  0
  -27.1950  -28.7180   20.7297 C   0  0  0  0  0  0
  -26.0615  -26.9717   19.4654 C   0  0  0  0  0  0
  -24.8691  -27.7157   19.4822 C   0  0  0  0  0  0
  -23.6062  -29.8347   20.1652 C   0  0  0  0  0  0
  -25.4101  -36.3163   24.0374 C   0  0  1  0  0  0
  -20.5838  -28.3654   23.1296 C   0  0  2  0  0  0
  -20.6732  -26.9392   22.5399 C   0  0  0  0  0  0
  -19.5699  -26.6367   21.5229 C   0  0  0  0  0  0
  -18.1877  -26.7945   22.1618 C   0  0  0  0  0  0
  -19.1498  -28.8830   23.2889 C   0  0  0  0  0  0
  -18.9430  -30.1425   23.8898 C   0  0  0  0  0  0
  -17.6448  -30.6589   24.0543 C   0  0  0  0  0  0
  -25.9021  -34.9521   23.5177 C   0  0  0  0  0  0
  -16.5329  -29.9098   23.6335 C   0  0  0  0  0  0
  -16.7223  -28.6515   23.0362 C   0  0  0  0  0  0
  -26.4431  -31.6642   25.0736 C   0  0  0  0  0  0
  -25.3712  -31.3706   26.1486 C   0  0  0  0  0  0
  -27.0272  -30.3118   24.6080 C   0  0  0  0  0  0
  -27.6048  -32.4313   25.7468 C   0  0  0  0  0  0
  -27.5593  -37.1828   24.8474 C   0  0  0  0  0  0
  -21.4112  -29.3040   22.3724 N   0  0  0  0  0  0
  -26.4301  -37.3817   23.9430 N   0  0  0  0  0  0
  -24.6634  -31.0844   22.1040 N   0  0  0  0  0  0
  -23.4165  -28.8236   23.3042 O   0  0  0  0  0  0
  -28.3430  -26.6622   20.1444 O   0  0  0  0  0  0
  -26.5572  -34.8938   22.4733 O   0  0  0  0  0  0
  -23.5296  -32.1455   23.7555 O   0  0  0  0  0  0
  -27.9655  -18.3621   24.0315 C   0  0  0  0  0  0
  -26.9441  -19.5123   24.1055 C   0  0  0  0  0  0
  -29.7122  -17.2624   22.6244 C   0  0  0  0  0  0
  -29.2562  -15.8733   22.1216 C   0  0  0  0  0  0
  -28.3895  -25.7605   21.2631 C   0  0  0  0  0  0
  -26.4133  -21.6875   23.3211 C   0  0  0  0  0  0
  -27.2725  -24.6850   21.2467 C   0  0  0  0  0  0
  -26.4573  -22.6393   22.1063 C   0  0  0  0  0  0
  -28.6013  -18.1818   22.8684 N   0  0  0  0  0  0
  -29.9662  -15.5247   20.8885 N   0  0  0  0  0  0
  -28.1797  -17.6542   25.0184 O   0  0  0  0  0  0
  -27.2663  -20.5512   23.1674 O   0  0  0  0  0  0
  -27.4557  -23.6584   22.2264 O   0  0  0  0  0  0
  -31.4706  -12.3975   19.1399 H   0  0  0  0  0  0
  -30.3263  -11.2741   19.8131 H   0  0  0  0  0  0
  -29.7472  -11.8085   17.4211 H   0  0  0  0  0  0
  -29.6670  -13.5165   17.8042 H   0  0  0  0  0  0
  -27.8379  -11.3107   18.8052 H   0  0  0  0  0  0
  -27.3684  -12.6422   17.7849 H   0  0  0  0  0  0
  -27.7160  -14.2496   19.5963 H   0  0  0  0  0  0
  -28.6725  -11.8857   21.2865 H   0  0  0  0  0  0
  -28.4371  -13.4706   21.9008 H   0  0  0  0  0  0
  -25.2736   -9.5674   22.4779 H   0  0  0  0  0  0
  -23.9995   -7.4629   22.7471 H   0  0  0  0  0  0
  -21.0821   -8.8775   19.8973 H   0  0  0  0  0  0
  -22.3667  -10.9690   19.6199 H   0  0  0  0  0  0
  -21.2013   -7.6162   23.9731 H   0  0  0  0  0  0
  -21.1456   -6.0537   25.9073 H   0  0  0  0  0  0
  -22.0610   -2.7645   23.2840 H   0  0  0  0  0  0
  -22.4094  -11.9854   22.4708 H   0  0  0  0  0  0
  -21.1166  -13.1350   22.2702 H   0  0  0  0  0  0
  -24.6950  -15.8572   20.5338 H   0  0  0  0  0  0
  -26.3139  -15.6085   20.1114 H   0  0  0  0  0  0
  -26.7081  -32.5552   23.1189 H   0  0  0  0  0  0
  -25.0013  -33.9827   25.0512 H   0  0  0  0  0  0
  -22.6843  -31.3125   21.4207 H   0  0  0  0  0  0
  -23.3757  -35.9646   23.3324 H   0  0  0  0  0  0
  -24.3585  -36.8890   22.2064 H   0  0  0  0  0  0
  -23.7198  -37.6529   23.6617 H   0  0  0  0  0  0
  -26.0348  -31.6063   20.5964 H   0  0  0  0  0  0
  -26.8187  -30.8985   21.9819 H   0  0  0  0  0  0
  -28.0829  -29.0948   21.2180 H   0  0  0  0  0  0
  -26.0753  -26.0120   18.9695 H   0  0  0  0  0  0
  -23.9837  -27.3178   19.0079 H   0  0  0  0  0  0
  -23.7082  -30.6164   19.4104 H   0  0  0  0  0  0
  -22.7313  -29.2544   19.8668 H   0  0  0  0  0  0
  -25.1274  -36.2071   25.0870 H   0  0  0  0  0  0
  -20.9891  -28.3179   24.1421 H   0  0  0  0  0  0
  -21.6595  -26.7398   22.1180 H   0  0  0  0  0  0
  -20.5664  -26.2270   23.3578 H   0  0  0  0  0  0
  -19.6855  -25.6277   21.1268 H   0  0  0  0  0  0
  -19.6670  -27.3135   20.6732 H   0  0  0  0  0  0
  -17.4129  -26.6661   21.4036 H   0  0  0  0  0  0
  -18.0219  -26.0105   22.9015 H   0  0  0  0  0  0
  -19.7898  -30.7229   24.2310 H   0  0  0  0  0  0
  -17.5018  -31.6296   24.5092 H   0  0  0  0  0  0
  -15.5345  -30.3023   23.7698 H   0  0  0  0  0  0
  -15.8608  -28.0859   22.7099 H   0  0  0  0  0  0
  -24.5881  -30.7063   25.7797 H   0  0  0  0  0  0
  -24.8877  -32.2831   26.4993 H   0  0  0  0  0  0
  -25.8055  -30.8824   27.0218 H   0  0  0  0  0  0
  -26.2836  -29.6888   24.1093 H   0  0  0  0  0  0
  -27.4038  -29.7349   25.4531 H   0  0  0  0  0  0
  -27.8657  -30.4470   23.9241 H   0  0  0  0  0  0
  -27.2737  -33.3601   26.2117 H   0  0  0  0  0  0
  -28.3810  -32.6875   25.0247 H   0  0  0  0  0  0
  -28.0771  -31.8374   26.5302 H   0  0  0  0  0  0
  -28.2649  -38.0090   24.7526 H   0  0  0  0  0  0
  -28.1049  -36.2637   24.6308 H   0  0  0  0  0  0
  -27.2315  -37.1502   25.8872 H   0  0  0  0  0  0
  -20.9261  -29.8716   21.6925 H   0  0  0  0  0  0
  -26.0230  -38.2923   24.1364 H   0  0  0  0  0  0
  -25.9513  -19.1092   23.8939 H   0  0  0  0  0  0
  -26.9213  -19.9102   25.1214 H   0  0  0  0  0  0
  -30.3607  -17.7445   21.8930 H   0  0  0  0  0  0
  -30.3206  -17.1584   23.5236 H   0  0  0  0  0  0
  -29.4349  -15.1359   22.9071 H   0  0  0  0  0  0
  -28.1839  -15.8658   21.9084 H   0  0  0  0  0  0
  -28.3706  -26.3205   22.2002 H   0  0  0  0  0  0
  -29.3547  -25.2564   21.2326 H   0  0  0  0  0  0
  -26.6382  -22.2224   24.2463 H   0  0  0  0  0  0
  -25.3856  -21.3278   23.4161 H   0  0  0  0  0  0
  -27.2359  -24.2300   20.2552 H   0  0  0  0  0  0
  -26.3077  -25.1641   21.4259 H   0  0  0  0  0  0
  -25.4785  -23.1236   22.0351 H   0  0  0  0  0  0
  -26.5942  -22.0757   21.1819 H   0  0  0  0  0  0
  -28.3568  -18.8352   22.1327 H   0  0  0  0  0  0
  -30.3889  -16.3408   20.4722 H   0  0  0  0  0  0
  1 25  1  0  0  0
  1 30  2  0  0  0
  1 80  1  0  0  0
  2  3  1  0  0  0
  2 25  1  0  0  0
  2 84  1  0  0  0
  2 85  1  0  0  0
  3  4  1  0  0  0
  3 86  1  0  0  0
  3 87  1  0  0  0
  4  5  1  0  0  0
  4 88  1  0  0  0
  4 89  1  0  0  0
  5  6  1  0  0  0
  5 26  1  0  0  0
  5 90  1  0  0  0
  6 25  1  0  0  0
  6 91  1  0  0  0
  6 92  1  0  0  0
  7  8  2  0  0  0
  7 26  1  0  0  0
  7 29  1  0  0  0
  8  9  1  0  0  0
  8 22  1  0  0  0
  9 10  1  0  0  0
  9 27  2  0  0  0
 10 11  2  0  0  0
 10 15  1  0  0  0
 11 12  1  0  0  0
 11 93  1  0  0  0
 12 13  2  0  0  0
 12 94  1  0  0  0
 13 14  1  0  0  0
 13 31  1  0  0  0
 14 15  2  0  0  0
 14 95  1  0  0  0
 15 96  1  0  0  0
 16 17  2  0  0  0
 16 21  1  0  0  0
 16 31  1  0  0  0
 17 18  1  0  0  0
 17 97  1  0  0  0
 18 19  2  0  0  0
 18 98  1  0  0  0
 19 20  1  0  0  0
 19 24  1  0  0  0
 20 21  2  0  0  0
 20 99  1  0  0  0
 21 23  1  0  0  0
 22 28  1  0  0  0
 22 32  2  0  0  0
 26 27  1  0  0  0
 28100  1  0  0  0
 28101  1  0  0  0
 29102  1  0  0  0
 29103  1  0  0  0
 33 34  1  0  0  0
 33 66  1  0  0  0
 33 70  2  0  0  0
 34 36  1  0  0  0
 34 59  1  0  0  0
 34104  1  0  0  0
 35 44  2  0  0  0
 35 45  1  0  0  0
 35 68  1  0  0  0
 36 56  1  0  0  0
 36105  1  0  0  0
 37 39  1  0  0  0
 37 47  1  0  0  0
 37 66  1  0  0  0
 37106  1  0  0  0
 38 43  2  0  0  0
 38 46  1  0  0  0
 38 47  1  0  0  0
 39 64  1  0  0  0
 39 67  2  0  0  0
 40 52  1  0  0  0
 40 53  2  0  0  0
 40 58  1  0  0  0
 41107  1  0  0  0
 41108  1  0  0  0
 41109  1  0  0  0
 41 48  1  0  0  0
 42 43  1  0  0  0
 42 66  1  0  0  0
 42110  1  0  0  0
 42111  1  0  0  0
 43 44  1  0  0  0
 44112  1  0  0  0
 45 46  2  0  0  0
 45113  1  0  0  0
 46114  1  0  0  0
 47115  1  0  0  0
 47116  1  0  0  0
 48 56  1  0  0  0
 48 65  1  0  0  0
 48117  1  0  0  0
 49 50  1  0  0  0
 49 53  1  0  0  0
 49 64  1  0  0  0
 49118  1  0  0  0
 50 51  1  0  0  0
 50119  1  0  0  0
 50120  1  0  0  0
 51 52  1  0  0  0
 51121  1  0  0  0
 51122  1  0  0  0
 52123  1  0  0  0
 52124  1  0  0  0
 53 54  1  0  0  0
 54 55  2  0  0  0
 54125  1  0  0  0
 55 57  1  0  0  0
 55126  1  0  0  0
 56 69  2  0  0  0
 57 58  2  0  0  0
 57127  1  0  0  0
 58128  1  0  0  0
 59 60  1  0  0  0
 59 61  1  0  0  0
 59 62  1  0  0  0
 60129  1  0  0  0
 60130  1  0  0  0
 60131  1  0  0  0
 61132  1  0  0  0
 61133  1  0  0  0
 61134  1  0  0  0
 62135  1  0  0  0
 62136  1  0  0  0
 62137  1  0  0  0
 63 65  1  0  0  0
 63138  1  0  0  0
 63139  1  0  0  0
 63140  1  0  0  0
 64141  1  0  0  0
 65142  1  0  0  0
 68 75  1  0  0  0
 71 72  1  0  0  0
 71 79  1  0  0  0
 71 81  2  0  0  0
 72 82  1  0  0  0
 72143  1  0  0  0
 72144  1  0  0  0
 73 74  1  0  0  0
 73 79  1  0  0  0
 73145  1  0  0  0
 73146  1  0  0  0
 74 80  1  0  0  0
 74147  1  0  0  0
 74148  1  0  0  0
 75 77  1  0  0  0
 75149  1  0  0  0
 75150  1  0  0  0
 76 78  1  0  0  0
 76 82  1  0  0  0
 76151  1  0  0  0
 76152  1  0  0  0
 77 83  1  0  0  0
 77153  1  0  0  0
 77154  1  0  0  0
 78 83  1  0  0  0
 78155  1  0  0  0
 78156  1  0  0  0
 79157  1  0  0  0
 80158  1  0  0  0
M  ISO  4   1 100  68 101  75 101  80 100
M  END
> <chiral flag>
0

> <version>
0

> <s_m_source_file>
/data/baiqing/PycharmProjects/Reinvent-master-3.2/result/LINK_invent/BTK/process_docking_weight1_custom_product_contain_oxygen_bond_distance_aromatic_linkinvent_7_9_3/rearranged_h_0001.sdf

> <i_m_source_file_index>
74

> <r_mmod_Potential_Energy-OPLS-2005>
-90.135498046875

> <r_mmod_Stretch_Energy-OPLS-2005>
33.9911117553711

> <r_mmod_Bend_Energy-OPLS-2005>
105.996589660645

> <r_mmod_Torsional_Energy-OPLS-2005>
272.787048339844

> <r_mmod_Improper_Torsional_Energy-OPLS-2005>
15.0818614959717

> <r_mmod_Van_der_Waal_Energy-OPLS-2005>
136.995178222656

> <r_mmod_Electrostatic_Energy-OPLS-2005>
-431.060333251953

> <r_mmod_Solvation_Energy-OPLS-2005>
-236.834030151367

> <b_mmod_Minimization_Converged-OPLS-2005>
0

> <r_mmod_RMS_Derivative-OPLS-2005>
4.14539527893066

$$$$
74
                    3D
 Structure written by MMmdl.
143151  0  0  1  0            999 V2000
  -30.2987  -15.5756   20.3426 C   0  0  0  0  0  0
  -30.4350  -13.0341   19.5492 C   0  0  0  0  0  0
  -29.5562  -12.6490   18.3241 C   0  0  0  0  0  0
  -28.1207  -12.3075   18.7557 C   0  0  0  0  0  0
  -27.6009  -13.3030   19.8183 C   0  0  2  0  0  0
  -28.6191  -13.5912   20.9466 C   0  0  0  0  0  0
  -25.2328  -13.8278   20.5775 C   0  0  0  0  0  0
  -24.1718  -13.0431   20.9280 C   0  0  0  0  0  0
  -24.6411  -11.6939   20.8757 C   0  0  0  0  0  0
  -23.9110  -10.4291   21.0397 C   0  0  0  0  0  0
  -24.3647   -9.4210   21.9185 C   0  0  0  0  0  0
  -23.6303   -8.2251   22.0758 C   0  0  0  0  0  0
  -22.4282   -8.0288   21.3548 C   0  0  0  0  0  0
  -21.9931   -9.0267   20.4653 C   0  0  0  0  0  0
  -22.7272  -10.2136   20.3053 C   0  0  0  0  0  0
  -21.6858   -6.0739   22.5276 C   0  0  0  0  0  0
  -21.4025   -6.5643   23.8212 C   0  0  0  0  0  0
  -21.3669   -5.6792   24.9175 C   0  0  0  0  0  0
  -21.6042   -4.3053   24.7219 C   0  0  0  0  0  0
  -21.8819   -3.8147   23.4341 C   0  0  0  0  0  0
  -21.9194   -4.6968   22.3402 C   0  0  0  0  0  0
  -22.7732  -13.5168   21.1911 C   0  0  0  0  0  0
  -22.1660   -4.2156   21.0979 F   0  0  0  0  0  0
  -21.5628   -3.4537   25.7734 F   0  0  0  0  0  0
  -29.8066  -14.2028   20.3081 N   0  0  0  0  0  0
  -26.2782  -12.9597   20.3215 N   0  0  0  0  0  0
  -25.9355  -11.6675   20.5681 N   0  0  0  0  0  0
  -22.0389  -12.8158   22.0466 N   0  0  0  0  0  0
  -25.3906  -15.2023   20.4224 N   0  0  0  0  0  0
  -31.5278  -15.5626   20.1384 O   0  0  0  0  0  0
  -21.6641   -6.8886   21.4239 O   0  0  0  0  0  0
  -22.3417  -14.5462   20.6743 O   0  0  0  0  0  0
  -24.6817  -31.8031   23.1563 C   0  0  0  0  0  0
  -25.9405  -32.4494   23.8095 C   0  0  1  0  0  0
  -27.2231  -26.7240   20.2079 C   0  0  0  0  0  0
  -25.5986  -33.8317   24.1976 N   0  0  0  0  0  0
  -23.5068  -30.4084   21.5100 C   0  0  2  0  0  0
  -24.9639  -28.7567   20.1215 C   0  0  0  0  0  0
  -22.7755  -29.4342   22.4723 C   0  0  0  0  0  0
  -18.0336  -28.1422   22.8450 C   0  0  0  0  0  0
  -24.1498  -36.7174   23.2650 C   0  0  0  0  0  0
  -26.0882  -30.5417   21.4210 C   0  0  0  0  0  0
  -26.1537  -29.1090   20.7710 C   0  0  0  0  0  0
  -27.2687  -28.1186   20.7882 C   0  0  0  0  0  0
  -26.0000  -26.5835   19.5023 C   0  0  0  0  0  0
  -24.9233  -27.5156   19.4672 C   0  0  0  0  0  0
  -23.7607  -29.7105   20.1443 C   0  0  0  0  0  0
  -25.4151  -36.2919   24.0280 C   0  0  1  0  0  0
  -20.5971  -28.3782   23.1143 C   0  0  2  0  0  0
  -20.6809  -26.9442   22.5399 C   0  0  0  0  0  0
  -19.5782  -26.6370   21.5214 C   0  0  0  0  0  0
  -18.1966  -26.7948   22.1619 C   0  0  0  0  0  0
  -19.1601  -28.8923   23.2778 C   0  0  0  0  0  0
  -18.9510  -30.1507   23.8823 C   0  0  0  0  0  0
  -17.6501  -30.6605   24.0546 C   0  0  0  0  0  0
  -25.9122  -34.9302   23.4962 C   0  0  0  0  0  0
  -16.5390  -29.9086   23.6349 C   0  0  0  0  0  0
  -16.7317  -28.6509   23.0364 C   0  0  0  0  0  0
  -26.4577  -31.6523   25.0711 C   0  0  0  0  0  0
  -25.3638  -31.3853   26.1326 C   0  0  0  0  0  0
  -27.0495  -30.2851   24.6618 C   0  0  0  0  0  0
  -27.6022  -32.4383   25.7531 C   0  0  0  0  0  0
  -27.5568  -37.1757   24.8467 C   0  0  0  0  0  0
  -21.4403  -29.3035   22.3466 N   0  0  0  0  0  0
  -26.4289  -37.3669   23.9390 N   0  0  0  0  0  0
  -24.7825  -30.9492   22.0822 N   0  0  0  0  0  0
  -23.4204  -28.7929   23.3053 O   0  0  0  0  0  0
  -28.1610  -25.4883   20.2496 O   0  0  0  0  0  0
  -26.5761  -34.8863   22.4578 O   0  0  0  0  0  0
  -23.5841  -32.1092   23.6527 O   0  0  0  0  0  0
  -29.7828  -21.2920   20.0003 C   0  0  0  0  0  0
  -27.7449  -20.8148   20.7179 C   0  0  0  0  0  0
  -30.1269  -19.7835   20.0189 C   0  0  0  0  0  0
  -28.0767  -19.3343   20.7407 C   0  0  0  0  0  0
  -28.5208  -22.0288   20.3473 C   0  0  0  0  0  0
  -29.3063  -18.5838   20.3946 C   0  0  0  0  0  0
  -27.7746  -23.7103   20.3643 C   0  0  0  0  0  0
  -29.4576  -16.8712   20.4446 N   0  0  0  0  0  0
  -26.5601  -23.5804   20.5320 O   0  0  0  0  0  0
  -31.4322  -13.2978   19.1950 H   0  0  0  0  0  0
  -30.5844  -12.1744   20.2047 H   0  0  0  0  0  0
  -29.9980  -11.8108   17.7837 H   0  0  0  0  0  0
  -29.5348  -13.4872   17.6256 H   0  0  0  0  0  0
  -28.1277  -11.3008   19.1750 H   0  0  0  0  0  0
  -27.4554  -12.2762   17.8926 H   0  0  0  0  0  0
  -27.4774  -14.2394   19.2724 H   0  0  0  0  0  0
  -28.8605  -12.6897   21.5124 H   0  0  0  0  0  0
  -28.1976  -14.2975   21.6641 H   0  0  0  0  0  0
  -25.2793   -9.5684   22.4766 H   0  0  0  0  0  0
  -24.0017   -7.4643   22.7481 H   0  0  0  0  0  0
  -21.0865   -8.8797   19.8955 H   0  0  0  0  0  0
  -22.3738  -10.9684   19.6168 H   0  0  0  0  0  0
  -21.2021   -7.6151   23.9717 H   0  0  0  0  0  0
  -21.1491   -6.0522   25.9079 H   0  0  0  0  0  0
  -22.0585   -2.7607   23.2830 H   0  0  0  0  0  0
  -22.4018  -11.9849   22.4900 H   0  0  0  0  0  0
  -21.1006  -13.1184   22.2657 H   0  0  0  0  0  0
  -24.6072  -15.8384   20.5219 H   0  0  0  0  0  0
  -26.2122  -15.6452   20.0342 H   0  0  0  0  0  0
  -26.7486  -32.4969   23.0807 H   0  0  0  0  0  0
  -25.0028  -33.9374   25.0058 H   0  0  0  0  0  0
  -22.8310  -31.2459   21.3238 H   0  0  0  0  0  0
  -23.3767  -35.9500   23.3299 H   0  0  0  0  0  0
  -24.3556  -36.8847   22.2067 H   0  0  0  0  0  0
  -23.7264  -37.6352   23.6736 H   0  0  0  0  0  0
  -26.2914  -31.2683   20.6329 H   0  0  0  0  0  0
  -26.9399  -30.6075   22.0860 H   0  0  0  0  0  0
  -28.1639  -28.3918   21.3281 H   0  0  0  0  0  0
  -25.8319  -25.6458   18.9929 H   0  0  0  0  0  0
  -24.0238  -27.2339   18.9362 H   0  0  0  0  0  0
  -23.9385  -30.4734   19.3858 H   0  0  0  0  0  0
  -22.8648  -29.1800   19.8166 H   0  0  0  0  0  0
  -25.1365  -36.1693   25.0773 H   0  0  0  0  0  0
  -21.0055  -28.3414   24.1271 H   0  0  0  0  0  0
  -20.5684  -26.2404   23.3660 H   0  0  0  0  0  0
  -21.6673  -26.7394   22.1214 H   0  0  0  0  0  0
  -19.6941  -25.6262   21.1296 H   0  0  0  0  0  0
  -19.6724  -27.3135   20.6709 H   0  0  0  0  0  0
  -17.4230  -26.6674   21.4033 H   0  0  0  0  0  0
  -18.0359  -26.0120   22.9043 H   0  0  0  0  0  0
  -19.7986  -30.7338   24.2166 H   0  0  0  0  0  0
  -17.5053  -31.6280   24.5160 H   0  0  0  0  0  0
  -15.5388  -30.2963   23.7725 H   0  0  0  0  0  0
  -15.8718  -28.0805   22.7126 H   0  0  0  0  0  0
  -24.5819  -30.7213   25.7623 H   0  0  0  0  0  0
  -24.8829  -32.3084   26.4570 H   0  0  0  0  0  0
  -25.7799  -30.9118   27.0227 H   0  0  0  0  0  0
  -26.3197  -29.6471   24.1625 H   0  0  0  0  0  0
  -27.3913  -29.7302   25.5367 H   0  0  0  0  0  0
  -27.9193  -30.3954   24.0141 H   0  0  0  0  0  0
  -27.2548  -33.3730   26.1941 H   0  0  0  0  0  0
  -28.3923  -32.6881   25.0442 H   0  0  0  0  0  0
  -28.0594  -31.8636   26.5592 H   0  0  0  0  0  0
  -28.2583  -38.0051   24.7477 H   0  0  0  0  0  0
  -28.1065  -36.2574   24.6352 H   0  0  0  0  0  0
  -27.2268  -37.1464   25.8864 H   0  0  0  0  0  0
  -20.9701  -29.8686   21.6531 H   0  0  0  0  0  0
  -26.0122  -38.2726   24.1364 H   0  0  0  0  0  0
  -30.5856  -21.9284   19.6554 H   0  0  0  0  0  0
  -26.7321  -21.0287   21.0307 H   0  0  0  0  0  0
  -31.1295  -19.5518   19.6887 H   0  0  0  0  0  0
  -27.2550  -18.7116   21.0674 H   0  0  0  0  0  0
  -28.5348  -16.5055   20.6296 H   0  0  0  0  0  0
  1 25  1  0  0  0
  1 30  2  0  0  0
  1 78  1  0  0  0
  2  3  1  0  0  0
  2 25  1  0  0  0
  2 80  1  0  0  0
  2 81  1  0  0  0
  3  4  1  0  0  0
  3 82  1  0  0  0
  3 83  1  0  0  0
  4  5  1  0  0  0
  4 84  1  0  0  0
  4 85  1  0  0  0
  5  6  1  0  0  0
  5 26  1  0  0  0
  5 86  1  0  0  0
  6 25  1  0  0  0
  6 87  1  0  0  0
  6 88  1  0  0  0
  7  8  2  0  0  0
  7 26  1  0  0  0
  7 29  1  0  0  0
  8  9  1  0  0  0
  8 22  1  0  0  0
  9 10  1  0  0  0
  9 27  2  0  0  0
 10 11  2  0  0  0
 10 15  1  0  0  0
 11 12  1  0  0  0
 11 89  1  0  0  0
 12 13  2  0  0  0
 12 90  1  0  0  0
 13 14  1  0  0  0
 13 31  1  0  0  0
 14 15  2  0  0  0
 14 91  1  0  0  0
 15 92  1  0  0  0
 16 17  2  0  0  0
 16 21  1  0  0  0
 16 31  1  0  0  0
 17 18  1  0  0  0
 17 93  1  0  0  0
 18 19  2  0  0  0
 18 94  1  0  0  0
 19 20  1  0  0  0
 19 24  1  0  0  0
 20 21  2  0  0  0
 20 95  1  0  0  0
 21 23  1  0  0  0
 22 28  1  0  0  0
 22 32  2  0  0  0
 26 27  1  0  0  0
 28 96  1  0  0  0
 28 97  1  0  0  0
 29 98  1  0  0  0
 29 99  1  0  0  0
 33 34  1  0  0  0
 33 66  1  0  0  0
 33 70  2  0  0  0
 34 36  1  0  0  0
 34 59  1  0  0  0
 34100  1  0  0  0
 35 44  2  0  0  0
 35 45  1  0  0  0
 35 68  1  0  0  0
 36 56  1  0  0  0
 36101  1  0  0  0
 37 39  1  0  0  0
 37 47  1  0  0  0
 37 66  1  0  0  0
 37102  1  0  0  0
 38 43  2  0  0  0
 38 46  1  0  0  0
 38 47  1  0  0  0
 39 64  1  0  0  0
 39 67  2  0  0  0
 40 52  1  0  0  0
 40 53  2  0  0  0
 40 58  1  0  0  0
 41103  1  0  0  0
 41104  1  0  0  0
 41105  1  0  0  0
 41 48  1  0  0  0
 42 43  1  0  0  0
 42 66  1  0  0  0
 42106  1  0  0  0
 42107  1  0  0  0
 43 44  1  0  0  0
 44108  1  0  0  0
 45 46  2  0  0  0
 45109  1  0  0  0
 46110  1  0  0  0
 47111  1  0  0  0
 47112  1  0  0  0
 48 56  1  0  0  0
 48 65  1  0  0  0
 48113  1  0  0  0
 49 50  1  0  0  0
 49 53  1  0  0  0
 49 64  1  0  0  0
 49114  1  0  0  0
 50 51  1  0  0  0
 50115  1  0  0  0
 50116  1  0  0  0
 51 52  1  0  0  0
 51117  1  0  0  0
 51118  1  0  0  0
 52119  1  0  0  0
 52120  1  0  0  0
 53 54  1  0  0  0
 54 55  2  0  0  0
 54121  1  0  0  0
 55 57  1  0  0  0
 55122  1  0  0  0
 56 69  2  0  0  0
 57 58  2  0  0  0
 57123  1  0  0  0
 58124  1  0  0  0
 59 60  1  0  0  0
 59 61  1  0  0  0
 59 62  1  0  0  0
 60125  1  0  0  0
 60126  1  0  0  0
 60127  1  0  0  0
 61128  1  0  0  0
 61129  1  0  0  0
 61130  1  0  0  0
 62131  1  0  0  0
 62132  1  0  0  0
 62133  1  0  0  0
 63 65  1  0  0  0
 63134  1  0  0  0
 63135  1  0  0  0
 63136  1  0  0  0
 64137  1  0  0  0
 65138  1  0  0  0
 68 77  1  0  0  0
 71 73  2  0  0  0
 71 75  1  0  0  0
 71139  1  0  0  0
 72 74  1  0  0  0
 72 75  2  0  0  0
 72140  1  0  0  0
 73 76  1  0  0  0
 73141  1  0  0  0
 74 76  2  0  0  0
 74142  1  0  0  0
 75 77  1  0  0  0
 76 78  1  0  0  0
 77 79  2  0  0  0
 78143  1  0  0  0
M  ISO  4   1 100  68 101  77 101  78 100
M  END
> <chiral flag>
0

> <version>
0

> <s_m_source_file>
/data/baiqing/PycharmProjects/Reinvent-master-3.2/result/LINK_invent/BTK/process_docking_weight1_custom_product_contain_oxygen_bond_distance_aromatic_linkinvent_7_9_3/rearranged_h_0001.sdf

> <i_m_source_file_index>
75

> <r_mmod_Potential_Energy-OPLS-2005>
2317.6826171875

> <r_mmod_Stretch_Energy-OPLS-2005>
971.868286132812

> <r_mmod_Bend_Energy-OPLS-2005>
700.785766601562

> <r_mmod_Torsional_Energy-OPLS-2005>
210.507049560547

> <r_mmod_Improper_Torsional_Energy-OPLS-2005>
3.51418352127075

> <r_mmod_Van_der_Waal_Energy-OPLS-2005>
133.609512329102

> <r_mmod_Electrostatic_Energy-OPLS-2005>
-324.899841308594

> <r_mmod_Solvation_Energy-OPLS-2005>
-218.083419799805

> <b_mmod_Minimization_Converged-OPLS-2005>
0

> <r_mmod_RMS_Derivative-OPLS-2005>
1.56283736228943

$$$$
75
                    3D
 Structure written by MMmdl.
157166  0  0  1  0            999 V2000
  -30.6430  -14.7439   20.4523 C   0  0  0  0  0  0
  -30.4207  -12.4557   19.4760 C   0  0  0  0  0  0
  -29.5065  -12.5058   18.2346 C   0  0  0  0  0  0
  -28.0340  -12.3322   18.6514 C   0  0  0  0  0  0
  -27.6371  -13.2410   19.8467 C   0  0  2  0  0  0
  -28.6815  -13.2056   20.9817 C   0  0  0  0  0  0
  -25.2496  -13.8223   20.5721 C   0  0  0  0  0  0
  -24.1790  -13.0454   20.9210 C   0  0  0  0  0  0
  -24.6393  -11.6936   20.8748 C   0  0  0  0  0  0
  -23.9073  -10.4300   21.0404 C   0  0  0  0  0  0
  -24.3624   -9.4212   21.9180 C   0  0  0  0  0  0
  -23.6294   -8.2251   22.0754 C   0  0  0  0  0  0
  -22.4274   -8.0291   21.3548 C   0  0  0  0  0  0
  -21.9908   -9.0263   20.4647 C   0  0  0  0  0  0
  -22.7245  -10.2139   20.3051 C   0  0  0  0  0  0
  -21.6859   -6.0733   22.5275 C   0  0  0  0  0  0
  -21.4026   -6.5638   23.8211 C   0  0  0  0  0  0
  -21.3662   -5.6791   24.9173 C   0  0  0  0  0  0
  -21.6045   -4.3054   24.7221 C   0  0  0  0  0  0
  -21.8820   -3.8144   23.4342 C   0  0  0  0  0  0
  -21.9195   -4.6960   22.3396 C   0  0  0  0  0  0
  -22.7807  -13.5221   21.1872 C   0  0  0  0  0  0
  -22.1660   -4.2146   21.0970 F   0  0  0  0  0  0
  -21.5623   -3.4536   25.7735 F   0  0  0  0  0  0
  -29.9772  -13.5397   20.3846 N   0  0  0  0  0  0
  -26.2923  -12.9445   20.3285 N   0  0  0  0  0  0
  -25.9330  -11.6579   20.5757 N   0  0  0  0  0  0
  -22.0457  -12.8207   22.0432 N   0  0  0  0  0  0
  -25.4197  -15.1952   20.4192 N   0  0  0  0  0  0
  -31.8467  -14.7742   20.1765 O   0  0  0  0  0  0
  -21.6644   -6.8882   21.4239 O   0  0  0  0  0  0
  -22.3473  -14.5516   20.6714 O   0  0  0  0  0  0
  -24.6316  -31.8550   23.1980 C   0  0  0  0  0  0
  -25.9139  -32.4754   23.8332 C   0  0  1  0  0  0
  -27.2192  -27.2541   20.1195 C   0  0  0  0  0  0
  -25.5934  -33.8556   24.2257 N   0  0  0  0  0  0
  -23.4282  -30.4789   21.5412 C   0  0  2  0  0  0
  -24.8738  -28.9260   20.1071 C   0  0  0  0  0  0
  -22.7506  -29.4601   22.4897 C   0  0  0  0  0  0
  -18.0299  -28.1380   22.8472 C   0  0  0  0  0  0
  -24.1486  -36.7280   23.2638 C   0  0  0  0  0  0
  -25.9752  -30.7658   21.3781 C   0  0  0  0  0  0
  -26.0460  -29.3881   20.7174 C   0  0  0  0  0  0
  -27.2171  -28.5629   20.7160 C   0  0  0  0  0  0
  -26.0129  -26.8547   19.4983 C   0  0  0  0  0  0
  -24.8626  -27.6673   19.4897 C   0  0  0  0  0  0
  -23.6466  -29.8161   20.1556 C   0  0  0  0  0  0
  -25.4111  -36.3072   24.0328 C   0  0  1  0  0  0
  -20.5899  -28.3693   23.1259 C   0  0  2  0  0  0
  -20.6781  -26.9406   22.5405 C   0  0  0  0  0  0
  -19.5764  -26.6373   21.5201 C   0  0  0  0  0  0
  -18.1944  -26.7922   22.1612 C   0  0  0  0  0  0
  -19.1551  -28.8853   23.2863 C   0  0  0  0  0  0
  -18.9473  -30.1447   23.8895 C   0  0  0  0  0  0
  -17.6471  -30.6574   24.0563 C   0  0  0  0  0  0
  -25.9054  -34.9442   23.5095 C   0  0  0  0  0  0
  -16.5363  -29.9073   23.6327 C   0  0  0  0  0  0
  -16.7284  -28.6491   23.0347 C   0  0  0  0  0  0
  -26.4493  -31.6580   25.0724 C   0  0  0  0  0  0
  -25.3717  -31.3745   26.1450 C   0  0  0  0  0  0
  -27.0328  -30.2996   24.6210 C   0  0  0  0  0  0
  -27.6050  -32.4317   25.7498 C   0  0  0  0  0  0
  -27.5582  -37.1792   24.8456 C   0  0  0  0  0  0
  -21.4211  -29.3037   22.3639 N   0  0  0  0  0  0
  -26.4283  -37.3775   23.9415 N   0  0  0  0  0  0
  -24.6976  -31.0512   22.0954 N   0  0  0  0  0  0
  -23.4204  -28.8141   23.2997 O   0  0  0  0  0  0
  -28.3201  -26.3650   20.2148 O   0  0  0  0  0  0
  -26.5628  -34.8918   22.4667 O   0  0  0  0  0  0
  -23.5465  -32.1373   23.7272 O   0  0  0  0  0  0
  -30.0933  -21.7645   20.8113 C   0  0  0  0  0  0
  -28.0309  -21.1701   19.7721 C   0  0  0  0  0  0
  -29.8040  -23.1612   20.6180 C   0  0  0  0  0  0
  -27.7398  -22.5672   19.5827 C   0  0  0  0  0  0
  -29.2434  -20.7066   20.3609 C   0  0  0  0  0  0
  -28.6261  -23.6225   19.9627 C   0  0  0  0  0  0
  -29.3697  -18.2869   21.6560 C   0  0  0  0  0  0
  -29.3055  -18.2271   19.2473 C   0  0  0  0  0  0
  -30.0489  -16.8418   21.6832 C   0  0  0  0  0  0
  -30.0224  -16.8128   19.2587 C   0  0  0  0  0  0
  -29.7113  -19.1667   20.4156 C   0  0  0  0  0  0
  -28.4384  -25.1127   19.3966 C   0  0  0  0  0  0
  -29.9259  -15.9507   20.4840 N   0  0  0  0  0  0
  -31.4653  -12.5579   19.1769 H   0  0  0  0  0  0
  -30.3474  -11.4877   19.9736 H   0  0  0  0  0  0
  -29.7892  -11.7299   17.5221 H   0  0  0  0  0  0
  -29.6354  -13.4583   17.7179 H   0  0  0  0  0  0
  -27.8947  -11.2853   18.9224 H   0  0  0  0  0  0
  -27.3757  -12.5177   17.8019 H   0  0  0  0  0  0
  -27.6227  -14.2585   19.4550 H   0  0  0  0  0  0
  -28.7159  -12.2244   21.4567 H   0  0  0  0  0  0
  -28.4215  -13.9228   21.7626 H   0  0  0  0  0  0
  -25.2776   -9.5680   22.4746 H   0  0  0  0  0  0
  -24.0011   -7.4633   22.7463 H   0  0  0  0  0  0
  -21.0844   -8.8780   19.8939 H   0  0  0  0  0  0
  -22.3714  -10.9675   19.6147 H   0  0  0  0  0  0
  -21.2030   -7.6150   23.9714 H   0  0  0  0  0  0
  -21.1480   -6.0522   25.9078 H   0  0  0  0  0  0
  -22.0597   -2.7603   23.2847 H   0  0  0  0  0  0
  -22.4091  -11.9888   22.4848 H   0  0  0  0  0  0
  -21.1064  -13.1207   22.2623 H   0  0  0  0  0  0
  -24.6594  -15.8548   20.5447 H   0  0  0  0  0  0
  -26.2856  -15.6375   20.1373 H   0  0  0  0  0  0
  -26.7204  -32.5399   23.1069 H   0  0  0  0  0  0
  -25.0074  -33.9697   25.0398 H   0  0  0  0  0  0
  -22.7246  -31.3014   21.3973 H   0  0  0  0  0  0
  -23.3758  -35.9601   23.3277 H   0  0  0  0  0  0
  -24.3582  -36.8926   22.2057 H   0  0  0  0  0  0
  -23.7223  -37.6467   23.6679 H   0  0  0  0  0  0
  -26.1164  -31.5276   20.6102 H   0  0  0  0  0  0
  -26.8523  -30.8142   22.0118 H   0  0  0  0  0  0
  -28.1130  -28.9102   21.2115 H   0  0  0  0  0  0
  -25.8986  -25.8797   19.0538 H   0  0  0  0  0  0
  -23.9589  -27.3015   19.0218 H   0  0  0  0  0  0
  -23.7769  -30.5958   19.4040 H   0  0  0  0  0  0
  -22.7626  -29.2560   19.8444 H   0  0  0  0  0  0
  -25.1289  -36.1916   25.0821 H   0  0  0  0  0  0
  -21.0002  -28.3278   24.1376 H   0  0  0  0  0  0
  -20.5659  -26.2303   23.3608 H   0  0  0  0  0  0
  -21.6657  -26.7415   22.1219 H   0  0  0  0  0  0
  -19.6923  -25.6282   21.1233 H   0  0  0  0  0  0
  -19.6697  -27.3174   20.6724 H   0  0  0  0  0  0
  -17.4209  -26.6658   21.4021 H   0  0  0  0  0  0
  -18.0349  -26.0066   22.9012 H   0  0  0  0  0  0
  -19.7951  -30.7260   24.2265 H   0  0  0  0  0  0
  -17.5026  -31.6252   24.5167 H   0  0  0  0  0  0
  -15.5365  -30.2969   23.7653 H   0  0  0  0  0  0
  -15.8686  -28.0803   22.7071 H   0  0  0  0  0  0
  -24.5886  -30.7094   25.7790 H   0  0  0  0  0  0
  -24.8913  -32.2918   26.4862 H   0  0  0  0  0  0
  -25.8032  -30.8934   27.0235 H   0  0  0  0  0  0
  -26.2899  -29.6747   24.1235 H   0  0  0  0  0  0
  -27.4005  -29.7256   25.4724 H   0  0  0  0  0  0
  -27.8782  -30.4262   23.9445 H   0  0  0  0  0  0
  -27.2667  -33.3625   26.2058 H   0  0  0  0  0  0
  -28.3870  -32.6860   25.0332 H   0  0  0  0  0  0
  -28.0700  -31.8449   26.5428 H   0  0  0  0  0  0
  -28.2580  -38.0111   24.7546 H   0  0  0  0  0  0
  -28.1104  -36.2649   24.6225 H   0  0  0  0  0  0
  -27.2315  -37.1374   25.8862 H   0  0  0  0  0  0
  -20.9389  -29.8757   21.6848 H   0  0  0  0  0  0
  -26.0158  -38.2843   24.1446 H   0  0  0  0  0  0
  -31.0388  -21.5051   21.2675 H   0  0  0  0  0  0
  -27.3230  -20.4433   19.3979 H   0  0  0  0  0  0
  -30.5487  -23.8870   20.9154 H   0  0  0  0  0  0
  -26.8320  -22.8269   19.0554 H   0  0  0  0  0  0
  -29.6691  -18.8226   22.5573 H   0  0  0  0  0  0
  -28.2873  -18.1764   21.7306 H   0  0  0  0  0  0
  -28.2243  -18.0858   19.2454 H   0  0  0  0  0  0
  -29.5406  -18.7235   18.3051 H   0  0  0  0  0  0
  -29.6664  -16.2948   22.5466 H   0  0  0  0  0  0
  -31.1148  -16.9789   21.8765 H   0  0  0  0  0  0
  -31.0794  -16.9869   19.0474 H   0  0  0  0  0  0
  -29.6533  -16.2334   18.4099 H   0  0  0  0  0  0
  -30.8001  -19.2315   20.3824 H   0  0  0  0  0  0
  -27.7117  -25.0745   18.5896 H   0  0  0  0  0  0
  -29.3651  -25.2800   18.8466 H   0  0  0  0  0  0
  1 25  1  0  0  0
  1 30  2  0  0  0
  1 83  1  0  0  0
  2  3  1  0  0  0
  2 25  1  0  0  0
  2 84  1  0  0  0
  2 85  1  0  0  0
  3  4  1  0  0  0
  3 86  1  0  0  0
  3 87  1  0  0  0
  4  5  1  0  0  0
  4 88  1  0  0  0
  4 89  1  0  0  0
  5  6  1  0  0  0
  5 26  1  0  0  0
  5 90  1  0  0  0
  6 25  1  0  0  0
  6 91  1  0  0  0
  6 92  1  0  0  0
  7  8  2  0  0  0
  7 26  1  0  0  0
  7 29  1  0  0  0
  8  9  1  0  0  0
  8 22  1  0  0  0
  9 10  1  0  0  0
  9 27  2  0  0  0
 10 11  2  0  0  0
 10 15  1  0  0  0
 11 12  1  0  0  0
 11 93  1  0  0  0
 12 13  2  0  0  0
 12 94  1  0  0  0
 13 14  1  0  0  0
 13 31  1  0  0  0
 14 15  2  0  0  0
 14 95  1  0  0  0
 15 96  1  0  0  0
 16 17  2  0  0  0
 16 21  1  0  0  0
 16 31  1  0  0  0
 17 18  1  0  0  0
 17 97  1  0  0  0
 18 19  2  0  0  0
 18 98  1  0  0  0
 19 20  1  0  0  0
 19 24  1  0  0  0
 20 21  2  0  0  0
 20 99  1  0  0  0
 21 23  1  0  0  0
 22 28  1  0  0  0
 22 32  2  0  0  0
 26 27  1  0  0  0
 28100  1  0  0  0
 28101  1  0  0  0
 29102  1  0  0  0
 29103  1  0  0  0
 33 34  1  0  0  0
 33 66  1  0  0  0
 33 70  2  0  0  0
 34 36  1  0  0  0
 34 59  1  0  0  0
 34104  1  0  0  0
 35 44  2  0  0  0
 35 45  1  0  0  0
 35 68  1  0  0  0
 36 56  1  0  0  0
 36105  1  0  0  0
 37 39  1  0  0  0
 37 47  1  0  0  0
 37 66  1  0  0  0
 37106  1  0  0  0
 38 43  2  0  0  0
 38 46  1  0  0  0
 38 47  1  0  0  0
 39 64  1  0  0  0
 39 67  2  0  0  0
 40 52  1  0  0  0
 40 53  2  0  0  0
 40 58  1  0  0  0
 41107  1  0  0  0
 41108  1  0  0  0
 41109  1  0  0  0
 41 48  1  0  0  0
 42 43  1  0  0  0
 42 66  1  0  0  0
 42110  1  0  0  0
 42111  1  0  0  0
 43 44  1  0  0  0
 44112  1  0  0  0
 45 46  2  0  0  0
 45113  1  0  0  0
 46114  1  0  0  0
 47115  1  0  0  0
 47116  1  0  0  0
 48 56  1  0  0  0
 48 65  1  0  0  0
 48117  1  0  0  0
 49 50  1  0  0  0
 49 53  1  0  0  0
 49 64  1  0  0  0
 49118  1  0  0  0
 50 51  1  0  0  0
 50119  1  0  0  0
 50120  1  0  0  0
 51 52  1  0  0  0
 51121  1  0  0  0
 51122  1  0  0  0
 52123  1  0  0  0
 52124  1  0  0  0
 53 54  1  0  0  0
 54 55  2  0  0  0
 54125  1  0  0  0
 55 57  1  0  0  0
 55126  1  0  0  0
 56 69  2  0  0  0
 57 58  2  0  0  0
 57127  1  0  0  0
 58128  1  0  0  0
 59 60  1  0  0  0
 59 61  1  0  0  0
 59 62  1  0  0  0
 60129  1  0  0  0
 60130  1  0  0  0
 60131  1  0  0  0
 61132  1  0  0  0
 61133  1  0  0  0
 61134  1  0  0  0
 62135  1  0  0  0
 62136  1  0  0  0
 62137  1  0  0  0
 63 65  1  0  0  0
 63138  1  0  0  0
 63139  1  0  0  0
 63140  1  0  0  0
 64141  1  0  0  0
 65142  1  0  0  0
 68 82  1  0  0  0
 71 73  2  0  0  0
 71 75  1  0  0  0
 71143  1  0  0  0
 72 74  1  0  0  0
 72 75  2  0  0  0
 72144  1  0  0  0
 73 76  1  0  0  0
 73145  1  0  0  0
 74 76  2  0  0  0
 74146  1  0  0  0
 75 81  1  0  0  0
 76 82  1  0  0  0
 77 79  1  0  0  0
 77 81  1  0  0  0
 77147  1  0  0  0
 77148  1  0  0  0
 78 80  1  0  0  0
 78 81  1  0  0  0
 78149  1  0  0  0
 78150  1  0  0  0
 79 83  1  0  0  0
 79151  1  0  0  0
 79152  1  0  0  0
 80 83  1  0  0  0
 80153  1  0  0  0
 80154  1  0  0  0
 81155  1  0  0  0
 82156  1  0  0  0
 82157  1  0  0  0
M  ISO  4   1 100  68 101  82 101  83 100
M  END
> <chiral flag>
0

> <version>
0

> <s_m_source_file>
/data/baiqing/PycharmProjects/Reinvent-master-3.2/result/LINK_invent/BTK/process_docking_weight1_custom_product_contain_oxygen_bond_distance_aromatic_linkinvent_7_9_3/rearranged_h_0001.sdf

> <i_m_source_file_index>
76

> <r_mmod_Potential_Energy-OPLS-2005>
449.520599365234

> <r_mmod_Stretch_Energy-OPLS-2005>
120.040107727051

> <r_mmod_Bend_Energy-OPLS-2005>
201.958053588867

> <r_mmod_Torsional_Energy-OPLS-2005>
341.868438720703

> <r_mmod_Improper_Torsional_Energy-OPLS-2005>
15.9666175842285

> <r_mmod_Van_der_Waal_Energy-OPLS-2005>
139.468215942383

> <r_mmod_Electrostatic_Energy-OPLS-2005>
-270.755279541016

> <r_mmod_Solvation_Energy-OPLS-2005>
-189.391342163086

> <b_mmod_Minimization_Converged-OPLS-2005>
0

> <r_mmod_RMS_Derivative-OPLS-2005>
1.37633216381073

$$$$
76
                    3D
 Structure written by MMmdl.
144152  0  0  1  0            999 V2000
  -30.2491  -15.7690   20.3185 C   0  0  0  0  0  0
  -30.4165  -13.1824   19.5389 C   0  0  0  0  0  0
  -29.5561  -12.6883   18.3366 C   0  0  0  0  0  0
  -28.1400  -12.3025   18.7870 C   0  0  0  0  0  0
  -27.5914  -13.3204   19.8100 C   0  0  2  0  0  0
  -28.5996  -13.7101   20.9197 C   0  0  0  0  0  0
  -25.2302  -13.8299   20.5812 C   0  0  0  0  0  0
  -24.1705  -13.0432   20.9298 C   0  0  0  0  0  0
  -24.6425  -11.6949   20.8764 C   0  0  0  0  0  0
  -23.9129  -10.4292   21.0393 C   0  0  0  0  0  0
  -24.3660   -9.4205   21.9178 C   0  0  0  0  0  0
  -23.6316   -8.2248   22.0754 C   0  0  0  0  0  0
  -22.4296   -8.0290   21.3545 C   0  0  0  0  0  0
  -21.9945   -9.0266   20.4644 C   0  0  0  0  0  0
  -22.7293  -10.2135   20.3047 C   0  0  0  0  0  0
  -21.6860   -6.0742   22.5279 C   0  0  0  0  0  0
  -21.4020   -6.5644   23.8213 C   0  0  0  0  0  0
  -21.3660   -5.6795   24.9174 C   0  0  0  0  0  0
  -21.6043   -4.3057   24.7223 C   0  0  0  0  0  0
  -21.8818   -3.8151   23.4344 C   0  0  0  0  0  0
  -21.9195   -4.6969   22.3401 C   0  0  0  0  0  0
  -22.7713  -13.5153   21.1928 C   0  0  0  0  0  0
  -22.1662   -4.2154   21.0979 F   0  0  0  0  0  0
  -21.5627   -3.4540   25.7735 F   0  0  0  0  0  0
  -29.7500  -14.3765   20.2532 N   0  0  0  0  0  0
  -26.2766  -12.9654   20.3247 N   0  0  0  0  0  0
  -25.9376  -11.6711   20.5692 N   0  0  0  0  0  0
  -22.0381  -12.8128   22.0480 N   0  0  0  0  0  0
  -25.3868  -15.2043   20.4253 N   0  0  0  0  0  0
  -31.4896  -15.6885   20.1870 O   0  0  0  0  0  0
  -21.6650   -6.8891   21.4243 O   0  0  0  0  0  0
  -22.3385  -14.5450   20.6762 O   0  0  0  0  0  0
  -24.6936  -31.7881   23.1428 C   0  0  0  0  0  0
  -25.9467  -32.4408   23.8014 C   0  0  1  0  0  0
  -27.2314  -26.6000   20.2259 C   0  0  0  0  0  0
  -25.6003  -33.8239   24.1889 N   0  0  0  0  0  0
  -23.5248  -30.3852   21.4992 C   0  0  2  0  0  0
  -24.9837  -28.7043   20.1217 C   0  0  0  0  0  0
  -22.7812  -29.4252   22.4682 C   0  0  0  0  0  0
  -18.0345  -28.1427   22.8448 C   0  0  0  0  0  0
  -24.1496  -36.7128   23.2656 C   0  0  0  0  0  0
  -26.1099  -30.4873   21.4229 C   0  0  0  0  0  0
  -26.1749  -29.0406   20.7752 C   0  0  0  0  0  0
  -27.2793  -28.0201   20.7903 C   0  0  0  0  0  0
  -26.0052  -26.4991   19.5134 C   0  0  0  0  0  0
  -24.9440  -27.4606   19.4663 C   0  0  0  0  0  0
  -23.7849  -29.6724   20.1393 C   0  0  0  0  0  0
  -25.4150  -36.2860   24.0273 C   0  0  1  0  0  0
  -20.5986  -28.3792   23.1121 C   0  0  2  0  0  0
  -20.6806  -26.9441   22.5405 C   0  0  0  0  0  0
  -19.5784  -26.6367   21.5217 C   0  0  0  0  0  0
  -18.1967  -26.7952   22.1618 C   0  0  0  0  0  0
  -19.1614  -28.8936   23.2762 C   0  0  0  0  0  0
  -18.9518  -30.1517   23.8813 C   0  0  0  0  0  0
  -17.6507  -30.6607   24.0547 C   0  0  0  0  0  0
  -25.9137  -34.9253   23.4926 C   0  0  0  0  0  0
  -16.5395  -29.9086   23.6353 C   0  0  0  0  0  0
  -16.7324  -28.6509   23.0369 C   0  0  0  0  0  0
  -26.4611  -31.6488   25.0681 C   0  0  0  0  0  0
  -25.3648  -31.3836   26.1276 C   0  0  0  0  0  0
  -27.0562  -30.2813   24.6660 C   0  0  0  0  0  0
  -27.6036  -32.4377   25.7508 C   0  0  0  0  0  0
  -27.5560  -37.1721   24.8466 C   0  0  0  0  0  0
  -21.4449  -29.3019   22.3429 N   0  0  0  0  0  0
  -26.4267  -37.3633   23.9406 N   0  0  0  0  0  0
  -24.8007  -30.9224   22.0738 N   0  0  0  0  0  0
  -23.4206  -28.7870   23.3076 O   0  0  0  0  0  0
  -28.1813  -25.3340   20.2925 O   0  0  0  0  0  0
  -26.5793  -34.8851   22.4554 O   0  0  0  0  0  0
  -23.5932  -32.1003   23.6316 O   0  0  0  0  0  0
  -31.2233  -20.8510   20.4443 C   0  0  0  0  0  0
  -30.3278  -21.9742   20.3863 C   0  0  0  0  0  0
  -30.8973  -19.4510   20.4170 C   0  0  0  0  0  0
  -28.6498  -20.2656   20.2683 C   0  0  0  0  0  0
  -28.9175  -21.8849   20.2883 C   0  0  0  0  0  0
  -29.5860  -18.9200   20.3295 C   0  0  0  0  0  0
  -27.9553  -23.5403   20.1946 C   0  0  0  0  0  0
  -29.4678  -17.1584   20.3338 N   0  0  0  0  0  0
  -31.3972  -13.4683   19.1574 H   0  0  0  0  0  0
  -30.6150  -12.3654   20.2348 H   0  0  0  0  0  0
  -30.0382  -11.8449   17.8404 H   0  0  0  0  0  0
  -29.4933  -13.4857   17.5947 H   0  0  0  0  0  0
  -28.1920  -11.3161   19.2495 H   0  0  0  0  0  0
  -27.4721  -12.2092   17.9298 H   0  0  0  0  0  0
  -27.4353  -14.2232   19.2177 H   0  0  0  0  0  0
  -28.8922  -12.8505   21.5245 H   0  0  0  0  0  0
  -28.1402  -14.4228   21.6061 H   0  0  0  0  0  0
  -25.2799   -9.5677   22.4764 H   0  0  0  0  0  0
  -24.0015   -7.4641   22.7480 H   0  0  0  0  0  0
  -21.0874   -8.8796   19.8951 H   0  0  0  0  0  0
  -22.3752  -10.9677   19.6160 H   0  0  0  0  0  0
  -21.2015   -7.6152   23.9718 H   0  0  0  0  0  0
  -21.1481   -6.0525   25.9077 H   0  0  0  0  0  0
  -22.0595   -2.7612   23.2843 H   0  0  0  0  0  0
  -22.4028  -11.9810   22.4881 H   0  0  0  0  0  0
  -21.0984  -13.1116   22.2673 H   0  0  0  0  0  0
  -24.6121  -15.8494   20.5375 H   0  0  0  0  0  0
  -26.2233  -15.6482   20.0710 H   0  0  0  0  0  0
  -26.7560  -32.4853   23.0732 H   0  0  0  0  0  0
  -25.0040  -33.9259   24.9969 H   0  0  0  0  0  0
  -22.8560  -31.2251   21.3001 H   0  0  0  0  0  0
  -23.3778  -35.9436   23.3259 H   0  0  0  0  0  0
  -24.3559  -36.8857   22.2082 H   0  0  0  0  0  0
  -23.7237  -37.6279   23.6781 H   0  0  0  0  0  0
  -26.3235  -31.2052   20.6299 H   0  0  0  0  0  0
  -26.9566  -30.5591   22.0929 H   0  0  0  0  0  0
  -28.1740  -28.2884   21.3341 H   0  0  0  0  0  0
  -25.8210  -25.5639   19.0038 H   0  0  0  0  0  0
  -24.0480  -27.1923   18.9234 H   0  0  0  0  0  0
  -23.9691  -30.4280   19.3747 H   0  0  0  0  0  0
  -22.8876  -29.1444   19.8122 H   0  0  0  0  0  0
  -25.1366  -36.1607   25.0763 H   0  0  0  0  0  0
  -21.0064  -28.3426   24.1249 H   0  0  0  0  0  0
  -20.5660  -26.2419   23.3677 H   0  0  0  0  0  0
  -21.6666  -26.7367   22.1230 H   0  0  0  0  0  0
  -19.6938  -25.6255   21.1303 H   0  0  0  0  0  0
  -19.6730  -27.3129   20.6710 H   0  0  0  0  0  0
  -17.4236  -26.6693   21.4021 H   0  0  0  0  0  0
  -18.0352  -26.0116   22.9034 H   0  0  0  0  0  0
  -19.7994  -30.7354   24.2146 H   0  0  0  0  0  0
  -17.5057  -31.6278   24.5166 H   0  0  0  0  0  0
  -15.5392  -30.2961   23.7726 H   0  0  0  0  0  0
  -15.8725  -28.0800   22.7132 H   0  0  0  0  0  0
  -24.5864  -30.7155   25.7572 H   0  0  0  0  0  0
  -24.8806  -32.3067   26.4469 H   0  0  0  0  0  0
  -25.7799  -30.9150   27.0207 H   0  0  0  0  0  0
  -26.3300  -29.6394   24.1665 H   0  0  0  0  0  0
  -27.3958  -29.7305   25.5442 H   0  0  0  0  0  0
  -27.9292  -30.3914   24.0226 H   0  0  0  0  0  0
  -27.2557  -33.3759   26.1844 H   0  0  0  0  0  0
  -28.3970  -32.6810   25.0429 H   0  0  0  0  0  0
  -28.0570  -31.8672   26.5625 H   0  0  0  0  0  0
  -28.2540  -38.0050   24.7512 H   0  0  0  0  0  0
  -28.1093  -36.2570   24.6297 H   0  0  0  0  0  0
  -27.2273  -37.1358   25.8868 H   0  0  0  0  0  0
  -20.9779  -29.8658   21.6465 H   0  0  0  0  0  0
  -26.0084  -38.2675   24.1421 H   0  0  0  0  0  0
  -32.2755  -21.0887   20.5173 H   0  0  0  0  0  0
  -30.7626  -22.9641   20.4154 H   0  0  0  0  0  0
  -31.7198  -18.7513   20.4730 H   0  0  0  0  0  0
  -27.5975  -20.0310   20.1940 H   0  0  0  0  0  0
  -27.1705  -23.3778   20.9334 H   0  0  0  0  0  0
  -27.4334  -23.4350   19.2435 H   0  0  0  0  0  0
  -28.4908  -16.9030   20.3508 H   0  0  0  0  0  0
  1 25  1  0  0  0
  1 30  2  0  0  0
  1 78  1  0  0  0
  2  3  1  0  0  0
  2 25  1  0  0  0
  2 79  1  0  0  0
  2 80  1  0  0  0
  3  4  1  0  0  0
  3 81  1  0  0  0
  3 82  1  0  0  0
  4  5  1  0  0  0
  4 83  1  0  0  0
  4 84  1  0  0  0
  5  6  1  0  0  0
  5 26  1  0  0  0
  5 85  1  0  0  0
  6 25  1  0  0  0
  6 86  1  0  0  0
  6 87  1  0  0  0
  7  8  2  0  0  0
  7 26  1  0  0  0
  7 29  1  0  0  0
  8  9  1  0  0  0
  8 22  1  0  0  0
  9 10  1  0  0  0
  9 27  2  0  0  0
 10 11  2  0  0  0
 10 15  1  0  0  0
 11 12  1  0  0  0
 11 88  1  0  0  0
 12 13  2  0  0  0
 12 89  1  0  0  0
 13 14  1  0  0  0
 13 31  1  0  0  0
 14 15  2  0  0  0
 14 90  1  0  0  0
 15 91  1  0  0  0
 16 17  2  0  0  0
 16 21  1  0  0  0
 16 31  1  0  0  0
 17 18  1  0  0  0
 17 92  1  0  0  0
 18 19  2  0  0  0
 18 93  1  0  0  0
 19 20  1  0  0  0
 19 24  1  0  0  0
 20 21  2  0  0  0
 20 94  1  0  0  0
 21 23  1  0  0  0
 22 28  1  0  0  0
 22 32  2  0  0  0
 26 27  1  0  0  0
 28 95  1  0  0  0
 28 96  1  0  0  0
 29 97  1  0  0  0
 29 98  1  0  0  0
 33 34  1  0  0  0
 33 66  1  0  0  0
 33 70  2  0  0  0
 34 36  1  0  0  0
 34 59  1  0  0  0
 34 99  1  0  0  0
 35 44  2  0  0  0
 35 45  1  0  0  0
 35 68  1  0  0  0
 36 56  1  0  0  0
 36100  1  0  0  0
 37 39  1  0  0  0
 37 47  1  0  0  0
 37 66  1  0  0  0
 37101  1  0  0  0
 38 43  2  0  0  0
 38 46  1  0  0  0
 38 47  1  0  0  0
 39 64  1  0  0  0
 39 67  2  0  0  0
 40 52  1  0  0  0
 40 53  2  0  0  0
 40 58  1  0  0  0
 41102  1  0  0  0
 41103  1  0  0  0
 41104  1  0  0  0
 41 48  1  0  0  0
 42 43  1  0  0  0
 42 66  1  0  0  0
 42105  1  0  0  0
 42106  1  0  0  0
 43 44  1  0  0  0
 44107  1  0  0  0
 45 46  2  0  0  0
 45108  1  0  0  0
 46109  1  0  0  0
 47110  1  0  0  0
 47111  1  0  0  0
 48 56  1  0  0  0
 48 65  1  0  0  0
 48112  1  0  0  0
 49 50  1  0  0  0
 49 53  1  0  0  0
 49 64  1  0  0  0
 49113  1  0  0  0
 50 51  1  0  0  0
 50114  1  0  0  0
 50115  1  0  0  0
 51 52  1  0  0  0
 51116  1  0  0  0
 51117  1  0  0  0
 52118  1  0  0  0
 52119  1  0  0  0
 53 54  1  0  0  0
 54 55  2  0  0  0
 54120  1  0  0  0
 55 57  1  0  0  0
 55121  1  0  0  0
 56 69  2  0  0  0
 57 58  2  0  0  0
 57122  1  0  0  0
 58123  1  0  0  0
 59 60  1  0  0  0
 59 61  1  0  0  0
 59 62  1  0  0  0
 60124  1  0  0  0
 60125  1  0  0  0
 60126  1  0  0  0
 61127  1  0  0  0
 61128  1  0  0  0
 61129  1  0  0  0
 62130  1  0  0  0
 62131  1  0  0  0
 62132  1  0  0  0
 63 65  1  0  0  0
 63133  1  0  0  0
 63134  1  0  0  0
 63135  1  0  0  0
 64136  1  0  0  0
 65137  1  0  0  0
 68 77  1  0  0  0
 71 72  2  0  0  0
 71 73  1  0  0  0
 71138  1  0  0  0
 72 75  1  0  0  0
 72139  1  0  0  0
 73 76  2  0  0  0
 73140  1  0  0  0
 74 75  2  0  0  0
 74 76  1  0  0  0
 74141  1  0  0  0
 75 77  1  0  0  0
 76 78  1  0  0  0
 77142  1  0  0  0
 77143  1  0  0  0
 78144  1  0  0  0
M  ISO  4   1 100  68 101  77 101  78 100
M  END
> <chiral flag>
0

> <version>
0

> <s_m_source_file>
/data/baiqing/PycharmProjects/Reinvent-master-3.2/result/LINK_invent/BTK/process_docking_weight1_custom_product_contain_oxygen_bond_distance_aromatic_linkinvent_7_9_3/rearranged_h_0001.sdf

> <i_m_source_file_index>
77

> <r_mmod_Potential_Energy-OPLS-2005>
2813.380859375

> <r_mmod_Stretch_Energy-OPLS-2005>
1256.92761230469

> <r_mmod_Bend_Energy-OPLS-2005>
641.894226074219

> <r_mmod_Torsional_Energy-OPLS-2005>
222.88850402832

> <r_mmod_Improper_Torsional_Energy-OPLS-2005>
4.12787246704102

> <r_mmod_Van_der_Waal_Energy-OPLS-2005>
126.438247680664

> <r_mmod_Electrostatic_Energy-OPLS-2005>
-346.341064453125

> <r_mmod_Solvation_Energy-OPLS-2005>
-213.760787963867

> <b_mmod_Minimization_Converged-OPLS-2005>
0

> <r_mmod_RMS_Derivative-OPLS-2005>
0.157229289412498

$$$$
77
                    3D
 Structure written by MMmdl.
144151  0  0  1  0            999 V2000
  -30.4369  -15.2511   20.3767 C   0  0  0  0  0  0
  -30.4407  -12.8036   19.5103 C   0  0  0  0  0  0
  -29.5321  -12.5695   18.2777 C   0  0  0  0  0  0
  -28.0806  -12.2958   18.7105 C   0  0  0  0  0  0
  -27.6107  -13.2711   19.8186 C   0  0  2  0  0  0
  -28.6480  -13.4407   20.9474 C   0  0  0  0  0  0
  -25.2393  -13.8238   20.5742 C   0  0  0  0  0  0
  -24.1743  -13.0431   20.9260 C   0  0  0  0  0  0
  -24.6395  -11.6928   20.8764 C   0  0  0  0  0  0
  -23.9090  -10.4290   21.0409 C   0  0  0  0  0  0
  -24.3635   -9.4203   21.9186 C   0  0  0  0  0  0
  -23.6303   -8.2241   22.0755 C   0  0  0  0  0  0
  -22.4284   -8.0282   21.3545 C   0  0  0  0  0  0
  -21.9926   -9.0257   20.4646 C   0  0  0  0  0  0
  -22.7261  -10.2132   20.3056 C   0  0  0  0  0  0
  -21.6855   -6.0737   22.5279 C   0  0  0  0  0  0
  -21.4016   -6.5641   23.8212 C   0  0  0  0  0  0
  -21.3660   -5.6793   24.9174 C   0  0  0  0  0  0
  -21.6044   -4.3056   24.7225 C   0  0  0  0  0  0
  -21.8819   -3.8148   23.4346 C   0  0  0  0  0  0
  -21.9193   -4.6965   22.3402 C   0  0  0  0  0  0
  -22.7761  -13.5187   21.1906 C   0  0  0  0  0  0
  -22.1661   -4.2150   21.0980 F   0  0  0  0  0  0
  -21.5628   -3.4540   25.7737 F   0  0  0  0  0  0
  -29.8748  -13.9472   20.3118 N   0  0  0  0  0  0
  -26.2814  -12.9504   20.3207 N   0  0  0  0  0  0
  -25.9329  -11.6614   20.5719 N   0  0  0  0  0  0
  -22.0419  -12.8169   22.0460 N   0  0  0  0  0  0
  -25.4019  -15.1973   20.4173 N   0  0  0  0  0  0
  -31.6652  -15.2598   20.2187 O   0  0  0  0  0  0
  -21.6644   -6.8882   21.4242 O   0  0  0  0  0  0
  -22.3441  -14.5488   20.6746 O   0  0  0  0  0  0
  -24.6622  -31.8245   23.1706 C   0  0  0  0  0  0
  -25.9306  -32.4593   23.8170 C   0  0  1  0  0  0
  -27.2187  -26.9359   20.1919 C   0  0  0  0  0  0
  -25.5976  -33.8406   24.2077 N   0  0  0  0  0  0
  -23.4761  -30.4358   21.5204 C   0  0  2  0  0  0
  -24.9283  -28.8193   20.1193 C   0  0  0  0  0  0
  -22.7660  -29.4449   22.4794 C   0  0  0  0  0  0
  -18.0321  -28.1408   22.8468 C   0  0  0  0  0  0
  -24.1493  -36.7209   23.2648 C   0  0  0  0  0  0
  -26.0446  -30.6350   21.3978 C   0  0  0  0  0  0
  -26.1136  -29.2235   20.7468 C   0  0  0  0  0  0
  -27.2569  -28.3054   20.7517 C   0  0  0  0  0  0
  -26.0019  -26.6767   19.5243 C   0  0  0  0  0  0
  -24.8966  -27.5655   19.4877 C   0  0  0  0  0  0
  -23.7155  -29.7482   20.1484 C   0  0  0  0  0  0
  -25.4134  -36.2970   24.0300 C   0  0  1  0  0  0
  -20.5944  -28.3752   23.1192 C   0  0  2  0  0  0
  -20.6798  -26.9435   22.5403 C   0  0  0  0  0  0
  -19.5772  -26.6378   21.5214 C   0  0  0  0  0  0
  -18.1954  -26.7942   22.1623 C   0  0  0  0  0  0
  -19.1582  -28.8901   23.2817 C   0  0  0  0  0  0
  -18.9493  -30.1491   23.8852 C   0  0  0  0  0  0
  -17.6486  -30.6598   24.0556 C   0  0  0  0  0  0
  -25.9098  -34.9353   23.5010 C   0  0  0  0  0  0
  -16.5376  -29.9085   23.6343 C   0  0  0  0  0  0
  -16.7303  -28.6506   23.0363 C   0  0  0  0  0  0
  -26.4559  -31.6536   25.0696 C   0  0  0  0  0  0
  -25.3687  -31.3784   26.1354 C   0  0  0  0  0  0
  -27.0455  -30.2904   24.6421 C   0  0  0  0  0  0
  -27.6050  -32.4345   25.7500 C   0  0  0  0  0  0
  -27.5569  -37.1762   24.8467 C   0  0  0  0  0  0
  -21.4331  -29.3044   22.3542 N   0  0  0  0  0  0
  -26.4280  -37.3705   23.9407 N   0  0  0  0  0  0
  -24.7491  -30.9919   22.0835 N   0  0  0  0  0  0
  -23.4211  -28.8021   23.3034 O   0  0  0  0  0  0
  -28.2432  -25.8546   20.1976 O   0  0  0  0  0  0
  -26.5710  -34.8888   22.4606 O   0  0  0  0  0  0
  -23.5694  -32.1209   23.6807 O   0  0  0  0  0  0
  -29.9032  -18.1505   20.6487 C   0  0  0  0  0  0
  -29.0916  -19.6523   20.0641 C   0  0  0  0  0  0
  -28.0410  -24.2465   20.5108 C   0  0  0  0  0  0
  -28.7182  -22.6665   19.9472 C   0  0  0  0  0  0
  -29.6593  -16.5123   20.4191 N   0  0  0  0  0  0
  -28.9892  -21.1936   20.6301 O   0  0  0  0  0  0
  -31.4561  -13.0183   19.1742 H   0  0  0  0  0  0
  -30.5160  -11.9000   20.1175 H   0  0  0  0  0  0
  -29.9090  -11.7401   17.6776 H   0  0  0  0  0  0
  -29.5601  -13.4510   17.6352 H   0  0  0  0  0  0
  -28.0368  -11.2719   19.0838 H   0  0  0  0  0  0
  -27.4101  -12.3372   17.8514 H   0  0  0  0  0  0
  -27.5259  -14.2383   19.3215 H   0  0  0  0  0  0
  -28.8185  -12.5046   21.4812 H   0  0  0  0  0  0
  -28.2924  -14.1615   21.6855 H   0  0  0  0  0  0
  -25.2776   -9.5679   22.4767 H   0  0  0  0  0  0
  -24.0007   -7.4633   22.7477 H   0  0  0  0  0  0
  -21.0856   -8.8780   19.8952 H   0  0  0  0  0  0
  -22.3719  -10.9674   19.6169 H   0  0  0  0  0  0
  -21.2009   -7.6149   23.9716 H   0  0  0  0  0  0
  -21.1482   -6.0524   25.9077 H   0  0  0  0  0  0
  -22.0597   -2.7610   23.2846 H   0  0  0  0  0  0
  -22.4051  -11.9839   22.4851 H   0  0  0  0  0  0
  -21.1031  -13.1176   22.2665 H   0  0  0  0  0  0
  -24.6298  -15.8453   20.5309 H   0  0  0  0  0  0
  -26.2396  -15.6403   20.0642 H   0  0  0  0  0  0
  -26.7377  -32.5137   23.0887 H   0  0  0  0  0  0
  -25.0070  -33.9485   25.0192 H   0  0  0  0  0  0
  -22.7891  -31.2670   21.3485 H   0  0  0  0  0  0
  -23.3765  -35.9530   23.3283 H   0  0  0  0  0  0
  -24.3569  -36.8881   22.2067 H   0  0  0  0  0  0
  -23.7242  -37.6387   23.6720 H   0  0  0  0  0  0
  -26.2213  -31.3747   20.6158 H   0  0  0  0  0  0
  -26.9062  -30.6947   22.0510 H   0  0  0  0  0  0
  -28.1614  -28.6200   21.2530 H   0  0  0  0  0  0
  -25.8841  -25.7202   19.0350 H   0  0  0  0  0  0
  -23.9962  -27.2498   18.9788 H   0  0  0  0  0  0
  -23.8728  -30.5146   19.3885 H   0  0  0  0  0  0
  -22.8250  -29.2028   19.8311 H   0  0  0  0  0  0
  -25.1332  -36.1767   25.0791 H   0  0  0  0  0  0
  -21.0032  -28.3358   24.1316 H   0  0  0  0  0  0
  -20.5680  -26.2370   23.3642 H   0  0  0  0  0  0
  -21.6662  -26.7414   22.1208 H   0  0  0  0  0  0
  -19.6931  -25.6277   21.1274 H   0  0  0  0  0  0
  -19.6710  -27.3164   20.6724 H   0  0  0  0  0  0
  -17.4222  -26.6685   21.4027 H   0  0  0  0  0  0
  -18.0350  -26.0095   22.9030 H   0  0  0  0  0  0
  -19.7968  -30.7320   24.2201 H   0  0  0  0  0  0
  -17.5037  -31.6274   24.5166 H   0  0  0  0  0  0
  -15.5375  -30.2973   23.7693 H   0  0  0  0  0  0
  -15.8704  -28.0808   22.7105 H   0  0  0  0  0  0
  -24.5885  -30.7117   25.7664 H   0  0  0  0  0  0
  -24.8859  -32.2984   26.4657 H   0  0  0  0  0  0
  -25.7920  -30.9033   27.0213 H   0  0  0  0  0  0
  -26.3120  -29.6580   24.1408 H   0  0  0  0  0  0
  -27.3971  -29.7268   25.5074 H   0  0  0  0  0  0
  -27.9066  -30.4088   23.9841 H   0  0  0  0  0  0
  -27.2619  -33.3690   26.1952 H   0  0  0  0  0  0
  -28.3927  -32.6835   25.0377 H   0  0  0  0  0  0
  -28.0645  -31.8555   26.5522 H   0  0  0  0  0  0
  -28.2572  -38.0071   24.7508 H   0  0  0  0  0  0
  -28.1079  -36.2597   24.6302 H   0  0  0  0  0  0
  -27.2284  -37.1414   25.8869 H   0  0  0  0  0  0
  -20.9586  -29.8729   21.6666 H   0  0  0  0  0  0
  -26.0128  -38.2764   24.1412 H   0  0  0  0  0  0
  -29.8343  -18.2328   21.7336 H   0  0  0  0  0  0
  -30.9655  -18.2990   20.4516 H   0  0  0  0  0  0
  -28.0459  -19.3727   19.9349 H   0  0  0  0  0  0
  -29.4521  -19.7769   19.0427 H   0  0  0  0  0  0
  -28.2693  -24.2286   21.5764 H   0  0  0  0  0  0
  -26.9610  -24.1021   20.4918 H   0  0  0  0  0  0
  -29.7032  -22.9230   19.5574 H   0  0  0  0  0  0
  -28.1449  -22.4326   19.0499 H   0  0  0  0  0  0
  -28.6725  -16.2975   20.4101 H   0  0  0  0  0  0
  1 25  1  0  0  0
  1 30  2  0  0  0
  1 75  1  0  0  0
  2  3  1  0  0  0
  2 25  1  0  0  0
  2 77  1  0  0  0
  2 78  1  0  0  0
  3  4  1  0  0  0
  3 79  1  0  0  0
  3 80  1  0  0  0
  4  5  1  0  0  0
  4 81  1  0  0  0
  4 82  1  0  0  0
  5  6  1  0  0  0
  5 26  1  0  0  0
  5 83  1  0  0  0
  6 25  1  0  0  0
  6 84  1  0  0  0
  6 85  1  0  0  0
  7  8  2  0  0  0
  7 26  1  0  0  0
  7 29  1  0  0  0
  8  9  1  0  0  0
  8 22  1  0  0  0
  9 10  1  0  0  0
  9 27  2  0  0  0
 10 11  2  0  0  0
 10 15  1  0  0  0
 11 12  1  0  0  0
 11 86  1  0  0  0
 12 13  2  0  0  0
 12 87  1  0  0  0
 13 14  1  0  0  0
 13 31  1  0  0  0
 14 15  2  0  0  0
 14 88  1  0  0  0
 15 89  1  0  0  0
 16 17  2  0  0  0
 16 21  1  0  0  0
 16 31  1  0  0  0
 17 18  1  0  0  0
 17 90  1  0  0  0
 18 19  2  0  0  0
 18 91  1  0  0  0
 19 20  1  0  0  0
 19 24  1  0  0  0
 20 21  2  0  0  0
 20 92  1  0  0  0
 21 23  1  0  0  0
 22 28  1  0  0  0
 22 32  2  0  0  0
 26 27  1  0  0  0
 28 93  1  0  0  0
 28 94  1  0  0  0
 29 95  1  0  0  0
 29 96  1  0  0  0
 33 34  1  0  0  0
 33 66  1  0  0  0
 33 70  2  0  0  0
 34 36  1  0  0  0
 34 59  1  0  0  0
 34 97  1  0  0  0
 35 44  2  0  0  0
 35 45  1  0  0  0
 35 68  1  0  0  0
 36 56  1  0  0  0
 36 98  1  0  0  0
 37 39  1  0  0  0
 37 47  1  0  0  0
 37 66  1  0  0  0
 37 99  1  0  0  0
 38 43  2  0  0  0
 38 46  1  0  0  0
 38 47  1  0  0  0
 39 64  1  0  0  0
 39 67  2  0  0  0
 40 52  1  0  0  0
 40 53  2  0  0  0
 40 58  1  0  0  0
 41100  1  0  0  0
 41101  1  0  0  0
 41102  1  0  0  0
 41 48  1  0  0  0
 42 43  1  0  0  0
 42 66  1  0  0  0
 42103  1  0  0  0
 42104  1  0  0  0
 43 44  1  0  0  0
 44105  1  0  0  0
 45 46  2  0  0  0
 45106  1  0  0  0
 46107  1  0  0  0
 47108  1  0  0  0
 47109  1  0  0  0
 48 56  1  0  0  0
 48 65  1  0  0  0
 48110  1  0  0  0
 49 50  1  0  0  0
 49 53  1  0  0  0
 49 64  1  0  0  0
 49111  1  0  0  0
 50 51  1  0  0  0
 50112  1  0  0  0
 50113  1  0  0  0
 51 52  1  0  0  0
 51114  1  0  0  0
 51115  1  0  0  0
 52116  1  0  0  0
 52117  1  0  0  0
 53 54  1  0  0  0
 54 55  2  0  0  0
 54118  1  0  0  0
 55 57  1  0  0  0
 55119  1  0  0  0
 56 69  2  0  0  0
 57 58  2  0  0  0
 57120  1  0  0  0
 58121  1  0  0  0
 59 60  1  0  0  0
 59 61  1  0  0  0
 59 62  1  0  0  0
 60122  1  0  0  0
 60123  1  0  0  0
 60124  1  0  0  0
 61125  1  0  0  0
 61126  1  0  0  0
 61127  1  0  0  0
 62128  1  0  0  0
 62129  1  0  0  0
 62130  1  0  0  0
 63 65  1  0  0  0
 63131  1  0  0  0
 63132  1  0  0  0
 63133  1  0  0  0
 64134  1  0  0  0
 65135  1  0  0  0
 68 73  1  0  0  0
 71 72  1  0  0  0
 71 75  1  0  0  0
 71136  1  0  0  0
 71137  1  0  0  0
 72 76  1  0  0  0
 72138  1  0  0  0
 72139  1  0  0  0
 73 74  1  0  0  0
 73140  1  0  0  0
 73141  1  0  0  0
 74 76  1  0  0  0
 74142  1  0  0  0
 74143  1  0  0  0
 75144  1  0  0  0
M  ISO  4   1 100  68 101  73 101  75 100
M  END
> <chiral flag>
0

> <version>
0

> <s_m_source_file>
/data/baiqing/PycharmProjects/Reinvent-master-3.2/result/LINK_invent/BTK/process_docking_weight1_custom_product_contain_oxygen_bond_distance_aromatic_linkinvent_7_9_3/rearranged_h_0001.sdf

> <i_m_source_file_index>
78

> <r_mmod_Potential_Energy-OPLS-2005>
1272.39196777344

> <r_mmod_Stretch_Energy-OPLS-2005>
620.559265136719

> <r_mmod_Bend_Energy-OPLS-2005>
470.408538818359

> <r_mmod_Torsional_Energy-OPLS-2005>
228.680725097656

> <r_mmod_Improper_Torsional_Energy-OPLS-2005>
4.08042764663696

> <r_mmod_Van_der_Waal_Energy-OPLS-2005>
109.728851318359

> <r_mmod_Electrostatic_Energy-OPLS-2005>
-380.777038574219

> <r_mmod_Solvation_Energy-OPLS-2005>
-221.878372192383

> <b_mmod_Minimization_Converged-OPLS-2005>
0

> <r_mmod_RMS_Derivative-OPLS-2005>
0.0835052877664566

$$$$
78
                    3D
 Structure written by MMmdl.
144152  0  0  1  0            999 V2000
  -30.2527  -15.7856   20.3198 C   0  0  0  0  0  0
  -30.4129  -13.1956   19.5441 C   0  0  0  0  0  0
  -29.5557  -12.6952   18.3416 C   0  0  0  0  0  0
  -28.1429  -12.3029   18.7935 C   0  0  0  0  0  0
  -27.5911  -13.3230   19.8121 C   0  0  2  0  0  0
  -28.5962  -13.7228   20.9225 C   0  0  0  0  0  0
  -25.2298  -13.8303   20.5814 C   0  0  0  0  0  0
  -24.1703  -13.0433   20.9298 C   0  0  0  0  0  0
  -24.6427  -11.6953   20.8766 C   0  0  0  0  0  0
  -23.9132  -10.4295   21.0396 C   0  0  0  0  0  0
  -24.3665   -9.4205   21.9177 C   0  0  0  0  0  0
  -23.6321   -8.2248   22.0752 C   0  0  0  0  0  0
  -22.4300   -8.0290   21.3544 C   0  0  0  0  0  0
  -21.9950   -9.0267   20.4641 C   0  0  0  0  0  0
  -22.7298  -10.2135   20.3047 C   0  0  0  0  0  0
  -21.6861   -6.0744   22.5279 C   0  0  0  0  0  0
  -21.4020   -6.5645   23.8212 C   0  0  0  0  0  0
  -21.3662   -5.6796   24.9173 C   0  0  0  0  0  0
  -21.6043   -4.3058   24.7222 C   0  0  0  0  0  0
  -21.8819   -3.8153   23.4343 C   0  0  0  0  0  0
  -21.9195   -4.6971   22.3400 C   0  0  0  0  0  0
  -22.7713  -13.5153   21.1924 C   0  0  0  0  0  0
  -22.1662   -4.2156   21.0978 F   0  0  0  0  0  0
  -21.5628   -3.4540   25.7734 F   0  0  0  0  0  0
  -29.7463  -14.3930   20.2576 N   0  0  0  0  0  0
  -26.2765  -12.9664   20.3261 N   0  0  0  0  0  0
  -25.9380  -11.6718   20.5700 N   0  0  0  0  0  0
  -22.0382  -12.8128   22.0477 N   0  0  0  0  0  0
  -25.3869  -15.2046   20.4250 N   0  0  0  0  0  0
  -31.4904  -15.6923   20.1741 O   0  0  0  0  0  0
  -21.6652   -6.8893   21.4243 O   0  0  0  0  0  0
  -22.3383  -14.5448   20.6756 O   0  0  0  0  0  0
  -24.6937  -31.7875   23.1430 C   0  0  0  0  0  0
  -25.9469  -32.4403   23.8012 C   0  0  1  0  0  0
  -27.2288  -26.5847   20.2333 C   0  0  0  0  0  0
  -25.6006  -33.8236   24.1886 N   0  0  0  0  0  0
  -23.5253  -30.3838   21.4993 C   0  0  2  0  0  0
  -24.9848  -28.6999   20.1247 C   0  0  0  0  0  0
  -22.7811  -29.4246   22.4685 C   0  0  0  0  0  0
  -18.0345  -28.1429   22.8447 C   0  0  0  0  0  0
  -24.1498  -36.7127   23.2655 C   0  0  0  0  0  0
  -26.1101  -30.4789   21.4290 C   0  0  0  0  0  0
  -26.1729  -29.0293   20.7871 C   0  0  0  0  0  0
  -27.2721  -28.0017   20.8104 C   0  0  0  0  0  0
  -26.0126  -26.5021   19.4993 C   0  0  0  0  0  0
  -24.9500  -27.4625   19.4574 C   0  0  0  0  0  0
  -23.7872  -29.6700   20.1399 C   0  0  0  0  0  0
  -25.4153  -36.2859   24.0272 C   0  0  1  0  0  0
  -20.5983  -28.3794   23.1121 C   0  0  2  0  0  0
  -20.6808  -26.9443   22.5404 C   0  0  0  0  0  0
  -19.5785  -26.6368   21.5216 C   0  0  0  0  0  0
  -18.1967  -26.7953   22.1616 C   0  0  0  0  0  0
  -19.1613  -28.8938   23.2761 C   0  0  0  0  0  0
  -18.9517  -30.1518   23.8810 C   0  0  0  0  0  0
  -17.6506  -30.6607   24.0548 C   0  0  0  0  0  0
  -25.9140  -34.9252   23.4925 C   0  0  0  0  0  0
  -16.5395  -29.9087   23.6353 C   0  0  0  0  0  0
  -16.7323  -28.6512   23.0366 C   0  0  0  0  0  0
  -26.4613  -31.6485   25.0681 C   0  0  0  0  0  0
  -25.3644  -31.3836   26.1269 C   0  0  0  0  0  0
  -27.0565  -30.2808   24.6673 C   0  0  0  0  0  0
  -27.6042  -32.4373   25.7504 C   0  0  0  0  0  0
  -27.5560  -37.1725   24.8468 C   0  0  0  0  0  0
  -21.4449  -29.3019   22.3430 N   0  0  0  0  0  0
  -26.4271  -37.3630   23.9401 N   0  0  0  0  0  0
  -24.8008  -30.9200   22.0755 N   0  0  0  0  0  0
  -23.4201  -28.7862   23.3081 O   0  0  0  0  0  0
  -28.1916  -25.3215   20.2556 O   0  0  0  0  0  0
  -26.5793  -34.8849   22.4552 O   0  0  0  0  0  0
  -23.5933  -32.1009   23.6307 O   0  0  0  0  0  0
  -26.4561  -21.7447   20.6829 C   0  0  0  0  0  0
  -27.3400  -20.6155   20.5832 C   0  0  0  0  0  0
  -26.7780  -23.1412   20.5651 C   0  0  0  0  0  0
  -28.9950  -22.3129   20.2297 C   0  0  0  0  0  0
  -28.7344  -20.6932   20.3466 C   0  0  0  0  0  0
  -28.0707  -23.6695   20.3192 C   0  0  0  0  0  0
  -29.6842  -19.0215   20.2779 C   0  0  0  0  0  0
  -29.5054  -17.1968   20.3618 N   0  0  0  0  0  0
  -31.3932  -13.4800   19.1606 H   0  0  0  0  0  0
  -30.6132  -12.3812   20.2421 H   0  0  0  0  0  0
  -30.0429  -11.8536   17.8471 H   0  0  0  0  0  0
  -29.4885  -13.4916   17.5989 H   0  0  0  0  0  0
  -28.2013  -11.3192   19.2612 H   0  0  0  0  0  0
  -27.4750  -12.2013   17.9371 H   0  0  0  0  0  0
  -27.4325  -14.2228   19.2159 H   0  0  0  0  0  0
  -28.8920  -12.8680   21.5326 H   0  0  0  0  0  0
  -28.1320  -14.4366   21.6047 H   0  0  0  0  0  0
  -25.2802   -9.5679   22.4763 H   0  0  0  0  0  0
  -24.0018   -7.4643   22.7481 H   0  0  0  0  0  0
  -21.0878   -8.8799   19.8950 H   0  0  0  0  0  0
  -22.3757  -10.9678   19.6161 H   0  0  0  0  0  0
  -21.2014   -7.6153   23.9717 H   0  0  0  0  0  0
  -21.1483   -6.0525   25.9075 H   0  0  0  0  0  0
  -22.0595   -2.7615   23.2840 H   0  0  0  0  0  0
  -22.4033  -11.9812   22.4881 H   0  0  0  0  0  0
  -21.0983  -13.1114   22.2662 H   0  0  0  0  0  0
  -24.6129  -15.8508   20.5348 H   0  0  0  0  0  0
  -26.2258  -15.6471   20.0742 H   0  0  0  0  0  0
  -26.7558  -32.4845   23.0725 H   0  0  0  0  0  0
  -25.0049  -33.9257   24.9970 H   0  0  0  0  0  0
  -22.8571  -31.2239   21.2993 H   0  0  0  0  0  0
  -23.3777  -35.9439   23.3267 H   0  0  0  0  0  0
  -24.3556  -36.8846   22.2078 H   0  0  0  0  0  0
  -23.7246  -37.6284   23.6774 H   0  0  0  0  0  0
  -26.3247  -31.1924   20.6324 H   0  0  0  0  0  0
  -26.9572  -30.5543   22.0977 H   0  0  0  0  0  0
  -28.1651  -28.2655   21.3591 H   0  0  0  0  0  0
  -25.8391  -25.5791   18.9642 H   0  0  0  0  0  0
  -24.0607  -27.2021   18.8996 H   0  0  0  0  0  0
  -23.9731  -30.4249   19.3752 H   0  0  0  0  0  0
  -22.8900  -29.1425   19.8116 H   0  0  0  0  0  0
  -25.1371  -36.1606   25.0762 H   0  0  0  0  0  0
  -21.0059  -28.3426   24.1251 H   0  0  0  0  0  0
  -20.5662  -26.2421   23.3674 H   0  0  0  0  0  0
  -21.6670  -26.7371   22.1228 H   0  0  0  0  0  0
  -19.6942  -25.6256   21.1302 H   0  0  0  0  0  0
  -19.6733  -27.3132   20.6708 H   0  0  0  0  0  0
  -17.4238  -26.6690   21.4019 H   0  0  0  0  0  0
  -18.0355  -26.0117   22.9033 H   0  0  0  0  0  0
  -19.7994  -30.7356   24.2142 H   0  0  0  0  0  0
  -17.5058  -31.6278   24.5170 H   0  0  0  0  0  0
  -15.5392  -30.2964   23.7728 H   0  0  0  0  0  0
  -15.8723  -28.0804   22.7129 H   0  0  0  0  0  0
  -24.5865  -30.7154   25.7556 H   0  0  0  0  0  0
  -24.8796  -32.3068   26.4452 H   0  0  0  0  0  0
  -25.7787  -30.9150   27.0206 H   0  0  0  0  0  0
  -26.3306  -29.6384   24.1679 H   0  0  0  0  0  0
  -27.3954  -29.7305   25.5461 H   0  0  0  0  0  0
  -27.9304  -30.3902   24.0248 H   0  0  0  0  0  0
  -27.2570  -33.3759   26.1836 H   0  0  0  0  0  0
  -28.3975  -32.6799   25.0420 H   0  0  0  0  0  0
  -28.0577  -31.8668   26.5619 H   0  0  0  0  0  0
  -28.2551  -38.0042   24.7496 H   0  0  0  0  0  0
  -28.1081  -36.2562   24.6327 H   0  0  0  0  0  0
  -27.2268  -37.1395   25.8869 H   0  0  0  0  0  0
  -20.9779  -29.8656   21.6462 H   0  0  0  0  0  0
  -26.0090  -38.2677   24.1399 H   0  0  0  0  0  0
  -25.4173  -21.5156   20.8775 H   0  0  0  0  0  0
  -26.9082  -19.6312   20.7051 H   0  0  0  0  0  0
  -25.9665  -23.8445   20.6853 H   0  0  0  0  0  0
  -30.0360  -22.5452   20.0533 H   0  0  0  0  0  0
  -30.4530  -19.1893   21.0326 H   0  0  0  0  0  0
  -30.2297  -19.1328   19.3405 H   0  0  0  0  0  0
  -28.5205  -16.9901   20.4480 H   0  0  0  0  0  0
  1 25  1  0  0  0
  1 30  2  0  0  0
  1 78  1  0  0  0
  2  3  1  0  0  0
  2 25  1  0  0  0
  2 79  1  0  0  0
  2 80  1  0  0  0
  3  4  1  0  0  0
  3 81  1  0  0  0
  3 82  1  0  0  0
  4  5  1  0  0  0
  4 83  1  0  0  0
  4 84  1  0  0  0
  5  6  1  0  0  0
  5 26  1  0  0  0
  5 85  1  0  0  0
  6 25  1  0  0  0
  6 86  1  0  0  0
  6 87  1  0  0  0
  7  8  2  0  0  0
  7 26  1  0  0  0
  7 29  1  0  0  0
  8  9  1  0  0  0
  8 22  1  0  0  0
  9 10  1  0  0  0
  9 27  2  0  0  0
 10 11  2  0  0  0
 10 15  1  0  0  0
 11 12  1  0  0  0
 11 88  1  0  0  0
 12 13  2  0  0  0
 12 89  1  0  0  0
 13 14  1  0  0  0
 13 31  1  0  0  0
 14 15  2  0  0  0
 14 90  1  0  0  0
 15 91  1  0  0  0
 16 17  2  0  0  0
 16 21  1  0  0  0
 16 31  1  0  0  0
 17 18  1  0  0  0
 17 92  1  0  0  0
 18 19  2  0  0  0
 18 93  1  0  0  0
 19 20  1  0  0  0
 19 24  1  0  0  0
 20 21  2  0  0  0
 20 94  1  0  0  0
 21 23  1  0  0  0
 22 28  1  0  0  0
 22 32  2  0  0  0
 26 27  1  0  0  0
 28 95  1  0  0  0
 28 96  1  0  0  0
 29 97  1  0  0  0
 29 98  1  0  0  0
 33 34  1  0  0  0
 33 66  1  0  0  0
 33 70  2  0  0  0
 34 36  1  0  0  0
 34 59  1  0  0  0
 34 99  1  0  0  0
 35 44  2  0  0  0
 35 45  1  0  0  0
 35 68  1  0  0  0
 36 56  1  0  0  0
 36100  1  0  0  0
 37 39  1  0  0  0
 37 47  1  0  0  0
 37 66  1  0  0  0
 37101  1  0  0  0
 38 43  2  0  0  0
 38 46  1  0  0  0
 38 47  1  0  0  0
 39 64  1  0  0  0
 39 67  2  0  0  0
 40 52  1  0  0  0
 40 53  2  0  0  0
 40 58  1  0  0  0
 41102  1  0  0  0
 41103  1  0  0  0
 41104  1  0  0  0
 41 48  1  0  0  0
 42 43  1  0  0  0
 42 66  1  0  0  0
 42105  1  0  0  0
 42106  1  0  0  0
 43 44  1  0  0  0
 44107  1  0  0  0
 45 46  2  0  0  0
 45108  1  0  0  0
 46109  1  0  0  0
 47110  1  0  0  0
 47111  1  0  0  0
 48 56  1  0  0  0
 48 65  1  0  0  0
 48112  1  0  0  0
 49 50  1  0  0  0
 49 53  1  0  0  0
 49 64  1  0  0  0
 49113  1  0  0  0
 50 51  1  0  0  0
 50114  1  0  0  0
 50115  1  0  0  0
 51 52  1  0  0  0
 51116  1  0  0  0
 51117  1  0  0  0
 52118  1  0  0  0
 52119  1  0  0  0
 53 54  1  0  0  0
 54 55  2  0  0  0
 54120  1  0  0  0
 55 57  1  0  0  0
 55121  1  0  0  0
 56 69  2  0  0  0
 57 58  2  0  0  0
 57122  1  0  0  0
 58123  1  0  0  0
 59 60  1  0  0  0
 59 61  1  0  0  0
 59 62  1  0  0  0
 60124  1  0  0  0
 60125  1  0  0  0
 60126  1  0  0  0
 61127  1  0  0  0
 61128  1  0  0  0
 61129  1  0  0  0
 62130  1  0  0  0
 62131  1  0  0  0
 62132  1  0  0  0
 63 65  1  0  0  0
 63133  1  0  0  0
 63134  1  0  0  0
 63135  1  0  0  0
 64136  1  0  0  0
 65137  1  0  0  0
 68 76  1  0  0  0
 71 72  2  0  0  0
 71 73  1  0  0  0
 71138  1  0  0  0
 72 75  1  0  0  0
 72139  1  0  0  0
 73 76  2  0  0  0
 73140  1  0  0  0
 74 75  2  0  0  0
 74 76  1  0  0  0
 74141  1  0  0  0
 75 77  1  0  0  0
 77 78  1  0  0  0
 77142  1  0  0  0
 77143  1  0  0  0
 78144  1  0  0  0
M  ISO  4   1 100  68 101  76 101  78 100
M  END
> <chiral flag>
0

> <version>
0

> <s_m_source_file>
/data/baiqing/PycharmProjects/Reinvent-master-3.2/result/LINK_invent/BTK/process_docking_weight1_custom_product_contain_oxygen_bond_distance_aromatic_linkinvent_7_9_3/rearranged_h_0001.sdf

> <i_m_source_file_index>
79

> <r_mmod_Potential_Energy-OPLS-2005>
2769.08959960938

> <r_mmod_Stretch_Energy-OPLS-2005>
1243.04919433594

> <r_mmod_Bend_Energy-OPLS-2005>
646.241638183594

> <r_mmod_Torsional_Energy-OPLS-2005>
201.411758422852

> <r_mmod_Improper_Torsional_Energy-OPLS-2005>
3.7339494228363

> <r_mmod_Van_der_Waal_Energy-OPLS-2005>
127.41130065918

> <r_mmod_Electrostatic_Energy-OPLS-2005>
-376.12548828125

> <r_mmod_Solvation_Energy-OPLS-2005>
-220.923278808594

> <b_mmod_Minimization_Converged-OPLS-2005>
0

> <r_mmod_RMS_Derivative-OPLS-2005>
0.552049160003662

$$$$
79
                    3D
 Structure written by MMmdl.
150158  0  0  1  0            999 V2000
  -30.6677  -14.6530   20.4755 C   0  0  0  0  0  0
  -30.4208  -12.4013   19.4593 C   0  0  0  0  0  0
  -29.4996  -12.4933   18.2251 C   0  0  0  0  0  0
  -28.0258  -12.3325   18.6428 C   0  0  0  0  0  0
  -27.6442  -13.2276   19.8529 C   0  0  2  0  0  0
  -28.6905  -13.1412   20.9857 C   0  0  0  0  0  0
  -25.2522  -13.8198   20.5697 C   0  0  0  0  0  0
  -24.1807  -13.0445   20.9201 C   0  0  0  0  0  0
  -24.6391  -11.6921   20.8750 C   0  0  0  0  0  0
  -23.9067  -10.4295   21.0408 C   0  0  0  0  0  0
  -24.3616   -9.4211   21.9186 C   0  0  0  0  0  0
  -23.6292   -8.2247   22.0757 C   0  0  0  0  0  0
  -22.4274   -8.0282   21.3545 C   0  0  0  0  0  0
  -21.9909   -9.0257   20.4649 C   0  0  0  0  0  0
  -22.7237  -10.2137   20.3058 C   0  0  0  0  0  0
  -21.6853   -6.0735   22.5279 C   0  0  0  0  0  0
  -21.4014   -6.5640   23.8213 C   0  0  0  0  0  0
  -21.3657   -5.6793   24.9176 C   0  0  0  0  0  0
  -21.6041   -4.3056   24.7227 C   0  0  0  0  0  0
  -21.8819   -3.8148   23.4350 C   0  0  0  0  0  0
  -21.9193   -4.6962   22.3404 C   0  0  0  0  0  0
  -22.7829  -13.5228   21.1857 C   0  0  0  0  0  0
  -22.1662   -4.2148   21.0982 F   0  0  0  0  0  0
  -21.5625   -3.4541   25.7741 F   0  0  0  0  0  0
  -29.9983  -13.4591   20.4013 N   0  0  0  0  0  0
  -26.2950  -12.9400   20.3305 N   0  0  0  0  0  0
  -25.9321  -11.6544   20.5768 N   0  0  0  0  0  0
  -22.0476  -12.8222   22.0417 N   0  0  0  0  0  0
  -25.4218  -15.1921   20.4111 N   0  0  0  0  0  0
  -31.8561  -14.7221   20.1546 O   0  0  0  0  0  0
  -21.6640   -6.8879   21.4242 O   0  0  0  0  0  0
  -22.3514  -14.5532   20.6699 O   0  0  0  0  0  0
  -24.6257  -31.8600   23.2028 C   0  0  0  0  0  0
  -25.9103  -32.4780   23.8361 C   0  0  1  0  0  0
  -27.2185  -27.3219   20.1282 C   0  0  0  0  0  0
  -25.5920  -33.8580   24.2287 N   0  0  0  0  0  0
  -23.4210  -30.4827   21.5443 C   0  0  2  0  0  0
  -24.8714  -28.9409   20.1088 C   0  0  0  0  0  0
  -22.7477  -29.4621   22.4928 C   0  0  0  0  0  0
  -18.0287  -28.1381   22.8486 C   0  0  0  0  0  0
  -24.1486  -36.7293   23.2643 C   0  0  0  0  0  0
  -25.9618  -30.7929   21.3746 C   0  0  0  0  0  0
  -26.0397  -29.4207   20.7178 C   0  0  0  0  0  0
  -27.2237  -28.6231   20.7191 C   0  0  0  0  0  0
  -26.0389  -26.8999   19.4828 C   0  0  0  0  0  0
  -24.8722  -27.6857   19.4805 C   0  0  0  0  0  0
  -23.6375  -29.8189   20.1591 C   0  0  0  0  0  0
  -25.4110  -36.3084   24.0334 C   0  0  1  0  0  0
  -20.5888  -28.3689   23.1277 C   0  0  2  0  0  0
  -20.6776  -26.9410   22.5409 C   0  0  0  0  0  0
  -19.5751  -26.6378   21.5211 C   0  0  0  0  0  0
  -18.1929  -26.7924   22.1621 C   0  0  0  0  0  0
  -19.1542  -28.8851   23.2874 C   0  0  0  0  0  0
  -18.9467  -30.1452   23.8891 C   0  0  0  0  0  0
  -17.6469  -30.6587   24.0559 C   0  0  0  0  0  0
  -25.9048  -34.9453   23.5111 C   0  0  0  0  0  0
  -16.5359  -29.9087   23.6331 C   0  0  0  0  0  0
  -16.7276  -28.6502   23.0357 C   0  0  0  0  0  0
  -26.4492  -31.6589   25.0728 C   0  0  0  0  0  0
  -25.3726  -31.3720   26.1454 C   0  0  0  0  0  0
  -27.0348  -30.3021   24.6173 C   0  0  0  0  0  0
  -27.6047  -32.4333   25.7496 C   0  0  0  0  0  0
  -27.5576  -37.1799   24.8467 C   0  0  0  0  0  0
  -21.4191  -29.3041   22.3669 N   0  0  0  0  0  0
  -26.4289  -37.3777   23.9412 N   0  0  0  0  0  0
  -24.6881  -31.0612   22.0978 N   0  0  0  0  0  0
  -23.4195  -28.8162   23.3013 O   0  0  0  0  0  0
  -28.2701  -26.3990   20.1439 O   0  0  0  0  0  0
  -26.5617  -34.8920   22.4676 O   0  0  0  0  0  0
  -23.5420  -32.1398   23.7353 O   0  0  0  0  0  0
  -28.9330  -21.7972   19.8446 C   0  0  0  0  0  0
  -29.7575  -21.9836   22.0848 C   0  0  0  0  0  0
  -28.5876  -23.1968   19.8589 C   0  0  0  0  0  0
  -29.3905  -23.3550   22.1116 C   0  0  0  0  0  0
  -29.5502  -21.1514   20.9573 C   0  0  0  0  0  0
  -28.7988  -24.0197   21.0054 C   0  0  0  0  0  0
  -30.0415  -19.7070   21.0579 C   0  0  0  0  0  0
  -29.7345  -18.5122   20.4535 C   0  0  0  0  0  0
  -28.3265  -25.4797   21.2194 C   0  0  0  0  0  0
  -30.5712  -17.1941   20.6658 C   0  0  0  0  0  0
  -29.9586  -15.8119   20.6974 N   0  0  0  0  0  0
  -27.9758  -25.8362   22.3497 O   0  0  0  0  0  0
  -31.4639  -12.5014   19.1548 H   0  0  0  0  0  0
  -30.3415  -11.4204   19.9300 H   0  0  0  0  0  0
  -29.7669  -11.7276   17.4953 H   0  0  0  0  0  0
  -29.6394  -13.4543   17.7277 H   0  0  0  0  0  0
  -27.8720  -11.2832   18.8980 H   0  0  0  0  0  0
  -27.3676  -12.5375   17.7978 H   0  0  0  0  0  0
  -27.6472  -14.2531   19.4831 H   0  0  0  0  0  0
  -28.7057  -12.1437   21.4274 H   0  0  0  0  0  0
  -28.4437  -13.8309   21.7943 H   0  0  0  0  0  0
  -25.2761   -9.5688   22.4763 H   0  0  0  0  0  0
  -23.9998   -7.4641   22.7479 H   0  0  0  0  0  0
  -21.0840   -8.8776   19.8956 H   0  0  0  0  0  0
  -22.3694  -10.9677   19.6169 H   0  0  0  0  0  0
  -21.2010   -7.6149   23.9715 H   0  0  0  0  0  0
  -21.1476   -6.0525   25.9076 H   0  0  0  0  0  0
  -22.0600   -2.7609   23.2852 H   0  0  0  0  0  0
  -22.4097  -11.9887   22.4808 H   0  0  0  0  0  0
  -21.1098  -13.1253   22.2628 H   0  0  0  0  0  0
  -24.6536  -15.8455   20.5193 H   0  0  0  0  0  0
  -26.2706  -15.6329   20.0803 H   0  0  0  0  0  0
  -26.7172  -32.5460   23.1115 H   0  0  0  0  0  0
  -25.0065  -33.9726   25.0428 H   0  0  0  0  0  0
  -22.7147  -31.3030   21.4003 H   0  0  0  0  0  0
  -23.3746  -35.9627   23.3312 H   0  0  0  0  0  0
  -24.3575  -36.8907   22.2055 H   0  0  0  0  0  0
  -23.7243  -37.6498   23.6662 H   0  0  0  0  0  0
  -26.0912  -31.5559   20.6059 H   0  0  0  0  0  0
  -26.8423  -30.8436   22.0031 H   0  0  0  0  0  0
  -28.1192  -28.9784   21.2091 H   0  0  0  0  0  0
  -26.0111  -25.9287   19.0089 H   0  0  0  0  0  0
  -23.9783  -27.3127   18.9996 H   0  0  0  0  0  0
  -23.7553  -30.5961   19.4032 H   0  0  0  0  0  0
  -22.7588  -29.2473   19.8557 H   0  0  0  0  0  0
  -25.1287  -36.1940   25.0827 H   0  0  0  0  0  0
  -20.9976  -28.3270   24.1400 H   0  0  0  0  0  0
  -20.5681  -26.2299   23.3611 H   0  0  0  0  0  0
  -21.6644  -26.7441   22.1201 H   0  0  0  0  0  0
  -19.6916  -25.6290   21.1245 H   0  0  0  0  0  0
  -19.6689  -27.3182   20.6735 H   0  0  0  0  0  0
  -17.4199  -26.6671   21.4026 H   0  0  0  0  0  0
  -18.0327  -26.0064   22.9016 H   0  0  0  0  0  0
  -19.7945  -30.7261   24.2263 H   0  0  0  0  0  0
  -17.5031  -31.6270   24.5160 H   0  0  0  0  0  0
  -15.5363  -30.2992   23.7663 H   0  0  0  0  0  0
  -15.8671  -28.0822   22.7084 H   0  0  0  0  0  0
  -24.5900  -30.7072   25.7782 H   0  0  0  0  0  0
  -24.8916  -32.2883   26.4888 H   0  0  0  0  0  0
  -25.8049  -30.8892   27.0227 H   0  0  0  0  0  0
  -26.2929  -29.6760   24.1201 H   0  0  0  0  0  0
  -27.4069  -29.7284   25.4671 H   0  0  0  0  0  0
  -27.8783  -30.4326   23.9387 H   0  0  0  0  0  0
  -27.2654  -33.3637   26.2061 H   0  0  0  0  0  0
  -28.3856  -32.6888   25.0321 H   0  0  0  0  0  0
  -28.0713  -31.8468   26.5419 H   0  0  0  0  0  0
  -28.2594  -38.0096   24.7513 H   0  0  0  0  0  0
  -28.1071  -36.2626   24.6297 H   0  0  0  0  0  0
  -27.2292  -37.1455   25.8871 H   0  0  0  0  0  0
  -20.9373  -29.8769   21.6881 H   0  0  0  0  0  0
  -26.0172  -38.2852   24.1414 H   0  0  0  0  0  0
  -28.7425  -21.2227   18.9486 H   0  0  0  0  0  0
  -30.2128  -21.5627   22.9711 H   0  0  0  0  0  0
  -28.1156  -23.6282   18.9870 H   0  0  0  0  0  0
  -29.5633  -23.9063   23.0264 H   0  0  0  0  0  0
  -30.8721  -19.6275   21.7461 H   0  0  0  0  0  0
  -28.9196  -18.4667   19.7446 H   0  0  0  0  0  0
  -31.1620  -17.3069   21.5758 H   0  0  0  0  0  0
  -31.2975  -17.2025   19.8509 H   0  0  0  0  0  0
  -28.9742  -15.7285   20.9036 H   0  0  0  0  0  0
  1 25  1  0  0  0
  1 30  2  0  0  0
  1 81  1  0  0  0
  2  3  1  0  0  0
  2 25  1  0  0  0
  2 83  1  0  0  0
  2 84  1  0  0  0
  3  4  1  0  0  0
  3 85  1  0  0  0
  3 86  1  0  0  0
  4  5  1  0  0  0
  4 87  1  0  0  0
  4 88  1  0  0  0
  5  6  1  0  0  0
  5 26  1  0  0  0
  5 89  1  0  0  0
  6 25  1  0  0  0
  6 90  1  0  0  0
  6 91  1  0  0  0
  7  8  2  0  0  0
  7 26  1  0  0  0
  7 29  1  0  0  0
  8  9  1  0  0  0
  8 22  1  0  0  0
  9 10  1  0  0  0
  9 27  2  0  0  0
 10 11  2  0  0  0
 10 15  1  0  0  0
 11 12  1  0  0  0
 11 92  1  0  0  0
 12 13  2  0  0  0
 12 93  1  0  0  0
 13 14  1  0  0  0
 13 31  1  0  0  0
 14 15  2  0  0  0
 14 94  1  0  0  0
 15 95  1  0  0  0
 16 17  2  0  0  0
 16 21  1  0  0  0
 16 31  1  0  0  0
 17 18  1  0  0  0
 17 96  1  0  0  0
 18 19  2  0  0  0
 18 97  1  0  0  0
 19 20  1  0  0  0
 19 24  1  0  0  0
 20 21  2  0  0  0
 20 98  1  0  0  0
 21 23  1  0  0  0
 22 28  1  0  0  0
 22 32  2  0  0  0
 26 27  1  0  0  0
 28 99  1  0  0  0
 28100  1  0  0  0
 29101  1  0  0  0
 29102  1  0  0  0
 33 34  1  0  0  0
 33 66  1  0  0  0
 33 70  2  0  0  0
 34 36  1  0  0  0
 34 59  1  0  0  0
 34103  1  0  0  0
 35 44  2  0  0  0
 35 45  1  0  0  0
 35 68  1  0  0  0
 36 56  1  0  0  0
 36104  1  0  0  0
 37 39  1  0  0  0
 37 47  1  0  0  0
 37 66  1  0  0  0
 37105  1  0  0  0
 38 43  2  0  0  0
 38 46  1  0  0  0
 38 47  1  0  0  0
 39 64  1  0  0  0
 39 67  2  0  0  0
 40 52  1  0  0  0
 40 53  2  0  0  0
 40 58  1  0  0  0
 41106  1  0  0  0
 41107  1  0  0  0
 41108  1  0  0  0
 41 48  1  0  0  0
 42 43  1  0  0  0
 42 66  1  0  0  0
 42109  1  0  0  0
 42110  1  0  0  0
 43 44  1  0  0  0
 44111  1  0  0  0
 45 46  2  0  0  0
 45112  1  0  0  0
 46113  1  0  0  0
 47114  1  0  0  0
 47115  1  0  0  0
 48 56  1  0  0  0
 48 65  1  0  0  0
 48116  1  0  0  0
 49 50  1  0  0  0
 49 53  1  0  0  0
 49 64  1  0  0  0
 49117  1  0  0  0
 50 51  1  0  0  0
 50118  1  0  0  0
 50119  1  0  0  0
 51 52  1  0  0  0
 51120  1  0  0  0
 51121  1  0  0  0
 52122  1  0  0  0
 52123  1  0  0  0
 53 54  1  0  0  0
 54 55  2  0  0  0
 54124  1  0  0  0
 55 57  1  0  0  0
 55125  1  0  0  0
 56 69  2  0  0  0
 57 58  2  0  0  0
 57126  1  0  0  0
 58127  1  0  0  0
 59 60  1  0  0  0
 59 61  1  0  0  0
 59 62  1  0  0  0
 60128  1  0  0  0
 60129  1  0  0  0
 60130  1  0  0  0
 61131  1  0  0  0
 61132  1  0  0  0
 61133  1  0  0  0
 62134  1  0  0  0
 62135  1  0  0  0
 62136  1  0  0  0
 63 65  1  0  0  0
 63137  1  0  0  0
 63138  1  0  0  0
 63139  1  0  0  0
 64140  1  0  0  0
 65141  1  0  0  0
 68 79  1  0  0  0
 71 73  2  0  0  0
 71 75  1  0  0  0
 71142  1  0  0  0
 72 74  1  0  0  0
 72 75  2  0  0  0
 72143  1  0  0  0
 73 76  1  0  0  0
 73144  1  0  0  0
 74 76  2  0  0  0
 74145  1  0  0  0
 75 77  1  0  0  0
 76 79  1  0  0  0
 77 78  2  0  0  0
 77146  1  0  0  0
 78 80  1  0  0  0
 78147  1  0  0  0
 79 82  2  0  0  0
 80 81  1  0  0  0
 80148  1  0  0  0
 80149  1  0  0  0
 81150  1  0  0  0
M  ISO  4   1 100  68 101  79 101  81 100
M  END
> <chiral flag>
0

> <version>
0

> <s_m_source_file>
/data/baiqing/PycharmProjects/Reinvent-master-3.2/result/LINK_invent/BTK/process_docking_weight1_custom_product_contain_oxygen_bond_distance_aromatic_linkinvent_7_9_3/rearranged_h_0001.sdf

> <i_m_source_file_index>
80

> <r_mmod_Potential_Energy-OPLS-2005>
136.604522705078

> <r_mmod_Stretch_Energy-OPLS-2005>
83.8236999511719

> <r_mmod_Bend_Energy-OPLS-2005>
156.864822387695

> <r_mmod_Torsional_Energy-OPLS-2005>
238.093338012695

> <r_mmod_Improper_Torsional_Energy-OPLS-2005>
6.05612754821777

> <r_mmod_Van_der_Waal_Energy-OPLS-2005>
141.43115234375

> <r_mmod_Electrostatic_Energy-OPLS-2005>
-334.138366699219

> <r_mmod_Solvation_Energy-OPLS-2005>
-214.271331787109

> <b_mmod_Minimization_Converged-OPLS-2005>
0

> <r_mmod_RMS_Derivative-OPLS-2005>
0.531730115413666

$$$$
80
                    3D
 Structure written by MMmdl.
151159  0  0  1  0            999 V2000
  -30.6240  -14.7128   20.4559 C   0  0  0  0  0  0
  -30.4260  -12.4287   19.4809 C   0  0  0  0  0  0
  -29.5114  -12.5211   18.2394 C   0  0  0  0  0  0
  -28.0342  -12.3558   18.6424 C   0  0  0  0  0  0
  -27.6473  -13.2367   19.8603 C   0  0  2  0  0  0
  -28.6895  -13.1460   20.9987 C   0  0  0  0  0  0
  -25.2522  -13.8215   20.5686 C   0  0  0  0  0  0
  -24.1813  -13.0453   20.9196 C   0  0  0  0  0  0
  -24.6407  -11.6933   20.8734 C   0  0  0  0  0  0
  -23.9079  -10.4307   21.0389 C   0  0  0  0  0  0
  -24.3630   -9.4223   21.9169 C   0  0  0  0  0  0
  -23.6304   -8.2260   22.0746 C   0  0  0  0  0  0
  -22.4283   -8.0295   21.3542 C   0  0  0  0  0  0
  -21.9919   -9.0266   20.4639 C   0  0  0  0  0  0
  -22.7248  -10.2144   20.3044 C   0  0  0  0  0  0
  -21.6862   -6.0743   22.5271 C   0  0  0  0  0  0
  -21.4023   -6.5641   23.8207 C   0  0  0  0  0  0
  -21.3662   -5.6790   24.9168 C   0  0  0  0  0  0
  -21.6044   -4.3052   24.7212 C   0  0  0  0  0  0
  -21.8822   -3.8147   23.4331 C   0  0  0  0  0  0
  -21.9198   -4.6970   22.3394 C   0  0  0  0  0  0
  -22.7830  -13.5230   21.1851 C   0  0  0  0  0  0
  -22.1659   -4.2157   21.0969 F   0  0  0  0  0  0
  -21.5631   -3.4532   25.7720 F   0  0  0  0  0  0
  -30.0014  -13.4846   20.4312 N   0  0  0  0  0  0
  -26.2963  -12.9431   20.3308 N   0  0  0  0  0  0
  -25.9343  -11.6566   20.5756 N   0  0  0  0  0  0
  -22.0480  -12.8229   22.0416 N   0  0  0  0  0  0
  -25.4209  -15.1945   20.4101 N   0  0  0  0  0  0
  -31.7921  -14.8162   20.0689 O   0  0  0  0  0  0
  -21.6649   -6.8888   21.4236 O   0  0  0  0  0  0
  -22.3506  -14.5529   20.6690 O   0  0  0  0  0  0
  -24.6307  -31.8560   23.2001 C   0  0  0  0  0  0
  -25.9132  -32.4765   23.8337 C   0  0  1  0  0  0
  -27.2211  -27.2639   20.1238 C   0  0  0  0  0  0
  -25.5936  -33.8566   24.2266 N   0  0  0  0  0  0
  -23.4275  -30.4802   21.5432 C   0  0  2  0  0  0
  -24.8757  -28.9316   20.1076 C   0  0  0  0  0  0
  -22.7498  -29.4610   22.4907 C   0  0  0  0  0  0
  -18.0299  -28.1380   22.8484 C   0  0  0  0  0  0
  -24.1497  -36.7288   23.2634 C   0  0  0  0  0  0
  -25.9738  -30.7680   21.3829 C   0  0  0  0  0  0
  -26.0457  -29.3913   20.7242 C   0  0  0  0  0  0
  -27.2173  -28.5674   20.7279 C   0  0  0  0  0  0
  -26.0333  -26.8880   19.4534 C   0  0  0  0  0  0
  -24.8752  -27.6874   19.4616 C   0  0  0  0  0  0
  -23.6461  -29.8179   20.1579 C   0  0  0  0  0  0
  -25.4120  -36.3083   24.0330 C   0  0  1  0  0  0
  -20.5902  -28.3701   23.1266 C   0  0  2  0  0  0
  -20.6789  -26.9414   22.5410 C   0  0  0  0  0  0
  -19.5767  -26.6374   21.5215 C   0  0  0  0  0  0
  -18.1945  -26.7924   22.1620 C   0  0  0  0  0  0
  -19.1547  -28.8855   23.2876 C   0  0  0  0  0  0
  -18.9465  -30.1456   23.8894 C   0  0  0  0  0  0
  -17.6462  -30.6581   24.0562 C   0  0  0  0  0  0
  -25.9057  -34.9450   23.5103 C   0  0  0  0  0  0
  -16.5357  -29.9076   23.6325 C   0  0  0  0  0  0
  -16.7284  -28.6493   23.0350 C   0  0  0  0  0  0
  -26.4496  -31.6580   25.0718 C   0  0  0  0  0  0
  -25.3714  -31.3721   26.1433 C   0  0  0  0  0  0
  -27.0337  -30.2998   24.6193 C   0  0  0  0  0  0
  -27.6054  -32.4312   25.7488 C   0  0  0  0  0  0
  -27.5600  -37.1790   24.8451 C   0  0  0  0  0  0
  -21.4206  -29.3050   22.3650 N   0  0  0  0  0  0
  -26.4296  -37.3784   23.9420 N   0  0  0  0  0  0
  -24.6963  -31.0530   22.0981 N   0  0  0  0  0  0
  -23.4196  -28.8150   23.3008 O   0  0  0  0  0  0
  -28.3135  -26.3643   20.2130 O   0  0  0  0  0  0
  -26.5617  -34.8923   22.4665 O   0  0  0  0  0  0
  -23.5459  -32.1386   23.7296 O   0  0  0  0  0  0
  -29.9215  -18.4009   17.9838 C   0  0  0  0  0  0
  -30.0436  -17.2015   18.7101 C   0  0  0  0  0  0
  -29.6505  -19.6289   18.6192 C   0  0  0  0  0  0
  -29.6150  -18.4578   20.7475 C   0  0  0  0  0  0
  -29.8832  -17.1718   20.1126 C   0  0  0  0  0  0
  -29.5061  -19.7228   20.0242 C   0  0  0  0  0  0
  -28.9583  -23.7015   20.5590 C   0  0  0  0  0  0
  -28.1390  -24.9094   19.8603 C   0  0  0  0  0  0
  -28.9051  -22.2244   19.8922 C   0  0  0  0  0  0
  -29.8887  -15.8432   20.7781 N   0  0  0  0  0  0
  -29.2917  -20.9914   20.6527 O   0  0  0  0  0  0
  -31.4711  -12.5289   19.1850 H   0  0  0  0  0  0
  -30.3434  -11.4441   19.9445 H   0  0  0  0  0  0
  -29.7878  -11.7633   17.5056 H   0  0  0  0  0  0
  -29.6521  -13.4855   17.7487 H   0  0  0  0  0  0
  -27.8736  -11.3035   18.8783 H   0  0  0  0  0  0
  -27.3839  -12.5778   17.7944 H   0  0  0  0  0  0
  -27.6497  -14.2659   19.5014 H   0  0  0  0  0  0
  -28.7085  -12.1426   21.4259 H   0  0  0  0  0  0
  -28.4261  -13.8197   21.8158 H   0  0  0  0  0  0
  -25.2776   -9.5703   22.4741 H   0  0  0  0  0  0
  -24.0011   -7.4656   22.7465 H   0  0  0  0  0  0
  -21.0850   -8.8788   19.8956 H   0  0  0  0  0  0
  -22.3695  -10.9685   19.6157 H   0  0  0  0  0  0
  -21.2016   -7.6148   23.9717 H   0  0  0  0  0  0
  -21.1482   -6.0514   25.9073 H   0  0  0  0  0  0
  -22.0598   -2.7610   23.2826 H   0  0  0  0  0  0
  -22.4088  -11.9897   22.4822 H   0  0  0  0  0  0
  -21.1095  -13.1252   22.2608 H   0  0  0  0  0  0
  -24.6539  -15.8493   20.5182 H   0  0  0  0  0  0
  -26.2720  -15.6335   20.0812 H   0  0  0  0  0  0
  -26.7194  -32.5423   23.1073 H   0  0  0  0  0  0
  -25.0108  -33.9697   25.0431 H   0  0  0  0  0  0
  -22.7246  -31.3034   21.3992 H   0  0  0  0  0  0
  -23.3787  -35.9590   23.3251 H   0  0  0  0  0  0
  -24.3611  -36.8955   22.2062 H   0  0  0  0  0  0
  -23.7209  -37.6460   23.6678 H   0  0  0  0  0  0
  -26.1139  -31.5300   20.6151 H   0  0  0  0  0  0
  -26.8505  -30.8151   22.0170 H   0  0  0  0  0  0
  -28.1074  -28.9110   21.2363 H   0  0  0  0  0  0
  -25.9612  -25.9548   18.9169 H   0  0  0  0  0  0
  -23.9851  -27.3344   18.9594 H   0  0  0  0  0  0
  -23.7705  -30.5966   19.4044 H   0  0  0  0  0  0
  -22.7642  -29.2517   19.8525 H   0  0  0  0  0  0
  -25.1302  -36.1934   25.0823 H   0  0  0  0  0  0
  -21.0005  -28.3286   24.1384 H   0  0  0  0  0  0
  -20.5701  -26.2309   23.3617 H   0  0  0  0  0  0
  -21.6657  -26.7444   22.1198 H   0  0  0  0  0  0
  -19.6930  -25.6282   21.1255 H   0  0  0  0  0  0
  -19.6711  -27.3176   20.6741 H   0  0  0  0  0  0
  -17.4222  -26.6685   21.4013 H   0  0  0  0  0  0
  -18.0335  -26.0059   22.9007 H   0  0  0  0  0  0
  -19.7940  -30.7272   24.2264 H   0  0  0  0  0  0
  -17.5014  -31.6263   24.5158 H   0  0  0  0  0  0
  -15.5354  -30.2972   23.7645 H   0  0  0  0  0  0
  -15.8690  -28.0806   22.7061 H   0  0  0  0  0  0
  -24.5890  -30.7073   25.7749 H   0  0  0  0  0  0
  -24.8896  -32.2885   26.4853 H   0  0  0  0  0  0
  -25.8022  -30.8890   27.0213 H   0  0  0  0  0  0
  -26.2909  -29.6744   24.1224 H   0  0  0  0  0  0
  -27.4035  -29.7261   25.4703 H   0  0  0  0  0  0
  -27.8786  -30.4282   23.9422 H   0  0  0  0  0  0
  -27.2666  -33.3615   26.2063 H   0  0  0  0  0  0
  -28.3860  -32.6868   25.0307 H   0  0  0  0  0  0
  -28.0720  -31.8431   26.5404 H   0  0  0  0  0  0
  -28.2567  -38.0141   24.7588 H   0  0  0  0  0  0
  -28.1152  -36.2679   24.6168 H   0  0  0  0  0  0
  -27.2330  -37.1304   25.8852 H   0  0  0  0  0  0
  -20.9380  -29.8783   21.6870 H   0  0  0  0  0  0
  -26.0183  -38.2854   24.1457 H   0  0  0  0  0  0
  -30.0301  -18.3759   16.9078 H   0  0  0  0  0  0
  -30.2300  -16.2897   18.1602 H   0  0  0  0  0  0
  -29.5703  -20.4951   17.9815 H   0  0  0  0  0  0
  -29.4868  -18.4791   21.8197 H   0  0  0  0  0  0
  -28.6090  -23.6198   21.5884 H   0  0  0  0  0  0
  -30.0060  -23.9934   20.6347 H   0  0  0  0  0  0
  -27.1028  -24.6222   20.0292 H   0  0  0  0  0  0
  -28.2986  -24.8394   18.7838 H   0  0  0  0  0  0
  -29.5254  -22.3041   19.0017 H   0  0  0  0  0  0
  -27.8886  -22.0526   19.5364 H   0  0  0  0  0  0
  -29.0753  -15.6548   21.3447 H   0  0  0  0  0  0
  1 25  1  0  0  0
  1 30  2  0  0  0
  1 80  1  0  0  0
  2  3  1  0  0  0
  2 25  1  0  0  0
  2 82  1  0  0  0
  2 83  1  0  0  0
  3  4  1  0  0  0
  3 84  1  0  0  0
  3 85  1  0  0  0
  4  5  1  0  0  0
  4 86  1  0  0  0
  4 87  1  0  0  0
  5  6  1  0  0  0
  5 26  1  0  0  0
  5 88  1  0  0  0
  6 25  1  0  0  0
  6 89  1  0  0  0
  6 90  1  0  0  0
  7  8  2  0  0  0
  7 26  1  0  0  0
  7 29  1  0  0  0
  8  9  1  0  0  0
  8 22  1  0  0  0
  9 10  1  0  0  0
  9 27  2  0  0  0
 10 11  2  0  0  0
 10 15  1  0  0  0
 11 12  1  0  0  0
 11 91  1  0  0  0
 12 13  2  0  0  0
 12 92  1  0  0  0
 13 14  1  0  0  0
 13 31  1  0  0  0
 14 15  2  0  0  0
 14 93  1  0  0  0
 15 94  1  0  0  0
 16 17  2  0  0  0
 16 21  1  0  0  0
 16 31  1  0  0  0
 17 18  1  0  0  0
 17 95  1  0  0  0
 18 19  2  0  0  0
 18 96  1  0  0  0
 19 20  1  0  0  0
 19 24  1  0  0  0
 20 21  2  0  0  0
 20 97  1  0  0  0
 21 23  1  0  0  0
 22 28  1  0  0  0
 22 32  2  0  0  0
 26 27  1  0  0  0
 28 98  1  0  0  0
 28 99  1  0  0  0
 29100  1  0  0  0
 29101  1  0  0  0
 33 34  1  0  0  0
 33 66  1  0  0  0
 33 70  2  0  0  0
 34 36  1  0  0  0
 34 59  1  0  0  0
 34102  1  0  0  0
 35 44  2  0  0  0
 35 45  1  0  0  0
 35 68  1  0  0  0
 36 56  1  0  0  0
 36103  1  0  0  0
 37 39  1  0  0  0
 37 47  1  0  0  0
 37 66  1  0  0  0
 37104  1  0  0  0
 38 43  2  0  0  0
 38 46  1  0  0  0
 38 47  1  0  0  0
 39 64  1  0  0  0
 39 67  2  0  0  0
 40 52  1  0  0  0
 40 53  2  0  0  0
 40 58  1  0  0  0
 41105  1  0  0  0
 41106  1  0  0  0
 41107  1  0  0  0
 41 48  1  0  0  0
 42 43  1  0  0  0
 42 66  1  0  0  0
 42108  1  0  0  0
 42109  1  0  0  0
 43 44  1  0  0  0
 44110  1  0  0  0
 45 46  2  0  0  0
 45111  1  0  0  0
 46112  1  0  0  0
 47113  1  0  0  0
 47114  1  0  0  0
 48 56  1  0  0  0
 48 65  1  0  0  0
 48115  1  0  0  0
 49 50  1  0  0  0
 49 53  1  0  0  0
 49 64  1  0  0  0
 49116  1  0  0  0
 50 51  1  0  0  0
 50117  1  0  0  0
 50118  1  0  0  0
 51 52  1  0  0  0
 51119  1  0  0  0
 51120  1  0  0  0
 52121  1  0  0  0
 52122  1  0  0  0
 53 54  1  0  0  0
 54 55  2  0  0  0
 54123  1  0  0  0
 55 57  1  0  0  0
 55124  1  0  0  0
 56 69  2  0  0  0
 57 58  2  0  0  0
 57125  1  0  0  0
 58126  1  0  0  0
 59 60  1  0  0  0
 59 61  1  0  0  0
 59 62  1  0  0  0
 60127  1  0  0  0
 60128  1  0  0  0
 60129  1  0  0  0
 61130  1  0  0  0
 61131  1  0  0  0
 61132  1  0  0  0
 62133  1  0  0  0
 62134  1  0  0  0
 62135  1  0  0  0
 63 65  1  0  0  0
 63136  1  0  0  0
 63137  1  0  0  0
 63138  1  0  0  0
 64139  1  0  0  0
 65140  1  0  0  0
 68 78  1  0  0  0
 71 72  2  0  0  0
 71 73  1  0  0  0
 71141  1  0  0  0
 72 75  1  0  0  0
 72142  1  0  0  0
 73 76  2  0  0  0
 73143  1  0  0  0
 74 75  2  0  0  0
 74 76  1  0  0  0
 74144  1  0  0  0
 75 80  1  0  0  0
 76 81  1  0  0  0
 77 78  1  0  0  0
 77 79  1  0  0  0
 77145  1  0  0  0
 77146  1  0  0  0
 78147  1  0  0  0
 78148  1  0  0  0
 79 81  1  0  0  0
 79149  1  0  0  0
 79150  1  0  0  0
 80151  1  0  0  0
M  ISO  4   1 100  68 101  78 101  80 100
M  END
> <chiral flag>
0

> <version>
0

> <s_m_source_file>
/data/baiqing/PycharmProjects/Reinvent-master-3.2/result/LINK_invent/BTK/process_docking_weight1_custom_product_contain_oxygen_bond_distance_aromatic_linkinvent_7_9_3/rearranged_h_0001.sdf

> <i_m_source_file_index>
81

> <r_mmod_Potential_Energy-OPLS-2005>
185.519424438477

> <r_mmod_Stretch_Energy-OPLS-2005>
124.80167388916

> <r_mmod_Bend_Energy-OPLS-2005>
166.076385498047

> <r_mmod_Torsional_Energy-OPLS-2005>
237.988235473633

> <r_mmod_Improper_Torsional_Energy-OPLS-2005>
4.65315580368042

> <r_mmod_Van_der_Waal_Energy-OPLS-2005>
146.747375488281

> <r_mmod_Electrostatic_Energy-OPLS-2005>
-355.506103515625

> <r_mmod_Solvation_Energy-OPLS-2005>
-217.155700683594

> <b_mmod_Minimization_Converged-OPLS-2005>
0

> <r_mmod_RMS_Derivative-OPLS-2005>
1.40038752555847

$$$$
81
                    3D
 Structure written by MMmdl.
167175  0  0  1  0            999 V2000
  -30.7128  -14.4186   20.5739 C   0  0  0  0  0  0
  -30.4131  -12.2741   19.4083 C   0  0  0  0  0  0
  -29.4923  -12.5193   18.1946 C   0  0  0  0  0  0
  -28.0111  -12.3846   18.6033 C   0  0  0  0  0  0
  -27.6624  -13.2067   19.8730 C   0  0  2  0  0  0
  -28.7020  -12.9594   20.9936 C   0  0  0  0  0  0
  -25.2567  -13.8155   20.5640 C   0  0  0  0  0  0
  -24.1822  -13.0427   20.9148 C   0  0  0  0  0  0
  -24.6389  -11.6901   20.8697 C   0  0  0  0  0  0
  -23.9053  -10.4296   21.0387 C   0  0  0  0  0  0
  -24.3612   -9.4225   21.9185 C   0  0  0  0  0  0
  -23.6297   -8.2259   22.0765 C   0  0  0  0  0  0
  -22.4269   -8.0286   21.3562 C   0  0  0  0  0  0
  -21.9897   -9.0253   20.4669 C   0  0  0  0  0  0
  -22.7222  -10.2134   20.3060 C   0  0  0  0  0  0
  -21.6851   -6.0741   22.5291 C   0  0  0  0  0  0
  -21.4026   -6.5649   23.8225 C   0  0  0  0  0  0
  -21.3648   -5.6798   24.9183 C   0  0  0  0  0  0
  -21.6025   -4.3063   24.7237 C   0  0  0  0  0  0
  -21.8809   -3.8157   23.4366 C   0  0  0  0  0  0
  -21.9193   -4.6965   22.3421 C   0  0  0  0  0  0
  -22.7844  -13.5236   21.1812 C   0  0  0  0  0  0
  -22.1651   -4.2159   21.0987 F   0  0  0  0  0  0
  -21.5632   -3.4544   25.7763 F   0  0  0  0  0  0
  -30.0396  -13.2461   20.4471 N   0  0  0  0  0  0
  -26.3014  -12.9335   20.3322 N   0  0  0  0  0  0
  -25.9310  -11.6489   20.5691 N   0  0  0  0  0  0
  -22.0450  -12.8275   22.0371 N   0  0  0  0  0  0
  -25.4247  -15.1880   20.4062 N   0  0  0  0  0  0
  -31.8279  -14.6184   20.0883 O   0  0  0  0  0  0
  -21.6650   -6.8874   21.4251 O   0  0  0  0  0  0
  -22.3522  -14.5547   20.6650 O   0  0  0  0  0  0
  -24.6125  -31.8719   23.2112 C   0  0  0  0  0  0
  -25.9028  -32.4850   23.8415 C   0  0  1  0  0  0
  -27.2444  -27.4762   20.0679 C   0  0  0  0  0  0
  -25.5880  -33.8636   24.2355 N   0  0  0  0  0  0
  -23.3986  -30.4961   21.5503 C   0  0  2  0  0  0
  -24.8433  -28.9632   20.1181 C   0  0  0  0  0  0
  -22.7393  -29.4687   22.4978 C   0  0  0  0  0  0
  -18.0278  -28.1380   22.8494 C   0  0  0  0  0  0
  -24.1486  -36.7339   23.2631 C   0  0  0  0  0  0
  -25.9228  -30.8517   21.3532 C   0  0  0  0  0  0
  -26.0021  -29.4843   20.7075 C   0  0  0  0  0  0
  -27.2037  -28.7455   20.6844 C   0  0  0  0  0  0
  -26.0584  -26.9500   19.5068 C   0  0  0  0  0  0
  -24.8637  -27.6904   19.5216 C   0  0  0  0  0  0
  -23.6064  -29.8289   20.1645 C   0  0  0  0  0  0
  -25.4099  -36.3132   24.0345 C   0  0  1  0  0  0
  -20.5864  -28.3669   23.1323 C   0  0  2  0  0  0
  -20.6760  -26.9403   22.5433 C   0  0  0  0  0  0
  -19.5749  -26.6396   21.5215 C   0  0  0  0  0  0
  -18.1919  -26.7937   22.1614 C   0  0  0  0  0  0
  -19.1521  -28.8837   23.2916 C   0  0  0  0  0  0
  -18.9452  -30.1430   23.8941 C   0  0  0  0  0  0
  -17.6455  -30.6587   24.0578 C   0  0  0  0  0  0
  -25.9015  -34.9494   23.5151 C   0  0  0  0  0  0
  -16.5353  -29.9102   23.6309 C   0  0  0  0  0  0
  -16.7266  -28.6520   23.0332 C   0  0  0  0  0  0
  -26.4458  -31.6601   25.0714 C   0  0  0  0  0  0
  -25.3742  -31.3697   26.1475 C   0  0  0  0  0  0
  -27.0264  -30.3058   24.6033 C   0  0  0  0  0  0
  -27.6075  -32.4278   25.7458 C   0  0  0  0  0  0
  -27.5589  -37.1820   24.8452 C   0  0  0  0  0  0
  -21.4129  -29.3050   22.3727 N   0  0  0  0  0  0
  -26.4289  -37.3818   23.9417 N   0  0  0  0  0  0
  -24.6634  -31.0862   22.0991 N   0  0  0  0  0  0
  -23.4191  -28.8212   23.2997 O   0  0  0  0  0  0
  -28.4355  -26.7855   20.0485 O   0  0  0  0  0  0
  -26.5584  -34.8936   22.4714 O   0  0  0  0  0  0
  -23.5323  -32.1432   23.7531 O   0  0  0  0  0  0
  -31.2929  -23.1048   20.4196 C   0  0  0  0  0  0
  -31.4445  -21.8325   20.9997 C   0  0  0  0  0  0
  -30.7345  -22.0635   18.2910 C   0  0  0  0  0  0
  -30.9437  -23.2276   19.0588 C   0  0  0  0  0  0
  -30.8623  -20.7804   18.8695 C   0  0  0  0  0  0
  -31.2401  -20.6662   20.2306 C   0  0  0  0  0  0
  -28.8993  -26.1497   18.9495 C   0  0  0  0  0  0
  -31.7127  -19.2508   17.0415 C   0  0  0  0  0  0
  -29.2053  -19.6020   17.3211 C   0  0  0  0  0  0
  -30.8019  -24.6018   18.4209 C   0  0  0  0  0  0
  -30.6052  -17.6164   22.1546 C   0  0  0  0  0  0
  -30.2498  -16.8466   20.8714 C   0  0  0  0  0  0
  -30.6505  -19.1393   21.9326 C   0  0  0  0  0  0
  -30.5734  -19.5382   18.0275 C   0  0  0  0  0  0
  -29.9940  -15.4209   21.0988 N   0  0  0  0  0  0
  -30.0804  -25.5270   19.2878 N   0  0  0  0  0  0
  -28.3605  -26.1231   17.8399 O   0  0  0  0  0  0
  -31.4390  -19.4260   20.7831 O   0  0  0  0  0  0
  -31.4626  -12.3517   19.1188 H   0  0  0  0  0  0
  -30.2850  -11.2595   19.7861 H   0  0  0  0  0  0
  -29.7314  -11.8181   17.3939 H   0  0  0  0  0  0
  -29.6759  -13.5152   17.7865 H   0  0  0  0  0  0
  -27.8079  -11.3282   18.7764 H   0  0  0  0  0  0
  -27.3655  -12.6840   17.7738 H   0  0  0  0  0  0
  -27.7145  -14.2605   19.5938 H   0  0  0  0  0  0
  -28.6615  -11.9221   21.3307 H   0  0  0  0  0  0
  -28.4727  -13.5556   21.8760 H   0  0  0  0  0  0
  -25.2759   -9.5726   22.4731 H   0  0  0  0  0  0
  -24.0025   -7.4653   22.7478 H   0  0  0  0  0  0
  -21.0837   -8.8776   19.8954 H   0  0  0  0  0  0
  -22.3698  -10.9667   19.6164 H   0  0  0  0  0  0
  -21.2030   -7.6160   23.9737 H   0  0  0  0  0  0
  -21.1465   -6.0528   25.9085 H   0  0  0  0  0  0
  -22.0599   -2.7621   23.2863 H   0  0  0  0  0  0
  -22.4035  -11.9987   22.4869 H   0  0  0  0  0  0
  -21.1044  -13.1306   22.2483 H   0  0  0  0  0  0
  -24.6526  -15.8376   20.5062 H   0  0  0  0  0  0
  -26.2808  -15.6354   20.0999 H   0  0  0  0  0  0
  -26.7108  -32.5590   23.1199 H   0  0  0  0  0  0
  -25.0020  -33.9810   25.0495 H   0  0  0  0  0  0
  -22.6872  -31.3119   21.4111 H   0  0  0  0  0  0
  -23.3741  -35.9674   23.3291 H   0  0  0  0  0  0
  -24.3598  -36.8955   22.2048 H   0  0  0  0  0  0
  -23.7231  -37.6545   23.6641 H   0  0  0  0  0  0
  -26.0145  -31.6137   20.5772 H   0  0  0  0  0  0
  -26.8211  -30.9216   21.9569 H   0  0  0  0  0  0
  -28.1040  -29.1526   21.1243 H   0  0  0  0  0  0
  -26.0587  -25.9706   19.0511 H   0  0  0  0  0  0
  -23.9710  -27.2769   19.0739 H   0  0  0  0  0  0
  -23.7239  -30.6046   19.4070 H   0  0  0  0  0  0
  -22.7317  -29.2499   19.8625 H   0  0  0  0  0  0
  -25.1259  -36.2010   25.0835 H   0  0  0  0  0  0
  -20.9973  -28.3251   24.1436 H   0  0  0  0  0  0
  -20.5656  -26.2279   23.3624 H   0  0  0  0  0  0
  -21.6635  -26.7453   22.1239 H   0  0  0  0  0  0
  -19.6913  -25.6312   21.1233 H   0  0  0  0  0  0
  -19.6689  -27.3216   20.6747 H   0  0  0  0  0  0
  -17.4199  -26.6709   21.3998 H   0  0  0  0  0  0
  -18.0303  -26.0068   22.8998 H   0  0  0  0  0  0
  -19.7915  -30.7224   24.2360 H   0  0  0  0  0  0
  -17.5011  -31.6260   24.5187 H   0  0  0  0  0  0
  -15.5352  -30.3024   23.7594 H   0  0  0  0  0  0
  -15.8668  -28.0852   22.7024 H   0  0  0  0  0  0
  -24.5919  -30.7031   25.7829 H   0  0  0  0  0  0
  -24.8909  -32.2833   26.4941 H   0  0  0  0  0  0
  -25.8096  -30.8865   27.0228 H   0  0  0  0  0  0
  -26.2779  -29.6837   24.1114 H   0  0  0  0  0  0
  -27.4090  -29.7267   25.4446 H   0  0  0  0  0  0
  -27.8586  -30.4401   23.9124 H   0  0  0  0  0  0
  -27.2757  -33.3583   26.2083 H   0  0  0  0  0  0
  -28.3862  -32.6820   25.0252 H   0  0  0  0  0  0
  -28.0774  -31.8356   26.5327 H   0  0  0  0  0  0
  -28.2595  -38.0129   24.7518 H   0  0  0  0  0  0
  -28.1089  -36.2662   24.6224 H   0  0  0  0  0  0
  -27.2327  -37.1432   25.8861 H   0  0  0  0  0  0
  -20.9274  -29.8780   21.6958 H   0  0  0  0  0  0
  -26.0180  -38.2896   24.1423 H   0  0  0  0  0  0
  -31.4650  -23.9839   21.0249 H   0  0  0  0  0  0
  -31.7371  -21.7582   22.0363 H   0  0  0  0  0  0
  -30.4707  -22.1527   17.2464 H   0  0  0  0  0  0
  -32.6616  -19.1406   17.5680 H   0  0  0  0  0  0
  -31.8287  -20.0510   16.3106 H   0  0  0  0  0  0
  -31.5307  -18.3243   16.4965 H   0  0  0  0  0  0
  -28.3968  -19.7766   18.0335 H   0  0  0  0  0  0
  -28.9900  -18.6615   16.8135 H   0  0  0  0  0  0
  -29.1571  -20.3883   16.5684 H   0  0  0  0  0  0
  -30.3213  -24.5100   17.4443 H   0  0  0  0  0  0
  -31.8009  -25.0013   18.2360 H   0  0  0  0  0  0
  -31.5712  -17.2786   22.5340 H   0  0  0  0  0  0
  -29.8716  -17.4005   22.9324 H   0  0  0  0  0  0
  -31.0481  -16.9858   20.1416 H   0  0  0  0  0  0
  -29.3586  -17.2781   20.4148 H   0  0  0  0  0  0
  -31.0625  -19.6340   22.8140 H   0  0  0  0  0  0
  -29.6360  -19.5139   21.7900 H   0  0  0  0  0  0
  -30.5121  -18.6840   18.6960 H   0  0  0  0  0  0
  -29.0851  -15.1730   21.4610 H   0  0  0  0  0  0
  -30.3966  -25.6633   20.2370 H   0  0  0  0  0  0
  1 25  1  0  0  0
  1 30  2  0  0  0
  1 85  1  0  0  0
  2  3  1  0  0  0
  2 25  1  0  0  0
  2 89  1  0  0  0
  2 90  1  0  0  0
  3  4  1  0  0  0
  3 91  1  0  0  0
  3 92  1  0  0  0
  4  5  1  0  0  0
  4 93  1  0  0  0
  4 94  1  0  0  0
  5  6  1  0  0  0
  5 26  1  0  0  0
  5 95  1  0  0  0
  6 25  1  0  0  0
  6 96  1  0  0  0
  6 97  1  0  0  0
  7  8  2  0  0  0
  7 26  1  0  0  0
  7 29  1  0  0  0
  8  9  1  0  0  0
  8 22  1  0  0  0
  9 10  1  0  0  0
  9 27  2  0  0  0
 10 11  2  0  0  0
 10 15  1  0  0  0
 11 12  1  0  0  0
 11 98  1  0  0  0
 12 13  2  0  0  0
 12 99  1  0  0  0
 13 14  1  0  0  0
 13 31  1  0  0  0
 14 15  2  0  0  0
 14100  1  0  0  0
 15101  1  0  0  0
 16 17  2  0  0  0
 16 21  1  0  0  0
 16 31  1  0  0  0
 17 18  1  0  0  0
 17102  1  0  0  0
 18 19  2  0  0  0
 18103  1  0  0  0
 19 20  1  0  0  0
 19 24  1  0  0  0
 20 21  2  0  0  0
 20104  1  0  0  0
 21 23  1  0  0  0
 22 28  1  0  0  0
 22 32  2  0  0  0
 26 27  1  0  0  0
 28105  1  0  0  0
 28106  1  0  0  0
 29107  1  0  0  0
 29108  1  0  0  0
 33 34  1  0  0  0
 33 66  1  0  0  0
 33 70  2  0  0  0
 34 36  1  0  0  0
 34 59  1  0  0  0
 34109  1  0  0  0
 35 44  2  0  0  0
 35 45  1  0  0  0
 35 68  1  0  0  0
 36 56  1  0  0  0
 36110  1  0  0  0
 37 39  1  0  0  0
 37 47  1  0  0  0
 37 66  1  0  0  0
 37111  1  0  0  0
 38 43  2  0  0  0
 38 46  1  0  0  0
 38 47  1  0  0  0
 39 64  1  0  0  0
 39 67  2  0  0  0
 40 52  1  0  0  0
 40 53  2  0  0  0
 40 58  1  0  0  0
 41112  1  0  0  0
 41113  1  0  0  0
 41114  1  0  0  0
 41 48  1  0  0  0
 42 43  1  0  0  0
 42 66  1  0  0  0
 42115  1  0  0  0
 42116  1  0  0  0
 43 44  1  0  0  0
 44117  1  0  0  0
 45 46  2  0  0  0
 45118  1  0  0  0
 46119  1  0  0  0
 47120  1  0  0  0
 47121  1  0  0  0
 48 56  1  0  0  0
 48 65  1  0  0  0
 48122  1  0  0  0
 49 50  1  0  0  0
 49 53  1  0  0  0
 49 64  1  0  0  0
 49123  1  0  0  0
 50 51  1  0  0  0
 50124  1  0  0  0
 50125  1  0  0  0
 51 52  1  0  0  0
 51126  1  0  0  0
 51127  1  0  0  0
 52128  1  0  0  0
 52129  1  0  0  0
 53 54  1  0  0  0
 54 55  2  0  0  0
 54130  1  0  0  0
 55 57  1  0  0  0
 55131  1  0  0  0
 56 69  2  0  0  0
 57 58  2  0  0  0
 57132  1  0  0  0
 58133  1  0  0  0
 59 60  1  0  0  0
 59 61  1  0  0  0
 59 62  1  0  0  0
 60134  1  0  0  0
 60135  1  0  0  0
 60136  1  0  0  0
 61137  1  0  0  0
 61138  1  0  0  0
 61139  1  0  0  0
 62140  1  0  0  0
 62141  1  0  0  0
 62142  1  0  0  0
 63 65  1  0  0  0
 63143  1  0  0  0
 63144  1  0  0  0
 63145  1  0  0  0
 64146  1  0  0  0
 65147  1  0  0  0
 68 77  1  0  0  0
 71 72  2  0  0  0
 71 74  1  0  0  0
 71148  1  0  0  0
 72 76  1  0  0  0
 72149  1  0  0  0
 73 74  2  0  0  0
 73 75  1  0  0  0
 73150  1  0  0  0
 74 80  1  0  0  0
 75 76  2  0  0  0
 75 84  1  0  0  0
 76 88  1  0  0  0
 77 86  1  0  0  0
 77 87  2  0  0  0
 78151  1  0  0  0
 78152  1  0  0  0
 78153  1  0  0  0
 78 84  1  0  0  0
 79 84  1  0  0  0
 79154  1  0  0  0
 79155  1  0  0  0
 79156  1  0  0  0
 80 86  1  0  0  0
 80157  1  0  0  0
 80158  1  0  0  0
 81 82  1  0  0  0
 81 83  1  0  0  0
 81159  1  0  0  0
 81160  1  0  0  0
 82 85  1  0  0  0
 82161  1  0  0  0
 82162  1  0  0  0
 83 88  1  0  0  0
 83163  1  0  0  0
 83164  1  0  0  0
 84165  1  0  0  0
 85166  1  0  0  0
 86167  1  0  0  0
M  ISO  4   1 100  68 101  77 101  85 100
M  END
> <chiral flag>
0

> <version>
0

> <s_m_source_file>
/data/baiqing/PycharmProjects/Reinvent-master-3.2/result/LINK_invent/BTK/process_docking_weight1_custom_product_contain_oxygen_bond_distance_aromatic_linkinvent_7_9_3/rearranged_h_0001.sdf

> <i_m_source_file_index>
82

> <r_mmod_Potential_Energy-OPLS-2005>
-152.631912231445

> <r_mmod_Stretch_Energy-OPLS-2005>
33.2133178710938

> <r_mmod_Bend_Energy-OPLS-2005>
92.5987091064453

> <r_mmod_Torsional_Energy-OPLS-2005>
222.583999633789

> <r_mmod_Improper_Torsional_Energy-OPLS-2005>
5.19998455047607

> <r_mmod_Van_der_Waal_Energy-OPLS-2005>
159.572616577148

> <r_mmod_Electrostatic_Energy-OPLS-2005>
-444.539978027344

> <r_mmod_Solvation_Energy-OPLS-2005>
-230.331878662109

> <b_mmod_Minimization_Converged-OPLS-2005>
0

> <r_mmod_RMS_Derivative-OPLS-2005>
3.86601996421814

$$$$
82
                    3D
 Structure written by MMmdl.
156164  0  0  1  0            999 V2000
  -30.6150  -14.7232   20.4673 C   0  0  0  0  0  0
  -30.4331  -12.4433   19.4611 C   0  0  0  0  0  0
  -29.5065  -12.5026   18.2272 C   0  0  0  0  0  0
  -28.0323  -12.3296   18.6439 C   0  0  0  0  0  0
  -27.6412  -13.2272   19.8480 C   0  0  2  0  0  0
  -28.6884  -13.1528   20.9799 C   0  0  0  0  0  0
  -25.2507  -13.8184   20.5689 C   0  0  0  0  0  0
  -24.1799  -13.0433   20.9212 C   0  0  0  0  0  0
  -24.6390  -11.6911   20.8750 C   0  0  0  0  0  0
  -23.9066  -10.4290   21.0411 C   0  0  0  0  0  0
  -24.3620   -9.4202   21.9186 C   0  0  0  0  0  0
  -23.6293   -8.2236   22.0752 C   0  0  0  0  0  0
  -22.4275   -8.0278   21.3544 C   0  0  0  0  0  0
  -21.9909   -9.0252   20.4646 C   0  0  0  0  0  0
  -22.7239  -10.2132   20.3058 C   0  0  0  0  0  0
  -21.6849   -6.0734   22.5278 C   0  0  0  0  0  0
  -21.4016   -6.5638   23.8213 C   0  0  0  0  0  0
  -21.3661   -5.6789   24.9174 C   0  0  0  0  0  0
  -21.6043   -4.3053   24.7224 C   0  0  0  0  0  0
  -21.8818   -3.8145   23.4345 C   0  0  0  0  0  0
  -21.9192   -4.6962   22.3402 C   0  0  0  0  0  0
  -22.7820  -13.5218   21.1872 C   0  0  0  0  0  0
  -22.1660   -4.2149   21.0979 F   0  0  0  0  0  0
  -21.5630   -3.4536   25.7737 F   0  0  0  0  0  0
  -29.9881  -13.5018   20.3930 N   0  0  0  0  0  0
  -26.2934  -12.9385   20.3274 N   0  0  0  0  0  0
  -25.9317  -11.6531   20.5748 N   0  0  0  0  0  0
  -22.0467  -12.8209   22.0430 N   0  0  0  0  0  0
  -25.4169  -15.1911   20.4093 N   0  0  0  0  0  0
  -31.8135  -14.8161   20.1854 O   0  0  0  0  0  0
  -21.6636   -6.8877   21.4240 O   0  0  0  0  0  0
  -22.3504  -14.5526   20.6717 O   0  0  0  0  0  0
  -24.6296  -31.8565   23.1981 C   0  0  0  0  0  0
  -25.9123  -32.4763   23.8332 C   0  0  1  0  0  0
  -27.2226  -27.2786   20.1354 C   0  0  0  0  0  0
  -25.5923  -33.8567   24.2260 N   0  0  0  0  0  0
  -23.4261  -30.4776   21.5412 C   0  0  2  0  0  0
  -24.8736  -28.9199   20.1153 C   0  0  0  0  0  0
  -22.7496  -29.4608   22.4920 C   0  0  0  0  0  0
  -18.0292  -28.1385   22.8484 C   0  0  0  0  0  0
  -24.1487  -36.7286   23.2641 C   0  0  0  0  0  0
  -25.9695  -30.7756   21.3735 C   0  0  0  0  0  0
  -26.0441  -29.3972   20.7194 C   0  0  0  0  0  0
  -27.2250  -28.5908   20.7128 C   0  0  0  0  0  0
  -26.0317  -26.8583   19.5081 C   0  0  0  0  0  0
  -24.8710  -27.6578   19.4990 C   0  0  0  0  0  0
  -23.6442  -29.8067   20.1589 C   0  0  0  0  0  0
  -25.4114  -36.3077   24.0329 C   0  0  1  0  0  0
  -20.5894  -28.3696   23.1270 C   0  0  2  0  0  0
  -20.6777  -26.9415   22.5408 C   0  0  0  0  0  0
  -19.5752  -26.6384   21.5210 C   0  0  0  0  0  0
  -18.1934  -26.7927   22.1625 C   0  0  0  0  0  0
  -19.1545  -28.8858   23.2872 C   0  0  0  0  0  0
  -18.9466  -30.1457   23.8893 C   0  0  0  0  0  0
  -17.6465  -30.6587   24.0563 C   0  0  0  0  0  0
  -25.9054  -34.9446   23.5098 C   0  0  0  0  0  0
  -16.5357  -29.9085   23.6328 C   0  0  0  0  0  0
  -16.7279  -28.6502   23.0351 C   0  0  0  0  0  0
  -26.4494  -31.6587   25.0720 C   0  0  0  0  0  0
  -25.3719  -31.3733   26.1442 C   0  0  0  0  0  0
  -27.0343  -30.3009   24.6192 C   0  0  0  0  0  0
  -27.6052  -32.4327   25.7491 C   0  0  0  0  0  0
  -27.5578  -37.1799   24.8465 C   0  0  0  0  0  0
  -21.4204  -29.3046   22.3663 N   0  0  0  0  0  0
  -26.4289  -37.3775   23.9410 N   0  0  0  0  0  0
  -24.6941  -31.0544   22.0944 N   0  0  0  0  0  0
  -23.4201  -28.8150   23.3015 O   0  0  0  0  0  0
  -28.3301  -26.4095   20.1375 O   0  0  0  0  0  0
  -26.5631  -34.8919   22.4671 O   0  0  0  0  0  0
  -23.5447  -32.1376   23.7282 O   0  0  0  0  0  0
  -31.6873  -18.9812   21.6777 C   0  0  0  0  0  0
  -30.9028  -20.0414   21.1773 C   0  0  0  0  0  0
  -31.3346  -17.6329   21.4635 C   0  0  0  0  0  0
  -29.3587  -18.3965   20.2723 C   0  0  0  0  0  0
  -29.7132  -19.8015   20.4556 C   0  0  0  0  0  0
  -30.1674  -17.2841   20.7490 C   0  0  0  0  0  0
  -27.6255  -20.6616   19.1750 C   0  0  0  0  0  0
  -28.6988  -23.7176   19.8533 C   0  0  0  0  0  0
  -28.1688  -25.0128   20.6633 C   0  0  0  0  0  0
  -28.9765  -21.0622   19.7956 C   0  0  1  0  0  0
  -29.8171  -15.8521   20.5914 N   0  0  0  0  0  0
  -28.8154  -22.3653   20.5969 N   0  3  0  0  0  0
  -31.4730  -12.5712   19.1566 H   0  0  0  0  0  0
  -30.3782  -11.4651   19.9412 H   0  0  0  0  0  0
  -29.7847  -11.7316   17.5072 H   0  0  0  0  0  0
  -29.6334  -13.4583   17.7159 H   0  0  0  0  0  0
  -27.8871  -11.2807   18.9050 H   0  0  0  0  0  0
  -27.3734  -12.5251   17.7970 H   0  0  0  0  0  0
  -27.6362  -14.2488   19.4684 H   0  0  0  0  0  0
  -28.7210  -12.1529   21.4149 H   0  0  0  0  0  0
  -28.4296  -13.8329   21.7935 H   0  0  0  0  0  0
  -25.2766   -9.5677   22.4761 H   0  0  0  0  0  0
  -24.0004   -7.4624   22.7469 H   0  0  0  0  0  0
  -21.0840   -8.8772   19.8953 H   0  0  0  0  0  0
  -22.3697  -10.9672   19.6168 H   0  0  0  0  0  0
  -21.2009   -7.6146   23.9717 H   0  0  0  0  0  0
  -21.1485   -6.0519   25.9078 H   0  0  0  0  0  0
  -22.0597   -2.7608   23.2842 H   0  0  0  0  0  0
  -22.4086  -11.9876   22.4822 H   0  0  0  0  0  0
  -21.1085  -13.1233   22.2638 H   0  0  0  0  0  0
  -24.6427  -15.8377   20.5165 H   0  0  0  0  0  0
  -26.2541  -15.6348   20.0558 H   0  0  0  0  0  0
  -26.7193  -32.5420   23.1079 H   0  0  0  0  0  0
  -25.0064  -33.9709   25.0400 H   0  0  0  0  0  0
  -22.7216  -31.2988   21.3930 H   0  0  0  0  0  0
  -23.3753  -35.9614   23.3300 H   0  0  0  0  0  0
  -24.3577  -36.8912   22.2055 H   0  0  0  0  0  0
  -23.7233  -37.6484   23.6667 H   0  0  0  0  0  0
  -26.1038  -31.5349   20.6018 H   0  0  0  0  0  0
  -26.8487  -30.8277   22.0042 H   0  0  0  0  0  0
  -28.1263  -28.9560   21.1851 H   0  0  0  0  0  0
  -25.9913  -25.8915   19.0266 H   0  0  0  0  0  0
  -23.9742  -27.2871   19.0212 H   0  0  0  0  0  0
  -23.7696  -30.5805   19.4006 H   0  0  0  0  0  0
  -22.7626  -29.2394   19.8550 H   0  0  0  0  0  0
  -25.1293  -36.1929   25.0822 H   0  0  0  0  0  0
  -20.9987  -28.3275   24.1391 H   0  0  0  0  0  0
  -20.5669  -26.2311   23.3614 H   0  0  0  0  0  0
  -21.6647  -26.7435   22.1207 H   0  0  0  0  0  0
  -19.6914  -25.6293   21.1244 H   0  0  0  0  0  0
  -19.6685  -27.3191   20.6736 H   0  0  0  0  0  0
  -17.4201  -26.6671   21.4031 H   0  0  0  0  0  0
  -18.0338  -26.0072   22.9025 H   0  0  0  0  0  0
  -19.7943  -30.7273   24.2262 H   0  0  0  0  0  0
  -17.5021  -31.6265   24.5168 H   0  0  0  0  0  0
  -15.5357  -30.2987   23.7652 H   0  0  0  0  0  0
  -15.8679  -28.0820   22.7066 H   0  0  0  0  0  0
  -24.5893  -30.7084   25.7768 H   0  0  0  0  0  0
  -24.8910  -32.2901   26.4864 H   0  0  0  0  0  0
  -25.8037  -30.8912   27.0222 H   0  0  0  0  0  0
  -26.2924  -29.6755   24.1213 H   0  0  0  0  0  0
  -27.4031  -29.7274   25.4705 H   0  0  0  0  0  0
  -27.8796  -30.4294   23.9428 H   0  0  0  0  0  0
  -27.2667  -33.3638   26.2046 H   0  0  0  0  0  0
  -28.3871  -32.6868   25.0323 H   0  0  0  0  0  0
  -28.0707  -31.8465   26.5422 H   0  0  0  0  0  0
  -28.2595  -38.0096   24.7517 H   0  0  0  0  0  0
  -28.1077  -36.2629   24.6288 H   0  0  0  0  0  0
  -27.2300  -37.1442   25.8869 H   0  0  0  0  0  0
  -20.9390  -29.8772   21.6869 H   0  0  0  0  0  0
  -26.0171  -38.2851   24.1410 H   0  0  0  0  0  0
  -32.5914  -19.2065   22.2266 H   0  0  0  0  0  0
  -31.2496  -21.0533   21.3338 H   0  0  0  0  0  0
  -31.9768  -16.8649   21.8720 H   0  0  0  0  0  0
  -28.4641  -18.1559   19.7167 H   0  0  0  0  0  0
  -27.7547  -19.8872   18.4192 H   0  0  0  0  0  0
  -27.1419  -21.5002   18.6755 H   0  0  0  0  0  0
  -26.9367  -20.2826   19.9301 H   0  0  0  0  0  0
  -29.6862  -23.9461   19.4519 H   0  0  0  0  0  0
  -28.0543  -23.5902   18.9845 H   0  0  0  0  0  0
  -28.6892  -25.0228   21.6210 H   0  0  0  0  0  0
  -27.1255  -24.8394   20.9286 H   0  0  0  0  0  0
  -29.6317  -21.3310   18.9653 H   0  0  0  0  0  0
  -28.8293  -15.6527   20.5742 H   0  0  0  0  0  0
  -28.0100  -22.2427   21.1896 H   0  0  0  0  0  0
  -29.6079  -22.4360   21.2145 H   0  0  0  0  0  0
  1 25  1  0  0  0
  1 30  2  0  0  0
  1 81  1  0  0  0
  2  3  1  0  0  0
  2 25  1  0  0  0
  2 83  1  0  0  0
  2 84  1  0  0  0
  3  4  1  0  0  0
  3 85  1  0  0  0
  3 86  1  0  0  0
  4  5  1  0  0  0
  4 87  1  0  0  0
  4 88  1  0  0  0
  5  6  1  0  0  0
  5 26  1  0  0  0
  5 89  1  0  0  0
  6 25  1  0  0  0
  6 90  1  0  0  0
  6 91  1  0  0  0
  7  8  2  0  0  0
  7 26  1  0  0  0
  7 29  1  0  0  0
  8  9  1  0  0  0
  8 22  1  0  0  0
  9 10  1  0  0  0
  9 27  2  0  0  0
 10 11  2  0  0  0
 10 15  1  0  0  0
 11 12  1  0  0  0
 11 92  1  0  0  0
 12 13  2  0  0  0
 12 93  1  0  0  0
 13 14  1  0  0  0
 13 31  1  0  0  0
 14 15  2  0  0  0
 14 94  1  0  0  0
 15 95  1  0  0  0
 16 17  2  0  0  0
 16 21  1  0  0  0
 16 31  1  0  0  0
 17 18  1  0  0  0
 17 96  1  0  0  0
 18 19  2  0  0  0
 18 97  1  0  0  0
 19 20  1  0  0  0
 19 24  1  0  0  0
 20 21  2  0  0  0
 20 98  1  0  0  0
 21 23  1  0  0  0
 22 28  1  0  0  0
 22 32  2  0  0  0
 26 27  1  0  0  0
 28 99  1  0  0  0
 28100  1  0  0  0
 29101  1  0  0  0
 29102  1  0  0  0
 33 34  1  0  0  0
 33 66  1  0  0  0
 33 70  2  0  0  0
 34 36  1  0  0  0
 34 59  1  0  0  0
 34103  1  0  0  0
 35 44  2  0  0  0
 35 45  1  0  0  0
 35 68  1  0  0  0
 36 56  1  0  0  0
 36104  1  0  0  0
 37 39  1  0  0  0
 37 47  1  0  0  0
 37 66  1  0  0  0
 37105  1  0  0  0
 38 43  2  0  0  0
 38 46  1  0  0  0
 38 47  1  0  0  0
 39 64  1  0  0  0
 39 67  2  0  0  0
 40 52  1  0  0  0
 40 53  2  0  0  0
 40 58  1  0  0  0
 41106  1  0  0  0
 41107  1  0  0  0
 41108  1  0  0  0
 41 48  1  0  0  0
 42 43  1  0  0  0
 42 66  1  0  0  0
 42109  1  0  0  0
 42110  1  0  0  0
 43 44  1  0  0  0
 44111  1  0  0  0
 45 46  2  0  0  0
 45112  1  0  0  0
 46113  1  0  0  0
 47114  1  0  0  0
 47115  1  0  0  0
 48 56  1  0  0  0
 48 65  1  0  0  0
 48116  1  0  0  0
 49 50  1  0  0  0
 49 53  1  0  0  0
 49 64  1  0  0  0
 49117  1  0  0  0
 50 51  1  0  0  0
 50118  1  0  0  0
 50119  1  0  0  0
 51 52  1  0  0  0
 51120  1  0  0  0
 51121  1  0  0  0
 52122  1  0  0  0
 52123  1  0  0  0
 53 54  1  0  0  0
 54 55  2  0  0  0
 54124  1  0  0  0
 55 57  1  0  0  0
 55125  1  0  0  0
 56 69  2  0  0  0
 57 58  2  0  0  0
 57126  1  0  0  0
 58127  1  0  0  0
 59 60  1  0  0  0
 59 61  1  0  0  0
 59 62  1  0  0  0
 60128  1  0  0  0
 60129  1  0  0  0
 60130  1  0  0  0
 61131  1  0  0  0
 61132  1  0  0  0
 61133  1  0  0  0
 62134  1  0  0  0
 62135  1  0  0  0
 62136  1  0  0  0
 63 65  1  0  0  0
 63137  1  0  0  0
 63138  1  0  0  0
 63139  1  0  0  0
 64140  1  0  0  0
 65141  1  0  0  0
 68 79  1  0  0  0
 71 72  2  0  0  0
 71 73  1  0  0  0
 71142  1  0  0  0
 72 75  1  0  0  0
 72143  1  0  0  0
 73 76  2  0  0  0
 73144  1  0  0  0
 74 75  2  0  0  0
 74 76  1  0  0  0
 74145  1  0  0  0
 75 80  1  0  0  0
 76 81  1  0  0  0
 77146  1  0  0  0
 77147  1  0  0  0
 77148  1  0  0  0
 77 80  1  0  0  0
 78 79  1  0  0  0
 78 82  1  0  0  0
 78149  1  0  0  0
 78150  1  0  0  0
 79151  1  0  0  0
 79152  1  0  0  0
 80 82  1  0  0  0
 80153  1  0  0  0
 81154  1  0  0  0
 82155  1  0  0  0
 82156  1  0  0  0
M  CHG  1  82   1
M  ISO  4   1 100  68 101  79 101  81 100
M  END
> <chiral flag>
0

> <version>
0

> <s_m_source_file>
/data/baiqing/PycharmProjects/Reinvent-master-3.2/result/LINK_invent/BTK/process_docking_weight1_custom_product_contain_oxygen_bond_distance_aromatic_linkinvent_7_9_3/rearranged_h_0001.sdf

> <i_m_source_file_index>
83

> <r_mmod_Potential_Energy-OPLS-2005>
-23.7580966949463

> <r_mmod_Stretch_Energy-OPLS-2005>
116.570930480957

> <r_mmod_Bend_Energy-OPLS-2005>
151.639297485352

> <r_mmod_Torsional_Energy-OPLS-2005>
240.301498413086

> <r_mmod_Improper_Torsional_Energy-OPLS-2005>
6.89954137802124

> <r_mmod_Van_der_Waal_Energy-OPLS-2005>
136.168884277344

> <r_mmod_Electrostatic_Energy-OPLS-2005>
-286.303131103516

> <r_mmod_Solvation_Energy-OPLS-2005>
-463.792602539062

> <b_mmod_Minimization_Converged-OPLS-2005>
0

> <r_mmod_RMS_Derivative-OPLS-2005>
0.516516983509064

$$$$
83
                    3D
 Structure written by MMmdl.
147155  0  0  1  0            999 V2000
  -30.4512  -15.1949   20.3790 C   0  0  0  0  0  0
  -30.4396  -12.7567   19.5246 C   0  0  0  0  0  0
  -29.5347  -12.5670   18.2820 C   0  0  0  0  0  0
  -28.0769  -12.3077   18.7029 C   0  0  0  0  0  0
  -27.6154  -13.2698   19.8267 C   0  0  2  0  0  0
  -28.6496  -13.4072   20.9639 C   0  0  0  0  0  0
  -25.2399  -13.8241   20.5729 C   0  0  0  0  0  0
  -24.1746  -13.0436   20.9250 C   0  0  0  0  0  0
  -24.6394  -11.6932   20.8757 C   0  0  0  0  0  0
  -23.9087  -10.4293   21.0403 C   0  0  0  0  0  0
  -24.3633   -9.4207   21.9181 C   0  0  0  0  0  0
  -23.6303   -8.2244   22.0753 C   0  0  0  0  0  0
  -22.4284   -8.0281   21.3543 C   0  0  0  0  0  0
  -21.9924   -9.0256   20.4645 C   0  0  0  0  0  0
  -22.7258  -10.2133   20.3052 C   0  0  0  0  0  0
  -21.6858   -6.0736   22.5277 C   0  0  0  0  0  0
  -21.4018   -6.5638   23.8210 C   0  0  0  0  0  0
  -21.3662   -5.6791   24.9173 C   0  0  0  0  0  0
  -21.6045   -4.3054   24.7224 C   0  0  0  0  0  0
  -21.8819   -3.8146   23.4345 C   0  0  0  0  0  0
  -21.9193   -4.6963   22.3402 C   0  0  0  0  0  0
  -22.7764  -13.5190   21.1899 C   0  0  0  0  0  0
  -22.1662   -4.2148   21.0980 F   0  0  0  0  0  0
  -21.5629   -3.4538   25.7737 F   0  0  0  0  0  0
  -29.8921  -13.8931   20.3464 N   0  0  0  0  0  0
  -26.2825  -12.9508   20.3211 N   0  0  0  0  0  0
  -25.9329  -11.6618   20.5718 N   0  0  0  0  0  0
  -22.0420  -12.8175   22.0455 N   0  0  0  0  0  0
  -25.4028  -15.1976   20.4159 N   0  0  0  0  0  0
  -31.6664  -15.2194   20.1405 O   0  0  0  0  0  0
  -21.6645   -6.8880   21.4239 O   0  0  0  0  0  0
  -22.3444  -14.5492   20.6739 O   0  0  0  0  0  0
  -24.6571  -31.8274   23.1732 C   0  0  0  0  0  0
  -25.9276  -32.4605   23.8181 C   0  0  1  0  0  0
  -27.2186  -26.9670   20.1884 C   0  0  0  0  0  0
  -25.5961  -33.8419   24.2088 N   0  0  0  0  0  0
  -23.4692  -30.4382   21.5216 C   0  0  2  0  0  0
  -24.9209  -28.8260   20.1157 C   0  0  0  0  0  0
  -22.7633  -29.4454   22.4807 C   0  0  0  0  0  0
  -18.0314  -28.1402   22.8472 C   0  0  0  0  0  0
  -24.1490  -36.7213   23.2648 C   0  0  0  0  0  0
  -26.0335  -30.6446   21.3986 C   0  0  0  0  0  0
  -26.0992  -29.2355   20.7507 C   0  0  0  0  0  0
  -27.2402  -28.3239   20.7663 C   0  0  0  0  0  0
  -26.0171  -26.6994   19.4973 C   0  0  0  0  0  0
  -24.9014  -27.5767   19.4713 C   0  0  0  0  0  0
  -23.7060  -29.7504   20.1479 C   0  0  0  0  0  0
  -25.4129  -36.2978   24.0303 C   0  0  1  0  0  0
  -20.5934  -28.3735   23.1206 C   0  0  2  0  0  0
  -20.6788  -26.9422   22.5406 C   0  0  0  0  0  0
  -19.5764  -26.6374   21.5214 C   0  0  0  0  0  0
  -18.1946  -26.7937   22.1623 C   0  0  0  0  0  0
  -19.1575  -28.8889   23.2826 C   0  0  0  0  0  0
  -18.9487  -30.1484   23.8855 C   0  0  0  0  0  0
  -17.6482  -30.6594   24.0555 C   0  0  0  0  0  0
  -25.9092  -34.9360   23.5017 C   0  0  0  0  0  0
  -16.5372  -29.9082   23.6343 C   0  0  0  0  0  0
  -16.7298  -28.6502   23.0363 C   0  0  0  0  0  0
  -26.4547  -31.6543   25.0698 C   0  0  0  0  0  0
  -25.3685  -31.3787   26.1363 C   0  0  0  0  0  0
  -27.0442  -30.2915   24.6407 C   0  0  0  0  0  0
  -27.6041  -32.4352   25.7496 C   0  0  0  0  0  0
  -27.5568  -37.1763   24.8467 C   0  0  0  0  0  0
  -21.4309  -29.3033   22.3559 N   0  0  0  0  0  0
  -26.4278  -37.3709   23.9411 N   0  0  0  0  0  0
  -24.7408  -30.9971   22.0849 N   0  0  0  0  0  0
  -23.4204  -28.8028   23.3035 O   0  0  0  0  0  0
  -28.2877  -25.9445   20.2174 O   0  0  0  0  0  0
  -26.5702  -34.8892   22.4614 O   0  0  0  0  0  0
  -23.5653  -32.1229   23.6854 O   0  0  0  0  0  0
  -29.7649  -22.1758   20.5504 C   0  0  0  0  0  0
  -27.5282  -21.9167   20.0976 C   0  0  0  0  0  0
  -29.5684  -23.6510   20.5013 C   0  0  0  0  0  0
  -27.3323  -23.3899   20.0555 C   0  0  0  0  0  0
  -28.7517  -21.1538   20.3474 C   0  0  0  0  0  0
  -28.3430  -24.4147   20.2581 C   0  0  0  0  0  0
  -28.7816  -19.4177   20.5118 C   0  0  0  0  0  0
  -29.9197  -18.0710   20.3071 C   0  0  0  0  0  0
  -29.6699  -16.4395   20.4776 N   0  0  0  0  0  0
  -31.4630  -12.9506   19.2005 H   0  0  0  0  0  0
  -30.4887  -11.8395   20.1137 H   0  0  0  0  0  0
  -29.9007  -11.7447   17.6658 H   0  0  0  0  0  0
  -29.5816  -13.4621   17.6597 H   0  0  0  0  0  0
  -28.0137  -11.2771   19.0540 H   0  0  0  0  0  0
  -27.4123  -12.3788   17.8407 H   0  0  0  0  0  0
  -27.5425  -14.2473   19.3485 H   0  0  0  0  0  0
  -28.7977  -12.4615   21.4875 H   0  0  0  0  0  0
  -28.3025  -14.1247   21.7092 H   0  0  0  0  0  0
  -25.2775   -9.5684   22.4760 H   0  0  0  0  0  0
  -24.0009   -7.4637   22.7474 H   0  0  0  0  0  0
  -21.0854   -8.8778   19.8953 H   0  0  0  0  0  0
  -22.3713  -10.9672   19.6164 H   0  0  0  0  0  0
  -21.2012   -7.6147   23.9714 H   0  0  0  0  0  0
  -21.1485   -6.0522   25.9077 H   0  0  0  0  0  0
  -22.0595   -2.7607   23.2846 H   0  0  0  0  0  0
  -22.4058  -11.9852   22.4857 H   0  0  0  0  0  0
  -21.1029  -13.1180   22.2651 H   0  0  0  0  0  0
  -24.6283  -15.8437   20.5244 H   0  0  0  0  0  0
  -26.2364  -15.6389   20.0507 H   0  0  0  0  0  0
  -26.7341  -32.5156   23.0893 H   0  0  0  0  0  0
  -25.0060  -33.9503   25.0206 H   0  0  0  0  0  0
  -22.7802  -31.2679   21.3518 H   0  0  0  0  0  0
  -23.3763  -35.9532   23.3283 H   0  0  0  0  0  0
  -24.3563  -36.8883   22.2067 H   0  0  0  0  0  0
  -23.7234  -37.6391   23.6718 H   0  0  0  0  0  0
  -26.2078  -31.3836   20.6157 H   0  0  0  0  0  0
  -26.8965  -30.7028   22.0500 H   0  0  0  0  0  0
  -28.1389  -28.6374   21.2786 H   0  0  0  0  0  0
  -25.9193  -25.7542   18.9849 H   0  0  0  0  0  0
  -24.0074  -27.2612   18.9511 H   0  0  0  0  0  0
  -23.8578  -30.5163   19.3868 H   0  0  0  0  0  0
  -22.8166  -29.2010   19.8344 H   0  0  0  0  0  0
  -25.1326  -36.1776   25.0794 H   0  0  0  0  0  0
  -21.0024  -28.3334   24.1329 H   0  0  0  0  0  0
  -20.5663  -26.2351   23.3639 H   0  0  0  0  0  0
  -21.6652  -26.7400   22.1215 H   0  0  0  0  0  0
  -19.6920  -25.6274   21.1267 H   0  0  0  0  0  0
  -19.6703  -27.3164   20.6729 H   0  0  0  0  0  0
  -17.4215  -26.6683   21.4028 H   0  0  0  0  0  0
  -18.0341  -26.0088   22.9028 H   0  0  0  0  0  0
  -19.7963  -30.7312   24.2203 H   0  0  0  0  0  0
  -17.5033  -31.6271   24.5162 H   0  0  0  0  0  0
  -15.5369  -30.2968   23.7692 H   0  0  0  0  0  0
  -15.8699  -28.0804   22.7104 H   0  0  0  0  0  0
  -24.5874  -30.7128   25.7679 H   0  0  0  0  0  0
  -24.8868  -32.2990   26.4678 H   0  0  0  0  0  0
  -25.7926  -30.9030   27.0214 H   0  0  0  0  0  0
  -26.3104  -29.6595   24.1394 H   0  0  0  0  0  0
  -27.3968  -29.7273   25.5052 H   0  0  0  0  0  0
  -27.9045  -30.4109   23.9817 H   0  0  0  0  0  0
  -27.2606  -33.3691   26.1957 H   0  0  0  0  0  0
  -28.3909  -32.6854   25.0368 H   0  0  0  0  0  0
  -28.0645  -31.8559   26.5509 H   0  0  0  0  0  0
  -28.2572  -38.0072   24.7512 H   0  0  0  0  0  0
  -28.1078  -36.2599   24.6296 H   0  0  0  0  0  0
  -27.2285  -37.1406   25.8870 H   0  0  0  0  0  0
  -20.9554  -29.8721   21.6691 H   0  0  0  0  0  0
  -26.0128  -38.2769   24.1421 H   0  0  0  0  0  0
  -30.7631  -21.8293   20.7801 H   0  0  0  0  0  0
  -26.6338  -21.3290   19.9421 H   0  0  0  0  0  0
  -30.4544  -24.2438   20.6801 H   0  0  0  0  0  0
  -26.3261  -23.7290   19.8593 H   0  0  0  0  0  0
  -27.9338  -19.1211   19.8936 H   0  0  0  0  0  0
  -28.4114  -19.2853   21.5286 H   0  0  0  0  0  0
  -30.7691  -18.2913   20.9546 H   0  0  0  0  0  0
  -30.3203  -18.1743   19.2983 H   0  0  0  0  0  0
  -28.6980  -16.2274   20.6521 H   0  0  0  0  0  0
  1 25  1  0  0  0
  1 30  2  0  0  0
  1 79  1  0  0  0
  2  3  1  0  0  0
  2 25  1  0  0  0
  2 80  1  0  0  0
  2 81  1  0  0  0
  3  4  1  0  0  0
  3 82  1  0  0  0
  3 83  1  0  0  0
  4  5  1  0  0  0
  4 84  1  0  0  0
  4 85  1  0  0  0
  5  6  1  0  0  0
  5 26  1  0  0  0
  5 86  1  0  0  0
  6 25  1  0  0  0
  6 87  1  0  0  0
  6 88  1  0  0  0
  7  8  2  0  0  0
  7 26  1  0  0  0
  7 29  1  0  0  0
  8  9  1  0  0  0
  8 22  1  0  0  0
  9 10  1  0  0  0
  9 27  2  0  0  0
 10 11  2  0  0  0
 10 15  1  0  0  0
 11 12  1  0  0  0
 11 89  1  0  0  0
 12 13  2  0  0  0
 12 90  1  0  0  0
 13 14  1  0  0  0
 13 31  1  0  0  0
 14 15  2  0  0  0
 14 91  1  0  0  0
 15 92  1  0  0  0
 16 17  2  0  0  0
 16 21  1  0  0  0
 16 31  1  0  0  0
 17 18  1  0  0  0
 17 93  1  0  0  0
 18 19  2  0  0  0
 18 94  1  0  0  0
 19 20  1  0  0  0
 19 24  1  0  0  0
 20 21  2  0  0  0
 20 95  1  0  0  0
 21 23  1  0  0  0
 22 28  1  0  0  0
 22 32  2  0  0  0
 26 27  1  0  0  0
 28 96  1  0  0  0
 28 97  1  0  0  0
 29 98  1  0  0  0
 29 99  1  0  0  0
 33 34  1  0  0  0
 33 66  1  0  0  0
 33 70  2  0  0  0
 34 36  1  0  0  0
 34 59  1  0  0  0
 34100  1  0  0  0
 35 44  2  0  0  0
 35 45  1  0  0  0
 35 68  1  0  0  0
 36 56  1  0  0  0
 36101  1  0  0  0
 37 39  1  0  0  0
 37 47  1  0  0  0
 37 66  1  0  0  0
 37102  1  0  0  0
 38 43  2  0  0  0
 38 46  1  0  0  0
 38 47  1  0  0  0
 39 64  1  0  0  0
 39 67  2  0  0  0
 40 52  1  0  0  0
 40 53  2  0  0  0
 40 58  1  0  0  0
 41103  1  0  0  0
 41104  1  0  0  0
 41105  1  0  0  0
 41 48  1  0  0  0
 42 43  1  0  0  0
 42 66  1  0  0  0
 42106  1  0  0  0
 42107  1  0  0  0
 43 44  1  0  0  0
 44108  1  0  0  0
 45 46  2  0  0  0
 45109  1  0  0  0
 46110  1  0  0  0
 47111  1  0  0  0
 47112  1  0  0  0
 48 56  1  0  0  0
 48 65  1  0  0  0
 48113  1  0  0  0
 49 50  1  0  0  0
 49 53  1  0  0  0
 49 64  1  0  0  0
 49114  1  0  0  0
 50 51  1  0  0  0
 50115  1  0  0  0
 50116  1  0  0  0
 51 52  1  0  0  0
 51117  1  0  0  0
 51118  1  0  0  0
 52119  1  0  0  0
 52120  1  0  0  0
 53 54  1  0  0  0
 54 55  2  0  0  0
 54121  1  0  0  0
 55 57  1  0  0  0
 55122  1  0  0  0
 56 69  2  0  0  0
 57 58  2  0  0  0
 57123  1  0  0  0
 58124  1  0  0  0
 59 60  1  0  0  0
 59 61  1  0  0  0
 59 62  1  0  0  0
 60125  1  0  0  0
 60126  1  0  0  0
 60127  1  0  0  0
 61128  1  0  0  0
 61129  1  0  0  0
 61130  1  0  0  0
 62131  1  0  0  0
 62132  1  0  0  0
 62133  1  0  0  0
 63 65  1  0  0  0
 63134  1  0  0  0
 63135  1  0  0  0
 63136  1  0  0  0
 64137  1  0  0  0
 65138  1  0  0  0
 68 76  1  0  0  0
 71 73  2  0  0  0
 71 75  1  0  0  0
 71139  1  0  0  0
 72 74  1  0  0  0
 72 75  2  0  0  0
 72140  1  0  0  0
 73 76  1  0  0  0
 73141  1  0  0  0
 74 76  2  0  0  0
 74142  1  0  0  0
 75 77  1  0  0  0
 77 78  1  0  0  0
 77143  1  0  0  0
 77144  1  0  0  0
 78 79  1  0  0  0
 78145  1  0  0  0
 78146  1  0  0  0
 79147  1  0  0  0
M  ISO  4   1 100  68 101  76 101  79 100
M  END
> <chiral flag>
0

> <version>
0

> <s_m_source_file>
/data/baiqing/PycharmProjects/Reinvent-master-3.2/result/LINK_invent/BTK/process_docking_weight1_custom_product_contain_oxygen_bond_distance_aromatic_linkinvent_7_9_3/rearranged_h_0001.sdf

> <i_m_source_file_index>
84

> <r_mmod_Potential_Energy-OPLS-2005>
1003.37579345703

> <r_mmod_Stretch_Energy-OPLS-2005>
448.678894042969

> <r_mmod_Bend_Energy-OPLS-2005>
413.972930908203

> <r_mmod_Torsional_Energy-OPLS-2005>
199.207092285156

> <r_mmod_Improper_Torsional_Energy-OPLS-2005>
4.7180027961731

> <r_mmod_Van_der_Waal_Energy-OPLS-2005>
127.764778137207

> <r_mmod_Electrostatic_Energy-OPLS-2005>
-356.287658691406

> <r_mmod_Solvation_Energy-OPLS-2005>
-215.931350708008

> <b_mmod_Minimization_Converged-OPLS-2005>
0

> <r_mmod_RMS_Derivative-OPLS-2005>
0.406837373971939

$$$$
84
                    3D
 Structure written by MMmdl.
145152  0  0  1  0            999 V2000
  -30.4638  -15.1941   20.3747 C   0  0  0  0  0  0
  -30.4391  -12.7526   19.5337 C   0  0  0  0  0  0
  -29.5356  -12.5687   18.2886 C   0  0  0  0  0  0
  -28.0791  -12.3079   18.7093 C   0  0  0  0  0  0
  -27.6180  -13.2715   19.8318 C   0  0  2  0  0  0
  -28.6517  -13.4113   20.9711 C   0  0  0  0  0  0
  -25.2407  -13.8246   20.5743 C   0  0  0  0  0  0
  -24.1752  -13.0439   20.9248 C   0  0  0  0  0  0
  -24.6401  -11.6935   20.8759 C   0  0  0  0  0  0
  -23.9094  -10.4295   21.0404 C   0  0  0  0  0  0
  -24.3638   -9.4208   21.9183 C   0  0  0  0  0  0
  -23.6306   -8.2246   22.0754 C   0  0  0  0  0  0
  -22.4287   -8.0285   21.3545 C   0  0  0  0  0  0
  -21.9928   -9.0259   20.4646 C   0  0  0  0  0  0
  -22.7264  -10.2135   20.3054 C   0  0  0  0  0  0
  -21.6857   -6.0740   22.5279 C   0  0  0  0  0  0
  -21.4017   -6.5642   23.8212 C   0  0  0  0  0  0
  -21.3660   -5.6794   24.9174 C   0  0  0  0  0  0
  -21.6044   -4.3057   24.7223 C   0  0  0  0  0  0
  -21.8819   -3.8150   23.4344 C   0  0  0  0  0  0
  -21.9194   -4.6967   22.3401 C   0  0  0  0  0  0
  -22.7769  -13.5193   21.1896 C   0  0  0  0  0  0
  -22.1662   -4.2153   21.0979 F   0  0  0  0  0  0
  -21.5628   -3.4540   25.7735 F   0  0  0  0  0  0
  -29.9000  -13.8923   20.3593 N   0  0  0  0  0  0
  -26.2841  -12.9518   20.3242 N   0  0  0  0  0  0
  -25.9340  -11.6624   20.5732 N   0  0  0  0  0  0
  -22.0428  -12.8174   22.0451 N   0  0  0  0  0  0
  -25.4042  -15.1981   20.4176 N   0  0  0  0  0  0
  -31.6693  -15.2140   20.0922 O   0  0  0  0  0  0
  -21.6646   -6.8885   21.4242 O   0  0  0  0  0  0
  -22.3447  -14.5494   20.6737 O   0  0  0  0  0  0
  -24.6595  -31.8276   23.1751 C   0  0  0  0  0  0
  -25.9294  -32.4608   23.8197 C   0  0  1  0  0  0
  -27.2195  -26.9648   20.1627 C   0  0  0  0  0  0
  -25.5976  -33.8422   24.2099 N   0  0  0  0  0  0
  -23.4725  -30.4424   21.5231 C   0  0  2  0  0  0
  -24.9266  -28.8444   20.1047 C   0  0  0  0  0  0
  -22.7653  -29.4461   22.4786 C   0  0  0  0  0  0
  -18.0322  -28.1408   22.8469 C   0  0  0  0  0  0
  -24.1493  -36.7215   23.2646 C   0  0  0  0  0  0
  -26.0407  -30.6441   21.4034 C   0  0  0  0  0  0
  -26.1081  -29.2401   20.7427 C   0  0  0  0  0  0
  -27.2449  -28.3173   20.7584 C   0  0  0  0  0  0
  -26.0089  -26.7243   19.4701 C   0  0  0  0  0  0
  -24.9006  -27.6053   19.4499 C   0  0  0  0  0  0
  -23.7101  -29.7656   20.1458 C   0  0  0  0  0  0
  -25.4133  -36.2979   24.0302 C   0  0  1  0  0  0
  -20.5945  -28.3750   23.1193 C   0  0  2  0  0  0
  -20.6799  -26.9434   22.5401 C   0  0  0  0  0  0
  -19.5771  -26.6379   21.5214 C   0  0  0  0  0  0
  -18.1954  -26.7942   22.1624 C   0  0  0  0  0  0
  -19.1582  -28.8900   23.2820 C   0  0  0  0  0  0
  -18.9493  -30.1490   23.8853 C   0  0  0  0  0  0
  -17.6486  -30.6598   24.0556 C   0  0  0  0  0  0
  -25.9096  -34.9360   23.5019 C   0  0  0  0  0  0
  -16.5377  -29.9085   23.6343 C   0  0  0  0  0  0
  -16.7304  -28.6506   23.0362 C   0  0  0  0  0  0
  -26.4555  -31.6541   25.0712 C   0  0  0  0  0  0
  -25.3689  -31.3784   26.1372 C   0  0  0  0  0  0
  -27.0451  -30.2910   24.6432 C   0  0  0  0  0  0
  -27.6050  -32.4348   25.7511 C   0  0  0  0  0  0
  -27.5571  -37.1766   24.8467 C   0  0  0  0  0  0
  -21.4325  -29.3045   22.3542 N   0  0  0  0  0  0
  -26.4282  -37.3711   23.9406 N   0  0  0  0  0  0
  -24.7451  -30.9972   22.0873 N   0  0  0  0  0  0
  -23.4220  -28.8019   23.3005 O   0  0  0  0  0  0
  -28.1957  -25.8512   20.3169 O   0  0  0  0  0  0
  -26.5702  -34.8887   22.4612 O   0  0  0  0  0  0
  -23.5672  -32.1233   23.6863 O   0  0  0  0  0  0
  -28.0936  -24.2518   19.8568 C   0  0  0  0  0  0
  -28.7756  -22.8441   20.5996 C   0  0  0  0  0  0
  -29.0485  -21.1957   19.9565 C   0  0  0  0  0  0
  -29.1846  -19.5617   20.6716 C   0  0  0  0  0  0
  -29.8816  -18.0345   20.0663 C   0  0  0  0  0  0
  -29.6978  -16.4460   20.5011 N   0  0  0  0  0  0
  -27.4189  -23.9777   18.8631 O   0  0  0  0  0  0
  -31.4652  -12.9357   19.2120 H   0  0  0  0  0  0
  -30.4792  -11.8340   20.1214 H   0  0  0  0  0  0
  -29.9011  -11.7482   17.6697 H   0  0  0  0  0  0
  -29.5827  -13.4659   17.6695 H   0  0  0  0  0  0
  -28.0191  -11.2781   19.0635 H   0  0  0  0  0  0
  -27.4135  -12.3745   17.8478 H   0  0  0  0  0  0
  -27.5459  -14.2482   19.3520 H   0  0  0  0  0  0
  -28.7960  -12.4669   21.4979 H   0  0  0  0  0  0
  -28.3041  -14.1313   21.7134 H   0  0  0  0  0  0
  -25.2778   -9.5684   22.4764 H   0  0  0  0  0  0
  -24.0011   -7.4638   22.7476 H   0  0  0  0  0  0
  -21.0859   -8.8782   19.8951 H   0  0  0  0  0  0
  -22.3721  -10.9676   19.6166 H   0  0  0  0  0  0
  -21.2011   -7.6151   23.9716 H   0  0  0  0  0  0
  -21.1482   -6.0524   25.9076 H   0  0  0  0  0  0
  -22.0597   -2.7612   23.2842 H   0  0  0  0  0  0
  -22.4062  -11.9845   22.4841 H   0  0  0  0  0  0
  -21.1038  -13.1179   22.2654 H   0  0  0  0  0  0
  -24.6323  -15.8467   20.5287 H   0  0  0  0  0  0
  -26.2433  -15.6400   20.0654 H   0  0  0  0  0  0
  -26.7362  -32.5154   23.0912 H   0  0  0  0  0  0
  -25.0075  -33.9509   25.0216 H   0  0  0  0  0  0
  -22.7836  -31.2734   21.3577 H   0  0  0  0  0  0
  -23.3765  -35.9536   23.3282 H   0  0  0  0  0  0
  -24.3571  -36.8885   22.2065 H   0  0  0  0  0  0
  -23.7241  -37.6393   23.6716 H   0  0  0  0  0  0
  -26.2204  -31.3896   20.6276 H   0  0  0  0  0  0
  -26.9011  -30.6963   22.0585 H   0  0  0  0  0  0
  -28.1305  -28.6094   21.3047 H   0  0  0  0  0  0
  -25.8574  -25.7807   18.9729 H   0  0  0  0  0  0
  -24.0024  -27.2955   18.9334 H   0  0  0  0  0  0
  -23.8601  -30.5380   19.3907 H   0  0  0  0  0  0
  -22.8209  -29.2178   19.8287 H   0  0  0  0  0  0
  -25.1330  -36.1781   25.0793 H   0  0  0  0  0  0
  -21.0036  -28.3355   24.1315 H   0  0  0  0  0  0
  -20.5683  -26.2368   23.3639 H   0  0  0  0  0  0
  -21.6662  -26.7415   22.1205 H   0  0  0  0  0  0
  -19.6930  -25.6277   21.1273 H   0  0  0  0  0  0
  -19.6709  -27.3164   20.6724 H   0  0  0  0  0  0
  -17.4222  -26.6685   21.4028 H   0  0  0  0  0  0
  -18.0351  -26.0095   22.9031 H   0  0  0  0  0  0
  -19.7968  -30.7320   24.2201 H   0  0  0  0  0  0
  -17.5037  -31.6273   24.5167 H   0  0  0  0  0  0
  -15.5375  -30.2972   23.7693 H   0  0  0  0  0  0
  -15.8705  -28.0809   22.7102 H   0  0  0  0  0  0
  -24.5887  -30.7115   25.7683 H   0  0  0  0  0  0
  -24.8859  -32.2983   26.4677 H   0  0  0  0  0  0
  -25.7926  -30.9032   27.0228 H   0  0  0  0  0  0
  -26.3117  -29.6588   24.1416 H   0  0  0  0  0  0
  -27.3963  -29.7271   25.5084 H   0  0  0  0  0  0
  -27.9066  -30.4094   23.9858 H   0  0  0  0  0  0
  -27.2619  -33.3690   26.1971 H   0  0  0  0  0  0
  -28.3923  -32.6844   25.0385 H   0  0  0  0  0  0
  -28.0651  -31.8555   26.5527 H   0  0  0  0  0  0
  -28.2573  -38.0076   24.7512 H   0  0  0  0  0  0
  -28.1082  -36.2603   24.6299 H   0  0  0  0  0  0
  -27.2286  -37.1414   25.8868 H   0  0  0  0  0  0
  -20.9570  -29.8742   21.6683 H   0  0  0  0  0  0
  -26.0132  -38.2770   24.1412 H   0  0  0  0  0  0
  -28.1346  -22.7034   21.4696 H   0  0  0  0  0  0
  -29.7227  -23.1771   21.0238 H   0  0  0  0  0  0
  -29.9727  -21.3043   19.3886 H   0  0  0  0  0  0
  -28.2938  -21.0841   19.1774 H   0  0  0  0  0  0
  -28.1631  -19.3081   20.9563 H   0  0  0  0  0  0
  -29.6821  -19.7208   21.6287 H   0  0  0  0  0  0
  -30.9612  -18.1894   20.0535 H   0  0  0  0  0  0
  -29.6144  -18.0189   19.0092 H   0  0  0  0  0  0
  -28.7487  -16.2452   20.7827 H   0  0  0  0  0  0
  1 25  1  0  0  0
  1 30  2  0  0  0
  1 76  1  0  0  0
  2  3  1  0  0  0
  2 25  1  0  0  0
  2 78  1  0  0  0
  2 79  1  0  0  0
  3  4  1  0  0  0
  3 80  1  0  0  0
  3 81  1  0  0  0
  4  5  1  0  0  0
  4 82  1  0  0  0
  4 83  1  0  0  0
  5  6  1  0  0  0
  5 26  1  0  0  0
  5 84  1  0  0  0
  6 25  1  0  0  0
  6 85  1  0  0  0
  6 86  1  0  0  0
  7  8  2  0  0  0
  7 26  1  0  0  0
  7 29  1  0  0  0
  8  9  1  0  0  0
  8 22  1  0  0  0
  9 10  1  0  0  0
  9 27  2  0  0  0
 10 11  2  0  0  0
 10 15  1  0  0  0
 11 12  1  0  0  0
 11 87  1  0  0  0
 12 13  2  0  0  0
 12 88  1  0  0  0
 13 14  1  0  0  0
 13 31  1  0  0  0
 14 15  2  0  0  0
 14 89  1  0  0  0
 15 90  1  0  0  0
 16 17  2  0  0  0
 16 21  1  0  0  0
 16 31  1  0  0  0
 17 18  1  0  0  0
 17 91  1  0  0  0
 18 19  2  0  0  0
 18 92  1  0  0  0
 19 20  1  0  0  0
 19 24  1  0  0  0
 20 21  2  0  0  0
 20 93  1  0  0  0
 21 23  1  0  0  0
 22 28  1  0  0  0
 22 32  2  0  0  0
 26 27  1  0  0  0
 28 94  1  0  0  0
 28 95  1  0  0  0
 29 96  1  0  0  0
 29 97  1  0  0  0
 33 34  1  0  0  0
 33 66  1  0  0  0
 33 70  2  0  0  0
 34 36  1  0  0  0
 34 59  1  0  0  0
 34 98  1  0  0  0
 35 44  2  0  0  0
 35 45  1  0  0  0
 35 68  1  0  0  0
 36 56  1  0  0  0
 36 99  1  0  0  0
 37 39  1  0  0  0
 37 47  1  0  0  0
 37 66  1  0  0  0
 37100  1  0  0  0
 38 43  2  0  0  0
 38 46  1  0  0  0
 38 47  1  0  0  0
 39 64  1  0  0  0
 39 67  2  0  0  0
 40 52  1  0  0  0
 40 53  2  0  0  0
 40 58  1  0  0  0
 41101  1  0  0  0
 41102  1  0  0  0
 41103  1  0  0  0
 41 48  1  0  0  0
 42 43  1  0  0  0
 42 66  1  0  0  0
 42104  1  0  0  0
 42105  1  0  0  0
 43 44  1  0  0  0
 44106  1  0  0  0
 45 46  2  0  0  0
 45107  1  0  0  0
 46108  1  0  0  0
 47109  1  0  0  0
 47110  1  0  0  0
 48 56  1  0  0  0
 48 65  1  0  0  0
 48111  1  0  0  0
 49 50  1  0  0  0
 49 53  1  0  0  0
 49 64  1  0  0  0
 49112  1  0  0  0
 50 51  1  0  0  0
 50113  1  0  0  0
 50114  1  0  0  0
 51 52  1  0  0  0
 51115  1  0  0  0
 51116  1  0  0  0
 52117  1  0  0  0
 52118  1  0  0  0
 53 54  1  0  0  0
 54 55  2  0  0  0
 54119  1  0  0  0
 55 57  1  0  0  0
 55120  1  0  0  0
 56 69  2  0  0  0
 57 58  2  0  0  0
 57121  1  0  0  0
 58122  1  0  0  0
 59 60  1  0  0  0
 59 61  1  0  0  0
 59 62  1  0  0  0
 60123  1  0  0  0
 60124  1  0  0  0
 60125  1  0  0  0
 61126  1  0  0  0
 61127  1  0  0  0
 61128  1  0  0  0
 62129  1  0  0  0
 62130  1  0  0  0
 62131  1  0  0  0
 63 65  1  0  0  0
 63132  1  0  0  0
 63133  1  0  0  0
 63134  1  0  0  0
 64135  1  0  0  0
 65136  1  0  0  0
 68 71  1  0  0  0
 71 72  1  0  0  0
 71 77  2  0  0  0
 72 73  1  0  0  0
 72137  1  0  0  0
 72138  1  0  0  0
 73 74  1  0  0  0
 73139  1  0  0  0
 73140  1  0  0  0
 74 75  1  0  0  0
 74141  1  0  0  0
 74142  1  0  0  0
 75 76  1  0  0  0
 75143  1  0  0  0
 75144  1  0  0  0
 76145  1  0  0  0
M  ISO  4   1 100  68 101  71 101  76 100
M  END
> <chiral flag>
0

> <version>
0

> <s_m_source_file>
/data/baiqing/PycharmProjects/Reinvent-master-3.2/result/LINK_invent/BTK/process_docking_weight1_custom_product_contain_oxygen_bond_distance_aromatic_linkinvent_7_9_3/rearranged_h_0001.sdf

> <i_m_source_file_index>
85

> <r_mmod_Potential_Energy-OPLS-2005>
1161.08569335938

> <r_mmod_Stretch_Energy-OPLS-2005>
591.321594238281

> <r_mmod_Bend_Energy-OPLS-2005>
400.882934570312

> <r_mmod_Torsional_Energy-OPLS-2005>
215.743499755859

> <r_mmod_Improper_Torsional_Energy-OPLS-2005>
5.11030149459839

> <r_mmod_Van_der_Waal_Energy-OPLS-2005>
113.03840637207

> <r_mmod_Electrostatic_Energy-OPLS-2005>
-350.012939453125

> <r_mmod_Solvation_Energy-OPLS-2005>
-216.803207397461

> <b_mmod_Minimization_Converged-OPLS-2005>
0

> <r_mmod_RMS_Derivative-OPLS-2005>
0.119580380618572

$$$$
85
                    3D
 Structure written by MMmdl.
148156  0  0  1  0            999 V2000
  -30.5066  -14.9122   20.4364 C   0  0  0  0  0  0
  -30.4572  -12.5594   19.4935 C   0  0  0  0  0  0
  -29.5282  -12.5199   18.2554 C   0  0  0  0  0  0
  -28.0576  -12.3117   18.6710 C   0  0  0  0  0  0
  -27.6394  -13.2328   19.8459 C   0  0  2  0  0  0
  -28.6827  -13.2097   20.9842 C   0  0  0  0  0  0
  -25.2503  -13.8179   20.5680 C   0  0  0  0  0  0
  -24.1804  -13.0432   20.9234 C   0  0  0  0  0  0
  -24.6391  -11.6909   20.8755 C   0  0  0  0  0  0
  -23.9061  -10.4290   21.0411 C   0  0  0  0  0  0
  -24.3611   -9.4205   21.9186 C   0  0  0  0  0  0
  -23.6288   -8.2238   22.0750 C   0  0  0  0  0  0
  -22.4271   -8.0275   21.3541 C   0  0  0  0  0  0
  -21.9904   -9.0252   20.4648 C   0  0  0  0  0  0
  -22.7230  -10.2135   20.3062 C   0  0  0  0  0  0
  -21.6854   -6.0729   22.5277 C   0  0  0  0  0  0
  -21.4013   -6.5632   23.8208 C   0  0  0  0  0  0
  -21.3661   -5.6786   24.9171 C   0  0  0  0  0  0
  -21.6045   -4.3047   24.7224 C   0  0  0  0  0  0
  -21.8820   -3.8140   23.4344 C   0  0  0  0  0  0
  -21.9192   -4.6957   22.3400 C   0  0  0  0  0  0
  -22.7825  -13.5222   21.1889 C   0  0  0  0  0  0
  -22.1662   -4.2144   21.0978 F   0  0  0  0  0  0
  -21.5632   -3.4531   25.7736 F   0  0  0  0  0  0
  -29.9671  -13.6300   20.4031 N   0  0  0  0  0  0
  -26.2923  -12.9383   20.3242 N   0  0  0  0  0  0
  -25.9319  -11.6532   20.5738 N   0  0  0  0  0  0
  -22.0468  -12.8219   22.0447 N   0  0  0  0  0  0
  -25.4177  -15.1897   20.4031 N   0  0  0  0  0  0
  -31.6939  -15.0568   20.1209 O   0  0  0  0  0  0
  -21.6638   -6.8871   21.4237 O   0  0  0  0  0  0
  -22.3514  -14.5527   20.6726 O   0  0  0  0  0  0
  -24.6416  -31.8453   23.1901 C   0  0  0  0  0  0
  -25.9200  -32.4701   23.8277 C   0  0  1  0  0  0
  -27.2194  -27.1518   20.1453 C   0  0  0  0  0  0
  -25.5965  -33.8506   24.2202 N   0  0  0  0  0  0
  -23.4439  -30.4666   21.5351 C   0  0  2  0  0  0
  -24.8937  -28.8974   20.1099 C   0  0  0  0  0  0
  -22.7560  -29.4552   22.4860 C   0  0  0  0  0  0
  -18.0312  -28.1393   22.8469 C   0  0  0  0  0  0
  -24.1494  -36.7247   23.2641 C   0  0  0  0  0  0
  -25.9996  -30.7244   21.3866 C   0  0  0  0  0  0
  -26.0718  -29.3381   20.7263 C   0  0  0  0  0  0
  -27.2360  -28.4820   20.7257 C   0  0  0  0  0  0
  -26.0120  -26.8101   19.4939 C   0  0  0  0  0  0
  -24.8768  -27.6464   19.4781 C   0  0  0  0  0  0
  -23.6696  -29.7981   20.1537 C   0  0  0  0  0  0
  -25.4127  -36.3034   24.0317 C   0  0  1  0  0  0
  -20.5919  -28.3710   23.1237 C   0  0  2  0  0  0
  -20.6792  -26.9413   22.5410 C   0  0  0  0  0  0
  -19.5774  -26.6379   21.5205 C   0  0  0  0  0  0
  -18.1953  -26.7936   22.1610 C   0  0  0  0  0  0
  -19.1566  -28.8871   23.2846 C   0  0  0  0  0  0
  -18.9483  -30.1470   23.8866 C   0  0  0  0  0  0
  -17.6479  -30.6586   24.0558 C   0  0  0  0  0  0
  -25.9073  -34.9409   23.5067 C   0  0  0  0  0  0
  -16.5370  -29.9077   23.6341 C   0  0  0  0  0  0
  -16.7296  -28.6502   23.0351 C   0  0  0  0  0  0
  -26.4529  -31.6562   25.0707 C   0  0  0  0  0  0
  -25.3724  -31.3768   26.1419 C   0  0  0  0  0  0
  -27.0377  -30.2956   24.6276 C   0  0  0  0  0  0
  -27.6086  -32.4308   25.7471 C   0  0  0  0  0  0
  -27.5583  -37.1776   24.8464 C   0  0  0  0  0  0
  -21.4255  -29.3039   22.3609 N   0  0  0  0  0  0
  -26.4289  -37.3749   23.9414 N   0  0  0  0  0  0
  -24.7147  -31.0329   22.0924 N   0  0  0  0  0  0
  -23.4217  -28.8100   23.2999 O   0  0  0  0  0  0
  -28.2775  -26.1735   20.2098 O   0  0  0  0  0  0
  -26.5645  -34.8903   22.4634 O   0  0  0  0  0  0
  -23.5543  -32.1324   23.7138 O   0  0  0  0  0  0
  -28.2153  -18.0953   20.7491 C   0  0  0  0  0  0
  -30.4833  -18.5413   20.2926 C   0  0  0  0  0  0
  -27.9193  -19.5039   20.6778 C   0  0  0  0  0  0
  -30.1796  -19.9799   20.2323 C   0  0  0  0  0  0
  -29.5053  -17.5105   20.5545 C   0  0  0  0  0  0
  -28.8633  -20.5436   20.4177 C   0  0  0  0  0  0
  -28.9684  -23.3056   20.2949 C   0  0  0  0  0  0
  -27.9754  -24.6526   20.0919 C   0  0  0  0  0  0
  -29.6169  -15.9865   20.6674 N   0  0  0  0  0  0
  -28.3409  -21.9105   20.3531 O   0  0  0  0  0  0
  -31.4885  -12.7346   19.1825 H   0  0  0  0  0  0
  -30.4604  -11.5956   20.0058 H   0  0  0  0  0  0
  -29.8405  -11.7242   17.5774 H   0  0  0  0  0  0
  -29.6216  -13.4520   17.6963 H   0  0  0  0  0  0
  -27.9473  -11.2684   18.9696 H   0  0  0  0  0  0
  -27.3947  -12.4547   17.8166 H   0  0  0  0  0  0
  -27.6179  -14.2430   19.4364 H   0  0  0  0  0  0
  -28.7602  -12.2129   21.4208 H   0  0  0  0  0  0
  -28.3848  -13.8728   21.7977 H   0  0  0  0  0  0
  -25.2756   -9.5682   22.4757 H   0  0  0  0  0  0
  -24.0001   -7.4627   22.7461 H   0  0  0  0  0  0
  -21.0838   -8.8770   19.8954 H   0  0  0  0  0  0
  -22.3684  -10.9672   19.6174 H   0  0  0  0  0  0
  -21.2003   -7.6140   23.9709 H   0  0  0  0  0  0
  -21.1487   -6.0516   25.9075 H   0  0  0  0  0  0
  -22.0599   -2.7601   23.2843 H   0  0  0  0  0  0
  -22.4081  -11.9886   22.4849 H   0  0  0  0  0  0
  -21.1085  -13.1247   22.2656 H   0  0  0  0  0  0
  -24.6341  -15.8285   20.4849 H   0  0  0  0  0  0
  -26.2245  -15.6094   19.9608 H   0  0  0  0  0  0
  -26.7255  -32.5312   23.0996 H   0  0  0  0  0  0
  -25.0126  -33.9625   25.0360 H   0  0  0  0  0  0
  -22.7454  -31.2921   21.3833 H   0  0  0  0  0  0
  -23.3765  -35.9568   23.3292 H   0  0  0  0  0  0
  -24.3585  -36.8891   22.2059 H   0  0  0  0  0  0
  -23.7234  -37.6436   23.6677 H   0  0  0  0  0  0
  -26.1556  -31.4817   20.6172 H   0  0  0  0  0  0
  -26.8696  -30.7724   22.0293 H   0  0  0  0  0  0
  -28.1328  -28.8166   21.2280 H   0  0  0  0  0  0
  -25.9048  -25.8561   19.0019 H   0  0  0  0  0  0
  -23.9779  -27.3044   18.9838 H   0  0  0  0  0  0
  -23.8045  -30.5736   19.3988 H   0  0  0  0  0  0
  -22.7847  -29.2399   19.8437 H   0  0  0  0  0  0
  -25.1317  -36.1861   25.0809 H   0  0  0  0  0  0
  -21.0016  -28.3300   24.1354 H   0  0  0  0  0  0
  -20.5666  -26.2323   23.3628 H   0  0  0  0  0  0
  -21.6663  -26.7413   22.1221 H   0  0  0  0  0  0
  -19.6932  -25.6284   21.1253 H   0  0  0  0  0  0
  -19.6722  -27.3173   20.6721 H   0  0  0  0  0  0
  -17.4228  -26.6678   21.4008 H   0  0  0  0  0  0
  -18.0350  -26.0083   22.9011 H   0  0  0  0  0  0
  -19.7958  -30.7296   24.2215 H   0  0  0  0  0  0
  -17.5033  -31.6263   24.5169 H   0  0  0  0  0  0
  -15.5368  -30.2966   23.7685 H   0  0  0  0  0  0
  -15.8700  -28.0816   22.7066 H   0  0  0  0  0  0
  -24.5925  -30.7071   25.7773 H   0  0  0  0  0  0
  -24.8874  -32.2948   26.4746 H   0  0  0  0  0  0
  -25.8030  -30.9039   27.0255 H   0  0  0  0  0  0
  -26.2979  -29.6681   24.1289 H   0  0  0  0  0  0
  -27.4002  -29.7261   25.4844 H   0  0  0  0  0  0
  -27.8892  -30.4194   23.9579 H   0  0  0  0  0  0
  -27.2718  -33.3642   26.1990 H   0  0  0  0  0  0
  -28.3920  -32.6807   25.0300 H   0  0  0  0  0  0
  -28.0715  -31.8451   26.5425 H   0  0  0  0  0  0
  -28.2603  -38.0072   24.7518 H   0  0  0  0  0  0
  -28.1082  -36.2608   24.6283 H   0  0  0  0  0  0
  -27.2305  -37.1418   25.8868 H   0  0  0  0  0  0
  -20.9454  -29.8756   21.6799 H   0  0  0  0  0  0
  -26.0160  -38.2816   24.1435 H   0  0  0  0  0  0
  -27.3841  -17.4389   20.9640 H   0  0  0  0  0  0
  -31.5080  -18.2375   20.1325 H   0  0  0  0  0  0
  -26.8912  -19.7983   20.8356 H   0  0  0  0  0  0
  -30.9941  -20.6580   20.0223 H   0  0  0  0  0  0
  -29.5285  -23.4334   21.2214 H   0  0  0  0  0  0
  -29.7148  -23.2995   19.5002 H   0  0  0  0  0  0
  -27.1411  -24.4904   20.7758 H   0  0  0  0  0  0
  -27.5573  -24.5134   19.0959 H   0  0  0  0  0  0
  -28.7281  -15.5826   20.9203 H   0  0  0  0  0  0
  1 25  1  0  0  0
  1 30  2  0  0  0
  1 79  1  0  0  0
  2  3  1  0  0  0
  2 25  1  0  0  0
  2 81  1  0  0  0
  2 82  1  0  0  0
  3  4  1  0  0  0
  3 83  1  0  0  0
  3 84  1  0  0  0
  4  5  1  0  0  0
  4 85  1  0  0  0
  4 86  1  0  0  0
  5  6  1  0  0  0
  5 26  1  0  0  0
  5 87  1  0  0  0
  6 25  1  0  0  0
  6 88  1  0  0  0
  6 89  1  0  0  0
  7  8  2  0  0  0
  7 26  1  0  0  0
  7 29  1  0  0  0
  8  9  1  0  0  0
  8 22  1  0  0  0
  9 10  1  0  0  0
  9 27  2  0  0  0
 10 11  2  0  0  0
 10 15  1  0  0  0
 11 12  1  0  0  0
 11 90  1  0  0  0
 12 13  2  0  0  0
 12 91  1  0  0  0
 13 14  1  0  0  0
 13 31  1  0  0  0
 14 15  2  0  0  0
 14 92  1  0  0  0
 15 93  1  0  0  0
 16 17  2  0  0  0
 16 21  1  0  0  0
 16 31  1  0  0  0
 17 18  1  0  0  0
 17 94  1  0  0  0
 18 19  2  0  0  0
 18 95  1  0  0  0
 19 20  1  0  0  0
 19 24  1  0  0  0
 20 21  2  0  0  0
 20 96  1  0  0  0
 21 23  1  0  0  0
 22 28  1  0  0  0
 22 32  2  0  0  0
 26 27  1  0  0  0
 28 97  1  0  0  0
 28 98  1  0  0  0
 29 99  1  0  0  0
 29100  1  0  0  0
 33 34  1  0  0  0
 33 66  1  0  0  0
 33 70  2  0  0  0
 34 36  1  0  0  0
 34 59  1  0  0  0
 34101  1  0  0  0
 35 44  2  0  0  0
 35 45  1  0  0  0
 35 68  1  0  0  0
 36 56  1  0  0  0
 36102  1  0  0  0
 37 39  1  0  0  0
 37 47  1  0  0  0
 37 66  1  0  0  0
 37103  1  0  0  0
 38 43  2  0  0  0
 38 46  1  0  0  0
 38 47  1  0  0  0
 39 64  1  0  0  0
 39 67  2  0  0  0
 40 52  1  0  0  0
 40 53  2  0  0  0
 40 58  1  0  0  0
 41104  1  0  0  0
 41105  1  0  0  0
 41106  1  0  0  0
 41 48  1  0  0  0
 42 43  1  0  0  0
 42 66  1  0  0  0
 42107  1  0  0  0
 42108  1  0  0  0
 43 44  1  0  0  0
 44109  1  0  0  0
 45 46  2  0  0  0
 45110  1  0  0  0
 46111  1  0  0  0
 47112  1  0  0  0
 47113  1  0  0  0
 48 56  1  0  0  0
 48 65  1  0  0  0
 48114  1  0  0  0
 49 50  1  0  0  0
 49 53  1  0  0  0
 49 64  1  0  0  0
 49115  1  0  0  0
 50 51  1  0  0  0
 50116  1  0  0  0
 50117  1  0  0  0
 51 52  1  0  0  0
 51118  1  0  0  0
 51119  1  0  0  0
 52120  1  0  0  0
 52121  1  0  0  0
 53 54  1  0  0  0
 54 55  2  0  0  0
 54122  1  0  0  0
 55 57  1  0  0  0
 55123  1  0  0  0
 56 69  2  0  0  0
 57 58  2  0  0  0
 57124  1  0  0  0
 58125  1  0  0  0
 59 60  1  0  0  0
 59 61  1  0  0  0
 59 62  1  0  0  0
 60126  1  0  0  0
 60127  1  0  0  0
 60128  1  0  0  0
 61129  1  0  0  0
 61130  1  0  0  0
 61131  1  0  0  0
 62132  1  0  0  0
 62133  1  0  0  0
 62134  1  0  0  0
 63 65  1  0  0  0
 63135  1  0  0  0
 63136  1  0  0  0
 63137  1  0  0  0
 64138  1  0  0  0
 65139  1  0  0  0
 68 78  1  0  0  0
 71 73  2  0  0  0
 71 75  1  0  0  0
 71140  1  0  0  0
 72 74  1  0  0  0
 72 75  2  0  0  0
 72141  1  0  0  0
 73 76  1  0  0  0
 73142  1  0  0  0
 74 76  2  0  0  0
 74143  1  0  0  0
 75 79  1  0  0  0
 76 80  1  0  0  0
 77 78  1  0  0  0
 77 80  1  0  0  0
 77144  1  0  0  0
 77145  1  0  0  0
 78146  1  0  0  0
 78147  1  0  0  0
 79148  1  0  0  0
M  ISO  4   1 100  68 101  78 101  79 100
M  END
> <chiral flag>
0

> <version>
0

> <s_m_source_file>
/data/baiqing/PycharmProjects/Reinvent-master-3.2/result/LINK_invent/BTK/process_docking_weight1_custom_product_contain_oxygen_bond_distance_aromatic_linkinvent_7_9_3/rearranged_h_0001.sdf

> <i_m_source_file_index>
86

> <r_mmod_Potential_Energy-OPLS-2005>
453.292022705078

> <r_mmod_Stretch_Energy-OPLS-2005>
216.148208618164

> <r_mmod_Bend_Energy-OPLS-2005>
303.559814453125

> <r_mmod_Torsional_Energy-OPLS-2005>
210.8935546875

> <r_mmod_Improper_Torsional_Energy-OPLS-2005>
4.47378873825073

> <r_mmod_Van_der_Waal_Energy-OPLS-2005>
131.151794433594

> <r_mmod_Electrostatic_Energy-OPLS-2005>
-373.256744384766

> <r_mmod_Solvation_Energy-OPLS-2005>
-214.08235168457

> <b_mmod_Minimization_Converged-OPLS-2005>
0

> <r_mmod_RMS_Derivative-OPLS-2005>
0.848834156990051

$$$$
86
                    3D
 Structure written by MMmdl.
151159  0  0  1  0            999 V2000
  -30.6264  -14.6511   20.4934 C   0  0  0  0  0  0
  -30.4401  -12.3970   19.4577 C   0  0  0  0  0  0
  -29.5116  -12.5061   18.2275 C   0  0  0  0  0  0
  -28.0342  -12.3427   18.6380 C   0  0  0  0  0  0
  -27.6523  -13.2182   19.8607 C   0  0  2  0  0  0
  -28.6973  -13.0835   20.9919 C   0  0  0  0  0  0
  -25.2549  -13.8173   20.5674 C   0  0  0  0  0  0
  -24.1818  -13.0440   20.9199 C   0  0  0  0  0  0
  -24.6385  -11.6910   20.8730 C   0  0  0  0  0  0
  -23.9053  -10.4292   21.0400 C   0  0  0  0  0  0
  -24.3606   -9.4209   21.9176 C   0  0  0  0  0  0
  -23.6281   -8.2246   22.0747 C   0  0  0  0  0  0
  -22.4267   -8.0277   21.3539 C   0  0  0  0  0  0
  -21.9901   -9.0253   20.4647 C   0  0  0  0  0  0
  -22.7225  -10.2134   20.3052 C   0  0  0  0  0  0
  -21.6854   -6.0727   22.5277 C   0  0  0  0  0  0
  -21.4015   -6.5633   23.8209 C   0  0  0  0  0  0
  -21.3661   -5.6785   24.9171 C   0  0  0  0  0  0
  -21.6047   -4.3048   24.7221 C   0  0  0  0  0  0
  -21.8818   -3.8139   23.4343 C   0  0  0  0  0  0
  -21.9192   -4.6954   22.3398 C   0  0  0  0  0  0
  -22.7840  -13.5234   21.1863 C   0  0  0  0  0  0
  -22.1661   -4.2141   21.0974 F   0  0  0  0  0  0
  -21.5631   -3.4533   25.7734 F   0  0  0  0  0  0
  -30.0138  -13.4249   20.4288 N   0  0  0  0  0  0
  -26.2979  -12.9357   20.3299 N   0  0  0  0  0  0
  -25.9316  -11.6514   20.5743 N   0  0  0  0  0  0
  -22.0479  -12.8232   22.0422 N   0  0  0  0  0  0
  -25.4234  -15.1889   20.4030 N   0  0  0  0  0  0
  -31.7939  -14.7990   20.1210 O   0  0  0  0  0  0
  -21.6637   -6.8870   21.4240 O   0  0  0  0  0  0
  -22.3528  -14.5537   20.6703 O   0  0  0  0  0  0
  -24.6262  -31.8612   23.2022 C   0  0  0  0  0  0
  -25.9109  -32.4791   23.8352 C   0  0  1  0  0  0
  -27.2237  -27.3209   20.1134 C   0  0  0  0  0  0
  -25.5922  -33.8587   24.2278 N   0  0  0  0  0  0
  -23.4185  -30.4845   21.5465 C   0  0  2  0  0  0
  -24.8645  -28.9418   20.1120 C   0  0  0  0  0  0
  -22.7477  -29.4625   22.4950 C   0  0  0  0  0  0
  -18.0289  -28.1385   22.8498 C   0  0  0  0  0  0
  -24.1486  -36.7292   23.2639 C   0  0  0  0  0  0
  -25.9604  -30.7929   21.3723 C   0  0  0  0  0  0
  -26.0350  -29.4209   20.7137 C   0  0  0  0  0  0
  -27.2180  -28.6236   20.7017 C   0  0  0  0  0  0
  -26.0251  -26.8951   19.4920 C   0  0  0  0  0  0
  -24.8619  -27.6844   19.4916 C   0  0  0  0  0  0
  -23.6323  -29.8204   20.1618 C   0  0  0  0  0  0
  -25.4116  -36.3092   24.0329 C   0  0  1  0  0  0
  -20.5891  -28.3686   23.1294 C   0  0  2  0  0  0
  -20.6774  -26.9411   22.5413 C   0  0  0  0  0  0
  -19.5745  -26.6385   21.5218 C   0  0  0  0  0  0
  -18.1929  -26.7926   22.1635 C   0  0  0  0  0  0
  -19.1543  -28.8851   23.2889 C   0  0  0  0  0  0
  -18.9463  -30.1457   23.8897 C   0  0  0  0  0  0
  -17.6461  -30.6584   24.0568 C   0  0  0  0  0  0
  -25.9052  -34.9462   23.5108 C   0  0  0  0  0  0
  -16.5353  -29.9083   23.6335 C   0  0  0  0  0  0
  -16.7276  -28.6502   23.0355 C   0  0  0  0  0  0
  -26.4485  -31.6597   25.0718 C   0  0  0  0  0  0
  -25.3712  -31.3736   26.1439 C   0  0  0  0  0  0
  -27.0324  -30.3024   24.6158 C   0  0  0  0  0  0
  -27.6044  -32.4329   25.7492 C   0  0  0  0  0  0
  -27.5577  -37.1811   24.8473 C   0  0  0  0  0  0
  -21.4192  -29.3038   22.3688 N   0  0  0  0  0  0
  -26.4297  -37.3785   23.9401 N   0  0  0  0  0  0
  -24.6871  -31.0625   22.0972 N   0  0  0  0  0  0
  -23.4208  -28.8160   23.3021 O   0  0  0  0  0  0
  -28.3434  -26.4727   20.1594 O   0  0  0  0  0  0
  -26.5616  -34.8929   22.4672 O   0  0  0  0  0  0
  -23.5424  -32.1415   23.7351 O   0  0  0  0  0  0
  -31.1629  -19.2852   20.2503 C   0  0  0  0  0  0
  -28.8217  -19.4112   20.7643 C   0  0  0  0  0  0
  -31.1335  -17.8616   20.3566 C   0  0  0  0  0  0
  -28.7896  -17.9852   20.8716 C   0  0  0  0  0  0
  -30.0160  -20.1041   20.4481 C   0  0  0  0  0  0
  -29.9386  -17.1642   20.6737 C   0  0  0  0  0  0
  -30.1650  -21.6712   20.3822 C   0  0  0  0  0  0
  -28.1167  -25.0111   20.0385 C   0  0  0  0  0  0
  -29.3045  -23.9944   20.3254 C   0  0  0  0  0  0
  -29.8139  -15.7088   20.8227 N   0  0  0  0  0  0
  -28.9968  -22.5497   20.2887 O   0  0  0  0  0  0
  -31.4817  -12.5193   19.1579 H   0  0  0  0  0  0
  -30.3726  -11.4030   19.9039 H   0  0  0  0  0  0
  -29.7780  -11.7510   17.4868 H   0  0  0  0  0  0
  -29.6543  -13.4731   17.7422 H   0  0  0  0  0  0
  -27.8764  -11.2903   18.8771 H   0  0  0  0  0  0
  -27.3793  -12.5641   17.7944 H   0  0  0  0  0  0
  -27.6678  -14.2512   19.5118 H   0  0  0  0  0  0
  -28.7090  -12.0646   21.3839 H   0  0  0  0  0  0
  -28.4420  -13.7236   21.8375 H   0  0  0  0  0  0
  -25.2748   -9.5688   22.4755 H   0  0  0  0  0  0
  -23.9992   -7.4635   22.7463 H   0  0  0  0  0  0
  -21.0836   -8.8767   19.8953 H   0  0  0  0  0  0
  -22.3675  -10.9670   19.6164 H   0  0  0  0  0  0
  -21.2011   -7.6142   23.9712 H   0  0  0  0  0  0
  -21.1487   -6.0515   25.9075 H   0  0  0  0  0  0
  -22.0596   -2.7602   23.2843 H   0  0  0  0  0  0
  -22.4080  -11.9904   22.4843 H   0  0  0  0  0  0
  -21.1093  -13.1264   22.2612 H   0  0  0  0  0  0
  -24.6440  -15.8330   20.4830 H   0  0  0  0  0  0
  -26.2524  -15.6203   20.0162 H   0  0  0  0  0  0
  -26.7175  -32.5460   23.1103 H   0  0  0  0  0  0
  -25.0084  -33.9739   25.0428 H   0  0  0  0  0  0
  -22.7116  -31.3044   21.4046 H   0  0  0  0  0  0
  -23.3748  -35.9629   23.3331 H   0  0  0  0  0  0
  -24.3571  -36.8877   22.2048 H   0  0  0  0  0  0
  -23.7246  -37.6504   23.6641 H   0  0  0  0  0  0
  -26.0897  -31.5560   20.6036 H   0  0  0  0  0  0
  -26.8429  -30.8429   21.9984 H   0  0  0  0  0  0
  -28.1173  -28.9897   21.1784 H   0  0  0  0  0  0
  -25.9517  -25.9357   19.0053 H   0  0  0  0  0  0
  -23.9646  -27.3117   19.0162 H   0  0  0  0  0  0
  -23.7501  -30.5973   19.4051 H   0  0  0  0  0  0
  -22.7523  -29.2489   19.8605 H   0  0  0  0  0  0
  -25.1301  -36.1947   25.0822 H   0  0  0  0  0  0
  -20.9991  -28.3253   24.1412 H   0  0  0  0  0  0
  -20.5675  -26.2298   23.3609 H   0  0  0  0  0  0
  -21.6642  -26.7433   22.1204 H   0  0  0  0  0  0
  -19.6897  -25.6298   21.1239 H   0  0  0  0  0  0
  -19.6671  -27.3204   20.6751 H   0  0  0  0  0  0
  -17.4196  -26.6693   21.4034 H   0  0  0  0  0  0
  -18.0322  -26.0062   22.9026 H   0  0  0  0  0  0
  -19.7934  -30.7284   24.2260 H   0  0  0  0  0  0
  -17.5009  -31.6265   24.5171 H   0  0  0  0  0  0
  -15.5353  -30.2981   23.7643 H   0  0  0  0  0  0
  -15.8684  -28.0813   22.7065 H   0  0  0  0  0  0
  -24.5893  -30.7078   25.7766 H   0  0  0  0  0  0
  -24.8893  -32.2904   26.4847 H   0  0  0  0  0  0
  -25.8031  -30.8925   27.0224 H   0  0  0  0  0  0
  -26.2896  -29.6786   24.1171 H   0  0  0  0  0  0
  -27.4018  -29.7265   25.4651 H   0  0  0  0  0  0
  -27.8768  -30.4318   23.9384 H   0  0  0  0  0  0
  -27.2653  -33.3632   26.2066 H   0  0  0  0  0  0
  -28.3862  -32.6884   25.0326 H   0  0  0  0  0  0
  -28.0707  -31.8453   26.5412 H   0  0  0  0  0  0
  -28.2623  -38.0081   24.7495 H   0  0  0  0  0  0
  -28.1045  -36.2614   24.6341 H   0  0  0  0  0  0
  -27.2292  -37.1511   25.8876 H   0  0  0  0  0  0
  -20.9364  -29.8763   21.6903 H   0  0  0  0  0  0
  -26.0180  -38.2864   24.1382 H   0  0  0  0  0  0
  -32.1060  -19.7615   20.0227 H   0  0  0  0  0  0
  -27.9179  -19.9777   20.9432 H   0  0  0  0  0  0
  -32.0566  -17.3200   20.2021 H   0  0  0  0  0  0
  -27.8460  -17.5195   21.1183 H   0  0  0  0  0  0
  -30.8009  -21.8883   19.5221 H   0  0  0  0  0  0
  -30.7412  -21.9668   21.2605 H   0  0  0  0  0  0
  -27.2967  -24.7460   20.7086 H   0  0  0  0  0  0
  -27.7733  -24.8006   19.0259 H   0  0  0  0  0  0
  -29.7207  -24.2188   21.3080 H   0  0  0  0  0  0
  -30.1002  -24.1986   19.6075 H   0  0  0  0  0  0
  -28.9002  -15.4012   21.1154 H   0  0  0  0  0  0
  1 25  1  0  0  0
  1 30  2  0  0  0
  1 80  1  0  0  0
  2  3  1  0  0  0
  2 25  1  0  0  0
  2 82  1  0  0  0
  2 83  1  0  0  0
  3  4  1  0  0  0
  3 84  1  0  0  0
  3 85  1  0  0  0
  4  5  1  0  0  0
  4 86  1  0  0  0
  4 87  1  0  0  0
  5  6  1  0  0  0
  5 26  1  0  0  0
  5 88  1  0  0  0
  6 25  1  0  0  0
  6 89  1  0  0  0
  6 90  1  0  0  0
  7  8  2  0  0  0
  7 26  1  0  0  0
  7 29  1  0  0  0
  8  9  1  0  0  0
  8 22  1  0  0  0
  9 10  1  0  0  0
  9 27  2  0  0  0
 10 11  2  0  0  0
 10 15  1  0  0  0
 11 12  1  0  0  0
 11 91  1  0  0  0
 12 13  2  0  0  0
 12 92  1  0  0  0
 13 14  1  0  0  0
 13 31  1  0  0  0
 14 15  2  0  0  0
 14 93  1  0  0  0
 15 94  1  0  0  0
 16 17  2  0  0  0
 16 21  1  0  0  0
 16 31  1  0  0  0
 17 18  1  0  0  0
 17 95  1  0  0  0
 18 19  2  0  0  0
 18 96  1  0  0  0
 19 20  1  0  0  0
 19 24  1  0  0  0
 20 21  2  0  0  0
 20 97  1  0  0  0
 21 23  1  0  0  0
 22 28  1  0  0  0
 22 32  2  0  0  0
 26 27  1  0  0  0
 28 98  1  0  0  0
 28 99  1  0  0  0
 29100  1  0  0  0
 29101  1  0  0  0
 33 34  1  0  0  0
 33 66  1  0  0  0
 33 70  2  0  0  0
 34 36  1  0  0  0
 34 59  1  0  0  0
 34102  1  0  0  0
 35 44  2  0  0  0
 35 45  1  0  0  0
 35 68  1  0  0  0
 36 56  1  0  0  0
 36103  1  0  0  0
 37 39  1  0  0  0
 37 47  1  0  0  0
 37 66  1  0  0  0
 37104  1  0  0  0
 38 43  2  0  0  0
 38 46  1  0  0  0
 38 47  1  0  0  0
 39 64  1  0  0  0
 39 67  2  0  0  0
 40 52  1  0  0  0
 40 53  2  0  0  0
 40 58  1  0  0  0
 41105  1  0  0  0
 41106  1  0  0  0
 41107  1  0  0  0
 41 48  1  0  0  0
 42 43  1  0  0  0
 42 66  1  0  0  0
 42108  1  0  0  0
 42109  1  0  0  0
 43 44  1  0  0  0
 44110  1  0  0  0
 45 46  2  0  0  0
 45111  1  0  0  0
 46112  1  0  0  0
 47113  1  0  0  0
 47114  1  0  0  0
 48 56  1  0  0  0
 48 65  1  0  0  0
 48115  1  0  0  0
 49 50  1  0  0  0
 49 53  1  0  0  0
 49 64  1  0  0  0
 49116  1  0  0  0
 50 51  1  0  0  0
 50117  1  0  0  0
 50118  1  0  0  0
 51 52  1  0  0  0
 51119  1  0  0  0
 51120  1  0  0  0
 52121  1  0  0  0
 52122  1  0  0  0
 53 54  1  0  0  0
 54 55  2  0  0  0
 54123  1  0  0  0
 55 57  1  0  0  0
 55124  1  0  0  0
 56 69  2  0  0  0
 57 58  2  0  0  0
 57125  1  0  0  0
 58126  1  0  0  0
 59 60  1  0  0  0
 59 61  1  0  0  0
 59 62  1  0  0  0
 60127  1  0  0  0
 60128  1  0  0  0
 60129  1  0  0  0
 61130  1  0  0  0
 61131  1  0  0  0
 61132  1  0  0  0
 62133  1  0  0  0
 62134  1  0  0  0
 62135  1  0  0  0
 63 65  1  0  0  0
 63136  1  0  0  0
 63137  1  0  0  0
 63138  1  0  0  0
 64139  1  0  0  0
 65140  1  0  0  0
 68 78  1  0  0  0
 71 73  2  0  0  0
 71 75  1  0  0  0
 71141  1  0  0  0
 72 74  1  0  0  0
 72 75  2  0  0  0
 72142  1  0  0  0
 73 76  1  0  0  0
 73143  1  0  0  0
 74 76  2  0  0  0
 74144  1  0  0  0
 75 77  1  0  0  0
 76 80  1  0  0  0
 77 81  1  0  0  0
 77145  1  0  0  0
 77146  1  0  0  0
 78 79  1  0  0  0
 78147  1  0  0  0
 78148  1  0  0  0
 79 81  1  0  0  0
 79149  1  0  0  0
 79150  1  0  0  0
 80151  1  0  0  0
M  ISO  4   1 100  68 101  78 101  80 100
M  END
> <chiral flag>
0

> <version>
0

> <s_m_source_file>
/data/baiqing/PycharmProjects/Reinvent-master-3.2/result/LINK_invent/BTK/process_docking_weight1_custom_product_contain_oxygen_bond_distance_aromatic_linkinvent_7_9_3/rearranged_h_0001.sdf

> <i_m_source_file_index>
87

> <r_mmod_Potential_Energy-OPLS-2005>
71.3989562988281

> <r_mmod_Stretch_Energy-OPLS-2005>
81.4491424560547

> <r_mmod_Bend_Energy-OPLS-2005>
139.137191772461

> <r_mmod_Torsional_Energy-OPLS-2005>
214.261306762695

> <r_mmod_Improper_Torsional_Energy-OPLS-2005>
4.55642652511597

> <r_mmod_Van_der_Waal_Energy-OPLS-2005>
145.136138916016

> <r_mmod_Electrostatic_Energy-OPLS-2005>
-354.966857910156

> <r_mmod_Solvation_Energy-OPLS-2005>
-208.114410400391

> <b_mmod_Minimization_Converged-OPLS-2005>
0

> <r_mmod_RMS_Derivative-OPLS-2005>
1.38521814346313

$$$$
87
                    3D
 Structure written by MMmdl.
144152  0  0  1  0            999 V2000
  -30.2491  -15.7690   20.3185 C   0  0  0  0  0  0
  -30.4165  -13.1824   19.5389 C   0  0  0  0  0  0
  -29.5561  -12.6883   18.3366 C   0  0  0  0  0  0
  -28.1400  -12.3025   18.7870 C   0  0  0  0  0  0
  -27.5914  -13.3204   19.8100 C   0  0  2  0  0  0
  -28.5996  -13.7101   20.9197 C   0  0  0  0  0  0
  -25.2302  -13.8299   20.5812 C   0  0  0  0  0  0
  -24.1705  -13.0432   20.9298 C   0  0  0  0  0  0
  -24.6425  -11.6949   20.8764 C   0  0  0  0  0  0
  -23.9129  -10.4292   21.0393 C   0  0  0  0  0  0
  -24.3660   -9.4205   21.9178 C   0  0  0  0  0  0
  -23.6316   -8.2248   22.0754 C   0  0  0  0  0  0
  -22.4296   -8.0290   21.3545 C   0  0  0  0  0  0
  -21.9945   -9.0266   20.4644 C   0  0  0  0  0  0
  -22.7293  -10.2135   20.3047 C   0  0  0  0  0  0
  -21.6860   -6.0742   22.5279 C   0  0  0  0  0  0
  -21.4020   -6.5644   23.8213 C   0  0  0  0  0  0
  -21.3660   -5.6795   24.9174 C   0  0  0  0  0  0
  -21.6043   -4.3057   24.7223 C   0  0  0  0  0  0
  -21.8818   -3.8151   23.4344 C   0  0  0  0  0  0
  -21.9195   -4.6969   22.3401 C   0  0  0  0  0  0
  -22.7713  -13.5153   21.1928 C   0  0  0  0  0  0
  -22.1662   -4.2154   21.0979 F   0  0  0  0  0  0
  -21.5627   -3.4540   25.7735 F   0  0  0  0  0  0
  -29.7500  -14.3765   20.2532 N   0  0  0  0  0  0
  -26.2766  -12.9654   20.3247 N   0  0  0  0  0  0
  -25.9376  -11.6711   20.5692 N   0  0  0  0  0  0
  -22.0381  -12.8128   22.0480 N   0  0  0  0  0  0
  -25.3868  -15.2043   20.4253 N   0  0  0  0  0  0
  -31.4896  -15.6885   20.1870 O   0  0  0  0  0  0
  -21.6650   -6.8891   21.4243 O   0  0  0  0  0  0
  -22.3385  -14.5450   20.6762 O   0  0  0  0  0  0
  -24.6936  -31.7881   23.1428 C   0  0  0  0  0  0
  -25.9467  -32.4408   23.8014 C   0  0  1  0  0  0
  -27.2314  -26.6000   20.2259 C   0  0  0  0  0  0
  -25.6003  -33.8239   24.1889 N   0  0  0  0  0  0
  -23.5248  -30.3852   21.4992 C   0  0  2  0  0  0
  -24.9837  -28.7043   20.1217 C   0  0  0  0  0  0
  -22.7812  -29.4252   22.4682 C   0  0  0  0  0  0
  -18.0345  -28.1427   22.8448 C   0  0  0  0  0  0
  -24.1496  -36.7128   23.2656 C   0  0  0  0  0  0
  -26.1099  -30.4873   21.4229 C   0  0  0  0  0  0
  -26.1749  -29.0406   20.7752 C   0  0  0  0  0  0
  -27.2793  -28.0201   20.7903 C   0  0  0  0  0  0
  -26.0052  -26.4991   19.5134 C   0  0  0  0  0  0
  -24.9440  -27.4606   19.4663 C   0  0  0  0  0  0
  -23.7849  -29.6724   20.1393 C   0  0  0  0  0  0
  -25.4150  -36.2860   24.0273 C   0  0  1  0  0  0
  -20.5986  -28.3792   23.1121 C   0  0  2  0  0  0
  -20.6806  -26.9441   22.5405 C   0  0  0  0  0  0
  -19.5784  -26.6367   21.5217 C   0  0  0  0  0  0
  -18.1967  -26.7952   22.1618 C   0  0  0  0  0  0
  -19.1614  -28.8936   23.2762 C   0  0  0  0  0  0
  -18.9518  -30.1517   23.8813 C   0  0  0  0  0  0
  -17.6507  -30.6607   24.0547 C   0  0  0  0  0  0
  -25.9137  -34.9253   23.4926 C   0  0  0  0  0  0
  -16.5395  -29.9086   23.6353 C   0  0  0  0  0  0
  -16.7324  -28.6509   23.0369 C   0  0  0  0  0  0
  -26.4611  -31.6488   25.0681 C   0  0  0  0  0  0
  -25.3648  -31.3836   26.1276 C   0  0  0  0  0  0
  -27.0562  -30.2813   24.6660 C   0  0  0  0  0  0
  -27.6036  -32.4377   25.7508 C   0  0  0  0  0  0
  -27.5560  -37.1721   24.8466 C   0  0  0  0  0  0
  -21.4449  -29.3019   22.3429 N   0  0  0  0  0  0
  -26.4267  -37.3633   23.9406 N   0  0  0  0  0  0
  -24.8007  -30.9224   22.0738 N   0  0  0  0  0  0
  -23.4206  -28.7870   23.3076 O   0  0  0  0  0  0
  -28.1813  -25.3340   20.2925 O   0  0  0  0  0  0
  -26.5793  -34.8851   22.4554 O   0  0  0  0  0  0
  -23.5932  -32.1003   23.6316 O   0  0  0  0  0  0
  -31.2233  -20.8510   20.4443 C   0  0  0  0  0  0
  -30.3278  -21.9742   20.3863 C   0  0  0  0  0  0
  -30.8973  -19.4510   20.4170 C   0  0  0  0  0  0
  -28.6498  -20.2656   20.2683 C   0  0  0  0  0  0
  -28.9175  -21.8849   20.2883 C   0  0  0  0  0  0
  -29.5860  -18.9200   20.3295 C   0  0  0  0  0  0
  -27.9553  -23.5403   20.1946 C   0  0  0  0  0  0
  -29.4678  -17.1584   20.3338 N   0  0  0  0  0  0
  -31.3972  -13.4683   19.1574 H   0  0  0  0  0  0
  -30.6150  -12.3654   20.2348 H   0  0  0  0  0  0
  -30.0382  -11.8449   17.8404 H   0  0  0  0  0  0
  -29.4933  -13.4857   17.5947 H   0  0  0  0  0  0
  -28.1920  -11.3161   19.2495 H   0  0  0  0  0  0
  -27.4721  -12.2092   17.9298 H   0  0  0  0  0  0
  -27.4353  -14.2232   19.2177 H   0  0  0  0  0  0
  -28.8922  -12.8505   21.5245 H   0  0  0  0  0  0
  -28.1402  -14.4228   21.6061 H   0  0  0  0  0  0
  -25.2799   -9.5677   22.4764 H   0  0  0  0  0  0
  -24.0015   -7.4641   22.7480 H   0  0  0  0  0  0
  -21.0874   -8.8796   19.8951 H   0  0  0  0  0  0
  -22.3752  -10.9677   19.6160 H   0  0  0  0  0  0
  -21.2015   -7.6152   23.9718 H   0  0  0  0  0  0
  -21.1481   -6.0525   25.9077 H   0  0  0  0  0  0
  -22.0595   -2.7612   23.2843 H   0  0  0  0  0  0
  -22.4028  -11.9810   22.4881 H   0  0  0  0  0  0
  -21.0984  -13.1116   22.2673 H   0  0  0  0  0  0
  -24.6121  -15.8494   20.5375 H   0  0  0  0  0  0
  -26.2233  -15.6482   20.0710 H   0  0  0  0  0  0
  -26.7560  -32.4853   23.0732 H   0  0  0  0  0  0
  -25.0040  -33.9259   24.9969 H   0  0  0  0  0  0
  -22.8560  -31.2251   21.3001 H   0  0  0  0  0  0
  -23.3778  -35.9436   23.3259 H   0  0  0  0  0  0
  -24.3559  -36.8857   22.2082 H   0  0  0  0  0  0
  -23.7237  -37.6279   23.6781 H   0  0  0  0  0  0
  -26.3235  -31.2052   20.6299 H   0  0  0  0  0  0
  -26.9566  -30.5591   22.0929 H   0  0  0  0  0  0
  -28.1740  -28.2884   21.3341 H   0  0  0  0  0  0
  -25.8210  -25.5639   19.0038 H   0  0  0  0  0  0
  -24.0480  -27.1923   18.9234 H   0  0  0  0  0  0
  -23.9691  -30.4280   19.3747 H   0  0  0  0  0  0
  -22.8876  -29.1444   19.8122 H   0  0  0  0  0  0
  -25.1366  -36.1607   25.0763 H   0  0  0  0  0  0
  -21.0064  -28.3426   24.1249 H   0  0  0  0  0  0
  -20.5660  -26.2419   23.3677 H   0  0  0  0  0  0
  -21.6666  -26.7367   22.1230 H   0  0  0  0  0  0
  -19.6938  -25.6255   21.1303 H   0  0  0  0  0  0
  -19.6730  -27.3129   20.6710 H   0  0  0  0  0  0
  -17.4236  -26.6693   21.4021 H   0  0  0  0  0  0
  -18.0352  -26.0116   22.9034 H   0  0  0  0  0  0
  -19.7994  -30.7354   24.2146 H   0  0  0  0  0  0
  -17.5057  -31.6278   24.5166 H   0  0  0  0  0  0
  -15.5392  -30.2961   23.7726 H   0  0  0  0  0  0
  -15.8725  -28.0800   22.7132 H   0  0  0  0  0  0
  -24.5864  -30.7155   25.7572 H   0  0  0  0  0  0
  -24.8806  -32.3067   26.4469 H   0  0  0  0  0  0
  -25.7799  -30.9150   27.0207 H   0  0  0  0  0  0
  -26.3300  -29.6394   24.1665 H   0  0  0  0  0  0
  -27.3958  -29.7305   25.5442 H   0  0  0  0  0  0
  -27.9292  -30.3914   24.0226 H   0  0  0  0  0  0
  -27.2557  -33.3759   26.1844 H   0  0  0  0  0  0
  -28.3970  -32.6810   25.0429 H   0  0  0  0  0  0
  -28.0570  -31.8672   26.5625 H   0  0  0  0  0  0
  -28.2540  -38.0050   24.7512 H   0  0  0  0  0  0
  -28.1093  -36.2570   24.6297 H   0  0  0  0  0  0
  -27.2273  -37.1358   25.8868 H   0  0  0  0  0  0
  -20.9779  -29.8658   21.6465 H   0  0  0  0  0  0
  -26.0084  -38.2675   24.1421 H   0  0  0  0  0  0
  -32.2755  -21.0887   20.5173 H   0  0  0  0  0  0
  -30.7626  -22.9641   20.4154 H   0  0  0  0  0  0
  -31.7198  -18.7513   20.4730 H   0  0  0  0  0  0
  -27.5975  -20.0310   20.1940 H   0  0  0  0  0  0
  -27.1705  -23.3778   20.9334 H   0  0  0  0  0  0
  -27.4334  -23.4350   19.2435 H   0  0  0  0  0  0
  -28.4908  -16.9030   20.3508 H   0  0  0  0  0  0
  1 25  1  0  0  0
  1 30  2  0  0  0
  1 78  1  0  0  0
  2  3  1  0  0  0
  2 25  1  0  0  0
  2 79  1  0  0  0
  2 80  1  0  0  0
  3  4  1  0  0  0
  3 81  1  0  0  0
  3 82  1  0  0  0
  4  5  1  0  0  0
  4 83  1  0  0  0
  4 84  1  0  0  0
  5  6  1  0  0  0
  5 26  1  0  0  0
  5 85  1  0  0  0
  6 25  1  0  0  0
  6 86  1  0  0  0
  6 87  1  0  0  0
  7  8  2  0  0  0
  7 26  1  0  0  0
  7 29  1  0  0  0
  8  9  1  0  0  0
  8 22  1  0  0  0
  9 10  1  0  0  0
  9 27  2  0  0  0
 10 11  2  0  0  0
 10 15  1  0  0  0
 11 12  1  0  0  0
 11 88  1  0  0  0
 12 13  2  0  0  0
 12 89  1  0  0  0
 13 14  1  0  0  0
 13 31  1  0  0  0
 14 15  2  0  0  0
 14 90  1  0  0  0
 15 91  1  0  0  0
 16 17  2  0  0  0
 16 21  1  0  0  0
 16 31  1  0  0  0
 17 18  1  0  0  0
 17 92  1  0  0  0
 18 19  2  0  0  0
 18 93  1  0  0  0
 19 20  1  0  0  0
 19 24  1  0  0  0
 20 21  2  0  0  0
 20 94  1  0  0  0
 21 23  1  0  0  0
 22 28  1  0  0  0
 22 32  2  0  0  0
 26 27  1  0  0  0
 28 95  1  0  0  0
 28 96  1  0  0  0
 29 97  1  0  0  0
 29 98  1  0  0  0
 33 34  1  0  0  0
 33 66  1  0  0  0
 33 70  2  0  0  0
 34 36  1  0  0  0
 34 59  1  0  0  0
 34 99  1  0  0  0
 35 44  2  0  0  0
 35 45  1  0  0  0
 35 68  1  0  0  0
 36 56  1  0  0  0
 36100  1  0  0  0
 37 39  1  0  0  0
 37 47  1  0  0  0
 37 66  1  0  0  0
 37101  1  0  0  0
 38 43  2  0  0  0
 38 46  1  0  0  0
 38 47  1  0  0  0
 39 64  1  0  0  0
 39 67  2  0  0  0
 40 52  1  0  0  0
 40 53  2  0  0  0
 40 58  1  0  0  0
 41102  1  0  0  0
 41103  1  0  0  0
 41104  1  0  0  0
 41 48  1  0  0  0
 42 43  1  0  0  0
 42 66  1  0  0  0
 42105  1  0  0  0
 42106  1  0  0  0
 43 44  1  0  0  0
 44107  1  0  0  0
 45 46  2  0  0  0
 45108  1  0  0  0
 46109  1  0  0  0
 47110  1  0  0  0
 47111  1  0  0  0
 48 56  1  0  0  0
 48 65  1  0  0  0
 48112  1  0  0  0
 49 50  1  0  0  0
 49 53  1  0  0  0
 49 64  1  0  0  0
 49113  1  0  0  0
 50 51  1  0  0  0
 50114  1  0  0  0
 50115  1  0  0  0
 51 52  1  0  0  0
 51116  1  0  0  0
 51117  1  0  0  0
 52118  1  0  0  0
 52119  1  0  0  0
 53 54  1  0  0  0
 54 55  2  0  0  0
 54120  1  0  0  0
 55 57  1  0  0  0
 55121  1  0  0  0
 56 69  2  0  0  0
 57 58  2  0  0  0
 57122  1  0  0  0
 58123  1  0  0  0
 59 60  1  0  0  0
 59 61  1  0  0  0
 59 62  1  0  0  0
 60124  1  0  0  0
 60125  1  0  0  0
 60126  1  0  0  0
 61127  1  0  0  0
 61128  1  0  0  0
 61129  1  0  0  0
 62130  1  0  0  0
 62131  1  0  0  0
 62132  1  0  0  0
 63 65  1  0  0  0
 63133  1  0  0  0
 63134  1  0  0  0
 63135  1  0  0  0
 64136  1  0  0  0
 65137  1  0  0  0
 68 77  1  0  0  0
 71 72  2  0  0  0
 71 73  1  0  0  0
 71138  1  0  0  0
 72 75  1  0  0  0
 72139  1  0  0  0
 73 76  2  0  0  0
 73140  1  0  0  0
 74 75  2  0  0  0
 74 76  1  0  0  0
 74141  1  0  0  0
 75 77  1  0  0  0
 76 78  1  0  0  0
 77142  1  0  0  0
 77143  1  0  0  0
 78144  1  0  0  0
M  ISO  4   1 100  68 101  77 101  78 100
M  END
> <chiral flag>
0

> <version>
0

> <s_m_source_file>
/data/baiqing/PycharmProjects/Reinvent-master-3.2/result/LINK_invent/BTK/process_docking_weight1_custom_product_contain_oxygen_bond_distance_aromatic_linkinvent_7_9_3/rearranged_h_0001.sdf

> <i_m_source_file_index>
88

> <r_mmod_Potential_Energy-OPLS-2005>
2813.380859375

> <r_mmod_Stretch_Energy-OPLS-2005>
1256.92761230469

> <r_mmod_Bend_Energy-OPLS-2005>
641.894226074219

> <r_mmod_Torsional_Energy-OPLS-2005>
222.88850402832

> <r_mmod_Improper_Torsional_Energy-OPLS-2005>
4.12787246704102

> <r_mmod_Van_der_Waal_Energy-OPLS-2005>
126.438247680664

> <r_mmod_Electrostatic_Energy-OPLS-2005>
-346.341064453125

> <r_mmod_Solvation_Energy-OPLS-2005>
-213.760787963867

> <b_mmod_Minimization_Converged-OPLS-2005>
0

> <r_mmod_RMS_Derivative-OPLS-2005>
0.157229289412498

$$$$
88
                    3D
 Structure written by MMmdl.
163172  0  0  1  0            999 V2000
  -30.7192  -14.6325   20.4872 C   0  0  0  0  0  0
  -30.4236  -12.3848   19.4603 C   0  0  0  0  0  0
  -29.4981  -12.4088   18.2269 C   0  0  0  0  0  0
  -28.0260  -12.2455   18.6516 C   0  0  0  0  0  0
  -27.6341  -13.1656   19.8316 C   0  0  2  0  0  0
  -28.6908  -13.1459   20.9675 C   0  0  0  0  0  0
  -25.2529  -13.8020   20.5683 C   0  0  0  0  0  0
  -24.1779  -13.0351   20.9225 C   0  0  0  0  0  0
  -24.6310  -11.6818   20.8796 C   0  0  0  0  0  0
  -23.8985  -10.4238   21.0451 C   0  0  0  0  0  0
  -24.3564   -9.4160   21.9213 C   0  0  0  0  0  0
  -23.6256   -8.2192   22.0760 C   0  0  0  0  0  0
  -22.4242   -8.0241   21.3543 C   0  0  0  0  0  0
  -21.9865   -9.0213   20.4651 C   0  0  0  0  0  0
  -22.7176  -10.2097   20.3076 C   0  0  0  0  0  0
  -21.6835   -6.0712   22.5281 C   0  0  0  0  0  0
  -21.4000   -6.5625   23.8211 C   0  0  0  0  0  0
  -21.3655   -5.6784   24.9177 C   0  0  0  0  0  0
  -21.6045   -4.3047   24.7231 C   0  0  0  0  0  0
  -21.8823   -3.8133   23.4355 C   0  0  0  0  0  0
  -21.9190   -4.6945   22.3408 C   0  0  0  0  0  0
  -22.7821  -13.5202   21.1880 C   0  0  0  0  0  0
  -22.1661   -4.2133   21.0984 F   0  0  0  0  0  0
  -21.5633   -3.4536   25.7748 F   0  0  0  0  0  0
  -29.9984  -13.4654   20.3775 N   0  0  0  0  0  0
  -26.2886  -12.9101   20.3247 N   0  0  0  0  0  0
  -25.9210  -11.6325   20.5810 N   0  0  0  0  0  0
  -22.0445  -12.8223   22.0441 N   0  0  0  0  0  0
  -25.4180  -15.1740   20.4102 N   0  0  0  0  0  0
  -31.9080  -14.6446   20.1605 O   0  0  0  0  0  0
  -21.6611   -6.8842   21.4237 O   0  0  0  0  0  0
  -22.3535  -14.5518   20.6722 O   0  0  0  0  0  0
  -24.6184  -31.8658   23.2083 C   0  0  0  0  0  0
  -25.9060  -32.4814   23.8389 C   0  0  1  0  0  0
  -27.2357  -27.3996   20.1162 C   0  0  0  0  0  0
  -25.5904  -33.8612   24.2321 N   0  0  0  0  0  0
  -23.4095  -30.4889   21.5485 C   0  0  2  0  0  0
  -24.8603  -28.9554   20.1110 C   0  0  0  0  0  0
  -22.7438  -29.4646   22.4966 C   0  0  0  0  0  0
  -18.0279  -28.1380   22.8490 C   0  0  0  0  0  0
  -24.1487  -36.7310   23.2638 C   0  0  0  0  0  0
  -25.9424  -30.8227   21.3676 C   0  0  0  0  0  0
  -26.0224  -29.4558   20.7129 C   0  0  0  0  0  0
  -27.2156  -28.6878   20.7091 C   0  0  0  0  0  0
  -26.0606  -26.9353   19.4840 C   0  0  0  0  0  0
  -24.8771  -27.6967   19.4881 C   0  0  0  0  0  0
  -23.6215  -29.8233   20.1627 C   0  0  0  0  0  0
  -25.4108  -36.3106   24.0338 C   0  0  1  0  0  0
  -20.5874  -28.3674   23.1305 C   0  0  2  0  0  0
  -20.6769  -26.9405   22.5417 C   0  0  0  0  0  0
  -19.5748  -26.6386   21.5212 C   0  0  0  0  0  0
  -18.1926  -26.7926   22.1622 C   0  0  0  0  0  0
  -19.1529  -28.8843   23.2895 C   0  0  0  0  0  0
  -18.9455  -30.1447   23.8908 C   0  0  0  0  0  0
  -17.6457  -30.6586   24.0565 C   0  0  0  0  0  0
  -25.9036  -34.9472   23.5127 C   0  0  0  0  0  0
  -16.5347  -29.9087   23.6326 C   0  0  0  0  0  0
  -16.7267  -28.6504   23.0348 C   0  0  0  0  0  0
  -26.4475  -31.6596   25.0725 C   0  0  0  0  0  0
  -25.3736  -31.3721   26.1475 C   0  0  0  0  0  0
  -27.0296  -30.3028   24.6118 C   0  0  0  0  0  0
  -27.6059  -32.4311   25.7479 C   0  0  0  0  0  0
  -27.5581  -37.1808   24.8466 C   0  0  0  0  0  0
  -21.4159  -29.3037   22.3706 N   0  0  0  0  0  0
  -26.4295  -37.3791   23.9408 N   0  0  0  0  0  0
  -24.6749  -31.0735   22.0997 N   0  0  0  0  0  0
  -23.4191  -28.8185   23.3021 O   0  0  0  0  0  0
  -28.3579  -26.5852   20.1663 O   0  0  0  0  0  0
  -26.5601  -34.8925   22.4691 O   0  0  0  0  0  0
  -23.5365  -32.1420   23.7455 O   0  0  0  0  0  0
  -32.4687  -18.4705   22.1707 C   0  0  0  0  0  0
  -31.6247  -19.6018   22.0378 C   0  0  0  0  0  0
  -32.0319  -17.1770   21.7992 C   0  0  0  0  0  0
  -30.3062  -19.4698   21.5408 C   0  0  0  0  0  0
  -29.8972  -18.1496   21.1885 C   0  0  0  0  0  0
  -30.7298  -17.0215   21.2779 C   0  0  0  0  0  0
  -27.3427  -17.7018   17.1680 C   0  0  0  0  0  0
  -27.5567  -16.6190   17.9309 C   0  0  0  0  0  0
  -29.3582  -20.6623   21.4903 C   0  0  0  0  0  0
  -29.2245  -24.2412   20.6785 C   0  0  0  0  0  0
  -28.5699  -17.7433   20.6384 C   0  0  0  0  0  0
  -28.8137  -16.2960   20.1517 C   0  0  1  0  0  0
  -28.8786  -16.2914   18.6001 C   0  0  0  0  0  0
  -28.1149  -25.3191   20.8463 C   0  0  0  0  0  0
  -30.0889  -15.8361   20.7600 N   0  0  0  0  0  0
  -29.8179  -21.8746   21.1040 N   0  0  0  0  0  0
  -28.9239  -23.0013   21.1264 N   0  0  0  0  0  0
  -28.1695  -20.5097   21.7887 O   0  0  0  0  0  0
  -30.3179  -24.5127   20.1726 O   0  0  0  0  0  0
  -31.4627  -12.4807   19.1408 H   0  0  0  0  0  0
  -30.3615  -11.4205   19.9670 H   0  0  0  0  0  0
  -29.7702  -11.5995   17.5482 H   0  0  0  0  0  0
  -29.6402  -13.3233   17.6554 H   0  0  0  0  0  0
  -27.8853  -11.2033   18.9404 H   0  0  0  0  0  0
  -27.3647  -12.4148   17.8008 H   0  0  0  0  0  0
  -27.5890  -14.1320   19.3580 H   0  0  0  0  0  0
  -28.7243  -12.1635   21.4404 H   0  0  0  0  0  0
  -28.4341  -13.8496   21.7601 H   0  0  0  0  0  0
  -25.2711   -9.5642   22.4784 H   0  0  0  0  0  0
  -23.9974   -7.4576   22.7467 H   0  0  0  0  0  0
  -21.0801   -8.8724   19.8952 H   0  0  0  0  0  0
  -22.3640  -10.9642   19.6189 H   0  0  0  0  0  0
  -21.1982   -7.6132   23.9707 H   0  0  0  0  0  0
  -21.1477   -6.0516   25.9080 H   0  0  0  0  0  0
  -22.0609   -2.7596   23.2861 H   0  0  0  0  0  0
  -22.4035  -11.9873   22.4831 H   0  0  0  0  0  0
  -21.1077  -13.1285   22.2653 H   0  0  0  0  0  0
  -24.6475  -15.8216   20.5333 H   0  0  0  0  0  0
  -26.2683  -15.6247   20.1037 H   0  0  0  0  0  0
  -26.7134  -32.5522   23.1155 H   0  0  0  0  0  0
  -25.0057  -33.9769   25.0470 H   0  0  0  0  0  0
  -22.6997  -31.3067   21.4086 H   0  0  0  0  0  0
  -23.3745  -35.9649   23.3317 H   0  0  0  0  0  0
  -24.3580  -36.8908   22.2049 H   0  0  0  0  0  0
  -23.7247  -37.6524   23.6641 H   0  0  0  0  0  0
  -26.0599  -31.5887   20.5997 H   0  0  0  0  0  0
  -26.8279  -30.8758   21.9892 H   0  0  0  0  0  0
  -28.1077  -29.0650   21.1896 H   0  0  0  0  0  0
  -26.0492  -25.9731   18.9922 H   0  0  0  0  0  0
  -23.9880  -27.3089   19.0101 H   0  0  0  0  0  0
  -23.7306  -30.5996   19.4045 H   0  0  0  0  0  0
  -22.7455  -29.2442   19.8652 H   0  0  0  0  0  0
  -25.1284  -36.1973   25.0831 H   0  0  0  0  0  0
  -20.9967  -28.3245   24.1425 H   0  0  0  0  0  0
  -20.5670  -26.2281   23.3608 H   0  0  0  0  0  0
  -21.6640  -26.7443   22.1213 H   0  0  0  0  0  0
  -19.6910  -25.6299   21.1236 H   0  0  0  0  0  0
  -19.6687  -27.3200   20.6746 H   0  0  0  0  0  0
  -17.4197  -26.6675   21.4023 H   0  0  0  0  0  0
  -18.0326  -26.0065   22.9016 H   0  0  0  0  0  0
  -19.7932  -30.7258   24.2284 H   0  0  0  0  0  0
  -17.5014  -31.6267   24.5165 H   0  0  0  0  0  0
  -15.5349  -30.2992   23.7643 H   0  0  0  0  0  0
  -15.8667  -28.0825   22.7059 H   0  0  0  0  0  0
  -24.5892  -30.7085   25.7816 H   0  0  0  0  0  0
  -24.8947  -32.2886   26.4932 H   0  0  0  0  0  0
  -25.8082  -30.8877   27.0228 H   0  0  0  0  0  0
  -26.2839  -29.6798   24.1165 H   0  0  0  0  0  0
  -27.4044  -29.7261   25.4585 H   0  0  0  0  0  0
  -27.8691  -30.4332   23.9285 H   0  0  0  0  0  0
  -27.2691  -33.3607   26.2078 H   0  0  0  0  0  0
  -28.3851  -32.6873   25.0288 H   0  0  0  0  0  0
  -28.0745  -31.8419   26.5372 H   0  0  0  0  0  0
  -28.2613  -38.0092   24.7500 H   0  0  0  0  0  0
  -28.1062  -36.2625   24.6300 H   0  0  0  0  0  0
  -27.2302  -37.1479   25.8870 H   0  0  0  0  0  0
  -20.9324  -29.8758   21.6925 H   0  0  0  0  0  0
  -26.0186  -38.2871   24.1402 H   0  0  0  0  0  0
  -33.4681  -18.5981   22.5636 H   0  0  0  0  0  0
  -31.9916  -20.5708   22.3483 H   0  0  0  0  0  0
  -32.7044  -16.3369   21.9001 H   0  0  0  0  0  0
  -26.3779  -17.8801   16.7140 H   0  0  0  0  0  0
  -28.1221  -18.4275   16.9834 H   0  0  0  0  0  0
  -26.7451  -15.9214   18.0824 H   0  0  0  0  0  0
  -28.2389  -18.4238   19.8534 H   0  0  0  0  0  0
  -27.8286  -17.7666   21.4389 H   0  0  0  0  0  0
  -27.9924  -15.7200   20.5530 H   0  0  0  0  0  0
  -29.6380  -16.9998   18.2635 H   0  0  0  0  0  0
  -29.1954  -15.3278   18.2169 H   0  0  0  0  0  0
  -28.0033  -25.5210   21.9125 H   0  0  0  0  0  0
  -27.1832  -24.8543   20.5250 H   0  0  0  0  0  0
  -30.7599  -22.1109   20.8214 H   0  0  0  0  0  0
  -28.0338  -22.7407   21.5349 H   0  0  0  0  0  0
  1 25  1  0  0  0
  1 30  2  0  0  0
  1 85  1  0  0  0
  2  3  1  0  0  0
  2 25  1  0  0  0
  2 90  1  0  0  0
  2 91  1  0  0  0
  3  4  1  0  0  0
  3 92  1  0  0  0
  3 93  1  0  0  0
  4  5  1  0  0  0
  4 94  1  0  0  0
  4 95  1  0  0  0
  5  6  1  0  0  0
  5 26  1  0  0  0
  5 96  1  0  0  0
  6 25  1  0  0  0
  6 97  1  0  0  0
  6 98  1  0  0  0
  7  8  2  0  0  0
  7 26  1  0  0  0
  7 29  1  0  0  0
  8  9  1  0  0  0
  8 22  1  0  0  0
  9 10  1  0  0  0
  9 27  2  0  0  0
 10 11  2  0  0  0
 10 15  1  0  0  0
 11 12  1  0  0  0
 11 99  1  0  0  0
 12 13  2  0  0  0
 12100  1  0  0  0
 13 14  1  0  0  0
 13 31  1  0  0  0
 14 15  2  0  0  0
 14101  1  0  0  0
 15102  1  0  0  0
 16 17  2  0  0  0
 16 21  1  0  0  0
 16 31  1  0  0  0
 17 18  1  0  0  0
 17103  1  0  0  0
 18 19  2  0  0  0
 18104  1  0  0  0
 19 20  1  0  0  0
 19 24  1  0  0  0
 20 21  2  0  0  0
 20105  1  0  0  0
 21 23  1  0  0  0
 22 28  1  0  0  0
 22 32  2  0  0  0
 26 27  1  0  0  0
 28106  1  0  0  0
 28107  1  0  0  0
 29108  1  0  0  0
 29109  1  0  0  0
 33 34  1  0  0  0
 33 66  1  0  0  0
 33 70  2  0  0  0
 34 36  1  0  0  0
 34 59  1  0  0  0
 34110  1  0  0  0
 35 44  2  0  0  0
 35 45  1  0  0  0
 35 68  1  0  0  0
 36 56  1  0  0  0
 36111  1  0  0  0
 37 39  1  0  0  0
 37 47  1  0  0  0
 37 66  1  0  0  0
 37112  1  0  0  0
 38 43  2  0  0  0
 38 46  1  0  0  0
 38 47  1  0  0  0
 39 64  1  0  0  0
 39 67  2  0  0  0
 40 52  1  0  0  0
 40 53  2  0  0  0
 40 58  1  0  0  0
 41113  1  0  0  0
 41114  1  0  0  0
 41115  1  0  0  0
 41 48  1  0  0  0
 42 43  1  0  0  0
 42 66  1  0  0  0
 42116  1  0  0  0
 42117  1  0  0  0
 43 44  1  0  0  0
 44118  1  0  0  0
 45 46  2  0  0  0
 45119  1  0  0  0
 46120  1  0  0  0
 47121  1  0  0  0
 47122  1  0  0  0
 48 56  1  0  0  0
 48 65  1  0  0  0
 48123  1  0  0  0
 49 50  1  0  0  0
 49 53  1  0  0  0
 49 64  1  0  0  0
 49124  1  0  0  0
 50 51  1  0  0  0
 50125  1  0  0  0
 50126  1  0  0  0
 51 52  1  0  0  0
 51127  1  0  0  0
 51128  1  0  0  0
 52129  1  0  0  0
 52130  1  0  0  0
 53 54  1  0  0  0
 54 55  2  0  0  0
 54131  1  0  0  0
 55 57  1  0  0  0
 55132  1  0  0  0
 56 69  2  0  0  0
 57 58  2  0  0  0
 57133  1  0  0  0
 58134  1  0  0  0
 59 60  1  0  0  0
 59 61  1  0  0  0
 59 62  1  0  0  0
 60135  1  0  0  0
 60136  1  0  0  0
 60137  1  0  0  0
 61138  1  0  0  0
 61139  1  0  0  0
 61140  1  0  0  0
 62141  1  0  0  0
 62142  1  0  0  0
 62143  1  0  0  0
 63 65  1  0  0  0
 63144  1  0  0  0
 63145  1  0  0  0
 63146  1  0  0  0
 64147  1  0  0  0
 65148  1  0  0  0
 68 84  1  0  0  0
 71 72  2  0  0  0
 71 73  1  0  0  0
 71149  1  0  0  0
 72 74  1  0  0  0
 72150  1  0  0  0
 73 76  2  0  0  0
 73151  1  0  0  0
 74 75  2  0  0  0
 74 79  1  0  0  0
 75 76  1  0  0  0
 75 81  1  0  0  0
 76 85  1  0  0  0
 77 78  2  0  0  0
 77152  1  0  0  0
 77153  1  0  0  0
 78 83  1  0  0  0
 78154  1  0  0  0
 79 86  1  0  0  0
 79 88  2  0  0  0
 80 84  1  0  0  0
 80 87  1  0  0  0
 80 89  2  0  0  0
 81 82  1  0  0  0
 81155  1  0  0  0
 81156  1  0  0  0
 82 83  1  0  0  0
 82 85  1  0  0  0
 82157  1  0  0  0
 83158  1  0  0  0
 83159  1  0  0  0
 84160  1  0  0  0
 84161  1  0  0  0
 86 87  1  0  0  0
 86162  1  0  0  0
 87163  1  0  0  0
M  ISO  4   1 100  68 101  84 101  85 100
M  END
> <chiral flag>
0

> <version>
0

> <s_m_source_file>
/data/baiqing/PycharmProjects/Reinvent-master-3.2/result/LINK_invent/BTK/process_docking_weight1_custom_product_contain_oxygen_bond_distance_aromatic_linkinvent_7_9_3/rearranged_h_0001.sdf

> <i_m_source_file_index>
89

> <r_mmod_Potential_Energy-OPLS-2005>
171.055740356445

> <r_mmod_Stretch_Energy-OPLS-2005>
57.919376373291

> <r_mmod_Bend_Energy-OPLS-2005>
185.516204833984

> <r_mmod_Torsional_Energy-OPLS-2005>
307.55908203125

> <r_mmod_Improper_Torsional_Energy-OPLS-2005>
5.61226606369019

> <r_mmod_Van_der_Waal_Energy-OPLS-2005>
153.151397705078

> <r_mmod_Electrostatic_Energy-OPLS-2005>
-358.314605712891

> <r_mmod_Solvation_Energy-OPLS-2005>
-226.250961303711

> <b_mmod_Minimization_Converged-OPLS-2005>
0

> <r_mmod_RMS_Derivative-OPLS-2005>
0.35054337978363

$$$$
89
                    3D
 Structure written by MMmdl.
147155  0  0  1  0            999 V2000
  -30.4075  -15.3385   20.3686 C   0  0  0  0  0  0
  -30.4394  -12.8683   19.5103 C   0  0  0  0  0  0
  -29.5353  -12.5855   18.2833 C   0  0  0  0  0  0
  -28.0893  -12.2930   18.7211 C   0  0  0  0  0  0
  -27.6063  -13.2779   19.8137 C   0  0  2  0  0  0
  -28.6417  -13.4868   20.9380 C   0  0  0  0  0  0
  -25.2377  -13.8243   20.5753 C   0  0  0  0  0  0
  -24.1737  -13.0429   20.9269 C   0  0  0  0  0  0
  -24.6398  -11.6928   20.8766 C   0  0  0  0  0  0
  -23.9094  -10.4288   21.0407 C   0  0  0  0  0  0
  -24.3638   -9.4202   21.9186 C   0  0  0  0  0  0
  -23.6304   -8.2241   22.0755 C   0  0  0  0  0  0
  -22.4285   -8.0282   21.3545 C   0  0  0  0  0  0
  -21.9928   -9.0257   20.4645 C   0  0  0  0  0  0
  -22.7265  -10.2131   20.3055 C   0  0  0  0  0  0
  -21.6855   -6.0738   22.5279 C   0  0  0  0  0  0
  -21.4016   -6.5641   23.8213 C   0  0  0  0  0  0
  -21.3660   -5.6793   24.9174 C   0  0  0  0  0  0
  -21.6044   -4.3056   24.7225 C   0  0  0  0  0  0
  -21.8819   -3.8148   23.4346 C   0  0  0  0  0  0
  -21.9193   -4.6965   22.3402 C   0  0  0  0  0  0
  -22.7753  -13.5180   21.1913 C   0  0  0  0  0  0
  -22.1661   -4.2151   21.0979 F   0  0  0  0  0  0
  -21.5628   -3.4539   25.7737 F   0  0  0  0  0  0
  -29.8534  -14.0220   20.2918 N   0  0  0  0  0  0
  -26.2801  -12.9521   20.3202 N   0  0  0  0  0  0
  -25.9334  -11.6624   20.5711 N   0  0  0  0  0  0
  -22.0412  -12.8161   22.0465 N   0  0  0  0  0  0
  -25.3993  -15.1980   20.4188 N   0  0  0  0  0  0
  -31.6420  -15.3254   20.2462 O   0  0  0  0  0  0
  -21.6644   -6.8882   21.4242 O   0  0  0  0  0  0
  -22.3433  -14.5481   20.6751 O   0  0  0  0  0  0
  -24.6676  -31.8193   23.1665 C   0  0  0  0  0  0
  -25.9335  -32.4567   23.8148 C   0  0  1  0  0  0
  -27.2191  -26.8807   20.2005 C   0  0  0  0  0  0
  -25.5984  -33.8383   24.2051 N   0  0  0  0  0  0
  -23.4844  -30.4287   21.5177 C   0  0  2  0  0  0
  -24.9377  -28.8020   20.1222 C   0  0  0  0  0  0
  -22.7687  -29.4421   22.4778 C   0  0  0  0  0  0
  -18.0326  -28.1411   22.8465 C   0  0  0  0  0  0
  -24.1494  -36.7197   23.2648 C   0  0  0  0  0  0
  -26.0566  -30.6118   21.4026 C   0  0  0  0  0  0
  -26.1252  -29.1943   20.7534 C   0  0  0  0  0  0
  -27.2630  -28.2590   20.7592 C   0  0  0  0  0  0
  -25.9986  -26.6489   19.5275 C   0  0  0  0  0  0
  -24.9018  -27.5500   19.4879 C   0  0  0  0  0  0
  -23.7278  -29.7379   20.1478 C   0  0  0  0  0  0
  -25.4137  -36.2954   24.0296 C   0  0  1  0  0  0
  -20.5953  -28.3760   23.1180 C   0  0  2  0  0  0
  -20.6801  -26.9438   22.5402 C   0  0  0  0  0  0
  -19.5775  -26.6377   21.5215 C   0  0  0  0  0  0
  -18.1957  -26.7943   22.1622 C   0  0  0  0  0  0
  -19.1588  -28.8907   23.2808 C   0  0  0  0  0  0
  -18.9497  -30.1496   23.8845 C   0  0  0  0  0  0
  -17.6489  -30.6599   24.0554 C   0  0  0  0  0  0
  -25.9105  -34.9339   23.4997 C   0  0  0  0  0  0
  -16.5379  -29.9085   23.6345 C   0  0  0  0  0  0
  -16.7307  -28.6506   23.0363 C   0  0  0  0  0  0
  -26.4569  -31.6528   25.0695 C   0  0  0  0  0  0
  -25.3682  -31.3791   26.1341 C   0  0  0  0  0  0
  -27.0475  -30.2890   24.6459 C   0  0  0  0  0  0
  -27.6050  -32.4348   25.7505 C   0  0  0  0  0  0
  -27.5568  -37.1756   24.8467 C   0  0  0  0  0  0
  -21.4353  -29.3043   22.3525 N   0  0  0  0  0  0
  -26.4278  -37.3695   23.9408 N   0  0  0  0  0  0
  -24.7582  -30.9814   22.0825 N   0  0  0  0  0  0
  -23.4213  -28.7999   23.3043 O   0  0  0  0  0  0
  -28.2246  -25.7619   20.1857 O   0  0  0  0  0  0
  -26.5721  -34.8883   22.4598 O   0  0  0  0  0  0
  -23.5734  -32.1182   23.6731 O   0  0  0  0  0  0
  -28.9453  -21.1695   17.9988 C   0  0  0  0  0  0
  -29.2196  -19.9454   18.6761 C   0  0  0  0  0  0
  -28.6601  -22.4175   18.6269 C   0  0  0  0  0  0
  -28.9239  -21.2205   20.7003 C   0  0  0  0  0  0
  -29.2567  -19.8277   20.0822 C   0  0  0  0  0  0
  -28.6045  -22.5905   20.0271 C   0  0  0  0  0  0
  -29.8038  -18.2707   20.7308 C   0  0  0  0  0  0
  -28.0097  -24.1588   20.6024 C   0  0  0  0  0  0
  -29.6295  -16.6212   20.3858 N   0  0  0  0  0  0
  -31.4482  -13.0988   19.1653 H   0  0  0  0  0  0
  -30.5387  -11.9797   20.1359 H   0  0  0  0  0  0
  -29.9296  -11.7509   17.7022 H   0  0  0  0  0  0
  -29.5454  -13.4526   17.6211 H   0  0  0  0  0  0
  -28.0631  -11.2750   19.1117 H   0  0  0  0  0  0
  -27.4172  -12.3093   17.8623 H   0  0  0  0  0  0
  -27.5076  -14.2341   19.2984 H   0  0  0  0  0  0
  -28.8363  -12.5627   21.4844 H   0  0  0  0  0  0
  -28.2690  -14.2079   21.6672 H   0  0  0  0  0  0
  -25.2779   -9.5677   22.4767 H   0  0  0  0  0  0
  -24.0008   -7.4632   22.7477 H   0  0  0  0  0  0
  -21.0859   -8.8781   19.8951 H   0  0  0  0  0  0
  -22.3724  -10.9673   19.6167 H   0  0  0  0  0  0
  -21.2010   -7.6149   23.9716 H   0  0  0  0  0  0
  -21.1482   -6.0523   25.9077 H   0  0  0  0  0  0
  -22.0597   -2.7610   23.2845 H   0  0  0  0  0  0
  -22.4047  -11.9832   22.4857 H   0  0  0  0  0  0
  -21.1022  -13.1164   22.2666 H   0  0  0  0  0  0
  -24.6265  -15.8451   20.5329 H   0  0  0  0  0  0
  -26.2357  -15.6418   20.0643 H   0  0  0  0  0  0
  -26.7408  -32.5095   23.0864 H   0  0  0  0  0  0
  -25.0072  -33.9453   25.0163 H   0  0  0  0  0  0
  -22.8002  -31.2613   21.3415 H   0  0  0  0  0  0
  -23.3771  -35.9511   23.3272 H   0  0  0  0  0  0
  -24.3570  -36.8885   22.2070 H   0  0  0  0  0  0
  -23.7237  -37.6366   23.6734 H   0  0  0  0  0  0
  -26.2389  -31.3476   20.6182 H   0  0  0  0  0  0
  -26.9157  -30.6743   22.0585 H   0  0  0  0  0  0
  -28.1689  -28.5669   21.2622 H   0  0  0  0  0  0
  -25.8699  -25.6954   19.0348 H   0  0  0  0  0  0
  -24.0014  -27.2428   18.9738 H   0  0  0  0  0  0
  -23.8906  -30.5027   19.3876 H   0  0  0  0  0  0
  -22.8360  -29.1960   19.8281 H   0  0  0  0  0  0
  -25.1338  -36.1743   25.0787 H   0  0  0  0  0  0
  -21.0037  -28.3369   24.1305 H   0  0  0  0  0  0
  -20.5680  -26.2380   23.3646 H   0  0  0  0  0  0
  -21.6664  -26.7409   22.1210 H   0  0  0  0  0  0
  -19.6934  -25.6274   21.1279 H   0  0  0  0  0  0
  -19.6713  -27.3158   20.6722 H   0  0  0  0  0  0
  -17.4226  -26.6685   21.4027 H   0  0  0  0  0  0
  -18.0352  -26.0099   22.9032 H   0  0  0  0  0  0
  -19.7972  -30.7327   24.2191 H   0  0  0  0  0  0
  -17.5039  -31.6274   24.5166 H   0  0  0  0  0  0
  -15.5377  -30.2969   23.7699 H   0  0  0  0  0  0
  -15.8708  -28.0806   22.7109 H   0  0  0  0  0  0
  -24.5883  -30.7122   25.7647 H   0  0  0  0  0  0
  -24.8852  -32.2996   26.4628 H   0  0  0  0  0  0
  -25.7902  -30.9048   27.0211 H   0  0  0  0  0  0
  -26.3154  -29.6552   24.1444 H   0  0  0  0  0  0
  -27.3969  -29.7271   25.5132 H   0  0  0  0  0  0
  -27.9108  -30.4062   23.9907 H   0  0  0  0  0  0
  -27.2610  -33.3698   26.1940 H   0  0  0  0  0  0
  -28.3937  -32.6831   25.0390 H   0  0  0  0  0  0
  -28.0634  -31.8571   26.5540 H   0  0  0  0  0  0
  -28.2565  -38.0071   24.7512 H   0  0  0  0  0  0
  -28.1085  -36.2596   24.6297 H   0  0  0  0  0  0
  -27.2284  -37.1400   25.8869 H   0  0  0  0  0  0
  -20.9620  -29.8722   21.6636 H   0  0  0  0  0  0
  -26.0121  -38.2751   24.1416 H   0  0  0  0  0  0
  -28.9516  -21.1496   16.9175 H   0  0  0  0  0  0
  -29.4437  -19.0700   18.0814 H   0  0  0  0  0  0
  -28.4390  -23.2690   17.9978 H   0  0  0  0  0  0
  -28.9082  -21.2402   21.7811 H   0  0  0  0  0  0
  -29.5077  -18.3294   21.7784 H   0  0  0  0  0  0
  -30.8867  -18.3942   20.7676 H   0  0  0  0  0  0
  -28.2486  -24.1429   21.6657 H   0  0  0  0  0  0
  -26.9275  -24.0300   20.5824 H   0  0  0  0  0  0
  -28.6486  -16.3991   20.3052 H   0  0  0  0  0  0
  1 25  1  0  0  0
  1 30  2  0  0  0
  1 79  1  0  0  0
  2  3  1  0  0  0
  2 25  1  0  0  0
  2 80  1  0  0  0
  2 81  1  0  0  0
  3  4  1  0  0  0
  3 82  1  0  0  0
  3 83  1  0  0  0
  4  5  1  0  0  0
  4 84  1  0  0  0
  4 85  1  0  0  0
  5  6  1  0  0  0
  5 26  1  0  0  0
  5 86  1  0  0  0
  6 25  1  0  0  0
  6 87  1  0  0  0
  6 88  1  0  0  0
  7  8  2  0  0  0
  7 26  1  0  0  0
  7 29  1  0  0  0
  8  9  1  0  0  0
  8 22  1  0  0  0
  9 10  1  0  0  0
  9 27  2  0  0  0
 10 11  2  0  0  0
 10 15  1  0  0  0
 11 12  1  0  0  0
 11 89  1  0  0  0
 12 13  2  0  0  0
 12 90  1  0  0  0
 13 14  1  0  0  0
 13 31  1  0  0  0
 14 15  2  0  0  0
 14 91  1  0  0  0
 15 92  1  0  0  0
 16 17  2  0  0  0
 16 21  1  0  0  0
 16 31  1  0  0  0
 17 18  1  0  0  0
 17 93  1  0  0  0
 18 19  2  0  0  0
 18 94  1  0  0  0
 19 20  1  0  0  0
 19 24  1  0  0  0
 20 21  2  0  0  0
 20 95  1  0  0  0
 21 23  1  0  0  0
 22 28  1  0  0  0
 22 32  2  0  0  0
 26 27  1  0  0  0
 28 96  1  0  0  0
 28 97  1  0  0  0
 29 98  1  0  0  0
 29 99  1  0  0  0
 33 34  1  0  0  0
 33 66  1  0  0  0
 33 70  2  0  0  0
 34 36  1  0  0  0
 34 59  1  0  0  0
 34100  1  0  0  0
 35 44  2  0  0  0
 35 45  1  0  0  0
 35 68  1  0  0  0
 36 56  1  0  0  0
 36101  1  0  0  0
 37 39  1  0  0  0
 37 47  1  0  0  0
 37 66  1  0  0  0
 37102  1  0  0  0
 38 43  2  0  0  0
 38 46  1  0  0  0
 38 47  1  0  0  0
 39 64  1  0  0  0
 39 67  2  0  0  0
 40 52  1  0  0  0
 40 53  2  0  0  0
 40 58  1  0  0  0
 41103  1  0  0  0
 41104  1  0  0  0
 41105  1  0  0  0
 41 48  1  0  0  0
 42 43  1  0  0  0
 42 66  1  0  0  0
 42106  1  0  0  0
 42107  1  0  0  0
 43 44  1  0  0  0
 44108  1  0  0  0
 45 46  2  0  0  0
 45109  1  0  0  0
 46110  1  0  0  0
 47111  1  0  0  0
 47112  1  0  0  0
 48 56  1  0  0  0
 48 65  1  0  0  0
 48113  1  0  0  0
 49 50  1  0  0  0
 49 53  1  0  0  0
 49 64  1  0  0  0
 49114  1  0  0  0
 50 51  1  0  0  0
 50115  1  0  0  0
 50116  1  0  0  0
 51 52  1  0  0  0
 51117  1  0  0  0
 51118  1  0  0  0
 52119  1  0  0  0
 52120  1  0  0  0
 53 54  1  0  0  0
 54 55  2  0  0  0
 54121  1  0  0  0
 55 57  1  0  0  0
 55122  1  0  0  0
 56 69  2  0  0  0
 57 58  2  0  0  0
 57123  1  0  0  0
 58124  1  0  0  0
 59 60  1  0  0  0
 59 61  1  0  0  0
 59 62  1  0  0  0
 60125  1  0  0  0
 60126  1  0  0  0
 60127  1  0  0  0
 61128  1  0  0  0
 61129  1  0  0  0
 61130  1  0  0  0
 62131  1  0  0  0
 62132  1  0  0  0
 62133  1  0  0  0
 63 65  1  0  0  0
 63134  1  0  0  0
 63135  1  0  0  0
 63136  1  0  0  0
 64137  1  0  0  0
 65138  1  0  0  0
 68 78  1  0  0  0
 71 72  2  0  0  0
 71 73  1  0  0  0
 71139  1  0  0  0
 72 75  1  0  0  0
 72140  1  0  0  0
 73 76  2  0  0  0
 73141  1  0  0  0
 74 75  2  0  0  0
 74 76  1  0  0  0
 74142  1  0  0  0
 75 77  1  0  0  0
 76 78  1  0  0  0
 77 79  1  0  0  0
 77143  1  0  0  0
 77144  1  0  0  0
 78145  1  0  0  0
 78146  1  0  0  0
 79147  1  0  0  0
M  ISO  4   1 100  68 101  78 101  79 100
M  END
> <chiral flag>
0

> <version>
0

> <s_m_source_file>
/data/baiqing/PycharmProjects/Reinvent-master-3.2/result/LINK_invent/BTK/process_docking_weight1_custom_product_contain_oxygen_bond_distance_aromatic_linkinvent_7_9_3/rearranged_h_0001.sdf

> <i_m_source_file_index>
90

> <r_mmod_Potential_Energy-OPLS-2005>
1401.74060058594

> <r_mmod_Stretch_Energy-OPLS-2005>
643.052795410156

> <r_mmod_Bend_Energy-OPLS-2005>
451.203063964844

> <r_mmod_Torsional_Energy-OPLS-2005>
238.437026977539

> <r_mmod_Improper_Torsional_Energy-OPLS-2005>
6.01917123794556

> <r_mmod_Van_der_Waal_Energy-OPLS-2005>
122.058601379395

> <r_mmod_Electrostatic_Energy-OPLS-2005>
-377.779266357422

> <r_mmod_Solvation_Energy-OPLS-2005>
-214.792663574219

> <b_mmod_Minimization_Converged-OPLS-2005>
1

> <r_mmod_RMS_Derivative-OPLS-2005>
0.046136412769556

$$$$
90
                    3D
 Structure written by MMmdl.
148156  0  0  1  0            999 V2000
  -30.5114  -15.0520   20.3842 C   0  0  0  0  0  0
  -30.4449  -12.6602   19.4924 C   0  0  0  0  0  0
  -29.5319  -12.5261   18.2530 C   0  0  0  0  0  0
  -28.0690  -12.2972   18.6803 C   0  0  0  0  0  0
  -27.6222  -13.2554   19.8159 C   0  0  2  0  0  0
  -28.6629  -13.3495   20.9482 C   0  0  0  0  0  0
  -25.2456  -13.8197   20.5669 C   0  0  0  0  0  0
  -24.1780  -13.0410   20.9196 C   0  0  0  0  0  0
  -24.6407  -11.6898   20.8721 C   0  0  0  0  0  0
  -23.9076  -10.4274   21.0381 C   0  0  0  0  0  0
  -24.3618   -9.4199   21.9171 C   0  0  0  0  0  0
  -23.6278   -8.2250   22.0770 C   0  0  0  0  0  0
  -22.4263   -8.0282   21.3553 C   0  0  0  0  0  0
  -21.9890   -9.0248   20.4663 C   0  0  0  0  0  0
  -22.7231  -10.2124   20.3059 C   0  0  0  0  0  0
  -21.6848   -6.0727   22.5266 C   0  0  0  0  0  0
  -21.4008   -6.5633   23.8187 C   0  0  0  0  0  0
  -21.3648   -5.6796   24.9159 C   0  0  0  0  0  0
  -21.6040   -4.3052   24.7212 C   0  0  0  0  0  0
  -21.8825   -3.8141   23.4332 C   0  0  0  0  0  0
  -21.9192   -4.6955   22.3392 C   0  0  0  0  0  0
  -22.7810  -13.5197   21.1831 C   0  0  0  0  0  0
  -22.1664   -4.2140   21.0971 F   0  0  0  0  0  0
  -21.5622   -3.4538   25.7733 F   0  0  0  0  0  0
  -29.9206  -13.7832   20.3284 N   0  0  0  0  0  0
  -26.2875  -12.9439   20.3144 N   0  0  0  0  0  0
  -25.9343  -11.6563   20.5679 N   0  0  0  0  0  0
  -22.0442  -12.8240   22.0421 N   0  0  0  0  0  0
  -25.4063  -15.1928   20.4088 N   0  0  0  0  0  0
  -31.7333  -15.0841   20.2050 O   0  0  0  0  0  0
  -21.6641   -6.8867   21.4231 O   0  0  0  0  0  0
  -22.3507  -14.5482   20.6639 O   0  0  0  0  0  0
  -24.6526  -31.8390   23.1880 C   0  0  0  0  0  0
  -25.9288  -32.4647   23.8296 C   0  0  1  0  0  0
  -27.2220  -27.0749   20.1422 C   0  0  0  0  0  0
  -25.6033  -33.8450   24.2222 N   0  0  0  0  0  0
  -23.4609  -30.4638   21.5280 C   0  0  2  0  0  0
  -24.9150  -28.8936   20.0973 C   0  0  0  0  0  0
  -22.7630  -29.4546   22.4762 C   0  0  0  0  0  0
  -18.0324  -28.1392   22.8458 C   0  0  0  0  0  0
  -24.1452  -36.7164   23.2666 C   0  0  0  0  0  0
  -26.0240  -30.6896   21.4041 C   0  0  0  0  0  0
  -26.0928  -29.2997   20.7375 C   0  0  0  0  0  0
  -27.2416  -28.4081   20.7494 C   0  0  0  0  0  0
  -26.0083  -26.7986   19.4641 C   0  0  0  0  0  0
  -24.8926  -27.6597   19.4406 C   0  0  0  0  0  0
  -23.6960  -29.8043   20.1435 C   0  0  0  0  0  0
  -25.4094  -36.2977   24.0340 C   0  0  1  0  0  0
  -20.5936  -28.3772   23.1153 C   0  0  2  0  0  0
  -20.6790  -26.9445   22.5377 C   0  0  0  0  0  0
  -19.5769  -26.6377   21.5179 C   0  0  0  0  0  0
  -18.1949  -26.7933   22.1579 C   0  0  0  0  0  0
  -19.1585  -28.8887   23.2799 C   0  0  0  0  0  0
  -18.9520  -30.1467   23.8854 C   0  0  0  0  0  0
  -17.6525  -30.6592   24.0557 C   0  0  0  0  0  0
  -25.9088  -34.9372   23.5084 C   0  0  0  0  0  0
  -16.5407  -29.9097   23.6338 C   0  0  0  0  0  0
  -16.7305  -28.6499   23.0384 C   0  0  0  0  0  0
  -26.4655  -31.6535   25.0742 C   0  0  0  0  0  0
  -25.3879  -31.3639   26.1454 C   0  0  0  0  0  0
  -27.0647  -30.2960   24.6371 C   0  0  0  0  0  0
  -27.6157  -32.4371   25.7501 C   0  0  0  0  0  0
  -27.5543  -37.1704   24.8492 C   0  0  0  0  0  0
  -21.4307  -29.3083   22.3517 N   0  0  0  0  0  0
  -26.4227  -37.3723   23.9474 N   0  0  0  0  0  0
  -24.7313  -31.0205   22.0947 N   0  0  0  0  0  0
  -23.4235  -28.8072   23.2931 O   0  0  0  0  0  0
  -28.2184  -26.0078   20.2779 O   0  0  0  0  0  0
  -26.5661  -34.8889   22.4652 O   0  0  0  0  0  0
  -23.5636  -32.1322   23.7052 O   0  0  0  0  0  0
  -27.3802  -20.0774   18.7373 C   0  0  0  0  0  0
  -28.1607  -18.9970   19.2098 C   0  0  0  0  0  0
  -27.5952  -21.4228   19.1186 C   0  0  0  0  0  0
  -29.4293  -20.6391   20.4778 C   0  0  0  0  0  0
  -29.2258  -19.1871   20.1110 C   0  0  0  0  0  0
  -28.6354  -21.8245   19.9944 C   0  0  0  0  0  0
  -28.1454  -24.5510   19.6547 C   0  0  0  0  0  0
  -30.1036  -17.8283   20.5554 C   0  0  0  0  0  0
  -28.7504  -23.3531   20.3211 N   0  0  0  0  0  0
  -29.7367  -16.2678   20.4346 N   0  0  0  0  0  0
  -27.6073  -24.4204   18.5548 O   0  0  0  0  0  0
  -31.4719  -12.8401   19.1716 H   0  0  0  0  0  0
  -30.4678  -11.7309   20.0638 H   0  0  0  0  0  0
  -29.8707  -11.7034   17.6207 H   0  0  0  0  0  0
  -29.6079  -13.4291   17.6453 H   0  0  0  0  0  0
  -27.9932  -11.2654   19.0269 H   0  0  0  0  0  0
  -27.4036  -12.3785   17.8191 H   0  0  0  0  0  0
  -27.5632  -14.2414   19.3517 H   0  0  0  0  0  0
  -28.7799  -12.3999   21.4718 H   0  0  0  0  0  0
  -28.3449  -14.0826   21.6909 H   0  0  0  0  0  0
  -25.2749   -9.5684   22.4753 H   0  0  0  0  0  0
  -23.9952   -7.4673   22.7543 H   0  0  0  0  0  0
  -21.0792   -8.8776   19.9016 H   0  0  0  0  0  0
  -22.3646  -10.9662   19.6194 H   0  0  0  0  0  0
  -21.2002   -7.6139   23.9680 H   0  0  0  0  0  0
  -21.1455   -6.0530   25.9057 H   0  0  0  0  0  0
  -22.0609   -2.7600   23.2841 H   0  0  0  0  0  0
  -22.4026  -11.9926   22.4873 H   0  0  0  0  0  0
  -21.1082  -13.1351   22.2600 H   0  0  0  0  0  0
  -24.6235  -15.8306   20.5001 H   0  0  0  0  0  0
  -26.2445  -15.6422   20.0637 H   0  0  0  0  0  0
  -26.7341  -32.5246   23.1010 H   0  0  0  0  0  0
  -25.0274  -33.9546   25.0440 H   0  0  0  0  0  0
  -22.7668  -31.2934   21.3741 H   0  0  0  0  0  0
  -23.3765  -35.9438   23.3302 H   0  0  0  0  0  0
  -24.3534  -36.8840   22.2090 H   0  0  0  0  0  0
  -23.7144  -37.6312   23.6752 H   0  0  0  0  0  0
  -26.2027  -31.4438   20.6364 H   0  0  0  0  0  0
  -26.8851  -30.7299   22.0593 H   0  0  0  0  0  0
  -28.1260  -28.7136   21.2908 H   0  0  0  0  0  0
  -25.8456  -25.8549   18.9718 H   0  0  0  0  0  0
  -24.0022  -27.3458   18.9127 H   0  0  0  0  0  0
  -23.8436  -30.5906   19.4021 H   0  0  0  0  0  0
  -22.8098  -29.2579   19.8156 H   0  0  0  0  0  0
  -25.1251  -36.1781   25.0819 H   0  0  0  0  0  0
  -21.0027  -28.3394   24.1281 H   0  0  0  0  0  0
  -20.5645  -26.2404   23.3642 H   0  0  0  0  0  0
  -21.6672  -26.7419   22.1212 H   0  0  0  0  0  0
  -19.6960  -25.6284   21.1236 H   0  0  0  0  0  0
  -19.6702  -27.3158   20.6690 H   0  0  0  0  0  0
  -17.4233  -26.6710   21.3967 H   0  0  0  0  0  0
  -18.0338  -26.0040   22.8935 H   0  0  0  0  0  0
  -19.8016  -30.7258   24.2213 H   0  0  0  0  0  0
  -17.5107  -31.6257   24.5198 H   0  0  0  0  0  0
  -15.5415  -30.3007   23.7677 H   0  0  0  0  0  0
  -15.8695  -28.0793   22.7158 H   0  0  0  0  0  0
  -24.6045  -30.7015   25.7767 H   0  0  0  0  0  0
  -24.9096  -32.2769   26.4991 H   0  0  0  0  0  0
  -25.8204  -30.8742   27.0184 H   0  0  0  0  0  0
  -26.3358  -29.6516   24.1440 H   0  0  0  0  0  0
  -27.4406  -29.7378   25.4961 H   0  0  0  0  0  0
  -27.9168  -30.4261   23.9686 H   0  0  0  0  0  0
  -27.2753  -33.3703   26.1991 H   0  0  0  0  0  0
  -28.3979  -32.6888   25.0334 H   0  0  0  0  0  0
  -28.0845  -31.8592   26.5478 H   0  0  0  0  0  0
  -28.2535  -38.0028   24.7599 H   0  0  0  0  0  0
  -28.1047  -36.2557   24.6221 H   0  0  0  0  0  0
  -27.2278  -37.1244   25.8899 H   0  0  0  0  0  0
  -20.9550  -29.8842   21.6708 H   0  0  0  0  0  0
  -26.0065  -38.2745   24.1614 H   0  0  0  0  0  0
  -26.5743  -19.8662   18.0474 H   0  0  0  0  0  0
  -27.9357  -18.0002   18.8556 H   0  0  0  0  0  0
  -26.9053  -22.1446   18.7081 H   0  0  0  0  0  0
  -30.2440  -20.8482   21.1570 H   0  0  0  0  0  0
  -30.3321  -17.9817   21.6109 H   0  0  0  0  0  0
  -31.0606  -17.9367   20.0458 H   0  0  0  0  0  0
  -29.3041  -23.5958   21.1344 H   0  0  0  0  0  0
  -28.7439  -16.0920   20.4541 H   0  0  0  0  0  0
  1 25  1  0  0  0
  1 30  2  0  0  0
  1 80  1  0  0  0
  2  3  1  0  0  0
  2 25  1  0  0  0
  2 82  1  0  0  0
  2 83  1  0  0  0
  3  4  1  0  0  0
  3 84  1  0  0  0
  3 85  1  0  0  0
  4  5  1  0  0  0
  4 86  1  0  0  0
  4 87  1  0  0  0
  5  6  1  0  0  0
  5 26  1  0  0  0
  5 88  1  0  0  0
  6 25  1  0  0  0
  6 89  1  0  0  0
  6 90  1  0  0  0
  7  8  2  0  0  0
  7 26  1  0  0  0
  7 29  1  0  0  0
  8  9  1  0  0  0
  8 22  1  0  0  0
  9 10  1  0  0  0
  9 27  2  0  0  0
 10 11  2  0  0  0
 10 15  1  0  0  0
 11 12  1  0  0  0
 11 91  1  0  0  0
 12 13  2  0  0  0
 12 92  1  0  0  0
 13 14  1  0  0  0
 13 31  1  0  0  0
 14 15  2  0  0  0
 14 93  1  0  0  0
 15 94  1  0  0  0
 16 17  2  0  0  0
 16 21  1  0  0  0
 16 31  1  0  0  0
 17 18  1  0  0  0
 17 95  1  0  0  0
 18 19  2  0  0  0
 18 96  1  0  0  0
 19 20  1  0  0  0
 19 24  1  0  0  0
 20 21  2  0  0  0
 20 97  1  0  0  0
 21 23  1  0  0  0
 22 28  1  0  0  0
 22 32  2  0  0  0
 26 27  1  0  0  0
 28 98  1  0  0  0
 28 99  1  0  0  0
 29100  1  0  0  0
 29101  1  0  0  0
 33 34  1  0  0  0
 33 66  1  0  0  0
 33 70  2  0  0  0
 34 36  1  0  0  0
 34 59  1  0  0  0
 34102  1  0  0  0
 35 44  2  0  0  0
 35 45  1  0  0  0
 35 68  1  0  0  0
 36 56  1  0  0  0
 36103  1  0  0  0
 37 39  1  0  0  0
 37 47  1  0  0  0
 37 66  1  0  0  0
 37104  1  0  0  0
 38 43  2  0  0  0
 38 46  1  0  0  0
 38 47  1  0  0  0
 39 64  1  0  0  0
 39 67  2  0  0  0
 40 52  1  0  0  0
 40 53  2  0  0  0
 40 58  1  0  0  0
 41105  1  0  0  0
 41106  1  0  0  0
 41107  1  0  0  0
 41 48  1  0  0  0
 42 43  1  0  0  0
 42 66  1  0  0  0
 42108  1  0  0  0
 42109  1  0  0  0
 43 44  1  0  0  0
 44110  1  0  0  0
 45 46  2  0  0  0
 45111  1  0  0  0
 46112  1  0  0  0
 47113  1  0  0  0
 47114  1  0  0  0
 48 56  1  0  0  0
 48 65  1  0  0  0
 48115  1  0  0  0
 49 50  1  0  0  0
 49 53  1  0  0  0
 49 64  1  0  0  0
 49116  1  0  0  0
 50 51  1  0  0  0
 50117  1  0  0  0
 50118  1  0  0  0
 51 52  1  0  0  0
 51119  1  0  0  0
 51120  1  0  0  0
 52121  1  0  0  0
 52122  1  0  0  0
 53 54  1  0  0  0
 54 55  2  0  0  0
 54123  1  0  0  0
 55 57  1  0  0  0
 55124  1  0  0  0
 56 69  2  0  0  0
 57 58  2  0  0  0
 57125  1  0  0  0
 58126  1  0  0  0
 59 60  1  0  0  0
 59 61  1  0  0  0
 59 62  1  0  0  0
 60127  1  0  0  0
 60128  1  0  0  0
 60129  1  0  0  0
 61130  1  0  0  0
 61131  1  0  0  0
 61132  1  0  0  0
 62133  1  0  0  0
 62134  1  0  0  0
 62135  1  0  0  0
 63 65  1  0  0  0
 63136  1  0  0  0
 63137  1  0  0  0
 63138  1  0  0  0
 64139  1  0  0  0
 65140  1  0  0  0
 68 77  1  0  0  0
 71 72  2  0  0  0
 71 73  1  0  0  0
 71141  1  0  0  0
 72 75  1  0  0  0
 72142  1  0  0  0
 73 76  2  0  0  0
 73143  1  0  0  0
 74 75  2  0  0  0
 74 76  1  0  0  0
 74144  1  0  0  0
 75 78  1  0  0  0
 76 79  1  0  0  0
 77 79  1  0  0  0
 77 81  2  0  0  0
 78 80  1  0  0  0
 78145  1  0  0  0
 78146  1  0  0  0
 79147  1  0  0  0
 80148  1  0  0  0
M  ISO  4   1 100  68 101  77 101  80 100
M  END
> <chiral flag>
0

> <version>
0

> <s_m_source_file>
/data/baiqing/PycharmProjects/Reinvent-master-3.2/result/LINK_invent/BTK/process_docking_weight1_custom_product_contain_oxygen_bond_distance_aromatic_linkinvent_7_9_3/rearranged_h_0001.sdf

> <i_m_source_file_index>
91

> <r_mmod_Potential_Energy-OPLS-2005>
599.835083007812

> <r_mmod_Stretch_Energy-OPLS-2005>
347.779327392578

> <r_mmod_Bend_Energy-OPLS-2005>
267.879486083984

> <r_mmod_Torsional_Energy-OPLS-2005>
218.811492919922

> <r_mmod_Improper_Torsional_Energy-OPLS-2005>
5.04396724700928

> <r_mmod_Van_der_Waal_Energy-OPLS-2005>
137.791259765625

> <r_mmod_Electrostatic_Energy-OPLS-2005>
-429.997894287109

> <r_mmod_Solvation_Energy-OPLS-2005>
-224.681671142578

> <b_mmod_Minimization_Converged-OPLS-2005>
0

> <r_mmod_RMS_Derivative-OPLS-2005>
3.27576589584351

$$$$
91
                    3D
 Structure written by MMmdl.
157165  0  0  1  0            999 V2000
  -30.8131  -14.3048   20.7405 C   0  0  0  0  0  0
  -30.4112  -12.2895   19.3768 C   0  0  0  0  0  0
  -29.4739  -12.5370   18.1833 C   0  0  0  0  0  0
  -28.0036  -12.3814   18.6081 C   0  0  0  0  0  0
  -27.6667  -13.2028   19.8786 C   0  0  2  0  0  0
  -28.7046  -12.9482   20.9937 C   0  0  0  0  0  0
  -25.2608  -13.8161   20.5675 C   0  0  0  0  0  0
  -24.1848  -13.0441   20.9160 C   0  0  0  0  0  0
  -24.6393  -11.6907   20.8723 C   0  0  0  0  0  0
  -23.9054  -10.4297   21.0401 C   0  0  0  0  0  0
  -24.3607   -9.4217   21.9183 C   0  0  0  0  0  0
  -23.6286   -8.2251   22.0756 C   0  0  0  0  0  0
  -22.4270   -8.0282   21.3545 C   0  0  0  0  0  0
  -21.9903   -9.0252   20.4646 C   0  0  0  0  0  0
  -22.7224  -10.2136   20.3054 C   0  0  0  0  0  0
  -21.6850   -6.0735   22.5281 C   0  0  0  0  0  0
  -21.4011   -6.5638   23.8215 C   0  0  0  0  0  0
  -21.3661   -5.6792   24.9177 C   0  0  0  0  0  0
  -21.6046   -4.3054   24.7228 C   0  0  0  0  0  0
  -21.8819   -3.8146   23.4349 C   0  0  0  0  0  0
  -21.9191   -4.6961   22.3404 C   0  0  0  0  0  0
  -22.7872  -13.5244   21.1832 C   0  0  0  0  0  0
  -22.1659   -4.2147   21.0980 F   0  0  0  0  0  0
  -21.5634   -3.4538   25.7739 F   0  0  0  0  0  0
  -30.0545  -13.2162   20.4600 N   0  0  0  0  0  0
  -26.3048  -12.9325   20.3382 N   0  0  0  0  0  0
  -25.9318  -11.6484   20.5755 N   0  0  0  0  0  0
  -22.0513  -12.8238   22.0394 N   0  0  0  0  0  0
  -25.4347  -15.1876   20.4088 N   0  0  0  0  0  0
  -31.7584  -14.6777   20.0379 O   0  0  0  0  0  0
  -21.6637   -6.8877   21.4242 O   0  0  0  0  0  0
  -22.3554  -14.5548   20.6684 O   0  0  0  0  0  0
  -24.6098  -31.8703   23.2137 C   0  0  0  0  0  0
  -25.9008  -32.4837   23.8422 C   0  0  1  0  0  0
  -27.2364  -27.4790   20.0864 C   0  0  0  0  0  0
  -25.5884  -33.8636   24.2354 N   0  0  0  0  0  0
  -23.3966  -30.4930   21.5531 C   0  0  2  0  0  0
  -24.8449  -28.9637   20.1141 C   0  0  0  0  0  0
  -22.7386  -29.4660   22.5014 C   0  0  0  0  0  0
  -18.0264  -28.1370   22.8500 C   0  0  0  0  0  0
  -24.1479  -36.7326   23.2642 C   0  0  0  0  0  0
  -25.9206  -30.8485   21.3609 C   0  0  0  0  0  0
  -26.0014  -29.4859   20.7086 C   0  0  0  0  0  0
  -27.2029  -28.7481   20.6967 C   0  0  0  0  0  0
  -26.0711  -26.9579   19.4897 C   0  0  0  0  0  0
  -24.8718  -27.6957   19.5043 C   0  0  0  0  0  0
  -23.6030  -29.8239   20.1672 C   0  0  0  0  0  0
  -25.4099  -36.3124   24.0344 C   0  0  1  0  0  0
  -20.5851  -28.3648   23.1334 C   0  0  2  0  0  0
  -20.6752  -26.9390   22.5426 C   0  0  0  0  0  0
  -19.5734  -26.6382   21.5217 C   0  0  0  0  0  0
  -18.1910  -26.7923   22.1621 C   0  0  0  0  0  0
  -19.1513  -28.8826   23.2913 C   0  0  0  0  0  0
  -18.9443  -30.1435   23.8917 C   0  0  0  0  0  0
  -17.6447  -30.6582   24.0565 C   0  0  0  0  0  0
  -25.9025  -34.9484   23.5146 C   0  0  0  0  0  0
  -16.5339  -29.9083   23.6324 C   0  0  0  0  0  0
  -16.7254  -28.6495   23.0355 C   0  0  0  0  0  0
  -26.4464  -31.6600   25.0731 C   0  0  0  0  0  0
  -25.3747  -31.3662   26.1482 C   0  0  0  0  0  0
  -27.0308  -30.3059   24.6070 C   0  0  0  0  0  0
  -27.6038  -32.4319   25.7491 C   0  0  0  0  0  0
  -27.5583  -37.1811   24.8463 C   0  0  0  0  0  0
  -21.4117  -29.3021   22.3748 N   0  0  0  0  0  0
  -26.4291  -37.3804   23.9416 N   0  0  0  0  0  0
  -24.6604  -31.0835   22.1019 N   0  0  0  0  0  0
  -23.4173  -28.8202   23.3045 O   0  0  0  0  0  0
  -28.3826  -26.7311   20.0918 O   0  0  0  0  0  0
  -26.5586  -34.8925   22.4705 O   0  0  0  0  0  0
  -23.5302  -32.1436   23.7555 O   0  0  0  0  0  0
  -29.8420  -17.6599   23.4830 C   0  0  0  0  0  0
  -31.1649  -18.1269   21.4929 C   0  0  0  0  0  0
  -29.3109  -18.9624   23.4312 C   0  0  0  0  0  0
  -30.6283  -19.4288   21.4387 C   0  0  0  0  0  0
  -30.7834  -17.2428   22.5220 C   0  0  0  0  0  0
  -29.7016  -19.8624   22.4193 C   0  0  0  0  0  0
  -31.3881  -15.8540   22.6015 C   0  0  0  0  0  0
  -28.8408  -23.3929   21.8112 C   0  0  0  0  0  0
  -29.0005  -24.4709   20.7281 C   0  0  0  0  0  0
  -29.4921  -22.0552   21.4461 C   0  0  0  0  0  0
  -28.4208  -25.8153   21.1824 C   0  0  0  0  0  0
  -30.5682  -14.8496   21.9364 N   0  0  0  0  0  0
  -29.1490  -21.1229   22.4642 O   0  0  0  0  0  0
  -31.4525  -12.3941   19.0663 H   0  0  0  0  0  0
  -30.3116  -11.2621   19.7304 H   0  0  0  0  0  0
  -29.7038  -11.8436   17.3730 H   0  0  0  0  0  0
  -29.6390  -13.5396   17.7862 H   0  0  0  0  0  0
  -27.8178  -11.3220   18.7900 H   0  0  0  0  0  0
  -27.3432  -12.6695   17.7893 H   0  0  0  0  0  0
  -27.7257  -14.2568   19.6054 H   0  0  0  0  0  0
  -28.6557  -11.9112   21.3293 H   0  0  0  0  0  0
  -28.4503  -13.5510   21.8654 H   0  0  0  0  0  0
  -25.2750   -9.5699   22.4759 H   0  0  0  0  0  0
  -23.9995   -7.4648   22.7481 H   0  0  0  0  0  0
  -21.0835   -8.8768   19.8953 H   0  0  0  0  0  0
  -22.3676  -10.9675   19.6166 H   0  0  0  0  0  0
  -21.2002   -7.6148   23.9716 H   0  0  0  0  0  0
  -21.1485   -6.0523   25.9081 H   0  0  0  0  0  0
  -22.0598   -2.7610   23.2847 H   0  0  0  0  0  0
  -22.4121  -11.9891   22.4773 H   0  0  0  0  0  0
  -21.1139  -13.1281   22.2611 H   0  0  0  0  0  0
  -24.6755  -15.8505   20.5229 H   0  0  0  0  0  0
  -26.3020  -15.6245   20.1204 H   0  0  0  0  0  0
  -26.7082  -32.5567   23.1198 H   0  0  0  0  0  0
  -25.0045  -33.9807   25.0504 H   0  0  0  0  0  0
  -22.6823  -31.3076   21.4162 H   0  0  0  0  0  0
  -23.3744  -35.9654   23.3299 H   0  0  0  0  0  0
  -24.3573  -36.8947   22.2057 H   0  0  0  0  0  0
  -23.7222  -37.6523   23.6662 H   0  0  0  0  0  0
  -26.0259  -31.6162   20.5929 H   0  0  0  0  0  0
  -26.8111  -30.9047   21.9750 H   0  0  0  0  0  0
  -28.0968  -29.1432   21.1586 H   0  0  0  0  0  0
  -26.0936  -25.9827   19.0234 H   0  0  0  0  0  0
  -23.9818  -27.2863   19.0466 H   0  0  0  0  0  0
  -23.7032  -30.5987   19.4064 H   0  0  0  0  0  0
  -22.7288  -29.2387   19.8765 H   0  0  0  0  0  0
  -25.1266  -36.2002   25.0838 H   0  0  0  0  0  0
  -20.9942  -28.3214   24.1457 H   0  0  0  0  0  0
  -20.5660  -26.2249   23.3603 H   0  0  0  0  0  0
  -21.6624  -26.7438   22.1219 H   0  0  0  0  0  0
  -19.6893  -25.6298   21.1233 H   0  0  0  0  0  0
  -19.6677  -27.3197   20.6750 H   0  0  0  0  0  0
  -17.4187  -26.6683   21.4015 H   0  0  0  0  0  0
  -18.0292  -26.0053   22.9002 H   0  0  0  0  0  0
  -19.7922  -30.7244   24.2292 H   0  0  0  0  0  0
  -17.5007  -31.6263   24.5166 H   0  0  0  0  0  0
  -15.5340  -30.2995   23.7634 H   0  0  0  0  0  0
  -15.8651  -28.0817   22.7069 H   0  0  0  0  0  0
  -24.5941  -30.6991   25.7813 H   0  0  0  0  0  0
  -24.8914  -32.2795   26.4957 H   0  0  0  0  0  0
  -25.8128  -30.8822   27.0220 H   0  0  0  0  0  0
  -26.2841  -29.6803   24.1169 H   0  0  0  0  0  0
  -27.4153  -29.7308   25.4503 H   0  0  0  0  0  0
  -27.8638  -30.4410   23.9166 H   0  0  0  0  0  0
  -27.2665  -33.3614   26.2087 H   0  0  0  0  0  0
  -28.3838  -32.6883   25.0312 H   0  0  0  0  0  0
  -28.0718  -31.8433   26.5391 H   0  0  0  0  0  0
  -28.2591  -38.0120   24.7546 H   0  0  0  0  0  0
  -28.1092  -36.2656   24.6257 H   0  0  0  0  0  0
  -27.2303  -37.1417   25.8865 H   0  0  0  0  0  0
  -20.9267  -29.8746   21.6980 H   0  0  0  0  0  0
  -26.0188  -38.2881   24.1435 H   0  0  0  0  0  0
  -29.5330  -16.9878   24.2719 H   0  0  0  0  0  0
  -31.8801  -17.8115   20.7451 H   0  0  0  0  0  0
  -28.5993  -19.2760   24.1823 H   0  0  0  0  0  0
  -30.9536  -20.0774   20.6386 H   0  0  0  0  0  0
  -31.4924  -15.5706   23.6497 H   0  0  0  0  0  0
  -32.4040  -15.8715   22.2018 H   0  0  0  0  0  0
  -27.7782  -23.2322   21.9988 H   0  0  0  0  0  0
  -29.2669  -23.7498   22.7498 H   0  0  0  0  0  0
  -28.4921  -24.1431   19.8202 H   0  0  0  0  0  0
  -30.0527  -24.5958   20.4698 H   0  0  0  0  0  0
  -30.5734  -22.1853   21.3810 H   0  0  0  0  0  0
  -29.1282  -21.7031   20.4794 H   0  0  0  0  0  0
  -29.0295  -26.2401   21.9811 H   0  0  0  0  0  0
  -27.4281  -25.6476   21.6086 H   0  0  0  0  0  0
  -29.8095  -14.4513   22.4683 H   0  0  0  0  0  0
  1 25  1  0  0  0
  1 30  2  0  0  0
  1 82  1  0  0  0
  2  3  1  0  0  0
  2 25  1  0  0  0
  2 84  1  0  0  0
  2 85  1  0  0  0
  3  4  1  0  0  0
  3 86  1  0  0  0
  3 87  1  0  0  0
  4  5  1  0  0  0
  4 88  1  0  0  0
  4 89  1  0  0  0
  5  6  1  0  0  0
  5 26  1  0  0  0
  5 90  1  0  0  0
  6 25  1  0  0  0
  6 91  1  0  0  0
  6 92  1  0  0  0
  7  8  2  0  0  0
  7 26  1  0  0  0
  7 29  1  0  0  0
  8  9  1  0  0  0
  8 22  1  0  0  0
  9 10  1  0  0  0
  9 27  2  0  0  0
 10 11  2  0  0  0
 10 15  1  0  0  0
 11 12  1  0  0  0
 11 93  1  0  0  0
 12 13  2  0  0  0
 12 94  1  0  0  0
 13 14  1  0  0  0
 13 31  1  0  0  0
 14 15  2  0  0  0
 14 95  1  0  0  0
 15 96  1  0  0  0
 16 17  2  0  0  0
 16 21  1  0  0  0
 16 31  1  0  0  0
 17 18  1  0  0  0
 17 97  1  0  0  0
 18 19  2  0  0  0
 18 98  1  0  0  0
 19 20  1  0  0  0
 19 24  1  0  0  0
 20 21  2  0  0  0
 20 99  1  0  0  0
 21 23  1  0  0  0
 22 28  1  0  0  0
 22 32  2  0  0  0
 26 27  1  0  0  0
 28100  1  0  0  0
 28101  1  0  0  0
 29102  1  0  0  0
 29103  1  0  0  0
 33 34  1  0  0  0
 33 66  1  0  0  0
 33 70  2  0  0  0
 34 36  1  0  0  0
 34 59  1  0  0  0
 34104  1  0  0  0
 35 44  2  0  0  0
 35 45  1  0  0  0
 35 68  1  0  0  0
 36 56  1  0  0  0
 36105  1  0  0  0
 37 39  1  0  0  0
 37 47  1  0  0  0
 37 66  1  0  0  0
 37106  1  0  0  0
 38 43  2  0  0  0
 38 46  1  0  0  0
 38 47  1  0  0  0
 39 64  1  0  0  0
 39 67  2  0  0  0
 40 52  1  0  0  0
 40 53  2  0  0  0
 40 58  1  0  0  0
 41107  1  0  0  0
 41108  1  0  0  0
 41109  1  0  0  0
 41 48  1  0  0  0
 42 43  1  0  0  0
 42 66  1  0  0  0
 42110  1  0  0  0
 42111  1  0  0  0
 43 44  1  0  0  0
 44112  1  0  0  0
 45 46  2  0  0  0
 45113  1  0  0  0
 46114  1  0  0  0
 47115  1  0  0  0
 47116  1  0  0  0
 48 56  1  0  0  0
 48 65  1  0  0  0
 48117  1  0  0  0
 49 50  1  0  0  0
 49 53  1  0  0  0
 49 64  1  0  0  0
 49118  1  0  0  0
 50 51  1  0  0  0
 50119  1  0  0  0
 50120  1  0  0  0
 51 52  1  0  0  0
 51121  1  0  0  0
 51122  1  0  0  0
 52123  1  0  0  0
 52124  1  0  0  0
 53 54  1  0  0  0
 54 55  2  0  0  0
 54125  1  0  0  0
 55 57  1  0  0  0
 55126  1  0  0  0
 56 69  2  0  0  0
 57 58  2  0  0  0
 57127  1  0  0  0
 58128  1  0  0  0
 59 60  1  0  0  0
 59 61  1  0  0  0
 59 62  1  0  0  0
 60129  1  0  0  0
 60130  1  0  0  0
 60131  1  0  0  0
 61132  1  0  0  0
 61133  1  0  0  0
 61134  1  0  0  0
 62135  1  0  0  0
 62136  1  0  0  0
 62137  1  0  0  0
 63 65  1  0  0  0
 63138  1  0  0  0
 63139  1  0  0  0
 63140  1  0  0  0
 64141  1  0  0  0
 65142  1  0  0  0
 68 81  1  0  0  0
 71 73  2  0  0  0
 71 75  1  0  0  0
 71143  1  0  0  0
 72 74  1  0  0  0
 72 75  2  0  0  0
 72144  1  0  0  0
 73 76  1  0  0  0
 73145  1  0  0  0
 74 76  2  0  0  0
 74146  1  0  0  0
 75 77  1  0  0  0
 76 83  1  0  0  0
 77 82  1  0  0  0
 77147  1  0  0  0
 77148  1  0  0  0
 78 79  1  0  0  0
 78 80  1  0  0  0
 78149  1  0  0  0
 78150  1  0  0  0
 79 81  1  0  0  0
 79151  1  0  0  0
 79152  1  0  0  0
 80 83  1  0  0  0
 80153  1  0  0  0
 80154  1  0  0  0
 81155  1  0  0  0
 81156  1  0  0  0
 82157  1  0  0  0
M  ISO  4   1 100  68 101  81 101  82 100
M  END
> <chiral flag>
0

> <version>
0

> <s_m_source_file>
/data/baiqing/PycharmProjects/Reinvent-master-3.2/result/LINK_invent/BTK/process_docking_weight1_custom_product_contain_oxygen_bond_distance_aromatic_linkinvent_7_9_3/rearranged_h_0001.sdf

> <i_m_source_file_index>
92

> <r_mmod_Potential_Energy-OPLS-2005>
-125.427665710449

> <r_mmod_Stretch_Energy-OPLS-2005>
30.2882747650146

> <r_mmod_Bend_Energy-OPLS-2005>
86.7461776733398

> <r_mmod_Torsional_Energy-OPLS-2005>
223.161834716797

> <r_mmod_Improper_Torsional_Energy-OPLS-2005>
3.34977674484253

> <r_mmod_Van_der_Waal_Energy-OPLS-2005>
153.613952636719

> <r_mmod_Electrostatic_Energy-OPLS-2005>
-422.427764892578

> <r_mmod_Solvation_Energy-OPLS-2005>
-207.903198242188

> <b_mmod_Minimization_Converged-OPLS-2005>
0

> <r_mmod_RMS_Derivative-OPLS-2005>
0.652379631996155

$$$$
92
                    3D
 Structure written by MMmdl.
160168  0  0  1  0            999 V2000
  -30.7252  -14.4298   20.5772 C   0  0  0  0  0  0
  -30.4138  -12.2898   19.4131 C   0  0  0  0  0  0
  -29.4855  -12.5087   18.2017 C   0  0  0  0  0  0
  -28.0065  -12.3825   18.6190 C   0  0  0  0  0  0
  -27.6635  -13.2125   19.8850 C   0  0  2  0  0  0
  -28.7059  -12.9788   21.0018 C   0  0  0  0  0  0
  -25.2586  -13.8188   20.5732 C   0  0  0  0  0  0
  -24.1838  -13.0444   20.9191 C   0  0  0  0  0  0
  -24.6401  -11.6913   20.8729 C   0  0  0  0  0  0
  -23.9039  -10.4295   21.0363 C   0  0  0  0  0  0
  -24.3592   -9.4209   21.9159 C   0  0  0  0  0  0
  -23.6280   -8.2230   22.0718 C   0  0  0  0  0  0
  -22.4271   -8.0259   21.3518 C   0  0  0  0  0  0
  -21.9895   -9.0220   20.4617 C   0  0  0  0  0  0
  -22.7196  -10.2117   20.3022 C   0  0  0  0  0  0
  -21.6860   -6.0709   22.5266 C   0  0  0  0  0  0
  -21.4007   -6.5611   23.8198 C   0  0  0  0  0  0
  -21.3664   -5.6773   24.9164 C   0  0  0  0  0  0
  -21.6056   -4.3029   24.7219 C   0  0  0  0  0  0
  -21.8818   -3.8122   23.4338 C   0  0  0  0  0  0
  -21.9183   -4.6935   22.3393 C   0  0  0  0  0  0
  -22.7841  -13.5191   21.1877 C   0  0  0  0  0  0
  -22.1659   -4.2127   21.0966 F   0  0  0  0  0  0
  -21.5645   -3.4506   25.7723 F   0  0  0  0  0  0
  -30.0374  -13.2673   20.4453 N   0  0  0  0  0  0
  -26.3037  -12.9380   20.3431 N   0  0  0  0  0  0
  -25.9338  -11.6524   20.5793 N   0  0  0  0  0  0
  -22.0494  -12.8172   22.0434 N   0  0  0  0  0  0
  -25.4349  -15.1912   20.4161 N   0  0  0  0  0  0
  -31.8455  -14.6053   20.0899 O   0  0  0  0  0  0
  -21.6645   -6.8848   21.4228 O   0  0  0  0  0  0
  -22.3504  -14.5489   20.6702 O   0  0  0  0  0  0
  -24.6138  -31.8689   23.2126 C   0  0  0  0  0  0
  -25.9017  -32.4827   23.8434 C   0  0  1  0  0  0
  -27.2317  -27.4372   20.0866 C   0  0  0  0  0  0
  -25.5872  -33.8637   24.2355 N   0  0  0  0  0  0
  -23.4008  -30.4964   21.5502 C   0  0  2  0  0  0
  -24.8428  -28.9618   20.1192 C   0  0  0  0  0  0
  -22.7399  -29.4701   22.4988 C   0  0  0  0  0  0
  -18.0271  -28.1415   22.8464 C   0  0  0  0  0  0
  -24.1481  -36.7330   23.2646 C   0  0  0  0  0  0
  -25.9297  -30.8350   21.3648 C   0  0  0  0  0  0
  -26.0027  -29.4689   20.7148 C   0  0  0  0  0  0
  -27.1957  -28.7116   20.6981 C   0  0  0  0  0  0
  -26.0464  -26.9486   19.4837 C   0  0  0  0  0  0
  -24.8586  -27.7011   19.5016 C   0  0  0  0  0  0
  -23.6066  -29.8292   20.1655 C   0  0  0  0  0  0
  -25.4095  -36.3122   24.0342 C   0  0  1  0  0  0
  -20.5858  -28.3695   23.1285 C   0  0  2  0  0  0
  -20.6743  -26.9431   22.5390 C   0  0  0  0  0  0
  -19.5718  -26.6417   21.5183 C   0  0  0  0  0  0
  -18.1904  -26.7958   22.1610 C   0  0  0  0  0  0
  -19.1516  -28.8865   23.2890 C   0  0  0  0  0  0
  -18.9443  -30.1467   23.8916 C   0  0  0  0  0  0
  -17.6444  -30.6586   24.0614 C   0  0  0  0  0  0
  -25.9025  -34.9483   23.5138 C   0  0  0  0  0  0
  -16.5330  -29.9111   23.6331 C   0  0  0  0  0  0
  -16.7255  -28.6540   23.0325 C   0  0  0  0  0  0
  -26.4471  -31.6581   25.0744 C   0  0  0  0  0  0
  -25.3769  -31.3638   26.1507 C   0  0  0  0  0  0
  -27.0287  -30.3018   24.6089 C   0  0  0  0  0  0
  -27.6061  -32.4296   25.7489 C   0  0  0  0  0  0
  -27.5574  -37.1812   24.8472 C   0  0  0  0  0  0
  -21.4135  -29.3048   22.3686 N   0  0  0  0  0  0
  -26.4285  -37.3792   23.9417 N   0  0  0  0  0  0
  -24.6662  -31.0823   22.1006 N   0  0  0  0  0  0
  -23.4163  -28.8252   23.3042 O   0  0  0  0  0  0
  -28.4388  -26.7627   20.0738 O   0  0  0  0  0  0
  -26.5603  -34.8917   22.4711 O   0  0  0  0  0  0
  -23.5329  -32.1450   23.7504 O   0  0  0  0  0  0
  -28.2409  -18.7549   23.4501 C   0  0  0  0  0  0
  -29.0915  -17.7685   22.9122 C   0  0  0  0  0  0
  -27.8160  -19.8346   22.6495 C   0  0  0  0  0  0
  -29.1168  -18.9595   20.7857 C   0  0  0  0  0  0
  -29.5394  -17.8702   21.5800 C   0  0  0  0  0  0
  -28.2382  -19.9423   21.3065 C   0  0  0  0  0  0
  -27.3752  -20.6313   19.0016 C   0  0  0  0  0  0
  -30.5057  -16.8407   21.0096 C   0  0  0  0  0  0
  -28.4937  -25.3405   19.8864 C   0  0  0  0  0  0
  -28.7709  -24.6082   21.2202 C   0  0  0  0  0  0
  -28.6271  -22.3405   20.4364 C   0  0  0  0  0  0
  -27.7141  -21.0887   20.4326 C   0  0  2  0  0  0
  -30.0524  -15.4532   21.1260 N   0  0  0  0  0  0
  -28.1125  -23.3416   21.3150 O   0  0  0  0  0  0
  -31.4588  -12.3738   19.1103 H   0  0  0  0  0  0
  -30.3012  -11.2796   19.8068 H   0  0  0  0  0  0
  -29.7154  -11.7852   17.4188 H   0  0  0  0  0  0
  -29.6615  -13.4956   17.7679 H   0  0  0  0  0  0
  -27.7971  -11.3280   18.8009 H   0  0  0  0  0  0
  -27.3571  -12.6805   17.7963 H   0  0  0  0  0  0
  -27.7124  -14.2645   19.6042 H   0  0  0  0  0  0
  -28.6707  -11.9417   21.3384 H   0  0  0  0  0  0
  -28.4856  -13.5781   21.8855 H   0  0  0  0  0  0
  -25.2725   -9.5652   22.4768 H   0  0  0  0  0  0
  -23.9976   -7.4587   22.7405 H   0  0  0  0  0  0
  -21.0838   -8.8676   19.8922 H   0  0  0  0  0  0
  -22.3604  -10.9637   19.6131 H   0  0  0  0  0  0
  -21.2000   -7.6123   23.9682 H   0  0  0  0  0  0
  -21.1524   -6.0514   25.9066 H   0  0  0  0  0  0
  -22.0620   -2.7583   23.2837 H   0  0  0  0  0  0
  -22.4110  -11.9825   22.4834 H   0  0  0  0  0  0
  -21.1094  -13.1147   22.2639 H   0  0  0  0  0  0
  -24.6816  -15.8589   20.5388 H   0  0  0  0  0  0
  -26.3043  -15.6220   20.1255 H   0  0  0  0  0  0
  -26.7100  -32.5545   23.1216 H   0  0  0  0  0  0
  -25.0035  -33.9821   25.0502 H   0  0  0  0  0  0
  -22.6908  -31.3144   21.4110 H   0  0  0  0  0  0
  -23.3717  -35.9687   23.3323 H   0  0  0  0  0  0
  -24.3607  -36.8933   22.2070 H   0  0  0  0  0  0
  -23.7238  -37.6541   23.6649 H   0  0  0  0  0  0
  -26.0417  -31.5954   20.5919 H   0  0  0  0  0  0
  -26.8203  -30.8916   21.9782 H   0  0  0  0  0  0
  -28.0923  -29.1050   21.1551 H   0  0  0  0  0  0
  -26.0031  -26.0088   18.9597 H   0  0  0  0  0  0
  -23.9687  -27.3086   19.0285 H   0  0  0  0  0  0
  -23.7178  -30.6015   19.4033 H   0  0  0  0  0  0
  -22.7312  -29.2460   19.8716 H   0  0  0  0  0  0
  -25.1251  -36.2023   25.0828 H   0  0  0  0  0  0
  -20.9946  -28.3281   24.1399 H   0  0  0  0  0  0
  -20.5615  -26.2323   23.3593 H   0  0  0  0  0  0
  -21.6615  -26.7463   22.1199 H   0  0  0  0  0  0
  -19.6627  -27.3234   20.6713 H   0  0  0  0  0  0
  -19.6874  -25.6332   21.1198 H   0  0  0  0  0  0
  -17.4165  -26.6703   21.4029 H   0  0  0  0  0  0
  -18.0316  -26.0095   22.9013 H   0  0  0  0  0  0
  -19.7916  -30.7272   24.2310 H   0  0  0  0  0  0
  -17.4993  -31.6256   24.5251 H   0  0  0  0  0  0
  -15.5333  -30.3011   23.7648 H   0  0  0  0  0  0
  -15.8666  -28.0880   22.6992 H   0  0  0  0  0  0
  -24.5977  -30.6933   25.7859 H   0  0  0  0  0  0
  -24.8921  -32.2762   26.4990 H   0  0  0  0  0  0
  -25.8179  -30.8823   27.0243 H   0  0  0  0  0  0
  -26.2807  -29.6781   24.1178 H   0  0  0  0  0  0
  -27.4091  -29.7250   25.4530 H   0  0  0  0  0  0
  -27.8635  -30.4332   23.9199 H   0  0  0  0  0  0
  -27.2696  -33.3595   26.2084 H   0  0  0  0  0  0
  -28.3853  -32.6849   25.0291 H   0  0  0  0  0  0
  -28.0740  -31.8407   26.5390 H   0  0  0  0  0  0
  -28.2591  -38.0114   24.7500 H   0  0  0  0  0  0
  -28.1070  -36.2634   24.6296 H   0  0  0  0  0  0
  -27.2320  -37.1470   25.8890 H   0  0  0  0  0  0
  -20.9313  -29.8757   21.6887 H   0  0  0  0  0  0
  -26.0183  -38.2877   24.1383 H   0  0  0  0  0  0
  -27.9128  -18.6780   24.4779 H   0  0  0  0  0  0
  -29.4164  -16.9419   23.5285 H   0  0  0  0  0  0
  -27.1559  -20.5796   23.0732 H   0  0  0  0  0  0
  -29.4675  -19.0317   19.7664 H   0  0  0  0  0  0
  -26.8802  -21.4311   18.4492 H   0  0  0  0  0  0
  -26.6958  -19.7778   19.0126 H   0  0  0  0  0  0
  -28.2618  -20.3487   18.4339 H   0  0  0  0  0  0
  -31.4659  -16.9534   21.5162 H   0  0  0  0  0  0
  -30.6953  -17.0638   19.9568 H   0  0  0  0  0  0
  -27.6098  -24.9120   19.4286 H   0  0  0  0  0  0
  -29.2974  -25.1253   19.1816 H   0  0  0  0  0  0
  -28.3895  -25.2163   22.0429 H   0  0  0  0  0  0
  -29.8427  -24.5046   21.3949 H   0  0  0  0  0  0
  -28.6714  -22.7450   19.4262 H   0  0  0  0  0  0
  -29.6534  -22.0800   20.7018 H   0  0  0  0  0  0
  -26.7585  -21.3916   20.8658 H   0  0  0  0  0  0
  -29.1234  -15.2809   21.4775 H   0  0  0  0  0  0
  1 25  1  0  0  0
  1 30  2  0  0  0
  1 83  1  0  0  0
  2  3  1  0  0  0
  2 25  1  0  0  0
  2 85  1  0  0  0
  2 86  1  0  0  0
  3  4  1  0  0  0
  3 87  1  0  0  0
  3 88  1  0  0  0
  4  5  1  0  0  0
  4 89  1  0  0  0
  4 90  1  0  0  0
  5  6  1  0  0  0
  5 26  1  0  0  0
  5 91  1  0  0  0
  6 25  1  0  0  0
  6 92  1  0  0  0
  6 93  1  0  0  0
  7  8  2  0  0  0
  7 26  1  0  0  0
  7 29  1  0  0  0
  8  9  1  0  0  0
  8 22  1  0  0  0
  9 10  1  0  0  0
  9 27  2  0  0  0
 10 11  2  0  0  0
 10 15  1  0  0  0
 11 12  1  0  0  0
 11 94  1  0  0  0
 12 13  2  0  0  0
 12 95  1  0  0  0
 13 14  1  0  0  0
 13 31  1  0  0  0
 14 15  2  0  0  0
 14 96  1  0  0  0
 15 97  1  0  0  0
 16 17  2  0  0  0
 16 21  1  0  0  0
 16 31  1  0  0  0
 17 18  1  0  0  0
 17 98  1  0  0  0
 18 19  2  0  0  0
 18 99  1  0  0  0
 19 20  1  0  0  0
 19 24  1  0  0  0
 20 21  2  0  0  0
 20100  1  0  0  0
 21 23  1  0  0  0
 22 28  1  0  0  0
 22 32  2  0  0  0
 26 27  1  0  0  0
 28101  1  0  0  0
 28102  1  0  0  0
 29103  1  0  0  0
 29104  1  0  0  0
 33 34  1  0  0  0
 33 66  1  0  0  0
 33 70  2  0  0  0
 34 36  1  0  0  0
 34 59  1  0  0  0
 34105  1  0  0  0
 35 44  2  0  0  0
 35 45  1  0  0  0
 35 68  1  0  0  0
 36 56  1  0  0  0
 36106  1  0  0  0
 37 39  1  0  0  0
 37 47  1  0  0  0
 37 66  1  0  0  0
 37107  1  0  0  0
 38 43  2  0  0  0
 38 46  1  0  0  0
 38 47  1  0  0  0
 39 64  1  0  0  0
 39 67  2  0  0  0
 40 52  1  0  0  0
 40 53  2  0  0  0
 40 58  1  0  0  0
 41108  1  0  0  0
 41109  1  0  0  0
 41110  1  0  0  0
 41 48  1  0  0  0
 42 43  1  0  0  0
 42 66  1  0  0  0
 42111  1  0  0  0
 42112  1  0  0  0
 43 44  1  0  0  0
 44113  1  0  0  0
 45 46  2  0  0  0
 45114  1  0  0  0
 46115  1  0  0  0
 47116  1  0  0  0
 47117  1  0  0  0
 48 56  1  0  0  0
 48 65  1  0  0  0
 48118  1  0  0  0
 49 50  1  0  0  0
 49 53  1  0  0  0
 49 64  1  0  0  0
 49119  1  0  0  0
 50 51  1  0  0  0
 50120  1  0  0  0
 50121  1  0  0  0
 51 52  1  0  0  0
 51122  1  0  0  0
 51123  1  0  0  0
 52124  1  0  0  0
 52125  1  0  0  0
 53 54  1  0  0  0
 54 55  2  0  0  0
 54126  1  0  0  0
 55 57  1  0  0  0
 55127  1  0  0  0
 56 69  2  0  0  0
 57 58  2  0  0  0
 57128  1  0  0  0
 58129  1  0  0  0
 59 60  1  0  0  0
 59 61  1  0  0  0
 59 62  1  0  0  0
 60130  1  0  0  0
 60131  1  0  0  0
 60132  1  0  0  0
 61133  1  0  0  0
 61134  1  0  0  0
 61135  1  0  0  0
 62136  1  0  0  0
 62137  1  0  0  0
 62138  1  0  0  0
 63 65  1  0  0  0
 63139  1  0  0  0
 63140  1  0  0  0
 63141  1  0  0  0
 64142  1  0  0  0
 65143  1  0  0  0
 68 79  1  0  0  0
 71 72  2  0  0  0
 71 73  1  0  0  0
 71144  1  0  0  0
 72 75  1  0  0  0
 72145  1  0  0  0
 73 76  2  0  0  0
 73146  1  0  0  0
 74 75  2  0  0  0
 74 76  1  0  0  0
 74147  1  0  0  0
 75 78  1  0  0  0
 76 82  1  0  0  0
 77148  1  0  0  0
 77149  1  0  0  0
 77150  1  0  0  0
 77 82  1  0  0  0
 78 83  1  0  0  0
 78151  1  0  0  0
 78152  1  0  0  0
 79 80  1  0  0  0
 79153  1  0  0  0
 79154  1  0  0  0
 80 84  1  0  0  0
 80155  1  0  0  0
 80156  1  0  0  0
 81 82  1  0  0  0
 81 84  1  0  0  0
 81157  1  0  0  0
 81158  1  0  0  0
 82159  1  0  0  0
 83160  1  0  0  0
M  ISO  4   1 100  68 101  79 101  83 100
M  END
> <chiral flag>
0

> <version>
0

> <s_m_source_file>
/data/baiqing/PycharmProjects/Reinvent-master-3.2/result/LINK_invent/BTK/process_docking_weight1_custom_product_contain_oxygen_bond_distance_aromatic_linkinvent_7_9_3/rearranged_h_0001.sdf

> <i_m_source_file_index>
93

> <r_mmod_Potential_Energy-OPLS-2005>
-78.0824203491211

> <r_mmod_Stretch_Energy-OPLS-2005>
35.5896873474121

> <r_mmod_Bend_Energy-OPLS-2005>
100.70548248291

> <r_mmod_Torsional_Energy-OPLS-2005>
212.05012512207

> <r_mmod_Improper_Torsional_Energy-OPLS-2005>
3.96517014503479

> <r_mmod_Van_der_Waal_Energy-OPLS-2005>
158.872695922852

> <r_mmod_Electrostatic_Energy-OPLS-2005>
-396.963500976562

> <r_mmod_Solvation_Energy-OPLS-2005>
-203.15885925293

> <b_mmod_Minimization_Converged-OPLS-2005>
0

> <r_mmod_RMS_Derivative-OPLS-2005>
3.30628418922424

$$$$
