0
                    3D
 Structure written by MMmdl.
166175  0  0  1  0            999 V2000
  -30.7818  -14.5199   20.4926 C   0  0  0  0  0  0
  -30.3844  -12.3237   19.4535 C   0  0  0  0  0  0
  -29.4777  -12.4789   18.2194 C   0  0  0  0  0  0
  -28.0073  -12.3361   18.6436 C   0  0  0  0  0  0
  -27.6435  -13.2320   19.8591 C   0  0  2  0  0  0
  -28.6955  -13.1511   20.9897 C   0  0  0  0  0  0
  -25.2527  -13.8216   20.5773 C   0  0  0  0  0  0
  -24.1808  -13.0443   20.9260 C   0  0  0  0  0  0
  -24.6388  -11.6920   20.8786 C   0  0  0  0  0  0
  -23.9054  -10.4294   21.0429 C   0  0  0  0  0  0
  -24.3597   -9.4206   21.9210 C   0  0  0  0  0  0
  -23.6280   -8.2230   22.0751 C   0  0  0  0  0  0
  -22.4260   -8.0272   21.3537 C   0  0  0  0  0  0
  -21.9902   -9.0244   20.4648 C   0  0  0  0  0  0
  -22.7214  -10.2134   20.3082 C   0  0  0  0  0  0
  -21.6848   -6.0745   22.5277 C   0  0  0  0  0  0
  -21.4013   -6.5658   23.8210 C   0  0  0  0  0  0
  -21.3660   -5.6809   24.9174 C   0  0  0  0  0  0
  -21.6030   -4.3068   24.7228 C   0  0  0  0  0  0
  -21.8808   -3.8159   23.4351 C   0  0  0  0  0  0
  -21.9179   -4.6972   22.3403 C   0  0  0  0  0  0
  -22.7831  -13.5225   21.1890 C   0  0  0  0  0  0
  -22.1658   -4.2157   21.0981 F   0  0  0  0  0  0
  -21.5615   -3.4553   25.7739 F   0  0  0  0  0  0
  -30.0175  -13.3942   20.4022 N   0  0  0  0  0  0
  -26.2960  -12.9423   20.3412 N   0  0  0  0  0  0
  -25.9332  -11.6561   20.5857 N   0  0  0  0  0  0
  -22.0470  -12.8212   22.0439 N   0  0  0  0  0  0
  -25.4219  -15.1930   20.4161 N   0  0  0  0  0  0
  -31.9647  -14.5062   20.1484 O   0  0  0  0  0  0
  -21.6618   -6.8868   21.4225 O   0  0  0  0  0  0
  -22.3516  -14.5514   20.6718 O   0  0  0  0  0  0
  -24.6232  -31.8659   23.2079 C   0  0  0  0  0  0
  -25.9104  -32.4800   23.8389 C   0  0  1  0  0  0
  -27.2249  -27.3826   20.0964 C   0  0  0  0  0  0
  -25.5958  -33.8593   24.2334 N   0  0  0  0  0  0
  -23.4151  -30.4928   21.5496 C   0  0  2  0  0  0
  -24.8590  -28.9627   20.1131 C   0  0  0  0  0  0
  -22.7449  -29.4674   22.4946 C   0  0  0  0  0  0
  -18.0283  -28.1360   22.8496 C   0  0  0  0  0  0
  -24.1499  -36.7336   23.2613 C   0  0  0  0  0  0
  -25.9516  -30.8146   21.3721 C   0  0  0  0  0  0
  -26.0262  -29.4474   20.7187 C   0  0  0  0  0  0
  -27.2131  -28.6662   20.7088 C   0  0  0  0  0  0
  -26.0428  -26.9536   19.4457 C   0  0  0  0  0  0
  -24.8643  -27.7130   19.4789 C   0  0  0  0  0  0
  -23.6255  -29.8347   20.1631 C   0  0  0  0  0  0
  -25.4078  -36.3068   24.0333 C   0  0  1  0  0  0
  -20.5868  -28.3697   23.1274 C   0  0  2  0  0  0
  -20.6800  -26.9428   22.5391 C   0  0  0  0  0  0
  -19.5747  -26.6356   21.5232 C   0  0  0  0  0  0
  -18.1922  -26.7901   22.1636 C   0  0  0  0  0  0
  -19.1525  -28.8840   23.2879 C   0  0  0  0  0  0
  -18.9452  -30.1436   23.8890 C   0  0  0  0  0  0
  -17.6449  -30.6565   24.0554 C   0  0  0  0  0  0
  -25.9026  -34.9448   23.5112 C   0  0  0  0  0  0
  -16.5344  -29.9040   23.6326 C   0  0  0  0  0  0
  -16.7268  -28.6457   23.0352 C   0  0  0  0  0  0
  -26.4495  -31.6575   25.0711 C   0  0  0  0  0  0
  -25.3729  -31.3714   26.1464 C   0  0  0  0  0  0
  -27.0342  -30.2998   24.6124 C   0  0  0  0  0  0
  -27.6119  -32.4246   25.7449 C   0  0  0  0  0  0
  -27.5540  -37.1792   24.8478 C   0  0  0  0  0  0
  -21.4164  -29.3075   22.3696 N   0  0  0  0  0  0
  -26.4265  -37.3749   23.9402 N   0  0  0  0  0  0
  -24.6824  -31.0721   22.1012 N   0  0  0  0  0  0
  -23.4190  -28.8176   23.2979 O   0  0  0  0  0  0
  -28.3386  -26.5447   20.1471 O   0  0  0  0  0  0
  -26.5567  -34.8913   22.4653 O   0  0  0  0  0  0
  -23.5404  -32.1443   23.7422 O   0  0  0  0  0  0
  -30.4374  -20.6833   19.6699 C   0  0  0  0  0  0
  -30.5083  -20.4455   22.0720 C   0  0  0  0  0  0
  -30.5825  -21.2916   20.9386 C   0  0  0  0  0  0
  -30.5155  -18.4163   20.6601 C   0  0  0  0  0  0
  -30.4051  -19.2720   19.5269 C   0  0  0  0  0  0
  -30.4867  -19.0309   21.9405 C   0  0  0  0  0  0
  -27.6960  -25.0535   22.0197 C   0  0  0  0  0  0
  -28.9045  -24.9655   22.9677 C   0  0  0  0  0  0
  -29.1005  -24.0428   20.1868 C   0  0  0  0  0  0
  -28.0647  -25.1567   20.5363 C   0  0  2  0  0  0
  -30.2974  -24.8054   22.3061 C   0  0  2  0  0  0
  -30.9637  -26.1701   22.0325 C   0  0  0  0  0  0
  -31.0225  -16.9552   20.4973 C   0  0  0  0  0  0
  -31.1570  -22.7306   21.0569 C   0  0  0  0  0  0
  -30.2027  -15.7267   20.7307 N   0  0  0  0  0  0
  -30.3127  -23.9829   21.0557 N   0  3  1  0  0  0
  -30.3701  -18.6343   17.9170 Cl  0  0  0  0  0  0
  -30.5941  -18.0683   23.3717 Cl  0  0  0  0  0  0
  -31.4331  -12.3508   19.1543 H   0  0  0  0  0  0
  -30.2328  -11.3471   19.9158 H   0  0  0  0  0  0
  -29.7211  -11.7263   17.4675 H   0  0  0  0  0  0
  -29.6373  -13.4496   17.7485 H   0  0  0  0  0  0
  -27.8455  -11.2867   18.8990 H   0  0  0  0  0  0
  -27.3399  -12.5489   17.8073 H   0  0  0  0  0  0
  -27.6427  -14.2556   19.4851 H   0  0  0  0  0  0
  -28.6778  -12.1729   21.4725 H   0  0  0  0  0  0
  -28.4791  -13.8820   21.7679 H   0  0  0  0  0  0
  -25.2721   -9.5687   22.4804 H   0  0  0  0  0  0
  -23.9980   -7.4624   22.7467 H   0  0  0  0  0  0
  -21.0834   -8.8748   19.8970 H   0  0  0  0  0  0
  -22.3641  -10.9675   19.6215 H   0  0  0  0  0  0
  -21.2025   -7.6168   23.9713 H   0  0  0  0  0  0
  -21.1496   -6.0553   25.9073 H   0  0  0  0  0  0
  -22.0587   -2.7622   23.2846 H   0  0  0  0  0  0
  -22.4075  -11.9868   22.4835 H   0  0  0  0  0  0
  -21.1106  -13.1269   22.2640 H   0  0  0  0  0  0
  -24.6542  -15.8468   20.5240 H   0  0  0  0  0  0
  -26.2751  -15.6344   20.0993 H   0  0  0  0  0  0
  -26.7174  -32.5520   23.1157 H   0  0  0  0  0  0
  -25.0180  -33.9737   25.0524 H   0  0  0  0  0  0
  -22.7092  -31.3152   21.4088 H   0  0  0  0  0  0
  -23.3701  -35.9722   23.3236 H   0  0  0  0  0  0
  -24.3629  -36.8952   22.2036 H   0  0  0  0  0  0
  -23.7312  -37.6554   23.6656 H   0  0  0  0  0  0
  -26.0765  -31.5732   20.5982 H   0  0  0  0  0  0
  -26.8390  -30.8672   21.9924 H   0  0  0  0  0  0
  -28.1057  -29.0320   21.1991 H   0  0  0  0  0  0
  -26.0000  -26.0250   18.8965 H   0  0  0  0  0  0
  -23.9692  -27.3419   18.9983 H   0  0  0  0  0  0
  -23.7337  -30.6144   19.4071 H   0  0  0  0  0  0
  -22.7477  -29.2624   19.8590 H   0  0  0  0  0  0
  -25.1227  -36.1946   25.0816 H   0  0  0  0  0  0
  -20.9926  -28.3233   24.1403 H   0  0  0  0  0  0
  -20.5760  -26.2279   23.3567 H   0  0  0  0  0  0
  -21.6661  -26.7501   22.1151 H   0  0  0  0  0  0
  -19.6908  -25.6257   21.1282 H   0  0  0  0  0  0
  -19.6666  -27.3164   20.6750 H   0  0  0  0  0  0
  -17.4201  -26.6651   21.4020 H   0  0  0  0  0  0
  -18.0323  -26.0034   22.9034 H   0  0  0  0  0  0
  -19.7941  -30.7253   24.2241 H   0  0  0  0  0  0
  -17.5012  -31.6248   24.5162 H   0  0  0  0  0  0
  -15.5332  -30.2936   23.7660 H   0  0  0  0  0  0
  -15.8679  -28.0764   22.7053 H   0  0  0  0  0  0
  -24.5770  -30.7229   25.7753 H   0  0  0  0  0  0
  -24.9071  -32.2907   26.5044 H   0  0  0  0  0  0
  -25.7988  -30.8728   27.0179 H   0  0  0  0  0  0
  -26.2937  -29.6782   24.1069 H   0  0  0  0  0  0
  -27.3938  -29.7207   25.4628 H   0  0  0  0  0  0
  -27.8868  -30.4255   23.9424 H   0  0  0  0  0  0
  -27.2935  -33.3691   26.1876 H   0  0  0  0  0  0
  -28.3970  -32.6536   25.0234 H   0  0  0  0  0  0
  -28.0646  -31.8388   26.5443 H   0  0  0  0  0  0
  -28.2531  -38.0103   24.7424 H   0  0  0  0  0  0
  -28.1047  -36.2611   24.6377 H   0  0  0  0  0  0
  -27.2255  -37.1511   25.8887 H   0  0  0  0  0  0
  -20.9341  -29.8793   21.6909 H   0  0  0  0  0  0
  -26.0099  -38.2798   24.1373 H   0  0  0  0  0  0
  -30.4933  -21.2904   18.7776 H   0  0  0  0  0  0
  -30.6131  -20.8644   23.0644 H   0  0  0  0  0  0
  -27.0341  -25.8666   22.3178 H   0  0  0  0  0  0
  -27.1056  -24.1472   22.1511 H   0  0  0  0  0  0
  -28.7403  -24.1237   23.6417 H   0  0  0  0  0  0
  -28.9058  -25.8446   23.6178 H   0  0  0  0  0  0
  -29.3961  -24.1043   19.1400 H   0  0  0  0  0  0
  -28.5857  -23.0875   20.2964 H   0  0  0  0  0  0
  -27.1915  -24.8085   19.9947 H   0  0  0  0  0  0
  -30.9308  -24.3327   23.0587 H   0  0  0  0  0  0
  -32.0131  -26.0487   21.7632 H   0  0  0  0  0  0
  -30.9373  -26.8122   22.9146 H   0  0  0  0  0  0
  -30.4927  -26.7187   21.2199 H   0  0  0  0  0  0
  -31.8924  -16.8838   21.1536 H   0  0  0  0  0  0
  -31.4656  -16.8767   19.5040 H   0  0  0  0  0  0
  -31.8294  -22.8490   20.2056 H   0  0  0  0  0  0
  -31.8452  -22.7323   21.9043 H   0  0  0  0  0  0
  -29.2188  -15.7980   20.9406 H   0  0  0  0  0  0
  -30.9437  -24.5622   20.5250 H   0  0  0  0  0  0
  1 25  1  0  0  0
  1 30  2  0  0  0
  1 85  1  0  0  0
  2  3  1  0  0  0
  2 25  1  0  0  0
  2 89  1  0  0  0
  2 90  1  0  0  0
  3  4  1  0  0  0
  3 91  1  0  0  0
  3 92  1  0  0  0
  4  5  1  0  0  0
  4 93  1  0  0  0
  4 94  1  0  0  0
  5  6  1  0  0  0
  5 26  1  0  0  0
  5 95  1  0  0  0
  6 25  1  0  0  0
  6 96  1  0  0  0
  6 97  1  0  0  0
  7  8  2  0  0  0
  7 26  1  0  0  0
  7 29  1  0  0  0
  8  9  1  0  0  0
  8 22  1  0  0  0
  9 10  1  0  0  0
  9 27  2  0  0  0
 10 11  2  0  0  0
 10 15  1  0  0  0
 11 12  1  0  0  0
 11 98  1  0  0  0
 12 13  2  0  0  0
 12 99  1  0  0  0
 13 14  1  0  0  0
 13 31  1  0  0  0
 14 15  2  0  0  0
 14100  1  0  0  0
 15101  1  0  0  0
 16 17  2  0  0  0
 16 21  1  0  0  0
 16 31  1  0  0  0
 17 18  1  0  0  0
 17102  1  0  0  0
 18 19  2  0  0  0
 18103  1  0  0  0
 19 20  1  0  0  0
 19 24  1  0  0  0
 20 21  2  0  0  0
 20104  1  0  0  0
 21 23  1  0  0  0
 22 28  1  0  0  0
 22 32  2  0  0  0
 26 27  1  0  0  0
 28105  1  0  0  0
 28106  1  0  0  0
 29107  1  0  0  0
 29108  1  0  0  0
 33 34  1  0  0  0
 33 66  1  0  0  0
 33 70  2  0  0  0
 34 36  1  0  0  0
 34 59  1  0  0  0
 34109  1  0  0  0
 35 44  2  0  0  0
 35 45  1  0  0  0
 35 68  1  0  0  0
 36 56  1  0  0  0
 36110  1  0  0  0
 37 39  1  0  0  0
 37 47  1  0  0  0
 37 66  1  0  0  0
 37111  1  0  0  0
 38 43  2  0  0  0
 38 46  1  0  0  0
 38 47  1  0  0  0
 39 64  1  0  0  0
 39 67  2  0  0  0
 40 52  1  0  0  0
 40 53  2  0  0  0
 40 58  1  0  0  0
 41112  1  0  0  0
 41113  1  0  0  0
 41114  1  0  0  0
 41 48  1  0  0  0
 42 43  1  0  0  0
 42 66  1  0  0  0
 42115  1  0  0  0
 42116  1  0  0  0
 43 44  1  0  0  0
 44117  1  0  0  0
 45 46  2  0  0  0
 45118  1  0  0  0
 46119  1  0  0  0
 47120  1  0  0  0
 47121  1  0  0  0
 48 56  1  0  0  0
 48 65  1  0  0  0
 48122  1  0  0  0
 49 50  1  0  0  0
 49 53  1  0  0  0
 49 64  1  0  0  0
 49123  1  0  0  0
 50 51  1  0  0  0
 50124  1  0  0  0
 50125  1  0  0  0
 51 52  1  0  0  0
 51126  1  0  0  0
 51127  1  0  0  0
 52128  1  0  0  0
 52129  1  0  0  0
 53 54  1  0  0  0
 54 55  2  0  0  0
 54130  1  0  0  0
 55 57  1  0  0  0
 55131  1  0  0  0
 56 69  2  0  0  0
 57 58  2  0  0  0
 57132  1  0  0  0
 58133  1  0  0  0
 59 60  1  0  0  0
 59 61  1  0  0  0
 59 62  1  0  0  0
 60134  1  0  0  0
 60135  1  0  0  0
 60136  1  0  0  0
 61137  1  0  0  0
 61138  1  0  0  0
 61139  1  0  0  0
 62140  1  0  0  0
 62141  1  0  0  0
 62142  1  0  0  0
 63 65  1  0  0  0
 63143  1  0  0  0
 63144  1  0  0  0
 63145  1  0  0  0
 64146  1  0  0  0
 65147  1  0  0  0
 68 80  1  0  0  0
 71 73  2  0  0  0
 71 75  1  0  0  0
 71148  1  0  0  0
 72 73  1  0  0  0
 72 76  2  0  0  0
 72149  1  0  0  0
 73 84  1  0  0  0
 74 75  2  0  0  0
 74 76  1  0  0  0
 74 83  1  0  0  0
 75 87  1  0  0  0
 76 88  1  0  0  0
 77 78  1  0  0  0
 77 80  1  0  0  0
 77150  1  0  0  0
 77151  1  0  0  0
 78 81  1  0  0  0
 78152  1  0  0  0
 78153  1  0  0  0
 79 80  1  0  0  0
 79 86  1  0  0  0
 79154  1  0  0  0
 79155  1  0  0  0
 80156  1  0  0  0
 81 82  1  0  0  0
 81 86  1  0  0  0
 81157  1  0  0  0
 82158  1  0  0  0
 82159  1  0  0  0
 82160  1  0  0  0
 83 85  1  0  0  0
 83161  1  0  0  0
 83162  1  0  0  0
 84163  1  0  0  0
 84164  1  0  0  0
 84 86  1  0  0  0
 85165  1  0  0  0
 86166  1  0  0  0
M  CHG  1  86   1
M  ISO  4   1 100  68 101  80 101  85 100
M  END
> <chiral flag>
0

> <version>
0

> <s_m_source_file>
/data/baiqing/PycharmProjects/Reinvent-master-3.2/result/LINK_invent/BTK/process_docking_weight1_custom_product_contain_oxygen_bond_distance_aromatic_linkinvent_7_9_3/rearranged_h_0037.sdf

> <i_m_source_file_index>
1

> <r_mmod_Potential_Energy-OPLS-2005>
60.2036819458008

> <r_mmod_Stretch_Energy-OPLS-2005>
56.8469390869141

> <r_mmod_Bend_Energy-OPLS-2005>
185.052612304688

> <r_mmod_Torsional_Energy-OPLS-2005>
321.212615966797

> <r_mmod_Improper_Torsional_Energy-OPLS-2005>
11.5532293319702

> <r_mmod_Van_der_Waal_Energy-OPLS-2005>
162.483734130859

> <r_mmod_Electrostatic_Energy-OPLS-2005>
-285.649566650391

> <r_mmod_Solvation_Energy-OPLS-2005>
-430.085845947266

> <b_mmod_Minimization_Converged-OPLS-2005>
0

> <r_mmod_RMS_Derivative-OPLS-2005>
4.35230255126953

$$$$
1
                    3D
 Structure written by MMmdl.
170179  0  0  1  0            999 V2000
  -30.6207  -14.7443   20.4432 C   0  0  0  0  0  0
  -30.4203  -12.4536   19.4690 C   0  0  0  0  0  0
  -29.4916  -12.4962   18.2368 C   0  0  0  0  0  0
  -28.0206  -12.3279   18.6553 C   0  0  0  0  0  0
  -27.6340  -13.2356   19.8512 C   0  0  2  0  0  0
  -28.6814  -13.1931   20.9851 C   0  0  0  0  0  0
  -25.2464  -13.8237   20.5735 C   0  0  0  0  0  0
  -24.1767  -13.0479   20.9268 C   0  0  0  0  0  0
  -24.6358  -11.6952   20.8805 C   0  0  0  0  0  0
  -23.9049  -10.4323   21.0439 C   0  0  0  0  0  0
  -24.3614   -9.4240   21.9207 C   0  0  0  0  0  0
  -23.6309   -8.2259   22.0752 C   0  0  0  0  0  0
  -22.4296   -8.0293   21.3535 C   0  0  0  0  0  0
  -21.9926   -9.0260   20.4627 C   0  0  0  0  0  0
  -22.7235  -10.2157   20.3068 C   0  0  0  0  0  0
  -21.6856   -6.0773   22.5289 C   0  0  0  0  0  0
  -21.4004   -6.5664   23.8233 C   0  0  0  0  0  0
  -21.3647   -5.6798   24.9177 C   0  0  0  0  0  0
  -21.6047   -4.3071   24.7212 C   0  0  0  0  0  0
  -21.8815   -3.8178   23.4333 C   0  0  0  0  0  0
  -21.9191   -4.6999   22.3398 C   0  0  0  0  0  0
  -22.7794  -13.5251   21.1930 C   0  0  0  0  0  0
  -22.1670   -4.2209   21.0973 F   0  0  0  0  0  0
  -21.5616   -3.4542   25.7716 F   0  0  0  0  0  0
  -29.9789  -13.5283   20.3869 N   0  0  0  0  0  0
  -26.2890  -12.9436   20.3332 N   0  0  0  0  0  0
  -25.9293  -11.6598   20.5820 N   0  0  0  0  0  0
  -22.0424  -12.8198   22.0449 N   0  0  0  0  0  0
  -25.4127  -15.1947   20.4106 N   0  0  0  0  0  0
  -31.8096  -14.8032   20.1289 O   0  0  0  0  0  0
  -21.6645   -6.8909   21.4250 O   0  0  0  0  0  0
  -22.3478  -14.5567   20.6807 O   0  0  0  0  0  0
  -24.6388  -31.8424   23.1934 C   0  0  0  0  0  0
  -25.9170  -32.4676   23.8300 C   0  0  1  0  0  0
  -27.2176  -27.2374   20.1125 C   0  0  0  0  0  0
  -25.5939  -33.8477   24.2210 N   0  0  0  0  0  0
  -23.4316  -30.4686   21.5341 C   0  0  2  0  0  0
  -24.8758  -28.9109   20.0991 C   0  0  0  0  0  0
  -22.7522  -29.4499   22.4812 C   0  0  0  0  0  0
  -18.0298  -28.1408   22.8401 C   0  0  0  0  0  0
  -24.1504  -36.7299   23.2636 C   0  0  0  0  0  0
  -25.9776  -30.7509   21.3687 C   0  0  0  0  0  0
  -26.0458  -29.3708   20.7127 C   0  0  0  0  0  0
  -27.2148  -28.5436   20.7106 C   0  0  0  0  0  0
  -26.0245  -26.8400   19.4729 C   0  0  0  0  0  0
  -24.8704  -27.6543   19.4702 C   0  0  0  0  0  0
  -23.6513  -29.8073   20.1477 C   0  0  0  0  0  0
  -25.4115  -36.3006   24.0305 C   0  0  1  0  0  0
  -20.5899  -28.3683   23.1254 C   0  0  2  0  0  0
  -20.6790  -26.9384   22.5415 C   0  0  0  0  0  0
  -19.5779  -26.6369   21.5193 C   0  0  0  0  0  0
  -18.1940  -26.7943   22.1570 C   0  0  0  0  0  0
  -19.1554  -28.8862   23.2823 C   0  0  0  0  0  0
  -18.9474  -30.1456   23.8848 C   0  0  0  0  0  0
  -17.6480  -30.6569   24.0560 C   0  0  0  0  0  0
  -25.9055  -34.9391   23.5051 C   0  0  0  0  0  0
  -16.5361  -29.9081   23.6345 C   0  0  0  0  0  0
  -16.7275  -28.6538   23.0254 C   0  0  0  0  0  0
  -26.4562  -31.6530   25.0725 C   0  0  0  0  0  0
  -25.3809  -31.3592   26.1462 C   0  0  0  0  0  0
  -27.0436  -30.2987   24.6161 C   0  0  0  0  0  0
  -27.6126  -32.4262   25.7513 C   0  0  0  0  0  0
  -27.5557  -37.1793   24.8442 C   0  0  0  0  0  0
  -21.4217  -29.3020   22.3633 N   0  0  0  0  0  0
  -26.4269  -37.3720   23.9397 N   0  0  0  0  0  0
  -24.7021  -31.0393   22.0894 N   0  0  0  0  0  0
  -23.4217  -28.7973   23.2866 O   0  0  0  0  0  0
  -28.3337  -26.3717   20.2139 O   0  0  0  0  0  0
  -26.5601  -34.8869   22.4609 O   0  0  0  0  0  0
  -23.5526  -32.1230   23.7240 O   0  0  0  0  0  0
  -31.7651  -19.0408   21.5534 C   0  0  0  0  0  0
  -30.8627  -20.1036   21.3239 C   0  0  0  0  0  0
  -29.6005  -19.8584   20.7073 C   0  0  0  0  0  0
  -30.2077  -17.3319   20.7359 C   0  0  0  0  0  0
  -31.4540  -17.6951   21.2984 C   0  0  0  0  0  0
  -29.3036  -18.4422   20.4421 C   0  0  0  0  0  0
  -28.1891  -23.6718   20.3657 C   0  0  0  0  0  0
  -30.8562  -22.0641   26.2937 C   0  0  0  0  0  0
  -30.3194  -20.7612   25.6847 C   0  0  0  0  0  0
  -30.6317  -23.2525   25.3462 C   0  0  0  0  0  0
  -30.8984  -20.5087   24.2859 C   0  0  0  0  0  0
  -31.2561  -22.9850   23.9640 C   0  0  0  0  0  0
  -30.6834  -21.7031   23.3247 C   0  0  0  0  0  0
  -31.2742  -21.4522   21.9136 C   0  0  0  0  0  0
  -28.5385  -21.0474   20.4634 C   0  0  0  0  0  0
  -28.4601  -25.0278   19.5419 C   0  0  0  0  0  0
  -29.8459  -15.8936   20.5667 N   0  0  0  0  0  0
  -28.8942  -22.4992   20.1130 N   0  0  0  0  0  0
  -27.2644  -23.6659   21.1814 O   0  0  0  0  0  0
  -32.3521  -16.7654   21.7004 F   0  0  0  0  0  0
  -27.7629  -18.0257   19.7739 Cl  0  0  0  0  0  0
  -31.4565  -12.5807   19.1519 H   0  0  0  0  0  0
  -30.3735  -11.4829   19.9674 H   0  0  0  0  0  0
  -29.7671  -11.7161   17.5276 H   0  0  0  0  0  0
  -29.6146  -13.4465   17.7155 H   0  0  0  0  0  0
  -27.8703  -11.2810   18.9205 H   0  0  0  0  0  0
  -27.3588  -12.5215   17.8096 H   0  0  0  0  0  0
  -27.6182  -14.2524   19.4602 H   0  0  0  0  0  0
  -28.7163  -12.2121   21.4613 H   0  0  0  0  0  0
  -28.4234  -13.9065   21.7693 H   0  0  0  0  0  0
  -25.2741   -9.5765   22.4807 H   0  0  0  0  0  0
  -24.0042   -7.4665   22.7481 H   0  0  0  0  0  0
  -21.0870   -8.8759   19.8932 H   0  0  0  0  0  0
  -22.3664  -10.9704   19.6203 H   0  0  0  0  0  0
  -21.1985   -7.6165   23.9762 H   0  0  0  0  0  0
  -21.1465   -6.0512   25.9086 H   0  0  0  0  0  0
  -22.0594   -2.7644   23.2800 H   0  0  0  0  0  0
  -22.4010  -11.9802   22.4738 H   0  0  0  0  0  0
  -21.1061  -13.1217   22.2730 H   0  0  0  0  0  0
  -24.6420  -15.8428   20.5318 H   0  0  0  0  0  0
  -26.2439  -15.6414   20.0454 H   0  0  0  0  0  0
  -26.7214  -32.5323   23.1011 H   0  0  0  0  0  0
  -25.0172  -33.9622   25.0408 H   0  0  0  0  0  0
  -22.7306  -31.2932   21.3877 H   0  0  0  0  0  0
  -23.3737  -35.9658   23.3252 H   0  0  0  0  0  0
  -24.3605  -36.9003   22.2061 H   0  0  0  0  0  0
  -23.7330  -37.6502   23.6738 H   0  0  0  0  0  0
  -26.1056  -31.5008   20.5860 H   0  0  0  0  0  0
  -26.8619  -30.8064   21.9910 H   0  0  0  0  0  0
  -28.1144  -28.8778   21.2038 H   0  0  0  0  0  0
  -25.9408  -25.8729   18.9976 H   0  0  0  0  0  0
  -23.9722  -27.2963   18.9868 H   0  0  0  0  0  0
  -23.7904  -30.5918   19.4039 H   0  0  0  0  0  0
  -22.7655  -29.2589   19.8211 H   0  0  0  0  0  0
  -25.1300  -36.1810   25.0796 H   0  0  0  0  0  0
  -20.9989  -28.3274   24.1377 H   0  0  0  0  0  0
  -20.5710  -26.2232   23.3592 H   0  0  0  0  0  0
  -21.6650  -26.7394   22.1180 H   0  0  0  0  0  0
  -19.6962  -25.6275   21.1219 H   0  0  0  0  0  0
  -19.6824  -27.3187   20.6732 H   0  0  0  0  0  0
  -17.4219  -26.6660   21.3967 H   0  0  0  0  0  0
  -18.0348  -26.0103   22.8998 H   0  0  0  0  0  0
  -19.7946  -30.7294   24.2198 H   0  0  0  0  0  0
  -17.5002  -31.6254   24.5171 H   0  0  0  0  0  0
  -15.5348  -30.2937   23.7733 H   0  0  0  0  0  0
  -15.8678  -28.0918   22.6888 H   0  0  0  0  0  0
  -24.6056  -30.6853   25.7796 H   0  0  0  0  0  0
  -24.8943  -32.2698   26.4952 H   0  0  0  0  0  0
  -25.8191  -30.8771   27.0214 H   0  0  0  0  0  0
  -26.2988  -29.6661   24.1326 H   0  0  0  0  0  0
  -27.4317  -29.7306   25.4628 H   0  0  0  0  0  0
  -27.8755  -30.4319   23.9248 H   0  0  0  0  0  0
  -27.2783  -33.3591   26.2053 H   0  0  0  0  0  0
  -28.3992  -32.6739   25.0372 H   0  0  0  0  0  0
  -28.0720  -31.8391   26.5476 H   0  0  0  0  0  0
  -28.2492  -38.0149   24.7469 H   0  0  0  0  0  0
  -28.1131  -36.2671   24.6277 H   0  0  0  0  0  0
  -27.2276  -37.1426   25.8840 H   0  0  0  0  0  0
  -20.9372  -29.8827   21.6950 H   0  0  0  0  0  0
  -26.0122  -38.2771   24.1451 H   0  0  0  0  0  0
  -32.7060  -19.2441   22.0454 H   0  0  0  0  0  0
  -31.9219  -21.9615   26.5054 H   0  0  0  0  0  0
  -30.3700  -22.2499   27.2533 H   0  0  0  0  0  0
  -29.2312  -20.8015   25.6220 H   0  0  0  0  0  0
  -30.5565  -19.9199   26.3372 H   0  0  0  0  0  0
  -31.0524  -24.1575   25.7868 H   0  0  0  0  0  0
  -29.5622  -23.4354   25.2350 H   0  0  0  0  0  0
  -30.4244  -19.6107   23.8904 H   0  0  0  0  0  0
  -31.9651  -20.2931   24.3646 H   0  0  0  0  0  0
  -32.3391  -22.8912   24.0656 H   0  0  0  0  0  0
  -31.0827  -23.8374   23.3075 H   0  0  0  0  0  0
  -29.6063  -21.8419   23.2088 H   0  0  0  0  0  0
  -31.0581  -22.2783   21.2442 H   0  0  0  0  0  0
  -32.3617  -21.4653   21.9922 H   0  0  0  0  0  0
  -27.8907  -21.0701   21.3398 H   0  0  0  0  0  0
  -27.8893  -20.7313   19.6465 H   0  0  0  0  0  0
  -27.8561  -24.9948   18.6388 H   0  0  0  0  0  0
  -29.4845  -24.9704   19.1729 H   0  0  0  0  0  0
  -28.8534  -15.7253   20.5221 H   0  0  0  0  0  0
  -29.6834  -22.5977   19.4895 H   0  0  0  0  0  0
  1 25  1  0  0  0
  1 30  2  0  0  0
  1 87  1  0  0  0
  2  3  1  0  0  0
  2 25  1  0  0  0
  2 92  1  0  0  0
  2 93  1  0  0  0
  3  4  1  0  0  0
  3 94  1  0  0  0
  3 95  1  0  0  0
  4  5  1  0  0  0
  4 96  1  0  0  0
  4 97  1  0  0  0
  5  6  1  0  0  0
  5 26  1  0  0  0
  5 98  1  0  0  0
  6 25  1  0  0  0
  6 99  1  0  0  0
  6100  1  0  0  0
  7  8  2  0  0  0
  7 26  1  0  0  0
  7 29  1  0  0  0
  8  9  1  0  0  0
  8 22  1  0  0  0
  9 10  1  0  0  0
  9 27  2  0  0  0
 10 11  2  0  0  0
 10 15  1  0  0  0
 11 12  1  0  0  0
 11101  1  0  0  0
 12 13  2  0  0  0
 12102  1  0  0  0
 13 14  1  0  0  0
 13 31  1  0  0  0
 14 15  2  0  0  0
 14103  1  0  0  0
 15104  1  0  0  0
 16 17  2  0  0  0
 16 21  1  0  0  0
 16 31  1  0  0  0
 17 18  1  0  0  0
 17105  1  0  0  0
 18 19  2  0  0  0
 18106  1  0  0  0
 19 20  1  0  0  0
 19 24  1  0  0  0
 20 21  2  0  0  0
 20107  1  0  0  0
 21 23  1  0  0  0
 22 28  1  0  0  0
 22 32  2  0  0  0
 26 27  1  0  0  0
 28108  1  0  0  0
 28109  1  0  0  0
 29110  1  0  0  0
 29111  1  0  0  0
 33 34  1  0  0  0
 33 66  1  0  0  0
 33 70  2  0  0  0
 34 36  1  0  0  0
 34 59  1  0  0  0
 34112  1  0  0  0
 35 44  2  0  0  0
 35 45  1  0  0  0
 35 68  1  0  0  0
 36 56  1  0  0  0
 36113  1  0  0  0
 37 39  1  0  0  0
 37 47  1  0  0  0
 37 66  1  0  0  0
 37114  1  0  0  0
 38 43  2  0  0  0
 38 46  1  0  0  0
 38 47  1  0  0  0
 39 64  1  0  0  0
 39 67  2  0  0  0
 40 52  1  0  0  0
 40 53  2  0  0  0
 40 58  1  0  0  0
 41115  1  0  0  0
 41116  1  0  0  0
 41117  1  0  0  0
 41 48  1  0  0  0
 42 43  1  0  0  0
 42 66  1  0  0  0
 42118  1  0  0  0
 42119  1  0  0  0
 43 44  1  0  0  0
 44120  1  0  0  0
 45 46  2  0  0  0
 45121  1  0  0  0
 46122  1  0  0  0
 47123  1  0  0  0
 47124  1  0  0  0
 48 56  1  0  0  0
 48 65  1  0  0  0
 48125  1  0  0  0
 49 50  1  0  0  0
 49 53  1  0  0  0
 49 64  1  0  0  0
 49126  1  0  0  0
 50 51  1  0  0  0
 50127  1  0  0  0
 50128  1  0  0  0
 51 52  1  0  0  0
 51129  1  0  0  0
 51130  1  0  0  0
 52131  1  0  0  0
 52132  1  0  0  0
 53 54  1  0  0  0
 54 55  2  0  0  0
 54133  1  0  0  0
 55 57  1  0  0  0
 55134  1  0  0  0
 56 69  2  0  0  0
 57 58  2  0  0  0
 57135  1  0  0  0
 58136  1  0  0  0
 59 60  1  0  0  0
 59 61  1  0  0  0
 59 62  1  0  0  0
 60137  1  0  0  0
 60138  1  0  0  0
 60139  1  0  0  0
 61140  1  0  0  0
 61141  1  0  0  0
 61142  1  0  0  0
 62143  1  0  0  0
 62144  1  0  0  0
 62145  1  0  0  0
 63 65  1  0  0  0
 63146  1  0  0  0
 63147  1  0  0  0
 63148  1  0  0  0
 64149  1  0  0  0
 65150  1  0  0  0
 68 86  1  0  0  0
 71 72  2  0  0  0
 71 75  1  0  0  0
 71151  1  0  0  0
 72 73  1  0  0  0
 72 84  1  0  0  0
 73 76  2  0  0  0
 73 85  1  0  0  0
 74 75  2  0  0  0
 74 76  1  0  0  0
 74 87  1  0  0  0
 75 90  1  0  0  0
 76 91  1  0  0  0
 77 86  1  0  0  0
 77 88  1  0  0  0
 77 89  2  0  0  0
 78 79  1  0  0  0
 78 80  1  0  0  0
 78152  1  0  0  0
 78153  1  0  0  0
 79 81  1  0  0  0
 79154  1  0  0  0
 79155  1  0  0  0
 80 82  1  0  0  0
 80156  1  0  0  0
 80157  1  0  0  0
 81 83  1  0  0  0
 81158  1  0  0  0
 81159  1  0  0  0
 82 83  1  0  0  0
 82160  1  0  0  0
 82161  1  0  0  0
 83 84  1  0  0  0
 83162  1  0  0  0
 84163  1  0  0  0
 84164  1  0  0  0
 85 88  1  0  0  0
 85165  1  0  0  0
 85166  1  0  0  0
 86167  1  0  0  0
 86168  1  0  0  0
 87169  1  0  0  0
 88170  1  0  0  0
M  ISO  4   1 100  68 101  86 101  87 100
M  END
> <chiral flag>
0

> <version>
0

> <s_m_source_file>
/data/baiqing/PycharmProjects/Reinvent-master-3.2/result/LINK_invent/BTK/process_docking_weight1_custom_product_contain_oxygen_bond_distance_aromatic_linkinvent_7_9_3/rearranged_h_0037.sdf

> <i_m_source_file_index>
2

> <r_mmod_Potential_Energy-OPLS-2005>
133.674041748047

> <r_mmod_Stretch_Energy-OPLS-2005>
137.03466796875

> <r_mmod_Bend_Energy-OPLS-2005>
188.737854003906

> <r_mmod_Torsional_Energy-OPLS-2005>
239.680740356445

> <r_mmod_Improper_Torsional_Energy-OPLS-2005>
9.34607887268066

> <r_mmod_Van_der_Waal_Energy-OPLS-2005>
141.987197875977

> <r_mmod_Electrostatic_Energy-OPLS-2005>
-437.991455078125

> <r_mmod_Solvation_Energy-OPLS-2005>
-237.289627075195

> <b_mmod_Minimization_Converged-OPLS-2005>
0

> <r_mmod_RMS_Derivative-OPLS-2005>
4.34921073913574

$$$$
2
                    3D
 Structure written by MMmdl.
167176  0  0  1  0            999 V2000
  -30.5912  -14.6368   20.4333 C   0  0  0  0  0  0
  -30.4382  -12.3735   19.4356 C   0  0  0  0  0  0
  -29.5015  -12.4879   18.2117 C   0  0  0  0  0  0
  -28.0242  -12.3261   18.6265 C   0  0  0  0  0  0
  -27.6478  -13.1944   19.8561 C   0  0  2  0  0  0
  -28.7001  -13.0583   20.9805 C   0  0  0  0  0  0
  -25.2529  -13.8054   20.5706 C   0  0  0  0  0  0
  -24.1799  -13.0346   20.9235 C   0  0  0  0  0  0
  -24.6363  -11.6834   20.8754 C   0  0  0  0  0  0
  -23.9033  -10.4242   21.0420 C   0  0  0  0  0  0
  -24.3592   -9.4169   21.9200 C   0  0  0  0  0  0
  -23.6270   -8.2210   22.0766 C   0  0  0  0  0  0
  -22.4252   -8.0258   21.3552 C   0  0  0  0  0  0
  -21.9890   -9.0221   20.4644 C   0  0  0  0  0  0
  -22.7213  -10.2099   20.3059 C   0  0  0  0  0  0
  -21.6845   -6.0719   22.5280 C   0  0  0  0  0  0
  -21.4000   -6.5632   23.8210 C   0  0  0  0  0  0
  -21.3654   -5.6791   24.9180 C   0  0  0  0  0  0
  -21.6049   -4.3052   24.7232 C   0  0  0  0  0  0
  -21.8822   -3.8137   23.4353 C   0  0  0  0  0  0
  -21.9187   -4.6950   22.3405 C   0  0  0  0  0  0
  -22.7839  -13.5183   21.1863 C   0  0  0  0  0  0
  -22.1663   -4.2143   21.0985 F   0  0  0  0  0  0
  -21.5631   -3.4540   25.7744 F   0  0  0  0  0  0
  -30.0118  -13.3978   20.4059 N   0  0  0  0  0  0
  -26.2947  -12.9222   20.3295 N   0  0  0  0  0  0
  -25.9278  -11.6397   20.5754 N   0  0  0  0  0  0
  -22.0467  -12.8184   22.0418 N   0  0  0  0  0  0
  -25.4115  -15.1751   20.4119 N   0  0  0  0  0  0
  -31.7780  -14.8107   20.1407 O   0  0  0  0  0  0
  -21.6623   -6.8852   21.4240 O   0  0  0  0  0  0
  -22.3546  -14.5498   20.6707 O   0  0  0  0  0  0
  -24.6237  -31.8575   23.1991 C   0  0  0  0  0  0
  -25.9105  -32.4755   23.8319 C   0  0  1  0  0  0
  -27.2417  -27.3400   20.1002 C   0  0  0  0  0  0
  -25.5930  -33.8553   24.2241 N   0  0  0  0  0  0
  -23.4192  -30.4763   21.5422 C   0  0  2  0  0  0
  -24.8685  -28.9228   20.1155 C   0  0  0  0  0  0
  -22.7483  -29.4590   22.4943 C   0  0  0  0  0  0
  -18.0290  -28.1349   22.8432 C   0  0  0  0  0  0
  -24.1547  -36.7269   23.2648 C   0  0  0  0  0  0
  -25.9598  -30.7897   21.3723 C   0  0  0  0  0  0
  -26.0358  -29.4169   20.7135 C   0  0  0  0  0  0
  -27.2268  -28.6374   20.6937 C   0  0  0  0  0  0
  -26.0528  -26.8815   19.4963 C   0  0  0  0  0  0
  -24.8776  -27.6567   19.5042 C   0  0  0  0  0  0
  -23.6334  -29.7998   20.1624 C   0  0  0  0  0  0
  -25.4159  -36.3055   24.0336 C   0  0  1  0  0  0
  -20.5896  -28.3636   23.1270 C   0  0  2  0  0  0
  -20.6815  -26.9367   22.5390 C   0  0  0  0  0  0
  -19.5800  -26.6356   21.5180 C   0  0  0  0  0  0
  -18.1962  -26.7896   22.1573 C   0  0  0  0  0  0
  -19.1542  -28.8814   23.2836 C   0  0  0  0  0  0
  -18.9472  -30.1430   23.8835 C   0  0  0  0  0  0
  -17.6478  -30.6553   24.0538 C   0  0  0  0  0  0
  -25.9088  -34.9427   23.5091 C   0  0  0  0  0  0
  -16.5367  -29.9041   23.6332 C   0  0  0  0  0  0
  -16.7289  -28.6478   23.0305 C   0  0  0  0  0  0
  -26.4484  -31.6574   25.0696 C   0  0  0  0  0  0
  -25.3695  -31.3725   26.1411 C   0  0  0  0  0  0
  -27.0357  -30.3012   24.6148 C   0  0  0  0  0  0
  -27.6037  -32.4319   25.7446 C   0  0  0  0  0  0
  -27.5611  -37.1794   24.8464 C   0  0  0  0  0  0
  -21.4205  -29.2987   22.3674 N   0  0  0  0  0  0
  -26.4323  -37.3748   23.9402 N   0  0  0  0  0  0
  -24.6857  -31.0597   22.0932 N   0  0  0  0  0  0
  -23.4223  -28.8167   23.3045 O   0  0  0  0  0  0
  -28.3894  -26.5446   20.0377 O   0  0  0  0  0  0
  -26.5649  -34.8883   22.4658 O   0  0  0  0  0  0
  -23.5415  -32.1369   23.7327 O   0  0  0  0  0  0
  -30.8222  -17.9372   20.7531 C   0  0  0  0  0  0
  -28.7212  -19.1499   19.3667 C   0  0  0  0  0  0
  -30.8190  -19.3519   20.5341 C   0  0  0  0  0  0
  -29.7411  -20.0075   19.8517 C   0  0  0  0  0  0
  -29.7946  -17.0944   20.2671 C   0  0  0  0  0  0
  -28.7543  -17.7403   19.5457 C   0  0  0  0  0  0
  -29.1550  -24.0990   19.8092 C   0  0  0  0  0  0
  -29.9019  -24.4225   18.7343 C   0  0  0  0  0  0
  -28.5591  -24.4640   23.1192 C   0  0  0  0  0  0
  -28.3281  -23.0075   22.6984 C   0  0  0  0  0  0
  -29.0109  -25.4129   22.0013 C   0  0  0  0  0  0
  -29.3864  -22.4266   21.7498 C   0  0  0  0  0  0
  -28.3592  -25.1901   20.6211 C   0  0  1  0  0  0
  -32.0255  -20.1270   21.0407 C   0  0  0  0  0  0
  -29.7324  -21.5443   19.4619 C   0  0  0  0  0  0
  -29.7042  -15.6686   20.5609 N   0  0  0  0  0  0
  -29.0466  -22.6126   20.3125 N   0  3  1  0  0  0
  -27.5106  -16.8105   18.7972 Cl  0  0  0  0  0  0
  -31.4781  -12.5062   19.1319 H   0  0  0  0  0  0
  -30.3763  -11.3787   19.8802 H   0  0  0  0  0  0
  -29.7635  -11.7354   17.4657 H   0  0  0  0  0  0
  -29.6403  -13.4566   17.7294 H   0  0  0  0  0  0
  -27.8568  -11.2726   18.8529 H   0  0  0  0  0  0
  -27.3701  -12.5614   17.7860 H   0  0  0  0  0  0
  -27.6576  -14.2211   19.5055 H   0  0  0  0  0  0
  -28.7126  -12.0400   21.3723 H   0  0  0  0  0  0
  -28.4535  -13.7017   21.8274 H   0  0  0  0  0  0
  -25.2736   -9.5654   22.4777 H   0  0  0  0  0  0
  -23.9977   -7.4608   22.7493 H   0  0  0  0  0  0
  -21.0825   -8.8731   19.8952 H   0  0  0  0  0  0
  -22.3673  -10.9641   19.6170 H   0  0  0  0  0  0
  -21.1987   -7.6144   23.9712 H   0  0  0  0  0  0
  -21.1478   -6.0526   25.9085 H   0  0  0  0  0  0
  -22.0603   -2.7605   23.2857 H   0  0  0  0  0  0
  -22.4063  -11.9820   22.4760 H   0  0  0  0  0  0
  -21.1095  -13.1241   22.2636 H   0  0  0  0  0  0
  -24.6064  -15.7892   20.4517 H   0  0  0  0  0  0
  -26.1928  -15.5943   19.9195 H   0  0  0  0  0  0
  -26.7169  -32.5417   23.1063 H   0  0  0  0  0  0
  -25.0064  -33.9685   25.0371 H   0  0  0  0  0  0
  -22.7095  -31.2925   21.3938 H   0  0  0  0  0  0
  -23.3800  -35.9618   23.3312 H   0  0  0  0  0  0
  -24.3630  -36.8882   22.2064 H   0  0  0  0  0  0
  -23.7318  -37.6472   23.6662 H   0  0  0  0  0  0
  -26.1015  -31.5576   20.6110 H   0  0  0  0  0  0
  -26.8341  -30.8259   22.0084 H   0  0  0  0  0  0
  -28.1302  -29.0185   21.1495 H   0  0  0  0  0  0
  -26.0381  -25.9198   19.0031 H   0  0  0  0  0  0
  -23.9824  -27.2738   19.0363 H   0  0  0  0  0  0
  -23.7444  -30.5695   19.3981 H   0  0  0  0  0  0
  -22.7572  -29.2194   19.8717 H   0  0  0  0  0  0
  -25.1352  -36.1908   25.0828 H   0  0  0  0  0  0
  -20.9943  -28.3235   24.1406 H   0  0  0  0  0  0
  -20.5763  -26.2236   23.3581 H   0  0  0  0  0  0
  -21.6686  -26.7452   22.1161 H   0  0  0  0  0  0
  -19.7004  -25.6271   21.1202 H   0  0  0  0  0  0
  -19.6785  -27.3167   20.6718 H   0  0  0  0  0  0
  -17.4260  -26.6595   21.3962 H   0  0  0  0  0  0
  -18.0379  -26.0038   22.8977 H   0  0  0  0  0  0
  -19.7971  -30.7237   24.2173 H   0  0  0  0  0  0
  -17.5042  -31.6234   24.5137 H   0  0  0  0  0  0
  -15.5359  -30.2909   23.7712 H   0  0  0  0  0  0
  -15.8691  -28.0816   22.6981 H   0  0  0  0  0  0
  -24.5838  -30.7114   25.7727 H   0  0  0  0  0  0
  -24.8905  -32.2917   26.4808 H   0  0  0  0  0  0
  -25.7980  -30.8895   27.0206 H   0  0  0  0  0  0
  -26.2946  -29.6718   24.1214 H   0  0  0  0  0  0
  -27.4124  -29.7301   25.4640 H   0  0  0  0  0  0
  -27.8784  -30.4317   23.9343 H   0  0  0  0  0  0
  -27.2652  -33.3636   26.1981 H   0  0  0  0  0  0
  -28.3856  -32.6852   25.0269 H   0  0  0  0  0  0
  -28.0689  -31.8469   26.5378 H   0  0  0  0  0  0
  -28.2592  -38.0133   24.7514 H   0  0  0  0  0  0
  -28.1151  -36.2642   24.6303 H   0  0  0  0  0  0
  -27.2302  -37.1434   25.8860 H   0  0  0  0  0  0
  -20.9409  -29.8643   21.6811 H   0  0  0  0  0  0
  -26.0217  -38.2830   24.1375 H   0  0  0  0  0  0
  -31.6332  -17.4902   21.3108 H   0  0  0  0  0  0
  -27.9044  -19.5648   18.7944 H   0  0  0  0  0  0
  -29.9797  -25.4509   18.4099 H   0  0  0  0  0  0
  -30.4613  -23.7079   18.1520 H   0  0  0  0  0  0
  -29.3071  -24.4944   23.9138 H   0  0  0  0  0  0
  -27.6389  -24.8436   23.5650 H   0  0  0  0  0  0
  -27.3323  -22.8914   22.2709 H   0  0  0  0  0  0
  -28.3161  -22.4033   23.6074 H   0  0  0  0  0  0
  -30.0957  -25.3707   21.8951 H   0  0  0  0  0  0
  -28.8083  -26.4284   22.3442 H   0  0  0  0  0  0
  -29.4231  -21.3625   21.9803 H   0  0  0  0  0  0
  -30.3817  -22.8174   21.9611 H   0  0  0  0  0  0
  -27.3271  -24.8610   20.7386 H   0  0  0  0  0  0
  -32.8572  -19.4531   21.2493 H   0  0  0  0  0  0
  -31.7835  -20.6561   21.9621 H   0  0  0  0  0  0
  -32.3966  -20.8441   20.3103 H   0  0  0  0  0  0
  -29.2982  -21.6111   18.4655 H   0  0  0  0  0  0
  -30.7675  -21.8448   19.3216 H   0  0  0  0  0  0
  -28.7576  -15.3367   20.6655 H   0  0  0  0  0  0
  -28.0730  -22.3530   20.2499 H   0  0  0  0  0  0
  1 25  1  0  0  0
  1 30  2  0  0  0
  1 86  1  0  0  0
  2  3  1  0  0  0
  2 25  1  0  0  0
  2 89  1  0  0  0
  2 90  1  0  0  0
  3  4  1  0  0  0
  3 91  1  0  0  0
  3 92  1  0  0  0
  4  5  1  0  0  0
  4 93  1  0  0  0
  4 94  1  0  0  0
  5  6  1  0  0  0
  5 26  1  0  0  0
  5 95  1  0  0  0
  6 25  1  0  0  0
  6 96  1  0  0  0
  6 97  1  0  0  0
  7  8  2  0  0  0
  7 26  1  0  0  0
  7 29  1  0  0  0
  8  9  1  0  0  0
  8 22  1  0  0  0
  9 10  1  0  0  0
  9 27  2  0  0  0
 10 11  2  0  0  0
 10 15  1  0  0  0
 11 12  1  0  0  0
 11 98  1  0  0  0
 12 13  2  0  0  0
 12 99  1  0  0  0
 13 14  1  0  0  0
 13 31  1  0  0  0
 14 15  2  0  0  0
 14100  1  0  0  0
 15101  1  0  0  0
 16 17  2  0  0  0
 16 21  1  0  0  0
 16 31  1  0  0  0
 17 18  1  0  0  0
 17102  1  0  0  0
 18 19  2  0  0  0
 18103  1  0  0  0
 19 20  1  0  0  0
 19 24  1  0  0  0
 20 21  2  0  0  0
 20104  1  0  0  0
 21 23  1  0  0  0
 22 28  1  0  0  0
 22 32  2  0  0  0
 26 27  1  0  0  0
 28105  1  0  0  0
 28106  1  0  0  0
 29107  1  0  0  0
 29108  1  0  0  0
 33 34  1  0  0  0
 33 66  1  0  0  0
 33 70  2  0  0  0
 34 36  1  0  0  0
 34 59  1  0  0  0
 34109  1  0  0  0
 35 44  2  0  0  0
 35 45  1  0  0  0
 35 68  1  0  0  0
 36 56  1  0  0  0
 36110  1  0  0  0
 37 39  1  0  0  0
 37 47  1  0  0  0
 37 66  1  0  0  0
 37111  1  0  0  0
 38 43  2  0  0  0
 38 46  1  0  0  0
 38 47  1  0  0  0
 39 64  1  0  0  0
 39 67  2  0  0  0
 40 52  1  0  0  0
 40 53  2  0  0  0
 40 58  1  0  0  0
 41112  1  0  0  0
 41113  1  0  0  0
 41114  1  0  0  0
 41 48  1  0  0  0
 42 43  1  0  0  0
 42 66  1  0  0  0
 42115  1  0  0  0
 42116  1  0  0  0
 43 44  1  0  0  0
 44117  1  0  0  0
 45 46  2  0  0  0
 45118  1  0  0  0
 46119  1  0  0  0
 47120  1  0  0  0
 47121  1  0  0  0
 48 56  1  0  0  0
 48 65  1  0  0  0
 48122  1  0  0  0
 49 50  1  0  0  0
 49 53  1  0  0  0
 49 64  1  0  0  0
 49123  1  0  0  0
 50 51  1  0  0  0
 50124  1  0  0  0
 50125  1  0  0  0
 51 52  1  0  0  0
 51126  1  0  0  0
 51127  1  0  0  0
 52128  1  0  0  0
 52129  1  0  0  0
 53 54  1  0  0  0
 54 55  2  0  0  0
 54130  1  0  0  0
 55 57  1  0  0  0
 55131  1  0  0  0
 56 69  2  0  0  0
 57 58  2  0  0  0
 57132  1  0  0  0
 58133  1  0  0  0
 59 60  1  0  0  0
 59 61  1  0  0  0
 59 62  1  0  0  0
 60134  1  0  0  0
 60135  1  0  0  0
 60136  1  0  0  0
 61137  1  0  0  0
 61138  1  0  0  0
 61139  1  0  0  0
 62140  1  0  0  0
 62141  1  0  0  0
 62142  1  0  0  0
 63 65  1  0  0  0
 63143  1  0  0  0
 63144  1  0  0  0
 63145  1  0  0  0
 64146  1  0  0  0
 65147  1  0  0  0
 68 83  1  0  0  0
 71 73  2  0  0  0
 71 75  1  0  0  0
 71148  1  0  0  0
 72 74  2  0  0  0
 72 76  1  0  0  0
 72149  1  0  0  0
 73 74  1  0  0  0
 73 84  1  0  0  0
 74 85  1  0  0  0
 75 76  2  0  0  0
 75 86  1  0  0  0
 76 88  1  0  0  0
 77 78  2  0  0  0
 77 83  1  0  0  0
 77 87  1  0  0  0
 78150  1  0  0  0
 78151  1  0  0  0
 79 80  1  0  0  0
 79 81  1  0  0  0
 79152  1  0  0  0
 79153  1  0  0  0
 80 82  1  0  0  0
 80154  1  0  0  0
 80155  1  0  0  0
 81 83  1  0  0  0
 81156  1  0  0  0
 81157  1  0  0  0
 82 87  1  0  0  0
 82158  1  0  0  0
 82159  1  0  0  0
 83160  1  0  0  0
 84161  1  0  0  0
 84162  1  0  0  0
 84163  1  0  0  0
 85164  1  0  0  0
 85165  1  0  0  0
 85 87  1  0  0  0
 86166  1  0  0  0
 87167  1  0  0  0
M  CHG  1  87   1
M  ISO  4   1 100  68 101  83 101  86 100
M  END
> <chiral flag>
0

> <version>
0

> <s_m_source_file>
/data/baiqing/PycharmProjects/Reinvent-master-3.2/result/LINK_invent/BTK/process_docking_weight1_custom_product_contain_oxygen_bond_distance_aromatic_linkinvent_7_9_3/rearranged_h_0037.sdf

> <i_m_source_file_index>
3

> <r_mmod_Potential_Energy-OPLS-2005>
-10.2781171798706

> <r_mmod_Stretch_Energy-OPLS-2005>
85.4911499023438

> <r_mmod_Bend_Energy-OPLS-2005>
150.989364624023

> <r_mmod_Torsional_Energy-OPLS-2005>
272.632019042969

> <r_mmod_Improper_Torsional_Energy-OPLS-2005>
9.08285999298096

> <r_mmod_Van_der_Waal_Energy-OPLS-2005>
147.095565795898

> <r_mmod_Electrostatic_Energy-OPLS-2005>
-290.324401855469

> <r_mmod_Solvation_Energy-OPLS-2005>
-429.906158447266

> <b_mmod_Minimization_Converged-OPLS-2005>
0

> <r_mmod_RMS_Derivative-OPLS-2005>
3.35780358314514

$$$$
3
                    3D
 Structure written by MMmdl.
167176  0  0  1  0            999 V2000
  -30.7261  -14.4507   20.6500 C   0  0  0  0  0  0
  -30.4236  -12.3264   19.4100 C   0  0  0  0  0  0
  -29.4934  -12.5265   18.1984 C   0  0  0  0  0  0
  -28.0151  -12.3727   18.6096 C   0  0  0  0  0  0
  -27.6600  -13.2075   19.8697 C   0  0  2  0  0  0
  -28.6992  -12.9801   20.9887 C   0  0  0  0  0  0
  -25.2585  -13.8175   20.5664 C   0  0  0  0  0  0
  -24.1836  -13.0453   20.9182 C   0  0  0  0  0  0
  -24.6391  -11.6924   20.8734 C   0  0  0  0  0  0
  -23.9050  -10.4313   21.0398 C   0  0  0  0  0  0
  -24.3608   -9.4233   21.9177 C   0  0  0  0  0  0
  -23.6308   -8.2253   22.0740 C   0  0  0  0  0  0
  -22.4292   -8.0283   21.3533 C   0  0  0  0  0  0
  -21.9914   -9.0251   20.4636 C   0  0  0  0  0  0
  -22.7219  -10.2146   20.3053 C   0  0  0  0  0  0
  -21.6854   -6.0745   22.5291 C   0  0  0  0  0  0
  -21.4004   -6.5646   23.8226 C   0  0  0  0  0  0
  -21.3657   -5.6798   24.9184 C   0  0  0  0  0  0
  -21.6050   -4.3061   24.7228 C   0  0  0  0  0  0
  -21.8814   -3.8152   23.4348 C   0  0  0  0  0  0
  -21.9195   -4.6974   22.3406 C   0  0  0  0  0  0
  -22.7855  -13.5247   21.1855 C   0  0  0  0  0  0
  -22.1659   -4.2166   21.0979 F   0  0  0  0  0  0
  -21.5631   -3.4542   25.7734 F   0  0  0  0  0  0
  -30.0304  -13.2978   20.4445 N   0  0  0  0  0  0
  -26.3012  -12.9347   20.3331 N   0  0  0  0  0  0
  -25.9313  -11.6505   20.5733 N   0  0  0  0  0  0
  -22.0480  -12.8263   22.0421 N   0  0  0  0  0  0
  -25.4319  -15.1889   20.4044 N   0  0  0  0  0  0
  -31.8142  -14.6765   20.1126 O   0  0  0  0  0  0
  -21.6640   -6.8890   21.4254 O   0  0  0  0  0  0
  -22.3553  -14.5553   20.6698 O   0  0  0  0  0  0
  -24.6187  -31.8659   23.2090 C   0  0  0  0  0  0
  -25.9074  -32.4811   23.8386 C   0  0  1  0  0  0
  -27.2287  -27.3979   20.0924 C   0  0  0  0  0  0
  -25.5915  -33.8606   24.2301 N   0  0  0  0  0  0
  -23.4064  -30.4928   21.5507 C   0  0  2  0  0  0
  -24.8508  -28.9575   20.1174 C   0  0  0  0  0  0
  -22.7417  -29.4659   22.4967 C   0  0  0  0  0  0
  -18.0270  -28.1375   22.8485 C   0  0  0  0  0  0
  -24.1492  -36.7297   23.2639 C   0  0  0  0  0  0
  -25.9425  -30.8217   21.3685 C   0  0  0  0  0  0
  -26.0172  -29.4567   20.7081 C   0  0  0  0  0  0
  -27.2100  -28.6875   20.6880 C   0  0  0  0  0  0
  -26.0287  -26.9235   19.5100 C   0  0  0  0  0  0
  -24.8523  -27.6914   19.5150 C   0  0  0  0  0  0
  -23.6173  -29.8289   20.1654 C   0  0  0  0  0  0
  -25.4117  -36.3097   24.0330 C   0  0  1  0  0  0
  -20.5863  -28.3666   23.1300 C   0  0  2  0  0  0
  -20.6760  -26.9397   22.5414 C   0  0  0  0  0  0
  -19.5752  -26.6376   21.5205 C   0  0  0  0  0  0
  -18.1925  -26.7919   22.1613 C   0  0  0  0  0  0
  -19.1522  -28.8837   23.2889 C   0  0  0  0  0  0
  -18.9456  -30.1435   23.8910 C   0  0  0  0  0  0
  -17.6462  -30.6589   24.0562 C   0  0  0  0  0  0
  -25.9037  -34.9468   23.5115 C   0  0  0  0  0  0
  -16.5346  -29.9092   23.6324 C   0  0  0  0  0  0
  -16.7262  -28.6502   23.0355 C   0  0  0  0  0  0
  -26.4485  -31.6606   25.0728 C   0  0  0  0  0  0
  -25.3739  -31.3734   26.1471 C   0  0  0  0  0  0
  -27.0314  -30.3041   24.6136 C   0  0  0  0  0  0
  -27.6064  -32.4322   25.7490 C   0  0  0  0  0  0
  -27.5582  -37.1809   24.8464 C   0  0  0  0  0  0
  -21.4144  -29.3042   22.3712 N   0  0  0  0  0  0
  -26.4297  -37.3789   23.9402 N   0  0  0  0  0  0
  -24.6743  -31.0744   22.1003 N   0  0  0  0  0  0
  -23.4191  -28.8178   23.2995 O   0  0  0  0  0  0
  -28.3974  -26.6429   20.1121 O   0  0  0  0  0  0
  -26.5601  -34.8924   22.4671 O   0  0  0  0  0  0
  -23.5377  -32.1425   23.7471 O   0  0  0  0  0  0
  -31.4446  -19.9073   20.6711 C   0  0  0  0  0  0
  -31.5038  -18.5175   20.9034 C   0  0  0  0  0  0
  -29.4444  -20.0536   22.0276 C   0  0  0  0  0  0
  -30.4244  -20.7044   21.2409 C   0  0  0  0  0  0
  -30.5706  -17.8792   21.7466 C   0  0  0  0  0  0
  -29.5147  -18.6600   22.2906 C   0  0  0  0  0  0
  -29.5430  -22.7088   18.8101 C   0  0  0  0  0  0
  -30.5221  -22.0562   18.1583 C   0  0  0  0  0  0
  -28.3763  -23.3929   18.1181 C   0  0  0  0  0  0
  -28.4071  -24.9098   18.3663 C   0  0  0  0  0  0
  -29.4663  -24.4409   20.6048 C   0  0  0  0  0  0
  -28.3266  -25.2108   19.8745 C   0  0  1  0  0  0
  -28.4956  -18.0443   23.2345 C   0  0  0  0  0  0
  -30.8511  -16.4292   22.1850 C   0  0  0  0  0  0
  -30.4947  -22.2479   21.1533 C   0  0  0  0  0  0
  -30.1545  -15.3408   21.4826 N   0  0  0  0  0  0
  -29.4923  -22.9651   20.2971 N   0  3  2  0  0  0
  -31.4659  -12.4386   19.1046 H   0  0  0  0  0  0
  -30.3349  -11.3094   19.7969 H   0  0  0  0  0  0
  -29.7433  -11.8172   17.4083 H   0  0  0  0  0  0
  -29.6519  -13.5196   17.7776 H   0  0  0  0  0  0
  -27.8328  -11.3145   18.8004 H   0  0  0  0  0  0
  -27.3636  -12.6461   17.7778 H   0  0  0  0  0  0
  -27.7064  -14.2577   19.5803 H   0  0  0  0  0  0
  -28.6813  -11.9390   21.3123 H   0  0  0  0  0  0
  -28.4399  -13.5599   21.8753 H   0  0  0  0  0  0
  -25.2760   -9.5717   22.4742 H   0  0  0  0  0  0
  -24.0034   -7.4641   22.7451 H   0  0  0  0  0  0
  -21.0838   -8.8749   19.8952 H   0  0  0  0  0  0
  -22.3661  -10.9669   19.6155 H   0  0  0  0  0  0
  -21.1979   -7.6152   23.9739 H   0  0  0  0  0  0
  -21.1487   -6.0518   25.9092 H   0  0  0  0  0  0
  -22.0593   -2.7619   23.2839 H   0  0  0  0  0  0
  -22.4078  -11.9933   22.4843 H   0  0  0  0  0  0
  -21.1077  -13.1284   22.2569 H   0  0  0  0  0  0
  -24.6668  -15.8472   20.4986 H   0  0  0  0  0  0
  -26.2887  -15.6225   20.0832 H   0  0  0  0  0  0
  -26.7137  -32.5500   23.1140 H   0  0  0  0  0  0
  -25.0113  -33.9771   25.0483 H   0  0  0  0  0  0
  -22.6981  -31.3116   21.4091 H   0  0  0  0  0  0
  -23.3758  -35.9629   23.3325 H   0  0  0  0  0  0
  -24.3581  -36.8881   22.2044 H   0  0  0  0  0  0
  -23.7242  -37.6508   23.6637 H   0  0  0  0  0  0
  -26.0652  -31.5917   20.6053 H   0  0  0  0  0  0
  -26.8276  -30.8658   21.9923 H   0  0  0  0  0  0
  -28.1107  -29.0721   21.1470 H   0  0  0  0  0  0
  -25.9545  -25.9526   19.0466 H   0  0  0  0  0  0
  -23.9538  -27.2984   19.0604 H   0  0  0  0  0  0
  -23.7345  -30.6043   19.4080 H   0  0  0  0  0  0
  -22.7393  -29.2548   19.8622 H   0  0  0  0  0  0
  -25.1299  -36.1957   25.0826 H   0  0  0  0  0  0
  -20.9959  -28.3231   24.1419 H   0  0  0  0  0  0
  -20.5626  -26.2276   23.3606 H   0  0  0  0  0  0
  -21.6633  -26.7419   22.1225 H   0  0  0  0  0  0
  -19.6908  -25.6286   21.1235 H   0  0  0  0  0  0
  -19.6700  -27.3184   20.6735 H   0  0  0  0  0  0
  -17.4190  -26.6662   21.4020 H   0  0  0  0  0  0
  -18.0333  -26.0056   22.9005 H   0  0  0  0  0  0
  -19.7939  -30.7231   24.2302 H   0  0  0  0  0  0
  -17.5028  -31.6273   24.5154 H   0  0  0  0  0  0
  -15.5350  -30.3002   23.7652 H   0  0  0  0  0  0
  -15.8654  -28.0822   22.7084 H   0  0  0  0  0  0
  -24.5910  -30.7080   25.7812 H   0  0  0  0  0  0
  -24.8944  -32.2901   26.4912 H   0  0  0  0  0  0
  -25.8088  -30.8909   27.0231 H   0  0  0  0  0  0
  -26.2871  -29.6797   24.1182 H   0  0  0  0  0  0
  -27.4052  -29.7284   25.4610 H   0  0  0  0  0  0
  -27.8720  -30.4342   23.9318 H   0  0  0  0  0  0
  -27.2703  -33.3624   26.2084 H   0  0  0  0  0  0
  -28.3883  -32.6872   25.0322 H   0  0  0  0  0  0
  -28.0725  -31.8426   26.5394 H   0  0  0  0  0  0
  -28.2616  -38.0092   24.7505 H   0  0  0  0  0  0
  -28.1061  -36.2624   24.6307 H   0  0  0  0  0  0
  -27.2291  -37.1471   25.8865 H   0  0  0  0  0  0
  -20.9289  -29.8800   21.6974 H   0  0  0  0  0  0
  -26.0182  -38.2862   24.1416 H   0  0  0  0  0  0
  -32.2466  -20.3600   20.1054 H   0  0  0  0  0  0
  -32.3305  -17.9517   20.4953 H   0  0  0  0  0  0
  -28.6706  -20.6426   22.5005 H   0  0  0  0  0  0
  -30.4809  -21.9479   17.0833 H   0  0  0  0  0  0
  -31.3790  -21.6278   18.6451 H   0  0  0  0  0  0
  -27.4395  -22.9593   18.4715 H   0  0  0  0  0  0
  -28.4192  -23.1952   17.0459 H   0  0  0  0  0  0
  -27.6007  -25.3847   17.8106 H   0  0  0  0  0  0
  -29.3281  -25.3306   17.9628 H   0  0  0  0  0  0
  -29.3495  -24.5907   21.6783 H   0  0  0  0  0  0
  -30.4304  -24.8720   20.3336 H   0  0  0  0  0  0
  -27.3918  -24.8172   20.2769 H   0  0  0  0  0  0
  -27.6602  -18.7204   23.4202 H   0  0  0  0  0  0
  -28.9590  -17.8233   24.1965 H   0  0  0  0  0  0
  -28.0887  -17.1198   22.8251 H   0  0  0  0  0  0
  -30.6150  -16.3332   23.2450 H   0  0  0  0  0  0
  -31.9291  -16.2620   22.1415 H   0  0  0  0  0  0
  -31.4971  -22.5477   20.8457 H   0  0  0  0  0  0
  -30.3940  -22.6109   22.1762 H   0  0  0  0  0  0
  -29.2394  -15.0977   21.8293 H   0  0  0  0  0  0
  -28.6074  -22.6075   20.6258 H   0  0  0  0  0  0
  1 25  1  0  0  0
  1 30  2  0  0  0
  1 86  1  0  0  0
  2  3  1  0  0  0
  2 25  1  0  0  0
  2 88  1  0  0  0
  2 89  1  0  0  0
  3  4  1  0  0  0
  3 90  1  0  0  0
  3 91  1  0  0  0
  4  5  1  0  0  0
  4 92  1  0  0  0
  4 93  1  0  0  0
  5  6  1  0  0  0
  5 26  1  0  0  0
  5 94  1  0  0  0
  6 25  1  0  0  0
  6 95  1  0  0  0
  6 96  1  0  0  0
  7  8  2  0  0  0
  7 26  1  0  0  0
  7 29  1  0  0  0
  8  9  1  0  0  0
  8 22  1  0  0  0
  9 10  1  0  0  0
  9 27  2  0  0  0
 10 11  2  0  0  0
 10 15  1  0  0  0
 11 12  1  0  0  0
 11 97  1  0  0  0
 12 13  2  0  0  0
 12 98  1  0  0  0
 13 14  1  0  0  0
 13 31  1  0  0  0
 14 15  2  0  0  0
 14 99  1  0  0  0
 15100  1  0  0  0
 16 17  2  0  0  0
 16 21  1  0  0  0
 16 31  1  0  0  0
 17 18  1  0  0  0
 17101  1  0  0  0
 18 19  2  0  0  0
 18102  1  0  0  0
 19 20  1  0  0  0
 19 24  1  0  0  0
 20 21  2  0  0  0
 20103  1  0  0  0
 21 23  1  0  0  0
 22 28  1  0  0  0
 22 32  2  0  0  0
 26 27  1  0  0  0
 28104  1  0  0  0
 28105  1  0  0  0
 29106  1  0  0  0
 29107  1  0  0  0
 33 34  1  0  0  0
 33 66  1  0  0  0
 33 70  2  0  0  0
 34 36  1  0  0  0
 34 59  1  0  0  0
 34108  1  0  0  0
 35 44  2  0  0  0
 35 45  1  0  0  0
 35 68  1  0  0  0
 36 56  1  0  0  0
 36109  1  0  0  0
 37 39  1  0  0  0
 37 47  1  0  0  0
 37 66  1  0  0  0
 37110  1  0  0  0
 38 43  2  0  0  0
 38 46  1  0  0  0
 38 47  1  0  0  0
 39 64  1  0  0  0
 39 67  2  0  0  0
 40 52  1  0  0  0
 40 53  2  0  0  0
 40 58  1  0  0  0
 41111  1  0  0  0
 41112  1  0  0  0
 41113  1  0  0  0
 41 48  1  0  0  0
 42 43  1  0  0  0
 42 66  1  0  0  0
 42114  1  0  0  0
 42115  1  0  0  0
 43 44  1  0  0  0
 44116  1  0  0  0
 45 46  2  0  0  0
 45117  1  0  0  0
 46118  1  0  0  0
 47119  1  0  0  0
 47120  1  0  0  0
 48 56  1  0  0  0
 48 65  1  0  0  0
 48121  1  0  0  0
 49 50  1  0  0  0
 49 53  1  0  0  0
 49 64  1  0  0  0
 49122  1  0  0  0
 50 51  1  0  0  0
 50123  1  0  0  0
 50124  1  0  0  0
 51 52  1  0  0  0
 51125  1  0  0  0
 51126  1  0  0  0
 52127  1  0  0  0
 52128  1  0  0  0
 53 54  1  0  0  0
 54 55  2  0  0  0
 54129  1  0  0  0
 55 57  1  0  0  0
 55130  1  0  0  0
 56 69  2  0  0  0
 57 58  2  0  0  0
 57131  1  0  0  0
 58132  1  0  0  0
 59 60  1  0  0  0
 59 61  1  0  0  0
 59 62  1  0  0  0
 60133  1  0  0  0
 60134  1  0  0  0
 60135  1  0  0  0
 61136  1  0  0  0
 61137  1  0  0  0
 61138  1  0  0  0
 62139  1  0  0  0
 62140  1  0  0  0
 62141  1  0  0  0
 63 65  1  0  0  0
 63142  1  0  0  0
 63143  1  0  0  0
 63144  1  0  0  0
 64145  1  0  0  0
 65146  1  0  0  0
 68 82  1  0  0  0
 71 72  2  0  0  0
 71 74  1  0  0  0
 71147  1  0  0  0
 72 75  1  0  0  0
 72148  1  0  0  0
 73 74  2  0  0  0
 73 76  1  0  0  0
 73149  1  0  0  0
 74 85  1  0  0  0
 75 76  2  0  0  0
 75 84  1  0  0  0
 76 83  1  0  0  0
 77 78  2  0  0  0
 77 79  1  0  0  0
 77 87  1  0  0  0
 78150  1  0  0  0
 78151  1  0  0  0
 79 80  1  0  0  0
 79152  1  0  0  0
 79153  1  0  0  0
 80 82  1  0  0  0
 80154  1  0  0  0
 80155  1  0  0  0
 81 82  1  0  0  0
 81 87  1  0  0  0
 81156  1  0  0  0
 81157  1  0  0  0
 82158  1  0  0  0
 83159  1  0  0  0
 83160  1  0  0  0
 83161  1  0  0  0
 84 86  1  0  0  0
 84162  1  0  0  0
 84163  1  0  0  0
 85164  1  0  0  0
 85165  1  0  0  0
 85 87  1  0  0  0
 86166  1  0  0  0
 87167  1  0  0  0
M  CHG  1  87   1
M  ISO  4   1 100  68 101  82 101  86 100
M  END
> <chiral flag>
0

> <version>
0

> <s_m_source_file>
/data/baiqing/PycharmProjects/Reinvent-master-3.2/result/LINK_invent/BTK/process_docking_weight1_custom_product_contain_oxygen_bond_distance_aromatic_linkinvent_7_9_3/rearranged_h_0037.sdf

> <i_m_source_file_index>
4

> <r_mmod_Potential_Energy-OPLS-2005>
-183.738967895508

> <r_mmod_Stretch_Energy-OPLS-2005>
47.9117622375488

> <r_mmod_Bend_Energy-OPLS-2005>
118.021408081055

> <r_mmod_Torsional_Energy-OPLS-2005>
210.414016723633

> <r_mmod_Improper_Torsional_Energy-OPLS-2005>
4.14685392379761

> <r_mmod_Van_der_Waal_Energy-OPLS-2005>
161.388854980469

> <r_mmod_Electrostatic_Energy-OPLS-2005>
-321.7470703125

> <r_mmod_Solvation_Energy-OPLS-2005>
-418.024871826172

> <b_mmod_Minimization_Converged-OPLS-2005>
0

> <r_mmod_RMS_Derivative-OPLS-2005>
2.28952169418335

$$$$
4
                    3D
 Structure written by MMmdl.
169178  0  0  1  0            999 V2000
  -30.6397  -14.6204   20.5314 C   0  0  0  0  0  0
  -30.4364  -12.3797   19.4734 C   0  0  0  0  0  0
  -29.5150  -12.5117   18.2404 C   0  0  0  0  0  0
  -28.0372  -12.3466   18.6446 C   0  0  0  0  0  0
  -27.6576  -13.2165   19.8731 C   0  0  2  0  0  0
  -28.6969  -13.0686   21.0083 C   0  0  0  0  0  0
  -25.2563  -13.8173   20.5672 C   0  0  0  0  0  0
  -24.1827  -13.0434   20.9155 C   0  0  0  0  0  0
  -24.6405  -11.6907   20.8739 C   0  0  0  0  0  0
  -23.9075  -10.4288   21.0404 C   0  0  0  0  0  0
  -24.3618   -9.4198   21.9182 C   0  0  0  0  0  0
  -23.6285   -8.2241   22.0765 C   0  0  0  0  0  0
  -22.4269   -8.0286   21.3552 C   0  0  0  0  0  0
  -21.9908   -9.0256   20.4646 C   0  0  0  0  0  0
  -22.7247  -10.2129   20.3052 C   0  0  0  0  0  0
  -21.6854   -6.0731   22.5282 C   0  0  0  0  0  0
  -21.4020   -6.5643   23.8209 C   0  0  0  0  0  0
  -21.3654   -5.6797   24.9179 C   0  0  0  0  0  0
  -21.6047   -4.3062   24.7222 C   0  0  0  0  0  0
  -21.8822   -3.8146   23.4349 C   0  0  0  0  0  0
  -21.9186   -4.6962   22.3400 C   0  0  0  0  0  0
  -22.7844  -13.5214   21.1821 C   0  0  0  0  0  0
  -22.1655   -4.2151   21.0978 F   0  0  0  0  0  0
  -21.5618   -3.4544   25.7732 F   0  0  0  0  0  0
  -30.0191  -13.4020   20.4531 N   0  0  0  0  0  0
  -26.3009  -12.9358   20.3354 N   0  0  0  0  0  0
  -25.9334  -11.6509   20.5779 N   0  0  0  0  0  0
  -22.0506  -12.8201   22.0395 N   0  0  0  0  0  0
  -25.4257  -15.1900   20.4082 N   0  0  0  0  0  0
  -31.7875  -14.7851   20.1082 O   0  0  0  0  0  0
  -21.6642   -6.8882   21.4244 O   0  0  0  0  0  0
  -22.3517  -14.5521   20.6682 O   0  0  0  0  0  0
  -24.6203  -31.8616   23.2084 C   0  0  0  0  0  0
  -25.9060  -32.4798   23.8387 C   0  0  1  0  0  0
  -27.2107  -27.3175   20.1330 C   0  0  0  0  0  0
  -25.5903  -33.8607   24.2301 N   0  0  0  0  0  0
  -23.4155  -30.4862   21.5505 C   0  0  2  0  0  0
  -24.8653  -28.9506   20.1122 C   0  0  0  0  0  0
  -22.7452  -29.4615   22.4962 C   0  0  0  0  0  0
  -18.0285  -28.1391   22.8505 C   0  0  0  0  0  0
  -24.1488  -36.7293   23.2640 C   0  0  0  0  0  0
  -25.9571  -30.7884   21.3893 C   0  0  0  0  0  0
  -26.0298  -29.4151   20.7368 C   0  0  0  0  0  0
  -27.2045  -28.6033   20.7539 C   0  0  0  0  0  0
  -26.0522  -26.9513   19.4142 C   0  0  0  0  0  0
  -24.8772  -27.7217   19.4404 C   0  0  0  0  0  0
  -23.6297  -29.8248   20.1650 C   0  0  0  0  0  0
  -25.4124  -36.3101   24.0330 C   0  0  1  0  0  0
  -20.5873  -28.3701   23.1301 C   0  0  2  0  0  0
  -20.6777  -26.9439   22.5414 C   0  0  0  0  0  0
  -19.5755  -26.6399   21.5217 C   0  0  0  0  0  0
  -18.1925  -26.7936   22.1623 C   0  0  0  0  0  0
  -19.1533  -28.8867   23.2889 C   0  0  0  0  0  0
  -18.9455  -30.1468   23.8905 C   0  0  0  0  0  0
  -17.6454  -30.6602   24.0567 C   0  0  0  0  0  0
  -25.9058  -34.9465   23.5124 C   0  0  0  0  0  0
  -16.5346  -29.9102   23.6346 C   0  0  0  0  0  0
  -16.7264  -28.6508   23.0387 C   0  0  0  0  0  0
  -26.4478  -31.6601   25.0738 C   0  0  0  0  0  0
  -25.3725  -31.3696   26.1467 C   0  0  0  0  0  0
  -27.0342  -30.3035   24.6182 C   0  0  0  0  0  0
  -27.6038  -32.4353   25.7487 C   0  0  0  0  0  0
  -27.5592  -37.1806   24.8473 C   0  0  0  0  0  0
  -21.4173  -29.3034   22.3678 N   0  0  0  0  0  0
  -26.4307  -37.3788   23.9409 N   0  0  0  0  0  0
  -24.6828  -31.0620   22.1051 N   0  0  0  0  0  0
  -23.4169  -28.8144   23.3042 O   0  0  0  0  0  0
  -28.3080  -26.4424   20.1537 O   0  0  0  0  0  0
  -26.5632  -34.8919   22.4693 O   0  0  0  0  0  0
  -23.5372  -32.1424   23.7405 O   0  0  0  0  0  0
  -30.0323  -19.1730   19.4757 C   0  0  0  0  0  0
  -30.0117  -20.0387   20.6009 C   0  0  0  0  0  0
  -30.0286  -17.7534   19.5777 C   0  0  0  0  0  0
  -29.9812  -19.3987   21.8784 C   0  0  0  0  0  0
  -29.9321  -17.9635   21.9923 C   0  0  0  0  0  0
  -29.9956  -17.1074   20.8465 C   0  0  0  0  0  0
  -26.7711  -23.0556   21.4836 C   0  0  0  0  0  0
  -26.7911  -24.4276   20.7903 C   0  0  0  0  0  0
  -27.7371  -22.0807   20.7971 C   0  0  0  0  0  0
  -29.2402  -24.0048   20.2703 C   0  0  0  0  0  0
  -28.1949  -25.0906   20.7913 C   0  0  1  0  0  0
  -30.0421  -16.9497   18.2865 C   0  0  0  0  0  0
  -30.0040  -20.2463   23.1502 C   0  0  0  0  0  0
  -29.8329  -17.3355   23.3825 C   0  0  0  0  0  0
  -30.1549  -21.5966   20.3585 C   0  0  0  0  0  0
  -29.8693  -15.6562   20.9859 N   0  0  0  0  0  0
  -29.1240  -22.5950   20.8599 N   0  3  2  0  0  0
  -31.4838  -12.4865   19.1840 H   0  0  0  0  0  0
  -30.3504  -11.3852   19.9146 H   0  0  0  0  0  0
  -29.7848  -11.7683   17.4893 H   0  0  0  0  0  0
  -29.6613  -13.4872   17.7744 H   0  0  0  0  0  0
  -27.8743  -11.2923   18.8735 H   0  0  0  0  0  0
  -27.3866  -12.5802   17.8016 H   0  0  0  0  0  0
  -27.6798  -14.2538   19.5379 H   0  0  0  0  0  0
  -28.6979  -12.0504   21.4013 H   0  0  0  0  0  0
  -28.4357  -13.7062   21.8534 H   0  0  0  0  0  0
  -25.2767   -9.5664   22.4748 H   0  0  0  0  0  0
  -23.9989   -7.4635   22.7487 H   0  0  0  0  0  0
  -21.0846   -8.8771   19.8938 H   0  0  0  0  0  0
  -22.3716  -10.9662   19.6156 H   0  0  0  0  0  0
  -21.2039   -7.6157   23.9719 H   0  0  0  0  0  0
  -21.1470   -6.0530   25.9078 H   0  0  0  0  0  0
  -22.0608   -2.7609   23.2853 H   0  0  0  0  0  0
  -22.4142  -11.9850   22.4739 H   0  0  0  0  0  0
  -21.1136  -13.1223   22.2641 H   0  0  0  0  0  0
  -24.6569  -15.8432   20.5105 H   0  0  0  0  0  0
  -26.2801  -15.6338   20.0965 H   0  0  0  0  0  0
  -26.7104  -32.5469   23.1121 H   0  0  0  0  0  0
  -25.0063  -33.9792   25.0451 H   0  0  0  0  0  0
  -22.7072  -31.3047   21.4094 H   0  0  0  0  0  0
  -23.3773  -35.9602   23.3303 H   0  0  0  0  0  0
  -24.3554  -36.8931   22.2052 H   0  0  0  0  0  0
  -23.7225  -37.6491   23.6664 H   0  0  0  0  0  0
  -26.0910  -31.5543   20.6241 H   0  0  0  0  0  0
  -26.8356  -30.8347   22.0208 H   0  0  0  0  0  0
  -28.0936  -28.9436   21.2656 H   0  0  0  0  0  0
  -26.0343  -26.0534   18.8187 H   0  0  0  0  0  0
  -23.9989  -27.3776   18.9128 H   0  0  0  0  0  0
  -23.7354  -30.5996   19.4056 H   0  0  0  0  0  0
  -22.7513  -29.2471   19.8710 H   0  0  0  0  0  0
  -25.1290  -36.1968   25.0825 H   0  0  0  0  0  0
  -20.9948  -28.3292   24.1436 H   0  0  0  0  0  0
  -20.5722  -26.2313   23.3604 H   0  0  0  0  0  0
  -21.6642  -26.7509   22.1186 H   0  0  0  0  0  0
  -19.6925  -25.6312   21.1264 H   0  0  0  0  0  0
  -19.6688  -27.3197   20.6728 H   0  0  0  0  0  0
  -17.4194  -26.6707   21.4012 H   0  0  0  0  0  0
  -18.0325  -26.0065   22.9007 H   0  0  0  0  0  0
  -19.7934  -30.7282   24.2274 H   0  0  0  0  0  0
  -17.5017  -31.6289   24.5165 H   0  0  0  0  0  0
  -15.5355  -30.3007   23.7670 H   0  0  0  0  0  0
  -15.8653  -28.0805   22.7144 H   0  0  0  0  0  0
  -24.5897  -30.7058   25.7771 H   0  0  0  0  0  0
  -24.8914  -32.2848   26.4922 H   0  0  0  0  0  0
  -25.8067  -30.8837   27.0218 H   0  0  0  0  0  0
  -26.2926  -29.6768   24.1223 H   0  0  0  0  0  0
  -27.4082  -29.7281   25.4660 H   0  0  0  0  0  0
  -27.8760  -30.4321   23.9379 H   0  0  0  0  0  0
  -27.2640  -33.3652   26.2052 H   0  0  0  0  0  0
  -28.3837  -32.6942   25.0312 H   0  0  0  0  0  0
  -28.0720  -31.8503   26.5418 H   0  0  0  0  0  0
  -28.2611  -38.0104   24.7552 H   0  0  0  0  0  0
  -28.1111  -36.2651   24.6292 H   0  0  0  0  0  0
  -27.2300  -37.1421   25.8872 H   0  0  0  0  0  0
  -20.9355  -29.8713   21.6853 H   0  0  0  0  0  0
  -26.0207  -38.2874   24.1425 H   0  0  0  0  0  0
  -30.0809  -19.6090   18.4870 H   0  0  0  0  0  0
  -25.7639  -22.6378   21.4444 H   0  0  0  0  0  0
  -27.0173  -23.1569   22.5422 H   0  0  0  0  0  0
  -26.0681  -25.0752   21.2852 H   0  0  0  0  0  0
  -26.4541  -24.2679   19.7682 H   0  0  0  0  0  0
  -27.4425  -21.9271   19.7575 H   0  0  0  0  0  0
  -27.6643  -21.1090   21.2861 H   0  0  0  0  0  0
  -30.2440  -24.3808   20.4698 H   0  0  0  0  0  0
  -29.1500  -23.9296   19.1862 H   0  0  0  0  0  0
  -28.4359  -25.2732   21.8388 H   0  0  0  0  0  0
  -29.8246  -17.5732   17.4188 H   0  0  0  0  0  0
  -29.3017  -16.1508   18.3047 H   0  0  0  0  0  0
  -31.0259  -16.5085   18.1308 H   0  0  0  0  0  0
  -30.3459  -21.2650   22.9790 H   0  0  0  0  0  0
  -30.6839  -19.8303   23.8948 H   0  0  0  0  0  0
  -29.0083  -20.2907   23.5953 H   0  0  0  0  0  0
  -29.1550  -17.8995   24.0223 H   0  0  0  0  0  0
  -30.8158  -17.3164   23.8546 H   0  0  0  0  0  0
  -29.4470  -16.3178   23.3677 H   0  0  0  0  0  0
  -30.2173  -21.7448   19.2797 H   0  0  0  0  0  0
  -31.1328  -21.9017   20.7323 H   0  0  0  0  0  0
  -29.0145  -15.3507   21.4243 H   0  0  0  0  0  0
  -29.3279  -22.6917   21.8433 H   0  0  0  0  0  0
  1 25  1  0  0  0
  1 30  2  0  0  0
  1 86  1  0  0  0
  2  3  1  0  0  0
  2 25  1  0  0  0
  2 88  1  0  0  0
  2 89  1  0  0  0
  3  4  1  0  0  0
  3 90  1  0  0  0
  3 91  1  0  0  0
  4  5  1  0  0  0
  4 92  1  0  0  0
  4 93  1  0  0  0
  5  6  1  0  0  0
  5 26  1  0  0  0
  5 94  1  0  0  0
  6 25  1  0  0  0
  6 95  1  0  0  0
  6 96  1  0  0  0
  7  8  2  0  0  0
  7 26  1  0  0  0
  7 29  1  0  0  0
  8  9  1  0  0  0
  8 22  1  0  0  0
  9 10  1  0  0  0
  9 27  2  0  0  0
 10 11  2  0  0  0
 10 15  1  0  0  0
 11 12  1  0  0  0
 11 97  1  0  0  0
 12 13  2  0  0  0
 12 98  1  0  0  0
 13 14  1  0  0  0
 13 31  1  0  0  0
 14 15  2  0  0  0
 14 99  1  0  0  0
 15100  1  0  0  0
 16 17  2  0  0  0
 16 21  1  0  0  0
 16 31  1  0  0  0
 17 18  1  0  0  0
 17101  1  0  0  0
 18 19  2  0  0  0
 18102  1  0  0  0
 19 20  1  0  0  0
 19 24  1  0  0  0
 20 21  2  0  0  0
 20103  1  0  0  0
 21 23  1  0  0  0
 22 28  1  0  0  0
 22 32  2  0  0  0
 26 27  1  0  0  0
 28104  1  0  0  0
 28105  1  0  0  0
 29106  1  0  0  0
 29107  1  0  0  0
 33 34  1  0  0  0
 33 66  1  0  0  0
 33 70  2  0  0  0
 34 36  1  0  0  0
 34 59  1  0  0  0
 34108  1  0  0  0
 35 44  2  0  0  0
 35 45  1  0  0  0
 35 68  1  0  0  0
 36 56  1  0  0  0
 36109  1  0  0  0
 37 39  1  0  0  0
 37 47  1  0  0  0
 37 66  1  0  0  0
 37110  1  0  0  0
 38 43  2  0  0  0
 38 46  1  0  0  0
 38 47  1  0  0  0
 39 64  1  0  0  0
 39 67  2  0  0  0
 40 52  1  0  0  0
 40 53  2  0  0  0
 40 58  1  0  0  0
 41111  1  0  0  0
 41112  1  0  0  0
 41113  1  0  0  0
 41 48  1  0  0  0
 42 43  1  0  0  0
 42 66  1  0  0  0
 42114  1  0  0  0
 42115  1  0  0  0
 43 44  1  0  0  0
 44116  1  0  0  0
 45 46  2  0  0  0
 45117  1  0  0  0
 46118  1  0  0  0
 47119  1  0  0  0
 47120  1  0  0  0
 48 56  1  0  0  0
 48 65  1  0  0  0
 48121  1  0  0  0
 49 50  1  0  0  0
 49 53  1  0  0  0
 49 64  1  0  0  0
 49122  1  0  0  0
 50 51  1  0  0  0
 50123  1  0  0  0
 50124  1  0  0  0
 51 52  1  0  0  0
 51125  1  0  0  0
 51126  1  0  0  0
 52127  1  0  0  0
 52128  1  0  0  0
 53 54  1  0  0  0
 54 55  2  0  0  0
 54129  1  0  0  0
 55 57  1  0  0  0
 55130  1  0  0  0
 56 69  2  0  0  0
 57 58  2  0  0  0
 57131  1  0  0  0
 58132  1  0  0  0
 59 60  1  0  0  0
 59 61  1  0  0  0
 59 62  1  0  0  0
 60133  1  0  0  0
 60134  1  0  0  0
 60135  1  0  0  0
 61136  1  0  0  0
 61137  1  0  0  0
 61138  1  0  0  0
 62139  1  0  0  0
 62140  1  0  0  0
 62141  1  0  0  0
 63 65  1  0  0  0
 63142  1  0  0  0
 63143  1  0  0  0
 63144  1  0  0  0
 64145  1  0  0  0
 65146  1  0  0  0
 68 81  1  0  0  0
 71 72  2  0  0  0
 71 73  1  0  0  0
 71147  1  0  0  0
 72 74  1  0  0  0
 72 85  1  0  0  0
 73 76  2  0  0  0
 73 82  1  0  0  0
 74 75  2  0  0  0
 74 83  1  0  0  0
 75 76  1  0  0  0
 75 84  1  0  0  0
 76 86  1  0  0  0
 77 78  1  0  0  0
 77 79  1  0  0  0
 77148  1  0  0  0
 77149  1  0  0  0
 78 81  1  0  0  0
 78150  1  0  0  0
 78151  1  0  0  0
 79 87  1  0  0  0
 79152  1  0  0  0
 79153  1  0  0  0
 80 81  1  0  0  0
 80 87  1  0  0  0
 80154  1  0  0  0
 80155  1  0  0  0
 81156  1  0  0  0
 82157  1  0  0  0
 82158  1  0  0  0
 82159  1  0  0  0
 83160  1  0  0  0
 83161  1  0  0  0
 83162  1  0  0  0
 84163  1  0  0  0
 84164  1  0  0  0
 84165  1  0  0  0
 85166  1  0  0  0
 85167  1  0  0  0
 85 87  1  0  0  0
 86168  1  0  0  0
 87169  1  0  0  0
M  CHG  1  87   1
M  ISO  4   1 100  68 101  81 101  86 100
M  END
> <chiral flag>
0

> <version>
0

> <s_m_source_file>
/data/baiqing/PycharmProjects/Reinvent-master-3.2/result/LINK_invent/BTK/process_docking_weight1_custom_product_contain_oxygen_bond_distance_aromatic_linkinvent_7_9_3/rearranged_h_0037.sdf

> <i_m_source_file_index>
5

> <r_mmod_Potential_Energy-OPLS-2005>
3.01434969902039

> <r_mmod_Stretch_Energy-OPLS-2005>
87.8123550415039

> <r_mmod_Bend_Energy-OPLS-2005>
145.929183959961

> <r_mmod_Torsional_Energy-OPLS-2005>
278.594970703125

> <r_mmod_Improper_Torsional_Energy-OPLS-2005>
4.06275415420532

> <r_mmod_Van_der_Waal_Energy-OPLS-2005>
157.027160644531

> <r_mmod_Electrostatic_Energy-OPLS-2005>
-298.324737548828

> <r_mmod_Solvation_Energy-OPLS-2005>
-420.011413574219

> <b_mmod_Minimization_Converged-OPLS-2005>
0

> <r_mmod_RMS_Derivative-OPLS-2005>
2.86834287643433

$$$$
5
                    3D
 Structure written by MMmdl.
169178  0  0  1  0            999 V2000
  -30.5829  -14.7446   20.3481 C   0  0  0  0  0  0
  -30.4304  -12.4182   19.4598 C   0  0  0  0  0  0
  -29.5084  -12.4485   18.2251 C   0  0  0  0  0  0
  -28.0240  -12.3221   18.6269 C   0  0  0  0  0  0
  -27.6325  -13.2306   19.8246 C   0  0  2  0  0  0
  -28.6910  -13.1726   20.9455 C   0  0  0  0  0  0
  -25.2514  -13.8236   20.5696 C   0  0  0  0  0  0
  -24.1784  -13.0459   20.9199 C   0  0  0  0  0  0
  -24.6347  -11.6965   20.8756 C   0  0  0  0  0  0
  -23.9007  -10.4336   21.0404 C   0  0  0  0  0  0
  -24.3548   -9.4253   21.9185 C   0  0  0  0  0  0
  -23.6261   -8.2272   22.0726 C   0  0  0  0  0  0
  -22.4268   -8.0261   21.3526 C   0  0  0  0  0  0
  -21.9885   -9.0240   20.4650 C   0  0  0  0  0  0
  -22.7166  -10.2135   20.3083 C   0  0  0  0  0  0
  -21.6848   -6.0706   22.5270 C   0  0  0  0  0  0
  -21.4021   -6.5601   23.8193 C   0  0  0  0  0  0
  -21.3664   -5.6748   24.9153 C   0  0  0  0  0  0
  -21.6048   -4.3012   24.7206 C   0  0  0  0  0  0
  -21.8834   -3.8103   23.4321 C   0  0  0  0  0  0
  -21.9171   -4.6939   22.3371 C   0  0  0  0  0  0
  -22.7771  -13.5275   21.1719 C   0  0  0  0  0  0
  -22.1638   -4.2124   21.0958 F   0  0  0  0  0  0
  -21.5616   -3.4493   25.7705 F   0  0  0  0  0  0
  -29.9776  -13.5120   20.3320 N   0  0  0  0  0  0
  -26.2909  -12.9392   20.3233 N   0  0  0  0  0  0
  -25.9291  -11.6551   20.5787 N   0  0  0  0  0  0
  -22.0305  -12.8475   22.0357 N   0  0  0  0  0  0
  -25.4284  -15.1931   20.4101 N   0  0  0  0  0  0
  -31.7980  -14.8396   20.1350 O   0  0  0  0  0  0
  -21.6627   -6.8859   21.4234 O   0  0  0  0  0  0
  -22.3508  -14.5509   20.6402 O   0  0  0  0  0  0
  -24.6325  -31.8533   23.2013 C   0  0  0  0  0  0
  -25.9136  -32.4743   23.8360 C   0  0  1  0  0  0
  -27.1891  -27.2300   20.1522 C   0  0  0  0  0  0
  -25.5885  -33.8551   24.2268 N   0  0  0  0  0  0
  -23.4305  -30.4798   21.5408 C   0  0  2  0  0  0
  -24.8747  -28.9264   20.1069 C   0  0  0  0  0  0
  -22.7494  -29.4613   22.4870 C   0  0  0  0  0  0
  -18.0283  -28.1388   22.8497 C   0  0  0  0  0  0
  -24.1486  -36.7295   23.2649 C   0  0  0  0  0  0
  -25.9825  -30.7606   21.3850 C   0  0  0  0  0  0
  -26.0501  -29.3822   20.7227 C   0  0  0  0  0  0
  -27.2178  -28.5504   20.7243 C   0  0  0  0  0  0
  -25.9969  -26.8418   19.5123 C   0  0  0  0  0  0
  -24.8588  -27.6680   19.4860 C   0  0  0  0  0  0
  -23.6473  -29.8135   20.1566 C   0  0  0  0  0  0
  -25.4108  -36.3088   24.0342 C   0  0  1  0  0  0
  -20.5906  -28.3721   23.1258 C   0  0  2  0  0  0
  -20.6788  -26.9419   22.5424 C   0  0  0  0  0  0
  -19.5761  -26.6358   21.5238 C   0  0  0  0  0  0
  -18.1933  -26.7934   22.1616 C   0  0  0  0  0  0
  -19.1547  -28.8860   23.2879 C   0  0  0  0  0  0
  -18.9455  -30.1465   23.8899 C   0  0  0  0  0  0
  -17.6455  -30.6603   24.0536 C   0  0  0  0  0  0
  -25.9043  -34.9444   23.5111 C   0  0  0  0  0  0
  -16.5342  -29.9095   23.6325 C   0  0  0  0  0  0
  -16.7267  -28.6493   23.0387 C   0  0  0  0  0  0
  -26.4474  -31.6611   25.0789 C   0  0  0  0  0  0
  -25.3659  -31.3774   26.1486 C   0  0  0  0  0  0
  -27.0315  -30.2999   24.6355 C   0  0  0  0  0  0
  -27.6042  -32.4361   25.7549 C   0  0  0  0  0  0
  -27.5597  -37.1797   24.8449 C   0  0  0  0  0  0
  -21.4219  -29.3058   22.3619 N   0  0  0  0  0  0
  -26.4285  -37.3790   23.9418 N   0  0  0  0  0  0
  -24.7009  -31.0517   22.0946 N   0  0  0  0  0  0
  -23.4212  -28.8126   23.2953 O   0  0  0  0  0  0
  -28.2564  -26.3029   20.1908 O   0  0  0  0  0  0
  -26.5655  -34.8911   22.4714 O   0  0  0  0  0  0
  -23.5472  -32.1363   23.7282 O   0  0  0  0  0  0
  -30.1486  -18.5914   22.8729 C   0  0  0  0  0  0
  -29.3456  -18.4432   20.2318 C   0  0  0  0  0  0
  -29.5328  -19.7193   22.2878 C   0  0  0  0  0  0
  -30.3165  -17.3668   22.2013 C   0  0  0  0  0  0
  -29.1872  -19.7348   20.9027 C   0  0  0  0  0  0
  -29.8663  -17.2269   20.8613 C   0  0  0  0  0  0
  -28.8613  -24.5393   21.8240 C   0  0  0  0  0  0
  -30.2829  -24.1377   21.3780 C   0  0  0  0  0  0
  -28.2485  -23.6356   19.5534 C   0  0  0  0  0  0
  -28.0059  -24.8570   20.5869 C   0  0  2  0  0  0
  -30.3525  -22.7449   20.6737 C   0  0  2  0  0  0
  -29.1748  -20.8331   23.2568 C   0  0  0  0  0  0
  -30.8689  -16.1969   23.0126 C   0  0  0  0  0  0
  -31.5179  -22.6380   19.6674 C   0  0  0  0  0  0
  -28.4352  -21.0177   20.2637 C   0  0  0  0  0  0
  -29.7710  -15.8668   20.2684 N   0  0  0  0  0  0
  -29.0895  -22.3928   19.9665 N   0  3  1  0  0  0
  -31.4695  -12.5454   19.1599 H   0  0  0  0  0  0
  -30.3874  -11.4584   19.9815 H   0  0  0  0  0  0
  -29.7865  -11.6402   17.5483 H   0  0  0  0  0  0
  -29.6623  -13.3735   17.6729 H   0  0  0  0  0  0
  -27.8438  -11.2756   18.8828 H   0  0  0  0  0  0
  -27.3918  -12.5305   17.7627 H   0  0  0  0  0  0
  -27.6127  -14.2482   19.4253 H   0  0  0  0  0  0
  -28.7271  -12.1836   21.4033 H   0  0  0  0  0  0
  -28.4552  -13.8729   21.7456 H   0  0  0  0  0  0
  -25.2637   -9.5741   22.4828 H   0  0  0  0  0  0
  -23.9913   -7.4697   22.7498 H   0  0  0  0  0  0
  -21.0768   -8.8745   19.9055 H   0  0  0  0  0  0
  -22.3526  -10.9666   19.6237 H   0  0  0  0  0  0
  -21.2056   -7.6107   23.9704 H   0  0  0  0  0  0
  -21.1471   -6.0465   25.9056 H   0  0  0  0  0  0
  -22.0631   -2.7581   23.2794 H   0  0  0  0  0  0
  -22.3673  -12.0184   22.5023 H   0  0  0  0  0  0
  -21.0976  -13.1757   22.2401 H   0  0  0  0  0  0
  -24.6867  -15.8748   20.5384 H   0  0  0  0  0  0
  -26.3032  -15.6202   20.1349 H   0  0  0  0  0  0
  -26.7215  -32.5391   23.1121 H   0  0  0  0  0  0
  -24.9916  -33.9688   25.0326 H   0  0  0  0  0  0
  -22.7306  -31.3044   21.3912 H   0  0  0  0  0  0
  -23.3766  -35.9604   23.3265 H   0  0  0  0  0  0
  -24.3566  -36.8958   22.2064 H   0  0  0  0  0  0
  -23.7195  -37.6461   23.6695 H   0  0  0  0  0  0
  -26.1389  -31.5285   20.6258 H   0  0  0  0  0  0
  -26.8520  -30.7994   22.0295 H   0  0  0  0  0  0
  -28.1178  -28.8868   21.2226 H   0  0  0  0  0  0
  -25.9262  -25.8667   19.0523 H   0  0  0  0  0  0
  -23.9616  -27.3178   18.9961 H   0  0  0  0  0  0
  -23.7691  -30.5837   19.3952 H   0  0  0  0  0  0
  -22.7677  -29.2425   19.8568 H   0  0  0  0  0  0
  -25.1291  -36.1943   25.0836 H   0  0  0  0  0  0
  -21.0036  -28.3313   24.1373 H   0  0  0  0  0  0
  -20.5713  -26.2319   23.3643 H   0  0  0  0  0  0
  -21.6645  -26.7457   22.1199 H   0  0  0  0  0  0
  -19.6926  -25.6262   21.1300 H   0  0  0  0  0  0
  -19.6719  -27.3144   20.6752 H   0  0  0  0  0  0
  -17.4228  -26.6740   21.3983 H   0  0  0  0  0  0
  -18.0276  -26.0068   22.8990 H   0  0  0  0  0  0
  -19.7928  -30.7278   24.2298 H   0  0  0  0  0  0
  -17.5000  -31.6303   24.5100 H   0  0  0  0  0  0
  -15.5349  -30.2993   23.7644 H   0  0  0  0  0  0
  -15.8665  -28.0783   22.7164 H   0  0  0  0  0  0
  -24.5798  -30.7201   25.7752 H   0  0  0  0  0  0
  -24.8896  -32.2954   26.4953 H   0  0  0  0  0  0
  -25.7926  -30.8861   27.0242 H   0  0  0  0  0  0
  -26.2931  -29.6762   24.1308 H   0  0  0  0  0  0
  -27.3824  -29.7287   25.4959 H   0  0  0  0  0  0
  -27.8890  -30.4211   23.9734 H   0  0  0  0  0  0
  -27.2651  -33.3650   26.2150 H   0  0  0  0  0  0
  -28.3826  -32.6946   25.0359 H   0  0  0  0  0  0
  -28.0746  -31.8474   26.5436 H   0  0  0  0  0  0
  -28.2589  -38.0124   24.7536 H   0  0  0  0  0  0
  -28.1113  -36.2655   24.6211 H   0  0  0  0  0  0
  -27.2322  -37.1367   25.8850 H   0  0  0  0  0  0
  -20.9406  -29.8701   21.6747 H   0  0  0  0  0  0
  -26.0175  -38.2861   24.1423 H   0  0  0  0  0  0
  -30.4129  -18.6453   23.9202 H   0  0  0  0  0  0
  -28.9804  -18.3684   19.2154 H   0  0  0  0  0  0
  -28.8787  -25.3711   22.5266 H   0  0  0  0  0  0
  -28.3997  -23.7193   22.3702 H   0  0  0  0  0  0
  -30.9507  -24.1525   22.2374 H   0  0  0  0  0  0
  -30.6453  -24.9134   20.7027 H   0  0  0  0  0  0
  -28.8035  -24.0875   18.7300 H   0  0  0  0  0  0
  -27.3016  -23.3251   19.1042 H   0  0  0  0  0  0
  -26.9632  -24.7803   20.9053 H   0  0  0  0  0  0
  -30.5728  -22.0147   21.4429 H   0  0  0  0  0  0
  -28.6251  -20.4177   24.1038 H   0  0  0  0  0  0
  -28.5382  -21.5962   22.8252 H   0  0  0  0  0  0
  -30.0752  -21.2953   23.6672 H   0  0  0  0  0  0
  -31.2709  -16.5118   23.9749 H   0  0  0  0  0  0
  -31.6924  -15.6918   22.5104 H   0  0  0  0  0  0
  -30.0841  -15.4621   23.1937 H   0  0  0  0  0  0
  -31.4483  -23.3802   18.8713 H   0  0  0  0  0  0
  -31.5312  -21.6617   19.1803 H   0  0  0  0  0  0
  -32.4797  -22.7502   20.1663 H   0  0  0  0  0  0
  -27.5272  -21.1928   20.8434 H   0  0  0  0  0  0
  -28.0701  -20.6882   19.2929 H   0  0  0  0  0  0
  -28.8838  -15.6787   19.8277 H   0  0  0  0  0  0
  -29.4661  -22.1272   19.0670 H   0  0  0  0  0  0
  1 25  1  0  0  0
  1 30  2  0  0  0
  1 86  1  0  0  0
  2  3  1  0  0  0
  2 25  1  0  0  0
  2 88  1  0  0  0
  2 89  1  0  0  0
  3  4  1  0  0  0
  3 90  1  0  0  0
  3 91  1  0  0  0
  4  5  1  0  0  0
  4 92  1  0  0  0
  4 93  1  0  0  0
  5  6  1  0  0  0
  5 26  1  0  0  0
  5 94  1  0  0  0
  6 25  1  0  0  0
  6 95  1  0  0  0
  6 96  1  0  0  0
  7  8  2  0  0  0
  7 26  1  0  0  0
  7 29  1  0  0  0
  8  9  1  0  0  0
  8 22  1  0  0  0
  9 10  1  0  0  0
  9 27  2  0  0  0
 10 11  2  0  0  0
 10 15  1  0  0  0
 11 12  1  0  0  0
 11 97  1  0  0  0
 12 13  2  0  0  0
 12 98  1  0  0  0
 13 14  1  0  0  0
 13 31  1  0  0  0
 14 15  2  0  0  0
 14 99  1  0  0  0
 15100  1  0  0  0
 16 17  2  0  0  0
 16 21  1  0  0  0
 16 31  1  0  0  0
 17 18  1  0  0  0
 17101  1  0  0  0
 18 19  2  0  0  0
 18102  1  0  0  0
 19 20  1  0  0  0
 19 24  1  0  0  0
 20 21  2  0  0  0
 20103  1  0  0  0
 21 23  1  0  0  0
 22 28  1  0  0  0
 22 32  2  0  0  0
 26 27  1  0  0  0
 28104  1  0  0  0
 28105  1  0  0  0
 29106  1  0  0  0
 29107  1  0  0  0
 33 34  1  0  0  0
 33 66  1  0  0  0
 33 70  2  0  0  0
 34 36  1  0  0  0
 34 59  1  0  0  0
 34108  1  0  0  0
 35 44  2  0  0  0
 35 45  1  0  0  0
 35 68  1  0  0  0
 36 56  1  0  0  0
 36109  1  0  0  0
 37 39  1  0  0  0
 37 47  1  0  0  0
 37 66  1  0  0  0
 37110  1  0  0  0
 38 43  2  0  0  0
 38 46  1  0  0  0
 38 47  1  0  0  0
 39 64  1  0  0  0
 39 67  2  0  0  0
 40 52  1  0  0  0
 40 53  2  0  0  0
 40 58  1  0  0  0
 41111  1  0  0  0
 41112  1  0  0  0
 41113  1  0  0  0
 41 48  1  0  0  0
 42 43  1  0  0  0
 42 66  1  0  0  0
 42114  1  0  0  0
 42115  1  0  0  0
 43 44  1  0  0  0
 44116  1  0  0  0
 45 46  2  0  0  0
 45117  1  0  0  0
 46118  1  0  0  0
 47119  1  0  0  0
 47120  1  0  0  0
 48 56  1  0  0  0
 48 65  1  0  0  0
 48121  1  0  0  0
 49 50  1  0  0  0
 49 53  1  0  0  0
 49 64  1  0  0  0
 49122  1  0  0  0
 50 51  1  0  0  0
 50123  1  0  0  0
 50124  1  0  0  0
 51 52  1  0  0  0
 51125  1  0  0  0
 51126  1  0  0  0
 52127  1  0  0  0
 52128  1  0  0  0
 53 54  1  0  0  0
 54 55  2  0  0  0
 54129  1  0  0  0
 55 57  1  0  0  0
 55130  1  0  0  0
 56 69  2  0  0  0
 57 58  2  0  0  0
 57131  1  0  0  0
 58132  1  0  0  0
 59 60  1  0  0  0
 59 61  1  0  0  0
 59 62  1  0  0  0
 60133  1  0  0  0
 60134  1  0  0  0
 60135  1  0  0  0
 61136  1  0  0  0
 61137  1  0  0  0
 61138  1  0  0  0
 62139  1  0  0  0
 62140  1  0  0  0
 62141  1  0  0  0
 63 65  1  0  0  0
 63142  1  0  0  0
 63143  1  0  0  0
 63144  1  0  0  0
 64145  1  0  0  0
 65146  1  0  0  0
 68 80  1  0  0  0
 71 73  2  0  0  0
 71 74  1  0  0  0
 71147  1  0  0  0
 72 75  2  0  0  0
 72 76  1  0  0  0
 72148  1  0  0  0
 73 75  1  0  0  0
 73 82  1  0  0  0
 74 76  2  0  0  0
 74 83  1  0  0  0
 75 85  1  0  0  0
 76 86  1  0  0  0
 77 78  1  0  0  0
 77 80  1  0  0  0
 77149  1  0  0  0
 77150  1  0  0  0
 78 81  1  0  0  0
 78151  1  0  0  0
 78152  1  0  0  0
 79 80  1  0  0  0
 79 87  1  0  0  0
 79153  1  0  0  0
 79154  1  0  0  0
 80155  1  0  0  0
 81 84  1  0  0  0
 81 87  1  0  0  0
 81156  1  0  0  0
 82157  1  0  0  0
 82158  1  0  0  0
 82159  1  0  0  0
 83160  1  0  0  0
 83161  1  0  0  0
 83162  1  0  0  0
 84163  1  0  0  0
 84164  1  0  0  0
 84165  1  0  0  0
 85166  1  0  0  0
 85167  1  0  0  0
 85 87  1  0  0  0
 86168  1  0  0  0
 87169  1  0  0  0
M  CHG  1  87   1
M  ISO  4   1 100  68 101  80 101  86 100
M  END
> <chiral flag>
0

> <version>
0

> <s_m_source_file>
/data/baiqing/PycharmProjects/Reinvent-master-3.2/result/LINK_invent/BTK/process_docking_weight1_custom_product_contain_oxygen_bond_distance_aromatic_linkinvent_7_9_3/rearranged_h_0037.sdf

> <i_m_source_file_index>
6

> <r_mmod_Potential_Energy-OPLS-2005>
255.381774902344

> <r_mmod_Stretch_Energy-OPLS-2005>
142.362609863281

> <r_mmod_Bend_Energy-OPLS-2005>
215.248611450195

> <r_mmod_Torsional_Energy-OPLS-2005>
334.493255615234

> <r_mmod_Improper_Torsional_Energy-OPLS-2005>
11.6324520111084

> <r_mmod_Van_der_Waal_Energy-OPLS-2005>
149.340240478516

> <r_mmod_Electrostatic_Energy-OPLS-2005>
-284.132629394531

> <r_mmod_Solvation_Energy-OPLS-2005>
-418.288146972656

> <b_mmod_Minimization_Converged-OPLS-2005>
0

> <r_mmod_RMS_Derivative-OPLS-2005>
7.85857582092285

$$$$
6
                    3D
 Structure written by MMmdl.
164173  0  0  1  0            999 V2000
  -30.7749  -14.4095   20.6005 C   0  0  0  0  0  0
  -30.3936  -12.2795   19.4215 C   0  0  0  0  0  0
  -29.4758  -12.5008   18.2062 C   0  0  0  0  0  0
  -28.0032  -12.3639   18.6275 C   0  0  0  0  0  0
  -27.6578  -13.2149   19.8768 C   0  0  2  0  0  0
  -28.6998  -13.0148   21.0019 C   0  0  0  0  0  0
  -25.2542  -13.8162   20.5709 C   0  0  0  0  0  0
  -24.1804  -13.0430   20.9215 C   0  0  0  0  0  0
  -24.6400  -11.6909   20.8774 C   0  0  0  0  0  0
  -23.9094  -10.4278   21.0453 C   0  0  0  0  0  0
  -24.3620   -9.4180   21.9236 C   0  0  0  0  0  0
  -23.6282   -8.2216   22.0761 C   0  0  0  0  0  0
  -22.4273   -8.0279   21.3541 C   0  0  0  0  0  0
  -21.9909   -9.0277   20.4661 C   0  0  0  0  0  0
  -22.7259  -10.2153   20.3105 C   0  0  0  0  0  0
  -21.6846   -6.0746   22.5312 C   0  0  0  0  0  0
  -21.4015   -6.5653   23.8247 C   0  0  0  0  0  0
  -21.3651   -5.6812   24.9208 C   0  0  0  0  0  0
  -21.6015   -4.3078   24.7241 C   0  0  0  0  0  0
  -21.8806   -3.8163   23.4372 C   0  0  0  0  0  0
  -21.9176   -4.6972   22.3426 C   0  0  0  0  0  0
  -22.7818  -13.5238   21.1878 C   0  0  0  0  0  0
  -22.1644   -4.2150   21.1000 F   0  0  0  0  0  0
  -21.5624   -3.4568   25.7751 F   0  0  0  0  0  0
  -30.0344  -13.2804   20.4407 N   0  0  0  0  0  0
  -26.3004  -12.9382   20.3409 N   0  0  0  0  0  0
  -25.9325  -11.6537   20.5809 N   0  0  0  0  0  0
  -22.0465  -12.8237   22.0436 N   0  0  0  0  0  0
  -25.4226  -15.1872   20.4063 N   0  0  0  0  0  0
  -31.8514  -14.5770   20.0259 O   0  0  0  0  0  0
  -21.6632   -6.8889   21.4268 O   0  0  0  0  0  0
  -22.3488  -14.5552   20.6752 O   0  0  0  0  0  0
  -24.6180  -31.8669   23.2133 C   0  0  0  0  0  0
  -25.9073  -32.4810   23.8423 C   0  0  1  0  0  0
  -27.2123  -27.4226   20.1071 C   0  0  0  0  0  0
  -25.5923  -33.8621   24.2343 N   0  0  0  0  0  0
  -23.4029  -30.4931   21.5506 C   0  0  2  0  0  0
  -24.8530  -28.9689   20.1044 C   0  0  0  0  0  0
  -22.7416  -29.4657   22.4982 C   0  0  0  0  0  0
  -18.0232  -28.1351   22.8473 C   0  0  0  0  0  0
  -24.1468  -36.7318   23.2635 C   0  0  0  0  0  0
  -25.9332  -30.8329   21.3674 C   0  0  0  0  0  0
  -26.0116  -29.4675   20.7149 C   0  0  0  0  0  0
  -27.2006  -28.6967   20.7227 C   0  0  0  0  0  0
  -26.0612  -26.9812   19.4271 C   0  0  0  0  0  0
  -24.8713  -27.7268   19.4547 C   0  0  0  0  0  0
  -23.6106  -29.8283   20.1641 C   0  0  0  0  0  0
  -25.4091  -36.3125   24.0329 C   0  0  1  0  0  0
  -20.5836  -28.3654   23.1299 C   0  0  2  0  0  0
  -20.6724  -26.9390   22.5402 C   0  0  0  0  0  0
  -19.5707  -26.6378   21.5177 C   0  0  0  0  0  0
  -18.1886  -26.7899   22.1610 C   0  0  0  0  0  0
  -19.1488  -28.8813   23.2896 C   0  0  0  0  0  0
  -18.9435  -30.1414   23.8908 C   0  0  0  0  0  0
  -17.6445  -30.6588   24.0533 C   0  0  0  0  0  0
  -25.9003  -34.9471   23.5137 C   0  0  0  0  0  0
  -16.5327  -29.9077   23.6318 C   0  0  0  0  0  0
  -16.7226  -28.6482   23.0368 C   0  0  0  0  0  0
  -26.4512  -31.6587   25.0742 C   0  0  0  0  0  0
  -25.3787  -31.3653   26.1482 C   0  0  0  0  0  0
  -27.0330  -30.3026   24.6115 C   0  0  0  0  0  0
  -27.6112  -32.4271   25.7477 C   0  0  0  0  0  0
  -27.5557  -37.1808   24.8473 C   0  0  0  0  0  0
  -21.4155  -29.3044   22.3734 N   0  0  0  0  0  0
  -26.4284  -37.3817   23.9393 N   0  0  0  0  0  0
  -24.6687  -31.0770   22.1023 N   0  0  0  0  0  0
  -23.4190  -28.8193   23.3025 O   0  0  0  0  0  0
  -28.3132  -26.5966   20.1496 O   0  0  0  0  0  0
  -26.5602  -34.8929   22.4711 O   0  0  0  0  0  0
  -23.5376  -32.1425   23.7548 O   0  0  0  0  0  0
  -29.9052  -19.8978   20.2943 C   0  0  0  0  0  0
  -30.3565  -20.2266   22.6507 C   0  0  0  0  0  0
  -30.1605  -20.7717   21.3718 C   0  0  0  0  0  0
  -30.0297  -18.4953   20.4469 C   0  0  0  0  0  0
  -30.4233  -17.9534   21.7064 C   0  0  0  0  0  0
  -30.4814  -18.8337   22.8257 C   0  0  0  0  0  0
  -29.3700  -24.4614   20.7512 C   0  0  0  0  0  0
  -26.9020  -23.3791   21.9548 C   0  0  0  0  0  0
  -26.8793  -24.6770   21.1192 C   0  0  0  0  0  0
  -28.3214  -22.9676   22.3881 C   0  0  0  0  0  0
  -28.2304  -25.4623   21.0649 C   0  0  2  0  0  0
  -29.8338  -17.6514   19.1937 C   0  0  0  0  0  0
  -30.4129  -22.2638   21.1283 C   0  0  0  0  0  0
  -31.0354  -16.5417   21.8438 C   0  0  0  0  0  0
  -29.3227  -23.2362   21.3424 N   0  0  0  0  0  0
  -30.2682  -15.3670   21.3992 N   0  0  0  0  0  0
  -30.2788  -24.8023   19.9836 O   0  0  0  0  0  0
  -30.8113  -18.2716   24.4287 Cl  0  0  0  0  0  0
  -31.4434  -12.3243   19.1276 H   0  0  0  0  0  0
  -30.2453  -11.2774   19.8231 H   0  0  0  0  0  0
  -29.7068  -11.7794   17.4216 H   0  0  0  0  0  0
  -29.6502  -13.4884   17.7763 H   0  0  0  0  0  0
  -27.8134  -11.3116   18.8409 H   0  0  0  0  0  0
  -27.3452  -12.6328   17.7996 H   0  0  0  0  0  0
  -27.7002  -14.2581   19.5626 H   0  0  0  0  0  0
  -28.6594  -11.9968   21.3891 H   0  0  0  0  0  0
  -28.4671  -13.6584   21.8524 H   0  0  0  0  0  0
  -25.2757   -9.5639   22.4836 H   0  0  0  0  0  0
  -23.9985   -7.4592   22.7462 H   0  0  0  0  0  0
  -21.0828   -8.8838   19.8967 H   0  0  0  0  0  0
  -22.3737  -10.9724   19.6235 H   0  0  0  0  0  0
  -21.2048   -7.6168   23.9753 H   0  0  0  0  0  0
  -21.1475   -6.0557   25.9114 H   0  0  0  0  0  0
  -22.0579   -2.7620   23.2907 H   0  0  0  0  0  0
  -22.4027  -11.9879   22.4852 H   0  0  0  0  0  0
  -21.1102  -13.1306   22.2632 H   0  0  0  0  0  0
  -24.6576  -15.8420   20.5248 H   0  0  0  0  0  0
  -26.2736  -15.6328   20.0877 H   0  0  0  0  0  0
  -26.7148  -32.5561   23.1199 H   0  0  0  0  0  0
  -25.0048  -33.9767   25.0469 H   0  0  0  0  0  0
  -22.6908  -31.3117   21.4138 H   0  0  0  0  0  0
  -23.3723  -35.9662   23.3354 H   0  0  0  0  0  0
  -24.3544  -36.8893   22.2040 H   0  0  0  0  0  0
  -23.7235  -37.6540   23.6621 H   0  0  0  0  0  0
  -26.0409  -31.6003   20.5980 H   0  0  0  0  0  0
  -26.8223  -30.8930   21.9823 H   0  0  0  0  0  0
  -28.0943  -29.0667   21.2075 H   0  0  0  0  0  0
  -26.0717  -26.0447   18.8895 H   0  0  0  0  0  0
  -23.9907  -27.3470   18.9584 H   0  0  0  0  0  0
  -23.7108  -30.6034   19.4039 H   0  0  0  0  0  0
  -22.7373  -29.2410   19.8743 H   0  0  0  0  0  0
  -25.1260  -36.1993   25.0824 H   0  0  0  0  0  0
  -20.9900  -28.3220   24.1432 H   0  0  0  0  0  0
  -20.5548  -26.2288   23.3610 H   0  0  0  0  0  0
  -21.6604  -26.7383   22.1230 H   0  0  0  0  0  0
  -19.6890  -25.6297   21.1176 H   0  0  0  0  0  0
  -19.6626  -27.3222   20.6725 H   0  0  0  0  0  0
  -17.4139  -26.6611   21.4041 H   0  0  0  0  0  0
  -18.0330  -26.0032   22.9005 H   0  0  0  0  0  0
  -19.7920  -30.7203   24.2322 H   0  0  0  0  0  0
  -17.5002  -31.6262   24.5156 H   0  0  0  0  0  0
  -15.5334  -30.2993   23.7652 H   0  0  0  0  0  0
  -15.8610  -28.0798   22.7126 H   0  0  0  0  0  0
  -24.5999  -30.6963   25.7809 H   0  0  0  0  0  0
  -24.8937  -32.2779   26.4964 H   0  0  0  0  0  0
  -25.8171  -30.8817   27.0224 H   0  0  0  0  0  0
  -26.2873  -29.6732   24.1237 H   0  0  0  0  0  0
  -27.4179  -29.7309   25.4576 H   0  0  0  0  0  0
  -27.8680  -30.4316   23.9216 H   0  0  0  0  0  0
  -27.2782  -33.3584   26.2058 H   0  0  0  0  0  0
  -28.3920  -32.6792   25.0285 H   0  0  0  0  0  0
  -28.0781  -31.8385   26.5383 H   0  0  0  0  0  0
  -28.2628  -38.0054   24.7488 H   0  0  0  0  0  0
  -28.1002  -36.2599   24.6344 H   0  0  0  0  0  0
  -27.2267  -37.1505   25.8877 H   0  0  0  0  0  0
  -20.9336  -29.8819   21.6990 H   0  0  0  0  0  0
  -26.0190  -38.2899   24.1421 H   0  0  0  0  0  0
  -29.7083  -20.3091   19.3146 H   0  0  0  0  0  0
  -30.5062  -20.8889   23.4953 H   0  0  0  0  0  0
  -26.4474  -22.5740   21.3736 H   0  0  0  0  0  0
  -26.2675  -23.4718   22.8389 H   0  0  0  0  0  0
  -26.0863  -25.3169   21.5128 H   0  0  0  0  0  0
  -26.5878  -24.3840   20.1112 H   0  0  0  0  0  0
  -28.2923  -21.9281   22.7073 H   0  0  0  0  0  0
  -28.6158  -23.5425   23.2670 H   0  0  0  0  0  0
  -28.4329  -25.8581   22.0614 H   0  0  0  0  0  0
  -29.0502  -18.0742   18.5600 H   0  0  0  0  0  0
  -29.5280  -16.6300   19.4007 H   0  0  0  0  0  0
  -30.7498  -17.6177   18.6077 H   0  0  0  0  0  0
  -30.7785  -22.3452   20.1028 H   0  0  0  0  0  0
  -31.2518  -22.5704   21.7579 H   0  0  0  0  0  0
  -31.3621  -16.3240   22.8579 H   0  0  0  0  0  0
  -31.9756  -16.6218   21.2907 H   0  0  0  0  0  0
  -29.3530  -15.2277   21.7952 H   0  0  0  0  0  0
  1 25  1  0  0  0
  1 30  2  0  0  0
  1 86  1  0  0  0
  2  3  1  0  0  0
  2 25  1  0  0  0
  2 89  1  0  0  0
  2 90  1  0  0  0
  3  4  1  0  0  0
  3 91  1  0  0  0
  3 92  1  0  0  0
  4  5  1  0  0  0
  4 93  1  0  0  0
  4 94  1  0  0  0
  5  6  1  0  0  0
  5 26  1  0  0  0
  5 95  1  0  0  0
  6 25  1  0  0  0
  6 96  1  0  0  0
  6 97  1  0  0  0
  7  8  2  0  0  0
  7 26  1  0  0  0
  7 29  1  0  0  0
  8  9  1  0  0  0
  8 22  1  0  0  0
  9 10  1  0  0  0
  9 27  2  0  0  0
 10 11  2  0  0  0
 10 15  1  0  0  0
 11 12  1  0  0  0
 11 98  1  0  0  0
 12 13  2  0  0  0
 12 99  1  0  0  0
 13 14  1  0  0  0
 13 31  1  0  0  0
 14 15  2  0  0  0
 14100  1  0  0  0
 15101  1  0  0  0
 16 17  2  0  0  0
 16 21  1  0  0  0
 16 31  1  0  0  0
 17 18  1  0  0  0
 17102  1  0  0  0
 18 19  2  0  0  0
 18103  1  0  0  0
 19 20  1  0  0  0
 19 24  1  0  0  0
 20 21  2  0  0  0
 20104  1  0  0  0
 21 23  1  0  0  0
 22 28  1  0  0  0
 22 32  2  0  0  0
 26 27  1  0  0  0
 28105  1  0  0  0
 28106  1  0  0  0
 29107  1  0  0  0
 29108  1  0  0  0
 33 34  1  0  0  0
 33 66  1  0  0  0
 33 70  2  0  0  0
 34 36  1  0  0  0
 34 59  1  0  0  0
 34109  1  0  0  0
 35 44  2  0  0  0
 35 45  1  0  0  0
 35 68  1  0  0  0
 36 56  1  0  0  0
 36110  1  0  0  0
 37 39  1  0  0  0
 37 47  1  0  0  0
 37 66  1  0  0  0
 37111  1  0  0  0
 38 43  2  0  0  0
 38 46  1  0  0  0
 38 47  1  0  0  0
 39 64  1  0  0  0
 39 67  2  0  0  0
 40 52  1  0  0  0
 40 53  2  0  0  0
 40 58  1  0  0  0
 41112  1  0  0  0
 41113  1  0  0  0
 41114  1  0  0  0
 41 48  1  0  0  0
 42 43  1  0  0  0
 42 66  1  0  0  0
 42115  1  0  0  0
 42116  1  0  0  0
 43 44  1  0  0  0
 44117  1  0  0  0
 45 46  2  0  0  0
 45118  1  0  0  0
 46119  1  0  0  0
 47120  1  0  0  0
 47121  1  0  0  0
 48 56  1  0  0  0
 48 65  1  0  0  0
 48122  1  0  0  0
 49 50  1  0  0  0
 49 53  1  0  0  0
 49 64  1  0  0  0
 49123  1  0  0  0
 50 51  1  0  0  0
 50124  1  0  0  0
 50125  1  0  0  0
 51 52  1  0  0  0
 51126  1  0  0  0
 51127  1  0  0  0
 52128  1  0  0  0
 52129  1  0  0  0
 53 54  1  0  0  0
 54 55  2  0  0  0
 54130  1  0  0  0
 55 57  1  0  0  0
 55131  1  0  0  0
 56 69  2  0  0  0
 57 58  2  0  0  0
 57132  1  0  0  0
 58133  1  0  0  0
 59 60  1  0  0  0
 59 61  1  0  0  0
 59 62  1  0  0  0
 60134  1  0  0  0
 60135  1  0  0  0
 60136  1  0  0  0
 61137  1  0  0  0
 61138  1  0  0  0
 61139  1  0  0  0
 62140  1  0  0  0
 62141  1  0  0  0
 62142  1  0  0  0
 63 65  1  0  0  0
 63143  1  0  0  0
 63144  1  0  0  0
 63145  1  0  0  0
 64146  1  0  0  0
 65147  1  0  0  0
 68 81  1  0  0  0
 71 73  2  0  0  0
 71 74  1  0  0  0
 71148  1  0  0  0
 72 73  1  0  0  0
 72 76  2  0  0  0
 72149  1  0  0  0
 73 83  1  0  0  0
 74 75  2  0  0  0
 74 82  1  0  0  0
 75 76  1  0  0  0
 75 84  1  0  0  0
 76 88  1  0  0  0
 77 81  1  0  0  0
 77 85  1  0  0  0
 77 87  2  0  0  0
 78 79  1  0  0  0
 78 80  1  0  0  0
 78150  1  0  0  0
 78151  1  0  0  0
 79 81  1  0  0  0
 79152  1  0  0  0
 79153  1  0  0  0
 80 85  1  0  0  0
 80154  1  0  0  0
 80155  1  0  0  0
 81156  1  0  0  0
 82157  1  0  0  0
 82158  1  0  0  0
 82159  1  0  0  0
 83 85  1  0  0  0
 83160  1  0  0  0
 83161  1  0  0  0
 84 86  1  0  0  0
 84162  1  0  0  0
 84163  1  0  0  0
 86164  1  0  0  0
M  ISO  4   1 100  68 101  81 101  86 100
M  END
> <chiral flag>
0

> <version>
0

> <s_m_source_file>
/data/baiqing/PycharmProjects/Reinvent-master-3.2/result/LINK_invent/BTK/process_docking_weight1_custom_product_contain_oxygen_bond_distance_aromatic_linkinvent_7_9_3/rearranged_h_0037.sdf

> <i_m_source_file_index>
7

> <r_mmod_Potential_Energy-OPLS-2005>
62.3841400146484

> <r_mmod_Stretch_Energy-OPLS-2005>
46.148567199707

> <r_mmod_Bend_Energy-OPLS-2005>
115.961807250977

> <r_mmod_Torsional_Energy-OPLS-2005>
283.334503173828

> <r_mmod_Improper_Torsional_Energy-OPLS-2005>
4.87712049484253

> <r_mmod_Van_der_Waal_Energy-OPLS-2005>
181.686584472656

> <r_mmod_Electrostatic_Energy-OPLS-2005>
-358.439727783203

> <r_mmod_Solvation_Energy-OPLS-2005>
-227.746765136719

> <b_mmod_Minimization_Converged-OPLS-2005>
0

> <r_mmod_RMS_Derivative-OPLS-2005>
6.27392196655273

$$$$
7
                    3D
 Structure written by MMmdl.
182191  0  0  1  0            999 V2000
  -29.6442  -14.3583   21.2660 C   0  0  0  0  0  0
  -30.6667  -12.7449   19.4812 C   0  0  0  0  0  0
  -29.9291  -12.1375   18.2192 C   0  0  0  0  0  0
  -28.3957  -12.1497   18.2034 C   0  0  0  0  0  0
  -27.9675  -12.9216   19.3673 C   0  0  2  0  0  0
  -28.7078  -12.3202   20.6095 C   0  0  0  0  0  0
  -26.1283  -14.4892   20.2014 C   0  0  0  0  0  0
  -24.2691  -13.5024   21.3522 C   0  0  0  0  0  0
  -24.4753  -11.9140   20.7311 C   0  0  0  0  0  0
  -23.7970  -10.5829   21.0017 C   0  0  0  0  0  0
  -24.3176   -9.5706   21.8615 C   0  0  0  0  0  0
  -23.6337   -8.3340   22.0531 C   0  0  0  0  0  0
  -22.4307   -8.0743   21.3556 C   0  0  0  0  0  0
  -21.9559   -9.0477   20.4598 C   0  0  0  0  0  0
  -22.6296  -10.2757   20.2843 C   0  0  0  0  0  0
  -21.7125   -6.0838   22.5272 C   0  0  0  0  0  0
  -21.4268   -6.5739   23.8200 C   0  0  0  0  0  0
  -21.3775   -5.6874   24.9165 C   0  0  0  0  0  0
  -21.6054   -4.3117   24.7223 C   0  0  0  0  0  0
  -21.8788   -3.8190   23.4348 C   0  0  0  0  0  0
  -21.9246   -4.7018   22.3402 C   0  0  0  0  0  0
  -22.7605  -13.7125   21.7009 C   0  0  0  0  0  0
  -22.1663   -4.2141   21.0997 F   0  0  0  0  0  0
  -21.5563   -3.4607   25.7750 F   0  0  0  0  0  0
  -29.7913  -13.1570   20.6345 N   0  0  0  0  0  0
  -26.6184  -13.0673   19.4551 N   0  0  0  0  0  0
  -25.7006  -11.7634   19.7772 N   0  0  0  0  0  0
  -22.1830  -12.7637   22.4155 N   0  0  0  0  0  0
  -26.7307  -15.6949   19.8503 N   0  0  0  0  0  0
  -30.6519  -15.0729   20.9630 O   0  0  0  0  0  0
  -21.7107   -6.8978   21.4213 O   0  0  0  0  0  0
  -21.9943  -14.5406   21.2292 O   0  0  0  0  0  0
  -24.6605  -31.8335   23.1928 C   0  0  0  0  0  0
  -25.9368  -32.4551   23.8221 C   0  0  1  0  0  0
  -26.9805  -26.9868   19.9298 C   0  0  0  0  0  0
  -25.6092  -33.8380   24.2087 N   0  0  0  0  0  0
  -23.4396  -30.4882   21.5641 C   0  0  2  0  0  0
  -24.8142  -28.9212   20.0887 C   0  0  0  0  0  0
  -22.7516  -29.4575   22.4922 C   0  0  0  0  0  0
  -18.0300  -28.1356   22.8506 C   0  0  0  0  0  0
  -24.1500  -36.7151   23.2655 C   0  0  0  0  0  0
  -26.0195  -30.6307   21.4147 C   0  0  0  0  0  0
  -26.0319  -29.2545   20.6939 C   0  0  0  0  0  0
  -27.1330  -28.2935   20.6075 C   0  0  0  0  0  0
  -25.7515  -26.8318   19.2879 C   0  0  0  0  0  0
  -24.6859  -27.7242   19.3945 C   0  0  0  0  0  0
  -23.6415  -29.8779   20.1637 C   0  0  0  0  0  0
  -25.4136  -36.2899   24.0295 C   0  0  1  0  0  0
  -20.5915  -28.3704   23.1208 C   0  0  2  0  0  0
  -20.6765  -26.9396   22.5377 C   0  0  0  0  0  0
  -19.5736  -26.6351   21.5198 C   0  0  0  0  0  0
  -18.1935  -26.7897   22.1641 C   0  0  0  0  0  0
  -19.1556  -28.8848   23.2861 C   0  0  0  0  0  0
  -18.9492  -30.1451   23.8873 C   0  0  0  0  0  0
  -17.6494  -30.6570   24.0554 C   0  0  0  0  0  0
  -25.9146  -34.9314   23.4982 C   0  0  0  0  0  0
  -16.5381  -29.9054   23.6350 C   0  0  0  0  0  0
  -16.7295  -28.6465   23.0388 C   0  0  0  0  0  0
  -26.4601  -31.6528   25.0770 C   0  0  0  0  0  0
  -25.3738  -31.3801   26.1436 C   0  0  0  0  0  0
  -27.0469  -30.2870   24.6540 C   0  0  0  0  0  0
  -27.6051  -32.4367   25.7595 C   0  0  0  0  0  0
  -27.5539  -37.1735   24.8464 C   0  0  0  0  0  0
  -21.4230  -29.3062   22.3609 N   0  0  0  0  0  0
  -26.4233  -37.3651   23.9434 N   0  0  0  0  0  0
  -24.7318  -31.0068   22.1066 N   0  0  0  0  0  0
  -23.4140  -28.8100   23.3056 O   0  0  0  0  0  0
  -27.8292  -25.8048   19.7760 O   0  0  0  0  0  0
  -26.5679  -34.8839   22.4532 O   0  0  0  0  0  0
  -23.5758  -32.1309   23.7168 O   0  0  0  0  0  0
  -26.2799  -13.0212   21.7056 C   0  0  0  0  0  0
  -24.4096  -13.7984   19.2536 C   0  0  0  0  0  0
  -23.9322  -15.3427   19.7822 C   0  0  0  0  0  0
  -24.5068  -16.0274   21.2221 C   0  0  0  0  0  0
  -26.7990  -14.3223   22.4445 C   0  0  0  0  0  0
  -25.6832  -15.5613   22.3510 C   0  0  0  0  0  0
  -25.5116  -17.2223   17.2522 C   0  0  0  0  0  0
  -24.4137  -17.5957   16.5673 C   0  0  0  0  0  0
  -28.0630  -17.1871   15.6264 C   0  0  0  0  0  0
  -27.7186  -15.6888   15.5805 C   0  0  0  0  0  0
  -28.0616  -17.8342   17.0461 C   0  0  0  0  0  0
  -26.3313  -15.1964   16.0504 C   0  0  0  0  0  0
  -26.6795  -18.4356   17.3953 C   0  0  2  0  0  0
  -22.7696  -15.9943   19.0225 C   0  0  0  0  0  0
  -24.0068  -17.4616   21.3893 C   0  0  0  0  0  0
  -24.8167  -14.4319   17.7358 C   0  0  0  0  0  0
  -26.8352  -21.2431   18.7552 C   0  0  0  0  0  0
  -27.2435  -24.2717   19.6418 C   0  0  0  0  0  0
  -27.4274  -22.8969   18.5512 C   0  0  1  0  0  0
  -25.7207  -15.7156   17.3125 N   0  0  0  0  0  0
  -28.4105  -14.6710   22.1203 N   0  0  0  0  0  0
  -26.6422  -20.0602   17.6494 N   0  3  0  0  0  0
  -28.8373  -22.7432   18.4421 O   0  0  0  0  0  0
  -26.0248  -16.7865   23.5362 Cl  0  0  0  0  0  0
  -31.2892  -13.5720   19.1385 H   0  0  0  0  0  0
  -31.3883  -12.0382   19.8865 H   0  0  0  0  0  0
  -30.2300  -11.0879   18.2752 H   0  0  0  0  0  0
  -30.3278  -12.4736   17.2590 H   0  0  0  0  0  0
  -27.9901  -11.1330   18.2557 H   0  0  0  0  0  0
  -28.0551  -12.6324   17.2861 H   0  0  0  0  0  0
  -28.2975  -13.9277   19.1010 H   0  0  0  0  0  0
  -29.0168  -11.2932   20.4167 H   0  0  0  0  0  0
  -28.4106  -12.1936   21.6343 H   0  0  0  0  0  0
  -25.2398   -9.7440   22.3944 H   0  0  0  0  0  0
  -24.0426   -7.5917   22.7198 H   0  0  0  0  0  0
  -21.0594   -8.8554   19.8881 H   0  0  0  0  0  0
  -22.2219  -11.0067   19.6007 H   0  0  0  0  0  0
  -21.2450   -7.6277   23.9732 H   0  0  0  0  0  0
  -21.1601   -6.0629   25.9066 H   0  0  0  0  0  0
  -22.0423   -2.7621   23.2894 H   0  0  0  0  0  0
  -22.7199  -12.0060   22.8013 H   0  0  0  0  0  0
  -21.1953  -12.8325   22.6043 H   0  0  0  0  0  0
  -26.1452  -16.0729   19.1049 H   0  0  0  0  0  0
  -27.6146  -15.5506   19.3907 H   0  0  0  0  0  0
  -26.7386  -32.4926   23.0868 H   0  0  0  0  0  0
  -25.0208  -33.9466   25.0218 H   0  0  0  0  0  0
  -22.7559  -31.3320   21.4444 H   0  0  0  0  0  0
  -23.3768  -35.9460   23.3213 H   0  0  0  0  0  0
  -24.3620  -36.8907   22.2096 H   0  0  0  0  0  0
  -23.7254  -37.6302   23.6796 H   0  0  0  0  0  0
  -26.2371  -31.4110   20.6836 H   0  0  0  0  0  0
  -26.8672  -30.6092   22.0873 H   0  0  0  0  0  0
  -28.0669  -28.5256   21.0927 H   0  0  0  0  0  0
  -25.5467  -25.9898   18.6472 H   0  0  0  0  0  0
  -23.7497  -27.4953   18.8999 H   0  0  0  0  0  0
  -23.8266  -30.6819   19.4456 H   0  0  0  0  0  0
  -22.7189  -29.3968   19.8313 H   0  0  0  0  0  0
  -25.1337  -36.1622   25.0773 H   0  0  0  0  0  0
  -21.0033  -28.3299   24.1330 H   0  0  0  0  0  0
  -20.5598  -26.2353   23.3626 H   0  0  0  0  0  0
  -21.6639  -26.7355   22.1225 H   0  0  0  0  0  0
  -19.6870  -25.6250   21.1268 H   0  0  0  0  0  0
  -19.6639  -27.3128   20.6705 H   0  0  0  0  0  0
  -17.4180  -26.6669   21.4062 H   0  0  0  0  0  0
  -18.0342  -26.0005   22.9010 H   0  0  0  0  0  0
  -19.7977  -30.7265   24.2221 H   0  0  0  0  0  0
  -17.5058  -31.6263   24.5119 H   0  0  0  0  0  0
  -15.5376  -30.2947   23.7662 H   0  0  0  0  0  0
  -15.8718  -28.0753   22.7122 H   0  0  0  0  0  0
  -24.5950  -30.7077   25.7807 H   0  0  0  0  0  0
  -24.8893  -32.3025   26.4659 H   0  0  0  0  0  0
  -25.8008  -30.9136   27.0329 H   0  0  0  0  0  0
  -26.3089  -29.6516   24.1612 H   0  0  0  0  0  0
  -27.4021  -29.7267   25.5207 H   0  0  0  0  0  0
  -27.9058  -30.3982   23.9903 H   0  0  0  0  0  0
  -27.2540  -33.3710   26.1982 H   0  0  0  0  0  0
  -28.3982  -32.6862   25.0536 H   0  0  0  0  0  0
  -28.0567  -31.8623   26.5696 H   0  0  0  0  0  0
  -28.2471  -38.0099   24.7503 H   0  0  0  0  0  0
  -28.1106  -36.2616   24.6253 H   0  0  0  0  0  0
  -27.2280  -37.1332   25.8869 H   0  0  0  0  0  0
  -20.9389  -29.8894   21.6928 H   0  0  0  0  0  0
  -26.0026  -38.2664   24.1485 H   0  0  0  0  0  0
  -26.4946  -12.0295   22.0911 H   0  0  0  0  0  0
  -24.2148  -18.6269   16.3168 H   0  0  0  0  0  0
  -23.7068  -16.8695   16.1877 H   0  0  0  0  0  0
  -27.4348  -17.6974   14.8903 H   0  0  0  0  0  0
  -29.0674  -17.3082   15.2181 H   0  0  0  0  0  0
  -28.4948  -15.1065   16.0693 H   0  0  0  0  0  0
  -27.8075  -15.3838   14.5309 H   0  0  0  0  0  0
  -28.8400  -18.6009   17.0586 H   0  0  0  0  0  0
  -28.3210  -17.0687   17.7865 H   0  0  0  0  0  0
  -26.5016  -14.1189   16.0859 H   0  0  0  0  0  0
  -25.6094  -15.3150   15.2460 H   0  0  0  0  0  0
  -26.4636  -18.7688   16.3781 H   0  0  0  0  0  0
  -22.1772  -15.2319   18.5120 H   0  0  0  0  0  0
  -23.0646  -16.7188   18.2932 H   0  0  0  0  0  0
  -22.0868  -16.5138   19.6891 H   0  0  0  0  0  0
  -23.6270  -17.8893   20.4626 H   0  0  0  0  0  0
  -24.8399  -18.1147   21.6275 H   0  0  0  0  0  0
  -23.2348  -17.5479   22.1550 H   0  0  0  0  0  0
  -23.8890  -14.5323   17.1661 H   0  0  0  0  0  0
  -25.2168  -13.5161   17.2908 H   0  0  0  0  0  0
  -25.8191  -21.3493   19.1375 H   0  0  0  0  0  0
  -27.4207  -20.7883   19.5595 H   0  0  0  0  0  0
  -26.1617  -24.3483   19.6707 H   0  0  0  0  0  0
  -27.4427  -23.8473   20.6258 H   0  0  0  0  0  0
  -27.0646  -23.2434   17.5870 H   0  0  0  0  0  0
  -28.6097  -15.5950   22.4680 H   0  0  0  0  0  0
  -27.6139  -20.1235   17.3838 H   0  0  0  0  0  0
  -26.4085  -19.6470   18.5345 H   0  0  0  0  0  0
  -29.0411  -22.1059   17.7651 H   0  0  0  0  0  0
  1 25  1  0  0  0
  1 30  2  0  0  0
  1 91  1  0  0  0
  2  3  1  0  0  0
  2 25  1  0  0  0
  2 95  1  0  0  0
  2 96  1  0  0  0
  3  4  1  0  0  0
  3 97  1  0  0  0
  3 98  1  0  0  0
  4  5  1  0  0  0
  4 99  1  0  0  0
  4100  1  0  0  0
  5  6  1  0  0  0
  5 26  1  0  0  0
  5101  1  0  0  0
  6 25  1  0  0  0
  6102  1  0  0  0
  6103  1  0  0  0
  7  8  2  0  0  0
  7 26  1  0  0  0
  7 29  1  0  0  0
  8  9  1  0  0  0
  8 22  1  0  0  0
  9 10  1  0  0  0
  9 27  2  0  0  0
 10 11  2  0  0  0
 10 15  1  0  0  0
 11 12  1  0  0  0
 11104  1  0  0  0
 12 13  2  0  0  0
 12105  1  0  0  0
 13 14  1  0  0  0
 13 31  1  0  0  0
 14 15  2  0  0  0
 14106  1  0  0  0
 15107  1  0  0  0
 16 17  2  0  0  0
 16 21  1  0  0  0
 16 31  1  0  0  0
 17 18  1  0  0  0
 17108  1  0  0  0
 18 19  2  0  0  0
 18109  1  0  0  0
 19 20  1  0  0  0
 19 24  1  0  0  0
 20 21  2  0  0  0
 20110  1  0  0  0
 21 23  1  0  0  0
 22 28  1  0  0  0
 22 32  2  0  0  0
 26 27  1  0  0  0
 28111  1  0  0  0
 28112  1  0  0  0
 29113  1  0  0  0
 29114  1  0  0  0
 33 34  1  0  0  0
 33 66  1  0  0  0
 33 70  2  0  0  0
 34 36  1  0  0  0
 34 59  1  0  0  0
 34115  1  0  0  0
 35 44  2  0  0  0
 35 45  1  0  0  0
 35 68  1  0  0  0
 36 56  1  0  0  0
 36116  1  0  0  0
 37 39  1  0  0  0
 37 47  1  0  0  0
 37 66  1  0  0  0
 37117  1  0  0  0
 38 43  2  0  0  0
 38 46  1  0  0  0
 38 47  1  0  0  0
 39 64  1  0  0  0
 39 67  2  0  0  0
 40 52  1  0  0  0
 40 53  2  0  0  0
 40 58  1  0  0  0
 41118  1  0  0  0
 41119  1  0  0  0
 41120  1  0  0  0
 41 48  1  0  0  0
 42 43  1  0  0  0
 42 66  1  0  0  0
 42121  1  0  0  0
 42122  1  0  0  0
 43 44  1  0  0  0
 44123  1  0  0  0
 45 46  2  0  0  0
 45124  1  0  0  0
 46125  1  0  0  0
 47126  1  0  0  0
 47127  1  0  0  0
 48 56  1  0  0  0
 48 65  1  0  0  0
 48128  1  0  0  0
 49 50  1  0  0  0
 49 53  1  0  0  0
 49 64  1  0  0  0
 49129  1  0  0  0
 50 51  1  0  0  0
 50130  1  0  0  0
 50131  1  0  0  0
 51 52  1  0  0  0
 51132  1  0  0  0
 51133  1  0  0  0
 52134  1  0  0  0
 52135  1  0  0  0
 53 54  1  0  0  0
 54 55  2  0  0  0
 54136  1  0  0  0
 55 57  1  0  0  0
 55137  1  0  0  0
 56 69  2  0  0  0
 57 58  2  0  0  0
 57138  1  0  0  0
 58139  1  0  0  0
 59 60  1  0  0  0
 59 61  1  0  0  0
 59 62  1  0  0  0
 60140  1  0  0  0
 60141  1  0  0  0
 60142  1  0  0  0
 61143  1  0  0  0
 61144  1  0  0  0
 61145  1  0  0  0
 62146  1  0  0  0
 62147  1  0  0  0
 62148  1  0  0  0
 63 65  1  0  0  0
 63149  1  0  0  0
 63150  1  0  0  0
 63151  1  0  0  0
 64152  1  0  0  0
 65153  1  0  0  0
 68 88  1  0  0  0
 71 72  2  0  0  0
 71 75  1  0  0  0
 71154  1  0  0  0
 72 73  1  0  0  0
 72 86  1  0  0  0
 73 74  2  0  0  0
 73 84  1  0  0  0
 74 76  1  0  0  0
 74 85  1  0  0  0
 75 76  2  0  0  0
 75 91  1  0  0  0
 76 94  1  0  0  0
 77 78  2  0  0  0
 77 83  1  0  0  0
 77 90  1  0  0  0
 78155  1  0  0  0
 78156  1  0  0  0
 79 80  1  0  0  0
 79 81  1  0  0  0
 79157  1  0  0  0
 79158  1  0  0  0
 80 82  1  0  0  0
 80159  1  0  0  0
 80160  1  0  0  0
 81 83  1  0  0  0
 81161  1  0  0  0
 81162  1  0  0  0
 82 90  1  0  0  0
 82163  1  0  0  0
 82164  1  0  0  0
 83 92  1  0  0  0
 83165  1  0  0  0
 84166  1  0  0  0
 84167  1  0  0  0
 84168  1  0  0  0
 85169  1  0  0  0
 85170  1  0  0  0
 85171  1  0  0  0
 86 90  1  0  0  0
 86172  1  0  0  0
 86173  1  0  0  0
 87 89  1  0  0  0
 87 92  1  0  0  0
 87174  1  0  0  0
 87175  1  0  0  0
 88 89  1  0  0  0
 88176  1  0  0  0
 88177  1  0  0  0
 89 93  1  0  0  0
 89178  1  0  0  0
 91179  1  0  0  0
 92180  1  0  0  0
 92181  1  0  0  0
 93182  1  0  0  0
M  CHG  1  92   1
M  ISO  4   1 100  68 101  88 101  91 100
M  END
> <chiral flag>
0

> <version>
0

> <s_m_source_file>
/data/baiqing/PycharmProjects/Reinvent-master-3.2/result/LINK_invent/BTK/process_docking_weight1_custom_product_contain_oxygen_bond_distance_aromatic_linkinvent_7_9_3/rearranged_h_0037.sdf

> <i_m_source_file_index>
8

> <r_mmod_Potential_Energy-OPLS-2005>
17865.283203125

> <r_mmod_Stretch_Energy-OPLS-2005>
10731.6748046875

> <r_mmod_Bend_Energy-OPLS-2005>
1304.48132324219

> <r_mmod_Torsional_Energy-OPLS-2005>
712.83935546875

> <r_mmod_Improper_Torsional_Energy-OPLS-2005>
108.063278198242

> <r_mmod_Van_der_Waal_Energy-OPLS-2005>
4330.56787109375

> <r_mmod_Electrostatic_Energy-OPLS-2005>
-361.907043457031

> <r_mmod_Solvation_Energy-OPLS-2005>
-485.713043212891

> <b_mmod_Minimization_Converged-OPLS-2005>
0

> <r_mmod_RMS_Derivative-OPLS-2005>
35.520881652832

$$$$
8
                    3D
 Structure written by MMmdl.
170179  0  0  1  0            999 V2000
  -30.5732  -14.6436   20.4673 C   0  0  0  0  0  0
  -30.4350  -12.3855   19.4529 C   0  0  0  0  0  0
  -29.5108  -12.5145   18.2214 C   0  0  0  0  0  0
  -28.0289  -12.3556   18.6183 C   0  0  0  0  0  0
  -27.6490  -13.2102   19.8571 C   0  0  2  0  0  0
  -28.6892  -13.0473   20.9878 C   0  0  0  0  0  0
  -25.2560  -13.8157   20.5660 C   0  0  0  0  0  0
  -24.1825  -13.0432   20.9160 C   0  0  0  0  0  0
  -24.6377  -11.6893   20.8699 C   0  0  0  0  0  0
  -23.9051  -10.4275   21.0396 C   0  0  0  0  0  0
  -24.3604   -9.4199   21.9184 C   0  0  0  0  0  0
  -23.6277   -8.2243   22.0762 C   0  0  0  0  0  0
  -22.4267   -8.0283   21.3544 C   0  0  0  0  0  0
  -21.9877   -9.0268   20.4650 C   0  0  0  0  0  0
  -22.7224  -10.2134   20.3061 C   0  0  0  0  0  0
  -21.6857   -6.0742   22.5275 C   0  0  0  0  0  0
  -21.4024   -6.5640   23.8216 C   0  0  0  0  0  0
  -21.3654   -5.6795   24.9166 C   0  0  0  0  0  0
  -21.6045   -4.3058   24.7226 C   0  0  0  0  0  0
  -21.8821   -3.8147   23.4340 C   0  0  0  0  0  0
  -21.9197   -4.6967   22.3397 C   0  0  0  0  0  0
  -22.7860  -13.5261   21.1843 C   0  0  0  0  0  0
  -22.1669   -4.2151   21.0964 F   0  0  0  0  0  0
  -21.5597   -3.4540   25.7738 F   0  0  0  0  0  0
  -30.0034  -13.3993   20.4334 N   0  0  0  0  0  0
  -26.2957  -12.9318   20.3234 N   0  0  0  0  0  0
  -25.9297  -11.6475   20.5685 N   0  0  0  0  0  0
  -22.0491  -12.8274   22.0394 N   0  0  0  0  0  0
  -25.4251  -15.1896   20.4140 N   0  0  0  0  0  0
  -31.7482  -14.8136   20.1338 O   0  0  0  0  0  0
  -21.6629   -6.8885   21.4243 O   0  0  0  0  0  0
  -22.3558  -14.5574   20.6708 O   0  0  0  0  0  0
  -24.6251  -31.8598   23.2011 C   0  0  0  0  0  0
  -25.9096  -32.4779   23.8342 C   0  0  1  0  0  0
  -27.2340  -27.3441   20.1142 C   0  0  0  0  0  0
  -25.5909  -33.8575   24.2276 N   0  0  0  0  0  0
  -23.4185  -30.4787   21.5453 C   0  0  2  0  0  0
  -24.8654  -28.9272   20.1206 C   0  0  0  0  0  0
  -22.7464  -29.4611   22.4971 C   0  0  0  0  0  0
  -18.0284  -28.1397   22.8487 C   0  0  0  0  0  0
  -24.1492  -36.7289   23.2638 C   0  0  0  0  0  0
  -25.9554  -30.7996   21.3656 C   0  0  0  0  0  0
  -26.0329  -29.4255   20.7132 C   0  0  0  0  0  0
  -27.2241  -28.6467   20.6930 C   0  0  0  0  0  0
  -26.0436  -26.8745   19.5250 C   0  0  0  0  0  0
  -24.8703  -27.6541   19.5218 C   0  0  0  0  0  0
  -23.6332  -29.8065   20.1636 C   0  0  0  0  0  0
  -25.4110  -36.3078   24.0331 C   0  0  1  0  0  0
  -20.5881  -28.3682   23.1304 C   0  0  2  0  0  0
  -20.6779  -26.9407   22.5419 C   0  0  0  0  0  0
  -19.5750  -26.6401   21.5219 C   0  0  0  0  0  0
  -18.1927  -26.7948   22.1624 C   0  0  0  0  0  0
  -19.1536  -28.8853   23.2894 C   0  0  0  0  0  0
  -18.9460  -30.1461   23.8914 C   0  0  0  0  0  0
  -17.6458  -30.6583   24.0585 C   0  0  0  0  0  0
  -25.9041  -34.9448   23.5102 C   0  0  0  0  0  0
  -16.5353  -29.9090   23.6337 C   0  0  0  0  0  0
  -16.7272  -28.6519   23.0337 C   0  0  0  0  0  0
  -26.4486  -31.6590   25.0709 C   0  0  0  0  0  0
  -25.3719  -31.3750   26.1442 C   0  0  0  0  0  0
  -27.0316  -30.3010   24.6154 C   0  0  0  0  0  0
  -27.6071  -32.4307   25.7454 C   0  0  0  0  0  0
  -27.5577  -37.1805   24.8461 C   0  0  0  0  0  0
  -21.4181  -29.3030   22.3701 N   0  0  0  0  0  0
  -26.4293  -37.3763   23.9397 N   0  0  0  0  0  0
  -24.6852  -31.0614   22.0956 N   0  0  0  0  0  0
  -23.4187  -28.8163   23.3054 O   0  0  0  0  0  0
  -28.3882  -26.5623   20.0654 O   0  0  0  0  0  0
  -26.5622  -34.8913   22.4676 O   0  0  0  0  0  0
  -23.5415  -32.1391   23.7340 O   0  0  0  0  0  0
  -29.9029  -19.1495   19.0552 C   0  0  0  0  0  0
  -28.6204  -17.8500   21.1325 C   0  0  0  0  0  0
  -28.9452  -19.9111   19.7829 C   0  0  0  0  0  0
  -30.1893  -17.7721   19.3114 C   0  0  0  0  0  0
  -28.2824  -19.2080   20.8309 C   0  0  0  0  0  0
  -29.5727  -17.0848   20.4006 C   0  0  0  0  0  0
  -28.4211  -24.0380   19.4600 C   0  0  0  0  0  0
  -28.3193  -24.3348   18.1424 C   0  0  0  0  0  0
  -29.9233  -23.6690   21.9647 C   0  0  0  0  0  0
  -29.6215  -25.0854   21.4466 C   0  0  0  0  0  0
  -30.0090  -22.6526   20.8163 C   0  0  0  0  0  0
  -28.3715  -25.1672   20.5461 C   0  0  1  0  0  0
  -31.0857  -17.0619   18.3152 C   0  0  0  0  0  0
  -27.1530  -19.8560   21.6193 C   0  0  0  0  0  0
  -28.4252  -23.4412   16.9224 C   0  0  0  0  0  0
  -28.5589  -21.3572   19.2554 C   0  0  0  0  0  0
  -29.6997  -15.6640   20.7586 N   0  0  0  0  0  0
  -28.7286  -22.6271   20.0775 N   0  3  2  0  0  0
  -31.4786  -12.5113   19.1628 H   0  0  0  0  0  0
  -30.3619  -11.3875   19.8859 H   0  0  0  0  0  0
  -29.7736  -11.7704   17.4688 H   0  0  0  0  0  0
  -29.6642  -13.4899   17.7533 H   0  0  0  0  0  0
  -27.8516  -11.2996   18.8274 H   0  0  0  0  0  0
  -27.3885  -12.6127   17.7725 H   0  0  0  0  0  0
  -27.6670  -14.2469   19.5221 H   0  0  0  0  0  0
  -28.7005  -12.0196   21.3522 H   0  0  0  0  0  0
  -28.4289  -13.6620   21.8511 H   0  0  0  0  0  0
  -25.2757   -9.5684   22.4752 H   0  0  0  0  0  0
  -23.9994   -7.4641   22.7497 H   0  0  0  0  0  0
  -21.0797   -8.8821   19.8965 H   0  0  0  0  0  0
  -22.3707  -10.9690   19.6167 H   0  0  0  0  0  0
  -21.2036   -7.6164   23.9733 H   0  0  0  0  0  0
  -21.1453   -6.0510   25.9071 H   0  0  0  0  0  0
  -22.0593   -2.7614   23.2859 H   0  0  0  0  0  0
  -22.4097  -11.9931   22.4784 H   0  0  0  0  0  0
  -21.1124  -13.1341   22.2599 H   0  0  0  0  0  0
  -24.6491  -15.8338   20.5286 H   0  0  0  0  0  0
  -26.2690  -15.6397   20.0834 H   0  0  0  0  0  0
  -26.7183  -32.5465   23.1113 H   0  0  0  0  0  0
  -25.0059  -33.9712   25.0428 H   0  0  0  0  0  0
  -22.7106  -31.2970   21.3998 H   0  0  0  0  0  0
  -23.3729  -35.9648   23.3340 H   0  0  0  0  0  0
  -24.3582  -36.8860   22.2044 H   0  0  0  0  0  0
  -23.7277  -37.6517   23.6631 H   0  0  0  0  0  0
  -26.0790  -31.5632   20.5963 H   0  0  0  0  0  0
  -26.8388  -30.8522   21.9907 H   0  0  0  0  0  0
  -28.1310  -29.0328   21.1379 H   0  0  0  0  0  0
  -26.0203  -25.9009   19.0564 H   0  0  0  0  0  0
  -23.9735  -27.2623   19.0612 H   0  0  0  0  0  0
  -23.7519  -30.5813   19.4044 H   0  0  0  0  0  0
  -22.7536  -29.2344   19.8643 H   0  0  0  0  0  0
  -25.1290  -36.1939   25.0822 H   0  0  0  0  0  0
  -20.9964  -28.3264   24.1428 H   0  0  0  0  0  0
  -20.5679  -26.2284   23.3606 H   0  0  0  0  0  0
  -21.6656  -26.7435   22.1219 H   0  0  0  0  0  0
  -19.6906  -25.6318   21.1234 H   0  0  0  0  0  0
  -19.6690  -27.3231   20.6765 H   0  0  0  0  0  0
  -17.4188  -26.6689   21.4031 H   0  0  0  0  0  0
  -18.0313  -26.0092   22.9017 H   0  0  0  0  0  0
  -19.7926  -30.7283   24.2287 H   0  0  0  0  0  0
  -17.4997  -31.6258   24.5201 H   0  0  0  0  0  0
  -15.5345  -30.2987   23.7648 H   0  0  0  0  0  0
  -15.8682  -28.0845   22.7026 H   0  0  0  0  0  0
  -24.5888  -30.7097   25.7789 H   0  0  0  0  0  0
  -24.8915  -32.2929   26.4844 H   0  0  0  0  0  0
  -25.8028  -30.8948   27.0236 H   0  0  0  0  0  0
  -26.2891  -29.6760   24.1184 H   0  0  0  0  0  0
  -27.4030  -29.7258   25.4646 H   0  0  0  0  0  0
  -27.8748  -30.4292   23.9364 H   0  0  0  0  0  0
  -27.2719  -33.3614   26.2041 H   0  0  0  0  0  0
  -28.3862  -32.6851   25.0256 H   0  0  0  0  0  0
  -28.0768  -31.8430   26.5351 H   0  0  0  0  0  0
  -28.2622  -38.0073   24.7453 H   0  0  0  0  0  0
  -28.1044  -36.2603   24.6342 H   0  0  0  0  0  0
  -27.2296  -37.1521   25.8866 H   0  0  0  0  0  0
  -20.9354  -29.8721   21.6894 H   0  0  0  0  0  0
  -26.0178  -38.2844   24.1365 H   0  0  0  0  0  0
  -30.3846  -19.6138   18.2062 H   0  0  0  0  0  0
  -28.0848  -17.3588   21.9335 H   0  0  0  0  0  0
  -28.1758  -25.3754   17.8875 H   0  0  0  0  0  0
  -29.1570  -23.3628   22.6780 H   0  0  0  0  0  0
  -30.8678  -23.6753   22.5096 H   0  0  0  0  0  0
  -30.4848  -25.4355   20.8783 H   0  0  0  0  0  0
  -29.5206  -25.7696   22.2889 H   0  0  0  0  0  0
  -30.2518  -21.6704   21.2239 H   0  0  0  0  0  0
  -30.8147  -22.9119   20.1277 H   0  0  0  0  0  0
  -27.4831  -24.9961   21.1558 H   0  0  0  0  0  0
  -31.1922  -17.6344   17.3935 H   0  0  0  0  0  0
  -30.6594  -16.0992   18.0336 H   0  0  0  0  0  0
  -32.0814  -16.9090   18.7287 H   0  0  0  0  0  0
  -26.6410  -19.1269   22.2490 H   0  0  0  0  0  0
  -26.3984  -20.2760   20.9543 H   0  0  0  0  0  0
  -27.5240  -20.6443   22.2731 H   0  0  0  0  0  0
  -29.4465  -23.0870   16.7798 H   0  0  0  0  0  0
  -28.1595  -24.0181   16.0361 H   0  0  0  0  0  0
  -27.7379  -22.5988   16.9697 H   0  0  0  0  0  0
  -27.5296  -21.3172   18.8962 H   0  0  0  0  0  0
  -29.1807  -21.4890   18.3752 H   0  0  0  0  0  0
  -28.8753  -15.2996   21.2077 H   0  0  0  0  0  0
  -28.0445  -22.4945   20.8048 H   0  0  0  0  0  0
  1 25  1  0  0  0
  1 30  2  0  0  0
  1 87  1  0  0  0
  2  3  1  0  0  0
  2 25  1  0  0  0
  2 89  1  0  0  0
  2 90  1  0  0  0
  3  4  1  0  0  0
  3 91  1  0  0  0
  3 92  1  0  0  0
  4  5  1  0  0  0
  4 93  1  0  0  0
  4 94  1  0  0  0
  5  6  1  0  0  0
  5 26  1  0  0  0
  5 95  1  0  0  0
  6 25  1  0  0  0
  6 96  1  0  0  0
  6 97  1  0  0  0
  7  8  2  0  0  0
  7 26  1  0  0  0
  7 29  1  0  0  0
  8  9  1  0  0  0
  8 22  1  0  0  0
  9 10  1  0  0  0
  9 27  2  0  0  0
 10 11  2  0  0  0
 10 15  1  0  0  0
 11 12  1  0  0  0
 11 98  1  0  0  0
 12 13  2  0  0  0
 12 99  1  0  0  0
 13 14  1  0  0  0
 13 31  1  0  0  0
 14 15  2  0  0  0
 14100  1  0  0  0
 15101  1  0  0  0
 16 17  2  0  0  0
 16 21  1  0  0  0
 16 31  1  0  0  0
 17 18  1  0  0  0
 17102  1  0  0  0
 18 19  2  0  0  0
 18103  1  0  0  0
 19 20  1  0  0  0
 19 24  1  0  0  0
 20 21  2  0  0  0
 20104  1  0  0  0
 21 23  1  0  0  0
 22 28  1  0  0  0
 22 32  2  0  0  0
 26 27  1  0  0  0
 28105  1  0  0  0
 28106  1  0  0  0
 29107  1  0  0  0
 29108  1  0  0  0
 33 34  1  0  0  0
 33 66  1  0  0  0
 33 70  2  0  0  0
 34 36  1  0  0  0
 34 59  1  0  0  0
 34109  1  0  0  0
 35 44  2  0  0  0
 35 45  1  0  0  0
 35 68  1  0  0  0
 36 56  1  0  0  0
 36110  1  0  0  0
 37 39  1  0  0  0
 37 47  1  0  0  0
 37 66  1  0  0  0
 37111  1  0  0  0
 38 43  2  0  0  0
 38 46  1  0  0  0
 38 47  1  0  0  0
 39 64  1  0  0  0
 39 67  2  0  0  0
 40 52  1  0  0  0
 40 53  2  0  0  0
 40 58  1  0  0  0
 41112  1  0  0  0
 41113  1  0  0  0
 41114  1  0  0  0
 41 48  1  0  0  0
 42 43  1  0  0  0
 42 66  1  0  0  0
 42115  1  0  0  0
 42116  1  0  0  0
 43 44  1  0  0  0
 44117  1  0  0  0
 45 46  2  0  0  0
 45118  1  0  0  0
 46119  1  0  0  0
 47120  1  0  0  0
 47121  1  0  0  0
 48 56  1  0  0  0
 48 65  1  0  0  0
 48122  1  0  0  0
 49 50  1  0  0  0
 49 53  1  0  0  0
 49 64  1  0  0  0
 49123  1  0  0  0
 50 51  1  0  0  0
 50124  1  0  0  0
 50125  1  0  0  0
 51 52  1  0  0  0
 51126  1  0  0  0
 51127  1  0  0  0
 52128  1  0  0  0
 52129  1  0  0  0
 53 54  1  0  0  0
 54 55  2  0  0  0
 54130  1  0  0  0
 55 57  1  0  0  0
 55131  1  0  0  0
 56 69  2  0  0  0
 57 58  2  0  0  0
 57132  1  0  0  0
 58133  1  0  0  0
 59 60  1  0  0  0
 59 61  1  0  0  0
 59 62  1  0  0  0
 60134  1  0  0  0
 60135  1  0  0  0
 60136  1  0  0  0
 61137  1  0  0  0
 61138  1  0  0  0
 61139  1  0  0  0
 62140  1  0  0  0
 62141  1  0  0  0
 62142  1  0  0  0
 63 65  1  0  0  0
 63143  1  0  0  0
 63144  1  0  0  0
 63145  1  0  0  0
 64146  1  0  0  0
 65147  1  0  0  0
 68 82  1  0  0  0
 71 73  2  0  0  0
 71 74  1  0  0  0
 71148  1  0  0  0
 72 75  2  0  0  0
 72 76  1  0  0  0
 72149  1  0  0  0
 73 75  1  0  0  0
 73 86  1  0  0  0
 74 76  2  0  0  0
 74 83  1  0  0  0
 75 84  1  0  0  0
 76 87  1  0  0  0
 77 78  2  0  0  0
 77 82  1  0  0  0
 77 88  1  0  0  0
 78 85  1  0  0  0
 78150  1  0  0  0
 79 80  1  0  0  0
 79 81  1  0  0  0
 79151  1  0  0  0
 79152  1  0  0  0
 80 82  1  0  0  0
 80153  1  0  0  0
 80154  1  0  0  0
 81 88  1  0  0  0
 81155  1  0  0  0
 81156  1  0  0  0
 82157  1  0  0  0
 83158  1  0  0  0
 83159  1  0  0  0
 83160  1  0  0  0
 84161  1  0  0  0
 84162  1  0  0  0
 84163  1  0  0  0
 85164  1  0  0  0
 85165  1  0  0  0
 85166  1  0  0  0
 86167  1  0  0  0
 86168  1  0  0  0
 86 88  1  0  0  0
 87169  1  0  0  0
 88170  1  0  0  0
M  CHG  1  88   1
M  ISO  4   1 100  68 101  82 101  87 100
M  END
> <chiral flag>
0

> <version>
0

> <s_m_source_file>
/data/baiqing/PycharmProjects/Reinvent-master-3.2/result/LINK_invent/BTK/process_docking_weight1_custom_product_contain_oxygen_bond_distance_aromatic_linkinvent_7_9_3/rearranged_h_0037.sdf

> <i_m_source_file_index>
9

> <r_mmod_Potential_Energy-OPLS-2005>
-1.83484518527985

> <r_mmod_Stretch_Energy-OPLS-2005>
87.5905456542969

> <r_mmod_Bend_Energy-OPLS-2005>
181.217025756836

> <r_mmod_Torsional_Energy-OPLS-2005>
255.250869750977

> <r_mmod_Improper_Torsional_Energy-OPLS-2005>
5.77843427658081

> <r_mmod_Van_der_Waal_Energy-OPLS-2005>
144.304534912109

> <r_mmod_Electrostatic_Energy-OPLS-2005>
-299.07666015625

> <r_mmod_Solvation_Energy-OPLS-2005>
-419.772644042969

> <b_mmod_Minimization_Converged-OPLS-2005>
0

> <r_mmod_RMS_Derivative-OPLS-2005>
3.48873400688171

$$$$
9
                    3D
 Structure written by MMmdl.
160169  0  0  1  0            999 V2000
  -30.6905  -14.6253   20.4737 C   0  0  0  0  0  0
  -30.4147  -12.3827   19.4609 C   0  0  0  0  0  0
  -29.4981  -12.4929   18.2254 C   0  0  0  0  0  0
  -28.0224  -12.3428   18.6388 C   0  0  0  0  0  0
  -27.6455  -13.2307   19.8556 C   0  0  2  0  0  0
  -28.6921  -13.1404   20.9887 C   0  0  0  0  0  0
  -25.2520  -13.8207   20.5702 C   0  0  0  0  0  0
  -24.1807  -13.0451   20.9207 C   0  0  0  0  0  0
  -24.6397  -11.6929   20.8752 C   0  0  0  0  0  0
  -23.9076  -10.4303   21.0408 C   0  0  0  0  0  0
  -24.3625   -9.4215   21.9182 C   0  0  0  0  0  0
  -23.6298   -8.2251   22.0752 C   0  0  0  0  0  0
  -22.4282   -8.0286   21.3542 C   0  0  0  0  0  0
  -21.9920   -9.0261   20.4644 C   0  0  0  0  0  0
  -22.7249  -10.2140   20.3056 C   0  0  0  0  0  0
  -21.6856   -6.0739   22.5279 C   0  0  0  0  0  0
  -21.4014   -6.5640   23.8211 C   0  0  0  0  0  0
  -21.3659   -5.6794   24.9170 C   0  0  0  0  0  0
  -21.6047   -4.3059   24.7223 C   0  0  0  0  0  0
  -21.8819   -3.8150   23.4344 C   0  0  0  0  0  0
  -21.9192   -4.6967   22.3401 C   0  0  0  0  0  0
  -22.7826  -13.5227   21.1863 C   0  0  0  0  0  0
  -22.1662   -4.2153   21.0980 F   0  0  0  0  0  0
  -21.5628   -3.4544   25.7734 F   0  0  0  0  0  0
  -30.0038  -13.4424   20.4052 N   0  0  0  0  0  0
  -26.2958  -12.9418   20.3322 N   0  0  0  0  0  0
  -25.9329  -11.6559   20.5777 N   0  0  0  0  0  0
  -22.0479  -12.8208   22.0419 N   0  0  0  0  0  0
  -25.4211  -15.1931   20.4113 N   0  0  0  0  0  0
  -31.8761  -14.6790   20.1407 O   0  0  0  0  0  0
  -21.6645   -6.8883   21.4240 O   0  0  0  0  0  0
  -22.3505  -14.5530   20.6713 O   0  0  0  0  0  0
  -24.6255  -31.8617   23.2062 C   0  0  0  0  0  0
  -25.9112  -32.4786   23.8374 C   0  0  1  0  0  0
  -27.2071  -27.3178   20.1142 C   0  0  0  0  0  0
  -25.5939  -33.8588   24.2289 N   0  0  0  0  0  0
  -23.4182  -30.4888   21.5488 C   0  0  2  0  0  0
  -24.8619  -28.9521   20.1095 C   0  0  0  0  0  0
  -22.7473  -29.4629   22.4935 C   0  0  0  0  0  0
  -18.0285  -28.1382   22.8480 C   0  0  0  0  0  0
  -24.1493  -36.7297   23.2637 C   0  0  0  0  0  0
  -25.9614  -30.7901   21.3819 C   0  0  0  0  0  0
  -26.0323  -29.4195   20.7217 C   0  0  0  0  0  0
  -27.2093  -28.6120   20.7199 C   0  0  0  0  0  0
  -26.0237  -26.9256   19.4466 C   0  0  0  0  0  0
  -24.8593  -27.7104   19.4623 C   0  0  0  0  0  0
  -23.6323  -29.8331   20.1610 C   0  0  0  0  0  0
  -25.4118  -36.3085   24.0324 C   0  0  1  0  0  0
  -20.5883  -28.3679   23.1281 C   0  0  2  0  0  0
  -20.6775  -26.9403   22.5408 C   0  0  0  0  0  0
  -19.5754  -26.6380   21.5208 C   0  0  0  0  0  0
  -18.1928  -26.7924   22.1621 C   0  0  0  0  0  0
  -19.1538  -28.8850   23.2875 C   0  0  0  0  0  0
  -18.9466  -30.1452   23.8893 C   0  0  0  0  0  0
  -17.6466  -30.6585   24.0561 C   0  0  0  0  0  0
  -25.9059  -34.9454   23.5104 C   0  0  0  0  0  0
  -16.5353  -29.9083   23.6333 C   0  0  0  0  0  0
  -16.7274  -28.6504   23.0349 C   0  0  0  0  0  0
  -26.4495  -31.6597   25.0745 C   0  0  0  0  0  0
  -25.3729  -31.3744   26.1472 C   0  0  0  0  0  0
  -27.0338  -30.3021   24.6206 C   0  0  0  0  0  0
  -27.6054  -32.4336   25.7520 C   0  0  0  0  0  0
  -27.5578  -37.1804   24.8463 C   0  0  0  0  0  0
  -21.4188  -29.3041   22.3680 N   0  0  0  0  0  0
  -26.4294  -37.3779   23.9405 N   0  0  0  0  0  0
  -24.6869  -31.0633   22.1019 N   0  0  0  0  0  0
  -23.4199  -28.8154   23.3000 O   0  0  0  0  0  0
  -28.3017  -26.4389   20.1606 O   0  0  0  0  0  0
  -26.5619  -34.8913   22.4664 O   0  0  0  0  0  0
  -23.5423  -32.1415   23.7390 O   0  0  0  0  0  0
  -29.1256  -20.6871   19.6019 C   0  0  0  0  0  0
  -29.4375  -20.5357   21.9693 C   0  0  0  0  0  0
  -29.5272  -19.3190   19.4608 C   0  0  0  0  0  0
  -29.9211  -18.5283   20.5865 C   0  0  0  0  0  0
  -29.0611  -21.3412   20.8598 C   0  0  0  0  0  0
  -29.8474  -19.1780   21.8480 C   0  0  0  0  0  0
  -27.9015  -23.2417   22.0960 C   0  0  0  0  0  0
  -27.2754  -22.5679   23.0767 C   0  0  0  0  0  0
  -27.7817  -24.7506   21.9374 C   0  0  0  0  0  0
  -28.9614  -23.8138   20.0873 C   0  0  0  0  0  0
  -28.0018  -25.0091   20.4474 C   0  0  2  0  0  0
  -29.5620  -18.7322   18.0583 C   0  0  0  0  0  0
  -30.6464  -17.1352   20.4306 C   0  0  0  0  0  0
  -28.6232  -22.7079   21.0256 N   0  0  0  0  0  0
  -30.0048  -15.7951   20.6768 N   0  0  0  0  0  0
  -30.3150  -18.3390   23.2856 Cl  0  0  0  0  0  0
  -31.4602  -12.4675   19.1586 H   0  0  0  0  0  0
  -30.3192  -11.4014   19.9283 H   0  0  0  0  0  0
  -29.7593  -11.7294   17.4917 H   0  0  0  0  0  0
  -29.6486  -13.4556   17.7340 H   0  0  0  0  0  0
  -27.8558  -11.2925   18.8812 H   0  0  0  0  0  0
  -27.3691  -12.5658   17.7943 H   0  0  0  0  0  0
  -27.6504  -14.2581   19.4914 H   0  0  0  0  0  0
  -28.6982  -12.1453   21.4351 H   0  0  0  0  0  0
  -28.4512  -13.8361   21.7938 H   0  0  0  0  0  0
  -25.2767   -9.5690   22.4758 H   0  0  0  0  0  0
  -24.0009   -7.4641   22.7471 H   0  0  0  0  0  0
  -21.0853   -8.8780   19.8947 H   0  0  0  0  0  0
  -22.3707  -10.9678   19.6169 H   0  0  0  0  0  0
  -21.2008   -7.6149   23.9712 H   0  0  0  0  0  0
  -21.1481   -6.0526   25.9073 H   0  0  0  0  0  0
  -22.0598   -2.7614   23.2844 H   0  0  0  0  0  0
  -22.4105  -11.9869   22.4800 H   0  0  0  0  0  0
  -21.1094  -13.1214   22.2629 H   0  0  0  0  0  0
  -24.6551  -15.8482   20.5236 H   0  0  0  0  0  0
  -26.2710  -15.6329   20.0816 H   0  0  0  0  0  0
  -26.7177  -32.5454   23.1120 H   0  0  0  0  0  0
  -25.0093  -33.9737   25.0437 H   0  0  0  0  0  0
  -22.7123  -31.3101   21.4105 H   0  0  0  0  0  0
  -23.3752  -35.9635   23.3311 H   0  0  0  0  0  0
  -24.3580  -36.8914   22.2051 H   0  0  0  0  0  0
  -23.7253  -37.6501   23.6658 H   0  0  0  0  0  0
  -26.0963  -31.5547   20.6153 H   0  0  0  0  0  0
  -26.8409  -30.8339   22.0131 H   0  0  0  0  0  0
  -28.1034  -28.9585   21.2194 H   0  0  0  0  0  0
  -25.9662  -26.0029   18.8901 H   0  0  0  0  0  0
  -23.9696  -27.3571   18.9589 H   0  0  0  0  0  0
  -23.7541  -30.6145   19.4095 H   0  0  0  0  0  0
  -22.7509  -29.2666   19.8554 H   0  0  0  0  0  0
  -25.1297  -36.1940   25.0817 H   0  0  0  0  0  0
  -20.9971  -28.3254   24.1404 H   0  0  0  0  0  0
  -20.5681  -26.2286   23.3603 H   0  0  0  0  0  0
  -21.6642  -26.7442   22.1195 H   0  0  0  0  0  0
  -19.6918  -25.6291   21.1239 H   0  0  0  0  0  0
  -19.6696  -27.3196   20.6736 H   0  0  0  0  0  0
  -17.4197  -26.6670   21.4022 H   0  0  0  0  0  0
  -18.0327  -26.0073   22.9027 H   0  0  0  0  0  0
  -19.7948  -30.7259   24.2265 H   0  0  0  0  0  0
  -17.5029  -31.6268   24.5157 H   0  0  0  0  0  0
  -15.5356  -30.2984   23.7664 H   0  0  0  0  0  0
  -15.8673  -28.0822   22.7061 H   0  0  0  0  0  0
  -24.5907  -30.7084   25.7810 H   0  0  0  0  0  0
  -24.8907  -32.2909   26.4882 H   0  0  0  0  0  0
  -25.8048  -30.8939   27.0260 H   0  0  0  0  0  0
  -26.2913  -29.6777   24.1220 H   0  0  0  0  0  0
  -27.4019  -29.7273   25.4715 H   0  0  0  0  0  0
  -27.8794  -30.4308   23.9447 H   0  0  0  0  0  0
  -27.2667  -33.3648   26.2076 H   0  0  0  0  0  0
  -28.3877  -32.6879   25.0356 H   0  0  0  0  0  0
  -28.0705  -31.8474   26.5457 H   0  0  0  0  0  0
  -28.2591  -38.0102   24.7501 H   0  0  0  0  0  0
  -28.1073  -36.2629   24.6300 H   0  0  0  0  0  0
  -27.2287  -37.1467   25.8862 H   0  0  0  0  0  0
  -20.9356  -29.8797   21.6925 H   0  0  0  0  0  0
  -26.0177  -38.2853   24.1411 H   0  0  0  0  0  0
  -28.8456  -21.2407   18.7170 H   0  0  0  0  0  0
  -29.4448  -20.9692   22.9574 H   0  0  0  0  0  0
  -26.7048  -23.0955   23.8285 H   0  0  0  0  0  0
  -27.2892  -21.4914   23.1525 H   0  0  0  0  0  0
  -28.5456  -25.2393   22.5433 H   0  0  0  0  0  0
  -26.8055  -25.1164   22.2594 H   0  0  0  0  0  0
  -30.0023  -24.1009   20.2402 H   0  0  0  0  0  0
  -28.8463  -23.5194   19.0437 H   0  0  0  0  0  0
  -27.0781  -24.7063   19.9642 H   0  0  0  0  0  0
  -28.9776  -19.3332   17.3605 H   0  0  0  0  0  0
  -29.1449  -17.7246   18.0462 H   0  0  0  0  0  0
  -30.5854  -18.6895   17.6843 H   0  0  0  0  0  0
  -31.5249  -17.1802   21.0763 H   0  0  0  0  0  0
  -31.0785  -17.1007   19.4302 H   0  0  0  0  0  0
  -29.0219  -15.7577   20.8970 H   0  0  0  0  0  0
  1 25  1  0  0  0
  1 30  2  0  0  0
  1 85  1  0  0  0
  2  3  1  0  0  0
  2 25  1  0  0  0
  2 87  1  0  0  0
  2 88  1  0  0  0
  3  4  1  0  0  0
  3 89  1  0  0  0
  3 90  1  0  0  0
  4  5  1  0  0  0
  4 91  1  0  0  0
  4 92  1  0  0  0
  5  6  1  0  0  0
  5 26  1  0  0  0
  5 93  1  0  0  0
  6 25  1  0  0  0
  6 94  1  0  0  0
  6 95  1  0  0  0
  7  8  2  0  0  0
  7 26  1  0  0  0
  7 29  1  0  0  0
  8  9  1  0  0  0
  8 22  1  0  0  0
  9 10  1  0  0  0
  9 27  2  0  0  0
 10 11  2  0  0  0
 10 15  1  0  0  0
 11 12  1  0  0  0
 11 96  1  0  0  0
 12 13  2  0  0  0
 12 97  1  0  0  0
 13 14  1  0  0  0
 13 31  1  0  0  0
 14 15  2  0  0  0
 14 98  1  0  0  0
 15 99  1  0  0  0
 16 17  2  0  0  0
 16 21  1  0  0  0
 16 31  1  0  0  0
 17 18  1  0  0  0
 17100  1  0  0  0
 18 19  2  0  0  0
 18101  1  0  0  0
 19 20  1  0  0  0
 19 24  1  0  0  0
 20 21  2  0  0  0
 20102  1  0  0  0
 21 23  1  0  0  0
 22 28  1  0  0  0
 22 32  2  0  0  0
 26 27  1  0  0  0
 28103  1  0  0  0
 28104  1  0  0  0
 29105  1  0  0  0
 29106  1  0  0  0
 33 34  1  0  0  0
 33 66  1  0  0  0
 33 70  2  0  0  0
 34 36  1  0  0  0
 34 59  1  0  0  0
 34107  1  0  0  0
 35 44  2  0  0  0
 35 45  1  0  0  0
 35 68  1  0  0  0
 36 56  1  0  0  0
 36108  1  0  0  0
 37 39  1  0  0  0
 37 47  1  0  0  0
 37 66  1  0  0  0
 37109  1  0  0  0
 38 43  2  0  0  0
 38 46  1  0  0  0
 38 47  1  0  0  0
 39 64  1  0  0  0
 39 67  2  0  0  0
 40 52  1  0  0  0
 40 53  2  0  0  0
 40 58  1  0  0  0
 41110  1  0  0  0
 41111  1  0  0  0
 41112  1  0  0  0
 41 48  1  0  0  0
 42 43  1  0  0  0
 42 66  1  0  0  0
 42113  1  0  0  0
 42114  1  0  0  0
 43 44  1  0  0  0
 44115  1  0  0  0
 45 46  2  0  0  0
 45116  1  0  0  0
 46117  1  0  0  0
 47118  1  0  0  0
 47119  1  0  0  0
 48 56  1  0  0  0
 48 65  1  0  0  0
 48120  1  0  0  0
 49 50  1  0  0  0
 49 53  1  0  0  0
 49 64  1  0  0  0
 49121  1  0  0  0
 50 51  1  0  0  0
 50122  1  0  0  0
 50123  1  0  0  0
 51 52  1  0  0  0
 51124  1  0  0  0
 51125  1  0  0  0
 52126  1  0  0  0
 52127  1  0  0  0
 53 54  1  0  0  0
 54 55  2  0  0  0
 54128  1  0  0  0
 55 57  1  0  0  0
 55129  1  0  0  0
 56 69  2  0  0  0
 57 58  2  0  0  0
 57130  1  0  0  0
 58131  1  0  0  0
 59 60  1  0  0  0
 59 61  1  0  0  0
 59 62  1  0  0  0
 60132  1  0  0  0
 60133  1  0  0  0
 60134  1  0  0  0
 61135  1  0  0  0
 61136  1  0  0  0
 61137  1  0  0  0
 62138  1  0  0  0
 62139  1  0  0  0
 62140  1  0  0  0
 63 65  1  0  0  0
 63141  1  0  0  0
 63142  1  0  0  0
 63143  1  0  0  0
 64144  1  0  0  0
 65145  1  0  0  0
 68 81  1  0  0  0
 71 73  2  0  0  0
 71 75  1  0  0  0
 71146  1  0  0  0
 72 75  2  0  0  0
 72 76  1  0  0  0
 72147  1  0  0  0
 73 74  1  0  0  0
 73 82  1  0  0  0
 74 76  2  0  0  0
 74 83  1  0  0  0
 75 84  1  0  0  0
 76 86  1  0  0  0
 77 78  2  0  0  0
 77 79  1  0  0  0
 77 84  1  0  0  0
 78148  1  0  0  0
 78149  1  0  0  0
 79 81  1  0  0  0
 79150  1  0  0  0
 79151  1  0  0  0
 80 81  1  0  0  0
 80 84  1  0  0  0
 80152  1  0  0  0
 80153  1  0  0  0
 81154  1  0  0  0
 82155  1  0  0  0
 82156  1  0  0  0
 82157  1  0  0  0
 83 85  1  0  0  0
 83158  1  0  0  0
 83159  1  0  0  0
 85160  1  0  0  0
M  ISO  4   1 100  68 101  81 101  85 100
M  END
> <chiral flag>
0

> <version>
0

> <s_m_source_file>
/data/baiqing/PycharmProjects/Reinvent-master-3.2/result/LINK_invent/BTK/process_docking_weight1_custom_product_contain_oxygen_bond_distance_aromatic_linkinvent_7_9_3/rearranged_h_0037.sdf

> <i_m_source_file_index>
10

> <r_mmod_Potential_Energy-OPLS-2005>
122.555374145508

> <r_mmod_Stretch_Energy-OPLS-2005>
77.3484344482422

> <r_mmod_Bend_Energy-OPLS-2005>
188.866333007812

> <r_mmod_Torsional_Energy-OPLS-2005>
239.26399230957

> <r_mmod_Improper_Torsional_Energy-OPLS-2005>
7.04614639282227

> <r_mmod_Van_der_Waal_Energy-OPLS-2005>
152.147109985352

> <r_mmod_Electrostatic_Energy-OPLS-2005>
-394.937805175781

> <r_mmod_Solvation_Energy-OPLS-2005>
-200.538116455078

> <b_mmod_Minimization_Converged-OPLS-2005>
0

> <r_mmod_RMS_Derivative-OPLS-2005>
0.904860734939575

$$$$
10
                    3D
 Structure written by MMmdl.
169178  0  0  1  0            999 V2000
  -30.5768  -14.7586   20.4071 C   0  0  0  0  0  0
  -30.4480  -12.4305   19.5063 C   0  0  0  0  0  0
  -29.5349  -12.4004   18.2598 C   0  0  0  0  0  0
  -28.0402  -12.3264   18.6461 C   0  0  0  0  0  0
  -27.6452  -13.2274   19.8528 C   0  0  2  0  0  0
  -28.6872  -13.1567   20.9872 C   0  0  0  0  0  0
  -25.2510  -13.8227   20.5715 C   0  0  0  0  0  0
  -24.1791  -13.0461   20.9181 C   0  0  0  0  0  0
  -24.6371  -11.6943   20.8719 C   0  0  0  0  0  0
  -23.9047  -10.4318   21.0390 C   0  0  0  0  0  0
  -24.3592   -9.4252   21.9190 C   0  0  0  0  0  0
  -23.6288   -8.2275   22.0759 C   0  0  0  0  0  0
  -22.4265   -8.0307   21.3568 C   0  0  0  0  0  0
  -21.9899   -9.0266   20.4661 C   0  0  0  0  0  0
  -22.7196  -10.2160   20.3069 C   0  0  0  0  0  0
  -21.6852   -6.0739   22.5274 C   0  0  0  0  0  0
  -21.3997   -6.5639   23.8211 C   0  0  0  0  0  0
  -21.3668   -5.6789   24.9173 C   0  0  0  0  0  0
  -21.6068   -4.3058   24.7232 C   0  0  0  0  0  0
  -21.8797   -3.8157   23.4350 C   0  0  0  0  0  0
  -21.9178   -4.6971   22.3395 C   0  0  0  0  0  0
  -22.7801  -13.5231   21.1868 C   0  0  0  0  0  0
  -22.1611   -4.2150   21.0978 F   0  0  0  0  0  0
  -21.5681   -3.4545   25.7759 F   0  0  0  0  0  0
  -29.9853  -13.5138   20.4034 N   0  0  0  0  0  0
  -26.2949  -12.9410   20.3307 N   0  0  0  0  0  0
  -25.9309  -11.6557   20.5762 N   0  0  0  0  0  0
  -22.0462  -12.8202   22.0434 N   0  0  0  0  0  0
  -25.4229  -15.1962   20.4166 N   0  0  0  0  0  0
  -31.7619  -14.8745   20.0795 O   0  0  0  0  0  0
  -21.6660   -6.8884   21.4237 O   0  0  0  0  0  0
  -22.3474  -14.5530   20.6738 O   0  0  0  0  0  0
  -24.6329  -31.8538   23.1969 C   0  0  0  0  0  0
  -25.9159  -32.4757   23.8311 C   0  0  1  0  0  0
  -27.2235  -27.2658   20.1071 C   0  0  0  0  0  0
  -25.5959  -33.8563   24.2235 N   0  0  0  0  0  0
  -23.4282  -30.4772   21.5412 C   0  0  2  0  0  0
  -24.8722  -28.9231   20.1086 C   0  0  0  0  0  0
  -22.7515  -29.4587   22.4919 C   0  0  0  0  0  0
  -18.0307  -28.1403   22.8482 C   0  0  0  0  0  0
  -24.1498  -36.7295   23.2642 C   0  0  0  0  0  0
  -25.9735  -30.7687   21.3726 C   0  0  0  0  0  0
  -26.0435  -29.3909   20.7139 C   0  0  0  0  0  0
  -27.2169  -28.5727   20.7035 C   0  0  0  0  0  0
  -26.0189  -26.8575   19.4875 C   0  0  0  0  0  0
  -24.8650  -27.6652   19.4875 C   0  0  0  0  0  0
  -23.6440  -29.8126   20.1567 C   0  0  0  0  0  0
  -25.4122  -36.3061   24.0318 C   0  0  1  0  0  0
  -20.5912  -28.3708   23.1284 C   0  0  2  0  0  0
  -20.6814  -26.9434   22.5408 C   0  0  0  0  0  0
  -19.5772  -26.6385   21.5229 C   0  0  0  0  0  0
  -18.1947  -26.7943   22.1624 C   0  0  0  0  0  0
  -19.1564  -28.8873   23.2877 C   0  0  0  0  0  0
  -18.9478  -30.1486   23.8878 C   0  0  0  0  0  0
  -17.6471  -30.6598   24.0562 C   0  0  0  0  0  0
  -25.9059  -34.9440   23.5068 C   0  0  0  0  0  0
  -16.5366  -29.9087   23.6344 C   0  0  0  0  0  0
  -16.7291  -28.6523   23.0339 C   0  0  0  0  0  0
  -26.4525  -31.6612   25.0724 C   0  0  0  0  0  0
  -25.3713  -31.3743   26.1419 C   0  0  0  0  0  0
  -27.0405  -30.3048   24.6218 C   0  0  0  0  0  0
  -27.6071  -32.4369   25.7492 C   0  0  0  0  0  0
  -27.5579  -37.1800   24.8461 C   0  0  0  0  0  0
  -21.4222  -29.3051   22.3671 N   0  0  0  0  0  0
  -26.4288  -37.3760   23.9408 N   0  0  0  0  0  0
  -24.6977  -31.0496   22.0949 N   0  0  0  0  0  0
  -23.4228  -28.8125   23.3006 O   0  0  0  0  0  0
  -28.3561  -26.4210   20.1808 O   0  0  0  0  0  0
  -26.5615  -34.8919   22.4629 O   0  0  0  0  0  0
  -23.5481  -32.1373   23.7279 O   0  0  0  0  0  0
  -29.4417  -18.4514   20.5378 C   0  0  0  0  0  0
  -28.9158  -19.6516   19.9010 C   0  0  0  0  0  0
  -28.3540  -19.4599   18.6076 C   0  0  0  0  0  0
  -28.6087  -18.2596   17.8832 C   0  0  0  0  0  0
  -29.2615  -17.1488   18.4964 C   0  0  0  0  0  0
  -29.5718  -17.1576   19.8880 C   0  0  0  0  0  0
  -29.9520  -23.7102   18.0158 C   0  0  0  0  0  0
  -29.7121  -25.0609   18.7261 C   0  0  0  0  0  0
  -30.0904  -22.5349   19.0077 C   0  0  0  0  0  0
  -28.5555  -23.7288   20.5508 C   0  0  0  0  0  0
  -28.4460  -25.0354   19.6025 C   0  0  1  0  0  0
  -27.3970  -20.4948   18.0111 C   0  0  0  0  0  0
  -28.1092  -18.1084   16.4392 C   0  0  0  0  0  0
  -29.5368  -15.9091   17.6557 C   0  0  0  0  0  0
  -28.8295  -21.0748   20.6392 C   0  0  0  0  0  0
  -29.7732  -15.8720   20.6293 N   0  0  0  0  0  0
  -28.8669  -22.3945   19.8375 N   0  3  2  0  0  0
  -31.4908  -12.5581   19.2084 H   0  0  0  0  0  0
  -30.4051  -11.4736   20.0277 H   0  0  0  0  0  0
  -29.7904  -11.5266   17.6584 H   0  0  0  0  0  0
  -29.7425  -13.2507   17.6153 H   0  0  0  0  0  0
  -27.8354  -11.2844   18.8927 H   0  0  0  0  0  0
  -27.4187  -12.5582   17.7810 H   0  0  0  0  0  0
  -27.6364  -14.2535   19.4898 H   0  0  0  0  0  0
  -28.7231  -12.1558   21.4197 H   0  0  0  0  0  0
  -28.4264  -13.8328   21.8033 H   0  0  0  0  0  0
  -25.2743   -9.5736   22.4744 H   0  0  0  0  0  0
  -24.0034   -7.4636   22.7424 H   0  0  0  0  0  0
  -21.0860   -8.8714   19.8944 H   0  0  0  0  0  0
  -22.3621  -10.9666   19.6157 H   0  0  0  0  0  0
  -21.1937   -7.6135   23.9708 H   0  0  0  0  0  0
  -21.1531   -6.0532   25.9074 H   0  0  0  0  0  0
  -22.0581   -2.7626   23.2846 H   0  0  0  0  0  0
  -22.4081  -11.9833   22.4770 H   0  0  0  0  0  0
  -21.1103  -13.1265   22.2744 H   0  0  0  0  0  0
  -24.6537  -15.8514   20.5058 H   0  0  0  0  0  0
  -26.2792  -15.6400   20.1082 H   0  0  0  0  0  0
  -26.7231  -32.5398   23.1053 H   0  0  0  0  0  0
  -25.0153  -33.9701   25.0415 H   0  0  0  0  0  0
  -22.7248  -31.2998   21.3964 H   0  0  0  0  0  0
  -23.3757  -35.9624   23.3256 H   0  0  0  0  0  0
  -24.3596  -36.8975   22.2066 H   0  0  0  0  0  0
  -23.7263  -37.6487   23.6702 H   0  0  0  0  0  0
  -26.1085  -31.5279   20.6010 H   0  0  0  0  0  0
  -26.8533  -30.8174   22.0026 H   0  0  0  0  0  0
  -28.1174  -28.9296   21.1832 H   0  0  0  0  0  0
  -25.9105  -25.8983   19.0119 H   0  0  0  0  0  0
  -23.9637  -27.2994   19.0156 H   0  0  0  0  0  0
  -23.7710  -30.5918   19.4034 H   0  0  0  0  0  0
  -22.7608  -29.2508   19.8489 H   0  0  0  0  0  0
  -25.1308  -36.1879   25.0805 H   0  0  0  0  0  0
  -21.0005  -28.3273   24.1400 H   0  0  0  0  0  0
  -20.5798  -26.2291   23.3601 H   0  0  0  0  0  0
  -21.6667  -26.7504   22.1135 H   0  0  0  0  0  0
  -19.6935  -25.6282   21.1287 H   0  0  0  0  0  0
  -19.6724  -27.3180   20.6747 H   0  0  0  0  0  0
  -17.4229  -26.6737   21.4008 H   0  0  0  0  0  0
  -18.0309  -26.0087   22.9020 H   0  0  0  0  0  0
  -19.7947  -30.7347   24.2214 H   0  0  0  0  0  0
  -17.5008  -31.6276   24.5169 H   0  0  0  0  0  0
  -15.5368  -30.2981   23.7681 H   0  0  0  0  0  0
  -15.8695  -28.0864   22.7015 H   0  0  0  0  0  0
  -24.5879  -30.7142   25.7688 H   0  0  0  0  0  0
  -24.8928  -32.2915   26.4866 H   0  0  0  0  0  0
  -25.7988  -30.8865   27.0192 H   0  0  0  0  0  0
  -26.3008  -29.6772   24.1257 H   0  0  0  0  0  0
  -27.4131  -29.7348   25.4744 H   0  0  0  0  0  0
  -27.8838  -30.4370   23.9435 H   0  0  0  0  0  0
  -27.2689  -33.3688   26.2043 H   0  0  0  0  0  0
  -28.3883  -32.6936   25.0313 H   0  0  0  0  0  0
  -28.0750  -31.8528   26.5437 H   0  0  0  0  0  0
  -28.2554  -38.0134   24.7532 H   0  0  0  0  0  0
  -28.1123  -36.2670   24.6248 H   0  0  0  0  0  0
  -27.2304  -37.1387   25.8864 H   0  0  0  0  0  0
  -20.9410  -29.8773   21.6880 H   0  0  0  0  0  0
  -26.0159  -38.2825   24.1418 H   0  0  0  0  0  0
  -29.7068  -18.5218   21.5833 H   0  0  0  0  0  0
  -30.8565  -23.7768   17.4095 H   0  0  0  0  0  0
  -29.1361  -23.5093   17.3192 H   0  0  0  0  0  0
  -29.6252  -25.8540   17.9819 H   0  0  0  0  0  0
  -30.5764  -25.3091   19.3420 H   0  0  0  0  0  0
  -30.9579  -22.6809   19.6529 H   0  0  0  0  0  0
  -30.2756  -21.6161   18.4491 H   0  0  0  0  0  0
  -27.6298  -23.6226   21.1167 H   0  0  0  0  0  0
  -29.3392  -23.9027   21.2897 H   0  0  0  0  0  0
  -27.6283  -24.8496   18.9123 H   0  0  0  0  0  0
  -26.9255  -21.1221   18.7642 H   0  0  0  0  0  0
  -26.5482  -19.9970   17.5414 H   0  0  0  0  0  0
  -27.8827  -21.1190   17.2601 H   0  0  0  0  0  0
  -27.6100  -18.9751   16.0182 H   0  0  0  0  0  0
  -27.4055  -17.2752   16.3804 H   0  0  0  0  0  0
  -28.9345  -17.9172   15.7544 H   0  0  0  0  0  0
  -29.6010  -16.0888   16.5878 H   0  0  0  0  0  0
  -28.7558  -15.1723   17.8179 H   0  0  0  0  0  0
  -30.5097  -15.4869   17.8904 H   0  0  0  0  0  0
  -29.6296  -21.1176   21.3800 H   0  0  0  0  0  0
  -27.9029  -21.0686   21.2139 H   0  0  0  0  0  0
  -28.9559  -15.6178   21.1612 H   0  0  0  0  0  0
  -28.1140  -22.2702   19.1771 H   0  0  0  0  0  0
  1 25  1  0  0  0
  1 30  2  0  0  0
  1 86  1  0  0  0
  2  3  1  0  0  0
  2 25  1  0  0  0
  2 88  1  0  0  0
  2 89  1  0  0  0
  3  4  1  0  0  0
  3 90  1  0  0  0
  3 91  1  0  0  0
  4  5  1  0  0  0
  4 92  1  0  0  0
  4 93  1  0  0  0
  5  6  1  0  0  0
  5 26  1  0  0  0
  5 94  1  0  0  0
  6 25  1  0  0  0
  6 95  1  0  0  0
  6 96  1  0  0  0
  7  8  2  0  0  0
  7 26  1  0  0  0
  7 29  1  0  0  0
  8  9  1  0  0  0
  8 22  1  0  0  0
  9 10  1  0  0  0
  9 27  2  0  0  0
 10 11  2  0  0  0
 10 15  1  0  0  0
 11 12  1  0  0  0
 11 97  1  0  0  0
 12 13  2  0  0  0
 12 98  1  0  0  0
 13 14  1  0  0  0
 13 31  1  0  0  0
 14 15  2  0  0  0
 14 99  1  0  0  0
 15100  1  0  0  0
 16 17  2  0  0  0
 16 21  1  0  0  0
 16 31  1  0  0  0
 17 18  1  0  0  0
 17101  1  0  0  0
 18 19  2  0  0  0
 18102  1  0  0  0
 19 20  1  0  0  0
 19 24  1  0  0  0
 20 21  2  0  0  0
 20103  1  0  0  0
 21 23  1  0  0  0
 22 28  1  0  0  0
 22 32  2  0  0  0
 26 27  1  0  0  0
 28104  1  0  0  0
 28105  1  0  0  0
 29106  1  0  0  0
 29107  1  0  0  0
 33 34  1  0  0  0
 33 66  1  0  0  0
 33 70  2  0  0  0
 34 36  1  0  0  0
 34 59  1  0  0  0
 34108  1  0  0  0
 35 44  2  0  0  0
 35 45  1  0  0  0
 35 68  1  0  0  0
 36 56  1  0  0  0
 36109  1  0  0  0
 37 39  1  0  0  0
 37 47  1  0  0  0
 37 66  1  0  0  0
 37110  1  0  0  0
 38 43  2  0  0  0
 38 46  1  0  0  0
 38 47  1  0  0  0
 39 64  1  0  0  0
 39 67  2  0  0  0
 40 52  1  0  0  0
 40 53  2  0  0  0
 40 58  1  0  0  0
 41111  1  0  0  0
 41112  1  0  0  0
 41113  1  0  0  0
 41 48  1  0  0  0
 42 43  1  0  0  0
 42 66  1  0  0  0
 42114  1  0  0  0
 42115  1  0  0  0
 43 44  1  0  0  0
 44116  1  0  0  0
 45 46  2  0  0  0
 45117  1  0  0  0
 46118  1  0  0  0
 47119  1  0  0  0
 47120  1  0  0  0
 48 56  1  0  0  0
 48 65  1  0  0  0
 48121  1  0  0  0
 49 50  1  0  0  0
 49 53  1  0  0  0
 49 64  1  0  0  0
 49122  1  0  0  0
 50 51  1  0  0  0
 50123  1  0  0  0
 50124  1  0  0  0
 51 52  1  0  0  0
 51125  1  0  0  0
 51126  1  0  0  0
 52127  1  0  0  0
 52128  1  0  0  0
 53 54  1  0  0  0
 54 55  2  0  0  0
 54129  1  0  0  0
 55 57  1  0  0  0
 55130  1  0  0  0
 56 69  2  0  0  0
 57 58  2  0  0  0
 57131  1  0  0  0
 58132  1  0  0  0
 59 60  1  0  0  0
 59 61  1  0  0  0
 59 62  1  0  0  0
 60133  1  0  0  0
 60134  1  0  0  0
 60135  1  0  0  0
 61136  1  0  0  0
 61137  1  0  0  0
 61138  1  0  0  0
 62139  1  0  0  0
 62140  1  0  0  0
 62141  1  0  0  0
 63 65  1  0  0  0
 63142  1  0  0  0
 63143  1  0  0  0
 63144  1  0  0  0
 64145  1  0  0  0
 65146  1  0  0  0
 68 81  1  0  0  0
 71 72  2  0  0  0
 71 76  1  0  0  0
 71147  1  0  0  0
 72 73  1  0  0  0
 72 85  1  0  0  0
 73 74  2  0  0  0
 73 82  1  0  0  0
 74 75  1  0  0  0
 74 83  1  0  0  0
 75 76  2  0  0  0
 75 84  1  0  0  0
 76 86  1  0  0  0
 77 78  1  0  0  0
 77 79  1  0  0  0
 77148  1  0  0  0
 77149  1  0  0  0
 78 81  1  0  0  0
 78150  1  0  0  0
 78151  1  0  0  0
 79 87  1  0  0  0
 79152  1  0  0  0
 79153  1  0  0  0
 80 81  1  0  0  0
 80 87  1  0  0  0
 80154  1  0  0  0
 80155  1  0  0  0
 81156  1  0  0  0
 82157  1  0  0  0
 82158  1  0  0  0
 82159  1  0  0  0
 83160  1  0  0  0
 83161  1  0  0  0
 83162  1  0  0  0
 84163  1  0  0  0
 84164  1  0  0  0
 84165  1  0  0  0
 85166  1  0  0  0
 85167  1  0  0  0
 85 87  1  0  0  0
 86168  1  0  0  0
 87169  1  0  0  0
M  CHG  1  87   1
M  ISO  4   1 100  68 101  81 101  86 100
M  END
> <chiral flag>
0

> <version>
0

> <s_m_source_file>
/data/baiqing/PycharmProjects/Reinvent-master-3.2/result/LINK_invent/BTK/process_docking_weight1_custom_product_contain_oxygen_bond_distance_aromatic_linkinvent_7_9_3/rearranged_h_0037.sdf

> <i_m_source_file_index>
11

> <r_mmod_Potential_Energy-OPLS-2005>
147.442901611328

> <r_mmod_Stretch_Energy-OPLS-2005>
132.423263549805

> <r_mmod_Bend_Energy-OPLS-2005>
180.709442138672

> <r_mmod_Torsional_Energy-OPLS-2005>
299.032257080078

> <r_mmod_Improper_Torsional_Energy-OPLS-2005>
7.19068241119385

> <r_mmod_Van_der_Waal_Energy-OPLS-2005>
159.718399047852

> <r_mmod_Electrostatic_Energy-OPLS-2005>
-295.956634521484

> <r_mmod_Solvation_Energy-OPLS-2005>
-423.575866699219

> <b_mmod_Minimization_Converged-OPLS-2005>
0

> <r_mmod_RMS_Derivative-OPLS-2005>
3.30085945129395

$$$$
11
                    3D
 Structure written by MMmdl.
166175  0  0  1  0            999 V2000
  -30.5904  -14.6472   20.4771 C   0  0  0  0  0  0
  -30.4426  -12.3895   19.4237 C   0  0  0  0  0  0
  -29.4964  -12.4862   18.2027 C   0  0  0  0  0  0
  -28.0204  -12.3362   18.6240 C   0  0  0  0  0  0
  -27.6552  -13.2079   19.8526 C   0  0  2  0  0  0
  -28.7058  -13.0345   20.9723 C   0  0  0  0  0  0
  -25.2584  -13.8183   20.5590 C   0  0  0  0  0  0
  -24.1851  -13.0477   20.9192 C   0  0  0  0  0  0
  -24.6405  -11.6930   20.8739 C   0  0  0  0  0  0
  -23.9068  -10.4336   21.0408 C   0  0  0  0  0  0
  -24.3635   -9.4255   21.9178 C   0  0  0  0  0  0
  -23.6325   -8.2281   22.0757 C   0  0  0  0  0  0
  -22.4305   -8.0314   21.3550 C   0  0  0  0  0  0
  -21.9930   -9.0279   20.4649 C   0  0  0  0  0  0
  -22.7251  -10.2160   20.3042 C   0  0  0  0  0  0
  -21.6873   -6.0767   22.5278 C   0  0  0  0  0  0
  -21.4025   -6.5667   23.8214 C   0  0  0  0  0  0
  -21.3637   -5.6807   24.9166 C   0  0  0  0  0  0
  -21.6026   -4.3074   24.7204 C   0  0  0  0  0  0
  -21.8836   -3.8176   23.4334 C   0  0  0  0  0  0
  -21.9212   -4.6995   22.3396 C   0  0  0  0  0  0
  -22.7871  -13.5266   21.1864 C   0  0  0  0  0  0
  -22.1690   -4.2185   21.0972 F   0  0  0  0  0  0
  -21.5594   -3.4548   25.7713 F   0  0  0  0  0  0
  -30.0161  -13.4021   20.4112 N   0  0  0  0  0  0
  -26.3001  -12.9338   20.3250 N   0  0  0  0  0  0
  -25.9322  -11.6521   20.5736 N   0  0  0  0  0  0
  -22.0511  -12.8222   22.0398 N   0  0  0  0  0  0
  -25.4358  -15.1883   20.3863 N   0  0  0  0  0  0
  -31.7453  -14.8476   20.0888 O   0  0  0  0  0  0
  -21.6665   -6.8907   21.4248 O   0  0  0  0  0  0
  -22.3551  -14.5580   20.6743 O   0  0  0  0  0  0
  -24.6184  -31.8649   23.1971 C   0  0  0  0  0  0
  -25.9035  -32.4822   23.8320 C   0  0  1  0  0  0
  -27.2586  -27.3527   20.1291 C   0  0  0  0  0  0
  -25.5858  -33.8613   24.2264 N   0  0  0  0  0  0
  -23.4173  -30.4763   21.5396 C   0  0  2  0  0  0
  -24.8720  -28.9189   20.1256 C   0  0  0  0  0  0
  -22.7476  -29.4645   22.4982 C   0  0  0  0  0  0
  -18.0315  -28.1459   22.8555 C   0  0  0  0  0  0
  -24.1473  -36.7252   23.2644 C   0  0  0  0  0  0
  -25.9495  -30.8052   21.3595 C   0  0  0  0  0  0
  -26.0330  -29.4242   20.7202 C   0  0  0  0  0  0
  -27.2304  -28.6592   20.7044 C   0  0  0  0  0  0
  -26.0689  -26.8665   19.5494 C   0  0  0  0  0  0
  -24.8906  -27.6439   19.5301 C   0  0  0  0  0  0
  -23.6361  -29.7944   20.1603 C   0  0  0  0  0  0
  -25.4123  -36.3116   24.0338 C   0  0  1  0  0  0
  -20.5929  -28.3716   23.1350 C   0  0  2  0  0  0
  -20.6837  -26.9459   22.5462 C   0  0  0  0  0  0
  -19.5790  -26.6455   21.5288 C   0  0  0  0  0  0
  -18.1948  -26.8025   22.1674 C   0  0  0  0  0  0
  -19.1582  -28.8912   23.2953 C   0  0  0  0  0  0
  -18.9505  -30.1533   23.8950 C   0  0  0  0  0  0
  -17.6506  -30.6666   24.0617 C   0  0  0  0  0  0
  -25.9075  -34.9493   23.5117 C   0  0  0  0  0  0
  -16.5388  -29.9177   23.6363 C   0  0  0  0  0  0
  -16.7318  -28.6595   23.0386 C   0  0  0  0  0  0
  -26.4445  -31.6604   25.0643 C   0  0  0  0  0  0
  -25.3638  -31.3754   26.1333 C   0  0  0  0  0  0
  -27.0296  -30.3058   24.6027 C   0  0  0  0  0  0
  -27.6008  -32.4320   25.7385 C   0  0  0  0  0  0
  -27.5598  -37.1790   24.8500 C   0  0  0  0  0  0
  -21.4208  -29.3046   22.3719 N   0  0  0  0  0  0
  -26.4314  -37.3810   23.9426 N   0  0  0  0  0  0
  -24.6800  -31.0670   22.0892 N   0  0  0  0  0  0
  -23.4193  -28.8225   23.3103 O   0  0  0  0  0  0
  -28.4557  -26.6525   19.9816 O   0  0  0  0  0  0
  -26.5687  -34.8959   22.4713 O   0  0  0  0  0  0
  -23.5364  -32.1427   23.7313 O   0  0  0  0  0  0
  -28.5032  -19.2126   21.3287 C   0  0  0  0  0  0
  -30.3561  -17.8718   19.7209 C   0  0  0  0  0  0
  -28.7844  -17.8325   21.5473 C   0  0  0  0  0  0
  -29.1171  -19.9714   20.3021 C   0  0  0  0  0  0
  -29.6886  -17.1074   20.7206 C   0  0  0  0  0  0
  -30.0780  -19.2673   19.5163 C   0  0  0  0  0  0
  -28.4358  -25.3015   22.0703 C   0  0  0  0  0  0
  -29.2451  -24.1574   22.6928 C   0  0  0  0  0  0
  -28.3997  -23.9606   19.9343 C   0  0  0  0  0  0
  -28.7710  -25.3521   20.5885 C   0  0  1  0  0  0
  -29.0346  -22.7488   22.0657 C   0  0  2  0  0  0
  -28.0728  -17.1342   22.6946 C   0  0  0  0  0  0
  -30.1283  -21.8512   22.6912 C   0  0  0  0  0  0
  -28.5608  -21.4166   19.9466 C   0  0  0  0  0  0
  -29.7531  -15.6481   20.8908 N   0  0  0  0  0  0
  -29.0693  -22.7249   20.5597 N   0  3  1  0  0  0
  -30.8809  -20.0856   18.2232 Cl  0  0  0  0  0  0
  -31.4762  -12.5349   19.1067 H   0  0  0  0  0  0
  -30.3990  -11.3906   19.8609 H   0  0  0  0  0  0
  -29.7499  -11.7151   17.4731 H   0  0  0  0  0  0
  -29.6368  -13.4412   17.6956 H   0  0  0  0  0  0
  -27.8559  -11.2852   18.8623 H   0  0  0  0  0  0
  -27.3600  -12.5615   17.7850 H   0  0  0  0  0  0
  -27.6840  -14.2423   19.5135 H   0  0  0  0  0  0
  -28.7215  -11.9984   21.3130 H   0  0  0  0  0  0
  -28.4549  -13.6323   21.8473 H   0  0  0  0  0  0
  -25.2807   -9.5737   22.4718 H   0  0  0  0  0  0
  -24.0050   -7.4689   22.7490 H   0  0  0  0  0  0
  -21.0847   -8.8797   19.8963 H   0  0  0  0  0  0
  -22.3736  -10.9681   19.6110 H   0  0  0  0  0  0
  -21.2038   -7.6178   23.9721 H   0  0  0  0  0  0
  -21.1413   -6.0534   25.9060 H   0  0  0  0  0  0
  -22.0631   -2.7644   23.2817 H   0  0  0  0  0  0
  -22.4147  -11.9874   22.4759 H   0  0  0  0  0  0
  -21.1107  -13.1190   22.2585 H   0  0  0  0  0  0
  -24.6752  -15.8536   20.4749 H   0  0  0  0  0  0
  -26.2687  -15.6012   19.9867 H   0  0  0  0  0  0
  -26.7100  -32.5586   23.1093 H   0  0  0  0  0  0
  -24.9916  -33.9759   25.0347 H   0  0  0  0  0  0
  -22.7119  -31.2948   21.3926 H   0  0  0  0  0  0
  -23.3807  -35.9524   23.3357 H   0  0  0  0  0  0
  -24.3560  -36.8812   22.2049 H   0  0  0  0  0  0
  -23.7124  -37.6412   23.6646 H   0  0  0  0  0  0
  -26.0684  -31.5604   20.5815 H   0  0  0  0  0  0
  -26.8324  -30.8714   21.9821 H   0  0  0  0  0  0
  -28.1342  -29.0743   21.1309 H   0  0  0  0  0  0
  -26.0669  -25.8934   19.0820 H   0  0  0  0  0  0
  -23.9976  -27.2545   19.0567 H   0  0  0  0  0  0
  -23.7451  -30.5588   19.3884 H   0  0  0  0  0  0
  -22.7645  -29.2033   19.8737 H   0  0  0  0  0  0
  -25.1309  -36.1980   25.0837 H   0  0  0  0  0  0
  -21.0054  -28.3302   24.1456 H   0  0  0  0  0  0
  -20.5854  -26.2292   23.3640 H   0  0  0  0  0  0
  -21.6676  -26.7581   22.1157 H   0  0  0  0  0  0
  -19.6906  -25.6377   21.1277 H   0  0  0  0  0  0
  -19.6715  -27.3325   20.6877 H   0  0  0  0  0  0
  -17.4240  -26.6880   21.4028 H   0  0  0  0  0  0
  -18.0265  -26.0171   22.9068 H   0  0  0  0  0  0
  -19.7973  -30.7391   24.2270 H   0  0  0  0  0  0
  -17.5059  -31.6342   24.5263 H   0  0  0  0  0  0
  -15.5400  -30.3109   23.7676 H   0  0  0  0  0  0
  -15.8720  -28.0953   22.7037 H   0  0  0  0  0  0
  -24.5827  -30.7114   25.7621 H   0  0  0  0  0  0
  -24.8809  -32.2948   26.4683 H   0  0  0  0  0  0
  -25.7883  -30.8954   27.0156 H   0  0  0  0  0  0
  -26.2863  -29.6795   24.1095 H   0  0  0  0  0  0
  -27.4104  -29.7305   25.4466 H   0  0  0  0  0  0
  -27.8666  -30.4417   23.9165 H   0  0  0  0  0  0
  -27.2659  -33.3659   26.1935 H   0  0  0  0  0  0
  -28.3823  -32.6811   25.0182 H   0  0  0  0  0  0
  -28.0687  -31.8444   26.5305 H   0  0  0  0  0  0
  -28.2665  -38.0054   24.7615 H   0  0  0  0  0  0
  -28.1042  -36.2596   24.6301 H   0  0  0  0  0  0
  -27.2325  -37.1414   25.8905 H   0  0  0  0  0  0
  -20.9399  -29.8603   21.6790 H   0  0  0  0  0  0
  -26.0210  -38.2877   24.1480 H   0  0  0  0  0  0
  -27.7717  -19.7023   21.9546 H   0  0  0  0  0  0
  -31.0476  -17.3806   19.0500 H   0  0  0  0  0  0
  -28.7146  -26.2444   22.5409 H   0  0  0  0  0  0
  -27.3647  -25.1724   22.2239 H   0  0  0  0  0  0
  -29.0135  -24.1044   23.7580 H   0  0  0  0  0  0
  -30.3046  -24.4189   22.6307 H   0  0  0  0  0  0
  -28.6524  -24.0009   18.8749 H   0  0  0  0  0  0
  -27.3172  -23.8434   19.9804 H   0  0  0  0  0  0
  -29.8607  -25.3953   20.5291 H   0  0  0  0  0  0
  -28.0538  -22.3904   22.3816 H   0  0  0  0  0  0
  -27.3208  -17.7685   23.1661 H   0  0  0  0  0  0
  -28.7922  -16.8483   23.4648 H   0  0  0  0  0  0
  -27.5632  -16.2376   22.3483 H   0  0  0  0  0  0
  -31.0738  -21.9140   22.1517 H   0  0  0  0  0  0
  -29.8347  -20.8098   22.7604 H   0  0  0  0  0  0
  -30.3382  -22.1462   23.7203 H   0  0  0  0  0  0
  -27.4938  -21.3786   20.1674 H   0  0  0  0  0  0
  -28.5997  -21.5193   18.8622 H   0  0  0  0  0  0
  -28.9119  -15.2648   21.2909 H   0  0  0  0  0  0
  -30.0423  -22.7919   20.3018 H   0  0  0  0  0  0
  1 25  1  0  0  0
  1 30  2  0  0  0
  1 85  1  0  0  0
  2  3  1  0  0  0
  2 25  1  0  0  0
  2 88  1  0  0  0
  2 89  1  0  0  0
  3  4  1  0  0  0
  3 90  1  0  0  0
  3 91  1  0  0  0
  4  5  1  0  0  0
  4 92  1  0  0  0
  4 93  1  0  0  0
  5  6  1  0  0  0
  5 26  1  0  0  0
  5 94  1  0  0  0
  6 25  1  0  0  0
  6 95  1  0  0  0
  6 96  1  0  0  0
  7  8  2  0  0  0
  7 26  1  0  0  0
  7 29  1  0  0  0
  8  9  1  0  0  0
  8 22  1  0  0  0
  9 10  1  0  0  0
  9 27  2  0  0  0
 10 11  2  0  0  0
 10 15  1  0  0  0
 11 12  1  0  0  0
 11 97  1  0  0  0
 12 13  2  0  0  0
 12 98  1  0  0  0
 13 14  1  0  0  0
 13 31  1  0  0  0
 14 15  2  0  0  0
 14 99  1  0  0  0
 15100  1  0  0  0
 16 17  2  0  0  0
 16 21  1  0  0  0
 16 31  1  0  0  0
 17 18  1  0  0  0
 17101  1  0  0  0
 18 19  2  0  0  0
 18102  1  0  0  0
 19 20  1  0  0  0
 19 24  1  0  0  0
 20 21  2  0  0  0
 20103  1  0  0  0
 21 23  1  0  0  0
 22 28  1  0  0  0
 22 32  2  0  0  0
 26 27  1  0  0  0
 28104  1  0  0  0
 28105  1  0  0  0
 29106  1  0  0  0
 29107  1  0  0  0
 33 34  1  0  0  0
 33 66  1  0  0  0
 33 70  2  0  0  0
 34 36  1  0  0  0
 34 59  1  0  0  0
 34108  1  0  0  0
 35 44  2  0  0  0
 35 45  1  0  0  0
 35 68  1  0  0  0
 36 56  1  0  0  0
 36109  1  0  0  0
 37 39  1  0  0  0
 37 47  1  0  0  0
 37 66  1  0  0  0
 37110  1  0  0  0
 38 43  2  0  0  0
 38 46  1  0  0  0
 38 47  1  0  0  0
 39 64  1  0  0  0
 39 67  2  0  0  0
 40 52  1  0  0  0
 40 53  2  0  0  0
 40 58  1  0  0  0
 41111  1  0  0  0
 41112  1  0  0  0
 41113  1  0  0  0
 41 48  1  0  0  0
 42 43  1  0  0  0
 42 66  1  0  0  0
 42114  1  0  0  0
 42115  1  0  0  0
 43 44  1  0  0  0
 44116  1  0  0  0
 45 46  2  0  0  0
 45117  1  0  0  0
 46118  1  0  0  0
 47119  1  0  0  0
 47120  1  0  0  0
 48 56  1  0  0  0
 48 65  1  0  0  0
 48121  1  0  0  0
 49 50  1  0  0  0
 49 53  1  0  0  0
 49 64  1  0  0  0
 49122  1  0  0  0
 50 51  1  0  0  0
 50123  1  0  0  0
 50124  1  0  0  0
 51 52  1  0  0  0
 51125  1  0  0  0
 51126  1  0  0  0
 52127  1  0  0  0
 52128  1  0  0  0
 53 54  1  0  0  0
 54 55  2  0  0  0
 54129  1  0  0  0
 55 57  1  0  0  0
 55130  1  0  0  0
 56 69  2  0  0  0
 57 58  2  0  0  0
 57131  1  0  0  0
 58132  1  0  0  0
 59 60  1  0  0  0
 59 61  1  0  0  0
 59 62  1  0  0  0
 60133  1  0  0  0
 60134  1  0  0  0
 60135  1  0  0  0
 61136  1  0  0  0
 61137  1  0  0  0
 61138  1  0  0  0
 62139  1  0  0  0
 62140  1  0  0  0
 62141  1  0  0  0
 63 65  1  0  0  0
 63142  1  0  0  0
 63143  1  0  0  0
 63144  1  0  0  0
 64145  1  0  0  0
 65146  1  0  0  0
 68 80  1  0  0  0
 71 73  2  0  0  0
 71 74  1  0  0  0
 71147  1  0  0  0
 72 75  2  0  0  0
 72 76  1  0  0  0
 72148  1  0  0  0
 73 75  1  0  0  0
 73 82  1  0  0  0
 74 76  2  0  0  0
 74 84  1  0  0  0
 75 85  1  0  0  0
 76 87  1  0  0  0
 77 78  1  0  0  0
 77 80  1  0  0  0
 77149  1  0  0  0
 77150  1  0  0  0
 78 81  1  0  0  0
 78151  1  0  0  0
 78152  1  0  0  0
 79 80  1  0  0  0
 79 86  1  0  0  0
 79153  1  0  0  0
 79154  1  0  0  0
 80155  1  0  0  0
 81 83  1  0  0  0
 81 86  1  0  0  0
 81156  1  0  0  0
 82157  1  0  0  0
 82158  1  0  0  0
 82159  1  0  0  0
 83160  1  0  0  0
 83161  1  0  0  0
 83162  1  0  0  0
 84163  1  0  0  0
 84164  1  0  0  0
 84 86  1  0  0  0
 85165  1  0  0  0
 86166  1  0  0  0
M  CHG  1  86   1
M  ISO  4   1 100  68 101  80 101  85 100
M  END
> <chiral flag>
0

> <version>
0

> <s_m_source_file>
/data/baiqing/PycharmProjects/Reinvent-master-3.2/result/LINK_invent/BTK/process_docking_weight1_custom_product_contain_oxygen_bond_distance_aromatic_linkinvent_7_9_3/rearranged_h_0037.sdf

> <i_m_source_file_index>
12

> <r_mmod_Potential_Energy-OPLS-2005>
36.0158920288086

> <r_mmod_Stretch_Energy-OPLS-2005>
85.3219604492188

> <r_mmod_Bend_Energy-OPLS-2005>
191.233200073242

> <r_mmod_Torsional_Energy-OPLS-2005>
271.426208496094

> <r_mmod_Improper_Torsional_Energy-OPLS-2005>
5.98897457122803

> <r_mmod_Van_der_Waal_Energy-OPLS-2005>
138.428680419922

> <r_mmod_Electrostatic_Energy-OPLS-2005>
-278.688812255859

> <r_mmod_Solvation_Energy-OPLS-2005>
-418.017181396484

> <b_mmod_Minimization_Converged-OPLS-2005>
0

> <r_mmod_RMS_Derivative-OPLS-2005>
5.17816781997681

$$$$
12
                    3D
 Structure written by MMmdl.
167176  0  0  1  0            999 V2000
  -30.6065  -14.7337   20.4194 C   0  0  0  0  0  0
  -30.4191  -12.4512   19.4598 C   0  0  0  0  0  0
  -29.4989  -12.5035   18.2223 C   0  0  0  0  0  0
  -28.0195  -12.3476   18.6293 C   0  0  0  0  0  0
  -27.6287  -13.2390   19.8387 C   0  0  2  0  0  0
  -28.6729  -13.1760   20.9695 C   0  0  0  0  0  0
  -25.2437  -13.8189   20.5714 C   0  0  0  0  0  0
  -24.1750  -13.0434   20.9207 C   0  0  0  0  0  0
  -24.6367  -11.6920   20.8744 C   0  0  0  0  0  0
  -23.9069  -10.4290   21.0406 C   0  0  0  0  0  0
  -24.3629   -9.4213   21.9191 C   0  0  0  0  0  0
  -23.6312   -8.2247   22.0749 C   0  0  0  0  0  0
  -22.4292   -8.0280   21.3543 C   0  0  0  0  0  0
  -21.9931   -9.0248   20.4644 C   0  0  0  0  0  0
  -22.7243  -10.2129   20.3055 C   0  0  0  0  0  0
  -21.6846   -6.0760   22.5300 C   0  0  0  0  0  0
  -21.4006   -6.5660   23.8241 C   0  0  0  0  0  0
  -21.3657   -5.6794   24.9188 C   0  0  0  0  0  0
  -21.6039   -4.3062   24.7226 C   0  0  0  0  0  0
  -21.8820   -3.8170   23.4345 C   0  0  0  0  0  0
  -21.9194   -4.6989   22.3407 C   0  0  0  0  0  0
  -22.7782  -13.5202   21.1895 C   0  0  0  0  0  0
  -22.1665   -4.2187   21.0981 F   0  0  0  0  0  0
  -21.5624   -3.4543   25.7739 F   0  0  0  0  0  0
  -29.9655  -13.5210   20.3710 N   0  0  0  0  0  0
  -26.2864  -12.9424   20.3243 N   0  0  0  0  0  0
  -25.9290  -11.6559   20.5722 N   0  0  0  0  0  0
  -22.0455  -12.8170   22.0438 N   0  0  0  0  0  0
  -25.4084  -15.1931   20.4207 N   0  0  0  0  0  0
  -31.8309  -14.7252   20.3452 O   0  0  0  0  0  0
  -21.6633   -6.8897   21.4261 O   0  0  0  0  0  0
  -22.3477  -14.5523   20.6763 O   0  0  0  0  0  0
  -24.6236  -31.8582   23.1994 C   0  0  0  0  0  0
  -25.9076  -32.4783   23.8308 C   0  0  1  0  0  0
  -27.2084  -27.2487   20.1519 C   0  0  0  0  0  0
  -25.5920  -33.8579   24.2281 N   0  0  0  0  0  0
  -23.4224  -30.4694   21.5492 C   0  0  2  0  0  0
  -24.8671  -28.9087   20.1235 C   0  0  0  0  0  0
  -22.7496  -29.4505   22.4970 C   0  0  0  0  0  0
  -18.0278  -28.1293   22.8447 C   0  0  0  0  0  0
  -24.1507  -36.7238   23.2651 C   0  0  0  0  0  0
  -25.9639  -30.7692   21.3741 C   0  0  0  0  0  0
  -26.0394  -29.3861   20.7230 C   0  0  0  0  0  0
  -27.2158  -28.5696   20.7171 C   0  0  0  0  0  0
  -26.0141  -26.8241   19.5398 C   0  0  0  0  0  0
  -24.8581  -27.6347   19.5226 C   0  0  0  0  0  0
  -23.6389  -29.8022   20.1646 C   0  0  0  0  0  0
  -25.4135  -36.3094   24.0368 C   0  0  1  0  0  0
  -20.5887  -28.3562   23.1316 C   0  0  2  0  0  0
  -20.6751  -26.9262   22.5418 C   0  0  0  0  0  0
  -19.5748  -26.6303   21.5179 C   0  0  0  0  0  0
  -18.1916  -26.7828   22.1586 C   0  0  0  0  0  0
  -19.1539  -28.8732   23.2860 C   0  0  0  0  0  0
  -18.9467  -30.1336   23.8860 C   0  0  0  0  0  0
  -17.6467  -30.6503   24.0492 C   0  0  0  0  0  0
  -25.9061  -34.9461   23.5144 C   0  0  0  0  0  0
  -16.5349  -29.8981   23.6328 C   0  0  0  0  0  0
  -16.7252  -28.6401   23.0342 C   0  0  0  0  0  0
  -26.4468  -31.6609   25.0671 C   0  0  0  0  0  0
  -25.3690  -31.3739   26.1384 C   0  0  0  0  0  0
  -27.0329  -30.3092   24.6033 C   0  0  0  0  0  0
  -27.6042  -32.4328   25.7449 C   0  0  0  0  0  0
  -27.5592  -37.1760   24.8480 C   0  0  0  0  0  0
  -21.4198  -29.2946   22.3749 N   0  0  0  0  0  0
  -26.4308  -37.3796   23.9435 N   0  0  0  0  0  0
  -24.6903  -31.0506   22.0968 N   0  0  0  0  0  0
  -23.4222  -28.8012   23.3021 O   0  0  0  0  0  0
  -28.3520  -26.4279   20.0862 O   0  0  0  0  0  0
  -26.5605  -34.8945   22.4694 O   0  0  0  0  0  0
  -23.5390  -32.1411   23.7294 O   0  0  0  0  0  0
  -31.5914  -19.1637   19.1874 C   0  0  0  0  0  0
  -30.6216  -20.1555   19.3977 C   0  0  0  0  0  0
  -31.3412  -17.7921   19.3805 C   0  0  0  0  0  0
  -29.3251  -19.8041   19.8316 C   0  0  0  0  0  0
  -30.1262  -17.3376   19.9897 C   0  0  0  0  0  0
  -29.1185  -18.3887   20.1653 C   0  0  0  0  0  0
  -28.6569  -22.2266   21.9227 C   0  0  0  0  0  0
  -28.5937  -21.0922   22.6469 C   0  0  0  0  0  0
  -29.0669  -23.5787   22.5096 C   0  0  0  0  0  0
  -28.2346  -24.7863   22.0259 C   0  0  0  0  0  0
  -28.0579  -23.6395   19.7491 C   0  0  0  0  0  0
  -28.4754  -24.9868   20.5325 C   0  0  1  0  0  0
  -30.9845  -21.5850   19.0346 C   0  0  0  0  0  0
  -32.3992  -16.8906   18.7755 C   0  0  0  0  0  0
  -28.1857  -20.9353   19.7092 C   0  0  0  0  0  0
  -29.8393  -15.8972   20.3268 N   0  0  0  0  0  0
  -28.1567  -22.2737   20.4973 N   0  3  1  0  0  0
  -27.5657  -17.8870   20.7379 Cl  0  0  0  0  0  0
  -31.4582  -12.5844   19.1535 H   0  0  0  0  0  0
  -30.3676  -11.4803   19.9572 H   0  0  0  0  0  0
  -29.7764  -11.7276   17.5081 H   0  0  0  0  0  0
  -29.6321  -13.4576   17.7080 H   0  0  0  0  0  0
  -27.8473  -11.2967   18.8643 H   0  0  0  0  0  0
  -27.3736  -12.5725   17.7798 H   0  0  0  0  0  0
  -27.6130  -14.2608   19.4600 H   0  0  0  0  0  0
  -28.7095  -12.1791   21.4074 H   0  0  0  0  0  0
  -28.4160  -13.8618   21.7781 H   0  0  0  0  0  0
  -25.2773   -9.5699   22.4767 H   0  0  0  0  0  0
  -24.0037   -7.4632   22.7462 H   0  0  0  0  0  0
  -21.0874   -8.8753   19.8940 H   0  0  0  0  0  0
  -22.3705  -10.9669   19.6167 H   0  0  0  0  0  0
  -21.1989   -7.6167   23.9755 H   0  0  0  0  0  0
  -21.1474   -6.0522   25.9089 H   0  0  0  0  0  0
  -22.0594   -2.7642   23.2829 H   0  0  0  0  0  0
  -22.4074  -11.9807   22.4779 H   0  0  0  0  0  0
  -21.1073  -13.1172   22.2676 H   0  0  0  0  0  0
  -24.6443  -15.8405   20.5738 H   0  0  0  0  0  0
  -26.2679  -15.6577   20.1659 H   0  0  0  0  0  0
  -26.7094  -32.5446   23.0992 H   0  0  0  0  0  0
  -25.0161  -33.9734   25.0486 H   0  0  0  0  0  0
  -22.7145  -31.2881   21.4050 H   0  0  0  0  0  0
  -23.3836  -35.9495   23.3322 H   0  0  0  0  0  0
  -24.3601  -36.8845   22.2064 H   0  0  0  0  0  0
  -23.7175  -37.6404   23.6660 H   0  0  0  0  0  0
  -26.0931  -31.5299   20.6034 H   0  0  0  0  0  0
  -26.8454  -30.8267   22.0025 H   0  0  0  0  0  0
  -28.1231  -28.9357   21.1756 H   0  0  0  0  0  0
  -25.9767  -25.8589   19.0559 H   0  0  0  0  0  0
  -23.9627  -27.2664   19.0459 H   0  0  0  0  0  0
  -23.7653  -30.5866   19.4164 H   0  0  0  0  0  0
  -22.7528  -29.2464   19.8554 H   0  0  0  0  0  0
  -25.1312  -36.1961   25.0866 H   0  0  0  0  0  0
  -20.9937  -28.3039   24.1465 H   0  0  0  0  0  0
  -20.5654  -26.2076   23.3574 H   0  0  0  0  0  0
  -21.6608  -26.7277   22.1192 H   0  0  0  0  0  0
  -19.6920  -25.6245   21.1148 H   0  0  0  0  0  0
  -19.6731  -27.3144   20.6734 H   0  0  0  0  0  0
  -17.4197  -26.6562   21.3975 H   0  0  0  0  0  0
  -18.0267  -25.9978   22.9004 H   0  0  0  0  0  0
  -19.7965  -30.7110   24.2233 H   0  0  0  0  0  0
  -17.5049  -31.6227   24.5014 H   0  0  0  0  0  0
  -15.5350  -30.2852   23.7682 H   0  0  0  0  0  0
  -15.8655  -28.0696   22.7082 H   0  0  0  0  0  0
  -24.5930  -30.7015   25.7701 H   0  0  0  0  0  0
  -24.8739  -32.2891   26.4674 H   0  0  0  0  0  0
  -25.7982  -30.9033   27.0240 H   0  0  0  0  0  0
  -26.2865  -29.6855   24.1088 H   0  0  0  0  0  0
  -27.4201  -29.7316   25.4424 H   0  0  0  0  0  0
  -27.8674  -30.4527   23.9151 H   0  0  0  0  0  0
  -27.2721  -33.3734   26.1869 H   0  0  0  0  0  0
  -28.3920  -32.6700   25.0285 H   0  0  0  0  0  0
  -28.0611  -31.8511   26.5475 H   0  0  0  0  0  0
  -28.2565  -38.0091   24.7594 H   0  0  0  0  0  0
  -28.1146  -36.2628   24.6268 H   0  0  0  0  0  0
  -27.2300  -37.1321   25.8873 H   0  0  0  0  0  0
  -20.9308  -29.8764   21.7082 H   0  0  0  0  0  0
  -26.0228  -38.2880   24.1483 H   0  0  0  0  0  0
  -32.5446  -19.4657   18.7723 H   0  0  0  0  0  0
  -28.8755  -21.0755   23.6874 H   0  0  0  0  0  0
  -28.2531  -20.1537   22.2396 H   0  0  0  0  0  0
  -30.1261  -23.7293   22.2924 H   0  0  0  0  0  0
  -29.0042  -23.5167   23.5969 H   0  0  0  0  0  0
  -28.5536  -25.6747   22.5712 H   0  0  0  0  0  0
  -27.1729  -24.6495   22.2411 H   0  0  0  0  0  0
  -28.6207  -23.5909   18.8196 H   0  0  0  0  0  0
  -27.0158  -23.7370   19.4489 H   0  0  0  0  0  0
  -29.5626  -24.9401   20.4444 H   0  0  0  0  0  0
  -30.3982  -21.9251   18.1815 H   0  0  0  0  0  0
  -32.0370  -21.6651   18.7652 H   0  0  0  0  0  0
  -30.8225  -22.2622   19.8719 H   0  0  0  0  0  0
  -32.9353  -17.4041   17.9784 H   0  0  0  0  0  0
  -31.9419  -16.0238   18.3003 H   0  0  0  0  0  0
  -33.1383  -16.5878   19.5176 H   0  0  0  0  0  0
  -27.2338  -20.4571   19.9316 H   0  0  0  0  0  0
  -28.1051  -21.1682   18.6476 H   0  0  0  0  0  0
  -28.8605  -15.7218   20.4897 H   0  0  0  0  0  0
  -27.1620  -22.2366   20.6545 H   0  0  0  0  0  0
  1 25  1  0  0  0
  1 30  2  0  0  0
  1 86  1  0  0  0
  2  3  1  0  0  0
  2 25  1  0  0  0
  2 89  1  0  0  0
  2 90  1  0  0  0
  3  4  1  0  0  0
  3 91  1  0  0  0
  3 92  1  0  0  0
  4  5  1  0  0  0
  4 93  1  0  0  0
  4 94  1  0  0  0
  5  6  1  0  0  0
  5 26  1  0  0  0
  5 95  1  0  0  0
  6 25  1  0  0  0
  6 96  1  0  0  0
  6 97  1  0  0  0
  7  8  2  0  0  0
  7 26  1  0  0  0
  7 29  1  0  0  0
  8  9  1  0  0  0
  8 22  1  0  0  0
  9 10  1  0  0  0
  9 27  2  0  0  0
 10 11  2  0  0  0
 10 15  1  0  0  0
 11 12  1  0  0  0
 11 98  1  0  0  0
 12 13  2  0  0  0
 12 99  1  0  0  0
 13 14  1  0  0  0
 13 31  1  0  0  0
 14 15  2  0  0  0
 14100  1  0  0  0
 15101  1  0  0  0
 16 17  2  0  0  0
 16 21  1  0  0  0
 16 31  1  0  0  0
 17 18  1  0  0  0
 17102  1  0  0  0
 18 19  2  0  0  0
 18103  1  0  0  0
 19 20  1  0  0  0
 19 24  1  0  0  0
 20 21  2  0  0  0
 20104  1  0  0  0
 21 23  1  0  0  0
 22 28  1  0  0  0
 22 32  2  0  0  0
 26 27  1  0  0  0
 28105  1  0  0  0
 28106  1  0  0  0
 29107  1  0  0  0
 29108  1  0  0  0
 33 34  1  0  0  0
 33 66  1  0  0  0
 33 70  2  0  0  0
 34 36  1  0  0  0
 34 59  1  0  0  0
 34109  1  0  0  0
 35 44  2  0  0  0
 35 45  1  0  0  0
 35 68  1  0  0  0
 36 56  1  0  0  0
 36110  1  0  0  0
 37 39  1  0  0  0
 37 47  1  0  0  0
 37 66  1  0  0  0
 37111  1  0  0  0
 38 43  2  0  0  0
 38 46  1  0  0  0
 38 47  1  0  0  0
 39 64  1  0  0  0
 39 67  2  0  0  0
 40 52  1  0  0  0
 40 53  2  0  0  0
 40 58  1  0  0  0
 41112  1  0  0  0
 41113  1  0  0  0
 41114  1  0  0  0
 41 48  1  0  0  0
 42 43  1  0  0  0
 42 66  1  0  0  0
 42115  1  0  0  0
 42116  1  0  0  0
 43 44  1  0  0  0
 44117  1  0  0  0
 45 46  2  0  0  0
 45118  1  0  0  0
 46119  1  0  0  0
 47120  1  0  0  0
 47121  1  0  0  0
 48 56  1  0  0  0
 48 65  1  0  0  0
 48122  1  0  0  0
 49 50  1  0  0  0
 49 53  1  0  0  0
 49 64  1  0  0  0
 49123  1  0  0  0
 50 51  1  0  0  0
 50124  1  0  0  0
 50125  1  0  0  0
 51 52  1  0  0  0
 51126  1  0  0  0
 51127  1  0  0  0
 52128  1  0  0  0
 52129  1  0  0  0
 53 54  1  0  0  0
 54 55  2  0  0  0
 54130  1  0  0  0
 55 57  1  0  0  0
 55131  1  0  0  0
 56 69  2  0  0  0
 57 58  2  0  0  0
 57132  1  0  0  0
 58133  1  0  0  0
 59 60  1  0  0  0
 59 61  1  0  0  0
 59 62  1  0  0  0
 60134  1  0  0  0
 60135  1  0  0  0
 60136  1  0  0  0
 61137  1  0  0  0
 61138  1  0  0  0
 61139  1  0  0  0
 62140  1  0  0  0
 62141  1  0  0  0
 62142  1  0  0  0
 63 65  1  0  0  0
 63143  1  0  0  0
 63144  1  0  0  0
 63145  1  0  0  0
 64146  1  0  0  0
 65147  1  0  0  0
 68 82  1  0  0  0
 71 72  2  0  0  0
 71 73  1  0  0  0
 71148  1  0  0  0
 72 74  1  0  0  0
 72 83  1  0  0  0
 73 75  2  0  0  0
 73 84  1  0  0  0
 74 76  2  0  0  0
 74 85  1  0  0  0
 75 76  1  0  0  0
 75 86  1  0  0  0
 76 88  1  0  0  0
 77 78  2  0  0  0
 77 79  1  0  0  0
 77 87  1  0  0  0
 78149  1  0  0  0
 78150  1  0  0  0
 79 80  1  0  0  0
 79151  1  0  0  0
 79152  1  0  0  0
 80 82  1  0  0  0
 80153  1  0  0  0
 80154  1  0  0  0
 81 82  1  0  0  0
 81 87  1  0  0  0
 81155  1  0  0  0
 81156  1  0  0  0
 82157  1  0  0  0
 83158  1  0  0  0
 83159  1  0  0  0
 83160  1  0  0  0
 84161  1  0  0  0
 84162  1  0  0  0
 84163  1  0  0  0
 85164  1  0  0  0
 85165  1  0  0  0
 85 87  1  0  0  0
 86166  1  0  0  0
 87167  1  0  0  0
M  CHG  1  87   1
M  ISO  4   1 100  68 101  82 101  86 100
M  END
> <chiral flag>
0

> <version>
0

> <s_m_source_file>
/data/baiqing/PycharmProjects/Reinvent-master-3.2/result/LINK_invent/BTK/process_docking_weight1_custom_product_contain_oxygen_bond_distance_aromatic_linkinvent_7_9_3/rearranged_h_0037.sdf

> <i_m_source_file_index>
13

> <r_mmod_Potential_Energy-OPLS-2005>
209.14631652832

> <r_mmod_Stretch_Energy-OPLS-2005>
145.928237915039

> <r_mmod_Bend_Energy-OPLS-2005>
276.817138671875

> <r_mmod_Torsional_Energy-OPLS-2005>
277.969604492188

> <r_mmod_Improper_Torsional_Energy-OPLS-2005>
7.00930500030518

> <r_mmod_Van_der_Waal_Energy-OPLS-2005>
149.556060791016

> <r_mmod_Electrostatic_Energy-OPLS-2005>
-316.141815185547

> <r_mmod_Solvation_Energy-OPLS-2005>
-419.691467285156

> <b_mmod_Minimization_Converged-OPLS-2005>
0

> <r_mmod_RMS_Derivative-OPLS-2005>
5.1104564666748

$$$$
13
                    3D
 Structure written by MMmdl.
167176  0  0  1  0            999 V2000
  -30.6477  -14.6465   20.5215 C   0  0  0  0  0  0
  -30.4387  -12.3995   19.4599 C   0  0  0  0  0  0
  -29.5100  -12.5293   18.2322 C   0  0  0  0  0  0
  -28.0285  -12.3856   18.6307 C   0  0  0  0  0  0
  -27.6593  -13.2329   19.8768 C   0  0  2  0  0  0
  -28.7076  -13.0825   21.0081 C   0  0  0  0  0  0
  -25.2554  -13.8228   20.5757 C   0  0  0  0  0  0
  -24.1847  -13.0477   20.9203 C   0  0  0  0  0  0
  -24.6439  -11.6944   20.8753 C   0  0  0  0  0  0
  -23.9124  -10.4347   21.0392 C   0  0  0  0  0  0
  -24.3666   -9.4261   21.9182 C   0  0  0  0  0  0
  -23.6377   -8.2288   22.0767 C   0  0  0  0  0  0
  -22.4349   -8.0306   21.3575 C   0  0  0  0  0  0
  -21.9965   -9.0271   20.4660 C   0  0  0  0  0  0
  -22.7279  -10.2152   20.3065 C   0  0  0  0  0  0
  -21.6895   -6.0760   22.5306 C   0  0  0  0  0  0
  -21.4010   -6.5657   23.8225 C   0  0  0  0  0  0
  -21.3672   -5.6792   24.9192 C   0  0  0  0  0  0
  -21.6057   -4.3069   24.7230 C   0  0  0  0  0  0
  -21.8840   -3.8173   23.4351 C   0  0  0  0  0  0
  -21.9207   -4.7008   22.3406 C   0  0  0  0  0  0
  -22.7856  -13.5177   21.1873 C   0  0  0  0  0  0
  -22.1699   -4.2181   21.0989 F   0  0  0  0  0  0
  -21.5636   -3.4546   25.7748 F   0  0  0  0  0  0
  -30.0314  -13.4205   20.4528 N   0  0  0  0  0  0
  -26.3046  -12.9455   20.3454 N   0  0  0  0  0  0
  -25.9369  -11.6607   20.5821 N   0  0  0  0  0  0
  -22.0557  -12.8146   22.0437 N   0  0  0  0  0  0
  -25.4121  -15.1990   20.4122 N   0  0  0  0  0  0
  -31.7576  -14.8127   20.0133 O   0  0  0  0  0  0
  -21.6723   -6.8905   21.4262 O   0  0  0  0  0  0
  -22.3497  -14.5519   20.6746 O   0  0  0  0  0  0
  -24.6307  -31.8575   23.2024 C   0  0  0  0  0  0
  -25.9130  -32.4730   23.8406 C   0  0  1  0  0  0
  -27.2361  -27.3471   20.0897 C   0  0  0  0  0  0
  -25.5964  -33.8532   24.2336 N   0  0  0  0  0  0
  -23.4211  -30.4825   21.5407 C   0  0  2  0  0  0
  -24.8674  -28.9293   20.1145 C   0  0  0  0  0  0
  -22.7475  -29.4638   22.4906 C   0  0  0  0  0  0
  -18.0300  -28.1361   22.8448 C   0  0  0  0  0  0
  -24.1475  -36.7295   23.2648 C   0  0  0  0  0  0
  -25.9607  -30.7941   21.3708 C   0  0  0  0  0  0
  -26.0338  -29.4231   20.7116 C   0  0  0  0  0  0
  -27.2278  -28.6474   20.6762 C   0  0  0  0  0  0
  -26.0447  -26.8819   19.4999 C   0  0  0  0  0  0
  -24.8739  -27.6644   19.5007 C   0  0  0  0  0  0
  -23.6356  -29.8091   20.1585 C   0  0  0  0  0  0
  -25.4084  -36.3036   24.0327 C   0  0  1  0  0  0
  -20.5905  -28.3677   23.1223 C   0  0  2  0  0  0
  -20.6772  -26.9383   22.5361 C   0  0  0  0  0  0
  -19.5754  -26.6361   21.5151 C   0  0  0  0  0  0
  -18.1946  -26.7893   22.1583 C   0  0  0  0  0  0
  -19.1554  -28.8819   23.2847 C   0  0  0  0  0  0
  -18.9475  -30.1441   23.8830 C   0  0  0  0  0  0
  -17.6479  -30.6546   24.0545 C   0  0  0  0  0  0
  -25.9032  -34.9403   23.5111 C   0  0  0  0  0  0
  -16.5371  -29.9030   23.6334 C   0  0  0  0  0  0
  -16.7298  -28.6473   23.0299 C   0  0  0  0  0  0
  -26.4521  -31.6545   25.0779 C   0  0  0  0  0  0
  -25.3811  -31.3677   26.1577 C   0  0  0  0  0  0
  -27.0440  -30.2982   24.6233 C   0  0  0  0  0  0
  -27.6063  -32.4304   25.7571 C   0  0  0  0  0  0
  -27.5550  -37.1794   24.8447 C   0  0  0  0  0  0
  -21.4199  -29.3054   22.3630 N   0  0  0  0  0  0
  -26.4251  -37.3732   23.9415 N   0  0  0  0  0  0
  -24.6876  -31.0624   22.0934 N   0  0  0  0  0  0
  -23.4188  -28.8168   23.2990 O   0  0  0  0  0  0
  -28.3840  -26.5650   19.9879 O   0  0  0  0  0  0
  -26.5553  -34.8870   22.4655 O   0  0  0  0  0  0
  -23.5482  -32.1345   23.7377 O   0  0  0  0  0  0
  -28.4590  -19.1082   20.4809 C   0  0  0  0  0  0
  -28.6375  -17.7218   20.7327 C   0  0  0  0  0  0
  -29.5488  -20.0088   20.4035 C   0  0  0  0  0  0
  -30.8417  -19.4413   20.6584 C   0  0  0  0  0  0
  -31.0290  -18.0232   20.9023 C   0  0  0  0  0  0
  -29.9142  -17.1202   20.8818 C   0  0  0  0  0  0
  -29.5038  -22.8938   21.9811 C   0  0  0  0  0  0
  -29.2673  -22.1306   23.0642 C   0  0  0  0  0  0
  -30.4107  -24.1229   21.9579 C   0  0  0  0  0  0
  -29.7157  -25.4414   21.5313 C   0  0  0  0  0  0
  -28.6415  -23.9303   19.8235 C   0  0  0  0  0  0
  -28.4536  -25.2624   20.6673 C   0  0  2  0  0  0
  -32.0538  -20.3667   20.5883 C   0  0  0  0  0  0
  -32.4353  -17.4817   21.1853 C   0  0  0  0  0  0
  -29.3264  -21.4713   19.8230 C   0  0  0  0  0  0
  -29.9444  -15.6689   21.1091 N   0  0  0  0  0  0
  -28.8235  -22.6526   20.6524 N   0  3  1  0  0  0
  -31.4715  -12.5276   19.1419 H   0  0  0  0  0  0
  -30.3790  -11.4017   19.8947 H   0  0  0  0  0  0
  -29.7673  -11.7895   17.4720 H   0  0  0  0  0  0
  -29.6707  -13.5050   17.7720 H   0  0  0  0  0  0
  -27.8298  -11.3318   18.8290 H   0  0  0  0  0  0
  -27.3958  -12.6713   17.7863 H   0  0  0  0  0  0
  -27.6692  -14.2760   19.5572 H   0  0  0  0  0  0
  -28.7188  -12.0681   21.4034 H   0  0  0  0  0  0
  -28.4442  -13.7124   21.8570 H   0  0  0  0  0  0
  -25.2801   -9.5789   22.4738 H   0  0  0  0  0  0
  -24.0144   -7.4678   22.7453 H   0  0  0  0  0  0
  -21.0930   -8.8736   19.8930 H   0  0  0  0  0  0
  -22.3718  -10.9683   19.6181 H   0  0  0  0  0  0
  -21.1973   -7.6154   23.9725 H   0  0  0  0  0  0
  -21.1482   -6.0547   25.9085 H   0  0  0  0  0  0
  -22.0594   -2.7640   23.2867 H   0  0  0  0  0  0
  -22.4246  -11.9776   22.4742 H   0  0  0  0  0  0
  -21.1144  -13.1115   22.2621 H   0  0  0  0  0  0
  -24.6331  -15.8398   20.5091 H   0  0  0  0  0  0
  -26.2412  -15.6522   20.0496 H   0  0  0  0  0  0
  -26.7186  -32.5388   23.1188 H   0  0  0  0  0  0
  -25.0226  -33.9665   25.0549 H   0  0  0  0  0  0
  -22.7174  -31.3035   21.3927 H   0  0  0  0  0  0
  -23.3686  -35.9677   23.3266 H   0  0  0  0  0  0
  -24.3608  -36.8962   22.2080 H   0  0  0  0  0  0
  -23.7260  -37.6499   23.6697 H   0  0  0  0  0  0
  -26.0974  -31.5589   20.6069 H   0  0  0  0  0  0
  -26.8390  -30.8363   22.0039 H   0  0  0  0  0  0
  -28.1386  -29.0440   21.1018 H   0  0  0  0  0  0
  -26.0275  -25.9173   19.0106 H   0  0  0  0  0  0
  -23.9786  -27.2831   19.0286 H   0  0  0  0  0  0
  -23.7554  -30.5791   19.3945 H   0  0  0  0  0  0
  -22.7558  -29.2328   19.8643 H   0  0  0  0  0  0
  -25.1257  -36.1887   25.0803 H   0  0  0  0  0  0
  -21.0012  -28.3224   24.1338 H   0  0  0  0  0  0
  -20.5589  -26.2301   23.3577 H   0  0  0  0  0  0
  -21.6658  -26.7345   22.1221 H   0  0  0  0  0  0
  -19.6919  -25.6254   21.1214 H   0  0  0  0  0  0
  -19.6687  -27.3144   20.6646 H   0  0  0  0  0  0
  -17.4209  -26.6614   21.3996 H   0  0  0  0  0  0
  -18.0379  -26.0023   22.8970 H   0  0  0  0  0  0
  -19.7951  -30.7295   24.2139 H   0  0  0  0  0  0
  -17.5009  -31.6209   24.5194 H   0  0  0  0  0  0
  -15.5356  -30.2909   23.7656 H   0  0  0  0  0  0
  -15.8717  -28.0807   22.6970 H   0  0  0  0  0  0
  -24.5905  -30.7080   25.7974 H   0  0  0  0  0  0
  -24.9143  -32.2873   26.5126 H   0  0  0  0  0  0
  -25.8246  -30.8794   27.0279 H   0  0  0  0  0  0
  -26.3072  -29.6656   24.1270 H   0  0  0  0  0  0
  -27.4189  -29.7287   25.4763 H   0  0  0  0  0  0
  -27.8896  -30.4310   23.9472 H   0  0  0  0  0  0
  -27.2602  -33.3551   26.2218 H   0  0  0  0  0  0
  -28.3875  -32.6944   25.0420 H   0  0  0  0  0  0
  -28.0738  -31.8394   26.5475 H   0  0  0  0  0  0
  -28.2525  -38.0121   24.7489 H   0  0  0  0  0  0
  -28.1074  -36.2650   24.6247 H   0  0  0  0  0  0
  -27.2294  -37.1433   25.8853 H   0  0  0  0  0  0
  -20.9353  -29.8823   21.6908 H   0  0  0  0  0  0
  -26.0104  -38.2798   24.1391 H   0  0  0  0  0  0
  -27.4582  -19.4744   20.2962 H   0  0  0  0  0  0
  -27.7520  -17.1085   20.7947 H   0  0  0  0  0  0
  -29.7582  -22.3359   24.0098 H   0  0  0  0  0  0
  -28.5930  -21.2840   23.0305 H   0  0  0  0  0  0
  -31.2275  -23.9157   21.2667 H   0  0  0  0  0  0
  -30.8861  -24.2633   22.9305 H   0  0  0  0  0  0
  -30.4413  -26.0282   20.9598 H   0  0  0  0  0  0
  -29.4733  -26.0635   22.3929 H   0  0  0  0  0  0
  -29.5304  -24.0510   19.2025 H   0  0  0  0  0  0
  -27.8230  -23.8023   19.1108 H   0  0  0  0  0  0
  -27.5785  -25.1544   21.3159 H   0  0  0  0  0  0
  -31.7942  -21.3935   20.8391 H   0  0  0  0  0  0
  -32.4548  -20.3550   19.5739 H   0  0  0  0  0  0
  -32.8625  -20.0983   21.2648 H   0  0  0  0  0  0
  -33.0123  -18.1337   21.8337 H   0  0  0  0  0  0
  -33.0050  -17.3352   20.2662 H   0  0  0  0  0  0
  -32.4198  -16.5351   21.7293 H   0  0  0  0  0  0
  -28.6211  -21.3566   18.9957 H   0  0  0  0  0  0
  -30.2382  -21.7879   19.3250 H   0  0  0  0  0  0
  -29.1090  -15.3159   21.5508 H   0  0  0  0  0  0
  -27.8817  -22.3689   20.8786 H   0  0  0  0  0  0
  1 25  1  0  0  0
  1 30  2  0  0  0
  1 86  1  0  0  0
  2  3  1  0  0  0
  2 25  1  0  0  0
  2 88  1  0  0  0
  2 89  1  0  0  0
  3  4  1  0  0  0
  3 90  1  0  0  0
  3 91  1  0  0  0
  4  5  1  0  0  0
  4 92  1  0  0  0
  4 93  1  0  0  0
  5  6  1  0  0  0
  5 26  1  0  0  0
  5 94  1  0  0  0
  6 25  1  0  0  0
  6 95  1  0  0  0
  6 96  1  0  0  0
  7  8  2  0  0  0
  7 26  1  0  0  0
  7 29  1  0  0  0
  8  9  1  0  0  0
  8 22  1  0  0  0
  9 10  1  0  0  0
  9 27  2  0  0  0
 10 11  2  0  0  0
 10 15  1  0  0  0
 11 12  1  0  0  0
 11 97  1  0  0  0
 12 13  2  0  0  0
 12 98  1  0  0  0
 13 14  1  0  0  0
 13 31  1  0  0  0
 14 15  2  0  0  0
 14 99  1  0  0  0
 15100  1  0  0  0
 16 17  2  0  0  0
 16 21  1  0  0  0
 16 31  1  0  0  0
 17 18  1  0  0  0
 17101  1  0  0  0
 18 19  2  0  0  0
 18102  1  0  0  0
 19 20  1  0  0  0
 19 24  1  0  0  0
 20 21  2  0  0  0
 20103  1  0  0  0
 21 23  1  0  0  0
 22 28  1  0  0  0
 22 32  2  0  0  0
 26 27  1  0  0  0
 28104  1  0  0  0
 28105  1  0  0  0
 29106  1  0  0  0
 29107  1  0  0  0
 33 34  1  0  0  0
 33 66  1  0  0  0
 33 70  2  0  0  0
 34 36  1  0  0  0
 34 59  1  0  0  0
 34108  1  0  0  0
 35 44  2  0  0  0
 35 45  1  0  0  0
 35 68  1  0  0  0
 36 56  1  0  0  0
 36109  1  0  0  0
 37 39  1  0  0  0
 37 47  1  0  0  0
 37 66  1  0  0  0
 37110  1  0  0  0
 38 43  2  0  0  0
 38 46  1  0  0  0
 38 47  1  0  0  0
 39 64  1  0  0  0
 39 67  2  0  0  0
 40 52  1  0  0  0
 40 53  2  0  0  0
 40 58  1  0  0  0
 41111  1  0  0  0
 41112  1  0  0  0
 41113  1  0  0  0
 41 48  1  0  0  0
 42 43  1  0  0  0
 42 66  1  0  0  0
 42114  1  0  0  0
 42115  1  0  0  0
 43 44  1  0  0  0
 44116  1  0  0  0
 45 46  2  0  0  0
 45117  1  0  0  0
 46118  1  0  0  0
 47119  1  0  0  0
 47120  1  0  0  0
 48 56  1  0  0  0
 48 65  1  0  0  0
 48121  1  0  0  0
 49 50  1  0  0  0
 49 53  1  0  0  0
 49 64  1  0  0  0
 49122  1  0  0  0
 50 51  1  0  0  0
 50123  1  0  0  0
 50124  1  0  0  0
 51 52  1  0  0  0
 51125  1  0  0  0
 51126  1  0  0  0
 52127  1  0  0  0
 52128  1  0  0  0
 53 54  1  0  0  0
 54 55  2  0  0  0
 54129  1  0  0  0
 55 57  1  0  0  0
 55130  1  0  0  0
 56 69  2  0  0  0
 57 58  2  0  0  0
 57131  1  0  0  0
 58132  1  0  0  0
 59 60  1  0  0  0
 59 61  1  0  0  0
 59 62  1  0  0  0
 60133  1  0  0  0
 60134  1  0  0  0
 60135  1  0  0  0
 61136  1  0  0  0
 61137  1  0  0  0
 61138  1  0  0  0
 62139  1  0  0  0
 62140  1  0  0  0
 62141  1  0  0  0
 63 65  1  0  0  0
 63142  1  0  0  0
 63143  1  0  0  0
 63144  1  0  0  0
 64145  1  0  0  0
 65146  1  0  0  0
 68 82  1  0  0  0
 71 72  2  0  0  0
 71 73  1  0  0  0
 71147  1  0  0  0
 72 76  1  0  0  0
 72148  1  0  0  0
 73 74  2  0  0  0
 73 85  1  0  0  0
 74 75  1  0  0  0
 74 83  1  0  0  0
 75 76  2  0  0  0
 75 84  1  0  0  0
 76 86  1  0  0  0
 77 78  2  0  0  0
 77 79  1  0  0  0
 77 87  1  0  0  0
 78149  1  0  0  0
 78150  1  0  0  0
 79 80  1  0  0  0
 79151  1  0  0  0
 79152  1  0  0  0
 80 82  1  0  0  0
 80153  1  0  0  0
 80154  1  0  0  0
 81 82  1  0  0  0
 81 87  1  0  0  0
 81155  1  0  0  0
 81156  1  0  0  0
 82157  1  0  0  0
 83158  1  0  0  0
 83159  1  0  0  0
 83160  1  0  0  0
 84161  1  0  0  0
 84162  1  0  0  0
 84163  1  0  0  0
 85164  1  0  0  0
 85165  1  0  0  0
 85 87  1  0  0  0
 86166  1  0  0  0
 87167  1  0  0  0
M  CHG  1  87   1
M  ISO  4   1 100  68 101  82 101  86 100
M  END
> <chiral flag>
0

> <version>
0

> <s_m_source_file>
/data/baiqing/PycharmProjects/Reinvent-master-3.2/result/LINK_invent/BTK/process_docking_weight1_custom_product_contain_oxygen_bond_distance_aromatic_linkinvent_7_9_3/rearranged_h_0037.sdf

> <i_m_source_file_index>
14

> <r_mmod_Potential_Energy-OPLS-2005>
10.7654047012329

> <r_mmod_Stretch_Energy-OPLS-2005>
90.2346038818359

> <r_mmod_Bend_Energy-OPLS-2005>
169.64909362793

> <r_mmod_Torsional_Energy-OPLS-2005>
274.428863525391

> <r_mmod_Improper_Torsional_Energy-OPLS-2005>
5.75470876693726

> <r_mmod_Van_der_Waal_Energy-OPLS-2005>
147.696640014648

> <r_mmod_Electrostatic_Energy-OPLS-2005>
-294.861694335938

> <r_mmod_Solvation_Energy-OPLS-2005>
-422.325714111328

> <b_mmod_Minimization_Converged-OPLS-2005>
0

> <r_mmod_RMS_Derivative-OPLS-2005>
6.85050201416016

$$$$
14
                    3D
 Structure written by MMmdl.
158167  0  0  1  0            999 V2000
  -30.5796  -14.6643   20.5009 C   0  0  0  0  0  0
  -30.4488  -12.4111   19.4560 C   0  0  0  0  0  0
  -29.5159  -12.4992   18.2254 C   0  0  0  0  0  0
  -28.0320  -12.3546   18.6277 C   0  0  0  0  0  0
  -27.6553  -13.2146   19.8646 C   0  0  2  0  0  0
  -28.6971  -13.0468   20.9927 C   0  0  0  0  0  0
  -25.2572  -13.8172   20.5610 C   0  0  0  0  0  0
  -24.1833  -13.0453   20.9132 C   0  0  0  0  0  0
  -24.6383  -11.6916   20.8700 C   0  0  0  0  0  0
  -23.9035  -10.4306   21.0381 C   0  0  0  0  0  0
  -24.3608   -9.4244   21.9167 C   0  0  0  0  0  0
  -23.6305   -8.2273   22.0752 C   0  0  0  0  0  0
  -22.4292   -8.0296   21.3541 C   0  0  0  0  0  0
  -21.9898   -9.0255   20.4638 C   0  0  0  0  0  0
  -22.7202  -10.2140   20.3036 C   0  0  0  0  0  0
  -21.6876   -6.0750   22.5268 C   0  0  0  0  0  0
  -21.4029   -6.5656   23.8205 C   0  0  0  0  0  0
  -21.3646   -5.6802   24.9153 C   0  0  0  0  0  0
  -21.6037   -4.3065   24.7202 C   0  0  0  0  0  0
  -21.8837   -3.8162   23.4326 C   0  0  0  0  0  0
  -21.9214   -4.6979   22.3383 C   0  0  0  0  0  0
  -22.7861  -13.5249   21.1797 C   0  0  0  0  0  0
  -22.1677   -4.2171   21.0959 F   0  0  0  0  0  0
  -21.5609   -3.4534   25.7708 F   0  0  0  0  0  0
  -30.0070  -13.4211   20.4399 N   0  0  0  0  0  0
  -26.2991  -12.9329   20.3281 N   0  0  0  0  0  0
  -25.9321  -11.6491   20.5744 N   0  0  0  0  0  0
  -22.0514  -12.8252   22.0362 N   0  0  0  0  0  0
  -25.4314  -15.1882   20.3991 N   0  0  0  0  0  0
  -31.7193  -14.8665   20.0680 O   0  0  0  0  0  0
  -21.6676   -6.8885   21.4229 O   0  0  0  0  0  0
  -22.3559  -14.5572   20.6667 O   0  0  0  0  0  0
  -24.6230  -31.8595   23.1967 C   0  0  0  0  0  0
  -25.9068  -32.4792   23.8302 C   0  0  1  0  0  0
  -27.2522  -27.3438   20.1145 C   0  0  0  0  0  0
  -25.5883  -33.8587   24.2236 N   0  0  0  0  0  0
  -23.4183  -30.4797   21.5359 C   0  0  2  0  0  0
  -24.8718  -28.9180   20.1273 C   0  0  0  0  0  0
  -22.7425  -29.4675   22.4921 C   0  0  0  0  0  0
  -18.0290  -28.1435   22.8553 C   0  0  0  0  0  0
  -24.1462  -36.7256   23.2646 C   0  0  0  0  0  0
  -25.9550  -30.8004   21.3606 C   0  0  0  0  0  0
  -26.0387  -29.4210   20.7201 C   0  0  0  0  0  0
  -27.2323  -28.6435   20.7055 C   0  0  0  0  0  0
  -26.0632  -26.8730   19.5256 C   0  0  0  0  0  0
  -24.8804  -27.6458   19.5316 C   0  0  0  0  0  0
  -23.6350  -29.7944   20.1600 C   0  0  0  0  0  0
  -25.4089  -36.3079   24.0331 C   0  0  1  0  0  0
  -20.5883  -28.3712   23.1295 C   0  0  2  0  0  0
  -20.6792  -26.9439   22.5422 C   0  0  0  0  0  0
  -19.5748  -26.6439   21.5241 C   0  0  0  0  0  0
  -18.1917  -26.8009   22.1635 C   0  0  0  0  0  0
  -19.1542  -28.8873   23.2948 C   0  0  0  0  0  0
  -18.9509  -30.1496   23.8932 C   0  0  0  0  0  0
  -17.6515  -30.6653   24.0599 C   0  0  0  0  0  0
  -25.9021  -34.9470   23.5080 C   0  0  0  0  0  0
  -16.5383  -29.9182   23.6365 C   0  0  0  0  0  0
  -16.7277  -28.6586   23.0391 C   0  0  0  0  0  0
  -26.4461  -31.6614   25.0671 C   0  0  0  0  0  0
  -25.3707  -31.3807   26.1399 C   0  0  0  0  0  0
  -27.0281  -30.3047   24.6094 C   0  0  0  0  0  0
  -27.5994  -32.4357   25.7469 C   0  0  0  0  0  0
  -27.5548  -37.1774   24.8468 C   0  0  0  0  0  0
  -21.4140  -29.3087   22.3664 N   0  0  0  0  0  0
  -26.4255  -37.3786   23.9435 N   0  0  0  0  0  0
  -24.6835  -31.0627   22.0897 N   0  0  0  0  0  0
  -23.4144  -28.8215   23.3002 O   0  0  0  0  0  0
  -28.4003  -26.5487   20.0424 O   0  0  0  0  0  0
  -26.5623  -34.8953   22.4663 O   0  0  0  0  0  0
  -23.5402  -32.1362   23.7327 O   0  0  0  0  0  0
  -28.8879  -19.3916   21.2956 C   0  0  0  0  0  0
  -30.0205  -17.6755   19.4055 C   0  0  0  0  0  0
  -29.1801  -19.9651   20.0255 C   0  0  0  0  0  0
  -29.7090  -17.1155   20.6695 C   0  0  0  0  0  0
  -29.1606  -18.0269   21.6161 C   0  0  0  0  0  0
  -29.7695  -19.0476   19.0908 C   0  0  0  0  0  0
  -28.4583  -23.9355   19.8214 C   0  0  0  0  0  0
  -29.5843  -23.9434   22.4980 C   0  0  0  0  0  0
  -29.6099  -25.2278   21.6652 C   0  0  0  0  0  0
  -29.5916  -22.6511   21.6439 C   0  0  0  0  0  0
  -28.4049  -25.2395   20.7245 C   0  0  1  0  0  0
  -28.7100  -21.4248   19.5798 C   0  0  0  0  0  0
  -28.8643  -22.7219   20.3617 N   0  0  0  0  0  0
  -29.7819  -15.6774   20.9718 N   0  0  0  0  0  0
  -28.0791  -24.0258   18.6494 O   0  0  0  0  0  0
  -28.7796  -17.4759   23.2110 Cl  0  0  0  0  0  0
  -30.1467  -19.5388   17.4765 Cl  0  0  0  0  0  0
  -31.4852  -12.5679   19.1525 H   0  0  0  0  0  0
  -30.4153  -11.4154   19.8996 H   0  0  0  0  0  0
  -29.7804  -11.7220   17.5054 H   0  0  0  0  0  0
  -29.6677  -13.4522   17.7158 H   0  0  0  0  0  0
  -27.8499  -11.3016   18.8439 H   0  0  0  0  0  0
  -27.3901  -12.6045   17.7813 H   0  0  0  0  0  0
  -27.6784  -14.2536   19.5359 H   0  0  0  0  0  0
  -28.7221  -12.0120   21.3380 H   0  0  0  0  0  0
  -28.4354  -13.6416   21.8683 H   0  0  0  0  0  0
  -25.2753   -9.5767   22.4726 H   0  0  0  0  0  0
  -24.0052   -7.4687   22.7472 H   0  0  0  0  0  0
  -21.0836   -8.8737   19.8950 H   0  0  0  0  0  0
  -22.3634  -10.9670   19.6149 H   0  0  0  0  0  0
  -21.2033   -7.6171   23.9706 H   0  0  0  0  0  0
  -21.1430   -6.0520   25.9055 H   0  0  0  0  0  0
  -22.0634   -2.7630   23.2796 H   0  0  0  0  0  0
  -22.4154  -11.9915   22.4722 H   0  0  0  0  0  0
  -21.1143  -13.1283   22.2587 H   0  0  0  0  0  0
  -24.6671  -15.8458   20.5012 H   0  0  0  0  0  0
  -26.2743  -15.6161   20.0391 H   0  0  0  0  0  0
  -26.7138  -32.5458   23.1057 H   0  0  0  0  0  0
  -25.0011  -33.9742   25.0373 H   0  0  0  0  0  0
  -22.7143  -31.3015   21.3814 H   0  0  0  0  0  0
  -23.3758  -35.9555   23.3311 H   0  0  0  0  0  0
  -24.3554  -36.8872   22.2065 H   0  0  0  0  0  0
  -23.7204  -37.6453   23.6667 H   0  0  0  0  0  0
  -26.0661  -31.5586   20.5833 H   0  0  0  0  0  0
  -26.8428  -30.8662   21.9779 H   0  0  0  0  0  0
  -28.1334  -29.0393   21.1542 H   0  0  0  0  0  0
  -26.0555  -25.8983   19.0563 H   0  0  0  0  0  0
  -23.9823  -27.2465   19.0803 H   0  0  0  0  0  0
  -23.7557  -30.5581   19.3910 H   0  0  0  0  0  0
  -22.7595  -29.2153   19.8594 H   0  0  0  0  0  0
  -25.1307  -36.1865   25.0833 H   0  0  0  0  0  0
  -20.9988  -28.3296   24.1405 H   0  0  0  0  0  0
  -20.5711  -26.2309   23.3621 H   0  0  0  0  0  0
  -21.6655  -26.7525   22.1166 H   0  0  0  0  0  0
  -19.6892  -25.6364   21.1250 H   0  0  0  0  0  0
  -19.6680  -27.3276   20.6799 H   0  0  0  0  0  0
  -17.4193  -26.6792   21.4036 H   0  0  0  0  0  0
  -18.0293  -26.0169   22.9026 H   0  0  0  0  0  0
  -19.7980  -30.7340   24.2256 H   0  0  0  0  0  0
  -17.5091  -31.6328   24.5226 H   0  0  0  0  0  0
  -15.5391  -30.3125   23.7722 H   0  0  0  0  0  0
  -15.8657  -28.0955   22.7078 H   0  0  0  0  0  0
  -24.5863  -30.7148   25.7782 H   0  0  0  0  0  0
  -24.8911  -32.3020   26.4734 H   0  0  0  0  0  0
  -25.8034  -30.9079   27.0216 H   0  0  0  0  0  0
  -26.2841  -29.6825   24.1100 H   0  0  0  0  0  0
  -27.4009  -29.7265   25.4556 H   0  0  0  0  0  0
  -27.8694  -30.4383   23.9279 H   0  0  0  0  0  0
  -27.2569  -33.3689   26.1955 H   0  0  0  0  0  0
  -28.3867  -32.6841   25.0339 H   0  0  0  0  0  0
  -28.0556  -31.8515   26.5473 H   0  0  0  0  0  0
  -28.2554  -38.0079   24.7548 H   0  0  0  0  0  0
  -28.1049  -36.2624   24.6246 H   0  0  0  0  0  0
  -27.2276  -37.1360   25.8868 H   0  0  0  0  0  0
  -20.9263  -29.8775   21.6893 H   0  0  0  0  0  0
  -26.0099  -38.2821   24.1544 H   0  0  0  0  0  0
  -28.3817  -19.9789   22.0443 H   0  0  0  0  0  0
  -30.4033  -17.0346   18.6241 H   0  0  0  0  0  0
  -28.6790  -23.9623   23.1035 H   0  0  0  0  0  0
  -30.4153  -23.9302   23.2040 H   0  0  0  0  0  0
  -30.5414  -25.3074   21.1018 H   0  0  0  0  0  0
  -29.5686  -26.0976   22.3244 H   0  0  0  0  0  0
  -29.1640  -21.8760   22.2700 H   0  0  0  0  0  0
  -30.6186  -22.3529   21.4312 H   0  0  0  0  0  0
  -27.4997  -25.1576   21.3264 H   0  0  0  0  0  0
  -27.6380  -21.3311   19.3980 H   0  0  0  0  0  0
  -29.1381  -21.6321   18.6002 H   0  0  0  0  0  0
  -29.0026  -15.3448   21.5196 H   0  0  0  0  0  0
  1 25  1  0  0  0
  1 30  2  0  0  0
  1 84  1  0  0  0
  2  3  1  0  0  0
  2 25  1  0  0  0
  2 88  1  0  0  0
  2 89  1  0  0  0
  3  4  1  0  0  0
  3 90  1  0  0  0
  3 91  1  0  0  0
  4  5  1  0  0  0
  4 92  1  0  0  0
  4 93  1  0  0  0
  5  6  1  0  0  0
  5 26  1  0  0  0
  5 94  1  0  0  0
  6 25  1  0  0  0
  6 95  1  0  0  0
  6 96  1  0  0  0
  7  8  2  0  0  0
  7 26  1  0  0  0
  7 29  1  0  0  0
  8  9  1  0  0  0
  8 22  1  0  0  0
  9 10  1  0  0  0
  9 27  2  0  0  0
 10 11  2  0  0  0
 10 15  1  0  0  0
 11 12  1  0  0  0
 11 97  1  0  0  0
 12 13  2  0  0  0
 12 98  1  0  0  0
 13 14  1  0  0  0
 13 31  1  0  0  0
 14 15  2  0  0  0
 14 99  1  0  0  0
 15100  1  0  0  0
 16 17  2  0  0  0
 16 21  1  0  0  0
 16 31  1  0  0  0
 17 18  1  0  0  0
 17101  1  0  0  0
 18 19  2  0  0  0
 18102  1  0  0  0
 19 20  1  0  0  0
 19 24  1  0  0  0
 20 21  2  0  0  0
 20103  1  0  0  0
 21 23  1  0  0  0
 22 28  1  0  0  0
 22 32  2  0  0  0
 26 27  1  0  0  0
 28104  1  0  0  0
 28105  1  0  0  0
 29106  1  0  0  0
 29107  1  0  0  0
 33 34  1  0  0  0
 33 66  1  0  0  0
 33 70  2  0  0  0
 34 36  1  0  0  0
 34 59  1  0  0  0
 34108  1  0  0  0
 35 44  2  0  0  0
 35 45  1  0  0  0
 35 68  1  0  0  0
 36 56  1  0  0  0
 36109  1  0  0  0
 37 39  1  0  0  0
 37 47  1  0  0  0
 37 66  1  0  0  0
 37110  1  0  0  0
 38 43  2  0  0  0
 38 46  1  0  0  0
 38 47  1  0  0  0
 39 64  1  0  0  0
 39 67  2  0  0  0
 40 52  1  0  0  0
 40 53  2  0  0  0
 40 58  1  0  0  0
 41111  1  0  0  0
 41112  1  0  0  0
 41113  1  0  0  0
 41 48  1  0  0  0
 42 43  1  0  0  0
 42 66  1  0  0  0
 42114  1  0  0  0
 42115  1  0  0  0
 43 44  1  0  0  0
 44116  1  0  0  0
 45 46  2  0  0  0
 45117  1  0  0  0
 46118  1  0  0  0
 47119  1  0  0  0
 47120  1  0  0  0
 48 56  1  0  0  0
 48 65  1  0  0  0
 48121  1  0  0  0
 49 50  1  0  0  0
 49 53  1  0  0  0
 49 64  1  0  0  0
 49122  1  0  0  0
 50 51  1  0  0  0
 50123  1  0  0  0
 50124  1  0  0  0
 51 52  1  0  0  0
 51125  1  0  0  0
 51126  1  0  0  0
 52127  1  0  0  0
 52128  1  0  0  0
 53 54  1  0  0  0
 54 55  2  0  0  0
 54129  1  0  0  0
 55 57  1  0  0  0
 55130  1  0  0  0
 56 69  2  0  0  0
 57 58  2  0  0  0
 57131  1  0  0  0
 58132  1  0  0  0
 59 60  1  0  0  0
 59 61  1  0  0  0
 59 62  1  0  0  0
 60133  1  0  0  0
 60134  1  0  0  0
 60135  1  0  0  0
 61136  1  0  0  0
 61137  1  0  0  0
 61138  1  0  0  0
 62139  1  0  0  0
 62140  1  0  0  0
 62141  1  0  0  0
 63 65  1  0  0  0
 63142  1  0  0  0
 63143  1  0  0  0
 63144  1  0  0  0
 64145  1  0  0  0
 65146  1  0  0  0
 68 81  1  0  0  0
 71 73  2  0  0  0
 71 75  1  0  0  0
 71147  1  0  0  0
 72 74  1  0  0  0
 72 76  2  0  0  0
 72148  1  0  0  0
 73 76  1  0  0  0
 73 82  1  0  0  0
 74 75  2  0  0  0
 74 84  1  0  0  0
 75 86  1  0  0  0
 76 87  1  0  0  0
 77 81  1  0  0  0
 77 83  1  0  0  0
 77 85  2  0  0  0
 78 79  1  0  0  0
 78 80  1  0  0  0
 78149  1  0  0  0
 78150  1  0  0  0
 79 81  1  0  0  0
 79151  1  0  0  0
 79152  1  0  0  0
 80 83  1  0  0  0
 80153  1  0  0  0
 80154  1  0  0  0
 81155  1  0  0  0
 82 83  1  0  0  0
 82156  1  0  0  0
 82157  1  0  0  0
 84158  1  0  0  0
M  ISO  4   1 100  68 101  81 101  84 100
M  END
> <chiral flag>
0

> <version>
0

> <s_m_source_file>
/data/baiqing/PycharmProjects/Reinvent-master-3.2/result/LINK_invent/BTK/process_docking_weight1_custom_product_contain_oxygen_bond_distance_aromatic_linkinvent_7_9_3/rearranged_h_0037.sdf

> <i_m_source_file_index>
15

> <r_mmod_Potential_Energy-OPLS-2005>
127.831809997559

> <r_mmod_Stretch_Energy-OPLS-2005>
91.3547592163086

> <r_mmod_Bend_Energy-OPLS-2005>
156.50798034668

> <r_mmod_Torsional_Energy-OPLS-2005>
275.944213867188

> <r_mmod_Improper_Torsional_Energy-OPLS-2005>
5.25798749923706

> <r_mmod_Van_der_Waal_Energy-OPLS-2005>
147.189987182617

> <r_mmod_Electrostatic_Energy-OPLS-2005>
-362.141204833984

> <r_mmod_Solvation_Energy-OPLS-2005>
-232.733947753906

> <b_mmod_Minimization_Converged-OPLS-2005>
0

> <r_mmod_RMS_Derivative-OPLS-2005>
4.76626634597778

$$$$
15
                    3D
 Structure written by MMmdl.
164173  0  0  1  0            999 V2000
  -30.6036  -14.6460   20.5046 C   0  0  0  0  0  0
  -30.4398  -12.3966   19.4523 C   0  0  0  0  0  0
  -29.5090  -12.5202   18.2240 C   0  0  0  0  0  0
  -28.0312  -12.3533   18.6342 C   0  0  0  0  0  0
  -27.6551  -13.2153   19.8674 C   0  0  2  0  0  0
  -28.6996  -13.0579   20.9962 C   0  0  0  0  0  0
  -25.2591  -13.8164   20.5705 C   0  0  0  0  0  0
  -24.1845  -13.0441   20.9184 C   0  0  0  0  0  0
  -24.6411  -11.6911   20.8743 C   0  0  0  0  0  0
  -23.9074  -10.4290   21.0401 C   0  0  0  0  0  0
  -24.3633   -9.4202   21.9170 C   0  0  0  0  0  0
  -23.6311   -8.2229   22.0724 C   0  0  0  0  0  0
  -22.4286   -8.0280   21.3525 C   0  0  0  0  0  0
  -21.9931   -9.0250   20.4614 C   0  0  0  0  0  0
  -22.7256  -10.2133   20.3035 C   0  0  0  0  0  0
  -21.6855   -6.0745   22.5276 C   0  0  0  0  0  0
  -21.4008   -6.5641   23.8218 C   0  0  0  0  0  0
  -21.3661   -5.6788   24.9178 C   0  0  0  0  0  0
  -21.6052   -4.3051   24.7214 C   0  0  0  0  0  0
  -21.8821   -3.8147   23.4335 C   0  0  0  0  0  0
  -21.9189   -4.6972   22.3403 C   0  0  0  0  0  0
  -22.7870  -13.5233   21.1865 C   0  0  0  0  0  0
  -22.1664   -4.2158   21.0974 F   0  0  0  0  0  0
  -21.5637   -3.4531   25.7726 F   0  0  0  0  0  0
  -30.0136  -13.4102   20.4362 N   0  0  0  0  0  0
  -26.3012  -12.9343   20.3344 N   0  0  0  0  0  0
  -25.9340  -11.6498   20.5762 N   0  0  0  0  0  0
  -22.0516  -12.8201   22.0408 N   0  0  0  0  0  0
  -25.4349  -15.1873   20.4120 N   0  0  0  0  0  0
  -31.7658  -14.8238   20.1276 O   0  0  0  0  0  0
  -21.6646   -6.8882   21.4234 O   0  0  0  0  0  0
  -22.3546  -14.5537   20.6711 O   0  0  0  0  0  0
  -24.6260  -31.8600   23.2030 C   0  0  0  0  0  0
  -25.9125  -32.4776   23.8350 C   0  0  1  0  0  0
  -27.2311  -27.3257   20.0991 C   0  0  0  0  0  0
  -25.5965  -33.8586   24.2275 N   0  0  0  0  0  0
  -23.4161  -30.4842   21.5461 C   0  0  2  0  0  0
  -24.8591  -28.9351   20.1141 C   0  0  0  0  0  0
  -22.7447  -29.4644   22.4954 C   0  0  0  0  0  0
  -18.0281  -28.1379   22.8500 C   0  0  0  0  0  0
  -24.1487  -36.7269   23.2632 C   0  0  0  0  0  0
  -25.9563  -30.7935   21.3690 C   0  0  0  0  0  0
  -26.0286  -29.4215   20.7082 C   0  0  0  0  0  0
  -27.2117  -28.6289   20.6864 C   0  0  0  0  0  0
  -26.0262  -26.8762   19.5162 C   0  0  0  0  0  0
  -24.8599  -27.6667   19.5122 C   0  0  0  0  0  0
  -23.6275  -29.8158   20.1616 C   0  0  0  0  0  0
  -25.4112  -36.3077   24.0333 C   0  0  1  0  0  0
  -20.5872  -28.3697   23.1285 C   0  0  2  0  0  0
  -20.6770  -26.9433   22.5401 C   0  0  0  0  0  0
  -19.5745  -26.6389   21.5212 C   0  0  0  0  0  0
  -18.1925  -26.7933   22.1617 C   0  0  0  0  0  0
  -19.1535  -28.8860   23.2886 C   0  0  0  0  0  0
  -18.9461  -30.1458   23.8902 C   0  0  0  0  0  0
  -17.6461  -30.6588   24.0573 C   0  0  0  0  0  0
  -25.9076  -34.9450   23.5096 C   0  0  0  0  0  0
  -16.5352  -29.9080   23.6337 C   0  0  0  0  0  0
  -16.7270  -28.6491   23.0380 C   0  0  0  0  0  0
  -26.4509  -31.6597   25.0722 C   0  0  0  0  0  0
  -25.3787  -31.3725   26.1489 C   0  0  0  0  0  0
  -27.0349  -30.3037   24.6152 C   0  0  0  0  0  0
  -27.6068  -32.4359   25.7471 C   0  0  0  0  0  0
  -27.5589  -37.1766   24.8453 C   0  0  0  0  0  0
  -21.4167  -29.3050   22.3688 N   0  0  0  0  0  0
  -26.4266  -37.3799   23.9455 N   0  0  0  0  0  0
  -24.6850  -31.0620   22.0961 N   0  0  0  0  0  0
  -23.4183  -28.8191   23.3041 O   0  0  0  0  0  0
  -28.4098  -26.5638   20.1392 O   0  0  0  0  0  0
  -26.5623  -34.8919   22.4647 O   0  0  0  0  0  0
  -23.5429  -32.1389   23.7379 O   0  0  0  0  0  0
  -30.1123  -19.3585   19.7230 C   0  0  0  0  0  0
  -29.2721  -19.2804   21.9622 C   0  0  0  0  0  0
  -29.6420  -20.0867   20.8539 C   0  0  0  0  0  0
  -30.1845  -17.9247   19.6925 C   0  0  0  0  0  0
  -29.3615  -17.8585   21.9613 C   0  0  0  0  0  0
  -29.8335  -17.1324   20.8316 C   0  0  0  0  0  0
  -28.8428  -24.0117   20.6001 C   0  0  0  0  0  0
  -28.8640  -23.5579   17.7188 C   0  0  0  0  0  0
  -28.0253  -24.7202   18.2662 C   0  0  0  0  0  0
  -28.9751  -22.3759   18.7121 C   0  0  0  0  0  0
  -28.6588  -25.2049   19.5804 C   0  0  1  0  0  0
  -30.6139  -17.2645   18.3943 C   0  0  0  0  0  0
  -28.9476  -17.1137   23.2205 C   0  0  0  0  0  0
  -29.6929  -21.6617   21.0534 C   0  0  0  0  0  0
  -29.1257  -22.7324   20.1363 N   0  0  0  0  0  0
  -29.7666  -15.6671   20.8731 N   0  0  0  0  0  0
  -28.8178  -24.2751   21.8068 O   0  0  0  0  0  0
  -31.4809  -12.5293   19.1556 H   0  0  0  0  0  0
  -30.3764  -11.3969   19.8857 H   0  0  0  0  0  0
  -29.7776  -11.7795   17.4691 H   0  0  0  0  0  0
  -29.6484  -13.4962   17.7559 H   0  0  0  0  0  0
  -27.8650  -11.2993   18.8566 H   0  0  0  0  0  0
  -27.3755  -12.5944   17.7963 H   0  0  0  0  0  0
  -27.6740  -14.2522   19.5330 H   0  0  0  0  0  0
  -28.7185  -12.0309   21.3620 H   0  0  0  0  0  0
  -28.4451  -13.6743   21.8604 H   0  0  0  0  0  0
  -25.2778   -9.5681   22.4754 H   0  0  0  0  0  0
  -24.0024   -7.4621   22.7447 H   0  0  0  0  0  0
  -21.0859   -8.8759   19.8931 H   0  0  0  0  0  0
  -22.3703  -10.9671   19.6143 H   0  0  0  0  0  0
  -21.1991   -7.6147   23.9733 H   0  0  0  0  0  0
  -21.1486   -6.0505   25.9084 H   0  0  0  0  0  0
  -22.0597   -2.7606   23.2823 H   0  0  0  0  0  0
  -22.4145  -11.9856   22.4765 H   0  0  0  0  0  0
  -21.1132  -13.1192   22.2634 H   0  0  0  0  0  0
  -24.6737  -15.8484   20.5191 H   0  0  0  0  0  0
  -26.2922  -15.6209   20.0952 H   0  0  0  0  0  0
  -26.7186  -32.5423   23.1086 H   0  0  0  0  0  0
  -25.0252  -33.9741   25.0512 H   0  0  0  0  0  0
  -22.7104  -31.3051   21.4049 H   0  0  0  0  0  0
  -23.3802  -35.9548   23.3209 H   0  0  0  0  0  0
  -24.3598  -36.8971   22.2064 H   0  0  0  0  0  0
  -23.7158  -37.6403   23.6719 H   0  0  0  0  0  0
  -26.0912  -31.5607   20.6056 H   0  0  0  0  0  0
  -26.8363  -30.8385   21.9987 H   0  0  0  0  0  0
  -28.1152  -29.0099   21.1421 H   0  0  0  0  0  0
  -25.9318  -25.9041   19.0756 H   0  0  0  0  0  0
  -23.9577  -27.2791   19.0590 H   0  0  0  0  0  0
  -23.7458  -30.5924   19.4051 H   0  0  0  0  0  0
  -22.7474  -29.2453   19.8599 H   0  0  0  0  0  0
  -25.1285  -36.1896   25.0825 H   0  0  0  0  0  0
  -20.9987  -28.3263   24.1395 H   0  0  0  0  0  0
  -20.5691  -26.2315   23.3601 H   0  0  0  0  0  0
  -21.6633  -26.7473   22.1178 H   0  0  0  0  0  0
  -19.6912  -25.6296   21.1250 H   0  0  0  0  0  0
  -19.6674  -27.3193   20.6739 H   0  0  0  0  0  0
  -17.4204  -26.6726   21.4005 H   0  0  0  0  0  0
  -18.0309  -26.0042   22.8976 H   0  0  0  0  0  0
  -19.7937  -30.7290   24.2266 H   0  0  0  0  0  0
  -17.5011  -31.6279   24.5154 H   0  0  0  0  0  0
  -15.5357  -30.3004   23.7653 H   0  0  0  0  0  0
  -15.8657  -28.0806   22.7136 H   0  0  0  0  0  0
  -24.5930  -30.7100   25.7834 H   0  0  0  0  0  0
  -24.9026  -32.2891   26.4994 H   0  0  0  0  0  0
  -25.8153  -30.8846   27.0218 H   0  0  0  0  0  0
  -26.2884  -29.6772   24.1254 H   0  0  0  0  0  0
  -27.4150  -29.7309   25.4615 H   0  0  0  0  0  0
  -27.8719  -30.4339   23.9292 H   0  0  0  0  0  0
  -27.2698  -33.3717   26.1958 H   0  0  0  0  0  0
  -28.3915  -32.6839   25.0308 H   0  0  0  0  0  0
  -28.0710  -31.8553   26.5455 H   0  0  0  0  0  0
  -28.2534  -38.0136   24.7658 H   0  0  0  0  0  0
  -28.1157  -36.2689   24.6089 H   0  0  0  0  0  0
  -27.2345  -37.1164   25.8853 H   0  0  0  0  0  0
  -20.9366  -29.8762   21.6875 H   0  0  0  0  0  0
  -26.0127  -38.2845   24.1554 H   0  0  0  0  0  0
  -30.4555  -19.8924   18.8524 H   0  0  0  0  0  0
  -28.9377  -19.7698   22.8669 H   0  0  0  0  0  0
  -29.8652  -23.9200   17.4788 H   0  0  0  0  0  0
  -28.4505  -23.2060   16.7732 H   0  0  0  0  0  0
  -27.0193  -24.3358   18.4221 H   0  0  0  0  0  0
  -27.9717  -25.5274   17.5358 H   0  0  0  0  0  0
  -29.8349  -21.7953   18.3943 H   0  0  0  0  0  0
  -28.1014  -21.7284   18.6199 H   0  0  0  0  0  0
  -29.6970  -25.3731   19.2931 H   0  0  0  0  0  0
  -30.5878  -17.9712   17.5637 H   0  0  0  0  0  0
  -29.9485  -16.4399   18.1382 H   0  0  0  0  0  0
  -31.6310  -16.8835   18.4739 H   0  0  0  0  0  0
  -28.7647  -17.7998   24.0482 H   0  0  0  0  0  0
  -29.7314  -16.4228   23.5316 H   0  0  0  0  0  0
  -28.0339  -16.5454   23.0478 H   0  0  0  0  0  0
  -30.7483  -21.9054   21.1773 H   0  0  0  0  0  0
  -29.2655  -21.8407   22.0410 H   0  0  0  0  0  0
  -28.9107  -15.3137   21.2701 H   0  0  0  0  0  0
  1 25  1  0  0  0
  1 30  2  0  0  0
  1 86  1  0  0  0
  2  3  1  0  0  0
  2 25  1  0  0  0
  2 88  1  0  0  0
  2 89  1  0  0  0
  3  4  1  0  0  0
  3 90  1  0  0  0
  3 91  1  0  0  0
  4  5  1  0  0  0
  4 92  1  0  0  0
  4 93  1  0  0  0
  5  6  1  0  0  0
  5 26  1  0  0  0
  5 94  1  0  0  0
  6 25  1  0  0  0
  6 95  1  0  0  0
  6 96  1  0  0  0
  7  8  2  0  0  0
  7 26  1  0  0  0
  7 29  1  0  0  0
  8  9  1  0  0  0
  8 22  1  0  0  0
  9 10  1  0  0  0
  9 27  2  0  0  0
 10 11  2  0  0  0
 10 15  1  0  0  0
 11 12  1  0  0  0
 11 97  1  0  0  0
 12 13  2  0  0  0
 12 98  1  0  0  0
 13 14  1  0  0  0
 13 31  1  0  0  0
 14 15  2  0  0  0
 14 99  1  0  0  0
 15100  1  0  0  0
 16 17  2  0  0  0
 16 21  1  0  0  0
 16 31  1  0  0  0
 17 18  1  0  0  0
 17101  1  0  0  0
 18 19  2  0  0  0
 18102  1  0  0  0
 19 20  1  0  0  0
 19 24  1  0  0  0
 20 21  2  0  0  0
 20103  1  0  0  0
 21 23  1  0  0  0
 22 28  1  0  0  0
 22 32  2  0  0  0
 26 27  1  0  0  0
 28104  1  0  0  0
 28105  1  0  0  0
 29106  1  0  0  0
 29107  1  0  0  0
 33 34  1  0  0  0
 33 66  1  0  0  0
 33 70  2  0  0  0
 34 36  1  0  0  0
 34 59  1  0  0  0
 34108  1  0  0  0
 35 44  2  0  0  0
 35 45  1  0  0  0
 35 68  1  0  0  0
 36 56  1  0  0  0
 36109  1  0  0  0
 37 39  1  0  0  0
 37 47  1  0  0  0
 37 66  1  0  0  0
 37110  1  0  0  0
 38 43  2  0  0  0
 38 46  1  0  0  0
 38 47  1  0  0  0
 39 64  1  0  0  0
 39 67  2  0  0  0
 40 52  1  0  0  0
 40 53  2  0  0  0
 40 58  1  0  0  0
 41111  1  0  0  0
 41112  1  0  0  0
 41113  1  0  0  0
 41 48  1  0  0  0
 42 43  1  0  0  0
 42 66  1  0  0  0
 42114  1  0  0  0
 42115  1  0  0  0
 43 44  1  0  0  0
 44116  1  0  0  0
 45 46  2  0  0  0
 45117  1  0  0  0
 46118  1  0  0  0
 47119  1  0  0  0
 47120  1  0  0  0
 48 56  1  0  0  0
 48 65  1  0  0  0
 48121  1  0  0  0
 49 50  1  0  0  0
 49 53  1  0  0  0
 49 64  1  0  0  0
 49122  1  0  0  0
 50 51  1  0  0  0
 50123  1  0  0  0
 50124  1  0  0  0
 51 52  1  0  0  0
 51125  1  0  0  0
 51126  1  0  0  0
 52127  1  0  0  0
 52128  1  0  0  0
 53 54  1  0  0  0
 54 55  2  0  0  0
 54129  1  0  0  0
 55 57  1  0  0  0
 55130  1  0  0  0
 56 69  2  0  0  0
 57 58  2  0  0  0
 57131  1  0  0  0
 58132  1  0  0  0
 59 60  1  0  0  0
 59 61  1  0  0  0
 59 62  1  0  0  0
 60133  1  0  0  0
 60134  1  0  0  0
 60135  1  0  0  0
 61136  1  0  0  0
 61137  1  0  0  0
 61138  1  0  0  0
 62139  1  0  0  0
 62140  1  0  0  0
 62141  1  0  0  0
 63 65  1  0  0  0
 63142  1  0  0  0
 63143  1  0  0  0
 63144  1  0  0  0
 64145  1  0  0  0
 65146  1  0  0  0
 68 81  1  0  0  0
 71 73  2  0  0  0
 71 74  1  0  0  0
 71147  1  0  0  0
 72 73  1  0  0  0
 72 75  2  0  0  0
 72148  1  0  0  0
 73 84  1  0  0  0
 74 76  2  0  0  0
 74 82  1  0  0  0
 75 76  1  0  0  0
 75 83  1  0  0  0
 76 86  1  0  0  0
 77 81  1  0  0  0
 77 85  1  0  0  0
 77 87  2  0  0  0
 78 79  1  0  0  0
 78 80  1  0  0  0
 78149  1  0  0  0
 78150  1  0  0  0
 79 81  1  0  0  0
 79151  1  0  0  0
 79152  1  0  0  0
 80 85  1  0  0  0
 80153  1  0  0  0
 80154  1  0  0  0
 81155  1  0  0  0
 82156  1  0  0  0
 82157  1  0  0  0
 82158  1  0  0  0
 83159  1  0  0  0
 83160  1  0  0  0
 83161  1  0  0  0
 84 85  1  0  0  0
 84162  1  0  0  0
 84163  1  0  0  0
 86164  1  0  0  0
M  ISO  4   1 100  68 101  81 101  86 100
M  END
> <chiral flag>
0

> <version>
0

> <s_m_source_file>
/data/baiqing/PycharmProjects/Reinvent-master-3.2/result/LINK_invent/BTK/process_docking_weight1_custom_product_contain_oxygen_bond_distance_aromatic_linkinvent_7_9_3/rearranged_h_0037.sdf

> <i_m_source_file_index>
16

> <r_mmod_Potential_Energy-OPLS-2005>
152.965713500977

> <r_mmod_Stretch_Energy-OPLS-2005>
91.0753860473633

> <r_mmod_Bend_Energy-OPLS-2005>
215.569091796875

> <r_mmod_Torsional_Energy-OPLS-2005>
248.652145385742

> <r_mmod_Improper_Torsional_Energy-OPLS-2005>
5.66997814178467

> <r_mmod_Van_der_Waal_Energy-OPLS-2005>
156.048614501953

> <r_mmod_Electrostatic_Energy-OPLS-2005>
-371.834930419922

> <r_mmod_Solvation_Energy-OPLS-2005>
-236.433059692383

> <b_mmod_Minimization_Converged-OPLS-2005>
0

> <r_mmod_RMS_Derivative-OPLS-2005>
2.45415329933167

$$$$
16
                    3D
 Structure written by MMmdl.
165173  0  0  1  0            999 V2000
  -30.5803  -14.6151   20.4690 C   0  0  0  0  0  0
  -30.4644  -12.3348   19.4635 C   0  0  0  0  0  0
  -29.5046  -12.2551   18.2497 C   0  0  0  0  0  0
  -28.0039  -12.3086   18.6321 C   0  0  0  0  0  0
  -27.6619  -13.1698   19.8832 C   0  0  2  0  0  0
  -28.7148  -12.9895   20.9927 C   0  0  0  0  0  0
  -25.2656  -13.8080   20.5637 C   0  0  0  0  0  0
  -24.1843  -13.0459   20.9097 C   0  0  0  0  0  0
  -24.6307  -11.6874   20.8768 C   0  0  0  0  0  0
  -23.8955  -10.4282   21.0431 C   0  0  0  0  0  0
  -24.3534   -9.4200   21.9197 C   0  0  0  0  0  0
  -23.6279   -8.2196   22.0732 C   0  0  0  0  0  0
  -22.4278   -8.0220   21.3509 C   0  0  0  0  0  0
  -21.9874   -9.0180   20.4611 C   0  0  0  0  0  0
  -22.7141  -10.2094   20.3054 C   0  0  0  0  0  0
  -21.6844   -6.0707   22.5283 C   0  0  0  0  0  0
  -21.3950   -6.5624   23.8203 C   0  0  0  0  0  0
  -21.3636   -5.6781   24.9170 C   0  0  0  0  0  0
  -21.6053   -4.3052   24.7217 C   0  0  0  0  0  0
  -21.8855   -3.8130   23.4346 C   0  0  0  0  0  0
  -21.9207   -4.6937   22.3400 C   0  0  0  0  0  0
  -22.7875  -13.5298   21.1805 C   0  0  0  0  0  0
  -22.1707   -4.2120   21.0978 F   0  0  0  0  0  0
  -21.5631   -3.4531   25.7722 F   0  0  0  0  0  0
  -30.0125  -13.3666   20.4177 N   0  0  0  0  0  0
  -26.3049  -12.9139   20.3501 N   0  0  0  0  0  0
  -25.9229  -11.6358   20.5923 N   0  0  0  0  0  0
  -22.0596  -12.8227   22.0366 N   0  0  0  0  0  0
  -25.4613  -15.1774   20.4019 N   0  0  0  0  0  0
  -31.7181  -14.8264   20.0429 O   0  0  0  0  0  0
  -21.6638   -6.8829   21.4229 O   0  0  0  0  0  0
  -22.3536  -14.5625   20.6714 O   0  0  0  0  0  0
  -24.6149  -31.8695   23.2038 C   0  0  0  0  0  0
  -25.9014  -32.4847   23.8354 C   0  0  1  0  0  0
  -27.2178  -27.4097   20.1307 C   0  0  0  0  0  0
  -25.5902  -33.8649   24.2295 N   0  0  0  0  0  0
  -23.4070  -30.4956   21.5383 C   0  0  2  0  0  0
  -24.8553  -28.9650   20.0995 C   0  0  0  0  0  0
  -22.7442  -29.4676   22.4848 C   0  0  0  0  0  0
  -18.0295  -28.1412   22.8488 C   0  0  0  0  0  0
  -24.1499  -36.7315   23.2638 C   0  0  0  0  0  0
  -25.9342  -30.8366   21.3551 C   0  0  0  0  0  0
  -26.0138  -29.4681   20.7041 C   0  0  0  0  0  0
  -27.2049  -28.6998   20.7149 C   0  0  0  0  0  0
  -26.0502  -26.9310   19.5016 C   0  0  0  0  0  0
  -24.8695  -27.7012   19.4857 C   0  0  0  0  0  0
  -23.6217  -29.8403   20.1466 C   0  0  0  0  0  0
  -25.4114  -36.3134   24.0357 C   0  0  1  0  0  0
  -20.5899  -28.3701   23.1278 C   0  0  2  0  0  0
  -20.6808  -26.9437   22.5408 C   0  0  0  0  0  0
  -19.5787  -26.6416   21.5205 C   0  0  0  0  0  0
  -18.1940  -26.7971   22.1597 C   0  0  0  0  0  0
  -19.1553  -28.8866   23.2900 C   0  0  0  0  0  0
  -18.9495  -30.1448   23.8928 C   0  0  0  0  0  0
  -17.6517  -30.6621   24.0586 C   0  0  0  0  0  0
  -25.9057  -34.9484   23.5124 C   0  0  0  0  0  0
  -16.5383  -29.9161   23.6325 C   0  0  0  0  0  0
  -16.7288  -28.6568   23.0348 C   0  0  0  0  0  0
  -26.4443  -31.6637   25.0674 C   0  0  0  0  0  0
  -25.3689  -31.3787   26.1414 C   0  0  0  0  0  0
  -27.0280  -30.3102   24.5998 C   0  0  0  0  0  0
  -27.6015  -32.4351   25.7462 C   0  0  0  0  0  0
  -27.5590  -37.1828   24.8457 C   0  0  0  0  0  0
  -21.4167  -29.3079   22.3659 N   0  0  0  0  0  0
  -26.4292  -37.3826   23.9408 N   0  0  0  0  0  0
  -24.6701  -31.0810   22.0908 N   0  0  0  0  0  0
  -23.4229  -28.8197   23.2885 O   0  0  0  0  0  0
  -28.3307  -26.5945   20.1913 O   0  0  0  0  0  0
  -26.5599  -34.8952   22.4680 O   0  0  0  0  0  0
  -23.5321  -32.1429   23.7419 O   0  0  0  0  0  0
  -27.4183  -17.9332   19.1166 C   0  0  0  0  0  0
  -29.1731  -18.0065   21.2519 C   0  0  0  0  0  0
  -27.3052  -18.9948   20.0220 C   0  0  0  0  0  0
  -28.4018  -16.9245   19.2197 C   0  0  0  0  0  0
  -28.2777  -19.1052   21.0433 C   0  0  0  0  0  0
  -29.2104  -16.8467   20.4071 C   0  0  0  0  0  0
  -26.1560  -19.9883   19.8103 C   0  0  0  0  0  0
  -28.9152  -16.8381   16.7405 C   0  0  0  0  0  0
  -28.3426  -20.3859   21.8990 C   0  0  0  0  0  0
  -28.4633  -24.0898   20.5995 C   0  0  0  0  0  0
  -28.4382  -22.9283   21.6558 C   0  0  0  0  0  0
  -28.2233  -25.5228   21.1634 C   0  0  0  0  0  0
  -28.4823  -16.0429   17.9700 C   0  0  0  0  0  0
  -29.7815  -15.6149   20.9616 N   0  0  0  0  0  0
  -28.5776  -21.5779   21.0343 N   0  3  0  0  0  0
  -27.2800  -15.5334   17.6982 F   0  0  0  0  0  0
  -29.3678  -15.0752   18.0324 F   0  0  0  0  0  0
  -31.4816  -12.5120   19.1114 H   0  0  0  0  0  0
  -30.4941  -11.3665   19.9665 H   0  0  0  0  0  0
  -29.6838  -11.2875   17.7733 H   0  0  0  0  0  0
  -29.7570  -12.9584   17.4623 H   0  0  0  0  0  0
  -27.7083  -11.2790   18.8332 H   0  0  0  0  0  0
  -27.3993  -12.6139   17.7782 H   0  0  0  0  0  0
  -27.6877  -14.2137   19.6042 H   0  0  0  0  0  0
  -28.7398  -11.9463   21.3164 H   0  0  0  0  0  0
  -28.4727  -13.5719   21.8822 H   0  0  0  0  0  0
  -25.2659   -9.5727   22.4775 H   0  0  0  0  0  0
  -24.0051   -7.4548   22.7384 H   0  0  0  0  0  0
  -21.0857   -8.8676   19.8821 H   0  0  0  0  0  0
  -22.3609  -10.9645   19.6184 H   0  0  0  0  0  0
  -21.1871   -7.6128   23.9706 H   0  0  0  0  0  0
  -21.1457   -6.0492   25.9088 H   0  0  0  0  0  0
  -22.0666   -2.7591   23.2846 H   0  0  0  0  0  0
  -22.4460  -11.9928   22.4604 H   0  0  0  0  0  0
  -21.1221  -13.1059   22.2855 H   0  0  0  0  0  0
  -24.7164  -15.8589   20.4812 H   0  0  0  0  0  0
  -26.3472  -15.5946   20.1403 H   0  0  0  0  0  0
  -26.7097  -32.5549   23.1130 H   0  0  0  0  0  0
  -25.0115  -33.9838   25.0487 H   0  0  0  0  0  0
  -22.6945  -31.3111   21.3998 H   0  0  0  0  0  0
  -23.3810  -35.9619   23.3318 H   0  0  0  0  0  0
  -24.3618  -36.8884   22.2048 H   0  0  0  0  0  0
  -23.7187  -37.6504   23.6640 H   0  0  0  0  0  0
  -26.0340  -31.6004   20.5845 H   0  0  0  0  0  0
  -26.8253  -30.8968   21.9671 H   0  0  0  0  0  0
  -28.0960  -29.0786   21.1968 H   0  0  0  0  0  0
  -26.0453  -25.9550   19.0423 H   0  0  0  0  0  0
  -23.9786  -27.3177   19.0061 H   0  0  0  0  0  0
  -23.7499  -30.6244   19.3983 H   0  0  0  0  0  0
  -22.7428  -29.2769   19.8297 H   0  0  0  0  0  0
  -25.1299  -36.2014   25.0867 H   0  0  0  0  0  0
  -21.0008  -28.3279   24.1393 H   0  0  0  0  0  0
  -20.5712  -26.2313   23.3604 H   0  0  0  0  0  0
  -21.6671  -26.7504   22.1167 H   0  0  0  0  0  0
  -19.6961  -25.6327   21.1226 H   0  0  0  0  0  0
  -19.6743  -27.3237   20.6741 H   0  0  0  0  0  0
  -17.4236  -26.6732   21.3976 H   0  0  0  0  0  0
  -18.0343  -26.0106   22.8985 H   0  0  0  0  0  0
  -19.7989  -30.7238   24.2330 H   0  0  0  0  0  0
  -17.5100  -31.6295   24.5203 H   0  0  0  0  0  0
  -15.5397  -30.3096   23.7643 H   0  0  0  0  0  0
  -15.8688  -28.0921   22.7049 H   0  0  0  0  0  0
  -24.5846  -30.7169   25.7739 H   0  0  0  0  0  0
  -24.8914  -32.2971   26.4836 H   0  0  0  0  0  0
  -25.7999  -30.8954   27.0181 H   0  0  0  0  0  0
  -26.2812  -29.6870   24.1053 H   0  0  0  0  0  0
  -27.4116  -29.7334   25.4414 H   0  0  0  0  0  0
  -27.8632  -30.4510   23.9128 H   0  0  0  0  0  0
  -27.2662  -33.3690   26.2008 H   0  0  0  0  0  0
  -28.3871  -32.6808   25.0306 H   0  0  0  0  0  0
  -28.0629  -31.8462   26.5397 H   0  0  0  0  0  0
  -28.2589  -38.0142   24.7544 H   0  0  0  0  0  0
  -28.1097  -36.2671   24.6258 H   0  0  0  0  0  0
  -27.2318  -37.1423   25.8859 H   0  0  0  0  0  0
  -20.9291  -29.8898   21.6987 H   0  0  0  0  0  0
  -26.0195  -38.2918   24.1444 H   0  0  0  0  0  0
  -26.7345  -17.9101   18.2817 H   0  0  0  0  0  0
  -29.8209  -18.0450   22.1175 H   0  0  0  0  0  0
  -25.2467  -19.4755   19.4845 H   0  0  0  0  0  0
  -26.4026  -20.7111   19.0320 H   0  0  0  0  0  0
  -25.8744  -20.5302   20.7125 H   0  0  0  0  0  0
  -28.1757  -17.5910   16.4729 H   0  0  0  0  0  0
  -29.0429  -16.1750   15.8834 H   0  0  0  0  0  0
  -29.8698  -17.3310   16.9237 H   0  0  0  0  0  0
  -29.1410  -20.3033   22.6347 H   0  0  0  0  0  0
  -27.4198  -20.4989   22.4697 H   0  0  0  0  0  0
  -27.7180  -23.8988   19.8266 H   0  0  0  0  0  0
  -29.4289  -24.0698   20.0940 H   0  0  0  0  0  0
  -27.5052  -22.9645   22.2200 H   0  0  0  0  0  0
  -29.2429  -23.0555   22.3821 H   0  0  0  0  0  0
  -28.9537  -25.7228   21.9470 H   0  0  0  0  0  0
  -27.2533  -25.5471   21.6657 H   0  0  0  0  0  0
  -29.1827  -15.2439   21.6825 H   0  0  0  0  0  0
  -27.9095  -21.5111   20.2869 H   0  0  0  0  0  0
  -29.4928  -21.4807   20.6263 H   0  0  0  0  0  0
  1 25  1  0  0  0
  1 30  2  0  0  0
  1 84  1  0  0  0
  2  3  1  0  0  0
  2 25  1  0  0  0
  2 88  1  0  0  0
  2 89  1  0  0  0
  3  4  1  0  0  0
  3 90  1  0  0  0
  3 91  1  0  0  0
  4  5  1  0  0  0
  4 92  1  0  0  0
  4 93  1  0  0  0
  5  6  1  0  0  0
  5 26  1  0  0  0
  5 94  1  0  0  0
  6 25  1  0  0  0
  6 95  1  0  0  0
  6 96  1  0  0  0
  7  8  2  0  0  0
  7 26  1  0  0  0
  7 29  1  0  0  0
  8  9  1  0  0  0
  8 22  1  0  0  0
  9 10  1  0  0  0
  9 27  2  0  0  0
 10 11  2  0  0  0
 10 15  1  0  0  0
 11 12  1  0  0  0
 11 97  1  0  0  0
 12 13  2  0  0  0
 12 98  1  0  0  0
 13 14  1  0  0  0
 13 31  1  0  0  0
 14 15  2  0  0  0
 14 99  1  0  0  0
 15100  1  0  0  0
 16 17  2  0  0  0
 16 21  1  0  0  0
 16 31  1  0  0  0
 17 18  1  0  0  0
 17101  1  0  0  0
 18 19  2  0  0  0
 18102  1  0  0  0
 19 20  1  0  0  0
 19 24  1  0  0  0
 20 21  2  0  0  0
 20103  1  0  0  0
 21 23  1  0  0  0
 22 28  1  0  0  0
 22 32  2  0  0  0
 26 27  1  0  0  0
 28104  1  0  0  0
 28105  1  0  0  0
 29106  1  0  0  0
 29107  1  0  0  0
 33 34  1  0  0  0
 33 66  1  0  0  0
 33 70  2  0  0  0
 34 36  1  0  0  0
 34 59  1  0  0  0
 34108  1  0  0  0
 35 44  2  0  0  0
 35 45  1  0  0  0
 35 68  1  0  0  0
 36 56  1  0  0  0
 36109  1  0  0  0
 37 39  1  0  0  0
 37 47  1  0  0  0
 37 66  1  0  0  0
 37110  1  0  0  0
 38 43  2  0  0  0
 38 46  1  0  0  0
 38 47  1  0  0  0
 39 64  1  0  0  0
 39 67  2  0  0  0
 40 52  1  0  0  0
 40 53  2  0  0  0
 40 58  1  0  0  0
 41111  1  0  0  0
 41112  1  0  0  0
 41113  1  0  0  0
 41 48  1  0  0  0
 42 43  1  0  0  0
 42 66  1  0  0  0
 42114  1  0  0  0
 42115  1  0  0  0
 43 44  1  0  0  0
 44116  1  0  0  0
 45 46  2  0  0  0
 45117  1  0  0  0
 46118  1  0  0  0
 47119  1  0  0  0
 47120  1  0  0  0
 48 56  1  0  0  0
 48 65  1  0  0  0
 48121  1  0  0  0
 49 50  1  0  0  0
 49 53  1  0  0  0
 49 64  1  0  0  0
 49122  1  0  0  0
 50 51  1  0  0  0
 50123  1  0  0  0
 50124  1  0  0  0
 51 52  1  0  0  0
 51125  1  0  0  0
 51126  1  0  0  0
 52127  1  0  0  0
 52128  1  0  0  0
 53 54  1  0  0  0
 54 55  2  0  0  0
 54129  1  0  0  0
 55 57  1  0  0  0
 55130  1  0  0  0
 56 69  2  0  0  0
 57 58  2  0  0  0
 57131  1  0  0  0
 58132  1  0  0  0
 59 60  1  0  0  0
 59 61  1  0  0  0
 59 62  1  0  0  0
 60133  1  0  0  0
 60134  1  0  0  0
 60135  1  0  0  0
 61136  1  0  0  0
 61137  1  0  0  0
 61138  1  0  0  0
 62139  1  0  0  0
 62140  1  0  0  0
 62141  1  0  0  0
 63 65  1  0  0  0
 63142  1  0  0  0
 63143  1  0  0  0
 63144  1  0  0  0
 64145  1  0  0  0
 65146  1  0  0  0
 68 82  1  0  0  0
 71 73  2  0  0  0
 71 74  1  0  0  0
 71147  1  0  0  0
 72 75  2  0  0  0
 72 76  1  0  0  0
 72148  1  0  0  0
 73 75  1  0  0  0
 73 77  1  0  0  0
 74 76  2  0  0  0
 74 83  1  0  0  0
 75 79  1  0  0  0
 76 84  1  0  0  0
 77149  1  0  0  0
 77150  1  0  0  0
 77151  1  0  0  0
 78152  1  0  0  0
 78153  1  0  0  0
 78154  1  0  0  0
 78 83  1  0  0  0
 79 85  1  0  0  0
 79155  1  0  0  0
 79156  1  0  0  0
 80 81  1  0  0  0
 80 82  1  0  0  0
 80157  1  0  0  0
 80158  1  0  0  0
 81 85  1  0  0  0
 81159  1  0  0  0
 81160  1  0  0  0
 82161  1  0  0  0
 82162  1  0  0  0
 83 86  1  0  0  0
 83 87  1  0  0  0
 84163  1  0  0  0
 85164  1  0  0  0
 85165  1  0  0  0
M  CHG  1  85   1
M  ISO  4   1 100  68 101  82 101  84 100
M  END
> <chiral flag>
0

> <version>
0

> <s_m_source_file>
/data/baiqing/PycharmProjects/Reinvent-master-3.2/result/LINK_invent/BTK/process_docking_weight1_custom_product_contain_oxygen_bond_distance_aromatic_linkinvent_7_9_3/rearranged_h_0037.sdf

> <i_m_source_file_index>
17

> <r_mmod_Potential_Energy-OPLS-2005>
-68.4564361572266

> <r_mmod_Stretch_Energy-OPLS-2005>
59.1659049987793

> <r_mmod_Bend_Energy-OPLS-2005>
139.839385986328

> <r_mmod_Torsional_Energy-OPLS-2005>
319.506927490234

> <r_mmod_Improper_Torsional_Energy-OPLS-2005>
6.57057285308838

> <r_mmod_Van_der_Waal_Energy-OPLS-2005>
149.40754699707

> <r_mmod_Electrostatic_Energy-OPLS-2005>
-323.018524169922

> <r_mmod_Solvation_Energy-OPLS-2005>
-464.586761474609

> <b_mmod_Minimization_Converged-OPLS-2005>
0

> <r_mmod_RMS_Derivative-OPLS-2005>
7.38815498352051

$$$$
17
                    3D
 Structure written by MMmdl.
161170  0  0  1  0            999 V2000
  -30.5827  -15.0374   20.4652 C   0  0  0  0  0  0
  -30.4328  -12.6631   19.5280 C   0  0  0  0  0  0
  -29.5267  -12.5387   18.2847 C   0  0  0  0  0  0
  -28.0698  -12.3022   18.7086 C   0  0  0  0  0  0
  -27.6247  -13.2609   19.8430 C   0  0  2  0  0  0
  -28.6615  -13.3713   20.9825 C   0  0  0  0  0  0
  -25.2472  -13.8206   20.5876 C   0  0  0  0  0  0
  -24.1755  -13.0436   20.9279 C   0  0  0  0  0  0
  -24.6380  -11.6919   20.8801 C   0  0  0  0  0  0
  -23.9068  -10.4274   21.0428 C   0  0  0  0  0  0
  -24.3622   -9.4181   21.9220 C   0  0  0  0  0  0
  -23.6302   -8.2201   22.0739 C   0  0  0  0  0  0
  -22.4287   -8.0248   21.3518 C   0  0  0  0  0  0
  -21.9933   -9.0212   20.4623 C   0  0  0  0  0  0
  -22.7237  -10.2109   20.3058 C   0  0  0  0  0  0
  -21.6832   -6.0768   22.5317 C   0  0  0  0  0  0
  -21.4001   -6.5660   23.8260 C   0  0  0  0  0  0
  -21.3672   -5.6796   24.9212 C   0  0  0  0  0  0
  -21.6029   -4.3053   24.7236 C   0  0  0  0  0  0
  -21.8797   -3.8164   23.4348 C   0  0  0  0  0  0
  -21.9158   -4.6997   22.3421 C   0  0  0  0  0  0
  -22.7776  -13.5227   21.1932 C   0  0  0  0  0  0
  -22.1621   -4.2213   21.0989 F   0  0  0  0  0  0
  -21.5632   -3.4520   25.7742 F   0  0  0  0  0  0
  -29.9286  -13.7983   20.3727 N   0  0  0  0  0  0
  -26.2880  -12.9461   20.3329 N   0  0  0  0  0  0
  -25.9325  -11.6585   20.5801 N   0  0  0  0  0  0
  -22.0366  -12.8227   22.0438 N   0  0  0  0  0  0
  -25.4299  -15.1965   20.4610 N   0  0  0  0  0  0
  -31.7828  -14.9956   20.1615 O   0  0  0  0  0  0
  -21.6589   -6.8906   21.4274 O   0  0  0  0  0  0
  -22.3480  -14.5545   20.6791 O   0  0  0  0  0  0
  -24.6511  -31.8358   23.1836 C   0  0  0  0  0  0
  -25.9249  -32.4679   23.8254 C   0  0  1  0  0  0
  -27.2230  -27.0608   20.1706 C   0  0  0  0  0  0
  -25.6009  -33.8482   24.2195 N   0  0  0  0  0  0
  -23.4631  -30.4519   21.5291 C   0  0  2  0  0  0
  -24.9147  -28.8658   20.1069 C   0  0  0  0  0  0
  -22.7656  -29.4455   22.4819 C   0  0  0  0  0  0
  -18.0308  -28.1450   22.8490 C   0  0  0  0  0  0
  -24.1485  -36.7241   23.2644 C   0  0  0  0  0  0
  -26.0210  -30.6866   21.3907 C   0  0  0  0  0  0
  -26.0897  -29.2876   20.7384 C   0  0  0  0  0  0
  -27.2384  -28.4057   20.7488 C   0  0  0  0  0  0
  -26.0220  -26.7522   19.4903 C   0  0  0  0  0  0
  -24.8996  -27.6163   19.4621 C   0  0  0  0  0  0
  -23.7004  -29.7858   20.1450 C   0  0  0  0  0  0
  -25.4119  -36.3039   24.0318 C   0  0  1  0  0  0
  -20.5946  -28.3750   23.1260 C   0  0  2  0  0  0
  -20.6831  -26.9463   22.5427 C   0  0  0  0  0  0
  -19.5794  -26.6421   21.5262 C   0  0  0  0  0  0
  -18.1959  -26.7986   22.1664 C   0  0  0  0  0  0
  -19.1582  -28.8925   23.2866 C   0  0  0  0  0  0
  -18.9490  -30.1523   23.8890 C   0  0  0  0  0  0
  -17.6482  -30.6626   24.0573 C   0  0  0  0  0  0
  -25.9057  -34.9412   23.5056 C   0  0  0  0  0  0
  -16.5375  -29.9105   23.6347 C   0  0  0  0  0  0
  -16.7288  -28.6544   23.0334 C   0  0  0  0  0  0
  -26.4549  -31.6564   25.0716 C   0  0  0  0  0  0
  -25.3729  -31.3787   26.1416 C   0  0  0  0  0  0
  -27.0349  -30.2972   24.6276 C   0  0  0  0  0  0
  -27.6074  -32.4341   25.7480 C   0  0  0  0  0  0
  -27.5566  -37.1802   24.8467 C   0  0  0  0  0  0
  -21.4329  -29.3038   22.3601 N   0  0  0  0  0  0
  -26.4274  -37.3765   23.9414 N   0  0  0  0  0  0
  -24.7325  -31.0142   22.0911 N   0  0  0  0  0  0
  -23.4273  -28.8002   23.3002 O   0  0  0  0  0  0
  -28.2789  -26.0671   20.3188 O   0  0  0  0  0  0
  -26.5622  -34.8904   22.4628 O   0  0  0  0  0  0
  -23.5623  -32.1248   23.7034 O   0  0  0  0  0  0
  -31.6793  -19.9145   20.7618 C   0  0  0  0  0  0
  -32.8044  -19.4965   21.4824 C   0  0  0  0  0  0
  -31.7224  -17.3957   21.8563 C   0  0  0  0  0  0
  -30.4412  -19.2274   20.7312 C   0  0  0  0  0  0
  -30.6027  -17.7052   21.0196 C   0  0  0  0  0  0
  -32.7840  -18.2635   22.1196 C   0  0  0  0  0  0
  -30.5372  -22.7401   21.1122 C   0  0  0  0  0  0
  -31.2414  -22.5491   22.2441 C   0  0  0  0  0  0
  -30.8292  -23.9102   20.1602 C   0  0  0  0  0  0
  -29.7215  -24.3396   19.1641 C   0  0  0  0  0  0
  -28.1201  -23.0398   20.5687 C   0  0  0  0  0  0
  -28.3594  -24.5531   19.8340 C   0  0  2  0  0  0
  -29.2878  -20.3956   20.3257 C   0  0  0  0  0  0
  -29.9465  -16.3312   20.6698 N   0  0  0  0  0  0
  -29.2694  -21.9618   20.8371 N   0  3  1  0  0  0
  -34.1124  -17.7648   23.1073 Cl  0  0  0  0  0  0
  -31.4619  -12.8122   19.2016 H   0  0  0  0  0  0
  -30.4349  -11.7314   20.0992 H   0  0  0  0  0  0
  -29.8680  -11.7246   17.6445 H   0  0  0  0  0  0
  -29.5977  -13.4468   17.6888 H   0  0  0  0  0  0
  -27.9969  -11.2673   19.0433 H   0  0  0  0  0  0
  -27.4046  -12.3846   17.8499 H   0  0  0  0  0  0
  -27.5659  -14.2514   19.3862 H   0  0  0  0  0  0
  -28.7684  -12.4266   21.5181 H   0  0  0  0  0  0
  -28.3326  -14.1083   21.7190 H   0  0  0  0  0  0
  -25.2770   -9.5661   22.4811 H   0  0  0  0  0  0
  -24.0022   -7.4572   22.7430 H   0  0  0  0  0  0
  -21.0880   -8.8683   19.8910 H   0  0  0  0  0  0
  -22.3685  -10.9630   19.6148 H   0  0  0  0  0  0
  -21.1968   -7.6171   23.9807 H   0  0  0  0  0  0
  -21.1551   -6.0517   25.9142 H   0  0  0  0  0  0
  -22.0583   -2.7639   23.2812 H   0  0  0  0  0  0
  -22.3939  -11.9843   22.4788 H   0  0  0  0  0  0
  -21.0974  -13.1261   22.2615 H   0  0  0  0  0  0
  -24.7126  -15.8684   20.7083 H   0  0  0  0  0  0
  -26.3347  -15.6223   20.3101 H   0  0  0  0  0  0
  -26.7300  -32.5277   23.0960 H   0  0  0  0  0  0
  -25.0252  -33.9603   25.0418 H   0  0  0  0  0  0
  -22.7707  -31.2796   21.3718 H   0  0  0  0  0  0
  -23.3763  -35.9547   23.3269 H   0  0  0  0  0  0
  -24.3566  -36.8923   22.2060 H   0  0  0  0  0  0
  -23.7193  -37.6424   23.6667 H   0  0  0  0  0  0
  -26.1787  -31.4297   20.6078 H   0  0  0  0  0  0
  -26.8968  -30.7505   22.0251 H   0  0  0  0  0  0
  -28.1322  -28.7240   21.2665 H   0  0  0  0  0  0
  -25.9083  -25.7951   19.0065 H   0  0  0  0  0  0
  -24.0044  -27.2954   18.9475 H   0  0  0  0  0  0
  -23.8684  -30.5712   19.4032 H   0  0  0  0  0  0
  -22.8101  -29.2473   19.8102 H   0  0  0  0  0  0
  -25.1302  -36.1865   25.0805 H   0  0  0  0  0  0
  -21.0017  -28.3328   24.1389 H   0  0  0  0  0  0
  -20.5839  -26.2344   23.3635 H   0  0  0  0  0  0
  -21.6668  -26.7520   22.1161 H   0  0  0  0  0  0
  -19.6952  -25.6317   21.1315 H   0  0  0  0  0  0
  -19.6740  -27.3215   20.6770 H   0  0  0  0  0  0
  -17.4250  -26.6751   21.4022 H   0  0  0  0  0  0
  -18.0299  -26.0132   22.9062 H   0  0  0  0  0  0
  -19.7940  -30.7379   24.2253 H   0  0  0  0  0  0
  -17.4990  -31.6281   24.5215 H   0  0  0  0  0  0
  -15.5369  -30.3018   23.7651 H   0  0  0  0  0  0
  -15.8689  -28.0874   22.7035 H   0  0  0  0  0  0
  -24.5936  -30.7092   25.7761 H   0  0  0  0  0  0
  -24.8879  -32.2970   26.4730 H   0  0  0  0  0  0
  -25.8029  -30.9073   27.0258 H   0  0  0  0  0  0
  -26.2907  -29.6768   24.1307 H   0  0  0  0  0  0
  -27.3970  -29.7221   25.4775 H   0  0  0  0  0  0
  -27.8806  -30.4198   23.9537 H   0  0  0  0  0  0
  -27.2717  -33.3755   26.1806 H   0  0  0  0  0  0
  -28.3994  -32.6728   25.0376 H   0  0  0  0  0  0
  -28.0565  -31.8638   26.5614 H   0  0  0  0  0  0
  -28.2590  -38.0105   24.7529 H   0  0  0  0  0  0
  -28.1102  -36.2647   24.6287 H   0  0  0  0  0  0
  -27.2305  -37.1407   25.8888 H   0  0  0  0  0  0
  -20.9571  -29.8731   21.6751 H   0  0  0  0  0  0
  -26.0157  -38.2838   24.1449 H   0  0  0  0  0  0
  -31.7794  -20.8708   20.2768 H   0  0  0  0  0  0
  -33.6669  -20.1363   21.5876 H   0  0  0  0  0  0
  -31.8421  -16.4148   22.2947 H   0  0  0  0  0  0
  -32.1033  -23.1668   22.4644 H   0  0  0  0  0  0
  -30.9956  -21.7743   22.9580 H   0  0  0  0  0  0
  -31.7463  -23.6772   19.6244 H   0  0  0  0  0  0
  -31.0681  -24.7713   20.7872 H   0  0  0  0  0  0
  -29.6127  -23.5643   18.4064 H   0  0  0  0  0  0
  -30.0117  -25.2354   18.6116 H   0  0  0  0  0  0
  -27.3603  -22.5058   19.9984 H   0  0  0  0  0  0
  -27.6542  -23.2311   21.5325 H   0  0  0  0  0  0
  -27.6456  -24.5366   19.0122 H   0  0  0  0  0  0
  -28.3044  -19.9770   20.5400 H   0  0  0  0  0  0
  -29.3423  -20.4567   19.2409 H   0  0  0  0  0  0
  -28.9356  -16.3186   20.6675 H   0  0  0  0  0  0
  -28.9775  -21.7178   21.7722 H   0  0  0  0  0  0
  1 25  1  0  0  0
  1 30  2  0  0  0
  1 84  1  0  0  0
  2  3  1  0  0  0
  2 25  1  0  0  0
  2 87  1  0  0  0
  2 88  1  0  0  0
  3  4  1  0  0  0
  3 89  1  0  0  0
  3 90  1  0  0  0
  4  5  1  0  0  0
  4 91  1  0  0  0
  4 92  1  0  0  0
  5  6  1  0  0  0
  5 26  1  0  0  0
  5 93  1  0  0  0
  6 25  1  0  0  0
  6 94  1  0  0  0
  6 95  1  0  0  0
  7  8  2  0  0  0
  7 26  1  0  0  0
  7 29  1  0  0  0
  8  9  1  0  0  0
  8 22  1  0  0  0
  9 10  1  0  0  0
  9 27  2  0  0  0
 10 11  2  0  0  0
 10 15  1  0  0  0
 11 12  1  0  0  0
 11 96  1  0  0  0
 12 13  2  0  0  0
 12 97  1  0  0  0
 13 14  1  0  0  0
 13 31  1  0  0  0
 14 15  2  0  0  0
 14 98  1  0  0  0
 15 99  1  0  0  0
 16 17  2  0  0  0
 16 21  1  0  0  0
 16 31  1  0  0  0
 17 18  1  0  0  0
 17100  1  0  0  0
 18 19  2  0  0  0
 18101  1  0  0  0
 19 20  1  0  0  0
 19 24  1  0  0  0
 20 21  2  0  0  0
 20102  1  0  0  0
 21 23  1  0  0  0
 22 28  1  0  0  0
 22 32  2  0  0  0
 26 27  1  0  0  0
 28103  1  0  0  0
 28104  1  0  0  0
 29105  1  0  0  0
 29106  1  0  0  0
 33 34  1  0  0  0
 33 66  1  0  0  0
 33 70  2  0  0  0
 34 36  1  0  0  0
 34 59  1  0  0  0
 34107  1  0  0  0
 35 44  2  0  0  0
 35 45  1  0  0  0
 35 68  1  0  0  0
 36 56  1  0  0  0
 36108  1  0  0  0
 37 39  1  0  0  0
 37 47  1  0  0  0
 37 66  1  0  0  0
 37109  1  0  0  0
 38 43  2  0  0  0
 38 46  1  0  0  0
 38 47  1  0  0  0
 39 64  1  0  0  0
 39 67  2  0  0  0
 40 52  1  0  0  0
 40 53  2  0  0  0
 40 58  1  0  0  0
 41110  1  0  0  0
 41111  1  0  0  0
 41112  1  0  0  0
 41 48  1  0  0  0
 42 43  1  0  0  0
 42 66  1  0  0  0
 42113  1  0  0  0
 42114  1  0  0  0
 43 44  1  0  0  0
 44115  1  0  0  0
 45 46  2  0  0  0
 45116  1  0  0  0
 46117  1  0  0  0
 47118  1  0  0  0
 47119  1  0  0  0
 48 56  1  0  0  0
 48 65  1  0  0  0
 48120  1  0  0  0
 49 50  1  0  0  0
 49 53  1  0  0  0
 49 64  1  0  0  0
 49121  1  0  0  0
 50 51  1  0  0  0
 50122  1  0  0  0
 50123  1  0  0  0
 51 52  1  0  0  0
 51124  1  0  0  0
 51125  1  0  0  0
 52126  1  0  0  0
 52127  1  0  0  0
 53 54  1  0  0  0
 54 55  2  0  0  0
 54128  1  0  0  0
 55 57  1  0  0  0
 55129  1  0  0  0
 56 69  2  0  0  0
 57 58  2  0  0  0
 57130  1  0  0  0
 58131  1  0  0  0
 59 60  1  0  0  0
 59 61  1  0  0  0
 59 62  1  0  0  0
 60132  1  0  0  0
 60133  1  0  0  0
 60134  1  0  0  0
 61135  1  0  0  0
 61136  1  0  0  0
 61137  1  0  0  0
 62138  1  0  0  0
 62139  1  0  0  0
 62140  1  0  0  0
 63 65  1  0  0  0
 63141  1  0  0  0
 63142  1  0  0  0
 63143  1  0  0  0
 64144  1  0  0  0
 65145  1  0  0  0
 68 82  1  0  0  0
 71 72  2  0  0  0
 71 74  1  0  0  0
 71146  1  0  0  0
 72 76  1  0  0  0
 72147  1  0  0  0
 73 75  1  0  0  0
 73 76  2  0  0  0
 73148  1  0  0  0
 74 75  2  0  0  0
 74 83  1  0  0  0
 75 84  1  0  0  0
 76 86  1  0  0  0
 77 78  2  0  0  0
 77 79  1  0  0  0
 77 85  1  0  0  0
 78149  1  0  0  0
 78150  1  0  0  0
 79 80  1  0  0  0
 79151  1  0  0  0
 79152  1  0  0  0
 80 82  1  0  0  0
 80153  1  0  0  0
 80154  1  0  0  0
 81 82  1  0  0  0
 81 85  1  0  0  0
 81155  1  0  0  0
 81156  1  0  0  0
 82157  1  0  0  0
 83158  1  0  0  0
 83159  1  0  0  0
 83 85  1  0  0  0
 84160  1  0  0  0
 85161  1  0  0  0
M  CHG  1  85   1
M  ISO  4   1 100  68 101  82 101  84 100
M  END
> <chiral flag>
0

> <version>
0

> <s_m_source_file>
/data/baiqing/PycharmProjects/Reinvent-master-3.2/result/LINK_invent/BTK/process_docking_weight1_custom_product_contain_oxygen_bond_distance_aromatic_linkinvent_7_9_3/rearranged_h_0037.sdf

> <i_m_source_file_index>
18

> <r_mmod_Potential_Energy-OPLS-2005>
915.07861328125

> <r_mmod_Stretch_Energy-OPLS-2005>
391.874572753906

> <r_mmod_Bend_Energy-OPLS-2005>
479.488922119141

> <r_mmod_Torsional_Energy-OPLS-2005>
313.751129150391

> <r_mmod_Improper_Torsional_Energy-OPLS-2005>
5.51567459106445

> <r_mmod_Van_der_Waal_Energy-OPLS-2005>
155.252075195312

> <r_mmod_Electrostatic_Energy-OPLS-2005>
-232.035110473633

> <r_mmod_Solvation_Energy-OPLS-2005>
-459.764678955078

> <b_mmod_Minimization_Converged-OPLS-2005>
0

> <r_mmod_RMS_Derivative-OPLS-2005>
6.36646127700806

$$$$
18
                    3D
 Structure written by MMmdl.
192202  0  0  1  0            999 V2000
  -30.6171  -14.6066   20.5430 C   0  0  0  0  0  0
  -30.4455  -12.3799   19.4508 C   0  0  0  0  0  0
  -29.5123  -12.5236   18.2258 C   0  0  0  0  0  0
  -28.0320  -12.3667   18.6324 C   0  0  0  0  0  0
  -27.6609  -13.2142   19.8794 C   0  0  2  0  0  0
  -28.7043  -13.0165   21.0038 C   0  0  0  0  0  0
  -25.2571  -13.8156   20.5689 C   0  0  0  0  0  0
  -24.1827  -13.0424   20.9164 C   0  0  0  0  0  0
  -24.6394  -11.6899   20.8731 C   0  0  0  0  0  0
  -23.9065  -10.4290   21.0394 C   0  0  0  0  0  0
  -24.3617   -9.4204   21.9172 C   0  0  0  0  0  0
  -23.6289   -8.2243   22.0755 C   0  0  0  0  0  0
  -22.4264   -8.0282   21.3552 C   0  0  0  0  0  0
  -21.9900   -9.0248   20.4646 C   0  0  0  0  0  0
  -22.7237  -10.2125   20.3045 C   0  0  0  0  0  0
  -21.6841   -6.0728   22.5279 C   0  0  0  0  0  0
  -21.4008   -6.5634   23.8212 C   0  0  0  0  0  0
  -21.3665   -5.6790   24.9174 C   0  0  0  0  0  0
  -21.6036   -4.3049   24.7222 C   0  0  0  0  0  0
  -21.8824   -3.8140   23.4343 C   0  0  0  0  0  0
  -21.9195   -4.6960   22.3402 C   0  0  0  0  0  0
  -22.7852  -13.5221   21.1825 C   0  0  0  0  0  0
  -22.1656   -4.2144   21.0981 F   0  0  0  0  0  0
  -21.5638   -3.4539   25.7734 F   0  0  0  0  0  0
  -30.0270  -13.3724   20.4590 N   0  0  0  0  0  0
  -26.3022  -12.9343   20.3387 N   0  0  0  0  0  0
  -25.9333  -11.6492   20.5772 N   0  0  0  0  0  0
  -22.0498  -12.8224   22.0398 N   0  0  0  0  0  0
  -25.4271  -15.1872   20.4127 N   0  0  0  0  0  0
  -31.7375  -14.8230   20.0709 O   0  0  0  0  0  0
  -21.6637   -6.8871   21.4237 O   0  0  0  0  0  0
  -22.3542  -14.5536   20.6693 O   0  0  0  0  0  0
  -24.6252  -31.8569   23.2043 C   0  0  0  0  0  0
  -25.9085  -32.4783   23.8363 C   0  0  1  0  0  0
  -27.2138  -27.3161   20.1179 C   0  0  0  0  0  0
  -25.5880  -33.8584   24.2268 N   0  0  0  0  0  0
  -23.4216  -30.4830   21.5452 C   0  0  2  0  0  0
  -24.8701  -28.9435   20.1085 C   0  0  0  0  0  0
  -22.7468  -29.4596   22.4919 C   0  0  0  0  0  0
  -18.0283  -28.1401   22.8501 C   0  0  0  0  0  0
  -24.1488  -36.7286   23.2635 C   0  0  0  0  0  0
  -25.9642  -30.7869   21.3805 C   0  0  0  0  0  0
  -26.0369  -29.4130   20.7256 C   0  0  0  0  0  0
  -27.2145  -28.6063   20.7312 C   0  0  0  0  0  0
  -26.0456  -26.9224   19.4394 C   0  0  0  0  0  0
  -24.8750  -27.7022   19.4555 C   0  0  0  0  0  0
  -23.6369  -29.8219   20.1594 C   0  0  0  0  0  0
  -25.4104  -36.3061   24.0325 C   0  0  1  0  0  0
  -20.5889  -28.3663   23.1294 C   0  0  2  0  0  0
  -20.6784  -26.9385   22.5410 C   0  0  0  0  0  0
  -19.5757  -26.6387   21.5220 C   0  0  0  0  0  0
  -18.1942  -26.7965   22.1623 C   0  0  0  0  0  0
  -19.1550  -28.8853   23.2911 C   0  0  0  0  0  0
  -18.9463  -30.1468   23.8899 C   0  0  0  0  0  0
  -17.6466  -30.6596   24.0573 C   0  0  0  0  0  0
  -25.9033  -34.9439   23.5088 C   0  0  0  0  0  0
  -16.5346  -29.9103   23.6344 C   0  0  0  0  0  0
  -16.7274  -28.6531   23.0346 C   0  0  0  0  0  0
  -26.4465  -31.6601   25.0739 C   0  0  0  0  0  0
  -25.3710  -31.3777   26.1477 C   0  0  0  0  0  0
  -27.0275  -30.3012   24.6205 C   0  0  0  0  0  0
  -27.6011  -32.4336   25.7511 C   0  0  0  0  0  0
  -27.5578  -37.1771   24.8447 C   0  0  0  0  0  0
  -21.4187  -29.3024   22.3679 N   0  0  0  0  0  0
  -26.4266  -37.3761   23.9428 N   0  0  0  0  0  0
  -24.6891  -31.0575   22.1003 N   0  0  0  0  0  0
  -23.4199  -28.8109   23.2969 O   0  0  0  0  0  0
  -28.2991  -26.4313   20.1133 O   0  0  0  0  0  0
  -26.5621  -34.8907   22.4669 O   0  0  0  0  0  0
  -23.5411  -32.1351   23.7362 O   0  0  0  0  0  0
  -30.5328  -17.8043   20.0830 C   0  0  0  0  0  0
  -30.2668  -19.1766   19.7881 C   0  0  0  0  0  0
  -28.2751  -19.0622   21.1791 C   0  0  0  0  0  0
  -29.1067  -19.8494   20.3115 C   0  0  0  0  0  0
  -28.5495  -17.6754   21.4486 C   0  0  0  0  0  0
  -29.6701  -17.0082   20.8746 C   0  0  0  0  0  0
  -27.8831  -23.8194   20.4187 C   0  0  0  0  0  0
  -26.6179  -23.5720   20.0215 C   0  0  0  0  0  0
  -30.5626  -17.9106   14.6647 C   0  0  0  0  0  0
  -32.0876  -17.9801   14.8493 C   0  0  0  0  0  0
  -30.7398  -24.6753   21.4636 C   0  0  0  0  0  0
  -29.7481  -18.1087   15.9539 C   0  0  0  0  0  0
  -32.5695  -19.3848   15.2480 C   0  0  0  0  0  0
  -30.8411  -23.2271   21.9767 C   0  0  0  0  0  0
  -29.4627  -25.3661   21.9630 C   0  0  0  0  0  0
  -29.5071  -22.4566   21.8957 C   0  0  0  0  0  0
  -30.0465  -19.4103   16.7222 C   0  0  0  0  0  0
  -32.5426  -19.7005   16.7585 C   0  0  0  0  0  0
  -28.2444  -25.2542   21.0181 C   0  0  1  0  0  0
  -27.0325  -19.6738   21.8333 C   0  0  0  0  0  0
  -27.6127  -16.8884   22.3745 C   0  0  0  0  0  0
  -31.2777  -19.8664   18.8637 C   0  0  0  0  0  0
  -28.6432  -21.2969   19.8166 C   0  0  0  0  0  0
  -29.8461  -15.5775   21.1136 N   0  0  0  0  0  0
  -28.9121  -22.6261   20.5483 N   0  3  1  0  0  0
  -31.3126  -19.2868   17.4918 N   0  3  0  0  0  0
  -31.4870  -12.5144   19.1519 H   0  0  0  0  0  0
  -30.3863  -11.3724   19.8657 H   0  0  0  0  0  0
  -29.7736  -11.7862   17.4651 H   0  0  0  0  0  0
  -29.6621  -13.5024   17.7666 H   0  0  0  0  0  0
  -27.8540  -11.3105   18.8392 H   0  0  0  0  0  0
  -27.3819  -12.6251   17.7956 H   0  0  0  0  0  0
  -27.6941  -14.2604   19.5734 H   0  0  0  0  0  0
  -28.7070  -11.9782   21.3383 H   0  0  0  0  0  0
  -28.4443  -13.5978   21.8892 H   0  0  0  0  0  0
  -25.2755   -9.5675   22.4749 H   0  0  0  0  0  0
  -23.9990   -7.4626   22.7476 H   0  0  0  0  0  0
  -21.0832   -8.8761   19.8951 H   0  0  0  0  0  0
  -22.3691  -10.9656   19.6159 H   0  0  0  0  0  0
  -21.1992   -7.6140   23.9712 H   0  0  0  0  0  0
  -21.1482   -6.0518   25.9077 H   0  0  0  0  0  0
  -22.0603   -2.7599   23.2843 H   0  0  0  0  0  0
  -22.4087  -11.9864   22.4768 H   0  0  0  0  0  0
  -21.1119  -13.1264   22.2602 H   0  0  0  0  0  0
  -24.6688  -15.8428   20.5597 H   0  0  0  0  0  0
  -26.2921  -15.6347   20.1404 H   0  0  0  0  0  0
  -26.7159  -32.5454   23.1118 H   0  0  0  0  0  0
  -25.0010  -33.9738   25.0400 H   0  0  0  0  0  0
  -22.7170  -31.3052   21.4045 H   0  0  0  0  0  0
  -23.3757  -35.9606   23.3255 H   0  0  0  0  0  0
  -24.3597  -36.8948   22.2059 H   0  0  0  0  0  0
  -23.7247  -37.6471   23.6690 H   0  0  0  0  0  0
  -26.0974  -31.5510   20.6124 H   0  0  0  0  0  0
  -26.8435  -30.8345   22.0120 H   0  0  0  0  0  0
  -28.1117  -28.9580   21.2201 H   0  0  0  0  0  0
  -26.0382  -26.0056   18.8733 H   0  0  0  0  0  0
  -23.9869  -27.3540   18.9444 H   0  0  0  0  0  0
  -23.7530  -30.6008   19.4050 H   0  0  0  0  0  0
  -22.7590  -29.2502   19.8548 H   0  0  0  0  0  0
  -25.1296  -36.1863   25.0817 H   0  0  0  0  0  0
  -21.0007  -28.3208   24.1396 H   0  0  0  0  0  0
  -20.5697  -26.2245   23.3589 H   0  0  0  0  0  0
  -21.6646  -26.7427   22.1157 H   0  0  0  0  0  0
  -19.6909  -25.6308   21.1225 H   0  0  0  0  0  0
  -19.6720  -27.3225   20.6787 H   0  0  0  0  0  0
  -17.4205  -26.6712   21.4028 H   0  0  0  0  0  0
  -18.0320  -26.0125   22.9029 H   0  0  0  0  0  0
  -19.7937  -30.7312   24.2238 H   0  0  0  0  0  0
  -17.5014  -31.6272   24.5171 H   0  0  0  0  0  0
  -15.5354  -30.2998   23.7703 H   0  0  0  0  0  0
  -15.8677  -28.0869   22.7033 H   0  0  0  0  0  0
  -24.5858  -30.7156   25.7829 H   0  0  0  0  0  0
  -24.8958  -32.2978   26.4878 H   0  0  0  0  0  0
  -25.8022  -30.8965   27.0270 H   0  0  0  0  0  0
  -26.2844  -29.6813   24.1190 H   0  0  0  0  0  0
  -27.3918  -29.7206   25.4686 H   0  0  0  0  0  0
  -27.8735  -30.4280   23.9456 H   0  0  0  0  0  0
  -27.2600  -33.3650   26.2042 H   0  0  0  0  0  0
  -28.3837  -32.6880   25.0354 H   0  0  0  0  0  0
  -28.0665  -31.8524   26.5476 H   0  0  0  0  0  0
  -28.2503  -38.0149   24.7553 H   0  0  0  0  0  0
  -28.1158  -36.2677   24.6169 H   0  0  0  0  0  0
  -27.2311  -37.1272   25.8846 H   0  0  0  0  0  0
  -20.9328  -29.8755   21.6924 H   0  0  0  0  0  0
  -26.0127  -38.2805   24.1520 H   0  0  0  0  0  0
  -31.4154  -17.3399   19.6655 H   0  0  0  0  0  0
  -25.8792  -24.3518   20.0734 H   0  0  0  0  0  0
  -26.2366  -22.6290   19.6724 H   0  0  0  0  0  0
  -30.3061  -16.9384   14.2411 H   0  0  0  0  0  0
  -30.2512  -18.6453   13.9206 H   0  0  0  0  0  0
  -32.5475  -17.7234   13.8930 H   0  0  0  0  0  0
  -32.4386  -17.2254   15.5544 H   0  0  0  0  0  0
  -30.7828  -24.7130   20.3739 H   0  0  0  0  0  0
  -31.6161  -25.2310   21.7996 H   0  0  0  0  0  0
  -29.8792  -17.2495   16.6127 H   0  0  0  0  0  0
  -28.6924  -18.1045   15.6837 H   0  0  0  0  0  0
  -32.0113  -20.1394   14.6934 H   0  0  0  0  0  0
  -33.6012  -19.5058   14.9158 H   0  0  0  0  0  0
  -31.1856  -23.2325   23.0129 H   0  0  0  0  0  0
  -31.6192  -22.7058   21.4157 H   0  0  0  0  0  0
  -29.6689  -26.4240   22.1251 H   0  0  0  0  0  0
  -29.2053  -24.9925   22.9546 H   0  0  0  0  0  0
  -28.7958  -22.7910   22.6521 H   0  0  0  0  0  0
  -29.6972  -21.4171   22.1547 H   0  0  0  0  0  0
  -29.2093  -19.5662   17.3994 H   0  0  0  0  0  0
  -30.0517  -20.2831   16.0666 H   0  0  0  0  0  0
  -32.6975  -20.7736   16.8829 H   0  0  0  0  0  0
  -33.3962  -19.2181   17.2374 H   0  0  0  0  0  0
  -27.3966  -25.4462   21.6817 H   0  0  0  0  0  0
  -26.1253  -19.1833   21.4777 H   0  0  0  0  0  0
  -26.9068  -20.7387   21.6615 H   0  0  0  0  0  0
  -27.0734  -19.5439   22.9148 H   0  0  0  0  0  0
  -27.8133  -17.1407   23.4154 H   0  0  0  0  0  0
  -27.6995  -15.8080   22.2864 H   0  0  0  0  0  0
  -26.5628  -17.0954   22.1727 H   0  0  0  0  0  0
  -32.2582  -19.7254   19.3235 H   0  0  0  0  0  0
  -31.1412  -20.9455   18.8217 H   0  0  0  0  0  0
  -27.5850  -21.1624   19.6412 H   0  0  0  0  0  0
  -29.0032  -21.4508   18.8024 H   0  0  0  0  0  0
  -29.0737  -15.1689   21.6152 H   0  0  0  0  0  0
  -29.7241  -22.9480   20.0428 H   0  0  0  0  0  0
  -31.4138  -18.2957   17.6429 H   0  0  0  0  0  0
  1 25  1  0  0  0
  1 30  2  0  0  0
  1 94  1  0  0  0
  2  3  1  0  0  0
  2 25  1  0  0  0
  2 97  1  0  0  0
  2 98  1  0  0  0
  3  4  1  0  0  0
  3 99  1  0  0  0
  3100  1  0  0  0
  4  5  1  0  0  0
  4101  1  0  0  0
  4102  1  0  0  0
  5  6  1  0  0  0
  5 26  1  0  0  0
  5103  1  0  0  0
  6 25  1  0  0  0
  6104  1  0  0  0
  6105  1  0  0  0
  7  8  2  0  0  0
  7 26  1  0  0  0
  7 29  1  0  0  0
  8  9  1  0  0  0
  8 22  1  0  0  0
  9 10  1  0  0  0
  9 27  2  0  0  0
 10 11  2  0  0  0
 10 15  1  0  0  0
 11 12  1  0  0  0
 11106  1  0  0  0
 12 13  2  0  0  0
 12107  1  0  0  0
 13 14  1  0  0  0
 13 31  1  0  0  0
 14 15  2  0  0  0
 14108  1  0  0  0
 15109  1  0  0  0
 16 17  2  0  0  0
 16 21  1  0  0  0
 16 31  1  0  0  0
 17 18  1  0  0  0
 17110  1  0  0  0
 18 19  2  0  0  0
 18111  1  0  0  0
 19 20  1  0  0  0
 19 24  1  0  0  0
 20 21  2  0  0  0
 20112  1  0  0  0
 21 23  1  0  0  0
 22 28  1  0  0  0
 22 32  2  0  0  0
 26 27  1  0  0  0
 28113  1  0  0  0
 28114  1  0  0  0
 29115  1  0  0  0
 29116  1  0  0  0
 33 34  1  0  0  0
 33 66  1  0  0  0
 33 70  2  0  0  0
 34 36  1  0  0  0
 34 59  1  0  0  0
 34117  1  0  0  0
 35 44  2  0  0  0
 35 45  1  0  0  0
 35 68  1  0  0  0
 36 56  1  0  0  0
 36118  1  0  0  0
 37 39  1  0  0  0
 37 47  1  0  0  0
 37 66  1  0  0  0
 37119  1  0  0  0
 38 43  2  0  0  0
 38 46  1  0  0  0
 38 47  1  0  0  0
 39 64  1  0  0  0
 39 67  2  0  0  0
 40 52  1  0  0  0
 40 53  2  0  0  0
 40 58  1  0  0  0
 41120  1  0  0  0
 41121  1  0  0  0
 41122  1  0  0  0
 41 48  1  0  0  0
 42 43  1  0  0  0
 42 66  1  0  0  0
 42123  1  0  0  0
 42124  1  0  0  0
 43 44  1  0  0  0
 44125  1  0  0  0
 45 46  2  0  0  0
 45126  1  0  0  0
 46127  1  0  0  0
 47128  1  0  0  0
 47129  1  0  0  0
 48 56  1  0  0  0
 48 65  1  0  0  0
 48130  1  0  0  0
 49 50  1  0  0  0
 49 53  1  0  0  0
 49 64  1  0  0  0
 49131  1  0  0  0
 50 51  1  0  0  0
 50132  1  0  0  0
 50133  1  0  0  0
 51 52  1  0  0  0
 51134  1  0  0  0
 51135  1  0  0  0
 52136  1  0  0  0
 52137  1  0  0  0
 53 54  1  0  0  0
 54 55  2  0  0  0
 54138  1  0  0  0
 55 57  1  0  0  0
 55139  1  0  0  0
 56 69  2  0  0  0
 57 58  2  0  0  0
 57140  1  0  0  0
 58141  1  0  0  0
 59 60  1  0  0  0
 59 61  1  0  0  0
 59 62  1  0  0  0
 60142  1  0  0  0
 60143  1  0  0  0
 60144  1  0  0  0
 61145  1  0  0  0
 61146  1  0  0  0
 61147  1  0  0  0
 62148  1  0  0  0
 62149  1  0  0  0
 62150  1  0  0  0
 63 65  1  0  0  0
 63151  1  0  0  0
 63152  1  0  0  0
 63153  1  0  0  0
 64154  1  0  0  0
 65155  1  0  0  0
 68 89  1  0  0  0
 71 72  2  0  0  0
 71 76  1  0  0  0
 71156  1  0  0  0
 72 74  1  0  0  0
 72 92  1  0  0  0
 73 74  2  0  0  0
 73 75  1  0  0  0
 73 90  1  0  0  0
 74 93  1  0  0  0
 75 76  2  0  0  0
 75 91  1  0  0  0
 76 94  1  0  0  0
 77 78  2  0  0  0
 77 89  1  0  0  0
 77 95  1  0  0  0
 78157  1  0  0  0
 78158  1  0  0  0
 79 80  1  0  0  0
 79 82  1  0  0  0
 79159  1  0  0  0
 79160  1  0  0  0
 80 83  1  0  0  0
 80161  1  0  0  0
 80162  1  0  0  0
 81 84  1  0  0  0
 81 85  1  0  0  0
 81163  1  0  0  0
 81164  1  0  0  0
 82 87  1  0  0  0
 82165  1  0  0  0
 82166  1  0  0  0
 83 88  1  0  0  0
 83167  1  0  0  0
 83168  1  0  0  0
 84 86  1  0  0  0
 84169  1  0  0  0
 84170  1  0  0  0
 85 89  1  0  0  0
 85171  1  0  0  0
 85172  1  0  0  0
 86 95  1  0  0  0
 86173  1  0  0  0
 86174  1  0  0  0
 87 96  1  0  0  0
 87175  1  0  0  0
 87176  1  0  0  0
 88 96  1  0  0  0
 88177  1  0  0  0
 88178  1  0  0  0
 89179  1  0  0  0
 90180  1  0  0  0
 90181  1  0  0  0
 90182  1  0  0  0
 91183  1  0  0  0
 91184  1  0  0  0
 91185  1  0  0  0
 92186  1  0  0  0
 92187  1  0  0  0
 92 96  1  0  0  0
 93188  1  0  0  0
 93189  1  0  0  0
 93 95  1  0  0  0
 94190  1  0  0  0
 95191  1  0  0  0
 96192  1  0  0  0
M  CHG  2  95   1  96   1
M  ISO  4   1 100  68 101  89 101  94 100
M  END
> <chiral flag>
0

> <version>
0

> <s_m_source_file>
/data/baiqing/PycharmProjects/Reinvent-master-3.2/result/LINK_invent/BTK/process_docking_weight1_custom_product_contain_oxygen_bond_distance_aromatic_linkinvent_7_9_3/rearranged_h_0037.sdf

> <i_m_source_file_index>
19

> <r_mmod_Potential_Energy-OPLS-2005>
30.2585792541504

> <r_mmod_Stretch_Energy-OPLS-2005>
110.087799072266

> <r_mmod_Bend_Energy-OPLS-2005>
214.278656005859

> <r_mmod_Torsional_Energy-OPLS-2005>
314.879333496094

> <r_mmod_Improper_Torsional_Energy-OPLS-2005>
4.63837432861328

> <r_mmod_Van_der_Waal_Energy-OPLS-2005>
162.86442565918

> <r_mmod_Electrostatic_Energy-OPLS-2005>
46.6698226928711

> <r_mmod_Solvation_Energy-OPLS-2005>
-868.831726074219

> <b_mmod_Minimization_Converged-OPLS-2005>
0

> <r_mmod_RMS_Derivative-OPLS-2005>
3.45391798019409

$$$$
19
                    3D
 Structure written by MMmdl.
166175  0  0  1  0            999 V2000
  -30.8012  -14.5439   20.4857 C   0  0  0  0  0  0
  -30.3950  -12.3486   19.4584 C   0  0  0  0  0  0
  -29.4956  -12.4961   18.2190 C   0  0  0  0  0  0
  -28.0247  -12.3418   18.6385 C   0  0  0  0  0  0
  -27.6483  -13.2388   19.8489 C   0  0  2  0  0  0
  -28.7006  -13.1755   20.9836 C   0  0  0  0  0  0
  -25.2553  -13.8225   20.5738 C   0  0  0  0  0  0
  -24.1851  -13.0474   20.9217 C   0  0  0  0  0  0
  -24.6436  -11.6934   20.8765 C   0  0  0  0  0  0
  -23.9114  -10.4287   21.0418 C   0  0  0  0  0  0
  -24.3651   -9.4188   21.9198 C   0  0  0  0  0  0
  -23.6296   -8.2250   22.0781 C   0  0  0  0  0  0
  -22.4284   -8.0302   21.3569 C   0  0  0  0  0  0
  -21.9926   -9.0280   20.4677 C   0  0  0  0  0  0
  -22.7279  -10.2137   20.3076 C   0  0  0  0  0  0
  -21.6847   -6.0757   22.5301 C   0  0  0  0  0  0
  -21.4004   -6.5661   23.8234 C   0  0  0  0  0  0
  -21.3651   -5.6816   24.9193 C   0  0  0  0  0  0
  -21.6034   -4.3079   24.7232 C   0  0  0  0  0  0
  -21.8800   -3.8170   23.4351 C   0  0  0  0  0  0
  -21.9165   -4.6983   22.3409 C   0  0  0  0  0  0
  -22.7841  -13.5222   21.1829 C   0  0  0  0  0  0
  -22.1648   -4.2181   21.0984 F   0  0  0  0  0  0
  -21.5601   -3.4552   25.7731 F   0  0  0  0  0  0
  -30.0213  -13.4267   20.3929 N   0  0  0  0  0  0
  -26.3008  -12.9471   20.3314 N   0  0  0  0  0  0
  -25.9386  -11.6598   20.5795 N   0  0  0  0  0  0
  -22.0454  -12.8283   22.0388 N   0  0  0  0  0  0
  -25.4155  -15.1977   20.4159 N   0  0  0  0  0  0
  -31.9707  -14.5148   20.1089 O   0  0  0  0  0  0
  -21.6634   -6.8916   21.4273 O   0  0  0  0  0  0
  -22.3543  -14.5519   20.6619 O   0  0  0  0  0  0
  -24.6143  -31.8654   23.2040 C   0  0  0  0  0  0
  -25.9017  -32.4778   23.8369 C   0  0  1  0  0  0
  -27.2374  -27.4169   20.1292 C   0  0  0  0  0  0
  -25.5857  -33.8562   24.2319 N   0  0  0  0  0  0
  -23.4063  -30.4918   21.5447 C   0  0  2  0  0  0
  -24.8602  -28.9643   20.1080 C   0  0  0  0  0  0
  -22.7414  -29.4661   22.4927 C   0  0  0  0  0  0
  -18.0297  -28.1336   22.8474 C   0  0  0  0  0  0
  -24.1506  -36.7392   23.2659 C   0  0  0  0  0  0
  -25.9347  -30.8393   21.3558 C   0  0  0  0  0  0
  -26.0189  -29.4728   20.7059 C   0  0  0  0  0  0
  -27.2151  -28.7132   20.7025 C   0  0  0  0  0  0
  -26.0693  -26.9484   19.4882 C   0  0  0  0  0  0
  -24.8813  -27.7022   19.4915 C   0  0  0  0  0  0
  -23.6161  -29.8268   20.1592 C   0  0  0  0  0  0
  -25.4084  -36.3055   24.0334 C   0  0  1  0  0  0
  -20.5879  -28.3673   23.1279 C   0  0  2  0  0  0
  -20.6792  -26.9410   22.5412 C   0  0  0  0  0  0
  -19.5770  -26.6344   21.5219 C   0  0  0  0  0  0
  -18.1943  -26.7881   22.1609 C   0  0  0  0  0  0
  -19.1532  -28.8818   23.2869 C   0  0  0  0  0  0
  -18.9458  -30.1419   23.8902 C   0  0  0  0  0  0
  -17.6448  -30.6540   24.0549 C   0  0  0  0  0  0
  -25.9028  -34.9428   23.5133 C   0  0  0  0  0  0
  -16.5345  -29.9022   23.6325 C   0  0  0  0  0  0
  -16.7282  -28.6434   23.0333 C   0  0  0  0  0  0
  -26.4417  -31.6551   25.0688 C   0  0  0  0  0  0
  -25.3681  -31.3617   26.1463 C   0  0  0  0  0  0
  -27.0285  -30.3028   24.6037 C   0  0  0  0  0  0
  -27.6027  -32.4262   25.7371 C   0  0  0  0  0  0
  -27.5552  -37.1831   24.8469 C   0  0  0  0  0  0
  -21.4146  -29.3063   22.3707 N   0  0  0  0  0  0
  -26.4276  -37.3731   23.9400 N   0  0  0  0  0  0
  -24.6700  -31.0778   22.0938 N   0  0  0  0  0  0
  -23.4181  -28.8220   23.2995 O   0  0  0  0  0  0
  -28.3534  -26.5967   20.2274 O   0  0  0  0  0  0
  -26.5594  -34.8873   22.4703 O   0  0  0  0  0  0
  -23.5352  -32.1392   23.7465 O   0  0  0  0  0  0
  -30.5967  -19.0403   19.4961 C   0  0  0  0  0  0
  -30.6436  -20.6534   21.7767 C   0  0  0  0  0  0
  -30.7084  -18.4132   20.7637 C   0  0  0  0  0  0
  -30.6856  -21.2939   20.5108 C   0  0  0  0  0  0
  -30.6935  -19.2464   21.9083 C   0  0  0  0  0  0
  -30.6068  -20.4537   19.3651 C   0  0  0  0  0  0
  -28.1909  -25.4561   22.4428 C   0  0  0  0  0  0
  -29.5995  -25.2138   22.9913 C   0  0  0  0  0  0
  -28.8979  -24.0974   20.3720 C   0  0  0  0  0  0
  -28.1018  -25.3316   20.9087 C   0  0  2  0  0  0
  -30.1926  -23.8799   22.5020 C   0  0  2  0  0  0
  -31.5785  -23.6934   23.1668 C   0  0  0  0  0  0
  -31.1817  -16.9431   20.8589 C   0  0  0  0  0  0
  -31.0673  -22.7983   20.3690 C   0  0  0  0  0  0
  -30.2738  -15.7537   20.8158 N   0  0  0  0  0  0
  -30.2362  -23.8756   21.0081 N   0  3  1  0  0  0
  -30.8831  -18.5912   23.4981 Cl  0  0  0  0  0  0
  -30.6443  -21.1191   17.7680 Cl  0  0  0  0  0  0
  -31.4477  -12.3681   19.1665 H   0  0  0  0  0  0
  -30.2419  -11.3768   19.9320 H   0  0  0  0  0  0
  -29.7561  -11.7460   17.4712 H   0  0  0  0  0  0
  -29.6552  -13.4689   17.7499 H   0  0  0  0  0  0
  -27.8709  -11.2934   18.8970 H   0  0  0  0  0  0
  -27.3651  -12.5451   17.7942 H   0  0  0  0  0  0
  -27.6416  -14.2612   19.4730 H   0  0  0  0  0  0
  -28.6983  -12.1990   21.4676 H   0  0  0  0  0  0
  -28.4758  -13.9058   21.7644 H   0  0  0  0  0  0
  -25.2780   -9.5646   22.4805 H   0  0  0  0  0  0
  -23.9970   -7.4635   22.7513 H   0  0  0  0  0  0
  -21.0844   -8.8828   19.8995 H   0  0  0  0  0  0
  -22.3748  -10.9700   19.6209 H   0  0  0  0  0  0
  -21.2042   -7.6175   23.9757 H   0  0  0  0  0  0
  -21.1483   -6.0542   25.9100 H   0  0  0  0  0  0
  -22.0581   -2.7635   23.2845 H   0  0  0  0  0  0
  -22.4008  -11.9975   22.4878 H   0  0  0  0  0  0
  -21.1081  -13.1389   22.2515 H   0  0  0  0  0  0
  -24.6371  -15.8397   20.5239 H   0  0  0  0  0  0
  -26.2621  -15.6522   20.1019 H   0  0  0  0  0  0
  -26.7102  -32.5536   23.1175 H   0  0  0  0  0  0
  -24.9954  -33.9695   25.0439 H   0  0  0  0  0  0
  -22.6987  -31.3103   21.4031 H   0  0  0  0  0  0
  -23.3655  -35.9842   23.3300 H   0  0  0  0  0  0
  -24.3669  -36.9041   22.2102 H   0  0  0  0  0  0
  -23.7386  -37.6637   23.6691 H   0  0  0  0  0  0
  -26.0387  -31.6036   20.5851 H   0  0  0  0  0  0
  -26.8232  -30.8991   21.9711 H   0  0  0  0  0  0
  -28.1066  -29.1017   21.1727 H   0  0  0  0  0  0
  -26.0602  -25.9781   19.0103 H   0  0  0  0  0  0
  -23.9920  -27.3054   19.0248 H   0  0  0  0  0  0
  -23.7155  -30.5997   19.3971 H   0  0  0  0  0  0
  -22.7405  -29.2461   19.8617 H   0  0  0  0  0  0
  -25.1261  -36.1939   25.0810 H   0  0  0  0  0  0
  -20.9928  -28.3260   24.1399 H   0  0  0  0  0  0
  -20.5714  -26.2304   23.3598 H   0  0  0  0  0  0
  -21.6675  -26.7455   22.1223 H   0  0  0  0  0  0
  -19.6955  -25.6241   21.1267 H   0  0  0  0  0  0
  -19.6685  -27.3154   20.6743 H   0  0  0  0  0  0
  -17.4227  -26.6642   21.3989 H   0  0  0  0  0  0
  -18.0336  -26.0005   22.8998 H   0  0  0  0  0  0
  -19.7947  -30.7230   24.2246 H   0  0  0  0  0  0
  -17.5009  -31.6220   24.5156 H   0  0  0  0  0  0
  -15.5334  -30.2892   23.7642 H   0  0  0  0  0  0
  -15.8703  -28.0734   22.7006 H   0  0  0  0  0  0
  -24.5922  -30.6879   25.7814 H   0  0  0  0  0  0
  -24.8748  -32.2739   26.4838 H   0  0  0  0  0  0
  -25.8016  -30.8944   27.0321 H   0  0  0  0  0  0
  -26.2909  -29.6904   24.0820 H   0  0  0  0  0  0
  -27.3815  -29.7157   25.4503 H   0  0  0  0  0  0
  -27.8805  -30.4419   23.9390 H   0  0  0  0  0  0
  -27.2733  -33.3590   26.1953 H   0  0  0  0  0  0
  -28.3722  -32.6727   25.0041 H   0  0  0  0  0  0
  -28.0762  -31.8377   26.5223 H   0  0  0  0  0  0
  -28.2475  -38.0181   24.7385 H   0  0  0  0  0  0
  -28.1103  -36.2682   24.6403 H   0  0  0  0  0  0
  -27.2268  -37.1597   25.8866 H   0  0  0  0  0  0
  -20.9284  -29.8806   21.6957 H   0  0  0  0  0  0
  -26.0133  -38.2799   24.1371 H   0  0  0  0  0  0
  -30.6393  -18.4405   18.5987 H   0  0  0  0  0  0
  -30.6861  -21.2087   22.6968 H   0  0  0  0  0  0
  -27.8169  -26.4233   22.7812 H   0  0  0  0  0  0
  -27.5263  -24.7125   22.8840 H   0  0  0  0  0  0
  -29.5441  -25.2085   24.0819 H   0  0  0  0  0  0
  -30.2581  -26.0388   22.7224 H   0  0  0  0  0  0
  -28.9851  -24.1748   19.2885 H   0  0  0  0  0  0
  -28.3051  -23.2006   20.5632 H   0  0  0  0  0  0
  -27.0609  -25.0561   20.7405 H   0  0  0  0  0  0
  -29.5285  -23.0727   22.8215 H   0  0  0  0  0  0
  -32.0893  -22.7626   22.9194 H   0  0  0  0  0  0
  -31.4815  -23.6833   24.2502 H   0  0  0  0  0  0
  -32.2543  -24.5053   22.8983 H   0  0  0  0  0  0
  -31.8240  -16.8339   21.7327 H   0  0  0  0  0  0
  -31.8816  -16.8842   20.0247 H   0  0  0  0  0  0
  -31.1844  -23.0821   19.3260 H   0  0  0  0  0  0
  -32.0909  -22.8938   20.7314 H   0  0  0  0  0  0
  -29.3048  -15.8455   21.0827 H   0  0  0  0  0  0
  -30.7500  -24.7167   20.7834 H   0  0  0  0  0  0
  1 25  1  0  0  0
  1 30  2  0  0  0
  1 85  1  0  0  0
  2  3  1  0  0  0
  2 25  1  0  0  0
  2 89  1  0  0  0
  2 90  1  0  0  0
  3  4  1  0  0  0
  3 91  1  0  0  0
  3 92  1  0  0  0
  4  5  1  0  0  0
  4 93  1  0  0  0
  4 94  1  0  0  0
  5  6  1  0  0  0
  5 26  1  0  0  0
  5 95  1  0  0  0
  6 25  1  0  0  0
  6 96  1  0  0  0
  6 97  1  0  0  0
  7  8  2  0  0  0
  7 26  1  0  0  0
  7 29  1  0  0  0
  8  9  1  0  0  0
  8 22  1  0  0  0
  9 10  1  0  0  0
  9 27  2  0  0  0
 10 11  2  0  0  0
 10 15  1  0  0  0
 11 12  1  0  0  0
 11 98  1  0  0  0
 12 13  2  0  0  0
 12 99  1  0  0  0
 13 14  1  0  0  0
 13 31  1  0  0  0
 14 15  2  0  0  0
 14100  1  0  0  0
 15101  1  0  0  0
 16 17  2  0  0  0
 16 21  1  0  0  0
 16 31  1  0  0  0
 17 18  1  0  0  0
 17102  1  0  0  0
 18 19  2  0  0  0
 18103  1  0  0  0
 19 20  1  0  0  0
 19 24  1  0  0  0
 20 21  2  0  0  0
 20104  1  0  0  0
 21 23  1  0  0  0
 22 28  1  0  0  0
 22 32  2  0  0  0
 26 27  1  0  0  0
 28105  1  0  0  0
 28106  1  0  0  0
 29107  1  0  0  0
 29108  1  0  0  0
 33 34  1  0  0  0
 33 66  1  0  0  0
 33 70  2  0  0  0
 34 36  1  0  0  0
 34 59  1  0  0  0
 34109  1  0  0  0
 35 44  2  0  0  0
 35 45  1  0  0  0
 35 68  1  0  0  0
 36 56  1  0  0  0
 36110  1  0  0  0
 37 39  1  0  0  0
 37 47  1  0  0  0
 37 66  1  0  0  0
 37111  1  0  0  0
 38 43  2  0  0  0
 38 46  1  0  0  0
 38 47  1  0  0  0
 39 64  1  0  0  0
 39 67  2  0  0  0
 40 52  1  0  0  0
 40 53  2  0  0  0
 40 58  1  0  0  0
 41112  1  0  0  0
 41113  1  0  0  0
 41114  1  0  0  0
 41 48  1  0  0  0
 42 43  1  0  0  0
 42 66  1  0  0  0
 42115  1  0  0  0
 42116  1  0  0  0
 43 44  1  0  0  0
 44117  1  0  0  0
 45 46  2  0  0  0
 45118  1  0  0  0
 46119  1  0  0  0
 47120  1  0  0  0
 47121  1  0  0  0
 48 56  1  0  0  0
 48 65  1  0  0  0
 48122  1  0  0  0
 49 50  1  0  0  0
 49 53  1  0  0  0
 49 64  1  0  0  0
 49123  1  0  0  0
 50 51  1  0  0  0
 50124  1  0  0  0
 50125  1  0  0  0
 51 52  1  0  0  0
 51126  1  0  0  0
 51127  1  0  0  0
 52128  1  0  0  0
 52129  1  0  0  0
 53 54  1  0  0  0
 54 55  2  0  0  0
 54130  1  0  0  0
 55 57  1  0  0  0
 55131  1  0  0  0
 56 69  2  0  0  0
 57 58  2  0  0  0
 57132  1  0  0  0
 58133  1  0  0  0
 59 60  1  0  0  0
 59 61  1  0  0  0
 59 62  1  0  0  0
 60134  1  0  0  0
 60135  1  0  0  0
 60136  1  0  0  0
 61137  1  0  0  0
 61138  1  0  0  0
 61139  1  0  0  0
 62140  1  0  0  0
 62141  1  0  0  0
 62142  1  0  0  0
 63 65  1  0  0  0
 63143  1  0  0  0
 63144  1  0  0  0
 63145  1  0  0  0
 64146  1  0  0  0
 65147  1  0  0  0
 68 80  1  0  0  0
 71 73  2  0  0  0
 71 76  1  0  0  0
 71148  1  0  0  0
 72 74  1  0  0  0
 72 75  2  0  0  0
 72149  1  0  0  0
 73 75  1  0  0  0
 73 83  1  0  0  0
 74 76  2  0  0  0
 74 84  1  0  0  0
 75 87  1  0  0  0
 76 88  1  0  0  0
 77 78  1  0  0  0
 77 80  1  0  0  0
 77150  1  0  0  0
 77151  1  0  0  0
 78 81  1  0  0  0
 78152  1  0  0  0
 78153  1  0  0  0
 79 80  1  0  0  0
 79 86  1  0  0  0
 79154  1  0  0  0
 79155  1  0  0  0
 80156  1  0  0  0
 81 82  1  0  0  0
 81 86  1  0  0  0
 81157  1  0  0  0
 82158  1  0  0  0
 82159  1  0  0  0
 82160  1  0  0  0
 83 85  1  0  0  0
 83161  1  0  0  0
 83162  1  0  0  0
 84163  1  0  0  0
 84164  1  0  0  0
 84 86  1  0  0  0
 85165  1  0  0  0
 86166  1  0  0  0
M  CHG  1  86   1
M  ISO  4   1 100  68 101  80 101  85 100
M  END
> <chiral flag>
0

> <version>
0

> <s_m_source_file>
/data/baiqing/PycharmProjects/Reinvent-master-3.2/result/LINK_invent/BTK/process_docking_weight1_custom_product_contain_oxygen_bond_distance_aromatic_linkinvent_7_9_3/rearranged_h_0037.sdf

> <i_m_source_file_index>
20

> <r_mmod_Potential_Energy-OPLS-2005>
-33.7833213806152

> <r_mmod_Stretch_Energy-OPLS-2005>
53.3093795776367

> <r_mmod_Bend_Energy-OPLS-2005>
155.273590087891

> <r_mmod_Torsional_Energy-OPLS-2005>
283.326995849609

> <r_mmod_Improper_Torsional_Energy-OPLS-2005>
8.28363800048828

> <r_mmod_Van_der_Waal_Energy-OPLS-2005>
170.17448425293

> <r_mmod_Electrostatic_Energy-OPLS-2005>
-324.30615234375

> <r_mmod_Solvation_Energy-OPLS-2005>
-419.601226806641

> <b_mmod_Minimization_Converged-OPLS-2005>
0

> <r_mmod_RMS_Derivative-OPLS-2005>
5.97760629653931

$$$$
20
                    3D
 Structure written by MMmdl.
160168  0  0  1  0            999 V2000
  -29.4479  -16.0138   20.3339 C   0  0  0  0  0  0
  -30.2556  -13.4373   19.6014 C   0  0  0  0  0  0
  -29.5254  -12.7753   18.3874 C   0  0  0  0  0  0
  -28.1295  -12.2775   18.7953 C   0  0  0  0  0  0
  -27.4929  -13.2729   19.7842 C   0  0  2  0  0  0
  -28.3922  -13.6635   20.9518 C   0  0  0  0  0  0
  -25.1898  -13.8162   20.5678 C   0  0  0  0  0  0
  -24.1373  -13.0354   20.9367 C   0  0  0  0  0  0
  -24.6042  -11.6850   20.8807 C   0  0  0  0  0  0
  -23.8861  -10.4234   21.0487 C   0  0  0  0  0  0
  -24.3517   -9.4186   21.9236 C   0  0  0  0  0  0
  -23.6250   -8.2189   22.0763 C   0  0  0  0  0  0
  -22.4240   -8.0215   21.3540 C   0  0  0  0  0  0
  -21.9826   -9.0167   20.4654 C   0  0  0  0  0  0
  -22.7079  -10.2074   20.3102 C   0  0  0  0  0  0
  -21.6840   -6.0708   22.5279 C   0  0  0  0  0  0
  -21.3996   -6.5627   23.8208 C   0  0  0  0  0  0
  -21.3651   -5.6785   24.9177 C   0  0  0  0  0  0
  -21.6051   -4.3049   24.7232 C   0  0  0  0  0  0
  -21.8823   -3.8133   23.4357 C   0  0  0  0  0  0
  -21.9191   -4.6941   22.3411 C   0  0  0  0  0  0
  -22.7455  -13.5162   21.2023 C   0  0  0  0  0  0
  -22.1669   -4.2128   21.0989 F   0  0  0  0  0  0
  -21.5636   -3.4539   25.7752 F   0  0  0  0  0  0
  -29.3663  -14.5198   20.2995 N   0  0  0  0  0  0
  -26.2013  -12.9275   20.2771 N   0  0  0  0  0  0
  -25.8864  -11.6434   20.5496 N   0  0  0  0  0  0
  -22.0125  -12.8147   22.0582 N   0  0  0  0  0  0
  -25.3664  -15.1908   20.4078 N   0  0  0  0  0  0
  -30.7080  -16.1382   20.2016 O   0  0  0  0  0  0
  -21.6617   -6.8823   21.4228 O   0  0  0  0  0  0
  -22.3201  -14.5473   20.6843 O   0  0  0  0  0  0
  -24.7214  -31.8673   22.6931 C   0  0  0  0  0  0
  -25.9216  -32.4708   23.6060 C   0  0  1  0  0  0
  -26.5459  -28.0078   21.5009 C   0  0  0  0  0  0
  -25.5332  -33.8228   24.0545 N   0  0  0  0  0  0
  -24.1440  -29.4060   21.0718 C   0  0  2  0  0  0
  -25.4561  -28.9932   19.4341 C   0  0  0  0  0  0
  -23.6395  -27.6226   22.1457 C   0  0  0  0  0  0
  -18.1451  -28.0640   22.8205 C   0  0  0  0  0  0
  -24.1402  -36.7294   23.2743 C   0  0  0  0  0  0
  -26.0948  -31.0363   20.8517 C   0  0  0  0  0  0
  -26.4490  -29.7154   20.1751 C   0  0  0  0  0  0
  -27.3592  -28.9321   20.8728 C   0  0  0  0  0  0
  -26.0764  -27.0530   20.5064 C   0  0  0  0  0  0
  -25.4582  -27.5980   19.3782 C   0  0  0  0  0  0
  -24.1352  -29.4910   19.5434 C   0  0  0  0  0  0
  -25.4087  -36.2928   24.0233 C   0  0  1  0  0  0
  -20.7687  -27.5512   23.2777 C   0  0  2  0  0  0
  -20.3619  -26.2432   22.6548 C   0  0  0  0  0  0
  -19.3336  -26.3047   21.5396 C   0  0  0  0  0  0
  -18.0297  -26.7292   22.1337 C   0  0  0  0  0  0
  -19.4204  -28.5845   23.2763 C   0  0  0  0  0  0
  -19.2385  -29.8601   23.9373 C   0  0  0  0  0  0
  -17.9816  -30.5317   24.0714 C   0  0  0  0  0  0
  -25.9061  -34.9517   23.4456 C   0  0  0  0  0  0
  -16.7899  -29.9437   23.6225 C   0  0  0  0  0  0
  -16.8885  -28.6980   23.0032 C   0  0  0  0  0  0
  -26.4176  -31.7104   24.9509 C   0  0  0  0  0  0
  -25.3494  -31.5349   26.0770 C   0  0  0  0  0  0
  -27.0663  -30.3464   24.6376 C   0  0  0  0  0  0
  -27.5721  -32.5057   25.6339 C   0  0  0  0  0  0
  -27.5527  -37.1709   24.8462 C   0  0  0  0  0  0
  -22.3900  -27.4025   23.0064 N   0  0  0  0  0  0
  -26.4169  -37.3741   23.9503 N   0  0  0  0  0  0
  -24.8553  -30.8913   21.5971 N   0  0  0  0  0  0
  -24.3266  -26.9873   22.8849 O   0  0  0  0  0  0
  -25.8554  -28.7425   22.6767 O   0  0  0  0  0  0
  -26.6119  -34.9442   22.4360 O   0  0  0  0  0  0
  -23.6063  -32.1571   23.1808 O   0  0  0  0  0  0
  -25.6465  -22.1007   20.6641 C   0  0  0  0  0  0
  -25.2394  -20.2408   19.2291 C   0  0  0  0  0  0
  -23.8042  -22.4362   19.2051 C   0  0  0  0  0  0
  -26.1999  -20.5251   20.2372 C   0  0  0  0  0  0
  -24.4143  -23.2213   20.2261 C   0  0  0  0  0  0
  -24.1711  -21.1031   18.7657 C   0  0  0  0  0  0
  -21.7069  -28.1866   20.6255 C   0  0  0  0  0  0
  -21.6651  -26.1885   18.9493 C   0  0  0  0  0  0
  -27.6474  -19.0841   20.5273 C   0  0  0  0  0  0
  -23.5333  -25.0636   20.5689 C   0  0  0  0  0  0
  -22.1631  -29.6100   22.2513 C   0  0  0  0  0  0
  -24.1109  -29.4712   23.4854 C   0  0  0  0  0  0
  -28.2645  -17.2201   20.3874 N   0  0  0  0  0  0
  -22.3116  -26.6013   20.2024 N   0  0  0  0  0  0
  -20.9136  -28.6956   19.8292 O   0  0  0  0  0  0
  -23.1964  -20.4519   17.4994 Cl  0  0  0  0  0  0
  -31.1798  -13.8946   19.2479 H   0  0  0  0  0  0
  -30.5851  -12.6733   20.3095 H   0  0  0  0  0  0
  -30.1217  -11.9653   17.9687 H   0  0  0  0  0  0
  -29.4238  -13.5217   17.5993 H   0  0  0  0  0  0
  -28.2330  -11.3050   19.2791 H   0  0  0  0  0  0
  -27.4983  -12.1306   17.9184 H   0  0  0  0  0  0
  -27.3197  -14.1583   19.1694 H   0  0  0  0  0  0
  -28.8008  -12.8065   21.4904 H   0  0  0  0  0  0
  -27.8513  -14.2634   21.6863 H   0  0  0  0  0  0
  -25.2655   -9.5716   22.4820 H   0  0  0  0  0  0
  -23.9990   -7.4581   22.7461 H   0  0  0  0  0  0
  -21.0777   -8.8664   19.8950 H   0  0  0  0  0  0
  -22.3519  -10.9637   19.6251 H   0  0  0  0  0  0
  -21.1973   -7.6133   23.9698 H   0  0  0  0  0  0
  -21.1474   -6.0525   25.9078 H   0  0  0  0  0  0
  -22.0609   -2.7592   23.2859 H   0  0  0  0  0  0
  -22.3764  -11.9806   22.4944 H   0  0  0  0  0  0
  -21.0758  -13.1174   22.2859 H   0  0  0  0  0  0
  -24.5459  -15.7835   20.4826 H   0  0  0  0  0  0
  -25.9904  -15.5011   19.6742 H   0  0  0  0  0  0
  -26.8133  -32.5864   22.9988 H   0  0  0  0  0  0
  -24.8925  -33.8782   24.8327 H   0  0  0  0  0  0
  -23.3896  -30.0395   20.6310 H   0  0  0  0  0  0
  -23.3712  -35.9565   23.3177 H   0  0  0  0  0  0
  -24.3443  -36.9267   22.2211 H   0  0  0  0  0  0
  -23.7113  -37.6335   23.7073 H   0  0  0  0  0  0
  -25.9573  -31.7995   20.0847 H   0  0  0  0  0  0
  -26.9533  -31.3525   21.4312 H   0  0  0  0  0  0
  -27.9892  -29.5029   21.5397 H   0  0  0  0  0  0
  -25.8377  -26.0402   20.7933 H   0  0  0  0  0  0
  -24.7672  -27.0192   18.7828 H   0  0  0  0  0  0
  -24.1500  -30.4745   19.0370 H   0  0  0  0  0  0
  -23.4594  -28.8599   18.9649 H   0  0  0  0  0  0
  -25.1392  -36.1394   25.0712 H   0  0  0  0  0  0
  -20.8034  -27.3672   24.3534 H   0  0  0  0  0  0
  -19.9068  -25.6498   23.4501 H   0  0  0  0  0  0
  -21.1822  -25.5967   22.3438 H   0  0  0  0  0  0
  -19.2214  -25.3189   21.0877 H   0  0  0  0  0  0
  -19.5252  -26.9759   20.7235 H   0  0  0  0  0  0
  -17.2861  -26.7887   21.3367 H   0  0  0  0  0  0
  -17.6658  -25.9833   22.8417 H   0  0  0  0  0  0
  -20.0766  -30.3269   24.4346 H   0  0  0  0  0  0
  -17.9435  -31.4830   24.5824 H   0  0  0  0  0  0
  -15.8338  -30.4302   23.7578 H   0  0  0  0  0  0
  -15.9819  -28.2194   22.6581 H   0  0  0  0  0  0
  -24.3186  -31.5416   25.7322 H   0  0  0  0  0  0
  -25.3811  -32.3654   26.7830 H   0  0  0  0  0  0
  -25.5093  -30.6334   26.6690 H   0  0  0  0  0  0
  -26.3811  -29.5199   24.7973 H   0  0  0  0  0  0
  -27.9044  -30.1179   25.2974 H   0  0  0  0  0  0
  -27.4665  -30.3144   23.6265 H   0  0  0  0  0  0
  -27.2687  -33.5034   25.9540 H   0  0  0  0  0  0
  -28.4236  -32.6310   24.9638 H   0  0  0  0  0  0
  -27.9387  -32.0021   26.5308 H   0  0  0  0  0  0
  -28.2476  -38.0082   24.7625 H   0  0  0  0  0  0
  -28.1072  -36.2617   24.6066 H   0  0  0  0  0  0
  -27.2327  -37.1123   25.8886 H   0  0  0  0  0  0
  -22.7168  -26.7264   23.6830 H   0  0  0  0  0  0
  -25.9975  -38.2755   24.1619 H   0  0  0  0  0  0
  -26.2697  -22.5129   21.4461 H   0  0  0  0  0  0
  -25.3384  -19.2830   18.7411 H   0  0  0  0  0  0
  -22.9660  -22.8881   18.6984 H   0  0  0  0  0  0
  -22.0947  -26.7345   18.1095 H   0  0  0  0  0  0
  -20.5918  -26.3695   18.9421 H   0  0  0  0  0  0
  -21.7695  -25.1222   18.7483 H   0  0  0  0  0  0
  -27.8670  -19.2742   21.5779 H   0  0  0  0  0  0
  -28.4793  -19.5759   20.0263 H   0  0  0  0  0  0
  -22.6342  -24.4948   20.8049 H   0  0  0  0  0  0
  -23.8241  -25.1859   19.5274 H   0  0  0  0  0  0
  -22.0079  -30.6139   21.8462 H   0  0  0  0  0  0
  -21.4284  -29.7967   22.9852 H   0  0  0  0  0  0
  -23.9040  -28.8021   24.3272 H   0  0  0  0  0  0
  -24.2256  -30.1817   24.2726 H   0  0  0  0  0  0
  -27.4135  -16.6719   20.4381 H   0  0  0  0  0  0
  1 25  1  0  0  0
  1 30  2  0  0  0
  1 83  1  0  0  0
  2  3  1  0  0  0
  2 25  1  0  0  0
  2 87  1  0  0  0
  2 88  1  0  0  0
  3  4  1  0  0  0
  3 89  1  0  0  0
  3 90  1  0  0  0
  4  5  1  0  0  0
  4 91  1  0  0  0
  4 92  1  0  0  0
  5  6  1  0  0  0
  5 26  1  0  0  0
  5 93  1  0  0  0
  6 25  1  0  0  0
  6 94  1  0  0  0
  6 95  1  0  0  0
  7  8  2  0  0  0
  7 26  1  0  0  0
  7 29  1  0  0  0
  8  9  1  0  0  0
  8 22  1  0  0  0
  9 10  1  0  0  0
  9 27  2  0  0  0
 10 11  2  0  0  0
 10 15  1  0  0  0
 11 12  1  0  0  0
 11 96  1  0  0  0
 12 13  2  0  0  0
 12 97  1  0  0  0
 13 14  1  0  0  0
 13 31  1  0  0  0
 14 15  2  0  0  0
 14 98  1  0  0  0
 15 99  1  0  0  0
 16 17  2  0  0  0
 16 21  1  0  0  0
 16 31  1  0  0  0
 17 18  1  0  0  0
 17100  1  0  0  0
 18 19  2  0  0  0
 18101  1  0  0  0
 19 20  1  0  0  0
 19 24  1  0  0  0
 20 21  2  0  0  0
 20102  1  0  0  0
 21 23  1  0  0  0
 22 28  1  0  0  0
 22 32  2  0  0  0
 26 27  1  0  0  0
 28103  1  0  0  0
 28104  1  0  0  0
 29105  1  0  0  0
 29106  1  0  0  0
 33 34  1  0  0  0
 33 66  1  0  0  0
 33 70  2  0  0  0
 34 36  1  0  0  0
 34 59  1  0  0  0
 34107  1  0  0  0
 35 44  2  0  0  0
 35 45  1  0  0  0
 35 68  1  0  0  0
 36 56  1  0  0  0
 36108  1  0  0  0
 37 39  1  0  0  0
 37 47  1  0  0  0
 37 66  1  0  0  0
 37109  1  0  0  0
 38 43  2  0  0  0
 38 46  1  0  0  0
 38 47  1  0  0  0
 39 64  1  0  0  0
 39 67  2  0  0  0
 40 52  1  0  0  0
 40 53  2  0  0  0
 40 58  1  0  0  0
 41110  1  0  0  0
 41111  1  0  0  0
 41112  1  0  0  0
 41 48  1  0  0  0
 42 43  1  0  0  0
 42 66  1  0  0  0
 42113  1  0  0  0
 42114  1  0  0  0
 43 44  1  0  0  0
 44115  1  0  0  0
 45 46  2  0  0  0
 45116  1  0  0  0
 46117  1  0  0  0
 47118  1  0  0  0
 47119  1  0  0  0
 48 56  1  0  0  0
 48 65  1  0  0  0
 48120  1  0  0  0
 49 50  1  0  0  0
 49 53  1  0  0  0
 49 64  1  0  0  0
 49121  1  0  0  0
 50 51  1  0  0  0
 50122  1  0  0  0
 50123  1  0  0  0
 51 52  1  0  0  0
 51124  1  0  0  0
 51125  1  0  0  0
 52126  1  0  0  0
 52127  1  0  0  0
 53 54  1  0  0  0
 54 55  2  0  0  0
 54128  1  0  0  0
 55 57  1  0  0  0
 55129  1  0  0  0
 56 69  2  0  0  0
 57 58  2  0  0  0
 57130  1  0  0  0
 58131  1  0  0  0
 59 60  1  0  0  0
 59 61  1  0  0  0
 59 62  1  0  0  0
 60132  1  0  0  0
 60133  1  0  0  0
 60134  1  0  0  0
 61135  1  0  0  0
 61136  1  0  0  0
 61137  1  0  0  0
 62138  1  0  0  0
 62139  1  0  0  0
 62140  1  0  0  0
 63 65  1  0  0  0
 63141  1  0  0  0
 63142  1  0  0  0
 63143  1  0  0  0
 64144  1  0  0  0
 65145  1  0  0  0
 68 82  1  0  0  0
 71 74  2  0  0  0
 71 75  1  0  0  0
 71146  1  0  0  0
 72 74  1  0  0  0
 72 76  2  0  0  0
 72147  1  0  0  0
 73 75  2  0  0  0
 73 76  1  0  0  0
 73148  1  0  0  0
 74 79  1  0  0  0
 75 80  1  0  0  0
 76 86  1  0  0  0
 77 81  1  0  0  0
 77 84  1  0  0  0
 77 85  2  0  0  0
 78 84  1  0  0  0
 78149  1  0  0  0
 78150  1  0  0  0
 78151  1  0  0  0
 79 83  1  0  0  0
 79152  1  0  0  0
 79153  1  0  0  0
 80 84  1  0  0  0
 80154  1  0  0  0
 80155  1  0  0  0
 81 82  1  0  0  0
 81156  1  0  0  0
 81157  1  0  0  0
 82158  1  0  0  0
 82159  1  0  0  0
 83160  1  0  0  0
M  ISO  4   1 100  68 101  82 101  83 100
M  END
> <chiral flag>
0

> <version>
0

> <s_m_source_file>
/data/baiqing/PycharmProjects/Reinvent-master-3.2/result/LINK_invent/BTK/process_docking_weight1_custom_product_contain_oxygen_bond_distance_aromatic_linkinvent_7_9_3/rearranged_h_0037.sdf

> <i_m_source_file_index>
21

> <r_mmod_Potential_Energy-OPLS-2005>
15265.8115234375

> <r_mmod_Stretch_Energy-OPLS-2005>
5592.52734375

> <r_mmod_Bend_Energy-OPLS-2005>
2137.91235351562

> <r_mmod_Torsional_Energy-OPLS-2005>
637.394104003906

> <r_mmod_Improper_Torsional_Energy-OPLS-2005>
94.0177307128906

> <r_mmod_Van_der_Waal_Energy-OPLS-2005>
1858.75732421875

> <r_mmod_Electrostatic_Energy-OPLS-2005>
-403.457611083984

> <r_mmod_Solvation_Energy-OPLS-2005>
-215.245254516602

> <b_mmod_Minimization_Converged-OPLS-2005>
0

> <r_mmod_RMS_Derivative-OPLS-2005>
4.89006567001343

$$$$
21
                    3D
 Structure written by MMmdl.
172181  0  0  1  0            999 V2000
  -30.6845  -14.4960   20.5385 C   0  0  0  0  0  0
  -30.4268  -12.3146   19.4201 C   0  0  0  0  0  0
  -29.4926  -12.5033   18.2054 C   0  0  0  0  0  0
  -28.0165  -12.3571   18.6226 C   0  0  0  0  0  0
  -27.6609  -13.2016   19.8749 C   0  0  2  0  0  0
  -28.7066  -12.9963   20.9958 C   0  0  0  0  0  0
  -25.2607  -13.8148   20.5694 C   0  0  0  0  0  0
  -24.1842  -13.0432   20.9192 C   0  0  0  0  0  0
  -24.6386  -11.6895   20.8746 C   0  0  0  0  0  0
  -23.9048  -10.4286   21.0413 C   0  0  0  0  0  0
  -24.3609   -9.4203   21.9187 C   0  0  0  0  0  0
  -23.6285   -8.2236   22.0757 C   0  0  0  0  0  0
  -22.4269   -8.0277   21.3550 C   0  0  0  0  0  0
  -21.9901   -9.0252   20.4658 C   0  0  0  0  0  0
  -22.7221  -10.2132   20.3069 C   0  0  0  0  0  0
  -21.6845   -6.0739   22.5281 C   0  0  0  0  0  0
  -21.4008   -6.5646   23.8218 C   0  0  0  0  0  0
  -21.3658   -5.6797   24.9182 C   0  0  0  0  0  0
  -21.6041   -4.3061   24.7231 C   0  0  0  0  0  0
  -21.8815   -3.8151   23.4355 C   0  0  0  0  0  0
  -21.9188   -4.6966   22.3409 C   0  0  0  0  0  0
  -22.7876  -13.5249   21.1846 C   0  0  0  0  0  0
  -22.1657   -4.2154   21.0987 F   0  0  0  0  0  0
  -21.5630   -3.4543   25.7745 F   0  0  0  0  0  0
  -30.0364  -13.3025   20.4387 N   0  0  0  0  0  0
  -26.3028  -12.9289   20.3377 N   0  0  0  0  0  0
  -25.9313  -11.6461   20.5790 N   0  0  0  0  0  0
  -22.0498  -12.8263   22.0411 N   0  0  0  0  0  0
  -25.4350  -15.1861   20.4122 N   0  0  0  0  0  0
  -31.8249  -14.6783   20.1020 O   0  0  0  0  0  0
  -21.6632   -6.8876   21.4243 O   0  0  0  0  0  0
  -22.3571  -14.5555   20.6689 O   0  0  0  0  0  0
  -24.6142  -31.8662   23.2143 C   0  0  0  0  0  0
  -25.9042  -32.4816   23.8417 C   0  0  1  0  0  0
  -27.2412  -27.4311   20.1031 C   0  0  0  0  0  0
  -25.5889  -33.8617   24.2344 N   0  0  0  0  0  0
  -23.4052  -30.4898   21.5524 C   0  0  2  0  0  0
  -24.8567  -28.9540   20.1211 C   0  0  0  0  0  0
  -22.7411  -29.4646   22.4983 C   0  0  0  0  0  0
  -18.0276  -28.1385   22.8465 C   0  0  0  0  0  0
  -24.1493  -36.7335   23.2640 C   0  0  0  0  0  0
  -25.9334  -30.8284   21.3731 C   0  0  0  0  0  0
  -26.0132  -29.4592   20.7291 C   0  0  0  0  0  0
  -27.2072  -28.6989   20.7326 C   0  0  0  0  0  0
  -26.0771  -26.9561   19.4691 C   0  0  0  0  0  0
  -24.8810  -27.6969   19.4940 C   0  0  0  0  0  0
  -23.6182  -29.8205   20.1673 C   0  0  0  0  0  0
  -25.4106  -36.3118   24.0345 C   0  0  1  0  0  0
  -20.5860  -28.3662   23.1296 C   0  0  2  0  0  0
  -20.6751  -26.9387   22.5427 C   0  0  0  0  0  0
  -19.5751  -26.6383   21.5198 C   0  0  0  0  0  0
  -18.1928  -26.7932   22.1601 C   0  0  0  0  0  0
  -19.1523  -28.8842   23.2885 C   0  0  0  0  0  0
  -18.9447  -30.1444   23.8897 C   0  0  0  0  0  0
  -17.6447  -30.6574   24.0568 C   0  0  0  0  0  0
  -25.9021  -34.9476   23.5147 C   0  0  0  0  0  0
  -16.5338  -29.9080   23.6322 C   0  0  0  0  0  0
  -16.7264  -28.6507   23.0319 C   0  0  0  0  0  0
  -26.4482  -31.6585   25.0736 C   0  0  0  0  0  0
  -25.3760  -31.3709   26.1494 C   0  0  0  0  0  0
  -27.0273  -30.3007   24.6113 C   0  0  0  0  0  0
  -27.6081  -32.4291   25.7452 C   0  0  0  0  0  0
  -27.5593  -37.1806   24.8460 C   0  0  0  0  0  0
  -21.4133  -29.3046   22.3710 N   0  0  0  0  0  0
  -26.4305  -37.3797   23.9410 N   0  0  0  0  0  0
  -24.6694  -31.0751   22.1057 N   0  0  0  0  0  0
  -23.4177  -28.8185   23.3035 O   0  0  0  0  0  0
  -28.3800  -26.6526   20.0496 O   0  0  0  0  0  0
  -26.5584  -34.8916   22.4707 O   0  0  0  0  0  0
  -23.5326  -32.1399   23.7540 O   0  0  0  0  0  0
  -30.0412  -18.9283   19.4289 C   0  0  0  0  0  0
  -30.3318  -19.7697   20.5253 C   0  0  0  0  0  0
  -29.9482  -17.5258   19.5664 C   0  0  0  0  0  0
  -30.5452  -19.1673   21.7974 C   0  0  0  0  0  0
  -30.4241  -17.7528   21.9531 C   0  0  0  0  0  0
  -30.1422  -16.9193   20.8353 C   0  0  0  0  0  0
  -26.9560  -22.5848   21.2617 C   0  0  0  0  0  0
  -27.1578  -24.0872   21.0214 C   0  0  0  0  0  0
  -28.0061  -21.7526   20.5021 C   0  0  0  0  0  0
  -29.6234  -23.6211   20.6632 C   0  0  0  0  0  0
  -28.5832  -24.5163   21.4038 C   0  0  1  0  0  0
  -29.6148  -16.7030   18.3309 C   0  0  0  0  0  0
  -30.8951  -20.0241   23.0136 C   0  0  0  0  0  0
  -30.6067  -17.1365   23.3378 C   0  0  0  0  0  0
  -30.4498  -21.2927   20.2701 C   0  0  0  0  0  0
  -28.8018  -26.0623   21.2891 C   0  0  0  0  0  0
  -29.9342  -15.5116   21.0124 N   0  0  0  0  0  0
  -29.3875  -22.1525   20.8809 N   0  3  2  0  0  0
  -31.4681  -12.4229   19.1125 H   0  0  0  0  0  0
  -30.3378  -11.3034   19.8208 H   0  0  0  0  0  0
  -29.7334  -11.7765   17.4290 H   0  0  0  0  0  0
  -29.6528  -13.4877   17.7625 H   0  0  0  0  0  0
  -27.8370  -11.3005   18.8262 H   0  0  0  0  0  0
  -27.3609  -12.6197   17.7918 H   0  0  0  0  0  0
  -27.6983  -14.2468   19.5720 H   0  0  0  0  0  0
  -28.6860  -11.9651   21.3510 H   0  0  0  0  0  0
  -28.4681  -13.6066   21.8682 H   0  0  0  0  0  0
  -25.2754   -9.5676   22.4769 H   0  0  0  0  0  0
  -23.9994   -7.4625   22.7476 H   0  0  0  0  0  0
  -21.0832   -8.8767   19.8968 H   0  0  0  0  0  0
  -22.3669  -10.9680   19.6194 H   0  0  0  0  0  0
  -21.1994   -7.6154   23.9726 H   0  0  0  0  0  0
  -21.1486   -6.0531   25.9087 H   0  0  0  0  0  0
  -22.0592   -2.7615   23.2852 H   0  0  0  0  0  0
  -22.4104  -11.9931   22.4814 H   0  0  0  0  0  0
  -21.1128  -13.1320   22.2620 H   0  0  0  0  0  0
  -24.6722  -15.8443   20.5340 H   0  0  0  0  0  0
  -26.2948  -15.6255   20.1078 H   0  0  0  0  0  0
  -26.7125  -32.5534   23.1202 H   0  0  0  0  0  0
  -25.0018  -33.9781   25.0467 H   0  0  0  0  0  0
  -22.6948  -31.3073   21.4141 H   0  0  0  0  0  0
  -23.3727  -35.9701   23.3309 H   0  0  0  0  0  0
  -24.3576  -36.8915   22.2046 H   0  0  0  0  0  0
  -23.7286  -37.6572   23.6622 H   0  0  0  0  0  0
  -26.0451  -31.5913   20.6000 H   0  0  0  0  0  0
  -26.8237  -30.8860   21.9874 H   0  0  0  0  0  0
  -28.0988  -29.0858   21.2062 H   0  0  0  0  0  0
  -26.0890  -26.0081   18.9528 H   0  0  0  0  0  0
  -23.9973  -27.2978   19.0158 H   0  0  0  0  0  0
  -23.7283  -30.5952   19.4073 H   0  0  0  0  0  0
  -22.7435  -29.2404   19.8693 H   0  0  0  0  0  0
  -25.1284  -36.1994   25.0842 H   0  0  0  0  0  0
  -20.9939  -28.3223   24.1428 H   0  0  0  0  0  0
  -20.5597  -26.2273   23.3617 H   0  0  0  0  0  0
  -21.6626  -26.7406   22.1262 H   0  0  0  0  0  0
  -19.6893  -25.6304   21.1219 H   0  0  0  0  0  0
  -19.6696  -27.3189   20.6725 H   0  0  0  0  0  0
  -17.4203  -26.6679   21.3997 H   0  0  0  0  0  0
  -18.0317  -26.0081   22.9001 H   0  0  0  0  0  0
  -19.7925  -30.7266   24.2244 H   0  0  0  0  0  0
  -17.5004  -31.6235   24.5212 H   0  0  0  0  0  0
  -15.5342  -30.2981   23.7649 H   0  0  0  0  0  0
  -15.8669  -28.0841   22.7000 H   0  0  0  0  0  0
  -24.5976  -30.6995   25.7862 H   0  0  0  0  0  0
  -24.8921  -32.2865   26.4892 H   0  0  0  0  0  0
  -25.8130  -30.8951   27.0279 H   0  0  0  0  0  0
  -26.2783  -29.6771   24.1225 H   0  0  0  0  0  0
  -27.4064  -29.7252   25.4565 H   0  0  0  0  0  0
  -27.8626  -30.4286   23.9228 H   0  0  0  0  0  0
  -27.2730  -33.3597   26.2041 H   0  0  0  0  0  0
  -28.3851  -32.6821   25.0227 H   0  0  0  0  0  0
  -28.0789  -31.8412   26.5335 H   0  0  0  0  0  0
  -28.2636  -38.0080   24.7468 H   0  0  0  0  0  0
  -28.1062  -36.2607   24.6321 H   0  0  0  0  0  0
  -27.2306  -37.1500   25.8865 H   0  0  0  0  0  0
  -20.9282  -29.8811   21.6966 H   0  0  0  0  0  0
  -26.0195  -38.2885   24.1395 H   0  0  0  0  0  0
  -29.8890  -19.3691   18.4521 H   0  0  0  0  0  0
  -25.9551  -22.2923   20.9405 H   0  0  0  0  0  0
  -27.0074  -22.3668   22.3292 H   0  0  0  0  0  0
  -26.4236  -24.6638   21.5857 H   0  0  0  0  0  0
  -26.9865  -24.2958   19.9663 H   0  0  0  0  0  0
  -27.8703  -21.8660   19.4255 H   0  0  0  0  0  0
  -27.8414  -20.6990   20.7295 H   0  0  0  0  0  0
  -30.6257  -23.8736   21.0139 H   0  0  0  0  0  0
  -29.6052  -23.8391   19.5936 H   0  0  0  0  0  0
  -28.7053  -24.2958   22.4665 H   0  0  0  0  0  0
  -29.3401  -17.3368   17.4876 H   0  0  0  0  0  0
  -28.7771  -16.0330   18.5186 H   0  0  0  0  0  0
  -30.4751  -16.1072   18.0265 H   0  0  0  0  0  0
  -31.2826  -21.0074   22.7589 H   0  0  0  0  0  0
  -31.6714  -19.5539   23.6177 H   0  0  0  0  0  0
  -30.0161  -20.1614   23.6438 H   0  0  0  0  0  0
  -29.9959  -17.6605   24.0728 H   0  0  0  0  0  0
  -31.6499  -17.2076   23.6454 H   0  0  0  0  0  0
  -30.3252  -16.0867   23.3974 H   0  0  0  0  0  0
  -30.4538  -21.4722   19.1930 H   0  0  0  0  0  0
  -31.4311  -21.6234   20.6098 H   0  0  0  0  0  0
  -29.8611  -26.2850   21.4201 H   0  0  0  0  0  0
  -28.2996  -26.5479   22.1288 H   0  0  0  0  0  0
  -29.0509  -15.2408   21.4167 H   0  0  0  0  0  0
  -29.4570  -21.9973   21.8742 H   0  0  0  0  0  0
  1 25  1  0  0  0
  1 30  2  0  0  0
  1 87  1  0  0  0
  2  3  1  0  0  0
  2 25  1  0  0  0
  2 89  1  0  0  0
  2 90  1  0  0  0
  3  4  1  0  0  0
  3 91  1  0  0  0
  3 92  1  0  0  0
  4  5  1  0  0  0
  4 93  1  0  0  0
  4 94  1  0  0  0
  5  6  1  0  0  0
  5 26  1  0  0  0
  5 95  1  0  0  0
  6 25  1  0  0  0
  6 96  1  0  0  0
  6 97  1  0  0  0
  7  8  2  0  0  0
  7 26  1  0  0  0
  7 29  1  0  0  0
  8  9  1  0  0  0
  8 22  1  0  0  0
  9 10  1  0  0  0
  9 27  2  0  0  0
 10 11  2  0  0  0
 10 15  1  0  0  0
 11 12  1  0  0  0
 11 98  1  0  0  0
 12 13  2  0  0  0
 12 99  1  0  0  0
 13 14  1  0  0  0
 13 31  1  0  0  0
 14 15  2  0  0  0
 14100  1  0  0  0
 15101  1  0  0  0
 16 17  2  0  0  0
 16 21  1  0  0  0
 16 31  1  0  0  0
 17 18  1  0  0  0
 17102  1  0  0  0
 18 19  2  0  0  0
 18103  1  0  0  0
 19 20  1  0  0  0
 19 24  1  0  0  0
 20 21  2  0  0  0
 20104  1  0  0  0
 21 23  1  0  0  0
 22 28  1  0  0  0
 22 32  2  0  0  0
 26 27  1  0  0  0
 28105  1  0  0  0
 28106  1  0  0  0
 29107  1  0  0  0
 29108  1  0  0  0
 33 34  1  0  0  0
 33 66  1  0  0  0
 33 70  2  0  0  0
 34 36  1  0  0  0
 34 59  1  0  0  0
 34109  1  0  0  0
 35 44  2  0  0  0
 35 45  1  0  0  0
 35 68  1  0  0  0
 36 56  1  0  0  0
 36110  1  0  0  0
 37 39  1  0  0  0
 37 47  1  0  0  0
 37 66  1  0  0  0
 37111  1  0  0  0
 38 43  2  0  0  0
 38 46  1  0  0  0
 38 47  1  0  0  0
 39 64  1  0  0  0
 39 67  2  0  0  0
 40 52  1  0  0  0
 40 53  2  0  0  0
 40 58  1  0  0  0
 41112  1  0  0  0
 41113  1  0  0  0
 41114  1  0  0  0
 41 48  1  0  0  0
 42 43  1  0  0  0
 42 66  1  0  0  0
 42115  1  0  0  0
 42116  1  0  0  0
 43 44  1  0  0  0
 44117  1  0  0  0
 45 46  2  0  0  0
 45118  1  0  0  0
 46119  1  0  0  0
 47120  1  0  0  0
 47121  1  0  0  0
 48 56  1  0  0  0
 48 65  1  0  0  0
 48122  1  0  0  0
 49 50  1  0  0  0
 49 53  1  0  0  0
 49 64  1  0  0  0
 49123  1  0  0  0
 50 51  1  0  0  0
 50124  1  0  0  0
 50125  1  0  0  0
 51 52  1  0  0  0
 51126  1  0  0  0
 51127  1  0  0  0
 52128  1  0  0  0
 52129  1  0  0  0
 53 54  1  0  0  0
 54 55  2  0  0  0
 54130  1  0  0  0
 55 57  1  0  0  0
 55131  1  0  0  0
 56 69  2  0  0  0
 57 58  2  0  0  0
 57132  1  0  0  0
 58133  1  0  0  0
 59 60  1  0  0  0
 59 61  1  0  0  0
 59 62  1  0  0  0
 60134  1  0  0  0
 60135  1  0  0  0
 60136  1  0  0  0
 61137  1  0  0  0
 61138  1  0  0  0
 61139  1  0  0  0
 62140  1  0  0  0
 62141  1  0  0  0
 62142  1  0  0  0
 63 65  1  0  0  0
 63143  1  0  0  0
 63144  1  0  0  0
 63145  1  0  0  0
 64146  1  0  0  0
 65147  1  0  0  0
 68 86  1  0  0  0
 71 72  2  0  0  0
 71 73  1  0  0  0
 71148  1  0  0  0
 72 74  1  0  0  0
 72 85  1  0  0  0
 73 76  2  0  0  0
 73 82  1  0  0  0
 74 75  2  0  0  0
 74 83  1  0  0  0
 75 76  1  0  0  0
 75 84  1  0  0  0
 76 87  1  0  0  0
 77 78  1  0  0  0
 77 79  1  0  0  0
 77149  1  0  0  0
 77150  1  0  0  0
 78 81  1  0  0  0
 78151  1  0  0  0
 78152  1  0  0  0
 79 88  1  0  0  0
 79153  1  0  0  0
 79154  1  0  0  0
 80 81  1  0  0  0
 80 88  1  0  0  0
 80155  1  0  0  0
 80156  1  0  0  0
 81 86  1  0  0  0
 81157  1  0  0  0
 82158  1  0  0  0
 82159  1  0  0  0
 82160  1  0  0  0
 83161  1  0  0  0
 83162  1  0  0  0
 83163  1  0  0  0
 84164  1  0  0  0
 84165  1  0  0  0
 84166  1  0  0  0
 85167  1  0  0  0
 85168  1  0  0  0
 85 88  1  0  0  0
 86169  1  0  0  0
 86170  1  0  0  0
 87171  1  0  0  0
 88172  1  0  0  0
M  CHG  1  88   1
M  ISO  4   1 100  68 101  86 101  87 100
M  END
> <chiral flag>
0

> <version>
0

> <s_m_source_file>
/data/baiqing/PycharmProjects/Reinvent-master-3.2/result/LINK_invent/BTK/process_docking_weight1_custom_product_contain_oxygen_bond_distance_aromatic_linkinvent_7_9_3/rearranged_h_0037.sdf

> <i_m_source_file_index>
22

> <r_mmod_Potential_Energy-OPLS-2005>
-137.188949584961

> <r_mmod_Stretch_Energy-OPLS-2005>
46.2526588439941

> <r_mmod_Bend_Energy-OPLS-2005>
104.362098693848

> <r_mmod_Torsional_Energy-OPLS-2005>
285.563293457031

> <r_mmod_Improper_Torsional_Energy-OPLS-2005>
4.04982280731201

> <r_mmod_Van_der_Waal_Energy-OPLS-2005>
152.304840087891

> <r_mmod_Electrostatic_Energy-OPLS-2005>
-316.659606933594

> <r_mmod_Solvation_Energy-OPLS-2005>
-427.521728515625

> <b_mmod_Minimization_Converged-OPLS-2005>
0

> <r_mmod_RMS_Derivative-OPLS-2005>
2.03440761566162

$$$$
22
                    3D
 Structure written by MMmdl.
170179  0  0  1  0            999 V2000
  -30.6595  -14.5034   20.5654 C   0  0  0  0  0  0
  -30.4323  -12.3277   19.4086 C   0  0  0  0  0  0
  -29.4888  -12.4835   18.1952 C   0  0  0  0  0  0
  -28.0114  -12.3398   18.6165 C   0  0  0  0  0  0
  -27.6560  -13.1926   19.8627 C   0  0  2  0  0  0
  -28.6985  -12.9791   20.9810 C   0  0  0  0  0  0
  -25.2589  -13.8110   20.5646 C   0  0  0  0  0  0
  -24.1842  -13.0404   20.9146 C   0  0  0  0  0  0
  -24.6370  -11.6859   20.8704 C   0  0  0  0  0  0
  -23.9025  -10.4264   21.0389 C   0  0  0  0  0  0
  -24.3597   -9.4183   21.9164 C   0  0  0  0  0  0
  -23.6290   -8.2219   22.0738 C   0  0  0  0  0  0
  -22.4282   -8.0246   21.3519 C   0  0  0  0  0  0
  -21.9901   -9.0207   20.4617 C   0  0  0  0  0  0
  -22.7204  -10.2101   20.3030 C   0  0  0  0  0  0
  -21.6848   -6.0710   22.5272 C   0  0  0  0  0  0
  -21.4013   -6.5626   23.8205 C   0  0  0  0  0  0
  -21.3670   -5.6773   24.9167 C   0  0  0  0  0  0
  -21.6064   -4.3037   24.7216 C   0  0  0  0  0  0
  -21.8821   -3.8124   23.4339 C   0  0  0  0  0  0
  -21.9204   -4.6939   22.3397 C   0  0  0  0  0  0
  -22.7874  -13.5192   21.1827 C   0  0  0  0  0  0
  -22.1666   -4.2131   21.0966 F   0  0  0  0  0  0
  -21.5639   -3.4526   25.7733 F   0  0  0  0  0  0
  -30.0212  -13.3077   20.4244 N   0  0  0  0  0  0
  -26.2985  -12.9252   20.3286 N   0  0  0  0  0  0
  -25.9285  -11.6423   20.5721 N   0  0  0  0  0  0
  -22.0540  -12.8176   22.0401 N   0  0  0  0  0  0
  -25.4299  -15.1841   20.4064 N   0  0  0  0  0  0
  -31.8010  -14.7102   20.1467 O   0  0  0  0  0  0
  -21.6630   -6.8854   21.4232 O   0  0  0  0  0  0
  -22.3553  -14.5501   20.6687 O   0  0  0  0  0  0
  -24.6136  -31.8716   23.2091 C   0  0  0  0  0  0
  -25.9003  -32.4833   23.8426 C   0  0  1  0  0  0
  -27.2388  -27.4205   20.1047 C   0  0  0  0  0  0
  -25.5851  -33.8638   24.2337 N   0  0  0  0  0  0
  -23.4068  -30.4916   21.5525 C   0  0  2  0  0  0
  -24.8578  -28.9606   20.1124 C   0  0  0  0  0  0
  -22.7419  -29.4687   22.5019 C   0  0  0  0  0  0
  -18.0257  -28.1409   22.8477 C   0  0  0  0  0  0
  -24.1536  -36.7336   23.2646 C   0  0  0  0  0  0
  -25.9402  -30.8296   21.3720 C   0  0  0  0  0  0
  -26.0186  -29.4663   20.7103 C   0  0  0  0  0  0
  -27.2152  -28.7067   20.6982 C   0  0  0  0  0  0
  -26.0618  -26.9448   19.4819 C   0  0  0  0  0  0
  -24.8780  -27.7023   19.4878 C   0  0  0  0  0  0
  -23.6150  -29.8230   20.1693 C   0  0  0  0  0  0
  -25.4151  -36.3147   24.0347 C   0  0  1  0  0  0
  -20.5849  -28.3707   23.1340 C   0  0  2  0  0  0
  -20.6787  -26.9453   22.5449 C   0  0  0  0  0  0
  -19.5766  -26.6399   21.5261 C   0  0  0  0  0  0
  -18.1910  -26.7935   22.1637 C   0  0  0  0  0  0
  -19.1511  -28.8862   23.2884 C   0  0  0  0  0  0
  -18.9444  -30.1442   23.8917 C   0  0  0  0  0  0
  -17.6461  -30.6604   24.0573 C   0  0  0  0  0  0
  -25.9063  -34.9488   23.5170 C   0  0  0  0  0  0
  -16.5339  -29.9115   23.6346 C   0  0  0  0  0  0
  -16.7255  -28.6536   23.0351 C   0  0  0  0  0  0
  -26.4451  -31.6600   25.0750 C   0  0  0  0  0  0
  -25.3700  -31.3645   26.1478 C   0  0  0  0  0  0
  -27.0289  -30.3048   24.6100 C   0  0  0  0  0  0
  -27.6039  -32.4337   25.7469 C   0  0  0  0  0  0
  -27.5609  -37.1806   24.8447 C   0  0  0  0  0  0
  -21.4151  -29.3045   22.3740 N   0  0  0  0  0  0
  -26.4353  -37.3807   23.9370 N   0  0  0  0  0  0
  -24.6709  -31.0764   22.1017 N   0  0  0  0  0  0
  -23.4160  -28.8246   23.3104 O   0  0  0  0  0  0
  -28.3901  -26.6523   20.1278 O   0  0  0  0  0  0
  -26.5664  -34.8908   22.4756 O   0  0  0  0  0  0
  -23.5303  -32.1506   23.7418 O   0  0  0  0  0  0
  -29.6109  -20.3824   18.8045 C   0  0  0  0  0  0
  -29.3007  -19.1040   18.3296 C   0  0  0  0  0  0
  -30.0148  -20.5773   20.1395 C   0  0  0  0  0  0
  -30.1452  -19.4274   20.9901 C   0  0  0  0  0  0
  -29.9332  -18.0945   20.4810 C   0  0  0  0  0  0
  -29.4655  -17.9666   19.1381 C   0  0  0  0  0  0
  -28.3068  -22.8060   21.9144 C   0  0  0  0  0  0
  -27.3938  -21.8435   22.1574 C   0  0  0  0  0  0
  -28.5776  -23.9945   22.8331 C   0  0  0  0  0  0
  -28.1541  -25.3365   22.1863 C   0  0  0  0  0  0
  -29.3790  -24.3391   20.2156 C   0  0  0  0  0  0
  -28.2417  -25.3047   20.6434 C   0  0  2  0  0  0
  -30.4838  -19.6071   22.4720 C   0  0  0  0  0  0
  -26.9756  -20.7125   21.2374 C   0  0  0  0  0  0
  -30.2705  -16.8791   21.4052 C   0  0  0  0  0  0
  -30.3050  -22.0416   20.5540 C   0  0  0  0  0  0
  -29.8939  -15.4892   21.0785 N   0  0  0  0  0  0
  -29.0923  -22.9185   20.6309 N   0  3  1  0  0  0
  -29.0624  -16.4657   18.3816 Cl  0  0  0  0  0  0
  -31.4706  -12.4597   19.0975 H   0  0  0  0  0  0
  -30.3646  -11.3168   19.8163 H   0  0  0  0  0  0
  -29.7259  -11.7334   17.4378 H   0  0  0  0  0  0
  -29.6432  -13.4552   17.7229 H   0  0  0  0  0  0
  -27.8320  -11.2832   18.8244 H   0  0  0  0  0  0
  -27.3558  -12.5945   17.7839 H   0  0  0  0  0  0
  -27.6965  -14.2344   19.5497 H   0  0  0  0  0  0
  -28.6881  -11.9368   21.3044 H   0  0  0  0  0  0
  -28.4480  -13.5628   21.8682 H   0  0  0  0  0  0
  -25.2752   -9.5668   22.4718 H   0  0  0  0  0  0
  -23.9997   -7.4615   22.7469 H   0  0  0  0  0  0
  -21.0837   -8.8694   19.8932 H   0  0  0  0  0  0
  -22.3646  -10.9617   19.6130 H   0  0  0  0  0  0
  -21.1983   -7.6135   23.9700 H   0  0  0  0  0  0
  -21.1513   -6.0506   25.9072 H   0  0  0  0  0  0
  -22.0606   -2.7585   23.2837 H   0  0  0  0  0  0
  -22.4195  -11.9844   22.4783 H   0  0  0  0  0  0
  -21.1139  -13.1157   22.2588 H   0  0  0  0  0  0
  -24.6552  -15.8285   20.5133 H   0  0  0  0  0  0
  -26.2673  -15.6287   20.0550 H   0  0  0  0  0  0
  -26.7067  -32.5579   23.1194 H   0  0  0  0  0  0
  -24.9927  -33.9824   25.0415 H   0  0  0  0  0  0
  -22.6980  -31.3101   21.4071 H   0  0  0  0  0  0
  -23.3803  -35.9665   23.3341 H   0  0  0  0  0  0
  -24.3637  -36.8952   22.2061 H   0  0  0  0  0  0
  -23.7305  -37.6537   23.6670 H   0  0  0  0  0  0
  -26.0592  -31.6023   20.6098 H   0  0  0  0  0  0
  -26.8229  -30.8770   21.9990 H   0  0  0  0  0  0
  -28.1131  -29.0868   21.1641 H   0  0  0  0  0  0
  -26.0514  -25.9922   18.9760 H   0  0  0  0  0  0
  -23.9922  -27.3147   19.0022 H   0  0  0  0  0  0
  -23.7042  -30.5973   19.4068 H   0  0  0  0  0  0
  -22.7423  -29.2323   19.8878 H   0  0  0  0  0  0
  -25.1339  -36.2065   25.0847 H   0  0  0  0  0  0
  -20.9875  -28.3291   24.1497 H   0  0  0  0  0  0
  -20.5791  -26.2311   23.3625 H   0  0  0  0  0  0
  -21.6647  -26.7606   22.1167 H   0  0  0  0  0  0
  -19.6988  -25.6305   21.1303 H   0  0  0  0  0  0
  -19.6709  -27.3217   20.6778 H   0  0  0  0  0  0
  -17.4208  -26.6689   21.4000 H   0  0  0  0  0  0
  -18.0249  -26.0087   22.9037 H   0  0  0  0  0  0
  -19.7935  -30.7230   24.2294 H   0  0  0  0  0  0
  -17.5049  -31.6290   24.5178 H   0  0  0  0  0  0
  -15.5338  -30.3048   23.7660 H   0  0  0  0  0  0
  -15.8648  -28.0884   22.7050 H   0  0  0  0  0  0
  -24.5875  -30.7029   25.7753 H   0  0  0  0  0  0
  -24.8863  -32.2756   26.5006 H   0  0  0  0  0  0
  -25.8007  -30.8733   27.0217 H   0  0  0  0  0  0
  -26.2842  -29.6760   24.1207 H   0  0  0  0  0  0
  -27.4137  -29.7304   25.4530 H   0  0  0  0  0  0
  -27.8638  -30.4373   23.9218 H   0  0  0  0  0  0
  -27.2698  -33.3650   26.2051 H   0  0  0  0  0  0
  -28.3780  -32.6894   25.0226 H   0  0  0  0  0  0
  -28.0796  -31.8502   26.5356 H   0  0  0  0  0  0
  -28.2604  -38.0119   24.7535 H   0  0  0  0  0  0
  -28.1136  -36.2644   24.6274 H   0  0  0  0  0  0
  -27.2300  -37.1458   25.8840 H   0  0  0  0  0  0
  -20.9304  -29.8784   21.6982 H   0  0  0  0  0  0
  -26.0273  -38.2913   24.1312 H   0  0  0  0  0  0
  -29.5109  -21.2219   18.1304 H   0  0  0  0  0  0
  -28.9411  -18.9937   17.3160 H   0  0  0  0  0  0
  -26.8762  -21.8611   23.1069 H   0  0  0  0  0  0
  -29.6465  -24.0094   23.0626 H   0  0  0  0  0  0
  -28.0720  -23.8636   23.7903 H   0  0  0  0  0  0
  -28.7721  -26.1399   22.5947 H   0  0  0  0  0  0
  -27.1293  -25.5742   22.4751 H   0  0  0  0  0  0
  -30.3154  -24.6698   20.6652 H   0  0  0  0  0  0
  -29.5244  -24.3748   19.1370 H   0  0  0  0  0  0
  -27.3299  -24.8526   20.2591 H   0  0  0  0  0  0
  -30.4370  -20.6348   22.8210 H   0  0  0  0  0  0
  -31.4746  -19.2194   22.7072 H   0  0  0  0  0  0
  -29.7509  -19.0908   23.0910 H   0  0  0  0  0  0
  -27.3355  -20.8455   20.2204 H   0  0  0  0  0  0
  -25.8881  -20.6506   21.1915 H   0  0  0  0  0  0
  -27.3468  -19.7581   21.6150 H   0  0  0  0  0  0
  -29.7738  -17.0514   22.3579 H   0  0  0  0  0  0
  -31.3398  -16.9097   21.6227 H   0  0  0  0  0  0
  -30.9662  -22.4443   19.7838 H   0  0  0  0  0  0
  -30.8984  -22.1228   21.4628 H   0  0  0  0  0  0
  -28.9764  -15.2011   21.3822 H   0  0  0  0  0  0
  -28.4931  -22.5610   19.9032 H   0  0  0  0  0  0
  1 25  1  0  0  0
  1 30  2  0  0  0
  1 87  1  0  0  0
  2  3  1  0  0  0
  2 25  1  0  0  0
  2 90  1  0  0  0
  2 91  1  0  0  0
  3  4  1  0  0  0
  3 92  1  0  0  0
  3 93  1  0  0  0
  4  5  1  0  0  0
  4 94  1  0  0  0
  4 95  1  0  0  0
  5  6  1  0  0  0
  5 26  1  0  0  0
  5 96  1  0  0  0
  6 25  1  0  0  0
  6 97  1  0  0  0
  6 98  1  0  0  0
  7  8  2  0  0  0
  7 26  1  0  0  0
  7 29  1  0  0  0
  8  9  1  0  0  0
  8 22  1  0  0  0
  9 10  1  0  0  0
  9 27  2  0  0  0
 10 11  2  0  0  0
 10 15  1  0  0  0
 11 12  1  0  0  0
 11 99  1  0  0  0
 12 13  2  0  0  0
 12100  1  0  0  0
 13 14  1  0  0  0
 13 31  1  0  0  0
 14 15  2  0  0  0
 14101  1  0  0  0
 15102  1  0  0  0
 16 17  2  0  0  0
 16 21  1  0  0  0
 16 31  1  0  0  0
 17 18  1  0  0  0
 17103  1  0  0  0
 18 19  2  0  0  0
 18104  1  0  0  0
 19 20  1  0  0  0
 19 24  1  0  0  0
 20 21  2  0  0  0
 20105  1  0  0  0
 21 23  1  0  0  0
 22 28  1  0  0  0
 22 32  2  0  0  0
 26 27  1  0  0  0
 28106  1  0  0  0
 28107  1  0  0  0
 29108  1  0  0  0
 29109  1  0  0  0
 33 34  1  0  0  0
 33 66  1  0  0  0
 33 70  2  0  0  0
 34 36  1  0  0  0
 34 59  1  0  0  0
 34110  1  0  0  0
 35 44  2  0  0  0
 35 45  1  0  0  0
 35 68  1  0  0  0
 36 56  1  0  0  0
 36111  1  0  0  0
 37 39  1  0  0  0
 37 47  1  0  0  0
 37 66  1  0  0  0
 37112  1  0  0  0
 38 43  2  0  0  0
 38 46  1  0  0  0
 38 47  1  0  0  0
 39 64  1  0  0  0
 39 67  2  0  0  0
 40 52  1  0  0  0
 40 53  2  0  0  0
 40 58  1  0  0  0
 41113  1  0  0  0
 41114  1  0  0  0
 41115  1  0  0  0
 41 48  1  0  0  0
 42 43  1  0  0  0
 42 66  1  0  0  0
 42116  1  0  0  0
 42117  1  0  0  0
 43 44  1  0  0  0
 44118  1  0  0  0
 45 46  2  0  0  0
 45119  1  0  0  0
 46120  1  0  0  0
 47121  1  0  0  0
 47122  1  0  0  0
 48 56  1  0  0  0
 48 65  1  0  0  0
 48123  1  0  0  0
 49 50  1  0  0  0
 49 53  1  0  0  0
 49 64  1  0  0  0
 49124  1  0  0  0
 50 51  1  0  0  0
 50125  1  0  0  0
 50126  1  0  0  0
 51 52  1  0  0  0
 51127  1  0  0  0
 51128  1  0  0  0
 52129  1  0  0  0
 52130  1  0  0  0
 53 54  1  0  0  0
 54 55  2  0  0  0
 54131  1  0  0  0
 55 57  1  0  0  0
 55132  1  0  0  0
 56 69  2  0  0  0
 57 58  2  0  0  0
 57133  1  0  0  0
 58134  1  0  0  0
 59 60  1  0  0  0
 59 61  1  0  0  0
 59 62  1  0  0  0
 60135  1  0  0  0
 60136  1  0  0  0
 60137  1  0  0  0
 61138  1  0  0  0
 61139  1  0  0  0
 61140  1  0  0  0
 62141  1  0  0  0
 62142  1  0  0  0
 62143  1  0  0  0
 63 65  1  0  0  0
 63144  1  0  0  0
 63145  1  0  0  0
 63146  1  0  0  0
 64147  1  0  0  0
 65148  1  0  0  0
 68 82  1  0  0  0
 71 72  2  0  0  0
 71 73  1  0  0  0
 71149  1  0  0  0
 72 76  1  0  0  0
 72150  1  0  0  0
 73 74  2  0  0  0
 73 86  1  0  0  0
 74 75  1  0  0  0
 74 83  1  0  0  0
 75 76  2  0  0  0
 75 85  1  0  0  0
 76 89  1  0  0  0
 77 78  2  0  0  0
 77 79  1  0  0  0
 77 88  1  0  0  0
 78 84  1  0  0  0
 78151  1  0  0  0
 79 80  1  0  0  0
 79152  1  0  0  0
 79153  1  0  0  0
 80 82  1  0  0  0
 80154  1  0  0  0
 80155  1  0  0  0
 81 82  1  0  0  0
 81 88  1  0  0  0
 81156  1  0  0  0
 81157  1  0  0  0
 82158  1  0  0  0
 83159  1  0  0  0
 83160  1  0  0  0
 83161  1  0  0  0
 84162  1  0  0  0
 84163  1  0  0  0
 84164  1  0  0  0
 85 87  1  0  0  0
 85165  1  0  0  0
 85166  1  0  0  0
 86167  1  0  0  0
 86168  1  0  0  0
 86 88  1  0  0  0
 87169  1  0  0  0
 88170  1  0  0  0
M  CHG  1  88   1
M  ISO  4   1 100  68 101  82 101  87 100
M  END
> <chiral flag>
0

> <version>
0

> <s_m_source_file>
/data/baiqing/PycharmProjects/Reinvent-master-3.2/result/LINK_invent/BTK/process_docking_weight1_custom_product_contain_oxygen_bond_distance_aromatic_linkinvent_7_9_3/rearranged_h_0037.sdf

> <i_m_source_file_index>
23

> <r_mmod_Potential_Energy-OPLS-2005>
-100.860916137695

> <r_mmod_Stretch_Energy-OPLS-2005>
54.8091087341309

> <r_mmod_Bend_Energy-OPLS-2005>
127.927680969238

> <r_mmod_Torsional_Energy-OPLS-2005>
234.977340698242

> <r_mmod_Improper_Torsional_Energy-OPLS-2005>
3.38344359397888

> <r_mmod_Van_der_Waal_Energy-OPLS-2005>
161.30305480957

> <r_mmod_Electrostatic_Energy-OPLS-2005>
-279.783142089844

> <r_mmod_Solvation_Energy-OPLS-2005>
-420.912475585938

> <b_mmod_Minimization_Converged-OPLS-2005>
0

> <r_mmod_RMS_Derivative-OPLS-2005>
4.52602005004883

$$$$
23
                    3D
 Structure written by MMmdl.
167176  0  0  1  0            999 V2000
  -30.6102  -14.6759   20.5335 C   0  0  0  0  0  0
  -30.4508  -12.4264   19.4623 C   0  0  0  0  0  0
  -29.5213  -12.5242   18.2301 C   0  0  0  0  0  0
  -28.0432  -12.3509   18.6373 C   0  0  0  0  0  0
  -27.6570  -13.2176   19.8646 C   0  0  2  0  0  0
  -28.7004  -13.0755   20.9958 C   0  0  0  0  0  0
  -25.2586  -13.8146   20.5657 C   0  0  0  0  0  0
  -24.1853  -13.0422   20.9176 C   0  0  0  0  0  0
  -24.6411  -11.6889   20.8732 C   0  0  0  0  0  0
  -23.9050  -10.4293   21.0380 C   0  0  0  0  0  0
  -24.3608   -9.4219   21.9152 C   0  0  0  0  0  0
  -23.6303   -8.2254   22.0734 C   0  0  0  0  0  0
  -22.4278   -8.0277   21.3550 C   0  0  0  0  0  0
  -21.9905   -9.0233   20.4639 C   0  0  0  0  0  0
  -22.7220  -10.2118   20.3030 C   0  0  0  0  0  0
  -21.6869   -6.0729   22.5274 C   0  0  0  0  0  0
  -21.4030   -6.5629   23.8210 C   0  0  0  0  0  0
  -21.3661   -5.6782   24.9168 C   0  0  0  0  0  0
  -21.6038   -4.3042   24.7207 C   0  0  0  0  0  0
  -21.8825   -3.8133   23.4334 C   0  0  0  0  0  0
  -21.9209   -4.6961   22.3392 C   0  0  0  0  0  0
  -22.7879  -13.5208   21.1827 C   0  0  0  0  0  0
  -22.1657   -4.2127   21.0977 F   0  0  0  0  0  0
  -21.5629   -3.4532   25.7732 F   0  0  0  0  0  0
  -30.0141  -13.4419   20.4425 N   0  0  0  0  0  0
  -26.3012  -12.9324   20.3281 N   0  0  0  0  0  0
  -25.9345  -11.6478   20.5742 N   0  0  0  0  0  0
  -22.0513  -12.8224   22.0399 N   0  0  0  0  0  0
  -25.4317  -15.1854   20.4060 N   0  0  0  0  0  0
  -31.7590  -14.8571   20.1181 O   0  0  0  0  0  0
  -21.6654   -6.8873   21.4239 O   0  0  0  0  0  0
  -22.3578  -14.5518   20.6671 O   0  0  0  0  0  0
  -24.6239  -31.8602   23.2001 C   0  0  0  0  0  0
  -25.9090  -32.4778   23.8343 C   0  0  1  0  0  0
  -27.2386  -27.3234   20.1334 C   0  0  0  0  0  0
  -25.5890  -33.8581   24.2272 N   0  0  0  0  0  0
  -23.4186  -30.4817   21.5425 C   0  0  2  0  0  0
  -24.8677  -28.9321   20.1135 C   0  0  0  0  0  0
  -22.7461  -29.4625   22.4925 C   0  0  0  0  0  0
  -18.0286  -28.1376   22.8485 C   0  0  0  0  0  0
  -24.1496  -36.7301   23.2642 C   0  0  0  0  0  0
  -25.9560  -30.7975   21.3663 C   0  0  0  0  0  0
  -26.0345  -29.4233   20.7112 C   0  0  0  0  0  0
  -27.2193  -28.6311   20.7095 C   0  0  0  0  0  0
  -26.0449  -26.8805   19.5158 C   0  0  0  0  0  0
  -24.8750  -27.6663   19.5068 C   0  0  0  0  0  0
  -23.6333  -29.8099   20.1591 C   0  0  0  0  0  0
  -25.4116  -36.3082   24.0331 C   0  0  1  0  0  0
  -20.5885  -28.3688   23.1280 C   0  0  2  0  0  0
  -20.6779  -26.9411   22.5416 C   0  0  0  0  0  0
  -19.5767  -26.6376   21.5212 C   0  0  0  0  0  0
  -18.1935  -26.7915   22.1617 C   0  0  0  0  0  0
  -19.1539  -28.8848   23.2876 C   0  0  0  0  0  0
  -18.9456  -30.1444   23.8891 C   0  0  0  0  0  0
  -17.6459  -30.6584   24.0547 C   0  0  0  0  0  0
  -25.9059  -34.9455   23.5110 C   0  0  0  0  0  0
  -16.5348  -29.9080   23.6316 C   0  0  0  0  0  0
  -16.7275  -28.6493   23.0349 C   0  0  0  0  0  0
  -26.4484  -31.6573   25.0704 C   0  0  0  0  0  0
  -25.3734  -31.3690   26.1438 C   0  0  0  0  0  0
  -27.0312  -30.2994   24.6137 C   0  0  0  0  0  0
  -27.6055  -32.4297   25.7473 C   0  0  0  0  0  0
  -27.5582  -37.1797   24.8456 C   0  0  0  0  0  0
  -21.4177  -29.3031   22.3662 N   0  0  0  0  0  0
  -26.4289  -37.3775   23.9405 N   0  0  0  0  0  0
  -24.6847  -31.0628   22.0934 N   0  0  0  0  0  0
  -23.4189  -28.8189   23.3022 O   0  0  0  0  0  0
  -28.3850  -26.5125   20.2148 O   0  0  0  0  0  0
  -26.5641  -34.8921   22.4688 O   0  0  0  0  0  0
  -23.5406  -32.1386   23.7342 O   0  0  0  0  0  0
  -28.4673  -19.2038   20.3018 C   0  0  0  0  0  0
  -28.6688  -17.7920   20.2821 C   0  0  0  0  0  0
  -30.5581  -19.4795   21.4349 C   0  0  0  0  0  0
  -29.3846  -20.0964   20.9116 C   0  0  0  0  0  0
  -30.7788  -18.0583   21.4007 C   0  0  0  0  0  0
  -29.8143  -17.1627   20.8399 C   0  0  0  0  0  0
  -29.8750  -22.6390   19.0202 C   0  0  0  0  0  0
  -31.0259  -22.1893   18.4886 C   0  0  0  0  0  0
  -28.6948  -23.2281   18.2663 C   0  0  0  0  0  0
  -28.5922  -24.7415   18.5342 C   0  0  0  0  0  0
  -29.3374  -24.1966   20.9172 C   0  0  0  0  0  0
  -28.3260  -25.0410   20.0206 C   0  0  1  0  0  0
  -32.0382  -17.5138   22.0468 C   0  0  0  0  0  0
  -32.2472  -21.7270   19.2616 C   0  0  0  0  0  0
  -28.9835  -21.6122   21.1740 C   0  0  0  0  0  0
  -29.8052  -15.6972   20.9823 N   0  0  0  0  0  0
  -29.6888  -22.7681   20.4867 N   0  3  1  0  0  0
  -31.4894  -12.5725   19.1594 H   0  0  0  0  0  0
  -30.4053  -11.4308   19.9048 H   0  0  0  0  0  0
  -29.7997  -11.7685   17.4947 H   0  0  0  0  0  0
  -29.6572  -13.4902   17.7420 H   0  0  0  0  0  0
  -27.8967  -11.2970   18.8750 H   0  0  0  0  0  0
  -27.3884  -12.5714   17.7926 H   0  0  0  0  0  0
  -27.6702  -14.2548   19.5299 H   0  0  0  0  0  0
  -28.7234  -12.0503   21.3667 H   0  0  0  0  0  0
  -28.4296  -13.6917   21.8538 H   0  0  0  0  0  0
  -25.2753   -9.5694   22.4730 H   0  0  0  0  0  0
  -24.0002   -7.4650   22.7454 H   0  0  0  0  0  0
  -21.0826   -8.8754   19.8964 H   0  0  0  0  0  0
  -22.3662  -10.9657   19.6143 H   0  0  0  0  0  0
  -21.2021   -7.6139   23.9709 H   0  0  0  0  0  0
  -21.1479   -6.0507   25.9070 H   0  0  0  0  0  0
  -22.0613   -2.7596   23.2844 H   0  0  0  0  0  0
  -22.4086  -11.9893   22.4836 H   0  0  0  0  0  0
  -21.1118  -13.1275   22.2538 H   0  0  0  0  0  0
  -24.6695  -15.8459   20.5092 H   0  0  0  0  0  0
  -26.2762  -15.6165   20.0579 H   0  0  0  0  0  0
  -26.7152  -32.5467   23.1102 H   0  0  0  0  0  0
  -24.9977  -33.9715   25.0368 H   0  0  0  0  0  0
  -22.7113  -31.3003   21.3980 H   0  0  0  0  0  0
  -23.3755  -35.9632   23.3283 H   0  0  0  0  0  0
  -24.3584  -36.8947   22.2054 H   0  0  0  0  0  0
  -23.7249  -37.6502   23.6678 H   0  0  0  0  0  0
  -26.0803  -31.5595   20.5955 H   0  0  0  0  0  0
  -26.8364  -30.8505   21.9948 H   0  0  0  0  0  0
  -28.1152  -29.0076   21.1846 H   0  0  0  0  0  0
  -25.9813  -25.9092   19.0506 H   0  0  0  0  0  0
  -23.9765  -27.2800   19.0454 H   0  0  0  0  0  0
  -23.7475  -30.5845   19.3990 H   0  0  0  0  0  0
  -22.7534  -29.2364   19.8632 H   0  0  0  0  0  0
  -25.1298  -36.1929   25.0819 H   0  0  0  0  0  0
  -20.9982  -28.3271   24.1401 H   0  0  0  0  0  0
  -20.5675  -26.2300   23.3615 H   0  0  0  0  0  0
  -21.6653  -26.7441   22.1206 H   0  0  0  0  0  0
  -19.6927  -25.6292   21.1232 H   0  0  0  0  0  0
  -19.6710  -27.3193   20.6747 H   0  0  0  0  0  0
  -17.4217  -26.6675   21.3999 H   0  0  0  0  0  0
  -18.0325  -26.0041   22.9001 H   0  0  0  0  0  0
  -19.7940  -30.7246   24.2266 H   0  0  0  0  0  0
  -17.5024  -31.6265   24.5148 H   0  0  0  0  0  0
  -15.5349  -30.2983   23.7643 H   0  0  0  0  0  0
  -15.8674  -28.0803   22.7076 H   0  0  0  0  0  0
  -24.5922  -30.7025   25.7770 H   0  0  0  0  0  0
  -24.8917  -32.2850   26.4869 H   0  0  0  0  0  0
  -25.8077  -30.8871   27.0208 H   0  0  0  0  0  0
  -26.2874  -29.6744   24.1186 H   0  0  0  0  0  0
  -27.4036  -29.7239   25.4622 H   0  0  0  0  0  0
  -27.8730  -30.4270   23.9331 H   0  0  0  0  0  0
  -27.2668  -33.3590   26.2062 H   0  0  0  0  0  0
  -28.3859  -32.6859   25.0297 H   0  0  0  0  0  0
  -28.0724  -31.8411   26.5375 H   0  0  0  0  0  0
  -28.2593  -38.0109   24.7510 H   0  0  0  0  0  0
  -28.1090  -36.2631   24.6268 H   0  0  0  0  0  0
  -27.2296  -37.1427   25.8863 H   0  0  0  0  0  0
  -20.9345  -29.8727   21.6852 H   0  0  0  0  0  0
  -26.0172  -38.2848   24.1421 H   0  0  0  0  0  0
  -27.5398  -19.5910   19.9000 H   0  0  0  0  0  0
  -27.8854  -17.1811   19.8585 H   0  0  0  0  0  0
  -31.2812  -20.1052   21.9363 H   0  0  0  0  0  0
  -31.1288  -22.1680   17.4138 H   0  0  0  0  0  0
  -27.7751  -22.7234   18.5677 H   0  0  0  0  0  0
  -28.8171  -23.0401   17.1993 H   0  0  0  0  0  0
  -27.8139  -25.1774   17.9088 H   0  0  0  0  0  0
  -29.5254  -25.2215   18.2352 H   0  0  0  0  0  0
  -29.0231  -24.2158   21.9611 H   0  0  0  0  0  0
  -30.2840  -24.7389   20.8964 H   0  0  0  0  0  0
  -27.3309  -24.6807   20.2827 H   0  0  0  0  0  0
  -32.5714  -18.2885   22.5985 H   0  0  0  0  0  0
  -32.7108  -17.1268   21.2805 H   0  0  0  0  0  0
  -31.8009  -16.7096   22.7429 H   0  0  0  0  0  0
  -32.1378  -21.8275   20.3412 H   0  0  0  0  0  0
  -33.1165  -22.3112   18.9609 H   0  0  0  0  0  0
  -32.4517  -20.6797   19.0420 H   0  0  0  0  0  0
  -29.0837  -21.7730   22.2484 H   0  0  0  0  0  0
  -27.9175  -21.7194   20.9757 H   0  0  0  0  0  0
  -28.9081  -15.3327   21.2666 H   0  0  0  0  0  0
  -30.6146  -22.6602   20.8732 H   0  0  0  0  0  0
  1 25  1  0  0  0
  1 30  2  0  0  0
  1 86  1  0  0  0
  2  3  1  0  0  0
  2 25  1  0  0  0
  2 88  1  0  0  0
  2 89  1  0  0  0
  3  4  1  0  0  0
  3 90  1  0  0  0
  3 91  1  0  0  0
  4  5  1  0  0  0
  4 92  1  0  0  0
  4 93  1  0  0  0
  5  6  1  0  0  0
  5 26  1  0  0  0
  5 94  1  0  0  0
  6 25  1  0  0  0
  6 95  1  0  0  0
  6 96  1  0  0  0
  7  8  2  0  0  0
  7 26  1  0  0  0
  7 29  1  0  0  0
  8  9  1  0  0  0
  8 22  1  0  0  0
  9 10  1  0  0  0
  9 27  2  0  0  0
 10 11  2  0  0  0
 10 15  1  0  0  0
 11 12  1  0  0  0
 11 97  1  0  0  0
 12 13  2  0  0  0
 12 98  1  0  0  0
 13 14  1  0  0  0
 13 31  1  0  0  0
 14 15  2  0  0  0
 14 99  1  0  0  0
 15100  1  0  0  0
 16 17  2  0  0  0
 16 21  1  0  0  0
 16 31  1  0  0  0
 17 18  1  0  0  0
 17101  1  0  0  0
 18 19  2  0  0  0
 18102  1  0  0  0
 19 20  1  0  0  0
 19 24  1  0  0  0
 20 21  2  0  0  0
 20103  1  0  0  0
 21 23  1  0  0  0
 22 28  1  0  0  0
 22 32  2  0  0  0
 26 27  1  0  0  0
 28104  1  0  0  0
 28105  1  0  0  0
 29106  1  0  0  0
 29107  1  0  0  0
 33 34  1  0  0  0
 33 66  1  0  0  0
 33 70  2  0  0  0
 34 36  1  0  0  0
 34 59  1  0  0  0
 34108  1  0  0  0
 35 44  2  0  0  0
 35 45  1  0  0  0
 35 68  1  0  0  0
 36 56  1  0  0  0
 36109  1  0  0  0
 37 39  1  0  0  0
 37 47  1  0  0  0
 37 66  1  0  0  0
 37110  1  0  0  0
 38 43  2  0  0  0
 38 46  1  0  0  0
 38 47  1  0  0  0
 39 64  1  0  0  0
 39 67  2  0  0  0
 40 52  1  0  0  0
 40 53  2  0  0  0
 40 58  1  0  0  0
 41111  1  0  0  0
 41112  1  0  0  0
 41113  1  0  0  0
 41 48  1  0  0  0
 42 43  1  0  0  0
 42 66  1  0  0  0
 42114  1  0  0  0
 42115  1  0  0  0
 43 44  1  0  0  0
 44116  1  0  0  0
 45 46  2  0  0  0
 45117  1  0  0  0
 46118  1  0  0  0
 47119  1  0  0  0
 47120  1  0  0  0
 48 56  1  0  0  0
 48 65  1  0  0  0
 48121  1  0  0  0
 49 50  1  0  0  0
 49 53  1  0  0  0
 49 64  1  0  0  0
 49122  1  0  0  0
 50 51  1  0  0  0
 50123  1  0  0  0
 50124  1  0  0  0
 51 52  1  0  0  0
 51125  1  0  0  0
 51126  1  0  0  0
 52127  1  0  0  0
 52128  1  0  0  0
 53 54  1  0  0  0
 54 55  2  0  0  0
 54129  1  0  0  0
 55 57  1  0  0  0
 55130  1  0  0  0
 56 69  2  0  0  0
 57 58  2  0  0  0
 57131  1  0  0  0
 58132  1  0  0  0
 59 60  1  0  0  0
 59 61  1  0  0  0
 59 62  1  0  0  0
 60133  1  0  0  0
 60134  1  0  0  0
 60135  1  0  0  0
 61136  1  0  0  0
 61137  1  0  0  0
 61138  1  0  0  0
 62139  1  0  0  0
 62140  1  0  0  0
 62141  1  0  0  0
 63 65  1  0  0  0
 63142  1  0  0  0
 63143  1  0  0  0
 63144  1  0  0  0
 64145  1  0  0  0
 65146  1  0  0  0
 68 82  1  0  0  0
 71 72  2  0  0  0
 71 74  1  0  0  0
 71147  1  0  0  0
 72 76  1  0  0  0
 72148  1  0  0  0
 73 74  2  0  0  0
 73 75  1  0  0  0
 73149  1  0  0  0
 74 85  1  0  0  0
 75 76  2  0  0  0
 75 83  1  0  0  0
 76 86  1  0  0  0
 77 78  2  0  0  0
 77 79  1  0  0  0
 77 87  1  0  0  0
 78 84  1  0  0  0
 78150  1  0  0  0
 79 80  1  0  0  0
 79151  1  0  0  0
 79152  1  0  0  0
 80 82  1  0  0  0
 80153  1  0  0  0
 80154  1  0  0  0
 81 82  1  0  0  0
 81 87  1  0  0  0
 81155  1  0  0  0
 81156  1  0  0  0
 82157  1  0  0  0
 83158  1  0  0  0
 83159  1  0  0  0
 83160  1  0  0  0
 84161  1  0  0  0
 84162  1  0  0  0
 84163  1  0  0  0
 85164  1  0  0  0
 85165  1  0  0  0
 85 87  1  0  0  0
 86166  1  0  0  0
 87167  1  0  0  0
M  CHG  1  87   1
M  ISO  4   1 100  68 101  82 101  86 100
M  END
> <chiral flag>
0

> <version>
0

> <s_m_source_file>
/data/baiqing/PycharmProjects/Reinvent-master-3.2/result/LINK_invent/BTK/process_docking_weight1_custom_product_contain_oxygen_bond_distance_aromatic_linkinvent_7_9_3/rearranged_h_0037.sdf

> <i_m_source_file_index>
24

> <r_mmod_Potential_Energy-OPLS-2005>
-10.4111166000366

> <r_mmod_Stretch_Energy-OPLS-2005>
88.2834854125977

> <r_mmod_Bend_Energy-OPLS-2005>
168.315780639648

> <r_mmod_Torsional_Energy-OPLS-2005>
251.914093017578

> <r_mmod_Improper_Torsional_Energy-OPLS-2005>
6.57766819000244

> <r_mmod_Van_der_Waal_Energy-OPLS-2005>
132.953491210938

> <r_mmod_Electrostatic_Energy-OPLS-2005>
-291.326904296875

> <r_mmod_Solvation_Energy-OPLS-2005>
-420.215850830078

> <b_mmod_Minimization_Converged-OPLS-2005>
0

> <r_mmod_RMS_Derivative-OPLS-2005>
3.37016916275024

$$$$
24
                    3D
 Structure written by MMmdl.
157165  0  0  1  0            999 V2000
  -30.6760  -14.5219   20.5547 C   0  0  0  0  0  0
  -30.4319  -12.3503   19.4218 C   0  0  0  0  0  0
  -29.4836  -12.4912   18.2094 C   0  0  0  0  0  0
  -28.0106  -12.3508   18.6351 C   0  0  0  0  0  0
  -27.6608  -13.2048   19.8827 C   0  0  2  0  0  0
  -28.7035  -13.0096   21.0058 C   0  0  0  0  0  0
  -25.2584  -13.8166   20.5710 C   0  0  0  0  0  0
  -24.1846  -13.0426   20.9250 C   0  0  0  0  0  0
  -24.6425  -11.6907   20.8816 C   0  0  0  0  0  0
  -23.9070  -10.4280   21.0456 C   0  0  0  0  0  0
  -24.3615   -9.4187   21.9218 C   0  0  0  0  0  0
  -23.6308   -8.2210   22.0760 C   0  0  0  0  0  0
  -22.4282   -8.0279   21.3550 C   0  0  0  0  0  0
  -21.9916   -9.0248   20.4629 C   0  0  0  0  0  0
  -22.7246  -10.2139   20.3082 C   0  0  0  0  0  0
  -21.6870   -6.0740   22.5269 C   0  0  0  0  0  0
  -21.3983   -6.5643   23.8198 C   0  0  0  0  0  0
  -21.3657   -5.6803   24.9182 C   0  0  0  0  0  0
  -21.6084   -4.3071   24.7230 C   0  0  0  0  0  0
  -21.8816   -3.8153   23.4344 C   0  0  0  0  0  0
  -21.9184   -4.6965   22.3402 C   0  0  0  0  0  0
  -22.7855  -13.5210   21.1899 C   0  0  0  0  0  0
  -22.1664   -4.2166   21.0979 F   0  0  0  0  0  0
  -21.5654   -3.4544   25.7733 F   0  0  0  0  0  0
  -30.0240  -13.3333   20.4411 N   0  0  0  0  0  0
  -26.3033  -12.9337   20.3437 N   0  0  0  0  0  0
  -25.9350  -11.6504   20.5853 N   0  0  0  0  0  0
  -22.0484  -12.8226   22.0485 N   0  0  0  0  0  0
  -25.4200  -15.1857   20.3865 N   0  0  0  0  0  0
  -31.8292  -14.6816   20.1455 O   0  0  0  0  0  0
  -21.6661   -6.8876   21.4237 O   0  0  0  0  0  0
  -22.3524  -14.5501   20.6747 O   0  0  0  0  0  0
  -24.6192  -31.8653   23.2104 C   0  0  0  0  0  0
  -25.9091  -32.4808   23.8391 C   0  0  1  0  0  0
  -27.2189  -27.3827   20.0810 C   0  0  0  0  0  0
  -25.5941  -33.8603   24.2308 N   0  0  0  0  0  0
  -23.4105  -30.4921   21.5488 C   0  0  2  0  0  0
  -24.8530  -28.9570   20.1140 C   0  0  0  0  0  0
  -22.7426  -29.4645   22.4966 C   0  0  0  0  0  0
  -18.0158  -28.1334   22.8403 C   0  0  0  0  0  0
  -24.1500  -36.7300   23.2630 C   0  0  0  0  0  0
  -25.9499  -30.8066   21.3812 C   0  0  0  0  0  0
  -26.0188  -29.4406   20.7203 C   0  0  0  0  0  0
  -27.2004  -28.6562   20.7067 C   0  0  0  0  0  0
  -26.0319  -26.9406   19.4568 C   0  0  0  0  0  0
  -24.8558  -27.7043   19.4835 C   0  0  0  0  0  0
  -23.6260  -29.8357   20.1600 C   0  0  0  0  0  0
  -25.4120  -36.3066   24.0307 C   0  0  1  0  0  0
  -20.5781  -28.3690   23.1198 C   0  0  2  0  0  0
  -20.6742  -26.9470   22.5087 C   0  0  0  0  0  0
  -19.5595  -26.6365   21.5044 C   0  0  0  0  0  0
  -18.1792  -26.7895   22.1490 C   0  0  0  0  0  0
  -19.1391  -28.8822   23.2784 C   0  0  0  0  0  0
  -18.9267  -30.1408   23.8823 C   0  0  0  0  0  0
  -17.6264  -30.6501   24.0549 C   0  0  0  0  0  0
  -25.9049  -34.9440   23.5091 C   0  0  0  0  0  0
  -16.5183  -29.8971   23.6291 C   0  0  0  0  0  0
  -16.7143  -28.6434   23.0258 C   0  0  0  0  0  0
  -26.4519  -31.6632   25.0760 C   0  0  0  0  0  0
  -25.3782  -31.3765   26.1516 C   0  0  0  0  0  0
  -27.0361  -30.3051   24.6222 C   0  0  0  0  0  0
  -27.6065  -32.4377   25.7582 C   0  0  0  0  0  0
  -27.5562  -37.1812   24.8459 C   0  0  0  0  0  0
  -21.4134  -29.3132   22.3758 N   0  0  0  0  0  0
  -26.4275  -37.3761   23.9395 N   0  0  0  0  0  0
  -24.6769  -31.0718   22.1022 N   0  0  0  0  0  0
  -23.4185  -28.8093   23.2949 O   0  0  0  0  0  0
  -28.3617  -26.5972   20.1441 O   0  0  0  0  0  0
  -26.5608  -34.8900   22.4647 O   0  0  0  0  0  0
  -23.5376  -32.1465   23.7463 O   0  0  0  0  0  0
  -27.9946  -17.8948   21.3866 C   0  0  0  0  0  0
  -27.0396  -18.9237   21.4714 C   0  0  0  0  0  0
  -29.2373  -18.1193   20.7530 C   0  0  0  0  0  0
  -28.4988  -20.4527   20.2265 C   0  0  0  0  0  0
  -27.2806  -20.1864   20.8960 C   0  0  0  0  0  0
  -29.4868  -19.4131   20.1995 C   0  0  0  0  0  0
  -27.9960  -24.1431   19.3601 C   0  0  0  0  0  0
  -29.5699  -23.3151   21.1075 C   0  0  0  0  0  0
  -30.3160  -17.0018   20.7026 C   0  0  0  0  0  0
  -28.6402  -21.7458   19.3774 C   0  0  0  0  0  0
  -28.6354  -25.5637   19.1598 C   0  0  0  0  0  0
  -29.9217  -15.5855   20.9253 N   0  0  0  0  0  0
  -28.6592  -23.1167   19.9794 N   0  0  0  0  0  0
  -26.9695  -23.9006   18.7185 O   0  0  0  0  0  0
  -26.0216  -21.3637   20.9778 Cl  0  0  0  0  0  0
  -31.0344  -19.7249   19.4850 Cl  0  0  0  0  0  0
  -31.4605  -12.5004   19.0904 H   0  0  0  0  0  0
  -30.3902  -11.3419   19.8362 H   0  0  0  0  0  0
  -29.7223  -11.7381   17.4555 H   0  0  0  0  0  0
  -29.6243  -13.4620   17.7285 H   0  0  0  0  0  0
  -27.8272  -11.2966   18.8449 H   0  0  0  0  0  0
  -27.3502  -12.6106   17.8069 H   0  0  0  0  0  0
  -27.6966  -14.2494   19.5761 H   0  0  0  0  0  0
  -28.7010  -11.9763   21.3588 H   0  0  0  0  0  0
  -28.4652  -13.6165   21.8809 H   0  0  0  0  0  0
  -25.2755   -9.5715   22.4802 H   0  0  0  0  0  0
  -24.0053   -7.4598   22.7449 H   0  0  0  0  0  0
  -21.0859   -8.8762   19.8898 H   0  0  0  0  0  0
  -22.3688  -10.9707   19.6208 H   0  0  0  0  0  0
  -21.1945   -7.6142   23.9745 H   0  0  0  0  0  0
  -21.1496   -6.0501   25.9102 H   0  0  0  0  0  0
  -22.0595   -2.7624   23.2821 H   0  0  0  0  0  0
  -22.4062  -11.9906   22.4911 H   0  0  0  0  0  0
  -21.1067  -13.1212   22.2589 H   0  0  0  0  0  0
  -24.6255  -15.8149   20.4401 H   0  0  0  0  0  0
  -26.2331  -15.6199   19.9672 H   0  0  0  0  0  0
  -26.7148  -32.5496   23.1132 H   0  0  0  0  0  0
  -25.0207  -33.9796   25.0532 H   0  0  0  0  0  0
  -22.7025  -31.3100   21.4049 H   0  0  0  0  0  0
  -23.3717  -35.9674   23.3327 H   0  0  0  0  0  0
  -24.3586  -36.8896   22.2028 H   0  0  0  0  0  0
  -23.7301  -37.6524   23.6668 H   0  0  0  0  0  0
  -26.0889  -31.5739   20.6194 H   0  0  0  0  0  0
  -26.8234  -30.8407   22.0160 H   0  0  0  0  0  0
  -28.0994  -29.0266   21.1791 H   0  0  0  0  0  0
  -25.9691  -25.9987   18.9482 H   0  0  0  0  0  0
  -23.9608  -27.3264   19.0077 H   0  0  0  0  0  0
  -23.7544  -30.6111   19.4031 H   0  0  0  0  0  0
  -22.7488  -29.2662   19.8521 H   0  0  0  0  0  0
  -25.1302  -36.1902   25.0789 H   0  0  0  0  0  0
  -20.9886  -28.3174   24.1292 H   0  0  0  0  0  0
  -20.5967  -26.2154   23.3152 H   0  0  0  0  0  0
  -21.6507  -26.7722   22.0535 H   0  0  0  0  0  0
  -19.6726  -25.6222   21.1221 H   0  0  0  0  0  0
  -19.6442  -27.3022   20.6427 H   0  0  0  0  0  0
  -17.4116  -26.6685   21.3853 H   0  0  0  0  0  0
  -18.0039  -25.9976   22.8765 H   0  0  0  0  0  0
  -19.7696  -30.7218   24.2254 H   0  0  0  0  0  0
  -17.4711  -31.6130   24.5171 H   0  0  0  0  0  0
  -15.5183  -30.2833   23.7610 H   0  0  0  0  0  0
  -15.8487  -28.0809   22.6994 H   0  0  0  0  0  0
  -24.5926  -30.7152   25.7862 H   0  0  0  0  0  0
  -24.9041  -32.2943   26.4997 H   0  0  0  0  0  0
  -25.8135  -30.8908   27.0259 H   0  0  0  0  0  0
  -26.2914  -29.6825   24.1262 H   0  0  0  0  0  0
  -27.4052  -29.7311   25.4733 H   0  0  0  0  0  0
  -27.8810  -30.4344   23.9463 H   0  0  0  0  0  0
  -27.2626  -33.3631   26.2228 H   0  0  0  0  0  0
  -28.3891  -32.7010   25.0456 H   0  0  0  0  0  0
  -28.0754  -31.8484   26.5479 H   0  0  0  0  0  0
  -28.2573  -38.0113   24.7456 H   0  0  0  0  0  0
  -28.1063  -36.2619   24.6354 H   0  0  0  0  0  0
  -27.2296  -37.1556   25.8873 H   0  0  0  0  0  0
  -20.9350  -29.8945   21.7045 H   0  0  0  0  0  0
  -26.0138  -38.2821   24.1410 H   0  0  0  0  0  0
  -27.7787  -16.9413   21.8395 H   0  0  0  0  0  0
  -26.0942  -18.7426   21.9634 H   0  0  0  0  0  0
  -29.0306  -23.1946   22.0463 H   0  0  0  0  0  0
  -30.0335  -24.3013   21.1182 H   0  0  0  0  0  0
  -30.3749  -22.5776   21.1020 H   0  0  0  0  0  0
  -30.7930  -17.0508   19.7178 H   0  0  0  0  0  0
  -31.0716  -17.2671   21.4404 H   0  0  0  0  0  0
  -27.8098  -21.6618   18.6738 H   0  0  0  0  0  0
  -29.5227  -21.6924   18.7405 H   0  0  0  0  0  0
  -28.3348  -25.9317   18.1777 H   0  0  0  0  0  0
  -29.7161  -25.4437   19.0889 H   0  0  0  0  0  0
  -28.9772  -15.3975   21.2268 H   0  0  0  0  0  0
  1 25  1  0  0  0
  1 30  2  0  0  0
  1 82  1  0  0  0
  2  3  1  0  0  0
  2 25  1  0  0  0
  2 87  1  0  0  0
  2 88  1  0  0  0
  3  4  1  0  0  0
  3 89  1  0  0  0
  3 90  1  0  0  0
  4  5  1  0  0  0
  4 91  1  0  0  0
  4 92  1  0  0  0
  5  6  1  0  0  0
  5 26  1  0  0  0
  5 93  1  0  0  0
  6 25  1  0  0  0
  6 94  1  0  0  0
  6 95  1  0  0  0
  7  8  2  0  0  0
  7 26  1  0  0  0
  7 29  1  0  0  0
  8  9  1  0  0  0
  8 22  1  0  0  0
  9 10  1  0  0  0
  9 27  2  0  0  0
 10 11  2  0  0  0
 10 15  1  0  0  0
 11 12  1  0  0  0
 11 96  1  0  0  0
 12 13  2  0  0  0
 12 97  1  0  0  0
 13 14  1  0  0  0
 13 31  1  0  0  0
 14 15  2  0  0  0
 14 98  1  0  0  0
 15 99  1  0  0  0
 16 17  2  0  0  0
 16 21  1  0  0  0
 16 31  1  0  0  0
 17 18  1  0  0  0
 17100  1  0  0  0
 18 19  2  0  0  0
 18101  1  0  0  0
 19 20  1  0  0  0
 19 24  1  0  0  0
 20 21  2  0  0  0
 20102  1  0  0  0
 21 23  1  0  0  0
 22 28  1  0  0  0
 22 32  2  0  0  0
 26 27  1  0  0  0
 28103  1  0  0  0
 28104  1  0  0  0
 29105  1  0  0  0
 29106  1  0  0  0
 33 34  1  0  0  0
 33 66  1  0  0  0
 33 70  2  0  0  0
 34 36  1  0  0  0
 34 59  1  0  0  0
 34107  1  0  0  0
 35 44  2  0  0  0
 35 45  1  0  0  0
 35 68  1  0  0  0
 36 56  1  0  0  0
 36108  1  0  0  0
 37 39  1  0  0  0
 37 47  1  0  0  0
 37 66  1  0  0  0
 37109  1  0  0  0
 38 43  2  0  0  0
 38 46  1  0  0  0
 38 47  1  0  0  0
 39 64  1  0  0  0
 39 67  2  0  0  0
 40 52  1  0  0  0
 40 53  2  0  0  0
 40 58  1  0  0  0
 41110  1  0  0  0
 41111  1  0  0  0
 41112  1  0  0  0
 41 48  1  0  0  0
 42 43  1  0  0  0
 42 66  1  0  0  0
 42113  1  0  0  0
 42114  1  0  0  0
 43 44  1  0  0  0
 44115  1  0  0  0
 45 46  2  0  0  0
 45116  1  0  0  0
 46117  1  0  0  0
 47118  1  0  0  0
 47119  1  0  0  0
 48 56  1  0  0  0
 48 65  1  0  0  0
 48120  1  0  0  0
 49 50  1  0  0  0
 49 53  1  0  0  0
 49 64  1  0  0  0
 49121  1  0  0  0
 50 51  1  0  0  0
 50122  1  0  0  0
 50123  1  0  0  0
 51 52  1  0  0  0
 51124  1  0  0  0
 51125  1  0  0  0
 52126  1  0  0  0
 52127  1  0  0  0
 53 54  1  0  0  0
 54 55  2  0  0  0
 54128  1  0  0  0
 55 57  1  0  0  0
 55129  1  0  0  0
 56 69  2  0  0  0
 57 58  2  0  0  0
 57130  1  0  0  0
 58131  1  0  0  0
 59 60  1  0  0  0
 59 61  1  0  0  0
 59 62  1  0  0  0
 60132  1  0  0  0
 60133  1  0  0  0
 60134  1  0  0  0
 61135  1  0  0  0
 61136  1  0  0  0
 61137  1  0  0  0
 62138  1  0  0  0
 62139  1  0  0  0
 62140  1  0  0  0
 63 65  1  0  0  0
 63141  1  0  0  0
 63142  1  0  0  0
 63143  1  0  0  0
 64144  1  0  0  0
 65145  1  0  0  0
 68 81  1  0  0  0
 71 72  2  0  0  0
 71 73  1  0  0  0
 71146  1  0  0  0
 72 75  1  0  0  0
 72147  1  0  0  0
 73 76  2  0  0  0
 73 79  1  0  0  0
 74 75  2  0  0  0
 74 76  1  0  0  0
 74 80  1  0  0  0
 75 85  1  0  0  0
 76 86  1  0  0  0
 77 81  1  0  0  0
 77 83  1  0  0  0
 77 84  2  0  0  0
 78 83  1  0  0  0
 78148  1  0  0  0
 78149  1  0  0  0
 78150  1  0  0  0
 79 82  1  0  0  0
 79151  1  0  0  0
 79152  1  0  0  0
 80 83  1  0  0  0
 80153  1  0  0  0
 80154  1  0  0  0
 81155  1  0  0  0
 81156  1  0  0  0
 82157  1  0  0  0
M  ISO  4   1 100  68 101  81 101  82 100
M  END
> <chiral flag>
0

> <version>
0

> <s_m_source_file>
/data/baiqing/PycharmProjects/Reinvent-master-3.2/result/LINK_invent/BTK/process_docking_weight1_custom_product_contain_oxygen_bond_distance_aromatic_linkinvent_7_9_3/rearranged_h_0037.sdf

> <i_m_source_file_index>
25

> <r_mmod_Potential_Energy-OPLS-2005>
17.8220386505127

> <r_mmod_Stretch_Energy-OPLS-2005>
57.0666580200195

> <r_mmod_Bend_Energy-OPLS-2005>
134.025192260742

> <r_mmod_Torsional_Energy-OPLS-2005>
241.3740234375

> <r_mmod_Improper_Torsional_Energy-OPLS-2005>
12.3024158477783

> <r_mmod_Van_der_Waal_Energy-OPLS-2005>
153.865203857422

> <r_mmod_Electrostatic_Energy-OPLS-2005>
-385.230987548828

> <r_mmod_Solvation_Energy-OPLS-2005>
-219.861465454102

> <b_mmod_Minimization_Converged-OPLS-2005>
0

> <r_mmod_RMS_Derivative-OPLS-2005>
6.97229099273682

$$$$
25
                    3D
 Structure written by MMmdl.
169178  0  0  1  0            999 V2000
  -30.5581  -14.7449   20.4487 C   0  0  0  0  0  0
  -30.4290  -12.4398   19.4803 C   0  0  0  0  0  0
  -29.5267  -12.4687   18.2248 C   0  0  0  0  0  0
  -28.0277  -12.3689   18.5899 C   0  0  0  0  0  0
  -27.6374  -13.2370   19.8214 C   0  0  2  0  0  0
  -28.6677  -13.1435   20.9648 C   0  0  0  0  0  0
  -25.2498  -13.8251   20.5490 C   0  0  0  0  0  0
  -24.1812  -13.0498   20.9099 C   0  0  0  0  0  0
  -24.6370  -11.6970   20.8615 C   0  0  0  0  0  0
  -23.9041  -10.4345   21.0286 C   0  0  0  0  0  0
  -24.3623   -9.4283   21.9079 C   0  0  0  0  0  0
  -23.6318   -8.2311   22.0705 C   0  0  0  0  0  0
  -22.4310   -8.0282   21.3501 C   0  0  0  0  0  0
  -21.9884   -9.0253   20.4607 C   0  0  0  0  0  0
  -22.7183  -10.2154   20.2974 C   0  0  0  0  0  0
  -21.6885   -6.0711   22.5264 C   0  0  0  0  0  0
  -21.4029   -6.5620   23.8185 C   0  0  0  0  0  0
  -21.3677   -5.6765   24.9148 C   0  0  0  0  0  0
  -21.6051   -4.3036   24.7187 C   0  0  0  0  0  0
  -21.8855   -3.8134   23.4325 C   0  0  0  0  0  0
  -21.9232   -4.6954   22.3372 C   0  0  0  0  0  0
  -22.7826  -13.5245   21.1879 C   0  0  0  0  0  0
  -22.1672   -4.2118   21.0948 F   0  0  0  0  0  0
  -21.5660   -3.4528   25.7712 F   0  0  0  0  0  0
  -29.9682  -13.5024   20.4034 N   0  0  0  0  0  0
  -26.2899  -12.9456   20.2999 N   0  0  0  0  0  0
  -25.9306  -11.6615   20.5533 N   0  0  0  0  0  0
  -22.0488  -12.8265   22.0463 N   0  0  0  0  0  0
  -25.4310  -15.1945   20.3919 N   0  0  0  0  0  0
  -31.7652  -14.8443   20.2083 O   0  0  0  0  0  0
  -21.6703   -6.8870   21.4212 O   0  0  0  0  0  0
  -22.3492  -14.5537   20.6700 O   0  0  0  0  0  0
  -24.6360  -31.8492   23.1943 C   0  0  0  0  0  0
  -25.9177  -32.4705   23.8303 C   0  0  1  0  0  0
  -27.2149  -27.2384   20.1481 C   0  0  0  0  0  0
  -25.5974  -33.8520   24.2215 N   0  0  0  0  0  0
  -23.4351  -30.4690   21.5387 C   0  0  2  0  0  0
  -24.8838  -28.9135   20.1091 C   0  0  0  0  0  0
  -22.7543  -29.4529   22.4904 C   0  0  0  0  0  0
  -18.0283  -28.1380   22.8469 C   0  0  0  0  0  0
  -24.1497  -36.7267   23.2633 C   0  0  0  0  0  0
  -25.9826  -30.7586   21.3784 C   0  0  0  0  0  0
  -26.0571  -29.3791   20.7223 C   0  0  0  0  0  0
  -27.2318  -28.5576   20.7206 C   0  0  0  0  0  0
  -26.0277  -26.8460   19.5018 C   0  0  0  0  0  0
  -24.8764  -27.6589   19.4827 C   0  0  0  0  0  0
  -23.6560  -29.8001   20.1563 C   0  0  0  0  0  0
  -25.4131  -36.3038   24.0313 C   0  0  1  0  0  0
  -20.5909  -28.3690   23.1272 C   0  0  2  0  0  0
  -20.6790  -26.9414   22.5401 C   0  0  0  0  0  0
  -19.5758  -26.6378   21.5206 C   0  0  0  0  0  0
  -18.1934  -26.7923   22.1605 C   0  0  0  0  0  0
  -19.1552  -28.8872   23.2860 C   0  0  0  0  0  0
  -18.9454  -30.1469   23.8877 C   0  0  0  0  0  0
  -17.6453  -30.6582   24.0580 C   0  0  0  0  0  0
  -25.9063  -34.9415   23.5058 C   0  0  0  0  0  0
  -16.5345  -29.9075   23.6344 C   0  0  0  0  0  0
  -16.7275  -28.6505   23.0352 C   0  0  0  0  0  0
  -26.4547  -31.6545   25.0710 C   0  0  0  0  0  0
  -25.3756  -31.3731   26.1426 C   0  0  0  0  0  0
  -27.0384  -30.2937   24.6222 C   0  0  0  0  0  0
  -27.6085  -32.4304   25.7489 C   0  0  0  0  0  0
  -27.5590  -37.1788   24.8455 C   0  0  0  0  0  0
  -21.4244  -29.3026   22.3663 N   0  0  0  0  0  0
  -26.4287  -37.3756   23.9404 N   0  0  0  0  0  0
  -24.7035  -31.0461   22.0907 N   0  0  0  0  0  0
  -23.4259  -28.8102   23.3013 O   0  0  0  0  0  0
  -28.2863  -26.3115   20.1627 O   0  0  0  0  0  0
  -26.5646  -34.8914   22.4622 O   0  0  0  0  0  0
  -23.5502  -32.1311   23.7225 O   0  0  0  0  0  0
  -29.9840  -20.0401   19.1955 C   0  0  0  0  0  0
  -30.6911  -19.0091   18.5536 C   0  0  0  0  0  0
  -29.0912  -18.3770   20.7304 C   0  0  0  0  0  0
  -29.1191  -19.7604   20.2640 C   0  0  0  0  0  0
  -30.5765  -17.6561   18.9456 C   0  0  0  0  0  0
  -29.8427  -17.2846   20.1160 C   0  0  0  0  0  0
  -28.2045  -24.3090   23.3384 C   0  0  0  0  0  0
  -28.7008  -25.2707   22.2491 C   0  0  0  0  0  0
  -29.1178  -23.0983   23.5908 C   0  0  0  0  0  0
  -28.6266  -23.5500   20.3169 C   0  0  0  0  0  0
  -28.0875  -24.9930   20.8733 C   0  0  2  0  0  0
  -29.4561  -22.1858   22.3846 C   0  0  2  0  0  0
  -31.1854  -16.6619   17.9685 C   0  0  0  0  0  0
  -30.9361  -22.3080   21.9852 C   0  0  0  0  0  0
  -28.1053  -20.9150   20.6801 C   0  0  0  0  0  0
  -29.7273  -15.8596   20.5669 N   0  0  0  0  0  0
  -28.5019  -22.2989   21.2348 N   0  3  2  0  0  0
  -31.4684  -12.5819   19.1760 H   0  0  0  0  0  0
  -30.3834  -11.4622   19.9639 H   0  0  0  0  0  0
  -29.7852  -11.6372   17.5648 H   0  0  0  0  0  0
  -29.7234  -13.3800   17.6569 H   0  0  0  0  0  0
  -27.7957  -11.3230   18.7801 H   0  0  0  0  0  0
  -27.4253  -12.6551   17.7238 H   0  0  0  0  0  0
  -27.6421  -14.2642   19.4612 H   0  0  0  0  0  0
  -28.6958  -12.1392   21.3885 H   0  0  0  0  0  0
  -28.3959  -13.8173   21.7791 H   0  0  0  0  0  0
  -25.2767   -9.5821   22.4610 H   0  0  0  0  0  0
  -24.0058   -7.4759   22.7464 H   0  0  0  0  0  0
  -21.0785   -8.8727   19.8968 H   0  0  0  0  0  0
  -22.3553  -10.9666   19.6091 H   0  0  0  0  0  0
  -21.1955   -7.6116   23.9656 H   0  0  0  0  0  0
  -21.1463   -6.0485   25.9039 H   0  0  0  0  0  0
  -22.0598   -2.7586   23.2826 H   0  0  0  0  0  0
  -22.4097  -12.0018   22.5013 H   0  0  0  0  0  0
  -21.1055  -13.1244   22.2521 H   0  0  0  0  0  0
  -24.6958  -15.8733   20.5496 H   0  0  0  0  0  0
  -26.2899  -15.6243   20.0798 H   0  0  0  0  0  0
  -26.7265  -32.5368   23.1071 H   0  0  0  0  0  0
  -25.0174  -33.9641   25.0404 H   0  0  0  0  0  0
  -22.7326  -31.2920   21.3884 H   0  0  0  0  0  0
  -23.3760  -35.9589   23.3242 H   0  0  0  0  0  0
  -24.3586  -36.8939   22.2054 H   0  0  0  0  0  0
  -23.7272  -37.6461   23.6692 H   0  0  0  0  0  0
  -26.1271  -31.5189   20.6114 H   0  0  0  0  0  0
  -26.8593  -30.8041   22.0119 H   0  0  0  0  0  0
  -28.1385  -28.9103   21.1959 H   0  0  0  0  0  0
  -25.9814  -25.8767   19.0255 H   0  0  0  0  0  0
  -23.9848  -27.2988   18.9862 H   0  0  0  0  0  0
  -23.7865  -30.5725   19.3976 H   0  0  0  0  0  0
  -22.7754  -29.2296   19.8522 H   0  0  0  0  0  0
  -25.1317  -36.1829   25.0806 H   0  0  0  0  0  0
  -20.9978  -28.3240   24.1402 H   0  0  0  0  0  0
  -20.5665  -26.2302   23.3606 H   0  0  0  0  0  0
  -21.6659  -26.7428   22.1190 H   0  0  0  0  0  0
  -19.6921  -25.6281   21.1237 H   0  0  0  0  0  0
  -19.6694  -27.3207   20.6749 H   0  0  0  0  0  0
  -17.4211  -26.6682   21.3996 H   0  0  0  0  0  0
  -18.0317  -26.0060   22.8985 H   0  0  0  0  0  0
  -19.7944  -30.7310   24.2206 H   0  0  0  0  0  0
  -17.5004  -31.6252   24.5181 H   0  0  0  0  0  0
  -15.5346  -30.2972   23.7681 H   0  0  0  0  0  0
  -15.8664  -28.0829   22.7055 H   0  0  0  0  0  0
  -24.5917  -30.7089   25.7776 H   0  0  0  0  0  0
  -24.8986  -32.2912   26.4841 H   0  0  0  0  0  0
  -25.8060  -30.8924   27.0209 H   0  0  0  0  0  0
  -26.2962  -29.6675   24.1251 H   0  0  0  0  0  0
  -27.4043  -29.7218   25.4757 H   0  0  0  0  0  0
  -27.8858  -30.4179   23.9479 H   0  0  0  0  0  0
  -27.2664  -33.3599   26.2054 H   0  0  0  0  0  0
  -28.3909  -32.6856   25.0329 H   0  0  0  0  0  0
  -28.0740  -31.8440   26.5420 H   0  0  0  0  0  0
  -28.2555  -38.0135   24.7536 H   0  0  0  0  0  0
  -28.1123  -36.2656   24.6196 H   0  0  0  0  0  0
  -27.2306  -37.1359   25.8858 H   0  0  0  0  0  0
  -20.9431  -29.8782   21.6895 H   0  0  0  0  0  0
  -26.0123  -38.2793   24.1439 H   0  0  0  0  0  0
  -30.0429  -21.0449   18.7976 H   0  0  0  0  0  0
  -31.2731  -19.2574   17.6782 H   0  0  0  0  0  0
  -28.4237  -18.1391   21.5509 H   0  0  0  0  0  0
  -27.1821  -23.9849   23.1390 H   0  0  0  0  0  0
  -28.1427  -24.8764   24.2655 H   0  0  0  0  0  0
  -29.7887  -25.2544   22.1794 H   0  0  0  0  0  0
  -28.4389  -26.2880   22.5442 H   0  0  0  0  0  0
  -28.6543  -22.4948   24.3721 H   0  0  0  0  0  0
  -30.0476  -23.4463   24.0418 H   0  0  0  0  0  0
  -29.6667  -23.6422   19.9981 H   0  0  0  0  0  0
  -28.0705  -23.3361   19.4026 H   0  0  0  0  0  0
  -27.0151  -24.8662   21.0154 H   0  0  0  0  0  0
  -29.3407  -21.1761   22.7913 H   0  0  0  0  0  0
  -31.0362  -17.0121   16.9470 H   0  0  0  0  0  0
  -30.7113  -15.6846   17.9975 H   0  0  0  0  0  0
  -32.2565  -16.5541   18.1308 H   0  0  0  0  0  0
  -31.2247  -23.3469   21.8280 H   0  0  0  0  0  0
  -31.1593  -21.7512   21.0764 H   0  0  0  0  0  0
  -31.5797  -21.9126   22.7757 H   0  0  0  0  0  0
  -27.4742  -20.4795   21.4557 H   0  0  0  0  0  0
  -27.4274  -21.0638   19.8406 H   0  0  0  0  0  0
  -28.8120  -15.6202   20.9150 H   0  0  0  0  0  0
  -27.6319  -22.5004   21.7101 H   0  0  0  0  0  0
  1 25  1  0  0  0
  1 30  2  0  0  0
  1 86  1  0  0  0
  2  3  1  0  0  0
  2 25  1  0  0  0
  2 88  1  0  0  0
  2 89  1  0  0  0
  3  4  1  0  0  0
  3 90  1  0  0  0
  3 91  1  0  0  0
  4  5  1  0  0  0
  4 92  1  0  0  0
  4 93  1  0  0  0
  5  6  1  0  0  0
  5 26  1  0  0  0
  5 94  1  0  0  0
  6 25  1  0  0  0
  6 95  1  0  0  0
  6 96  1  0  0  0
  7  8  2  0  0  0
  7 26  1  0  0  0
  7 29  1  0  0  0
  8  9  1  0  0  0
  8 22  1  0  0  0
  9 10  1  0  0  0
  9 27  2  0  0  0
 10 11  2  0  0  0
 10 15  1  0  0  0
 11 12  1  0  0  0
 11 97  1  0  0  0
 12 13  2  0  0  0
 12 98  1  0  0  0
 13 14  1  0  0  0
 13 31  1  0  0  0
 14 15  2  0  0  0
 14 99  1  0  0  0
 15100  1  0  0  0
 16 17  2  0  0  0
 16 21  1  0  0  0
 16 31  1  0  0  0
 17 18  1  0  0  0
 17101  1  0  0  0
 18 19  2  0  0  0
 18102  1  0  0  0
 19 20  1  0  0  0
 19 24  1  0  0  0
 20 21  2  0  0  0
 20103  1  0  0  0
 21 23  1  0  0  0
 22 28  1  0  0  0
 22 32  2  0  0  0
 26 27  1  0  0  0
 28104  1  0  0  0
 28105  1  0  0  0
 29106  1  0  0  0
 29107  1  0  0  0
 33 34  1  0  0  0
 33 66  1  0  0  0
 33 70  2  0  0  0
 34 36  1  0  0  0
 34 59  1  0  0  0
 34108  1  0  0  0
 35 44  2  0  0  0
 35 45  1  0  0  0
 35 68  1  0  0  0
 36 56  1  0  0  0
 36109  1  0  0  0
 37 39  1  0  0  0
 37 47  1  0  0  0
 37 66  1  0  0  0
 37110  1  0  0  0
 38 43  2  0  0  0
 38 46  1  0  0  0
 38 47  1  0  0  0
 39 64  1  0  0  0
 39 67  2  0  0  0
 40 52  1  0  0  0
 40 53  2  0  0  0
 40 58  1  0  0  0
 41111  1  0  0  0
 41112  1  0  0  0
 41113  1  0  0  0
 41 48  1  0  0  0
 42 43  1  0  0  0
 42 66  1  0  0  0
 42114  1  0  0  0
 42115  1  0  0  0
 43 44  1  0  0  0
 44116  1  0  0  0
 45 46  2  0  0  0
 45117  1  0  0  0
 46118  1  0  0  0
 47119  1  0  0  0
 47120  1  0  0  0
 48 56  1  0  0  0
 48 65  1  0  0  0
 48121  1  0  0  0
 49 50  1  0  0  0
 49 53  1  0  0  0
 49 64  1  0  0  0
 49122  1  0  0  0
 50 51  1  0  0  0
 50123  1  0  0  0
 50124  1  0  0  0
 51 52  1  0  0  0
 51125  1  0  0  0
 51126  1  0  0  0
 52127  1  0  0  0
 52128  1  0  0  0
 53 54  1  0  0  0
 54 55  2  0  0  0
 54129  1  0  0  0
 55 57  1  0  0  0
 55130  1  0  0  0
 56 69  2  0  0  0
 57 58  2  0  0  0
 57131  1  0  0  0
 58132  1  0  0  0
 59 60  1  0  0  0
 59 61  1  0  0  0
 59 62  1  0  0  0
 60133  1  0  0  0
 60134  1  0  0  0
 60135  1  0  0  0
 61136  1  0  0  0
 61137  1  0  0  0
 61138  1  0  0  0
 62139  1  0  0  0
 62140  1  0  0  0
 62141  1  0  0  0
 63 65  1  0  0  0
 63142  1  0  0  0
 63143  1  0  0  0
 63144  1  0  0  0
 64145  1  0  0  0
 65146  1  0  0  0
 68 81  1  0  0  0
 71 72  2  0  0  0
 71 74  1  0  0  0
 71147  1  0  0  0
 72 75  1  0  0  0
 72148  1  0  0  0
 73 74  2  0  0  0
 73 76  1  0  0  0
 73149  1  0  0  0
 74 85  1  0  0  0
 75 76  2  0  0  0
 75 83  1  0  0  0
 76 86  1  0  0  0
 77 78  1  0  0  0
 77 79  1  0  0  0
 77150  1  0  0  0
 77151  1  0  0  0
 78 81  1  0  0  0
 78152  1  0  0  0
 78153  1  0  0  0
 79 82  1  0  0  0
 79154  1  0  0  0
 79155  1  0  0  0
 80 81  1  0  0  0
 80 87  1  0  0  0
 80156  1  0  0  0
 80157  1  0  0  0
 81158  1  0  0  0
 82 84  1  0  0  0
 82 87  1  0  0  0
 82159  1  0  0  0
 83160  1  0  0  0
 83161  1  0  0  0
 83162  1  0  0  0
 84163  1  0  0  0
 84164  1  0  0  0
 84165  1  0  0  0
 85166  1  0  0  0
 85167  1  0  0  0
 85 87  1  0  0  0
 86168  1  0  0  0
 87169  1  0  0  0
M  CHG  1  87   1
M  ISO  4   1 100  68 101  81 101  86 100
M  END
> <chiral flag>
0

> <version>
0

> <s_m_source_file>
/data/baiqing/PycharmProjects/Reinvent-master-3.2/result/LINK_invent/BTK/process_docking_weight1_custom_product_contain_oxygen_bond_distance_aromatic_linkinvent_7_9_3/rearranged_h_0037.sdf

> <i_m_source_file_index>
26

> <r_mmod_Potential_Energy-OPLS-2005>
224.878280639648

> <r_mmod_Stretch_Energy-OPLS-2005>
139.224868774414

> <r_mmod_Bend_Energy-OPLS-2005>
213.449295043945

> <r_mmod_Torsional_Energy-OPLS-2005>
321.408782958984

> <r_mmod_Improper_Torsional_Energy-OPLS-2005>
6.67443990707397

> <r_mmod_Van_der_Waal_Energy-OPLS-2005>
137.794219970703

> <r_mmod_Electrostatic_Energy-OPLS-2005>
-265.846130371094

> <r_mmod_Solvation_Energy-OPLS-2005>
-424.221221923828

> <b_mmod_Minimization_Converged-OPLS-2005>
0

> <r_mmod_RMS_Derivative-OPLS-2005>
6.50063133239746

$$$$
26
                    3D
 Structure written by MMmdl.
159167  0  0  1  0            999 V2000
  -30.7304  -14.4426   20.6355 C   0  0  0  0  0  0
  -30.4224  -12.3195   19.4079 C   0  0  0  0  0  0
  -29.4878  -12.5206   18.1993 C   0  0  0  0  0  0
  -28.0123  -12.3751   18.6182 C   0  0  0  0  0  0
  -27.6609  -13.2117   19.8765 C   0  0  2  0  0  0
  -28.7017  -12.9801   20.9934 C   0  0  0  0  0  0
  -25.2574  -13.8189   20.5693 C   0  0  0  0  0  0
  -24.1838  -13.0459   20.9206 C   0  0  0  0  0  0
  -24.6412  -11.6928   20.8776 C   0  0  0  0  0  0
  -23.9093  -10.4302   21.0437 C   0  0  0  0  0  0
  -24.3640   -9.4202   21.9211 C   0  0  0  0  0  0
  -23.6302   -8.2247   22.0754 C   0  0  0  0  0  0
  -22.4284   -8.0301   21.3547 C   0  0  0  0  0  0
  -21.9937   -9.0283   20.4651 C   0  0  0  0  0  0
  -22.7275  -10.2156   20.3072 C   0  0  0  0  0  0
  -21.6849   -6.0758   22.5288 C   0  0  0  0  0  0
  -21.4004   -6.5653   23.8227 C   0  0  0  0  0  0
  -21.3653   -5.6794   24.9181 C   0  0  0  0  0  0
  -21.6043   -4.3062   24.7219 C   0  0  0  0  0  0
  -21.8818   -3.8166   23.4341 C   0  0  0  0  0  0
  -21.9188   -4.6987   22.3402 C   0  0  0  0  0  0
  -22.7853  -13.5249   21.1870 C   0  0  0  0  0  0
  -22.1660   -4.2191   21.0978 F   0  0  0  0  0  0
  -21.5623   -3.4538   25.7723 F   0  0  0  0  0  0
  -30.0349  -13.2889   20.4432 N   0  0  0  0  0  0
  -26.3018  -12.9372   20.3376 N   0  0  0  0  0  0
  -25.9337  -11.6532   20.5795 N   0  0  0  0  0  0
  -22.0473  -12.8237   22.0408 N   0  0  0  0  0  0
  -25.4289  -15.1900   20.4058 N   0  0  0  0  0  0
  -31.8250  -14.6636   20.1104 O   0  0  0  0  0  0
  -21.6631   -6.8906   21.4254 O   0  0  0  0  0  0
  -22.3548  -14.5570   20.6728 O   0  0  0  0  0  0
  -24.6119  -31.8681   23.2095 C   0  0  0  0  0  0
  -25.9010  -32.4838   23.8405 C   0  0  1  0  0  0
  -27.2429  -27.4467   20.0845 C   0  0  0  0  0  0
  -25.5864  -33.8640   24.2320 N   0  0  0  0  0  0
  -23.3998  -30.4901   21.5482 C   0  0  2  0  0  0
  -24.8482  -28.9549   20.1144 C   0  0  0  0  0  0
  -22.7406  -29.4645   22.4983 C   0  0  0  0  0  0
  -18.0263  -28.1372   22.8480 C   0  0  0  0  0  0
  -24.1475  -36.7327   23.2635 C   0  0  0  0  0  0
  -25.9253  -30.8391   21.3572 C   0  0  0  0  0  0
  -26.0040  -29.4696   20.7116 C   0  0  0  0  0  0
  -27.1992  -28.7174   20.7014 C   0  0  0  0  0  0
  -26.0673  -26.9421   19.4829 C   0  0  0  0  0  0
  -24.8726  -27.6902   19.4993 C   0  0  0  0  0  0
  -23.6083  -29.8199   20.1642 C   0  0  0  0  0  0
  -25.4095  -36.3125   24.0337 C   0  0  1  0  0  0
  -20.5857  -28.3637   23.1328 C   0  0  2  0  0  0
  -20.6748  -26.9369   22.5433 C   0  0  0  0  0  0
  -19.5747  -26.6385   21.5203 C   0  0  0  0  0  0
  -18.1910  -26.7931   22.1605 C   0  0  0  0  0  0
  -19.1518  -28.8823   23.2906 C   0  0  0  0  0  0
  -18.9458  -30.1427   23.8916 C   0  0  0  0  0  0
  -17.6464  -30.6573   24.0559 C   0  0  0  0  0  0
  -25.9027  -34.9494   23.5138 C   0  0  0  0  0  0
  -16.5342  -29.9080   23.6328 C   0  0  0  0  0  0
  -16.7264  -28.6507   23.0331 C   0  0  0  0  0  0
  -26.4438  -31.6629   25.0727 C   0  0  0  0  0  0
  -25.3719  -31.3754   26.1499 C   0  0  0  0  0  0
  -27.0260  -30.3096   24.6054 C   0  0  0  0  0  0
  -27.6020  -32.4338   25.7486 C   0  0  0  0  0  0
  -27.5572  -37.1809   24.8453 C   0  0  0  0  0  0
  -21.4138  -29.3022   22.3756 N   0  0  0  0  0  0
  -26.4275  -37.3812   23.9410 N   0  0  0  0  0  0
  -24.6639  -31.0795   22.0990 N   0  0  0  0  0  0
  -23.4198  -28.8177   23.3003 O   0  0  0  0  0  0
  -28.4484  -26.7746   20.0875 O   0  0  0  0  0  0
  -26.5596  -34.8942   22.4704 O   0  0  0  0  0  0
  -23.5313  -32.1394   23.7507 O   0  0  0  0  0  0
  -31.6939  -18.2559   20.3253 C   0  0  0  0  0  0
  -30.4674  -20.2322   19.5896 C   0  0  0  0  0  0
  -30.5992  -17.8459   21.1124 C   0  0  0  0  0  0
  -29.3518  -19.8523   20.3708 C   0  0  0  0  0  0
  -31.6302  -19.4406   19.5704 C   0  0  0  0  0  0
  -29.4259  -18.6491   21.1325 C   0  0  0  0  0  0
  -30.7405  -16.5755   21.9612 C   0  0  0  0  0  0
  -28.0457  -20.6650   20.3264 C   0  0  0  0  0  0
  -27.9102  -24.4708   20.8055 C   0  0  0  0  0  0
  -28.5464  -23.0624   20.9599 C   0  0  0  0  0  0
  -28.5284  -25.3912   19.7261 C   0  0  0  0  0  0
  -30.1325  -15.3566   21.4149 N   0  0  0  0  0  0
  -28.1274  -22.0940   19.9148 N   0  3  0  0  0  0
  -32.9806  -19.9227   18.6110 Cl  0  0  0  0  0  0
  -28.0701  -18.1330   22.0780 Cl  0  0  0  0  0  0
  -31.4656  -12.4260   19.1032 H   0  0  0  0  0  0
  -30.3300  -11.3049   19.7981 H   0  0  0  0  0  0
  -29.7258  -11.8002   17.4162 H   0  0  0  0  0  0
  -29.6528  -13.5086   17.7660 H   0  0  0  0  0  0
  -27.8251  -11.3187   18.8129 H   0  0  0  0  0  0
  -27.3582  -12.6490   17.7905 H   0  0  0  0  0  0
  -27.7102  -14.2625   19.5916 H   0  0  0  0  0  0
  -28.6774  -11.9386   21.3162 H   0  0  0  0  0  0
  -28.4543  -13.5617   21.8827 H   0  0  0  0  0  0
  -25.2787   -9.5665   22.4793 H   0  0  0  0  0  0
  -24.0012   -7.4622   22.7455 H   0  0  0  0  0  0
  -21.0877   -8.8837   19.8936 H   0  0  0  0  0  0
  -22.3778  -10.9716   19.6183 H   0  0  0  0  0  0
  -21.1997   -7.6159   23.9751 H   0  0  0  0  0  0
  -21.1468   -6.0512   25.9088 H   0  0  0  0  0  0
  -22.0602   -2.7636   23.2824 H   0  0  0  0  0  0
  -22.4034  -11.9883   22.4809 H   0  0  0  0  0  0
  -21.1082  -13.1268   22.2575 H   0  0  0  0  0  0
  -24.6684  -15.8501   20.5179 H   0  0  0  0  0  0
  -26.2850  -15.6259   20.0879 H   0  0  0  0  0  0
  -26.7072  -32.5577   23.1168 H   0  0  0  0  0  0
  -25.0001  -33.9798   25.0460 H   0  0  0  0  0  0
  -22.6864  -31.3047   21.4055 H   0  0  0  0  0  0
  -23.3730  -35.9669   23.3310 H   0  0  0  0  0  0
  -24.3546  -36.8966   22.2043 H   0  0  0  0  0  0
  -23.7234  -37.6540   23.6658 H   0  0  0  0  0  0
  -26.0177  -31.5975   20.5794 H   0  0  0  0  0  0
  -26.8208  -30.9113   21.9632 H   0  0  0  0  0  0
  -28.0916  -29.1053   21.1726 H   0  0  0  0  0  0
  -26.0555  -25.9821   18.9865 H   0  0  0  0  0  0
  -23.9838  -27.2931   19.0258 H   0  0  0  0  0  0
  -23.7135  -30.5910   19.3987 H   0  0  0  0  0  0
  -22.7339  -29.2330   19.8728 H   0  0  0  0  0  0
  -25.1264  -36.2000   25.0827 H   0  0  0  0  0  0
  -20.9929  -28.3208   24.1467 H   0  0  0  0  0  0
  -20.5634  -26.2234   23.3627 H   0  0  0  0  0  0
  -21.6613  -26.7429   22.1230 H   0  0  0  0  0  0
  -19.6905  -25.6306   21.1214 H   0  0  0  0  0  0
  -19.6699  -27.3213   20.6749 H   0  0  0  0  0  0
  -17.4193  -26.6701   21.3988 H   0  0  0  0  0  0
  -18.0269  -26.0066   22.8992 H   0  0  0  0  0  0
  -19.7942  -30.7207   24.2308 H   0  0  0  0  0  0
  -17.5033  -31.6258   24.5153 H   0  0  0  0  0  0
  -15.5347  -30.2974   23.7659 H   0  0  0  0  0  0
  -15.8670  -28.0836   22.7012 H   0  0  0  0  0  0
  -24.5882  -30.7099   25.7869 H   0  0  0  0  0  0
  -24.8885  -32.2908   26.4921 H   0  0  0  0  0  0
  -25.8069  -30.8962   27.0279 H   0  0  0  0  0  0
  -26.2803  -29.6874   24.1097 H   0  0  0  0  0  0
  -27.4066  -29.7313   25.4479 H   0  0  0  0  0  0
  -27.8606  -30.4442   23.9177 H   0  0  0  0  0  0
  -27.2681  -33.3674   26.2022 H   0  0  0  0  0  0
  -28.3860  -32.6850   25.0336 H   0  0  0  0  0  0
  -28.0637  -31.8480   26.5448 H   0  0  0  0  0  0
  -28.2584  -38.0103   24.7511 H   0  0  0  0  0  0
  -28.1088  -36.2649   24.6277 H   0  0  0  0  0  0
  -27.2300  -37.1463   25.8857 H   0  0  0  0  0  0
  -20.9286  -29.8840   21.7072 H   0  0  0  0  0  0
  -26.0188  -38.2903   24.1426 H   0  0  0  0  0  0
  -32.5972  -17.6631   20.3029 H   0  0  0  0  0  0
  -30.4480  -21.1230   18.9813 H   0  0  0  0  0  0
  -30.3037  -16.7580   22.9440 H   0  0  0  0  0  0
  -31.7986  -16.3938   22.1613 H   0  0  0  0  0  0
  -27.5315  -20.6169   21.2863 H   0  0  0  0  0  0
  -27.3903  -20.1609   19.6155 H   0  0  0  0  0  0
  -28.0308  -24.9746   21.7646 H   0  0  0  0  0  0
  -26.8317  -24.3887   20.6637 H   0  0  0  0  0  0
  -28.2377  -22.6799   21.9332 H   0  0  0  0  0  0
  -29.6337  -23.1288   21.0037 H   0  0  0  0  0  0
  -28.1137  -25.2033   18.7369 H   0  0  0  0  0  0
  -29.5935  -25.1716   19.6406 H   0  0  0  0  0  0
  -29.2146  -15.1188   21.7604 H   0  0  0  0  0  0
  -27.1862  -22.3389   19.6545 H   0  0  0  0  0  0
  -28.6907  -22.1869   19.0856 H   0  0  0  0  0  0
  1 25  1  0  0  0
  1 30  2  0  0  0
  1 82  1  0  0  0
  2  3  1  0  0  0
  2 25  1  0  0  0
  2 86  1  0  0  0
  2 87  1  0  0  0
  3  4  1  0  0  0
  3 88  1  0  0  0
  3 89  1  0  0  0
  4  5  1  0  0  0
  4 90  1  0  0  0
  4 91  1  0  0  0
  5  6  1  0  0  0
  5 26  1  0  0  0
  5 92  1  0  0  0
  6 25  1  0  0  0
  6 93  1  0  0  0
  6 94  1  0  0  0
  7  8  2  0  0  0
  7 26  1  0  0  0
  7 29  1  0  0  0
  8  9  1  0  0  0
  8 22  1  0  0  0
  9 10  1  0  0  0
  9 27  2  0  0  0
 10 11  2  0  0  0
 10 15  1  0  0  0
 11 12  1  0  0  0
 11 95  1  0  0  0
 12 13  2  0  0  0
 12 96  1  0  0  0
 13 14  1  0  0  0
 13 31  1  0  0  0
 14 15  2  0  0  0
 14 97  1  0  0  0
 15 98  1  0  0  0
 16 17  2  0  0  0
 16 21  1  0  0  0
 16 31  1  0  0  0
 17 18  1  0  0  0
 17 99  1  0  0  0
 18 19  2  0  0  0
 18100  1  0  0  0
 19 20  1  0  0  0
 19 24  1  0  0  0
 20 21  2  0  0  0
 20101  1  0  0  0
 21 23  1  0  0  0
 22 28  1  0  0  0
 22 32  2  0  0  0
 26 27  1  0  0  0
 28102  1  0  0  0
 28103  1  0  0  0
 29104  1  0  0  0
 29105  1  0  0  0
 33 34  1  0  0  0
 33 66  1  0  0  0
 33 70  2  0  0  0
 34 36  1  0  0  0
 34 59  1  0  0  0
 34106  1  0  0  0
 35 44  2  0  0  0
 35 45  1  0  0  0
 35 68  1  0  0  0
 36 56  1  0  0  0
 36107  1  0  0  0
 37 39  1  0  0  0
 37 47  1  0  0  0
 37 66  1  0  0  0
 37108  1  0  0  0
 38 43  2  0  0  0
 38 46  1  0  0  0
 38 47  1  0  0  0
 39 64  1  0  0  0
 39 67  2  0  0  0
 40 52  1  0  0  0
 40 53  2  0  0  0
 40 58  1  0  0  0
 41109  1  0  0  0
 41110  1  0  0  0
 41111  1  0  0  0
 41 48  1  0  0  0
 42 43  1  0  0  0
 42 66  1  0  0  0
 42112  1  0  0  0
 42113  1  0  0  0
 43 44  1  0  0  0
 44114  1  0  0  0
 45 46  2  0  0  0
 45115  1  0  0  0
 46116  1  0  0  0
 47117  1  0  0  0
 47118  1  0  0  0
 48 56  1  0  0  0
 48 65  1  0  0  0
 48119  1  0  0  0
 49 50  1  0  0  0
 49 53  1  0  0  0
 49 64  1  0  0  0
 49120  1  0  0  0
 50 51  1  0  0  0
 50121  1  0  0  0
 50122  1  0  0  0
 51 52  1  0  0  0
 51123  1  0  0  0
 51124  1  0  0  0
 52125  1  0  0  0
 52126  1  0  0  0
 53 54  1  0  0  0
 54 55  2  0  0  0
 54127  1  0  0  0
 55 57  1  0  0  0
 55128  1  0  0  0
 56 69  2  0  0  0
 57 58  2  0  0  0
 57129  1  0  0  0
 58130  1  0  0  0
 59 60  1  0  0  0
 59 61  1  0  0  0
 59 62  1  0  0  0
 60131  1  0  0  0
 60132  1  0  0  0
 60133  1  0  0  0
 61134  1  0  0  0
 61135  1  0  0  0
 61136  1  0  0  0
 62137  1  0  0  0
 62138  1  0  0  0
 62139  1  0  0  0
 63 65  1  0  0  0
 63140  1  0  0  0
 63141  1  0  0  0
 63142  1  0  0  0
 64143  1  0  0  0
 65144  1  0  0  0
 68 81  1  0  0  0
 71 73  2  0  0  0
 71 75  1  0  0  0
 71145  1  0  0  0
 72 74  1  0  0  0
 72 75  2  0  0  0
 72146  1  0  0  0
 73 76  1  0  0  0
 73 77  1  0  0  0
 74 76  2  0  0  0
 74 78  1  0  0  0
 75 84  1  0  0  0
 76 85  1  0  0  0
 77 82  1  0  0  0
 77147  1  0  0  0
 77148  1  0  0  0
 78 83  1  0  0  0
 78149  1  0  0  0
 78150  1  0  0  0
 79 80  1  0  0  0
 79 81  1  0  0  0
 79151  1  0  0  0
 79152  1  0  0  0
 80 83  1  0  0  0
 80153  1  0  0  0
 80154  1  0  0  0
 81155  1  0  0  0
 81156  1  0  0  0
 82157  1  0  0  0
 83158  1  0  0  0
 83159  1  0  0  0
M  CHG  1  83   1
M  ISO  4   1 100  68 101  81 101  82 100
M  END
> <chiral flag>
0

> <version>
0

> <s_m_source_file>
/data/baiqing/PycharmProjects/Reinvent-master-3.2/result/LINK_invent/BTK/process_docking_weight1_custom_product_contain_oxygen_bond_distance_aromatic_linkinvent_7_9_3/rearranged_h_0037.sdf

> <i_m_source_file_index>
27

> <r_mmod_Potential_Energy-OPLS-2005>
-316.814056396484

> <r_mmod_Stretch_Energy-OPLS-2005>
37.5974235534668

> <r_mmod_Bend_Energy-OPLS-2005>
109.556449890137

> <r_mmod_Torsional_Energy-OPLS-2005>
201.863784790039

> <r_mmod_Improper_Torsional_Energy-OPLS-2005>
2.18230533599854

> <r_mmod_Van_der_Waal_Energy-OPLS-2005>
147.44123840332

> <r_mmod_Electrostatic_Energy-OPLS-2005>
-333.866912841797

> <r_mmod_Solvation_Energy-OPLS-2005>
-491.920440673828

> <b_mmod_Minimization_Converged-OPLS-2005>
0

> <r_mmod_RMS_Derivative-OPLS-2005>
3.01966977119446

$$$$
27
                    3D
 Structure written by MMmdl.
170179  0  0  1  0            999 V2000
  -29.7724  -16.9141   20.1956 C   0  0  0  0  0  0
  -30.2351  -14.0706   19.4713 C   0  0  0  0  0  0
  -29.5474  -13.0947   18.4114 C   0  0  0  0  0  0
  -28.2601  -12.4620   18.9364 C   0  0  0  0  0  0
  -27.5562  -13.4968   19.8217 C   0  0  2  0  0  0
  -28.4596  -14.3478   20.8142 C   0  0  0  0  0  0
  -25.1962  -13.8616   20.6003 C   0  0  0  0  0  0
  -24.1600  -13.0457   20.9408 C   0  0  0  0  0  0
  -24.6601  -11.7102   20.8734 C   0  0  0  0  0  0
  -23.9316  -10.4325   21.0272 C   0  0  0  0  0  0
  -24.3774   -9.4234   21.9089 C   0  0  0  0  0  0
  -23.6408   -8.2291   22.0692 C   0  0  0  0  0  0
  -22.4368   -8.0321   21.3498 C   0  0  0  0  0  0
  -22.0054   -9.0328   20.4585 C   0  0  0  0  0  0
  -22.7437  -10.2174   20.2977 C   0  0  0  0  0  0
  -21.6924   -6.0756   22.5254 C   0  0  0  0  0  0
  -21.4074   -6.5626   23.8204 C   0  0  0  0  0  0
  -21.3668   -5.6767   24.9135 C   0  0  0  0  0  0
  -21.6041   -4.3050   24.7197 C   0  0  0  0  0  0
  -21.8817   -3.8136   23.4326 C   0  0  0  0  0  0
  -21.9224   -4.6957   22.3366 C   0  0  0  0  0  0
  -22.7547  -13.4965   21.2035 C   0  0  0  0  0  0
  -22.1680   -4.2121   21.0973 F   0  0  0  0  0  0
  -21.5619   -3.4535   25.7727 F   0  0  0  0  0  0
  -29.3913  -15.3334   20.0554 N   0  0  0  0  0  0
  -26.2774  -13.0413   20.3576 N   0  0  0  0  0  0
  -25.9638  -11.7237   20.5688 N   0  0  0  0  0  0
  -22.0346  -12.7842   22.0615 N   0  0  0  0  0  0
  -25.3009  -15.2398   20.4364 N   0  0  0  0  0  0
  -31.0223  -16.6313   20.2830 O   0  0  0  0  0  0
  -21.6698   -6.8922   21.4240 O   0  0  0  0  0  0
  -22.3074  -14.5241   20.6902 O   0  0  0  0  0  0
  -24.7581  -31.6974   23.0815 C   0  0  0  0  0  0
  -25.9755  -32.3970   23.7642 C   0  0  1  0  0  0
  -27.2289  -25.8365   20.2435 C   0  0  0  0  0  0
  -25.5997  -33.7879   24.1438 N   0  0  0  0  0  0
  -23.6214  -30.2607   21.4601 C   0  0  2  0  0  0
  -25.0896  -28.4322   20.1317 C   0  0  0  0  0  0
  -22.8074  -29.3748   22.4512 C   0  0  0  0  0  0
  -18.0379  -28.1468   22.8418 C   0  0  0  0  0  0
  -24.1545  -36.6955   23.2654 C   0  0  0  0  0  0
  -26.2191  -30.1374   21.4855 C   0  0  0  0  0  0
  -26.2779  -28.6055   20.8441 C   0  0  0  0  0  0
  -27.2829  -27.3616   20.8717 C   0  0  0  0  0  0
  -26.0523  -26.1431   19.4291 C   0  0  0  0  0  0
  -25.0679  -27.2315   19.3929 C   0  0  0  0  0  0
  -23.9189  -29.4849   20.1275 C   0  0  0  0  0  0
  -25.4209  -36.2643   24.0215 C   0  0  1  0  0  0
  -20.6057  -28.3873   23.1032 C   0  0  2  0  0  0
  -20.6837  -26.9455   22.5452 C   0  0  0  0  0  0
  -19.5837  -26.6354   21.5263 C   0  0  0  0  0  0
  -18.1996  -26.7983   22.1612 C   0  0  0  0  0  0
  -19.1665  -28.9000   23.2694 C   0  0  0  0  0  0
  -18.9552  -30.1561   23.8777 C   0  0  0  0  0  0
  -17.6536  -30.6634   24.0529 C   0  0  0  0  0  0
  -25.9229  -34.9026   23.4752 C   0  0  0  0  0  0
  -16.5423  -29.9100   23.6353 C   0  0  0  0  0  0
  -16.7348  -28.6524   23.0369 C   0  0  0  0  0  0
  -26.4701  -31.6327   25.0577 C   0  0  0  0  0  0
  -25.3562  -31.3826   26.1031 C   0  0  0  0  0  0
  -27.0718  -30.2580   24.7022 C   0  0  0  0  0  0
  -27.6049  -32.4331   25.7382 C   0  0  0  0  0  0
  -27.5580  -37.1639   24.8472 C   0  0  0  0  0  0
  -21.4653  -29.2936   22.3250 N   0  0  0  0  0  0
  -26.4281  -37.3476   23.9396 N   0  0  0  0  0  0
  -24.9026  -30.7537   22.0619 N   0  0  0  0  0  0
  -23.4156  -28.7498   23.3235 O   0  0  0  0  0  0
  -27.9112  -24.1099   20.2629 O   0  0  0  0  0  0
  -26.5999  -34.8779   22.4488 O   0  0  0  0  0  0
  -23.6427  -32.0451   23.5228 O   0  0  0  0  0  0
  -27.6252  -23.1282   22.1359 C   0  0  0  0  0  0
  -28.7707  -21.9161   21.4617 C   0  0  0  0  0  0
  -26.3511  -22.8445   19.4803 C   0  0  0  0  0  0
  -27.6193  -21.6215   19.1742 C   0  0  0  0  0  0
  -26.1135  -23.5862   21.1488 C   0  0  0  0  0  0
  -28.6330  -20.6770   20.2183 C   0  0  0  0  0  0
  -27.5674  -20.9429   17.8412 C   0  0  0  0  0  0
  -26.8526  -21.5039   16.8220 C   0  0  0  0  0  0
  -28.5919  -19.7976   17.6239 C   0  0  0  0  0  0
  -28.4716  -18.5166   18.5726 C   0  0  0  0  0  0
  -27.3064  -24.3304   14.1737 C   0  0  0  0  0  0
  -24.7529  -23.8855   21.6939 C   0  0  0  0  0  0
  -27.5855  -22.1942   15.6610 C   0  0  0  0  0  0
  -26.6963  -22.9808   14.6392 C   0  0  0  0  0  0
  -25.2587  -21.4958   22.2752 C   0  0  0  0  0  0
  -26.4866  -21.4306   21.2167 C   0  0  0  0  0  0
  -29.0566  -18.6277   19.9467 N   0  0  0  0  0  0
  -24.2098  -22.5450   22.0240 N   0  3  0  0  0  0
  -31.1024  -14.4985   18.9657 H   0  0  0  0  0  0
  -30.6824  -13.4895   20.2770 H   0  0  0  0  0  0
  -30.2445  -12.3148   18.0967 H   0  0  0  0  0  0
  -29.3097  -13.6798   17.5201 H   0  0  0  0  0  0
  -28.5108  -11.5841   19.5305 H   0  0  0  0  0  0
  -27.6132  -12.1339   18.1200 H   0  0  0  0  0  0
  -27.2666  -14.2445   19.0807 H   0  0  0  0  0  0
  -28.9635  -13.7299   21.5625 H   0  0  0  0  0  0
  -27.8073  -14.9920   21.4098 H   0  0  0  0  0  0
  -25.2915   -9.5699   22.4667 H   0  0  0  0  0  0
  -24.0097   -7.4676   22.7424 H   0  0  0  0  0  0
  -21.0971   -8.8853   19.8915 H   0  0  0  0  0  0
  -22.3863  -10.9692   19.6088 H   0  0  0  0  0  0
  -21.2100   -7.6147   23.9694 H   0  0  0  0  0  0
  -21.1483   -6.0504   25.9041 H   0  0  0  0  0  0
  -22.0593   -2.7604   23.2836 H   0  0  0  0  0  0
  -22.4250  -11.9592   22.4912 H   0  0  0  0  0  0
  -21.0923  -13.0598   22.2941 H   0  0  0  0  0  0
  -24.4875  -15.8376   20.5353 H   0  0  0  0  0  0
  -26.1226  -15.7217   20.1060 H   0  0  0  0  0  0
  -26.7925  -32.4328   23.0409 H   0  0  0  0  0  0
  -24.9853  -33.8773   24.9393 H   0  0  0  0  0  0
  -22.9910  -31.1171   21.2015 H   0  0  0  0  0  0
  -23.3855  -35.9249   23.3201 H   0  0  0  0  0  0
  -24.3586  -36.8783   22.2093 H   0  0  0  0  0  0
  -23.7250  -37.6050   23.6868 H   0  0  0  0  0  0
  -26.5128  -30.8130   20.6806 H   0  0  0  0  0  0
  -27.0434  -30.2258   22.1806 H   0  0  0  0  0  0
  -28.1264  -27.5275   21.5237 H   0  0  0  0  0  0
  -25.7891  -25.3467   18.7555 H   0  0  0  0  0  0
  -24.2254  -27.0818   18.7320 H   0  0  0  0  0  0
  -24.1497  -30.2108   19.3473 H   0  0  0  0  0  0
  -23.0101  -28.9892   19.7883 H   0  0  0  0  0  0
  -25.1470  -36.1302   25.0692 H   0  0  0  0  0  0
  -21.0066  -28.3555   24.1205 H   0  0  0  0  0  0
  -20.5677  -26.2480   23.3778 H   0  0  0  0  0  0
  -21.6685  -26.7351   22.1293 H   0  0  0  0  0  0
  -19.7015  -25.6238   21.1367 H   0  0  0  0  0  0
  -19.6814  -27.3093   20.6744 H   0  0  0  0  0  0
  -17.4288  -26.6710   21.3984 H   0  0  0  0  0  0
  -18.0353  -26.0160   22.9031 H   0  0  0  0  0  0
  -19.8019  -30.7402   24.2091 H   0  0  0  0  0  0
  -17.5085  -31.6288   24.5183 H   0  0  0  0  0  0
  -15.5414  -30.2979   23.7781 H   0  0  0  0  0  0
  -15.8738  -28.0823   22.7172 H   0  0  0  0  0  0
  -24.5954  -30.6942   25.7302 H   0  0  0  0  0  0
  -24.8506  -32.3061   26.3857 H   0  0  0  0  0  0
  -25.7596  -30.9398   27.0140 H   0  0  0  0  0  0
  -26.3542  -29.5975   24.2126 H   0  0  0  0  0  0
  -27.3920  -29.7294   25.5999 H   0  0  0  0  0  0
  -27.9611  -30.3525   24.0786 H   0  0  0  0  0  0
  -27.2590  -33.3870   26.1352 H   0  0  0  0  0  0
  -28.4109  -32.6439   25.0351 H   0  0  0  0  0  0
  -28.0383  -31.8797   26.5711 H   0  0  0  0  0  0
  -28.2520  -37.9995   24.7532 H   0  0  0  0  0  0
  -28.1152  -36.2512   24.6320 H   0  0  0  0  0  0
  -27.2286  -37.1282   25.8865 H   0  0  0  0  0  0
  -21.0157  -29.8408   21.6070 H   0  0  0  0  0  0
  -26.0055  -38.2520   24.1375 H   0  0  0  0  0  0
  -27.7599  -23.4991   23.1453 H   0  0  0  0  0  0
  -29.5184  -21.6668   22.2035 H   0  0  0  0  0  0
  -25.5980  -23.0867   18.7413 H   0  0  0  0  0  0
  -26.0072  -22.1297   17.0636 H   0  0  0  0  0  0
  -29.6075  -20.1938   17.6444 H   0  0  0  0  0  0
  -28.4603  -19.4584   16.5913 H   0  0  0  0  0  0
  -28.9563  -17.6979   18.0375 H   0  0  0  0  0  0
  -27.4312  -18.2054   18.6687 H   0  0  0  0  0  0
  -26.7657  -24.7555   13.3218 H   0  0  0  0  0  0
  -28.3511  -24.2292   13.8793 H   0  0  0  0  0  0
  -27.2828  -25.0734   14.9758 H   0  0  0  0  0  0
  -24.1428  -24.3657   20.9255 H   0  0  0  0  0  0
  -24.8149  -24.5362   22.5614 H   0  0  0  0  0  0
  -28.3391  -21.5603   15.1845 H   0  0  0  0  0  0
  -28.1568  -22.9623   16.1873 H   0  0  0  0  0  0
  -26.5015  -22.3562   13.7655 H   0  0  0  0  0  0
  -25.7141  -23.2118   15.0524 H   0  0  0  0  0  0
  -25.6547  -21.6708   23.2785 H   0  0  0  0  0  0
  -24.7663  -20.5213   22.3236 H   0  0  0  0  0  0
  -25.9664  -20.7795   20.4916 H   0  0  0  0  0  0
  -26.9651  -20.6407   21.8236 H   0  0  0  0  0  0
  -23.6156  -22.2495   21.2650 H   0  0  0  0  0  0
  -23.6132  -22.6392   22.8358 H   0  0  0  0  0  0
  1 25  1  0  0  0
  1 30  2  0  0  0
  1 87  1  0  0  0
  2  3  1  0  0  0
  2 25  1  0  0  0
  2 89  1  0  0  0
  2 90  1  0  0  0
  3  4  1  0  0  0
  3 91  1  0  0  0
  3 92  1  0  0  0
  4  5  1  0  0  0
  4 93  1  0  0  0
  4 94  1  0  0  0
  5  6  1  0  0  0
  5 26  1  0  0  0
  5 95  1  0  0  0
  6 25  1  0  0  0
  6 96  1  0  0  0
  6 97  1  0  0  0
  7  8  2  0  0  0
  7 26  1  0  0  0
  7 29  1  0  0  0
  8  9  1  0  0  0
  8 22  1  0  0  0
  9 10  1  0  0  0
  9 27  2  0  0  0
 10 11  2  0  0  0
 10 15  1  0  0  0
 11 12  1  0  0  0
 11 98  1  0  0  0
 12 13  2  0  0  0
 12 99  1  0  0  0
 13 14  1  0  0  0
 13 31  1  0  0  0
 14 15  2  0  0  0
 14100  1  0  0  0
 15101  1  0  0  0
 16 17  2  0  0  0
 16 21  1  0  0  0
 16 31  1  0  0  0
 17 18  1  0  0  0
 17102  1  0  0  0
 18 19  2  0  0  0
 18103  1  0  0  0
 19 20  1  0  0  0
 19 24  1  0  0  0
 20 21  2  0  0  0
 20104  1  0  0  0
 21 23  1  0  0  0
 22 28  1  0  0  0
 22 32  2  0  0  0
 26 27  1  0  0  0
 28105  1  0  0  0
 28106  1  0  0  0
 29107  1  0  0  0
 29108  1  0  0  0
 33 34  1  0  0  0
 33 66  1  0  0  0
 33 70  2  0  0  0
 34 36  1  0  0  0
 34 59  1  0  0  0
 34109  1  0  0  0
 35 44  2  0  0  0
 35 45  1  0  0  0
 35 68  1  0  0  0
 36 56  1  0  0  0
 36110  1  0  0  0
 37 39  1  0  0  0
 37 47  1  0  0  0
 37 66  1  0  0  0
 37111  1  0  0  0
 38 43  2  0  0  0
 38 46  1  0  0  0
 38 47  1  0  0  0
 39 64  1  0  0  0
 39 67  2  0  0  0
 40 52  1  0  0  0
 40 53  2  0  0  0
 40 58  1  0  0  0
 41112  1  0  0  0
 41113  1  0  0  0
 41114  1  0  0  0
 41 48  1  0  0  0
 42 43  1  0  0  0
 42 66  1  0  0  0
 42115  1  0  0  0
 42116  1  0  0  0
 43 44  1  0  0  0
 44117  1  0  0  0
 45 46  2  0  0  0
 45118  1  0  0  0
 46119  1  0  0  0
 47120  1  0  0  0
 47121  1  0  0  0
 48 56  1  0  0  0
 48 65  1  0  0  0
 48122  1  0  0  0
 49 50  1  0  0  0
 49 53  1  0  0  0
 49 64  1  0  0  0
 49123  1  0  0  0
 50 51  1  0  0  0
 50124  1  0  0  0
 50125  1  0  0  0
 51 52  1  0  0  0
 51126  1  0  0  0
 51127  1  0  0  0
 52128  1  0  0  0
 52129  1  0  0  0
 53 54  1  0  0  0
 54 55  2  0  0  0
 54130  1  0  0  0
 55 57  1  0  0  0
 55131  1  0  0  0
 56 69  2  0  0  0
 57 58  2  0  0  0
 57132  1  0  0  0
 58133  1  0  0  0
 59 60  1  0  0  0
 59 61  1  0  0  0
 59 62  1  0  0  0
 60134  1  0  0  0
 60135  1  0  0  0
 60136  1  0  0  0
 61137  1  0  0  0
 61138  1  0  0  0
 61139  1  0  0  0
 62140  1  0  0  0
 62141  1  0  0  0
 62142  1  0  0  0
 63 65  1  0  0  0
 63143  1  0  0  0
 63144  1  0  0  0
 63145  1  0  0  0
 64146  1  0  0  0
 65147  1  0  0  0
 68 86  1  0  0  0
 71 72  2  0  0  0
 71 75  1  0  0  0
 71148  1  0  0  0
 72 76  1  0  0  0
 72149  1  0  0  0
 73 74  1  0  0  0
 73 75  2  0  0  0
 73150  1  0  0  0
 74 76  2  0  0  0
 74 77  1  0  0  0
 75 82  1  0  0  0
 76 87  1  0  0  0
 77 78  2  0  0  0
 77 79  1  0  0  0
 78 83  1  0  0  0
 78151  1  0  0  0
 79 80  1  0  0  0
 79152  1  0  0  0
 79153  1  0  0  0
 80 87  1  0  0  0
 80154  1  0  0  0
 80155  1  0  0  0
 81 84  1  0  0  0
 81156  1  0  0  0
 81157  1  0  0  0
 81158  1  0  0  0
 82 88  1  0  0  0
 82159  1  0  0  0
 82160  1  0  0  0
 83 84  1  0  0  0
 83161  1  0  0  0
 83162  1  0  0  0
 84163  1  0  0  0
 84164  1  0  0  0
 85 86  1  0  0  0
 85 88  1  0  0  0
 85165  1  0  0  0
 85166  1  0  0  0
 86167  1  0  0  0
 86168  1  0  0  0
 88169  1  0  0  0
 88170  1  0  0  0
M  CHG  1  88   1
M  ISO  4   1 100  68 101  86 101  87 100
M  END
> <chiral flag>
0

> <version>
0

> <s_m_source_file>
/data/baiqing/PycharmProjects/Reinvent-master-3.2/result/LINK_invent/BTK/process_docking_weight1_custom_product_contain_oxygen_bond_distance_aromatic_linkinvent_7_9_3/rearranged_h_0037.sdf

> <i_m_source_file_index>
28

> <r_mmod_Potential_Energy-OPLS-2005>
15555.640625

> <r_mmod_Stretch_Energy-OPLS-2005>
8486.2158203125

> <r_mmod_Bend_Energy-OPLS-2005>
1113.1103515625

> <r_mmod_Torsional_Energy-OPLS-2005>
592.550903320312

> <r_mmod_Improper_Torsional_Energy-OPLS-2005>
32.9631652832031

> <r_mmod_Van_der_Waal_Energy-OPLS-2005>
2096.95166015625

> <r_mmod_Electrostatic_Energy-OPLS-2005>
-208.084899902344

> <r_mmod_Solvation_Energy-OPLS-2005>
-464.791564941406

> <b_mmod_Minimization_Converged-OPLS-2005>
0

> <r_mmod_RMS_Derivative-OPLS-2005>
15.2905588150024

$$$$
28
                    3D
 Structure written by MMmdl.
170179  0  0  1  0            999 V2000
  -30.7308  -14.3638   20.6420 C   0  0  0  0  0  0
  -30.4239  -12.2756   19.3793 C   0  0  0  0  0  0
  -29.4854  -12.5127   18.1804 C   0  0  0  0  0  0
  -28.0049  -12.3876   18.5946 C   0  0  0  0  0  0
  -27.6664  -13.1953   19.8764 C   0  0  2  0  0  0
  -28.7055  -12.9068   20.9806 C   0  0  0  0  0  0
  -25.2614  -13.8137   20.5664 C   0  0  0  0  0  0
  -24.1861  -13.0432   20.9153 C   0  0  0  0  0  0
  -24.6393  -11.6883   20.8715 C   0  0  0  0  0  0
  -23.9052  -10.4285   21.0395 C   0  0  0  0  0  0
  -24.3618   -9.4206   21.9165 C   0  0  0  0  0  0
  -23.6298   -8.2246   22.0747 C   0  0  0  0  0  0
  -22.4276   -8.0282   21.3540 C   0  0  0  0  0  0
  -21.9903   -9.0250   20.4635 C   0  0  0  0  0  0
  -22.7232  -10.2129   20.3036 C   0  0  0  0  0  0
  -21.6849   -6.0739   22.5285 C   0  0  0  0  0  0
  -21.4010   -6.5645   23.8213 C   0  0  0  0  0  0
  -21.3651   -5.6797   24.9176 C   0  0  0  0  0  0
  -21.6046   -4.3060   24.7226 C   0  0  0  0  0  0
  -21.8819   -3.8154   23.4343 C   0  0  0  0  0  0
  -21.9195   -4.6969   22.3404 C   0  0  0  0  0  0
  -22.7878  -13.5234   21.1829 C   0  0  0  0  0  0
  -22.1666   -4.2162   21.0975 F   0  0  0  0  0  0
  -21.5625   -3.4534   25.7729 F   0  0  0  0  0  0
  -30.0401  -13.2163   20.4373 N   0  0  0  0  0  0
  -26.3049  -12.9294   20.3346 N   0  0  0  0  0  0
  -25.9311  -11.6462   20.5720 N   0  0  0  0  0  0
  -22.0519  -12.8230   22.0385 N   0  0  0  0  0  0
  -25.4348  -15.1862   20.4071 N   0  0  0  0  0  0
  -31.8341  -14.5994   20.1413 O   0  0  0  0  0  0
  -21.6636   -6.8884   21.4245 O   0  0  0  0  0  0
  -22.3559  -14.5552   20.6682 O   0  0  0  0  0  0
  -24.6086  -31.8717   23.2116 C   0  0  0  0  0  0
  -25.9006  -32.4841   23.8378 C   0  0  1  0  0  0
  -27.2371  -27.4909   20.0728 C   0  0  0  0  0  0
  -25.5928  -33.8651   24.2330 N   0  0  0  0  0  0
  -23.3921  -30.4973   21.5508 C   0  0  2  0  0  0
  -24.8344  -28.9712   20.1121 C   0  0  0  0  0  0
  -22.7370  -29.4679   22.4966 C   0  0  0  0  0  0
  -18.0236  -28.1388   22.8486 C   0  0  0  0  0  0
  -24.1470  -36.7323   23.2624 C   0  0  0  0  0  0
  -25.9133  -30.8561   21.3535 C   0  0  0  0  0  0
  -25.9901  -29.4925   20.7053 C   0  0  0  0  0  0
  -27.1887  -28.7557   20.6885 C   0  0  0  0  0  0
  -26.0649  -26.9792   19.4591 C   0  0  0  0  0  0
  -24.8643  -27.7126   19.4889 C   0  0  0  0  0  0
  -23.5959  -29.8336   20.1642 C   0  0  0  0  0  0
  -25.4104  -36.3134   24.0317 C   0  0  1  0  0  0
  -20.5836  -28.3659   23.1314 C   0  0  2  0  0  0
  -20.6737  -26.9389   22.5415 C   0  0  0  0  0  0
  -19.5712  -26.6391   21.5213 C   0  0  0  0  0  0
  -18.1885  -26.7936   22.1623 C   0  0  0  0  0  0
  -19.1493  -28.8834   23.2896 C   0  0  0  0  0  0
  -18.9431  -30.1449   23.8888 C   0  0  0  0  0  0
  -17.6433  -30.6576   24.0581 C   0  0  0  0  0  0
  -25.9044  -34.9500   23.5118 C   0  0  0  0  0  0
  -16.5323  -29.9107   23.6302 C   0  0  0  0  0  0
  -16.7232  -28.6534   23.0303 C   0  0  0  0  0  0
  -26.4476  -31.6574   25.0663 C   0  0  0  0  0  0
  -25.3753  -31.3621   26.1402 C   0  0  0  0  0  0
  -27.0280  -30.3031   24.5958 C   0  0  0  0  0  0
  -27.6081  -32.4275   25.7401 C   0  0  0  0  0  0
  -27.5558  -37.1787   24.8455 C   0  0  0  0  0  0
  -21.4094  -29.3053   22.3734 N   0  0  0  0  0  0
  -26.4271  -37.3838   23.9417 N   0  0  0  0  0  0
  -24.6563  -31.0869   22.0993 N   0  0  0  0  0  0
  -23.4160  -28.8171   23.2949 O   0  0  0  0  0  0
  -28.4476  -26.8402   20.0937 O   0  0  0  0  0  0
  -26.5579  -34.8947   22.4665 O   0  0  0  0  0  0
  -23.5294  -32.1452   23.7542 O   0  0  0  0  0  0
  -30.5606  -17.5112   19.4641 C   0  0  0  0  0  0
  -30.4985  -19.9047   19.0551 C   0  0  0  0  0  0
  -30.5006  -17.7268   20.8606 C   0  0  0  0  0  0
  -30.3580  -20.1494   20.4434 C   0  0  0  0  0  0
  -30.5798  -18.5915   18.5695 C   0  0  0  0  0  0
  -30.3939  -19.0559   21.3448 C   0  0  0  0  0  0
  -30.5476  -23.9729   20.5785 C   0  0  0  0  0  0
  -31.8578  -24.2785   20.6923 C   0  0  0  0  0  0
  -29.3981  -24.8621   21.0536 C   0  0  0  0  0  0
  -28.7496  -23.6586   18.1017 C   0  0  0  0  0  0
  -28.9499  -25.1327   18.5016 C   0  0  0  0  0  0
  -28.7949  -22.6543   19.2760 C   0  0  0  0  0  0
  -28.4835  -25.4333   19.9372 C   0  0  2  0  0  0
  -33.0314  -23.4158   20.2576 C   0  0  0  0  0  0
  -30.6158  -16.5514   21.8378 C   0  0  0  0  0  0
  -30.1914  -21.5624   21.0092 C   0  0  0  0  0  0
  -30.0818  -15.2777   21.3690 N   0  0  0  0  0  0
  -30.0956  -22.6572   20.0101 N   0  3  2  0  0  0
  -30.7139  -18.3106   16.8747 Cl  0  0  0  0  0  0
  -30.3267  -19.3617   23.0505 Cl  0  0  0  0  0  0
  -31.4648  -12.3928   19.0704 H   0  0  0  0  0  0
  -30.3386  -11.2495   19.7401 H   0  0  0  0  0  0
  -29.7122  -11.8039   17.3825 H   0  0  0  0  0  0
  -29.6676  -13.5049   17.7655 H   0  0  0  0  0  0
  -27.7910  -11.3298   18.7515 H   0  0  0  0  0  0
  -27.3630  -12.7069   17.7739 H   0  0  0  0  0  0
  -27.7312  -14.2531   19.6214 H   0  0  0  0  0  0
  -28.6711  -11.8515   21.2567 H   0  0  0  0  0  0
  -28.4689  -13.4474   21.8979 H   0  0  0  0  0  0
  -25.2774   -9.5681   22.4713 H   0  0  0  0  0  0
  -24.0016   -7.4630   22.7451 H   0  0  0  0  0  0
  -21.0842   -8.8759   19.8926 H   0  0  0  0  0  0
  -22.3704  -10.9658   19.6128 H   0  0  0  0  0  0
  -21.1996   -7.6148   23.9726 H   0  0  0  0  0  0
  -21.1472   -6.0516   25.9079 H   0  0  0  0  0  0
  -22.0604   -2.7616   23.2835 H   0  0  0  0  0  0
  -22.4158  -11.9912   22.4807 H   0  0  0  0  0  0
  -21.1108  -13.1209   22.2529 H   0  0  0  0  0  0
  -24.6691  -15.8417   20.5182 H   0  0  0  0  0  0
  -26.2906  -15.6288   20.0972 H   0  0  0  0  0  0
  -26.7074  -32.5545   23.1134 H   0  0  0  0  0  0
  -25.0191  -33.9860   25.0557 H   0  0  0  0  0  0
  -22.6788  -31.3104   21.4130 H   0  0  0  0  0  0
  -23.3745  -35.9642   23.3336 H   0  0  0  0  0  0
  -24.3536  -36.8915   22.2025 H   0  0  0  0  0  0
  -23.7208  -37.6541   23.6621 H   0  0  0  0  0  0
  -26.0065  -31.6219   20.5820 H   0  0  0  0  0  0
  -26.8091  -30.9142   21.9599 H   0  0  0  0  0  0
  -28.0814  -29.1597   21.1481 H   0  0  0  0  0  0
  -26.0545  -26.0354   18.9356 H   0  0  0  0  0  0
  -23.9769  -27.3117   19.0194 H   0  0  0  0  0  0
  -23.7064  -30.6122   19.4079 H   0  0  0  0  0  0
  -22.7208  -29.2528   19.8656 H   0  0  0  0  0  0
  -25.1260  -36.2011   25.0800 H   0  0  0  0  0  0
  -20.9909  -28.3231   24.1438 H   0  0  0  0  0  0
  -20.5630  -26.2269   23.3614 H   0  0  0  0  0  0
  -21.6617  -26.7431   22.1203 H   0  0  0  0  0  0
  -19.6902  -25.6315   21.1216 H   0  0  0  0  0  0
  -19.6685  -27.3238   20.6771 H   0  0  0  0  0  0
  -17.4161  -26.6669   21.4021 H   0  0  0  0  0  0
  -18.0283  -26.0085   22.9019 H   0  0  0  0  0  0
  -19.7912  -30.7256   24.2276 H   0  0  0  0  0  0
  -17.4990  -31.6245   24.5208 H   0  0  0  0  0  0
  -15.5331  -30.3005   23.7645 H   0  0  0  0  0  0
  -15.8625  -28.0877   22.6980 H   0  0  0  0  0  0
  -24.5963  -30.6965   25.7675 H   0  0  0  0  0  0
  -24.8903  -32.2749   26.4861 H   0  0  0  0  0  0
  -25.8104  -30.8747   27.0135 H   0  0  0  0  0  0
  -26.2769  -29.6772   24.1136 H   0  0  0  0  0  0
  -27.4241  -29.7272   25.4326 H   0  0  0  0  0  0
  -27.8510  -30.4368   23.8935 H   0  0  0  0  0  0
  -27.2757  -33.3603   26.1968 H   0  0  0  0  0  0
  -28.3865  -32.6799   25.0182 H   0  0  0  0  0  0
  -28.0780  -31.8399   26.5299 H   0  0  0  0  0  0
  -28.2581  -38.0076   24.7537 H   0  0  0  0  0  0
  -28.1037  -36.2618   24.6242 H   0  0  0  0  0  0
  -27.2248  -37.1379   25.8844 H   0  0  0  0  0  0
  -20.9210  -29.8852   21.7051 H   0  0  0  0  0  0
  -26.0167  -38.2906   24.1516 H   0  0  0  0  0  0
  -30.6292  -16.5205   19.0486 H   0  0  0  0  0  0
  -30.5307  -20.6974   18.3254 H   0  0  0  0  0  0
  -32.1324  -25.2267   21.1381 H   0  0  0  0  0  0
  -29.8226  -25.6861   21.6294 H   0  0  0  0  0  0
  -28.7902  -24.3136   21.7738 H   0  0  0  0  0  0
  -29.4832  -23.3889   17.3399 H   0  0  0  0  0  0
  -27.7753  -23.5622   17.6182 H   0  0  0  0  0  0
  -28.4092  -25.7663   17.7953 H   0  0  0  0  0  0
  -29.9969  -25.4162   18.3908 H   0  0  0  0  0  0
  -28.5853  -21.6670   18.8693 H   0  0  0  0  0  0
  -27.9668  -22.8183   19.9636 H   0  0  0  0  0  0
  -27.4986  -24.9967   20.0913 H   0  0  0  0  0  0
  -33.6683  -23.1957   21.1178 H   0  0  0  0  0  0
  -33.6303  -23.9531   19.5207 H   0  0  0  0  0  0
  -32.7335  -22.4628   19.8171 H   0  0  0  0  0  0
  -30.0808  -16.7695   22.7606 H   0  0  0  0  0  0
  -31.6643  -16.4351   22.1178 H   0  0  0  0  0  0
  -31.0507  -21.7380   21.6568 H   0  0  0  0  0  0
  -29.3134  -21.6007   21.6552 H   0  0  0  0  0  0
  -29.1570  -15.0276   21.6888 H   0  0  0  0  0  0
  -30.7841  -22.4117   19.3156 H   0  0  0  0  0  0
  1 25  1  0  0  0
  1 30  2  0  0  0
  1 87  1  0  0  0
  2  3  1  0  0  0
  2 25  1  0  0  0
  2 91  1  0  0  0
  2 92  1  0  0  0
  3  4  1  0  0  0
  3 93  1  0  0  0
  3 94  1  0  0  0
  4  5  1  0  0  0
  4 95  1  0  0  0
  4 96  1  0  0  0
  5  6  1  0  0  0
  5 26  1  0  0  0
  5 97  1  0  0  0
  6 25  1  0  0  0
  6 98  1  0  0  0
  6 99  1  0  0  0
  7  8  2  0  0  0
  7 26  1  0  0  0
  7 29  1  0  0  0
  8  9  1  0  0  0
  8 22  1  0  0  0
  9 10  1  0  0  0
  9 27  2  0  0  0
 10 11  2  0  0  0
 10 15  1  0  0  0
 11 12  1  0  0  0
 11100  1  0  0  0
 12 13  2  0  0  0
 12101  1  0  0  0
 13 14  1  0  0  0
 13 31  1  0  0  0
 14 15  2  0  0  0
 14102  1  0  0  0
 15103  1  0  0  0
 16 17  2  0  0  0
 16 21  1  0  0  0
 16 31  1  0  0  0
 17 18  1  0  0  0
 17104  1  0  0  0
 18 19  2  0  0  0
 18105  1  0  0  0
 19 20  1  0  0  0
 19 24  1  0  0  0
 20 21  2  0  0  0
 20106  1  0  0  0
 21 23  1  0  0  0
 22 28  1  0  0  0
 22 32  2  0  0  0
 26 27  1  0  0  0
 28107  1  0  0  0
 28108  1  0  0  0
 29109  1  0  0  0
 29110  1  0  0  0
 33 34  1  0  0  0
 33 66  1  0  0  0
 33 70  2  0  0  0
 34 36  1  0  0  0
 34 59  1  0  0  0
 34111  1  0  0  0
 35 44  2  0  0  0
 35 45  1  0  0  0
 35 68  1  0  0  0
 36 56  1  0  0  0
 36112  1  0  0  0
 37 39  1  0  0  0
 37 47  1  0  0  0
 37 66  1  0  0  0
 37113  1  0  0  0
 38 43  2  0  0  0
 38 46  1  0  0  0
 38 47  1  0  0  0
 39 64  1  0  0  0
 39 67  2  0  0  0
 40 52  1  0  0  0
 40 53  2  0  0  0
 40 58  1  0  0  0
 41114  1  0  0  0
 41115  1  0  0  0
 41116  1  0  0  0
 41 48  1  0  0  0
 42 43  1  0  0  0
 42 66  1  0  0  0
 42117  1  0  0  0
 42118  1  0  0  0
 43 44  1  0  0  0
 44119  1  0  0  0
 45 46  2  0  0  0
 45120  1  0  0  0
 46121  1  0  0  0
 47122  1  0  0  0
 47123  1  0  0  0
 48 56  1  0  0  0
 48 65  1  0  0  0
 48124  1  0  0  0
 49 50  1  0  0  0
 49 53  1  0  0  0
 49 64  1  0  0  0
 49125  1  0  0  0
 50 51  1  0  0  0
 50126  1  0  0  0
 50127  1  0  0  0
 51 52  1  0  0  0
 51128  1  0  0  0
 51129  1  0  0  0
 52130  1  0  0  0
 52131  1  0  0  0
 53 54  1  0  0  0
 54 55  2  0  0  0
 54132  1  0  0  0
 55 57  1  0  0  0
 55133  1  0  0  0
 56 69  2  0  0  0
 57 58  2  0  0  0
 57134  1  0  0  0
 58135  1  0  0  0
 59 60  1  0  0  0
 59 61  1  0  0  0
 59 62  1  0  0  0
 60136  1  0  0  0
 60137  1  0  0  0
 60138  1  0  0  0
 61139  1  0  0  0
 61140  1  0  0  0
 61141  1  0  0  0
 62142  1  0  0  0
 62143  1  0  0  0
 62144  1  0  0  0
 63 65  1  0  0  0
 63145  1  0  0  0
 63146  1  0  0  0
 63147  1  0  0  0
 64148  1  0  0  0
 65149  1  0  0  0
 68 83  1  0  0  0
 71 73  2  0  0  0
 71 75  1  0  0  0
 71150  1  0  0  0
 72 74  1  0  0  0
 72 75  2  0  0  0
 72151  1  0  0  0
 73 76  1  0  0  0
 73 85  1  0  0  0
 74 76  2  0  0  0
 74 86  1  0  0  0
 75 89  1  0  0  0
 76 90  1  0  0  0
 77 78  2  0  0  0
 77 79  1  0  0  0
 77 88  1  0  0  0
 78 84  1  0  0  0
 78152  1  0  0  0
 79 83  1  0  0  0
 79153  1  0  0  0
 79154  1  0  0  0
 80 81  1  0  0  0
 80 82  1  0  0  0
 80155  1  0  0  0
 80156  1  0  0  0
 81 83  1  0  0  0
 81157  1  0  0  0
 81158  1  0  0  0
 82 88  1  0  0  0
 82159  1  0  0  0
 82160  1  0  0  0
 83161  1  0  0  0
 84162  1  0  0  0
 84163  1  0  0  0
 84164  1  0  0  0
 85 87  1  0  0  0
 85165  1  0  0  0
 85166  1  0  0  0
 86167  1  0  0  0
 86168  1  0  0  0
 86 88  1  0  0  0
 87169  1  0  0  0
 88170  1  0  0  0
M  CHG  1  88   1
M  ISO  4   1 100  68 101  83 101  87 100
M  END
> <chiral flag>
0

> <version>
0

> <s_m_source_file>
/data/baiqing/PycharmProjects/Reinvent-master-3.2/result/LINK_invent/BTK/process_docking_weight1_custom_product_contain_oxygen_bond_distance_aromatic_linkinvent_7_9_3/rearranged_h_0037.sdf

> <i_m_source_file_index>
29

> <r_mmod_Potential_Energy-OPLS-2005>
-192.922393798828

> <r_mmod_Stretch_Energy-OPLS-2005>
35.771125793457

> <r_mmod_Bend_Energy-OPLS-2005>
113.89453125

> <r_mmod_Torsional_Energy-OPLS-2005>
226.832168579102

> <r_mmod_Improper_Torsional_Energy-OPLS-2005>
2.39566445350647

> <r_mmod_Van_der_Waal_Energy-OPLS-2005>
182.693832397461

> <r_mmod_Electrostatic_Energy-OPLS-2005>
-328.36181640625

> <r_mmod_Solvation_Energy-OPLS-2005>
-436.500885009766

> <b_mmod_Minimization_Converged-OPLS-2005>
0

> <r_mmod_RMS_Derivative-OPLS-2005>
3.87199354171753

$$$$
29
                    3D
 Structure written by MMmdl.
167176  0  0  1  0            999 V2000
  -30.6055  -14.6639   20.4781 C   0  0  0  0  0  0
  -30.4473  -12.4061   19.4451 C   0  0  0  0  0  0
  -29.5083  -12.5031   18.2212 C   0  0  0  0  0  0
  -28.0324  -12.3341   18.6376 C   0  0  0  0  0  0
  -27.6504  -13.2106   19.8588 C   0  0  2  0  0  0
  -28.7009  -13.0801   20.9856 C   0  0  0  0  0  0
  -25.2528  -13.8104   20.5732 C   0  0  0  0  0  0
  -24.1800  -13.0381   20.9221 C   0  0  0  0  0  0
  -24.6380  -11.6866   20.8741 C   0  0  0  0  0  0
  -23.9050  -10.4266   21.0401 C   0  0  0  0  0  0
  -24.3607   -9.4193   21.9183 C   0  0  0  0  0  0
  -23.6285   -8.2231   22.0753 C   0  0  0  0  0  0
  -22.4268   -8.0268   21.3543 C   0  0  0  0  0  0
  -21.9896   -9.0239   20.4646 C   0  0  0  0  0  0
  -22.7220  -10.2118   20.3049 C   0  0  0  0  0  0
  -21.6852   -6.0723   22.5279 C   0  0  0  0  0  0
  -21.4009   -6.5627   23.8212 C   0  0  0  0  0  0
  -21.3657   -5.6782   24.9174 C   0  0  0  0  0  0
  -21.6048   -4.3046   24.7224 C   0  0  0  0  0  0
  -21.8822   -3.8135   23.4347 C   0  0  0  0  0  0
  -21.9200   -4.6952   22.3402 C   0  0  0  0  0  0
  -22.7826  -13.5202   21.1874 C   0  0  0  0  0  0
  -22.1672   -4.2138   21.0980 F   0  0  0  0  0  0
  -21.5634   -3.4532   25.7738 F   0  0  0  0  0  0
  -30.0129  -13.4296   20.4145 N   0  0  0  0  0  0
  -26.2968  -12.9307   20.3310 N   0  0  0  0  0  0
  -25.9305  -11.6466   20.5737 N   0  0  0  0  0  0
  -22.0464  -12.8207   22.0433 N   0  0  0  0  0  0
  -25.4098  -15.1820   20.4218 N   0  0  0  0  0  0
  -31.7865  -14.8343   20.1633 O   0  0  0  0  0  0
  -21.6635   -6.8863   21.4241 O   0  0  0  0  0  0
  -22.3519  -14.5510   20.6715 O   0  0  0  0  0  0
  -24.6255  -31.8610   23.2029 C   0  0  0  0  0  0
  -25.9107  -32.4784   23.8357 C   0  0  1  0  0  0
  -27.2285  -27.3273   20.1038 C   0  0  0  0  0  0
  -25.5927  -33.8586   24.2282 N   0  0  0  0  0  0
  -23.4181  -30.4857   21.5465 C   0  0  2  0  0  0
  -24.8625  -28.9407   20.1123 C   0  0  0  0  0  0
  -22.7466  -29.4640   22.4944 C   0  0  0  0  0  0
  -18.0285  -28.1388   22.8493 C   0  0  0  0  0  0
  -24.1489  -36.7293   23.2641 C   0  0  0  0  0  0
  -25.9590  -30.7933   21.3726 C   0  0  0  0  0  0
  -26.0314  -29.4211   20.7144 C   0  0  0  0  0  0
  -27.2140  -28.6249   20.7029 C   0  0  0  0  0  0
  -26.0275  -26.8935   19.4925 C   0  0  0  0  0  0
  -24.8621  -27.6810   19.4958 C   0  0  0  0  0  0
  -23.6309  -29.8212   20.1613 C   0  0  0  0  0  0
  -25.4115  -36.3089   24.0334 C   0  0  1  0  0  0
  -20.5886  -28.3693   23.1293 C   0  0  2  0  0  0
  -20.6777  -26.9420   22.5414 C   0  0  0  0  0  0
  -19.5752  -26.6392   21.5215 C   0  0  0  0  0  0
  -18.1929  -26.7934   22.1625 C   0  0  0  0  0  0
  -19.1538  -28.8855   23.2889 C   0  0  0  0  0  0
  -18.9459  -30.1456   23.8907 C   0  0  0  0  0  0
  -17.6460  -30.6593   24.0564 C   0  0  0  0  0  0
  -25.9055  -34.9457   23.5108 C   0  0  0  0  0  0
  -16.5349  -29.9093   23.6329 C   0  0  0  0  0  0
  -16.7273  -28.6507   23.0355 C   0  0  0  0  0  0
  -26.4495  -31.6590   25.0722 C   0  0  0  0  0  0
  -25.3730  -31.3729   26.1451 C   0  0  0  0  0  0
  -27.0329  -30.3013   24.6166 C   0  0  0  0  0  0
  -27.6062  -32.4321   25.7485 C   0  0  0  0  0  0
  -27.5584  -37.1800   24.8465 C   0  0  0  0  0  0
  -21.4180  -29.3047   22.3682 N   0  0  0  0  0  0
  -26.4292  -37.3784   23.9417 N   0  0  0  0  0  0
  -24.6864  -31.0630   22.0977 N   0  0  0  0  0  0
  -23.4195  -28.8179   23.3021 O   0  0  0  0  0  0
  -28.3730  -26.5123   20.1543 O   0  0  0  0  0  0
  -26.5619  -34.8926   22.4672 O   0  0  0  0  0  0
  -23.5420  -32.1405   23.7361 O   0  0  0  0  0  0
  -30.7003  -19.3835   21.2726 C   0  0  0  0  0  0
  -30.8134  -17.9574   21.2144 C   0  0  0  0  0  0
  -28.6574  -19.2928   20.0150 C   0  0  0  0  0  0
  -29.5981  -20.0929   20.7096 C   0  0  0  0  0  0
  -29.8290  -17.1588   20.5742 C   0  0  0  0  0  0
  -28.7746  -17.8743   19.9380 C   0  0  0  0  0  0
  -29.4713  -24.1885   20.2607 C   0  0  0  0  0  0
  -30.5173  -24.6820   20.9606 C   0  0  0  0  0  0
  -28.7974  -23.9994   17.2771 C   0  0  0  0  0  0
  -30.1396  -23.3004   17.5685 C   0  0  0  0  0  0
  -28.5902  -25.2824   18.1068 C   0  0  0  0  0  0
  -30.0871  -22.2538   18.6989 C   0  0  0  0  0  0
  -28.3746  -25.1224   19.6350 C   0  0  2  0  0  0
  -31.7254  -23.9442   21.5062 C   0  0  0  0  0  0
  -29.3549  -21.6313   21.0040 C   0  0  0  0  0  0
  -29.7360  -15.7016   20.6830 N   0  0  0  0  0  0
  -29.3147  -22.6787   19.8952 N   0  3  1  0  0  0
  -27.5704  -17.0149   19.0520 Cl  0  0  0  0  0  0
  -31.4851  -12.5488   19.1376 H   0  0  0  0  0  0
  -30.3986  -11.4124   19.8936 H   0  0  0  0  0  0
  -29.7769  -11.7477   17.4815 H   0  0  0  0  0  0
  -29.6407  -13.4689   17.7303 H   0  0  0  0  0  0
  -27.8771  -11.2816   18.8787 H   0  0  0  0  0  0
  -27.3742  -12.5518   17.7958 H   0  0  0  0  0  0
  -27.6591  -14.2392   19.5032 H   0  0  0  0  0  0
  -28.7208  -12.0621   21.3779 H   0  0  0  0  0  0
  -28.4466  -13.7197   21.8323 H   0  0  0  0  0  0
  -25.2755   -9.5681   22.4754 H   0  0  0  0  0  0
  -24.0001   -7.4624   22.7469 H   0  0  0  0  0  0
  -21.0829   -8.8754   19.8953 H   0  0  0  0  0  0
  -22.3680  -10.9656   19.6155 H   0  0  0  0  0  0
  -21.1990   -7.6133   23.9705 H   0  0  0  0  0  0
  -21.1483   -6.0513   25.9078 H   0  0  0  0  0  0
  -22.0605   -2.7599   23.2845 H   0  0  0  0  0  0
  -22.4066  -11.9867   22.4828 H   0  0  0  0  0  0
  -21.1086  -13.1239   22.2640 H   0  0  0  0  0  0
  -24.6212  -15.8109   20.5161 H   0  0  0  0  0  0
  -26.2219  -15.6357   20.0197 H   0  0  0  0  0  0
  -26.7173  -32.5455   23.1106 H   0  0  0  0  0  0
  -25.0067  -33.9730   25.0421 H   0  0  0  0  0  0
  -22.7112  -31.3060   21.4055 H   0  0  0  0  0  0
  -23.3758  -35.9617   23.3291 H   0  0  0  0  0  0
  -24.3585  -36.8921   22.2058 H   0  0  0  0  0  0
  -23.7226  -37.6489   23.6664 H   0  0  0  0  0  0
  -26.0898  -31.5567   20.6042 H   0  0  0  0  0  0
  -26.8400  -30.8413   22.0014 H   0  0  0  0  0  0
  -28.1124  -28.9930   21.1783 H   0  0  0  0  0  0
  -25.9469  -25.9322   19.0103 H   0  0  0  0  0  0
  -23.9639  -27.3040   19.0260 H   0  0  0  0  0  0
  -23.7503  -30.5983   19.4055 H   0  0  0  0  0  0
  -22.7496  -29.2528   19.8594 H   0  0  0  0  0  0
  -25.1288  -36.1947   25.0825 H   0  0  0  0  0  0
  -20.9984  -28.3272   24.1413 H   0  0  0  0  0  0
  -20.5693  -26.2301   23.3611 H   0  0  0  0  0  0
  -21.6644  -26.7462   22.1200 H   0  0  0  0  0  0
  -19.6916  -25.6304   21.1243 H   0  0  0  0  0  0
  -19.6691  -27.3204   20.6747 H   0  0  0  0  0  0
  -17.4202  -26.6689   21.4020 H   0  0  0  0  0  0
  -18.0328  -26.0076   22.9021 H   0  0  0  0  0  0
  -19.7933  -30.7264   24.2292 H   0  0  0  0  0  0
  -17.5015  -31.6274   24.5160 H   0  0  0  0  0  0
  -15.5352  -30.2996   23.7647 H   0  0  0  0  0  0
  -15.8675  -28.0829   22.7070 H   0  0  0  0  0  0
  -24.5893  -30.7096   25.7774 H   0  0  0  0  0  0
  -24.8935  -32.2897   26.4893 H   0  0  0  0  0  0
  -25.8053  -30.8885   27.0214 H   0  0  0  0  0  0
  -26.2890  -29.6770   24.1202 H   0  0  0  0  0  0
  -27.4041  -29.7269   25.4663 H   0  0  0  0  0  0
  -27.8759  -30.4297   23.9372 H   0  0  0  0  0  0
  -27.2686  -33.3630   26.2056 H   0  0  0  0  0  0
  -28.3874  -32.6868   25.0308 H   0  0  0  0  0  0
  -28.0730  -31.8448   26.5404 H   0  0  0  0  0  0
  -28.2595  -38.0105   24.7523 H   0  0  0  0  0  0
  -28.1083  -36.2636   24.6267 H   0  0  0  0  0  0
  -27.2306  -37.1423   25.8869 H   0  0  0  0  0  0
  -20.9355  -29.8762   21.6889 H   0  0  0  0  0  0
  -26.0175  -38.2861   24.1416 H   0  0  0  0  0  0
  -31.4497  -19.9299   21.8288 H   0  0  0  0  0  0
  -31.6338  -17.4787   21.7281 H   0  0  0  0  0  0
  -27.7922  -19.7580   19.5643 H   0  0  0  0  0  0
  -30.5300  -25.7454   21.1558 H   0  0  0  0  0  0
  -27.9528  -23.3162   17.3778 H   0  0  0  0  0  0
  -28.8019  -24.2936   16.2266 H   0  0  0  0  0  0
  -30.9122  -24.0419   17.7777 H   0  0  0  0  0  0
  -30.4771  -22.7907   16.6651 H   0  0  0  0  0  0
  -27.7514  -25.8244   17.6722 H   0  0  0  0  0  0
  -29.4498  -25.9354   17.9489 H   0  0  0  0  0  0
  -31.1034  -21.9852   18.9885 H   0  0  0  0  0  0
  -29.6325  -21.3464   18.3006 H   0  0  0  0  0  0
  -27.4223  -24.6362   19.8452 H   0  0  0  0  0  0
  -31.9017  -22.9913   21.0108 H   0  0  0  0  0  0
  -31.6205  -23.7786   22.5787 H   0  0  0  0  0  0
  -32.6180  -24.5517   21.3505 H   0  0  0  0  0  0
  -30.0927  -21.9221   21.7471 H   0  0  0  0  0  0
  -28.4066  -21.7069   21.5368 H   0  0  0  0  0  0
  -28.7862  -15.3732   20.7601 H   0  0  0  0  0  0
  -28.3633  -22.5847   19.5744 H   0  0  0  0  0  0
  1 25  1  0  0  0
  1 30  2  0  0  0
  1 86  1  0  0  0
  2  3  1  0  0  0
  2 25  1  0  0  0
  2 89  1  0  0  0
  2 90  1  0  0  0
  3  4  1  0  0  0
  3 91  1  0  0  0
  3 92  1  0  0  0
  4  5  1  0  0  0
  4 93  1  0  0  0
  4 94  1  0  0  0
  5  6  1  0  0  0
  5 26  1  0  0  0
  5 95  1  0  0  0
  6 25  1  0  0  0
  6 96  1  0  0  0
  6 97  1  0  0  0
  7  8  2  0  0  0
  7 26  1  0  0  0
  7 29  1  0  0  0
  8  9  1  0  0  0
  8 22  1  0  0  0
  9 10  1  0  0  0
  9 27  2  0  0  0
 10 11  2  0  0  0
 10 15  1  0  0  0
 11 12  1  0  0  0
 11 98  1  0  0  0
 12 13  2  0  0  0
 12 99  1  0  0  0
 13 14  1  0  0  0
 13 31  1  0  0  0
 14 15  2  0  0  0
 14100  1  0  0  0
 15101  1  0  0  0
 16 17  2  0  0  0
 16 21  1  0  0  0
 16 31  1  0  0  0
 17 18  1  0  0  0
 17102  1  0  0  0
 18 19  2  0  0  0
 18103  1  0  0  0
 19 20  1  0  0  0
 19 24  1  0  0  0
 20 21  2  0  0  0
 20104  1  0  0  0
 21 23  1  0  0  0
 22 28  1  0  0  0
 22 32  2  0  0  0
 26 27  1  0  0  0
 28105  1  0  0  0
 28106  1  0  0  0
 29107  1  0  0  0
 29108  1  0  0  0
 33 34  1  0  0  0
 33 66  1  0  0  0
 33 70  2  0  0  0
 34 36  1  0  0  0
 34 59  1  0  0  0
 34109  1  0  0  0
 35 44  2  0  0  0
 35 45  1  0  0  0
 35 68  1  0  0  0
 36 56  1  0  0  0
 36110  1  0  0  0
 37 39  1  0  0  0
 37 47  1  0  0  0
 37 66  1  0  0  0
 37111  1  0  0  0
 38 43  2  0  0  0
 38 46  1  0  0  0
 38 47  1  0  0  0
 39 64  1  0  0  0
 39 67  2  0  0  0
 40 52  1  0  0  0
 40 53  2  0  0  0
 40 58  1  0  0  0
 41112  1  0  0  0
 41113  1  0  0  0
 41114  1  0  0  0
 41 48  1  0  0  0
 42 43  1  0  0  0
 42 66  1  0  0  0
 42115  1  0  0  0
 42116  1  0  0  0
 43 44  1  0  0  0
 44117  1  0  0  0
 45 46  2  0  0  0
 45118  1  0  0  0
 46119  1  0  0  0
 47120  1  0  0  0
 47121  1  0  0  0
 48 56  1  0  0  0
 48 65  1  0  0  0
 48122  1  0  0  0
 49 50  1  0  0  0
 49 53  1  0  0  0
 49 64  1  0  0  0
 49123  1  0  0  0
 50 51  1  0  0  0
 50124  1  0  0  0
 50125  1  0  0  0
 51 52  1  0  0  0
 51126  1  0  0  0
 51127  1  0  0  0
 52128  1  0  0  0
 52129  1  0  0  0
 53 54  1  0  0  0
 54 55  2  0  0  0
 54130  1  0  0  0
 55 57  1  0  0  0
 55131  1  0  0  0
 56 69  2  0  0  0
 57 58  2  0  0  0
 57132  1  0  0  0
 58133  1  0  0  0
 59 60  1  0  0  0
 59 61  1  0  0  0
 59 62  1  0  0  0
 60134  1  0  0  0
 60135  1  0  0  0
 60136  1  0  0  0
 61137  1  0  0  0
 61138  1  0  0  0
 61139  1  0  0  0
 62140  1  0  0  0
 62141  1  0  0  0
 62142  1  0  0  0
 63 65  1  0  0  0
 63143  1  0  0  0
 63144  1  0  0  0
 63145  1  0  0  0
 64146  1  0  0  0
 65147  1  0  0  0
 68 83  1  0  0  0
 71 72  2  0  0  0
 71 74  1  0  0  0
 71148  1  0  0  0
 72 75  1  0  0  0
 72149  1  0  0  0
 73 74  2  0  0  0
 73 76  1  0  0  0
 73150  1  0  0  0
 74 85  1  0  0  0
 75 76  2  0  0  0
 75 86  1  0  0  0
 76 88  1  0  0  0
 77 78  2  0  0  0
 77 83  1  0  0  0
 77 87  1  0  0  0
 78 84  1  0  0  0
 78151  1  0  0  0
 79 80  1  0  0  0
 79 81  1  0  0  0
 79152  1  0  0  0
 79153  1  0  0  0
 80 82  1  0  0  0
 80154  1  0  0  0
 80155  1  0  0  0
 81 83  1  0  0  0
 81156  1  0  0  0
 81157  1  0  0  0
 82 87  1  0  0  0
 82158  1  0  0  0
 82159  1  0  0  0
 83160  1  0  0  0
 84161  1  0  0  0
 84162  1  0  0  0
 84163  1  0  0  0
 85164  1  0  0  0
 85165  1  0  0  0
 85 87  1  0  0  0
 86166  1  0  0  0
 87167  1  0  0  0
M  CHG  1  87   1
M  ISO  4   1 100  68 101  83 101  86 100
M  END
> <chiral flag>
0

> <version>
0

> <s_m_source_file>
/data/baiqing/PycharmProjects/Reinvent-master-3.2/result/LINK_invent/BTK/process_docking_weight1_custom_product_contain_oxygen_bond_distance_aromatic_linkinvent_7_9_3/rearranged_h_0037.sdf

> <i_m_source_file_index>
30

> <r_mmod_Potential_Energy-OPLS-2005>
-19.148832321167

> <r_mmod_Stretch_Energy-OPLS-2005>
87.5901260375977

> <r_mmod_Bend_Energy-OPLS-2005>
163.697982788086

> <r_mmod_Torsional_Energy-OPLS-2005>
250.208892822266

> <r_mmod_Improper_Torsional_Energy-OPLS-2005>
7.75110912322998

> <r_mmod_Van_der_Waal_Energy-OPLS-2005>
144.434982299805

> <r_mmod_Electrostatic_Energy-OPLS-2005>
-292.225952148438

> <r_mmod_Solvation_Energy-OPLS-2005>
-432.005981445312

> <b_mmod_Minimization_Converged-OPLS-2005>
0

> <r_mmod_RMS_Derivative-OPLS-2005>
1.11596310138702

$$$$
30
                    3D
 Structure written by MMmdl.
169178  0  0  1  0            999 V2000
  -30.5768  -14.7586   20.4071 C   0  0  0  0  0  0
  -30.4480  -12.4305   19.5063 C   0  0  0  0  0  0
  -29.5349  -12.4004   18.2598 C   0  0  0  0  0  0
  -28.0402  -12.3264   18.6461 C   0  0  0  0  0  0
  -27.6452  -13.2274   19.8528 C   0  0  2  0  0  0
  -28.6872  -13.1567   20.9872 C   0  0  0  0  0  0
  -25.2510  -13.8227   20.5715 C   0  0  0  0  0  0
  -24.1791  -13.0461   20.9181 C   0  0  0  0  0  0
  -24.6371  -11.6943   20.8719 C   0  0  0  0  0  0
  -23.9047  -10.4318   21.0390 C   0  0  0  0  0  0
  -24.3592   -9.4252   21.9190 C   0  0  0  0  0  0
  -23.6288   -8.2275   22.0759 C   0  0  0  0  0  0
  -22.4265   -8.0307   21.3568 C   0  0  0  0  0  0
  -21.9899   -9.0266   20.4661 C   0  0  0  0  0  0
  -22.7196  -10.2160   20.3069 C   0  0  0  0  0  0
  -21.6852   -6.0739   22.5274 C   0  0  0  0  0  0
  -21.3997   -6.5639   23.8211 C   0  0  0  0  0  0
  -21.3668   -5.6789   24.9173 C   0  0  0  0  0  0
  -21.6068   -4.3058   24.7232 C   0  0  0  0  0  0
  -21.8797   -3.8157   23.4350 C   0  0  0  0  0  0
  -21.9178   -4.6971   22.3395 C   0  0  0  0  0  0
  -22.7801  -13.5231   21.1868 C   0  0  0  0  0  0
  -22.1611   -4.2150   21.0978 F   0  0  0  0  0  0
  -21.5681   -3.4545   25.7759 F   0  0  0  0  0  0
  -29.9853  -13.5138   20.4034 N   0  0  0  0  0  0
  -26.2949  -12.9410   20.3307 N   0  0  0  0  0  0
  -25.9309  -11.6557   20.5762 N   0  0  0  0  0  0
  -22.0462  -12.8202   22.0434 N   0  0  0  0  0  0
  -25.4229  -15.1962   20.4166 N   0  0  0  0  0  0
  -31.7619  -14.8745   20.0795 O   0  0  0  0  0  0
  -21.6660   -6.8884   21.4237 O   0  0  0  0  0  0
  -22.3474  -14.5530   20.6738 O   0  0  0  0  0  0
  -24.6329  -31.8538   23.1969 C   0  0  0  0  0  0
  -25.9159  -32.4757   23.8311 C   0  0  1  0  0  0
  -27.2235  -27.2658   20.1071 C   0  0  0  0  0  0
  -25.5959  -33.8563   24.2235 N   0  0  0  0  0  0
  -23.4282  -30.4772   21.5412 C   0  0  2  0  0  0
  -24.8722  -28.9231   20.1086 C   0  0  0  0  0  0
  -22.7515  -29.4587   22.4919 C   0  0  0  0  0  0
  -18.0307  -28.1403   22.8482 C   0  0  0  0  0  0
  -24.1498  -36.7295   23.2642 C   0  0  0  0  0  0
  -25.9735  -30.7687   21.3726 C   0  0  0  0  0  0
  -26.0435  -29.3909   20.7139 C   0  0  0  0  0  0
  -27.2169  -28.5727   20.7035 C   0  0  0  0  0  0
  -26.0189  -26.8575   19.4875 C   0  0  0  0  0  0
  -24.8650  -27.6652   19.4875 C   0  0  0  0  0  0
  -23.6440  -29.8126   20.1567 C   0  0  0  0  0  0
  -25.4122  -36.3061   24.0318 C   0  0  1  0  0  0
  -20.5912  -28.3708   23.1284 C   0  0  2  0  0  0
  -20.6814  -26.9434   22.5408 C   0  0  0  0  0  0
  -19.5772  -26.6385   21.5229 C   0  0  0  0  0  0
  -18.1947  -26.7943   22.1624 C   0  0  0  0  0  0
  -19.1564  -28.8873   23.2877 C   0  0  0  0  0  0
  -18.9478  -30.1486   23.8878 C   0  0  0  0  0  0
  -17.6471  -30.6598   24.0562 C   0  0  0  0  0  0
  -25.9059  -34.9440   23.5068 C   0  0  0  0  0  0
  -16.5366  -29.9087   23.6344 C   0  0  0  0  0  0
  -16.7291  -28.6523   23.0339 C   0  0  0  0  0  0
  -26.4525  -31.6612   25.0724 C   0  0  0  0  0  0
  -25.3713  -31.3743   26.1419 C   0  0  0  0  0  0
  -27.0405  -30.3048   24.6218 C   0  0  0  0  0  0
  -27.6071  -32.4369   25.7492 C   0  0  0  0  0  0
  -27.5579  -37.1800   24.8461 C   0  0  0  0  0  0
  -21.4222  -29.3051   22.3671 N   0  0  0  0  0  0
  -26.4288  -37.3760   23.9408 N   0  0  0  0  0  0
  -24.6977  -31.0496   22.0949 N   0  0  0  0  0  0
  -23.4228  -28.8125   23.3006 O   0  0  0  0  0  0
  -28.3561  -26.4210   20.1808 O   0  0  0  0  0  0
  -26.5615  -34.8919   22.4629 O   0  0  0  0  0  0
  -23.5481  -32.1373   23.7279 O   0  0  0  0  0  0
  -29.4417  -18.4514   20.5378 C   0  0  0  0  0  0
  -28.9158  -19.6516   19.9010 C   0  0  0  0  0  0
  -28.3540  -19.4599   18.6076 C   0  0  0  0  0  0
  -28.6087  -18.2596   17.8832 C   0  0  0  0  0  0
  -29.2615  -17.1488   18.4964 C   0  0  0  0  0  0
  -29.5718  -17.1576   19.8880 C   0  0  0  0  0  0
  -29.9520  -23.7102   18.0158 C   0  0  0  0  0  0
  -29.7121  -25.0609   18.7261 C   0  0  0  0  0  0
  -30.0904  -22.5349   19.0077 C   0  0  0  0  0  0
  -28.5555  -23.7288   20.5508 C   0  0  0  0  0  0
  -28.4460  -25.0354   19.6025 C   0  0  1  0  0  0
  -27.3970  -20.4948   18.0111 C   0  0  0  0  0  0
  -28.1092  -18.1084   16.4392 C   0  0  0  0  0  0
  -29.5368  -15.9091   17.6557 C   0  0  0  0  0  0
  -28.8295  -21.0748   20.6392 C   0  0  0  0  0  0
  -29.7732  -15.8720   20.6293 N   0  0  0  0  0  0
  -28.8669  -22.3945   19.8375 N   0  3  2  0  0  0
  -31.4908  -12.5581   19.2084 H   0  0  0  0  0  0
  -30.4051  -11.4736   20.0277 H   0  0  0  0  0  0
  -29.7904  -11.5266   17.6584 H   0  0  0  0  0  0
  -29.7425  -13.2507   17.6153 H   0  0  0  0  0  0
  -27.8354  -11.2844   18.8927 H   0  0  0  0  0  0
  -27.4187  -12.5582   17.7810 H   0  0  0  0  0  0
  -27.6364  -14.2535   19.4898 H   0  0  0  0  0  0
  -28.7231  -12.1558   21.4197 H   0  0  0  0  0  0
  -28.4264  -13.8328   21.8033 H   0  0  0  0  0  0
  -25.2743   -9.5736   22.4744 H   0  0  0  0  0  0
  -24.0034   -7.4636   22.7424 H   0  0  0  0  0  0
  -21.0860   -8.8714   19.8944 H   0  0  0  0  0  0
  -22.3621  -10.9666   19.6157 H   0  0  0  0  0  0
  -21.1937   -7.6135   23.9708 H   0  0  0  0  0  0
  -21.1531   -6.0532   25.9074 H   0  0  0  0  0  0
  -22.0581   -2.7626   23.2846 H   0  0  0  0  0  0
  -22.4081  -11.9833   22.4770 H   0  0  0  0  0  0
  -21.1103  -13.1265   22.2744 H   0  0  0  0  0  0
  -24.6537  -15.8514   20.5058 H   0  0  0  0  0  0
  -26.2792  -15.6400   20.1082 H   0  0  0  0  0  0
  -26.7231  -32.5398   23.1053 H   0  0  0  0  0  0
  -25.0153  -33.9701   25.0415 H   0  0  0  0  0  0
  -22.7248  -31.2998   21.3964 H   0  0  0  0  0  0
  -23.3757  -35.9624   23.3256 H   0  0  0  0  0  0
  -24.3596  -36.8975   22.2066 H   0  0  0  0  0  0
  -23.7263  -37.6487   23.6702 H   0  0  0  0  0  0
  -26.1085  -31.5279   20.6010 H   0  0  0  0  0  0
  -26.8533  -30.8174   22.0026 H   0  0  0  0  0  0
  -28.1174  -28.9296   21.1832 H   0  0  0  0  0  0
  -25.9105  -25.8983   19.0119 H   0  0  0  0  0  0
  -23.9637  -27.2994   19.0156 H   0  0  0  0  0  0
  -23.7710  -30.5918   19.4034 H   0  0  0  0  0  0
  -22.7608  -29.2508   19.8489 H   0  0  0  0  0  0
  -25.1308  -36.1879   25.0805 H   0  0  0  0  0  0
  -21.0005  -28.3273   24.1400 H   0  0  0  0  0  0
  -20.5798  -26.2291   23.3601 H   0  0  0  0  0  0
  -21.6667  -26.7504   22.1135 H   0  0  0  0  0  0
  -19.6935  -25.6282   21.1287 H   0  0  0  0  0  0
  -19.6724  -27.3180   20.6747 H   0  0  0  0  0  0
  -17.4229  -26.6737   21.4008 H   0  0  0  0  0  0
  -18.0309  -26.0087   22.9020 H   0  0  0  0  0  0
  -19.7947  -30.7347   24.2214 H   0  0  0  0  0  0
  -17.5008  -31.6276   24.5169 H   0  0  0  0  0  0
  -15.5368  -30.2981   23.7681 H   0  0  0  0  0  0
  -15.8695  -28.0864   22.7015 H   0  0  0  0  0  0
  -24.5879  -30.7142   25.7688 H   0  0  0  0  0  0
  -24.8928  -32.2915   26.4866 H   0  0  0  0  0  0
  -25.7988  -30.8865   27.0192 H   0  0  0  0  0  0
  -26.3008  -29.6772   24.1257 H   0  0  0  0  0  0
  -27.4131  -29.7348   25.4744 H   0  0  0  0  0  0
  -27.8838  -30.4370   23.9435 H   0  0  0  0  0  0
  -27.2689  -33.3688   26.2043 H   0  0  0  0  0  0
  -28.3883  -32.6936   25.0313 H   0  0  0  0  0  0
  -28.0750  -31.8528   26.5437 H   0  0  0  0  0  0
  -28.2554  -38.0134   24.7532 H   0  0  0  0  0  0
  -28.1123  -36.2670   24.6248 H   0  0  0  0  0  0
  -27.2304  -37.1387   25.8864 H   0  0  0  0  0  0
  -20.9410  -29.8773   21.6880 H   0  0  0  0  0  0
  -26.0159  -38.2825   24.1418 H   0  0  0  0  0  0
  -29.7068  -18.5218   21.5833 H   0  0  0  0  0  0
  -30.8565  -23.7768   17.4095 H   0  0  0  0  0  0
  -29.1361  -23.5093   17.3192 H   0  0  0  0  0  0
  -29.6252  -25.8540   17.9819 H   0  0  0  0  0  0
  -30.5764  -25.3091   19.3420 H   0  0  0  0  0  0
  -30.9579  -22.6809   19.6529 H   0  0  0  0  0  0
  -30.2756  -21.6161   18.4491 H   0  0  0  0  0  0
  -27.6298  -23.6226   21.1167 H   0  0  0  0  0  0
  -29.3392  -23.9027   21.2897 H   0  0  0  0  0  0
  -27.6283  -24.8496   18.9123 H   0  0  0  0  0  0
  -26.9255  -21.1221   18.7642 H   0  0  0  0  0  0
  -26.5482  -19.9970   17.5414 H   0  0  0  0  0  0
  -27.8827  -21.1190   17.2601 H   0  0  0  0  0  0
  -27.6100  -18.9751   16.0182 H   0  0  0  0  0  0
  -27.4055  -17.2752   16.3804 H   0  0  0  0  0  0
  -28.9345  -17.9172   15.7544 H   0  0  0  0  0  0
  -29.6010  -16.0888   16.5878 H   0  0  0  0  0  0
  -28.7558  -15.1723   17.8179 H   0  0  0  0  0  0
  -30.5097  -15.4869   17.8904 H   0  0  0  0  0  0
  -29.6296  -21.1176   21.3800 H   0  0  0  0  0  0
  -27.9029  -21.0686   21.2139 H   0  0  0  0  0  0
  -28.9559  -15.6178   21.1612 H   0  0  0  0  0  0
  -28.1140  -22.2702   19.1771 H   0  0  0  0  0  0
  1 25  1  0  0  0
  1 30  2  0  0  0
  1 86  1  0  0  0
  2  3  1  0  0  0
  2 25  1  0  0  0
  2 88  1  0  0  0
  2 89  1  0  0  0
  3  4  1  0  0  0
  3 90  1  0  0  0
  3 91  1  0  0  0
  4  5  1  0  0  0
  4 92  1  0  0  0
  4 93  1  0  0  0
  5  6  1  0  0  0
  5 26  1  0  0  0
  5 94  1  0  0  0
  6 25  1  0  0  0
  6 95  1  0  0  0
  6 96  1  0  0  0
  7  8  2  0  0  0
  7 26  1  0  0  0
  7 29  1  0  0  0
  8  9  1  0  0  0
  8 22  1  0  0  0
  9 10  1  0  0  0
  9 27  2  0  0  0
 10 11  2  0  0  0
 10 15  1  0  0  0
 11 12  1  0  0  0
 11 97  1  0  0  0
 12 13  2  0  0  0
 12 98  1  0  0  0
 13 14  1  0  0  0
 13 31  1  0  0  0
 14 15  2  0  0  0
 14 99  1  0  0  0
 15100  1  0  0  0
 16 17  2  0  0  0
 16 21  1  0  0  0
 16 31  1  0  0  0
 17 18  1  0  0  0
 17101  1  0  0  0
 18 19  2  0  0  0
 18102  1  0  0  0
 19 20  1  0  0  0
 19 24  1  0  0  0
 20 21  2  0  0  0
 20103  1  0  0  0
 21 23  1  0  0  0
 22 28  1  0  0  0
 22 32  2  0  0  0
 26 27  1  0  0  0
 28104  1  0  0  0
 28105  1  0  0  0
 29106  1  0  0  0
 29107  1  0  0  0
 33 34  1  0  0  0
 33 66  1  0  0  0
 33 70  2  0  0  0
 34 36  1  0  0  0
 34 59  1  0  0  0
 34108  1  0  0  0
 35 44  2  0  0  0
 35 45  1  0  0  0
 35 68  1  0  0  0
 36 56  1  0  0  0
 36109  1  0  0  0
 37 39  1  0  0  0
 37 47  1  0  0  0
 37 66  1  0  0  0
 37110  1  0  0  0
 38 43  2  0  0  0
 38 46  1  0  0  0
 38 47  1  0  0  0
 39 64  1  0  0  0
 39 67  2  0  0  0
 40 52  1  0  0  0
 40 53  2  0  0  0
 40 58  1  0  0  0
 41111  1  0  0  0
 41112  1  0  0  0
 41113  1  0  0  0
 41 48  1  0  0  0
 42 43  1  0  0  0
 42 66  1  0  0  0
 42114  1  0  0  0
 42115  1  0  0  0
 43 44  1  0  0  0
 44116  1  0  0  0
 45 46  2  0  0  0
 45117  1  0  0  0
 46118  1  0  0  0
 47119  1  0  0  0
 47120  1  0  0  0
 48 56  1  0  0  0
 48 65  1  0  0  0
 48121  1  0  0  0
 49 50  1  0  0  0
 49 53  1  0  0  0
 49 64  1  0  0  0
 49122  1  0  0  0
 50 51  1  0  0  0
 50123  1  0  0  0
 50124  1  0  0  0
 51 52  1  0  0  0
 51125  1  0  0  0
 51126  1  0  0  0
 52127  1  0  0  0
 52128  1  0  0  0
 53 54  1  0  0  0
 54 55  2  0  0  0
 54129  1  0  0  0
 55 57  1  0  0  0
 55130  1  0  0  0
 56 69  2  0  0  0
 57 58  2  0  0  0
 57131  1  0  0  0
 58132  1  0  0  0
 59 60  1  0  0  0
 59 61  1  0  0  0
 59 62  1  0  0  0
 60133  1  0  0  0
 60134  1  0  0  0
 60135  1  0  0  0
 61136  1  0  0  0
 61137  1  0  0  0
 61138  1  0  0  0
 62139  1  0  0  0
 62140  1  0  0  0
 62141  1  0  0  0
 63 65  1  0  0  0
 63142  1  0  0  0
 63143  1  0  0  0
 63144  1  0  0  0
 64145  1  0  0  0
 65146  1  0  0  0
 68 81  1  0  0  0
 71 72  2  0  0  0
 71 76  1  0  0  0
 71147  1  0  0  0
 72 73  1  0  0  0
 72 85  1  0  0  0
 73 74  2  0  0  0
 73 82  1  0  0  0
 74 75  1  0  0  0
 74 83  1  0  0  0
 75 76  2  0  0  0
 75 84  1  0  0  0
 76 86  1  0  0  0
 77 78  1  0  0  0
 77 79  1  0  0  0
 77148  1  0  0  0
 77149  1  0  0  0
 78 81  1  0  0  0
 78150  1  0  0  0
 78151  1  0  0  0
 79 87  1  0  0  0
 79152  1  0  0  0
 79153  1  0  0  0
 80 81  1  0  0  0
 80 87  1  0  0  0
 80154  1  0  0  0
 80155  1  0  0  0
 81156  1  0  0  0
 82157  1  0  0  0
 82158  1  0  0  0
 82159  1  0  0  0
 83160  1  0  0  0
 83161  1  0  0  0
 83162  1  0  0  0
 84163  1  0  0  0
 84164  1  0  0  0
 84165  1  0  0  0
 85166  1  0  0  0
 85167  1  0  0  0
 85 87  1  0  0  0
 86168  1  0  0  0
 87169  1  0  0  0
M  CHG  1  87   1
M  ISO  4   1 100  68 101  81 101  86 100
M  END
> <chiral flag>
0

> <version>
0

> <s_m_source_file>
/data/baiqing/PycharmProjects/Reinvent-master-3.2/result/LINK_invent/BTK/process_docking_weight1_custom_product_contain_oxygen_bond_distance_aromatic_linkinvent_7_9_3/rearranged_h_0037.sdf

> <i_m_source_file_index>
31

> <r_mmod_Potential_Energy-OPLS-2005>
147.442901611328

> <r_mmod_Stretch_Energy-OPLS-2005>
132.423263549805

> <r_mmod_Bend_Energy-OPLS-2005>
180.709442138672

> <r_mmod_Torsional_Energy-OPLS-2005>
299.032257080078

> <r_mmod_Improper_Torsional_Energy-OPLS-2005>
7.19068241119385

> <r_mmod_Van_der_Waal_Energy-OPLS-2005>
159.718399047852

> <r_mmod_Electrostatic_Energy-OPLS-2005>
-295.956634521484

> <r_mmod_Solvation_Energy-OPLS-2005>
-423.575866699219

> <b_mmod_Minimization_Converged-OPLS-2005>
0

> <r_mmod_RMS_Derivative-OPLS-2005>
3.30085945129395

$$$$
31
                    3D
 Structure written by MMmdl.
169178  0  0  1  0            999 V2000
  -30.6377  -14.5632   20.4686 C   0  0  0  0  0  0
  -30.3716  -12.3210   19.4192 C   0  0  0  0  0  0
  -29.4490  -12.4887   18.1919 C   0  0  0  0  0  0
  -27.9791  -12.3284   18.6123 C   0  0  0  0  0  0
  -27.6278  -13.2026   19.8454 C   0  0  2  0  0  0
  -28.6779  -13.0414   20.9690 C   0  0  0  0  0  0
  -25.2446  -13.8154   20.5551 C   0  0  0  0  0  0
  -24.1732  -13.0360   20.9121 C   0  0  0  0  0  0
  -24.6308  -11.6868   20.8661 C   0  0  0  0  0  0
  -23.8961  -10.4256   21.0345 C   0  0  0  0  0  0
  -24.3548   -9.4196   21.9093 C   0  0  0  0  0  0
  -23.6258   -8.2209   22.0675 C   0  0  0  0  0  0
  -22.4214   -8.0263   21.3514 C   0  0  0  0  0  0
  -21.9830   -9.0189   20.4599 C   0  0  0  0  0  0
  -22.7131  -10.2084   20.3018 C   0  0  0  0  0  0
  -21.6850   -6.0731   22.5277 C   0  0  0  0  0  0
  -21.4046   -6.5641   23.8229 C   0  0  0  0  0  0
  -21.3681   -5.6796   24.9182 C   0  0  0  0  0  0
  -21.6008   -4.3045   24.7229 C   0  0  0  0  0  0
  -21.8792   -3.8138   23.4347 C   0  0  0  0  0  0
  -21.9176   -4.6948   22.3418 C   0  0  0  0  0  0
  -22.7797  -13.5193   21.1887 C   0  0  0  0  0  0
  -22.1643   -4.2149   21.0987 F   0  0  0  0  0  0
  -21.5582   -3.4533   25.7726 F   0  0  0  0  0  0
  -29.9980  -13.3542   20.4067 N   0  0  0  0  0  0
  -26.2817  -12.9261   20.3243 N   0  0  0  0  0  0
  -25.9218  -11.6422   20.5743 N   0  0  0  0  0  0
  -22.0568  -12.8143   22.0537 N   0  0  0  0  0  0
  -25.4171  -15.1829   20.3823 N   0  0  0  0  0  0
  -31.7907  -14.7122   20.0587 O   0  0  0  0  0  0
  -21.6622   -6.8827   21.4224 O   0  0  0  0  0  0
  -22.3432  -14.5491   20.6835 O   0  0  0  0  0  0
  -24.6213  -31.8707   23.2115 C   0  0  0  0  0  0
  -25.9108  -32.4831   23.8442 C   0  0  1  0  0  0
  -27.2397  -27.3448   20.0681 C   0  0  0  0  0  0
  -25.6036  -33.8647   24.2421 N   0  0  0  0  0  0
  -23.4265  -30.5000   21.5474 C   0  0  2  0  0  0
  -24.8756  -28.9557   20.1098 C   0  0  0  0  0  0
  -22.7490  -29.4750   22.4885 C   0  0  0  0  0  0
  -18.0318  -28.1393   22.8443 C   0  0  0  0  0  0
  -24.1468  -36.7283   23.2590 C   0  0  0  0  0  0
  -25.9732  -30.7953   21.3973 C   0  0  0  0  0  0
  -26.0468  -29.4308   20.7139 C   0  0  0  0  0  0
  -27.2313  -28.6295   20.6983 C   0  0  0  0  0  0
  -26.0434  -26.9341   19.4323 C   0  0  0  0  0  0
  -24.8661  -27.7058   19.4718 C   0  0  0  0  0  0
  -23.6508  -29.8463   20.1586 C   0  0  0  0  0  0
  -25.4075  -36.3130   24.0336 C   0  0  1  0  0  0
  -20.5923  -28.3860   23.1210 C   0  0  2  0  0  0
  -20.6941  -26.9625   22.5291 C   0  0  0  0  0  0
  -19.5894  -26.6376   21.5199 C   0  0  0  0  0  0
  -18.2034  -26.7974   22.1540 C   0  0  0  0  0  0
  -19.1544  -28.8915   23.2820 C   0  0  0  0  0  0
  -18.9433  -30.1499   23.8843 C   0  0  0  0  0  0
  -17.6429  -30.6578   24.0514 C   0  0  0  0  0  0
  -25.9030  -34.9488   23.5160 C   0  0  0  0  0  0
  -16.5330  -29.9003   23.6351 C   0  0  0  0  0  0
  -16.7286  -28.6417   23.0390 C   0  0  0  0  0  0
  -26.4424  -31.6530   25.0772 C   0  0  0  0  0  0
  -25.3593  -31.3527   26.1411 C   0  0  0  0  0  0
  -27.0333  -30.3010   24.6134 C   0  0  0  0  0  0
  -27.5876  -32.4249   25.7802 C   0  0  0  0  0  0
  -27.5558  -37.1796   24.8452 C   0  0  0  0  0  0
  -21.4220  -29.3236   22.3637 N   0  0  0  0  0  0
  -26.4249  -37.3847   23.9412 N   0  0  0  0  0  0
  -24.6908  -31.0688   22.1109 N   0  0  0  0  0  0
  -23.4206  -28.8171   23.2864 O   0  0  0  0  0  0
  -28.3541  -26.4796   20.1168 O   0  0  0  0  0  0
  -26.5484  -34.8878   22.4664 O   0  0  0  0  0  0
  -23.5365  -32.1626   23.7361 O   0  0  0  0  0  0
  -29.2097  -18.9980   19.2548 C   0  0  0  0  0  0
  -29.9384  -19.9353   20.0400 C   0  0  0  0  0  0
  -30.8080  -19.3525   21.0266 C   0  0  0  0  0  0
  -30.8125  -17.9357   21.3018 C   0  0  0  0  0  0
  -30.0277  -17.0306   20.5257 C   0  0  0  0  0  0
  -29.2695  -17.5925   19.4612 C   0  0  0  0  0  0
  -27.0922  -24.5537   21.0528 C   0  0  0  0  0  0
  -27.6635  -23.6287   22.1110 C   0  0  0  0  0  0
  -29.4536  -24.0525   20.0452 C   0  0  0  0  0  0
  -28.1493  -25.0007   20.0146 C   0  0  2  0  0  0
  -28.1670  -22.3300   21.4428 C   0  0  2  0  0  0
  -31.7715  -20.2382   21.8075 C   0  0  0  0  0  0
  -31.6674  -17.3827   22.4513 C   0  0  0  0  0  0
  -28.4421  -21.3018   22.5551 C   0  0  0  0  0  0
  -29.8558  -21.4843   19.6522 C   0  0  0  0  0  0
  -29.8822  -15.6214   20.8724 N   0  0  0  0  0  0
  -29.3669  -22.6040   20.5895 N   0  3  1  0  0  0
  -28.3821  -16.5737   18.3772 Cl  0  0  0  0  0  0
  -31.4212  -12.3527   19.1313 H   0  0  0  0  0  0
  -30.2063  -11.3254   19.8339 H   0  0  0  0  0  0
  -29.6969  -11.7706   17.4081 H   0  0  0  0  0  0
  -29.5881  -13.4758   17.7554 H   0  0  0  0  0  0
  -27.8052  -11.2776   18.8366 H   0  0  0  0  0  0
  -27.3172  -12.5604   17.7777 H   0  0  0  0  0  0
  -27.6344  -14.2316   19.4906 H   0  0  0  0  0  0
  -28.6683  -12.0153   21.3422 H   0  0  0  0  0  0
  -28.4422  -13.6621   21.8300 H   0  0  0  0  0  0
  -25.2714   -9.5717   22.4594 H   0  0  0  0  0  0
  -24.0028   -7.4610   22.7377 H   0  0  0  0  0  0
  -21.0771   -8.8651   19.8913 H   0  0  0  0  0  0
  -22.3549  -10.9566   19.6126 H   0  0  0  0  0  0
  -21.2090   -7.6159   23.9743 H   0  0  0  0  0  0
  -21.1556   -6.0536   25.9109 H   0  0  0  0  0  0
  -22.0564   -2.7599   23.2848 H   0  0  0  0  0  0
  -22.4413  -11.9843   22.4767 H   0  0  0  0  0  0
  -21.1237  -13.1132   22.2987 H   0  0  0  0  0  0
  -24.6299  -15.8233   20.3716 H   0  0  0  0  0  0
  -26.2798  -15.5920   20.0394 H   0  0  0  0  0  0
  -26.7167  -32.5448   23.1150 H   0  0  0  0  0  0
  -25.0324  -33.9835   25.0649 H   0  0  0  0  0  0
  -22.7295  -31.3284   21.3932 H   0  0  0  0  0  0
  -23.3752  -35.9591   23.3259 H   0  0  0  0  0  0
  -24.3528  -36.8909   22.1999 H   0  0  0  0  0  0
  -23.7215  -37.6496   23.6591 H   0  0  0  0  0  0
  -26.1588  -31.5795   20.6604 H   0  0  0  0  0  0
  -26.8353  -30.8082   22.0511 H   0  0  0  0  0  0
  -28.1203  -28.9777   21.2049 H   0  0  0  0  0  0
  -25.9863  -25.9879   18.9131 H   0  0  0  0  0  0
  -23.9650  -27.3353   18.9930 H   0  0  0  0  0  0
  -23.7854  -30.6365   19.4175 H   0  0  0  0  0  0
  -22.7739  -29.2863   19.8353 H   0  0  0  0  0  0
  -25.1193  -36.2085   25.0836 H   0  0  0  0  0  0
  -20.9989  -28.3443   24.1364 H   0  0  0  0  0  0
  -20.6087  -26.2522   23.3502 H   0  0  0  0  0  0
  -21.6808  -26.7854   22.1002 H   0  0  0  0  0  0
  -19.7079  -25.6197   21.1466 H   0  0  0  0  0  0
  -19.6829  -27.2980   20.6563 H   0  0  0  0  0  0
  -17.4396  -26.6765   21.3835 H   0  0  0  0  0  0
  -18.0368  -26.0066   22.8873 H   0  0  0  0  0  0
  -19.7879  -30.7349   24.2226 H   0  0  0  0  0  0
  -17.4911  -31.6242   24.5130 H   0  0  0  0  0  0
  -15.5305  -30.2812   23.7736 H   0  0  0  0  0  0
  -15.8715  -28.0611   22.7240 H   0  0  0  0  0  0
  -25.7865  -30.8530   27.0105 H   0  0  0  0  0  0
  -24.5839  -30.6888   25.7538 H   0  0  0  0  0  0
  -24.8626  -32.2526   26.5080 H   0  0  0  0  0  0
  -26.3083  -29.7071   24.0513 H   0  0  0  0  0  0
  -27.3388  -29.6857   25.4594 H   0  0  0  0  0  0
  -27.9119  -30.4359   23.9836 H   0  0  0  0  0  0
  -27.2368  -33.3440   26.2508 H   0  0  0  0  0  0
  -28.3847  -32.7018   25.0905 H   0  0  0  0  0  0
  -28.0370  -31.8284   26.5738 H   0  0  0  0  0  0
  -28.2530  -38.0111   24.7500 H   0  0  0  0  0  0
  -28.1054  -36.2611   24.6224 H   0  0  0  0  0  0
  -27.2323  -37.1532   25.8871 H   0  0  0  0  0  0
  -20.9445  -29.9025   21.6874 H   0  0  0  0  0  0
  -26.0111  -38.2919   24.1376 H   0  0  0  0  0  0
  -28.5963  -19.3463   18.4350 H   0  0  0  0  0  0
  -26.6138  -25.3922   21.5516 H   0  0  0  0  0  0
  -26.2768  -24.0403   20.5392 H   0  0  0  0  0  0
  -26.8717  -23.4343   22.8337 H   0  0  0  0  0  0
  -28.4573  -24.1416   22.6521 H   0  0  0  0  0  0
  -30.1999  -24.5475   20.6730 H   0  0  0  0  0  0
  -29.9004  -24.0564   19.0488 H   0  0  0  0  0  0
  -27.7335  -24.8127   19.0264 H   0  0  0  0  0  0
  -27.3685  -21.9351   20.8104 H   0  0  0  0  0  0
  -32.0339  -21.1509   21.2776 H   0  0  0  0  0  0
  -32.7106  -19.7168   21.9928 H   0  0  0  0  0  0
  -31.3504  -20.4880   22.7774 H   0  0  0  0  0  0
  -31.5637  -18.0119   23.3338 H   0  0  0  0  0  0
  -32.7249  -17.3591   22.1855 H   0  0  0  0  0  0
  -31.3958  -16.3755   22.7692 H   0  0  0  0  0  0
  -28.5234  -20.2820   22.1787 H   0  0  0  0  0  0
  -29.3336  -21.5462   23.1355 H   0  0  0  0  0  0
  -27.6122  -21.2885   23.2571 H   0  0  0  0  0  0
  -29.2611  -21.5531   18.7411 H   0  0  0  0  0  0
  -30.8638  -21.7548   19.3331 H   0  0  0  0  0  0
  -28.9724  -15.3497   21.2131 H   0  0  0  0  0  0
  -30.0977  -22.6166   21.2839 H   0  0  0  0  0  0
  1 25  1  0  0  0
  1 30  2  0  0  0
  1 86  1  0  0  0
  2  3  1  0  0  0
  2 25  1  0  0  0
  2 89  1  0  0  0
  2 90  1  0  0  0
  3  4  1  0  0  0
  3 91  1  0  0  0
  3 92  1  0  0  0
  4  5  1  0  0  0
  4 93  1  0  0  0
  4 94  1  0  0  0
  5  6  1  0  0  0
  5 26  1  0  0  0
  5 95  1  0  0  0
  6 25  1  0  0  0
  6 96  1  0  0  0
  6 97  1  0  0  0
  7  8  2  0  0  0
  7 26  1  0  0  0
  7 29  1  0  0  0
  8  9  1  0  0  0
  8 22  1  0  0  0
  9 10  1  0  0  0
  9 27  2  0  0  0
 10 11  2  0  0  0
 10 15  1  0  0  0
 11 12  1  0  0  0
 11 98  1  0  0  0
 12 13  2  0  0  0
 12 99  1  0  0  0
 13 14  1  0  0  0
 13 31  1  0  0  0
 14 15  2  0  0  0
 14100  1  0  0  0
 15101  1  0  0  0
 16 17  2  0  0  0
 16 21  1  0  0  0
 16 31  1  0  0  0
 17 18  1  0  0  0
 17102  1  0  0  0
 18 19  2  0  0  0
 18103  1  0  0  0
 19 20  1  0  0  0
 19 24  1  0  0  0
 20 21  2  0  0  0
 20104  1  0  0  0
 21 23  1  0  0  0
 22 28  1  0  0  0
 22 32  2  0  0  0
 26 27  1  0  0  0
 28105  1  0  0  0
 28106  1  0  0  0
 29107  1  0  0  0
 29108  1  0  0  0
 33 34  1  0  0  0
 33 66  1  0  0  0
 33 70  2  0  0  0
 34 36  1  0  0  0
 34 59  1  0  0  0
 34109  1  0  0  0
 35 44  2  0  0  0
 35 45  1  0  0  0
 35 68  1  0  0  0
 36 56  1  0  0  0
 36110  1  0  0  0
 37 39  1  0  0  0
 37 47  1  0  0  0
 37 66  1  0  0  0
 37111  1  0  0  0
 38 43  2  0  0  0
 38 46  1  0  0  0
 38 47  1  0  0  0
 39 64  1  0  0  0
 39 67  2  0  0  0
 40 52  1  0  0  0
 40 53  2  0  0  0
 40 58  1  0  0  0
 41112  1  0  0  0
 41113  1  0  0  0
 41114  1  0  0  0
 41 48  1  0  0  0
 42 43  1  0  0  0
 42 66  1  0  0  0
 42115  1  0  0  0
 42116  1  0  0  0
 43 44  1  0  0  0
 44117  1  0  0  0
 45 46  2  0  0  0
 45118  1  0  0  0
 46119  1  0  0  0
 47120  1  0  0  0
 47121  1  0  0  0
 48 56  1  0  0  0
 48 65  1  0  0  0
 48122  1  0  0  0
 49 50  1  0  0  0
 49 53  1  0  0  0
 49 64  1  0  0  0
 49123  1  0  0  0
 50 51  1  0  0  0
 50124  1  0  0  0
 50125  1  0  0  0
 51 52  1  0  0  0
 51126  1  0  0  0
 51127  1  0  0  0
 52128  1  0  0  0
 52129  1  0  0  0
 53 54  1  0  0  0
 54 55  2  0  0  0
 54130  1  0  0  0
 55 57  1  0  0  0
 55131  1  0  0  0
 56 69  2  0  0  0
 57 58  2  0  0  0
 57132  1  0  0  0
 58133  1  0  0  0
 59 60  1  0  0  0
 59 61  1  0  0  0
 59 62  1  0  0  0
 60134  1  0  0  0
 60135  1  0  0  0
 60136  1  0  0  0
 61137  1  0  0  0
 61138  1  0  0  0
 61139  1  0  0  0
 62140  1  0  0  0
 62141  1  0  0  0
 62142  1  0  0  0
 63 65  1  0  0  0
 63143  1  0  0  0
 63144  1  0  0  0
 63145  1  0  0  0
 64146  1  0  0  0
 65147  1  0  0  0
 68 80  1  0  0  0
 71 72  2  0  0  0
 71 76  1  0  0  0
 71148  1  0  0  0
 72 73  1  0  0  0
 72 85  1  0  0  0
 73 74  2  0  0  0
 73 82  1  0  0  0
 74 75  1  0  0  0
 74 83  1  0  0  0
 75 76  2  0  0  0
 75 86  1  0  0  0
 76 88  1  0  0  0
 77 78  1  0  0  0
 77 80  1  0  0  0
 77149  1  0  0  0
 77150  1  0  0  0
 78 81  1  0  0  0
 78151  1  0  0  0
 78152  1  0  0  0
 79 80  1  0  0  0
 79 87  1  0  0  0
 79153  1  0  0  0
 79154  1  0  0  0
 80155  1  0  0  0
 81 84  1  0  0  0
 81 87  1  0  0  0
 81156  1  0  0  0
 82157  1  0  0  0
 82158  1  0  0  0
 82159  1  0  0  0
 83160  1  0  0  0
 83161  1  0  0  0
 83162  1  0  0  0
 84163  1  0  0  0
 84164  1  0  0  0
 84165  1  0  0  0
 85166  1  0  0  0
 85167  1  0  0  0
 85 87  1  0  0  0
 86168  1  0  0  0
 87169  1  0  0  0
M  CHG  1  87   1
M  ISO  4   1 100  68 101  80 101  86 100
M  END
> <chiral flag>
0

> <version>
0

> <s_m_source_file>
/data/baiqing/PycharmProjects/Reinvent-master-3.2/result/LINK_invent/BTK/process_docking_weight1_custom_product_contain_oxygen_bond_distance_aromatic_linkinvent_7_9_3/rearranged_h_0037.sdf

> <i_m_source_file_index>
32

> <r_mmod_Potential_Energy-OPLS-2005>
56.2958221435547

> <r_mmod_Stretch_Energy-OPLS-2005>
104.444709777832

> <r_mmod_Bend_Energy-OPLS-2005>
167.205307006836

> <r_mmod_Torsional_Energy-OPLS-2005>
301.432891845703

> <r_mmod_Improper_Torsional_Energy-OPLS-2005>
6.05160236358643

> <r_mmod_Van_der_Waal_Energy-OPLS-2005>
159.22917175293

> <r_mmod_Electrostatic_Energy-OPLS-2005>
-300.534088134766

> <r_mmod_Solvation_Energy-OPLS-2005>
-420.803863525391

> <b_mmod_Minimization_Converged-OPLS-2005>
0

> <r_mmod_RMS_Derivative-OPLS-2005>
10.3289651870728

$$$$
32
                    3D
 Structure written by MMmdl.
162170  0  0  1  0            999 V2000
  -30.6956  -14.3997   20.6445 C   0  0  0  0  0  0
  -30.4347  -12.2858   19.4012 C   0  0  0  0  0  0
  -29.4941  -12.5311   18.2019 C   0  0  0  0  0  0
  -28.0144  -12.3866   18.6127 C   0  0  0  0  0  0
  -27.6746  -13.1930   19.8931 C   0  0  2  0  0  0
  -28.7106  -12.8955   21.0020 C   0  0  0  0  0  0
  -25.2645  -13.8154   20.5686 C   0  0  0  0  0  0
  -24.1875  -13.0447   20.9177 C   0  0  0  0  0  0
  -24.6413  -11.6902   20.8745 C   0  0  0  0  0  0
  -23.9071  -10.4301   21.0435 C   0  0  0  0  0  0
  -24.3627   -9.4211   21.9212 C   0  0  0  0  0  0
  -23.6302   -8.2242   22.0759 C   0  0  0  0  0  0
  -22.4286   -8.0292   21.3543 C   0  0  0  0  0  0
  -21.9926   -9.0277   20.4651 C   0  0  0  0  0  0
  -22.7253  -10.2156   20.3074 C   0  0  0  0  0  0
  -21.6845   -6.0756   22.5291 C   0  0  0  0  0  0
  -21.4010   -6.5653   23.8228 C   0  0  0  0  0  0
  -21.3655   -5.6801   24.9186 C   0  0  0  0  0  0
  -21.6037   -4.3064   24.7228 C   0  0  0  0  0  0
  -21.8818   -3.8162   23.4349 C   0  0  0  0  0  0
  -21.9191   -4.6984   22.3409 C   0  0  0  0  0  0
  -22.7900  -13.5244   21.1851 C   0  0  0  0  0  0
  -22.1659   -4.2171   21.0988 F   0  0  0  0  0  0
  -21.5628   -3.4543   25.7740 F   0  0  0  0  0  0
  -30.0580  -13.2107   20.4801 N   0  0  0  0  0  0
  -26.3087  -12.9293   20.3437 N   0  0  0  0  0  0
  -25.9332  -11.6464   20.5784 N   0  0  0  0  0  0
  -22.0510  -12.8258   22.0399 N   0  0  0  0  0  0
  -25.4394  -15.1873   20.4070 N   0  0  0  0  0  0
  -31.7248  -14.7204   20.0420 O   0  0  0  0  0  0
  -21.6630   -6.8905   21.4251 O   0  0  0  0  0  0
  -22.3593  -14.5556   20.6696 O   0  0  0  0  0  0
  -24.6129  -31.8679   23.2106 C   0  0  0  0  0  0
  -25.9025  -32.4822   23.8396 C   0  0  1  0  0  0
  -27.2470  -27.4525   20.0816 C   0  0  0  0  0  0
  -25.5886  -33.8622   24.2328 N   0  0  0  0  0  0
  -23.4000  -30.4911   21.5503 C   0  0  2  0  0  0
  -24.8469  -28.9578   20.1148 C   0  0  0  0  0  0
  -22.7403  -29.4648   22.4989 C   0  0  0  0  0  0
  -18.0270  -28.1373   22.8487 C   0  0  0  0  0  0
  -24.1484  -36.7318   23.2641 C   0  0  0  0  0  0
  -25.9270  -30.8360   21.3635 C   0  0  0  0  0  0
  -26.0038  -29.4712   20.7120 C   0  0  0  0  0  0
  -27.2001  -28.7216   20.6991 C   0  0  0  0  0  0
  -26.0700  -26.9510   19.4752 C   0  0  0  0  0  0
  -24.8738  -27.6944   19.4984 C   0  0  0  0  0  0
  -23.6071  -29.8226   20.1648 C   0  0  0  0  0  0
  -25.4107  -36.3113   24.0335 C   0  0  1  0  0  0
  -20.5859  -28.3653   23.1322 C   0  0  2  0  0  0
  -20.6762  -26.9390   22.5420 C   0  0  0  0  0  0
  -19.5744  -26.6379   21.5213 C   0  0  0  0  0  0
  -18.1921  -26.7916   22.1619 C   0  0  0  0  0  0
  -19.1519  -28.8829   23.2901 C   0  0  0  0  0  0
  -18.9452  -30.1435   23.8909 C   0  0  0  0  0  0
  -17.6457  -30.6582   24.0567 C   0  0  0  0  0  0
  -25.9028  -34.9474   23.5127 C   0  0  0  0  0  0
  -16.5347  -29.9086   23.6328 C   0  0  0  0  0  0
  -16.7260  -28.6507   23.0340 C   0  0  0  0  0  0
  -26.4465  -31.6592   25.0716 C   0  0  0  0  0  0
  -25.3741  -31.3700   26.1472 C   0  0  0  0  0  0
  -27.0296  -30.3043   24.6068 C   0  0  0  0  0  0
  -27.6039  -32.4319   25.7474 C   0  0  0  0  0  0
  -27.5581  -37.1811   24.8470 C   0  0  0  0  0  0
  -21.4131  -29.3023   22.3730 N   0  0  0  0  0  0
  -26.4301  -37.3792   23.9401 N   0  0  0  0  0  0
  -24.6645  -31.0790   22.0999 N   0  0  0  0  0  0
  -23.4188  -28.8184   23.3020 O   0  0  0  0  0  0
  -28.4500  -26.7758   20.1100 O   0  0  0  0  0  0
  -26.5594  -34.8914   22.4692 O   0  0  0  0  0  0
  -23.5327  -32.1420   23.7511 O   0  0  0  0  0  0
  -30.5699  -18.8837   20.5804 C   0  0  0  0  0  0
  -31.8502  -19.1116   23.0491 C   0  0  0  0  0  0
  -31.2149  -20.0961   20.9066 C   0  0  0  0  0  0
  -30.5224  -17.7938   21.4767 C   0  0  0  0  0  0
  -31.8840  -20.2057   22.1538 C   0  0  0  0  0  0
  -31.1605  -17.9218   22.7370 C   0  0  0  0  0  0
  -31.1035  -21.1898   19.9284 C   0  0  0  0  0  0
  -32.6463  -21.4571   22.5634 C   0  0  0  0  0  0
  -29.6552  -16.6058   21.0575 C   0  0  0  0  0  0
  -29.7886  -24.7640   20.1375 C   0  0  0  0  0  0
  -30.1767  -23.4751   19.3844 C   0  0  0  0  0  0
  -28.5587  -25.4725   19.5362 C   0  0  0  0  0  0
  -31.4477  -20.9735   18.6610 N   0  0  0  0  0  0
  -30.0374  -15.2483   21.4397 N   0  0  0  0  0  0
  -30.5898  -22.3772   20.2837 N   0  3  0  0  0  0
  -31.0843  -16.6887   23.9482 Cl  0  0  0  0  0  0
  -31.4758  -12.4099   19.0969 H   0  0  0  0  0  0
  -30.3481  -11.2546   19.7473 H   0  0  0  0  0  0
  -29.7258  -11.8351   17.3953 H   0  0  0  0  0  0
  -29.6651  -13.5314   17.7999 H   0  0  0  0  0  0
  -27.8133  -11.3276   18.7772 H   0  0  0  0  0  0
  -27.3634  -12.6950   17.7935 H   0  0  0  0  0  0
  -27.7440  -14.2502   19.6379 H   0  0  0  0  0  0
  -28.6701  -11.8387   21.2711 H   0  0  0  0  0  0
  -28.4546  -13.4226   21.9222 H   0  0  0  0  0  0
  -25.2776   -9.5674   22.4793 H   0  0  0  0  0  0
  -24.0009   -7.4621   22.7476 H   0  0  0  0  0  0
  -21.0858   -8.8815   19.8956 H   0  0  0  0  0  0
  -22.3738  -10.9710   19.6186 H   0  0  0  0  0  0
  -21.1997   -7.6161   23.9744 H   0  0  0  0  0  0
  -21.1472   -6.0527   25.9094 H   0  0  0  0  0  0
  -22.0596   -2.7625   23.2846 H   0  0  0  0  0  0
  -22.4067  -11.9884   22.4773 H   0  0  0  0  0  0
  -21.1140  -13.1334   22.2589 H   0  0  0  0  0  0
  -24.6744  -15.8459   20.5067 H   0  0  0  0  0  0
  -26.2930  -15.6197   20.0755 H   0  0  0  0  0  0
  -26.7092  -32.5549   23.1157 H   0  0  0  0  0  0
  -25.0062  -33.9791   25.0491 H   0  0  0  0  0  0
  -22.6887  -31.3074   21.4126 H   0  0  0  0  0  0
  -23.3739  -35.9662   23.3334 H   0  0  0  0  0  0
  -24.3593  -36.8904   22.2052 H   0  0  0  0  0  0
  -23.7229  -37.6527   23.6640 H   0  0  0  0  0  0
  -26.0391  -31.6029   20.5956 H   0  0  0  0  0  0
  -26.8151  -30.8885   21.9813 H   0  0  0  0  0  0
  -28.0938  -29.1143   21.1638 H   0  0  0  0  0  0
  -26.0491  -25.9955   18.9739 H   0  0  0  0  0  0
  -23.9853  -27.2931   19.0308 H   0  0  0  0  0  0
  -23.7153  -30.5987   19.4062 H   0  0  0  0  0  0
  -22.7308  -29.2433   19.8678 H   0  0  0  0  0  0
  -25.1278  -36.1997   25.0828 H   0  0  0  0  0  0
  -20.9960  -28.3224   24.1434 H   0  0  0  0  0  0
  -20.5667  -26.2259   23.3604 H   0  0  0  0  0  0
  -21.6634  -26.7435   22.1207 H   0  0  0  0  0  0
  -19.6915  -25.6296   21.1227 H   0  0  0  0  0  0
  -19.6690  -27.3205   20.6758 H   0  0  0  0  0  0
  -17.4190  -26.6662   21.4019 H   0  0  0  0  0  0
  -18.0321  -26.0046   22.9004 H   0  0  0  0  0  0
  -19.7931  -30.7245   24.2280 H   0  0  0  0  0  0
  -17.5019  -31.6264   24.5167 H   0  0  0  0  0  0
  -15.5350  -30.3003   23.7646 H   0  0  0  0  0  0
  -15.8652  -28.0849   22.7034 H   0  0  0  0  0  0
  -24.5901  -30.7056   25.7822 H   0  0  0  0  0  0
  -24.8949  -32.2856   26.4944 H   0  0  0  0  0  0
  -25.8098  -30.8855   27.0216 H   0  0  0  0  0  0
  -26.2829  -29.6809   24.1134 H   0  0  0  0  0  0
  -27.4091  -29.7273   25.4511 H   0  0  0  0  0  0
  -27.8651  -30.4380   23.9196 H   0  0  0  0  0  0
  -27.2646  -33.3602   26.2093 H   0  0  0  0  0  0
  -28.3822  -32.6917   25.0281 H   0  0  0  0  0  0
  -28.0734  -31.8420   26.5357 H   0  0  0  0  0  0
  -28.2610  -38.0098   24.7508 H   0  0  0  0  0  0
  -28.1058  -36.2626   24.6313 H   0  0  0  0  0  0
  -27.2306  -37.1489   25.8876 H   0  0  0  0  0  0
  -20.9283  -29.8769   21.6981 H   0  0  0  0  0  0
  -26.0199  -38.2877   24.1395 H   0  0  0  0  0  0
  -30.0483  -18.8105   19.6357 H   0  0  0  0  0  0
  -32.3367  -19.1851   24.0106 H   0  0  0  0  0  0
  -31.9623  -22.2772   22.7826 H   0  0  0  0  0  0
  -33.3281  -21.7773   21.7742 H   0  0  0  0  0  0
  -33.2442  -21.2779   23.4580 H   0  0  0  0  0  0
  -29.5084  -16.6309   19.9751 H   0  0  0  0  0  0
  -28.6648  -16.7788   21.4800 H   0  0  0  0  0  0
  -30.6379  -25.4462   20.1026 H   0  0  0  0  0  0
  -29.6026  -24.5669   21.1933 H   0  0  0  0  0  0
  -30.9753  -23.6986   18.6745 H   0  0  0  0  0  0
  -29.3302  -23.1213   18.7927 H   0  0  0  0  0  0
  -27.6864  -24.8543   19.7502 H   0  0  0  0  0  0
  -28.6519  -25.5666   18.4532 H   0  0  0  0  0  0
  -31.8577  -20.0854   18.4121 H   0  0  0  0  0  0
  -31.3901  -21.6854   17.9526 H   0  0  0  0  0  0
  -29.3545  -14.7871   22.0214 H   0  0  0  0  0  0
  -30.2817  -22.4360   21.2463 H   0  0  0  0  0  0
  1 25  1  0  0  0
  1 30  2  0  0  0
  1 84  1  0  0  0
  2  3  1  0  0  0
  2 25  1  0  0  0
  2 87  1  0  0  0
  2 88  1  0  0  0
  3  4  1  0  0  0
  3 89  1  0  0  0
  3 90  1  0  0  0
  4  5  1  0  0  0
  4 91  1  0  0  0
  4 92  1  0  0  0
  5  6  1  0  0  0
  5 26  1  0  0  0
  5 93  1  0  0  0
  6 25  1  0  0  0
  6 94  1  0  0  0
  6 95  1  0  0  0
  7  8  2  0  0  0
  7 26  1  0  0  0
  7 29  1  0  0  0
  8  9  1  0  0  0
  8 22  1  0  0  0
  9 10  1  0  0  0
  9 27  2  0  0  0
 10 11  2  0  0  0
 10 15  1  0  0  0
 11 12  1  0  0  0
 11 96  1  0  0  0
 12 13  2  0  0  0
 12 97  1  0  0  0
 13 14  1  0  0  0
 13 31  1  0  0  0
 14 15  2  0  0  0
 14 98  1  0  0  0
 15 99  1  0  0  0
 16 17  2  0  0  0
 16 21  1  0  0  0
 16 31  1  0  0  0
 17 18  1  0  0  0
 17100  1  0  0  0
 18 19  2  0  0  0
 18101  1  0  0  0
 19 20  1  0  0  0
 19 24  1  0  0  0
 20 21  2  0  0  0
 20102  1  0  0  0
 21 23  1  0  0  0
 22 28  1  0  0  0
 22 32  2  0  0  0
 26 27  1  0  0  0
 28103  1  0  0  0
 28104  1  0  0  0
 29105  1  0  0  0
 29106  1  0  0  0
 33 34  1  0  0  0
 33 66  1  0  0  0
 33 70  2  0  0  0
 34 36  1  0  0  0
 34 59  1  0  0  0
 34107  1  0  0  0
 35 44  2  0  0  0
 35 45  1  0  0  0
 35 68  1  0  0  0
 36 56  1  0  0  0
 36108  1  0  0  0
 37 39  1  0  0  0
 37 47  1  0  0  0
 37 66  1  0  0  0
 37109  1  0  0  0
 38 43  2  0  0  0
 38 46  1  0  0  0
 38 47  1  0  0  0
 39 64  1  0  0  0
 39 67  2  0  0  0
 40 52  1  0  0  0
 40 53  2  0  0  0
 40 58  1  0  0  0
 41110  1  0  0  0
 41111  1  0  0  0
 41112  1  0  0  0
 41 48  1  0  0  0
 42 43  1  0  0  0
 42 66  1  0  0  0
 42113  1  0  0  0
 42114  1  0  0  0
 43 44  1  0  0  0
 44115  1  0  0  0
 45 46  2  0  0  0
 45116  1  0  0  0
 46117  1  0  0  0
 47118  1  0  0  0
 47119  1  0  0  0
 48 56  1  0  0  0
 48 65  1  0  0  0
 48120  1  0  0  0
 49 50  1  0  0  0
 49 53  1  0  0  0
 49 64  1  0  0  0
 49121  1  0  0  0
 50 51  1  0  0  0
 50122  1  0  0  0
 50123  1  0  0  0
 51 52  1  0  0  0
 51124  1  0  0  0
 51125  1  0  0  0
 52126  1  0  0  0
 52127  1  0  0  0
 53 54  1  0  0  0
 54 55  2  0  0  0
 54128  1  0  0  0
 55 57  1  0  0  0
 55129  1  0  0  0
 56 69  2  0  0  0
 57 58  2  0  0  0
 57130  1  0  0  0
 58131  1  0  0  0
 59 60  1  0  0  0
 59 61  1  0  0  0
 59 62  1  0  0  0
 60132  1  0  0  0
 60133  1  0  0  0
 60134  1  0  0  0
 61135  1  0  0  0
 61136  1  0  0  0
 61137  1  0  0  0
 62138  1  0  0  0
 62139  1  0  0  0
 62140  1  0  0  0
 63 65  1  0  0  0
 63141  1  0  0  0
 63142  1  0  0  0
 63143  1  0  0  0
 64144  1  0  0  0
 65145  1  0  0  0
 68 82  1  0  0  0
 71 73  2  0  0  0
 71 74  1  0  0  0
 71146  1  0  0  0
 72 75  2  0  0  0
 72 76  1  0  0  0
 72147  1  0  0  0
 73 75  1  0  0  0
 73 77  1  0  0  0
 74 76  2  0  0  0
 74 79  1  0  0  0
 75 78  1  0  0  0
 76 86  1  0  0  0
 77 83  1  0  0  0
 77 85  2  0  0  0
 78148  1  0  0  0
 78149  1  0  0  0
 78150  1  0  0  0
 79 84  1  0  0  0
 79151  1  0  0  0
 79152  1  0  0  0
 80 81  1  0  0  0
 80 82  1  0  0  0
 80153  1  0  0  0
 80154  1  0  0  0
 81 85  1  0  0  0
 81155  1  0  0  0
 81156  1  0  0  0
 82157  1  0  0  0
 82158  1  0  0  0
 83159  1  0  0  0
 83160  1  0  0  0
 84161  1  0  0  0
 85162  1  0  0  0
M  CHG  1  85   1
M  ISO  4   1 100  68 101  82 101  84 100
M  END
> <chiral flag>
0

> <version>
0

> <s_m_source_file>
/data/baiqing/PycharmProjects/Reinvent-master-3.2/result/LINK_invent/BTK/process_docking_weight1_custom_product_contain_oxygen_bond_distance_aromatic_linkinvent_7_9_3/rearranged_h_0037.sdf

> <i_m_source_file_index>
33

> <r_mmod_Potential_Energy-OPLS-2005>
-208.514312744141

> <r_mmod_Stretch_Energy-OPLS-2005>
35.2888298034668

> <r_mmod_Bend_Energy-OPLS-2005>
111.540802001953

> <r_mmod_Torsional_Energy-OPLS-2005>
227.218643188477

> <r_mmod_Improper_Torsional_Energy-OPLS-2005>
7.32201099395752

> <r_mmod_Van_der_Waal_Energy-OPLS-2005>
160.383834838867

> <r_mmod_Electrostatic_Energy-OPLS-2005>
-341.189697265625

> <r_mmod_Solvation_Energy-OPLS-2005>
-418.944610595703

> <b_mmod_Minimization_Converged-OPLS-2005>
0

> <r_mmod_RMS_Derivative-OPLS-2005>
1.70252656936646

$$$$
33
                    3D
 Structure written by MMmdl.
173182  0  0  1  0            999 V2000
  -30.7305  -14.4624   20.6189 C   0  0  0  0  0  0
  -30.4167  -12.3216   19.4181 C   0  0  0  0  0  0
  -29.4888  -12.5157   18.2031 C   0  0  0  0  0  0
  -28.0128  -12.3675   18.6191 C   0  0  0  0  0  0
  -27.6589  -13.2109   19.8729 C   0  0  2  0  0  0
  -28.7005  -13.0011   20.9943 C   0  0  0  0  0  0
  -25.2575  -13.8162   20.5679 C   0  0  0  0  0  0
  -24.1831  -13.0435   20.9179 C   0  0  0  0  0  0
  -24.6388  -11.6903   20.8733 C   0  0  0  0  0  0
  -23.9053  -10.4291   21.0403 C   0  0  0  0  0  0
  -24.3607   -9.4208   21.9184 C   0  0  0  0  0  0
  -23.6286   -8.2243   22.0757 C   0  0  0  0  0  0
  -22.4274   -8.0274   21.3546 C   0  0  0  0  0  0
  -21.9903   -9.0243   20.4647 C   0  0  0  0  0  0
  -22.7225  -10.2125   20.3054 C   0  0  0  0  0  0
  -21.6855   -6.0731   22.5274 C   0  0  0  0  0  0
  -21.4015   -6.5634   23.8207 C   0  0  0  0  0  0
  -21.3661   -5.6788   24.9169 C   0  0  0  0  0  0
  -21.6046   -4.3052   24.7223 C   0  0  0  0  0  0
  -21.8817   -3.8144   23.4347 C   0  0  0  0  0  0
  -21.9190   -4.6958   22.3401 C   0  0  0  0  0  0
  -22.7855  -13.5237   21.1839 C   0  0  0  0  0  0
  -22.1660   -4.2145   21.0983 F   0  0  0  0  0  0
  -21.5629   -3.4538   25.7739 F   0  0  0  0  0  0
  -30.0309  -13.3072   20.4414 N   0  0  0  0  0  0
  -26.3010  -12.9342   20.3366 N   0  0  0  0  0  0
  -25.9318  -11.6498   20.5768 N   0  0  0  0  0  0
  -22.0498  -12.8228   22.0396 N   0  0  0  0  0  0
  -25.4283  -15.1878   20.4061 N   0  0  0  0  0  0
  -31.8272  -14.6594   20.0886 O   0  0  0  0  0  0
  -21.6638   -6.8872   21.4241 O   0  0  0  0  0  0
  -22.3539  -14.5548   20.6696 O   0  0  0  0  0  0
  -24.6146  -31.8673   23.2090 C   0  0  0  0  0  0
  -25.9041  -32.4824   23.8400 C   0  0  1  0  0  0
  -27.2295  -27.4087   20.0804 C   0  0  0  0  0  0
  -25.5923  -33.8628   24.2329 N   0  0  0  0  0  0
  -23.4035  -30.4918   21.5502 C   0  0  2  0  0  0
  -24.8464  -28.9567   20.1146 C   0  0  0  0  0  0
  -22.7412  -29.4648   22.4970 C   0  0  0  0  0  0
  -18.0278  -28.1357   22.8496 C   0  0  0  0  0  0
  -24.1485  -36.7298   23.2638 C   0  0  0  0  0  0
  -25.9356  -30.8200   21.3699 C   0  0  0  0  0  0
  -26.0091  -29.4537   20.7145 C   0  0  0  0  0  0
  -27.1989  -28.6845   20.6986 C   0  0  0  0  0  0
  -26.0382  -26.9382   19.4744 C   0  0  0  0  0  0
  -24.8563  -27.6989   19.4949 C   0  0  0  0  0  0
  -23.6121  -29.8283   20.1639 C   0  0  0  0  0  0
  -25.4108  -36.3103   24.0336 C   0  0  1  0  0  0
  -20.5862  -28.3655   23.1292 C   0  0  2  0  0  0
  -20.6771  -26.9390   22.5393 C   0  0  0  0  0  0
  -19.5748  -26.6360   21.5198 C   0  0  0  0  0  0
  -18.1926  -26.7904   22.1615 C   0  0  0  0  0  0
  -19.1527  -28.8825   23.2899 C   0  0  0  0  0  0
  -18.9465  -30.1435   23.8910 C   0  0  0  0  0  0
  -17.6471  -30.6578   24.0558 C   0  0  0  0  0  0
  -25.9041  -34.9472   23.5114 C   0  0  0  0  0  0
  -16.5359  -29.9073   23.6336 C   0  0  0  0  0  0
  -16.7270  -28.6481   23.0370 C   0  0  0  0  0  0
  -26.4461  -31.6622   25.0744 C   0  0  0  0  0  0
  -25.3756  -31.3729   26.1525 C   0  0  0  0  0  0
  -27.0308  -30.3072   24.6128 C   0  0  0  0  0  0
  -27.6023  -32.4375   25.7508 C   0  0  0  0  0  0
  -27.5575  -37.1799   24.8474 C   0  0  0  0  0  0
  -21.4141  -29.3040   22.3718 N   0  0  0  0  0  0
  -26.4290  -37.3790   23.9416 N   0  0  0  0  0  0
  -24.6691  -31.0754   22.1006 N   0  0  0  0  0  0
  -23.4184  -28.8184   23.3012 O   0  0  0  0  0  0
  -28.4096  -26.6744   20.0968 O   0  0  0  0  0  0
  -26.5591  -34.8914   22.4668 O   0  0  0  0  0  0
  -23.5330  -32.1464   23.7469 O   0  0  0  0  0  0
  -31.2638  -18.9287   21.1103 C   0  0  0  0  0  0
  -28.6792  -19.8101   21.6792 C   0  0  0  0  0  0
  -30.9466  -20.2994   20.9546 C   0  0  0  0  0  0
  -29.0076  -18.4421   21.8620 C   0  0  0  0  0  0
  -30.3255  -17.9893   21.5942 C   0  0  0  0  0  0
  -29.6389  -20.7640   21.2585 C   0  0  0  0  0  0
  -29.6042  -24.5130   20.1059 C   0  0  0  0  0  0
  -30.6756  -25.0429   20.7237 C   0  0  0  0  0  0
  -28.2081  -24.3242   17.1520 C   0  0  0  0  0  0
  -28.9568  -23.0256   17.4797 C   0  0  0  0  0  0
  -28.6424  -25.5306   17.9936 C   0  0  0  0  0  0
  -28.6148  -22.4601   18.8731 C   0  0  0  0  0  0
  -28.4524  -25.3477   19.5168 C   0  0  2  0  0  0
  -32.0511  -21.2420   20.5003 C   0  0  0  0  0  0
  -27.9479  -17.5011   22.4115 C   0  0  0  0  0  0
  -30.8307  -16.5770   21.9603 C   0  0  0  0  0  0
  -29.2582  -22.2665   21.2527 C   0  0  0  0  0  0
  -30.1492  -15.4024   21.3883 N   0  0  0  0  0  0
  -29.4708  -22.9980   19.9665 N   0  3  2  0  0  0
  -31.4612  -12.4151   19.1163 H   0  0  0  0  0  0
  -30.3150  -11.3112   19.8179 H   0  0  0  0  0  0
  -29.7309  -11.7933   17.4225 H   0  0  0  0  0  0
  -29.6508  -13.5037   17.7685 H   0  0  0  0  0  0
  -27.8313  -11.3116   18.8225 H   0  0  0  0  0  0
  -27.3578  -12.6343   17.7886 H   0  0  0  0  0  0
  -27.7007  -14.2587   19.5733 H   0  0  0  0  0  0
  -28.6807  -11.9662   21.3409 H   0  0  0  0  0  0
  -28.4518  -13.6025   21.8695 H   0  0  0  0  0  0
  -25.2750   -9.5688   22.4755 H   0  0  0  0  0  0
  -23.9992   -7.4640   22.7484 H   0  0  0  0  0  0
  -21.0830   -8.8756   19.8959 H   0  0  0  0  0  0
  -22.3677  -10.9660   19.6161 H   0  0  0  0  0  0
  -21.2009   -7.6141   23.9708 H   0  0  0  0  0  0
  -21.1486   -6.0522   25.9072 H   0  0  0  0  0  0
  -22.0597   -2.7608   23.2847 H   0  0  0  0  0  0
  -22.4108  -11.9878   22.4771 H   0  0  0  0  0  0
  -21.1119  -13.1260   22.2617 H   0  0  0  0  0  0
  -24.6598  -15.8421   20.5044 H   0  0  0  0  0  0
  -26.2739  -15.6197   20.0566 H   0  0  0  0  0  0
  -26.7097  -32.5515   23.1144 H   0  0  0  0  0  0
  -25.0173  -33.9821   25.0540 H   0  0  0  0  0  0
  -22.6940  -31.3090   21.4110 H   0  0  0  0  0  0
  -23.3755  -35.9623   23.3314 H   0  0  0  0  0  0
  -24.3567  -36.8906   22.2047 H   0  0  0  0  0  0
  -23.7230  -37.6500   23.6651 H   0  0  0  0  0  0
  -26.0575  -31.5852   20.6020 H   0  0  0  0  0  0
  -26.8189  -30.8676   21.9951 H   0  0  0  0  0  0
  -28.0959  -29.0660   21.1650 H   0  0  0  0  0  0
  -25.9851  -25.9886   18.9655 H   0  0  0  0  0  0
  -23.9636  -27.3127   19.0228 H   0  0  0  0  0  0
  -23.7247  -30.6049   19.4068 H   0  0  0  0  0  0
  -22.7356  -29.2512   19.8647 H   0  0  0  0  0  0
  -25.1273  -36.1954   25.0829 H   0  0  0  0  0  0
  -20.9980  -28.3203   24.1400 H   0  0  0  0  0  0
  -20.5645  -26.2270   23.3581 H   0  0  0  0  0  0
  -21.6640  -26.7398   22.1195 H   0  0  0  0  0  0
  -19.6909  -25.6266   21.1236 H   0  0  0  0  0  0
  -19.6684  -27.3169   20.6719 H   0  0  0  0  0  0
  -17.4191  -26.6664   21.4018 H   0  0  0  0  0  0
  -18.0337  -26.0019   22.8981 H   0  0  0  0  0  0
  -19.7950  -30.7248   24.2264 H   0  0  0  0  0  0
  -17.5036  -31.6263   24.5149 H   0  0  0  0  0  0
  -15.5373  -30.2995   23.7634 H   0  0  0  0  0  0
  -15.8665  -28.0803   22.7090 H   0  0  0  0  0  0
  -24.5915  -30.7076   25.7893 H   0  0  0  0  0  0
  -24.8967  -32.2887   26.4997 H   0  0  0  0  0  0
  -25.8137  -30.8902   27.0271 H   0  0  0  0  0  0
  -26.2848  -29.6841   24.1182 H   0  0  0  0  0  0
  -27.4101  -29.7293   25.4563 H   0  0  0  0  0  0
  -27.8664  -30.4410   23.9261 H   0  0  0  0  0  0
  -27.2609  -33.3670   26.2071 H   0  0  0  0  0  0
  -28.3812  -32.6957   25.0332 H   0  0  0  0  0  0
  -28.0712  -31.8539   26.5440 H   0  0  0  0  0  0
  -28.2583  -38.0100   24.7522 H   0  0  0  0  0  0
  -28.1070  -36.2631   24.6289 H   0  0  0  0  0  0
  -27.2302  -37.1440   25.8880 H   0  0  0  0  0  0
  -20.9291  -29.8817   21.7000 H   0  0  0  0  0  0
  -26.0173  -38.2859   24.1442 H   0  0  0  0  0  0
  -32.2747  -18.5992   20.9093 H   0  0  0  0  0  0
  -27.6811  -20.1454   21.9312 H   0  0  0  0  0  0
  -30.7768  -26.1146   20.8251 H   0  0  0  0  0  0
  -31.4704  -24.4385   21.1343 H   0  0  0  0  0  0
  -27.1334  -24.1691   17.2600 H   0  0  0  0  0  0
  -28.3652  -24.5630   16.0996 H   0  0  0  0  0  0
  -30.0330  -23.1504   17.3523 H   0  0  0  0  0  0
  -28.6617  -22.2838   16.7352 H   0  0  0  0  0  0
  -28.0653  -26.3863   17.6441 H   0  0  0  0  0  0
  -29.6813  -25.7884   17.7808 H   0  0  0  0  0  0
  -28.7577  -21.3803   18.8286 H   0  0  0  0  0  0
  -27.5576  -22.6012   19.1036 H   0  0  0  0  0  0
  -27.5312  -24.8180   19.7546 H   0  0  0  0  0  0
  -33.0296  -20.7644   20.5665 H   0  0  0  0  0  0
  -32.0998  -22.1349   21.1223 H   0  0  0  0  0  0
  -31.9055  -21.5347   19.4603 H   0  0  0  0  0  0
  -27.0518  -18.0411   22.7182 H   0  0  0  0  0  0
  -28.3175  -16.9647   23.2851 H   0  0  0  0  0  0
  -27.6524  -16.7724   21.6577 H   0  0  0  0  0  0
  -30.7602  -16.4858   23.0450 H   0  0  0  0  0  0
  -31.9025  -16.5242   21.7607 H   0  0  0  0  0  0
  -29.8374  -22.7416   22.0454 H   0  0  0  0  0  0
  -28.2153  -22.3905   21.5480 H   0  0  0  0  0  0
  -29.2363  -15.1812   21.7529 H   0  0  0  0  0  0
  -30.3885  -22.6760   19.6988 H   0  0  0  0  0  0
  1 25  1  0  0  0
  1 30  2  0  0  0
  1 88  1  0  0  0
  2  3  1  0  0  0
  2 25  1  0  0  0
  2 90  1  0  0  0
  2 91  1  0  0  0
  3  4  1  0  0  0
  3 92  1  0  0  0
  3 93  1  0  0  0
  4  5  1  0  0  0
  4 94  1  0  0  0
  4 95  1  0  0  0
  5  6  1  0  0  0
  5 26  1  0  0  0
  5 96  1  0  0  0
  6 25  1  0  0  0
  6 97  1  0  0  0
  6 98  1  0  0  0
  7  8  2  0  0  0
  7 26  1  0  0  0
  7 29  1  0  0  0
  8  9  1  0  0  0
  8 22  1  0  0  0
  9 10  1  0  0  0
  9 27  2  0  0  0
 10 11  2  0  0  0
 10 15  1  0  0  0
 11 12  1  0  0  0
 11 99  1  0  0  0
 12 13  2  0  0  0
 12100  1  0  0  0
 13 14  1  0  0  0
 13 31  1  0  0  0
 14 15  2  0  0  0
 14101  1  0  0  0
 15102  1  0  0  0
 16 17  2  0  0  0
 16 21  1  0  0  0
 16 31  1  0  0  0
 17 18  1  0  0  0
 17103  1  0  0  0
 18 19  2  0  0  0
 18104  1  0  0  0
 19 20  1  0  0  0
 19 24  1  0  0  0
 20 21  2  0  0  0
 20105  1  0  0  0
 21 23  1  0  0  0
 22 28  1  0  0  0
 22 32  2  0  0  0
 26 27  1  0  0  0
 28106  1  0  0  0
 28107  1  0  0  0
 29108  1  0  0  0
 29109  1  0  0  0
 33 34  1  0  0  0
 33 66  1  0  0  0
 33 70  2  0  0  0
 34 36  1  0  0  0
 34 59  1  0  0  0
 34110  1  0  0  0
 35 44  2  0  0  0
 35 45  1  0  0  0
 35 68  1  0  0  0
 36 56  1  0  0  0
 36111  1  0  0  0
 37 39  1  0  0  0
 37 47  1  0  0  0
 37 66  1  0  0  0
 37112  1  0  0  0
 38 43  2  0  0  0
 38 46  1  0  0  0
 38 47  1  0  0  0
 39 64  1  0  0  0
 39 67  2  0  0  0
 40 52  1  0  0  0
 40 53  2  0  0  0
 40 58  1  0  0  0
 41113  1  0  0  0
 41114  1  0  0  0
 41115  1  0  0  0
 41 48  1  0  0  0
 42 43  1  0  0  0
 42 66  1  0  0  0
 42116  1  0  0  0
 42117  1  0  0  0
 43 44  1  0  0  0
 44118  1  0  0  0
 45 46  2  0  0  0
 45119  1  0  0  0
 46120  1  0  0  0
 47121  1  0  0  0
 47122  1  0  0  0
 48 56  1  0  0  0
 48 65  1  0  0  0
 48123  1  0  0  0
 49 50  1  0  0  0
 49 53  1  0  0  0
 49 64  1  0  0  0
 49124  1  0  0  0
 50 51  1  0  0  0
 50125  1  0  0  0
 50126  1  0  0  0
 51 52  1  0  0  0
 51127  1  0  0  0
 51128  1  0  0  0
 52129  1  0  0  0
 52130  1  0  0  0
 53 54  1  0  0  0
 54 55  2  0  0  0
 54131  1  0  0  0
 55 57  1  0  0  0
 55132  1  0  0  0
 56 69  2  0  0  0
 57 58  2  0  0  0
 57133  1  0  0  0
 58134  1  0  0  0
 59 60  1  0  0  0
 59 61  1  0  0  0
 59 62  1  0  0  0
 60135  1  0  0  0
 60136  1  0  0  0
 60137  1  0  0  0
 61138  1  0  0  0
 61139  1  0  0  0
 61140  1  0  0  0
 62141  1  0  0  0
 62142  1  0  0  0
 62143  1  0  0  0
 63 65  1  0  0  0
 63144  1  0  0  0
 63145  1  0  0  0
 63146  1  0  0  0
 64147  1  0  0  0
 65148  1  0  0  0
 68 83  1  0  0  0
 71 73  2  0  0  0
 71 75  1  0  0  0
 71149  1  0  0  0
 72 74  1  0  0  0
 72 76  2  0  0  0
 72150  1  0  0  0
 73 76  1  0  0  0
 73 84  1  0  0  0
 74 75  2  0  0  0
 74 85  1  0  0  0
 75 86  1  0  0  0
 76 87  1  0  0  0
 77 78  2  0  0  0
 77 83  1  0  0  0
 77 89  1  0  0  0
 78151  1  0  0  0
 78152  1  0  0  0
 79 80  1  0  0  0
 79 81  1  0  0  0
 79153  1  0  0  0
 79154  1  0  0  0
 80 82  1  0  0  0
 80155  1  0  0  0
 80156  1  0  0  0
 81 83  1  0  0  0
 81157  1  0  0  0
 81158  1  0  0  0
 82 89  1  0  0  0
 82159  1  0  0  0
 82160  1  0  0  0
 83161  1  0  0  0
 84162  1  0  0  0
 84163  1  0  0  0
 84164  1  0  0  0
 85165  1  0  0  0
 85166  1  0  0  0
 85167  1  0  0  0
 86 88  1  0  0  0
 86168  1  0  0  0
 86169  1  0  0  0
 87170  1  0  0  0
 87171  1  0  0  0
 87 89  1  0  0  0
 88172  1  0  0  0
 89173  1  0  0  0
M  CHG  1  89   1
M  ISO  4   1 100  68 101  83 101  88 100
M  END
> <chiral flag>
0

> <version>
0

> <s_m_source_file>
/data/baiqing/PycharmProjects/Reinvent-master-3.2/result/LINK_invent/BTK/process_docking_weight1_custom_product_contain_oxygen_bond_distance_aromatic_linkinvent_7_9_3/rearranged_h_0037.sdf

> <i_m_source_file_index>
34

> <r_mmod_Potential_Energy-OPLS-2005>
-180.628204345703

> <r_mmod_Stretch_Energy-OPLS-2005>
48.6147041320801

> <r_mmod_Bend_Energy-OPLS-2005>
125.52978515625

> <r_mmod_Torsional_Energy-OPLS-2005>
206.418487548828

> <r_mmod_Improper_Torsional_Energy-OPLS-2005>
3.24898600578308

> <r_mmod_Van_der_Waal_Energy-OPLS-2005>
155.550384521484

> <r_mmod_Electrostatic_Energy-OPLS-2005>
-320.622589111328

> <r_mmod_Solvation_Energy-OPLS-2005>
-413.017028808594

> <b_mmod_Minimization_Converged-OPLS-2005>
0

> <r_mmod_RMS_Derivative-OPLS-2005>
1.88490498065948

$$$$
34
                    3D
 Structure written by MMmdl.
159167  0  0  1  0            999 V2000
  -30.6560  -14.5394   20.5065 C   0  0  0  0  0  0
  -30.4389  -12.3347   19.4381 C   0  0  0  0  0  0
  -29.5035  -12.4893   18.2215 C   0  0  0  0  0  0
  -28.0243  -12.3479   18.6361 C   0  0  0  0  0  0
  -27.6588  -13.2020   19.8796 C   0  0  2  0  0  0
  -28.7055  -13.0247   21.0012 C   0  0  0  0  0  0
  -25.2568  -13.8143   20.5671 C   0  0  0  0  0  0
  -24.1819  -13.0418   20.9174 C   0  0  0  0  0  0
  -24.6392  -11.6904   20.8807 C   0  0  0  0  0  0
  -23.9073  -10.4287   21.0429 C   0  0  0  0  0  0
  -24.3612   -9.4188   21.9183 C   0  0  0  0  0  0
  -23.6290   -8.2230   22.0752 C   0  0  0  0  0  0
  -22.4267   -8.0273   21.3532 C   0  0  0  0  0  0
  -21.9912   -9.0258   20.4642 C   0  0  0  0  0  0
  -22.7253  -10.2138   20.3056 C   0  0  0  0  0  0
  -21.6849   -6.0739   22.5285 C   0  0  0  0  0  0
  -21.4018   -6.5637   23.8220 C   0  0  0  0  0  0
  -21.3658   -5.6787   24.9177 C   0  0  0  0  0  0
  -21.6035   -4.3050   24.7218 C   0  0  0  0  0  0
  -21.8834   -3.8156   23.4341 C   0  0  0  0  0  0
  -21.9200   -4.6964   22.3398 C   0  0  0  0  0  0
  -22.7839  -13.5231   21.1838 C   0  0  0  0  0  0
  -22.1657   -4.2152   21.0972 F   0  0  0  0  0  0
  -21.5630   -3.4533   25.7732 F   0  0  0  0  0  0
  -30.0241  -13.3380   20.4276 N   0  0  0  0  0  0
  -26.3023  -12.9316   20.3448 N   0  0  0  0  0  0
  -25.9331  -11.6481   20.5879 N   0  0  0  0  0  0
  -22.0487  -12.8236   22.0432 N   0  0  0  0  0  0
  -25.4247  -15.1858   20.4011 N   0  0  0  0  0  0
  -31.8275  -14.7025   20.1567 O   0  0  0  0  0  0
  -21.6636   -6.8871   21.4245 O   0  0  0  0  0  0
  -22.3514  -14.5510   20.6667 O   0  0  0  0  0  0
  -24.6164  -31.8675   23.2101 C   0  0  0  0  0  0
  -25.9066  -32.4817   23.8396 C   0  0  1  0  0  0
  -27.2457  -27.4215   20.1160 C   0  0  0  0  0  0
  -25.5912  -33.8618   24.2329 N   0  0  0  0  0  0
  -23.4034  -30.4867   21.5527 C   0  0  2  0  0  0
  -24.8540  -28.9366   20.1314 C   0  0  0  0  0  0
  -22.7448  -29.4655   22.5074 C   0  0  0  0  0  0
  -18.0319  -28.1394   22.8524 C   0  0  0  0  0  0
  -24.1496  -36.7313   23.2640 C   0  0  0  0  0  0
  -25.9324  -30.8261   21.3648 C   0  0  0  0  0  0
  -26.0118  -29.4533   20.7276 C   0  0  0  0  0  0
  -27.2109  -28.7017   20.7170 C   0  0  0  0  0  0
  -26.0710  -26.9147   19.5250 C   0  0  0  0  0  0
  -24.8775  -27.6649   19.5299 C   0  0  0  0  0  0
  -23.6137  -29.8049   20.1732 C   0  0  0  0  0  0
  -25.4117  -36.3112   24.0347 C   0  0  1  0  0  0
  -20.5884  -28.3743   23.1434 C   0  0  2  0  0  0
  -20.6847  -26.9535   22.5443 C   0  0  0  0  0  0
  -19.5852  -26.6588   21.5206 C   0  0  0  0  0  0
  -18.2040  -26.7935   22.1683 C   0  0  0  0  0  0
  -19.1525  -28.8879   23.2969 C   0  0  0  0  0  0
  -18.9407  -30.1499   23.8958 C   0  0  0  0  0  0
  -17.6394  -30.6610   24.0547 C   0  0  0  0  0  0
  -25.9033  -34.9475   23.5127 C   0  0  0  0  0  0
  -16.5313  -29.9081   23.6269 C   0  0  0  0  0  0
  -16.7289  -28.6490   23.0331 C   0  0  0  0  0  0
  -26.4479  -31.6588   25.0720 C   0  0  0  0  0  0
  -25.3733  -31.3696   26.1452 C   0  0  0  0  0  0
  -27.0302  -30.3038   24.6087 C   0  0  0  0  0  0
  -27.6047  -32.4305   25.7483 C   0  0  0  0  0  0
  -27.5590  -37.1807   24.8471 C   0  0  0  0  0  0
  -21.4149  -29.3183   22.3947 N   0  0  0  0  0  0
  -26.4312  -37.3795   23.9395 N   0  0  0  0  0  0
  -24.6694  -31.0752   22.1007 N   0  0  0  0  0  0
  -23.4243  -28.8100   23.3006 O   0  0  0  0  0  0
  -28.4334  -26.7346   19.9897 O   0  0  0  0  0  0
  -26.5594  -34.8927   22.4691 O   0  0  0  0  0  0
  -23.5364  -32.1442   23.7457 O   0  0  0  0  0  0
  -28.1654  -20.5541   19.1528 C   0  0  0  0  0  0
  -28.2075  -19.3570   18.4144 C   0  0  0  0  0  0
  -29.4218  -19.4624   20.9282 C   0  0  0  0  0  0
  -28.7570  -20.6155   20.4294 C   0  0  0  0  0  0
  -28.8285  -18.1969   18.9287 C   0  0  0  0  0  0
  -29.4608  -18.2344   20.2083 C   0  0  0  0  0  0
  -28.8014  -16.9396   18.0756 C   0  0  0  0  0  0
  -30.1898  -17.0319   20.8748 C   0  0  0  0  0  0
  -28.5814  -21.8751   21.2980 C   0  0  0  0  0  0
  -28.2572  -24.2367   20.3570 C   0  0  0  0  0  0
  -28.7050  -25.6375   20.8783 C   0  0  0  0  0  0
  -29.8519  -15.5906   20.7977 N   0  0  0  0  0  0
  -29.1858  -23.1260   20.7600 N   0  3  0  0  0  0
  -31.4809  -12.4578   19.1351 H   0  0  0  0  0  0
  -30.3682  -11.3327   19.8600 H   0  0  0  0  0  0
  -29.7453  -11.7401   17.4675 H   0  0  0  0  0  0
  -29.6641  -13.4637   17.7538 H   0  0  0  0  0  0
  -27.8390  -11.2958   18.8465 H   0  0  0  0  0  0
  -27.3770  -12.6059   17.7965 H   0  0  0  0  0  0
  -27.6839  -14.2406   19.5590 H   0  0  0  0  0  0
  -28.7014  -12.0025   21.3823 H   0  0  0  0  0  0
  -28.4748  -13.6613   21.8574 H   0  0  0  0  0  0
  -25.2759   -9.5677   22.4744 H   0  0  0  0  0  0
  -24.0004   -7.4631   22.7470 H   0  0  0  0  0  0
  -21.0837   -8.8787   19.8941 H   0  0  0  0  0  0
  -22.3710  -10.9674   19.6158 H   0  0  0  0  0  0
  -21.2004   -7.6147   23.9725 H   0  0  0  0  0  0
  -21.1457   -6.0508   25.9074 H   0  0  0  0  0  0
  -22.0616   -2.7616   23.2841 H   0  0  0  0  0  0
  -22.4123  -11.9906   22.4822 H   0  0  0  0  0  0
  -21.1116  -13.1293   22.2702 H   0  0  0  0  0  0
  -24.6372  -15.8216   20.4423 H   0  0  0  0  0  0
  -26.2824  -15.6474   20.1273 H   0  0  0  0  0  0
  -26.7144  -32.5538   23.1165 H   0  0  0  0  0  0
  -25.0109  -33.9786   25.0506 H   0  0  0  0  0  0
  -22.6940  -31.3053   21.4067 H   0  0  0  0  0  0
  -23.3757  -35.9643   23.3320 H   0  0  0  0  0  0
  -24.3600  -36.8903   22.2047 H   0  0  0  0  0  0
  -23.7245  -37.6532   23.6637 H   0  0  0  0  0  0
  -26.0393  -31.5788   20.5822 H   0  0  0  0  0  0
  -26.8237  -30.8925   21.9778 H   0  0  0  0  0  0
  -28.1113  -29.1059   21.1569 H   0  0  0  0  0  0
  -26.0910  -25.9502   19.0384 H   0  0  0  0  0  0
  -23.9891  -27.2577   19.0627 H   0  0  0  0  0  0
  -23.7114  -30.5688   19.4018 H   0  0  0  0  0  0
  -22.7400  -29.2167   19.8889 H   0  0  0  0  0  0
  -25.1286  -36.1995   25.0847 H   0  0  0  0  0  0
  -20.9970  -28.3310   24.1556 H   0  0  0  0  0  0
  -20.5757  -26.2302   23.3530 H   0  0  0  0  0  0
  -21.6735  -26.7641   22.1247 H   0  0  0  0  0  0
  -19.7135  -25.6607   21.1030 H   0  0  0  0  0  0
  -19.6716  -27.3594   20.6880 H   0  0  0  0  0  0
  -17.4262  -26.6536   21.4176 H   0  0  0  0  0  0
  -18.0613  -26.0089   22.9126 H   0  0  0  0  0  0
  -19.7844  -30.7335   24.2371 H   0  0  0  0  0  0
  -17.4869  -31.6303   24.5095 H   0  0  0  0  0  0
  -15.5311  -30.2983   23.7539 H   0  0  0  0  0  0
  -15.8706  -28.0813   22.6997 H   0  0  0  0  0  0
  -24.5896  -30.7059   25.7791 H   0  0  0  0  0  0
  -24.8915  -32.2837   26.4923 H   0  0  0  0  0  0
  -25.8068  -30.8845   27.0198 H   0  0  0  0  0  0
  -26.2833  -29.6788   24.1175 H   0  0  0  0  0  0
  -27.4120  -29.7299   25.4535 H   0  0  0  0  0  0
  -27.8655  -30.4371   23.9211 H   0  0  0  0  0  0
  -27.2674  -33.3590   26.2108 H   0  0  0  0  0  0
  -28.3841  -32.6889   25.0301 H   0  0  0  0  0  0
  -28.0742  -31.8394   26.5351 H   0  0  0  0  0  0
  -28.2617  -38.0098   24.7508 H   0  0  0  0  0  0
  -28.1078  -36.2620   24.6315 H   0  0  0  0  0  0
  -27.2298  -37.1488   25.8878 H   0  0  0  0  0  0
  -20.9272  -29.9245   21.7505 H   0  0  0  0  0  0
  -26.0210  -38.2887   24.1372 H   0  0  0  0  0  0
  -27.6494  -21.4102   18.7400 H   0  0  0  0  0  0
  -27.7387  -19.3358   17.4401 H   0  0  0  0  0  0
  -29.8775  -19.4984   21.9071 H   0  0  0  0  0  0
  -28.2265  -17.0851   17.1597 H   0  0  0  0  0  0
  -28.3301  -16.1232   18.6139 H   0  0  0  0  0  0
  -29.8106  -16.6404   17.7944 H   0  0  0  0  0  0
  -30.6845  -16.9447   19.9069 H   0  0  0  0  0  0
  -29.1578  -16.9632   21.2214 H   0  0  0  0  0  0
  -29.0595  -21.6948   22.2624 H   0  0  0  0  0  0
  -27.5209  -22.0051   21.5209 H   0  0  0  0  0  0
  -28.2074  -24.2491   19.2687 H   0  0  0  0  0  0
  -27.2357  -24.0531   20.6938 H   0  0  0  0  0  0
  -29.7893  -25.6413   21.0045 H   0  0  0  0  0  0
  -28.2982  -25.8331   21.8710 H   0  0  0  0  0  0
  -28.8977  -15.3541   21.0214 H   0  0  0  0  0  0
  -29.8042  -22.8857   20.0022 H   0  0  0  0  0  0
  -29.7766  -23.4738   21.5003 H   0  0  0  0  0  0
  1 25  1  0  0  0
  1 30  2  0  0  0
  1 82  1  0  0  0
  2  3  1  0  0  0
  2 25  1  0  0  0
  2 84  1  0  0  0
  2 85  1  0  0  0
  3  4  1  0  0  0
  3 86  1  0  0  0
  3 87  1  0  0  0
  4  5  1  0  0  0
  4 88  1  0  0  0
  4 89  1  0  0  0
  5  6  1  0  0  0
  5 26  1  0  0  0
  5 90  1  0  0  0
  6 25  1  0  0  0
  6 91  1  0  0  0
  6 92  1  0  0  0
  7  8  2  0  0  0
  7 26  1  0  0  0
  7 29  1  0  0  0
  8  9  1  0  0  0
  8 22  1  0  0  0
  9 10  1  0  0  0
  9 27  2  0  0  0
 10 11  2  0  0  0
 10 15  1  0  0  0
 11 12  1  0  0  0
 11 93  1  0  0  0
 12 13  2  0  0  0
 12 94  1  0  0  0
 13 14  1  0  0  0
 13 31  1  0  0  0
 14 15  2  0  0  0
 14 95  1  0  0  0
 15 96  1  0  0  0
 16 17  2  0  0  0
 16 21  1  0  0  0
 16 31  1  0  0  0
 17 18  1  0  0  0
 17 97  1  0  0  0
 18 19  2  0  0  0
 18 98  1  0  0  0
 19 20  1  0  0  0
 19 24  1  0  0  0
 20 21  2  0  0  0
 20 99  1  0  0  0
 21 23  1  0  0  0
 22 28  1  0  0  0
 22 32  2  0  0  0
 26 27  1  0  0  0
 28100  1  0  0  0
 28101  1  0  0  0
 29102  1  0  0  0
 29103  1  0  0  0
 33 34  1  0  0  0
 33 66  1  0  0  0
 33 70  2  0  0  0
 34 36  1  0  0  0
 34 59  1  0  0  0
 34104  1  0  0  0
 35 44  2  0  0  0
 35 45  1  0  0  0
 35 68  1  0  0  0
 36 56  1  0  0  0
 36105  1  0  0  0
 37 39  1  0  0  0
 37 47  1  0  0  0
 37 66  1  0  0  0
 37106  1  0  0  0
 38 43  2  0  0  0
 38 46  1  0  0  0
 38 47  1  0  0  0
 39 64  1  0  0  0
 39 67  2  0  0  0
 40 52  1  0  0  0
 40 53  2  0  0  0
 40 58  1  0  0  0
 41107  1  0  0  0
 41108  1  0  0  0
 41109  1  0  0  0
 41 48  1  0  0  0
 42 43  1  0  0  0
 42 66  1  0  0  0
 42110  1  0  0  0
 42111  1  0  0  0
 43 44  1  0  0  0
 44112  1  0  0  0
 45 46  2  0  0  0
 45113  1  0  0  0
 46114  1  0  0  0
 47115  1  0  0  0
 47116  1  0  0  0
 48 56  1  0  0  0
 48 65  1  0  0  0
 48117  1  0  0  0
 49 50  1  0  0  0
 49 53  1  0  0  0
 49 64  1  0  0  0
 49118  1  0  0  0
 50 51  1  0  0  0
 50119  1  0  0  0
 50120  1  0  0  0
 51 52  1  0  0  0
 51121  1  0  0  0
 51122  1  0  0  0
 52123  1  0  0  0
 52124  1  0  0  0
 53 54  1  0  0  0
 54 55  2  0  0  0
 54125  1  0  0  0
 55 57  1  0  0  0
 55126  1  0  0  0
 56 69  2  0  0  0
 57 58  2  0  0  0
 57127  1  0  0  0
 58128  1  0  0  0
 59 60  1  0  0  0
 59 61  1  0  0  0
 59 62  1  0  0  0
 60129  1  0  0  0
 60130  1  0  0  0
 60131  1  0  0  0
 61132  1  0  0  0
 61133  1  0  0  0
 61134  1  0  0  0
 62135  1  0  0  0
 62136  1  0  0  0
 62137  1  0  0  0
 63 65  1  0  0  0
 63138  1  0  0  0
 63139  1  0  0  0
 63140  1  0  0  0
 64141  1  0  0  0
 65142  1  0  0  0
 68 81  1  0  0  0
 71 72  2  0  0  0
 71 74  1  0  0  0
 71143  1  0  0  0
 72 75  1  0  0  0
 72144  1  0  0  0
 73 74  2  0  0  0
 73 76  1  0  0  0
 73145  1  0  0  0
 74 79  1  0  0  0
 75 76  2  0  0  0
 75 77  1  0  0  0
 76 78  1  0  0  0
 77146  1  0  0  0
 77147  1  0  0  0
 77148  1  0  0  0
 78 82  1  0  0  0
 78149  1  0  0  0
 78150  1  0  0  0
 79 83  1  0  0  0
 79151  1  0  0  0
 79152  1  0  0  0
 80 81  1  0  0  0
 80 83  1  0  0  0
 80153  1  0  0  0
 80154  1  0  0  0
 81155  1  0  0  0
 81156  1  0  0  0
 82157  1  0  0  0
 83158  1  0  0  0
 83159  1  0  0  0
M  CHG  1  83   1
M  ISO  4   1 100  68 101  81 101  82 100
M  END
> <chiral flag>
0

> <version>
0

> <s_m_source_file>
/data/baiqing/PycharmProjects/Reinvent-master-3.2/result/LINK_invent/BTK/process_docking_weight1_custom_product_contain_oxygen_bond_distance_aromatic_linkinvent_7_9_3/rearranged_h_0037.sdf

> <i_m_source_file_index>
35

> <r_mmod_Potential_Energy-OPLS-2005>
-13.3452339172363

> <r_mmod_Stretch_Energy-OPLS-2005>
44.0704498291016

> <r_mmod_Bend_Energy-OPLS-2005>
315.723052978516

> <r_mmod_Torsional_Energy-OPLS-2005>
240.103225708008

> <r_mmod_Improper_Torsional_Energy-OPLS-2005>
5.17586708068848

> <r_mmod_Van_der_Waal_Energy-OPLS-2005>
146.175445556641

> <r_mmod_Electrostatic_Energy-OPLS-2005>
-327.688659667969

> <r_mmod_Solvation_Energy-OPLS-2005>
-457.024536132812

> <b_mmod_Minimization_Converged-OPLS-2005>
0

> <r_mmod_RMS_Derivative-OPLS-2005>
4.64644241333008

$$$$
35
                    3D
 Structure written by MMmdl.
167176  0  0  1  0            999 V2000
  -30.7294  -14.4636   20.6044 C   0  0  0  0  0  0
  -30.4165  -12.3167   19.4195 C   0  0  0  0  0  0
  -29.4893  -12.5075   18.2039 C   0  0  0  0  0  0
  -28.0130  -12.3648   18.6198 C   0  0  0  0  0  0
  -27.6592  -13.2110   19.8722 C   0  0  2  0  0  0
  -28.7006  -13.0046   20.9939 C   0  0  0  0  0  0
  -25.2582  -13.8171   20.5686 C   0  0  0  0  0  0
  -24.1833  -13.0445   20.9178 C   0  0  0  0  0  0
  -24.6392  -11.6912   20.8734 C   0  0  0  0  0  0
  -23.9062  -10.4295   21.0404 C   0  0  0  0  0  0
  -24.3615   -9.4210   21.9184 C   0  0  0  0  0  0
  -23.6291   -8.2244   22.0752 C   0  0  0  0  0  0
  -22.4275   -8.0282   21.3543 C   0  0  0  0  0  0
  -21.9912   -9.0255   20.4645 C   0  0  0  0  0  0
  -22.7236  -10.2135   20.3054 C   0  0  0  0  0  0
  -21.6853   -6.0738   22.5277 C   0  0  0  0  0  0
  -21.4013   -6.5642   23.8211 C   0  0  0  0  0  0
  -21.3659   -5.6792   24.9173 C   0  0  0  0  0  0
  -21.6044   -4.3055   24.7221 C   0  0  0  0  0  0
  -21.8820   -3.8149   23.4342 C   0  0  0  0  0  0
  -21.9191   -4.6966   22.3400 C   0  0  0  0  0  0
  -22.7859  -13.5241   21.1844 C   0  0  0  0  0  0
  -22.1662   -4.2154   21.0977 F   0  0  0  0  0  0
  -21.5630   -3.4539   25.7733 F   0  0  0  0  0  0
  -30.0297  -13.3073   20.4381 N   0  0  0  0  0  0
  -26.3013  -12.9346   20.3360 N   0  0  0  0  0  0
  -25.9319  -11.6503   20.5768 N   0  0  0  0  0  0
  -22.0498  -12.8229   22.0395 N   0  0  0  0  0  0
  -25.4324  -15.1886   20.4101 N   0  0  0  0  0  0
  -31.8323  -14.6479   20.0827 O   0  0  0  0  0  0
  -21.6636   -6.8881   21.4240 O   0  0  0  0  0  0
  -22.3549  -14.5551   20.6694 O   0  0  0  0  0  0
  -24.6155  -31.8663   23.2080 C   0  0  0  0  0  0
  -25.9040  -32.4816   23.8384 C   0  0  1  0  0  0
  -27.2332  -27.4260   20.0982 C   0  0  0  0  0  0
  -25.5889  -33.8613   24.2317 N   0  0  0  0  0  0
  -23.4042  -30.4898   21.5481 C   0  0  2  0  0  0
  -24.8511  -28.9529   20.1144 C   0  0  0  0  0  0
  -22.7414  -29.4652   22.4977 C   0  0  0  0  0  0
  -18.0271  -28.1377   22.8490 C   0  0  0  0  0  0
  -24.1485  -36.7308   23.2644 C   0  0  0  0  0  0
  -25.9340  -30.8308   21.3609 C   0  0  0  0  0  0
  -26.0125  -29.4648   20.7070 C   0  0  0  0  0  0
  -27.2096  -28.7116   20.6893 C   0  0  0  0  0  0
  -26.0561  -26.9304   19.4979 C   0  0  0  0  0  0
  -24.8678  -27.6860   19.5054 C   0  0  0  0  0  0
  -23.6134  -29.8202   20.1638 C   0  0  0  0  0  0
  -25.4106  -36.3108   24.0345 C   0  0  1  0  0  0
  -20.5863  -28.3655   23.1311 C   0  0  2  0  0  0
  -20.6762  -26.9391   22.5413 C   0  0  0  0  0  0
  -19.5746  -26.6384   21.5205 C   0  0  0  0  0  0
  -18.1923  -26.7925   22.1620 C   0  0  0  0  0  0
  -19.1523  -28.8832   23.2901 C   0  0  0  0  0  0
  -18.9456  -30.1440   23.8908 C   0  0  0  0  0  0
  -17.6461  -30.6581   24.0568 C   0  0  0  0  0  0
  -25.9031  -34.9472   23.5130 C   0  0  0  0  0  0
  -16.5348  -29.9088   23.6329 C   0  0  0  0  0  0
  -16.7261  -28.6506   23.0347 C   0  0  0  0  0  0
  -26.4464  -31.6598   25.0713 C   0  0  0  0  0  0
  -25.3739  -31.3704   26.1471 C   0  0  0  0  0  0
  -27.0296  -30.3048   24.6074 C   0  0  0  0  0  0
  -27.6034  -32.4316   25.7477 C   0  0  0  0  0  0
  -27.5580  -37.1808   24.8470 C   0  0  0  0  0  0
  -21.4138  -29.3031   22.3725 N   0  0  0  0  0  0
  -26.4293  -37.3791   23.9416 N   0  0  0  0  0  0
  -24.6696  -31.0766   22.0978 N   0  0  0  0  0  0
  -23.4187  -28.8189   23.3014 O   0  0  0  0  0  0
  -28.3856  -26.6643   20.1023 O   0  0  0  0  0  0
  -26.5593  -34.8927   22.4694 O   0  0  0  0  0  0
  -23.5342  -32.1404   23.7476 O   0  0  0  0  0  0
  -28.6126  -19.7232   21.3273 C   0  0  0  0  0  0
  -28.9944  -18.3658   21.4730 C   0  0  0  0  0  0
  -31.3228  -19.0199   21.2819 C   0  0  0  0  0  0
  -29.5836  -20.7461   21.2075 C   0  0  0  0  0  0
  -30.3609  -18.0066   21.4952 C   0  0  0  0  0  0
  -30.9509  -20.3759   21.1315 C   0  0  0  0  0  0
  -29.5058  -22.8438   22.4043 C   0  0  0  0  0  0
  -29.1607  -22.1760   21.2833 C   0  0  0  0  0  0
  -29.0992  -24.2421   22.8365 C   0  0  0  0  0  0
  -28.3483  -22.8292   20.1609 C   0  0  0  0  0  0
  -28.7534  -24.2729   19.7285 C   0  0  0  0  0  0
  -28.2734  -25.3843   20.7026 C   0  0  1  0  0  0
  -32.0447  -21.4136   20.9408 C   0  0  0  0  0  0
  -29.6816  -26.5951   22.4852 C   0  0  0  0  0  0
  -30.8441  -16.6007   21.8888 C   0  0  0  0  0  0
  -30.1432  -15.4256   21.3442 N   0  0  0  0  0  0
  -29.4074  -25.2907   21.8356 N   0  3  1  0  0  0
  -31.4611  -12.4090   19.1157 H   0  0  0  0  0  0
  -30.3158  -11.3079   19.8233 H   0  0  0  0  0  0
  -29.7303  -11.7799   17.4275 H   0  0  0  0  0  0
  -29.6548  -13.4923   17.7637 H   0  0  0  0  0  0
  -27.8277  -11.3094   18.8228 H   0  0  0  0  0  0
  -27.3596  -12.6308   17.7882 H   0  0  0  0  0  0
  -27.7012  -14.2575   19.5692 H   0  0  0  0  0  0
  -28.6791  -11.9717   21.3452 H   0  0  0  0  0  0
  -28.4552  -13.6123   21.8655 H   0  0  0  0  0  0
  -25.2762   -9.5682   22.4757 H   0  0  0  0  0  0
  -23.9999   -7.4635   22.7470 H   0  0  0  0  0  0
  -21.0846   -8.8773   19.8950 H   0  0  0  0  0  0
  -22.3700  -10.9673   19.6160 H   0  0  0  0  0  0
  -21.2003   -7.6150   23.9716 H   0  0  0  0  0  0
  -21.1483   -6.0523   25.9076 H   0  0  0  0  0  0
  -22.0600   -2.7611   23.2838 H   0  0  0  0  0  0
  -22.4113  -11.9882   22.4770 H   0  0  0  0  0  0
  -21.1118  -13.1254   22.2600 H   0  0  0  0  0  0
  -24.6700  -15.8487   20.5189 H   0  0  0  0  0  0
  -26.2887  -15.6227   20.0890 H   0  0  0  0  0  0
  -26.7107  -32.5519   23.1143 H   0  0  0  0  0  0
  -25.0051  -33.9775   25.0472 H   0  0  0  0  0  0
  -22.6939  -31.3069   21.4069 H   0  0  0  0  0  0
  -23.3747  -35.9640   23.3311 H   0  0  0  0  0  0
  -24.3581  -36.8911   22.2057 H   0  0  0  0  0  0
  -23.7237  -37.6517   23.6648 H   0  0  0  0  0  0
  -26.0460  -31.5963   20.5919 H   0  0  0  0  0  0
  -26.8219  -30.8834   21.9793 H   0  0  0  0  0  0
  -28.1069  -29.1070   21.1437 H   0  0  0  0  0  0
  -26.0543  -25.9583   19.0250 H   0  0  0  0  0  0
  -23.9746  -27.2868   19.0443 H   0  0  0  0  0  0
  -23.7218  -30.5933   19.4020 H   0  0  0  0  0  0
  -22.7384  -29.2387   19.8677 H   0  0  0  0  0  0
  -25.1282  -36.1969   25.0836 H   0  0  0  0  0  0
  -20.9952  -28.3210   24.1431 H   0  0  0  0  0  0
  -20.5648  -26.2258   23.3598 H   0  0  0  0  0  0
  -21.6634  -26.7424   22.1214 H   0  0  0  0  0  0
  -19.6906  -25.6297   21.1223 H   0  0  0  0  0  0
  -19.6693  -27.3208   20.6746 H   0  0  0  0  0  0
  -17.4195  -26.6667   21.4023 H   0  0  0  0  0  0
  -18.0324  -26.0057   22.9005 H   0  0  0  0  0  0
  -19.7934  -30.7250   24.2279 H   0  0  0  0  0  0
  -17.5021  -31.6265   24.5165 H   0  0  0  0  0  0
  -15.5353  -30.3003   23.7652 H   0  0  0  0  0  0
  -15.8656  -28.0840   22.7053 H   0  0  0  0  0  0
  -24.5901  -30.7060   25.7817 H   0  0  0  0  0  0
  -24.8950  -32.2864   26.4938 H   0  0  0  0  0  0
  -25.8104  -30.8863   27.0217 H   0  0  0  0  0  0
  -26.2838  -29.6820   24.1120 H   0  0  0  0  0  0
  -27.4078  -29.7264   25.4513 H   0  0  0  0  0  0
  -27.8662  -30.4389   23.9214 H   0  0  0  0  0  0
  -27.2645  -33.3598   26.2087 H   0  0  0  0  0  0
  -28.3827  -32.6903   25.0298 H   0  0  0  0  0  0
  -28.0719  -31.8425   26.5370 H   0  0  0  0  0  0
  -28.2599  -38.0102   24.7506 H   0  0  0  0  0  0
  -28.1070  -36.2633   24.6298 H   0  0  0  0  0  0
  -27.2299  -37.1462   25.8873 H   0  0  0  0  0  0
  -20.9291  -29.8773   21.6970 H   0  0  0  0  0  0
  -26.0180  -38.2870   24.1411 H   0  0  0  0  0  0
  -27.5653  -19.9861   21.3797 H   0  0  0  0  0  0
  -28.2346  -17.6139   21.6364 H   0  0  0  0  0  0
  -32.3732  -18.7608   21.2895 H   0  0  0  0  0  0
  -30.0550  -22.3008   23.1617 H   0  0  0  0  0  0
  -29.6568  -24.4410   23.7527 H   0  0  0  0  0  0
  -28.0462  -24.2587   23.1206 H   0  0  0  0  0  0
  -27.2839  -22.7557   20.3886 H   0  0  0  0  0  0
  -28.4966  -22.1983   19.2831 H   0  0  0  0  0  0
  -28.2683  -24.4749   18.7726 H   0  0  0  0  0  0
  -29.8244  -24.3587   19.5373 H   0  0  0  0  0  0
  -27.2832  -25.1968   21.1240 H   0  0  0  0  0  0
  -32.9526  -20.9586   20.5428 H   0  0  0  0  0  0
  -32.2938  -21.8845   21.8916 H   0  0  0  0  0  0
  -31.7336  -22.1884   20.2403 H   0  0  0  0  0  0
  -30.4458  -26.5019   23.2567 H   0  0  0  0  0  0
  -28.7794  -26.9996   22.9445 H   0  0  0  0  0  0
  -30.0553  -27.3224   21.7646 H   0  0  0  0  0  0
  -30.7609  -16.5358   22.9744 H   0  0  0  0  0  0
  -31.9159  -16.5331   21.6947 H   0  0  0  0  0  0
  -29.2246  -15.2249   21.7078 H   0  0  0  0  0  0
  -30.2790  -25.0309   21.4009 H   0  0  0  0  0  0
  1 25  1  0  0  0
  1 30  2  0  0  0
  1 86  1  0  0  0
  2  3  1  0  0  0
  2 25  1  0  0  0
  2 88  1  0  0  0
  2 89  1  0  0  0
  3  4  1  0  0  0
  3 90  1  0  0  0
  3 91  1  0  0  0
  4  5  1  0  0  0
  4 92  1  0  0  0
  4 93  1  0  0  0
  5  6  1  0  0  0
  5 26  1  0  0  0
  5 94  1  0  0  0
  6 25  1  0  0  0
  6 95  1  0  0  0
  6 96  1  0  0  0
  7  8  2  0  0  0
  7 26  1  0  0  0
  7 29  1  0  0  0
  8  9  1  0  0  0
  8 22  1  0  0  0
  9 10  1  0  0  0
  9 27  2  0  0  0
 10 11  2  0  0  0
 10 15  1  0  0  0
 11 12  1  0  0  0
 11 97  1  0  0  0
 12 13  2  0  0  0
 12 98  1  0  0  0
 13 14  1  0  0  0
 13 31  1  0  0  0
 14 15  2  0  0  0
 14 99  1  0  0  0
 15100  1  0  0  0
 16 17  2  0  0  0
 16 21  1  0  0  0
 16 31  1  0  0  0
 17 18  1  0  0  0
 17101  1  0  0  0
 18 19  2  0  0  0
 18102  1  0  0  0
 19 20  1  0  0  0
 19 24  1  0  0  0
 20 21  2  0  0  0
 20103  1  0  0  0
 21 23  1  0  0  0
 22 28  1  0  0  0
 22 32  2  0  0  0
 26 27  1  0  0  0
 28104  1  0  0  0
 28105  1  0  0  0
 29106  1  0  0  0
 29107  1  0  0  0
 33 34  1  0  0  0
 33 66  1  0  0  0
 33 70  2  0  0  0
 34 36  1  0  0  0
 34 59  1  0  0  0
 34108  1  0  0  0
 35 44  2  0  0  0
 35 45  1  0  0  0
 35 68  1  0  0  0
 36 56  1  0  0  0
 36109  1  0  0  0
 37 39  1  0  0  0
 37 47  1  0  0  0
 37 66  1  0  0  0
 37110  1  0  0  0
 38 43  2  0  0  0
 38 46  1  0  0  0
 38 47  1  0  0  0
 39 64  1  0  0  0
 39 67  2  0  0  0
 40 52  1  0  0  0
 40 53  2  0  0  0
 40 58  1  0  0  0
 41111  1  0  0  0
 41112  1  0  0  0
 41113  1  0  0  0
 41 48  1  0  0  0
 42 43  1  0  0  0
 42 66  1  0  0  0
 42114  1  0  0  0
 42115  1  0  0  0
 43 44  1  0  0  0
 44116  1  0  0  0
 45 46  2  0  0  0
 45117  1  0  0  0
 46118  1  0  0  0
 47119  1  0  0  0
 47120  1  0  0  0
 48 56  1  0  0  0
 48 65  1  0  0  0
 48121  1  0  0  0
 49 50  1  0  0  0
 49 53  1  0  0  0
 49 64  1  0  0  0
 49122  1  0  0  0
 50 51  1  0  0  0
 50123  1  0  0  0
 50124  1  0  0  0
 51 52  1  0  0  0
 51125  1  0  0  0
 51126  1  0  0  0
 52127  1  0  0  0
 52128  1  0  0  0
 53 54  1  0  0  0
 54 55  2  0  0  0
 54129  1  0  0  0
 55 57  1  0  0  0
 55130  1  0  0  0
 56 69  2  0  0  0
 57 58  2  0  0  0
 57131  1  0  0  0
 58132  1  0  0  0
 59 60  1  0  0  0
 59 61  1  0  0  0
 59 62  1  0  0  0
 60133  1  0  0  0
 60134  1  0  0  0
 60135  1  0  0  0
 61136  1  0  0  0
 61137  1  0  0  0
 61138  1  0  0  0
 62139  1  0  0  0
 62140  1  0  0  0
 62141  1  0  0  0
 63 65  1  0  0  0
 63142  1  0  0  0
 63143  1  0  0  0
 63144  1  0  0  0
 64145  1  0  0  0
 65146  1  0  0  0
 68 82  1  0  0  0
 71 72  2  0  0  0
 71 74  1  0  0  0
 71147  1  0  0  0
 72 75  1  0  0  0
 72148  1  0  0  0
 73 75  2  0  0  0
 73 76  1  0  0  0
 73149  1  0  0  0
 74 76  2  0  0  0
 74 78  1  0  0  0
 75 85  1  0  0  0
 76 83  1  0  0  0
 77 78  2  0  0  0
 77 79  1  0  0  0
 77150  1  0  0  0
 78 80  1  0  0  0
 79 87  1  0  0  0
 79151  1  0  0  0
 79152  1  0  0  0
 80 81  1  0  0  0
 80153  1  0  0  0
 80154  1  0  0  0
 81 82  1  0  0  0
 81155  1  0  0  0
 81156  1  0  0  0
 82 87  1  0  0  0
 82157  1  0  0  0
 83158  1  0  0  0
 83159  1  0  0  0
 83160  1  0  0  0
 84161  1  0  0  0
 84162  1  0  0  0
 84163  1  0  0  0
 84 87  1  0  0  0
 85 86  1  0  0  0
 85164  1  0  0  0
 85165  1  0  0  0
 86166  1  0  0  0
 87167  1  0  0  0
M  CHG  1  87   1
M  ISO  4   1 100  68 101  82 101  86 100
M  END
> <chiral flag>
0

> <version>
0

> <s_m_source_file>
/data/baiqing/PycharmProjects/Reinvent-master-3.2/result/LINK_invent/BTK/process_docking_weight1_custom_product_contain_oxygen_bond_distance_aromatic_linkinvent_7_9_3/rearranged_h_0037.sdf

> <i_m_source_file_index>
36

> <r_mmod_Potential_Energy-OPLS-2005>
-191.422836303711

> <r_mmod_Stretch_Energy-OPLS-2005>
42.3937644958496

> <r_mmod_Bend_Energy-OPLS-2005>
112.10563659668

> <r_mmod_Torsional_Energy-OPLS-2005>
271.144561767578

> <r_mmod_Improper_Torsional_Energy-OPLS-2005>
3.2389440536499

> <r_mmod_Van_der_Waal_Energy-OPLS-2005>
152.915588378906

> <r_mmod_Electrostatic_Energy-OPLS-2005>
-363.538299560547

> <r_mmod_Solvation_Energy-OPLS-2005>
-422.390869140625

> <b_mmod_Minimization_Converged-OPLS-2005>
0

> <r_mmod_RMS_Derivative-OPLS-2005>
1.00439298152924

$$$$
36
                    3D
 Structure written by MMmdl.
159167  0  0  1  0            999 V2000
  -30.7200  -14.4787   20.5732 C   0  0  0  0  0  0
  -30.4159  -12.3122   19.4273 C   0  0  0  0  0  0
  -29.4915  -12.5041   18.2082 C   0  0  0  0  0  0
  -28.0140  -12.3626   18.6213 C   0  0  0  0  0  0
  -27.6582  -13.2111   19.8716 C   0  0  2  0  0  0
  -28.7010  -13.0136   20.9959 C   0  0  0  0  0  0
  -25.2548  -13.8152   20.5658 C   0  0  0  0  0  0
  -24.1821  -13.0426   20.9191 C   0  0  0  0  0  0
  -24.6388  -11.6899   20.8744 C   0  0  0  0  0  0
  -23.9059  -10.4284   21.0405 C   0  0  0  0  0  0
  -24.3614   -9.4202   21.9184 C   0  0  0  0  0  0
  -23.6288   -8.2239   22.0754 C   0  0  0  0  0  0
  -22.4271   -8.0276   21.3544 C   0  0  0  0  0  0
  -21.9905   -9.0248   20.4645 C   0  0  0  0  0  0
  -22.7231  -10.2126   20.3053 C   0  0  0  0  0  0
  -21.6853   -6.0730   22.5275 C   0  0  0  0  0  0
  -21.4013   -6.5636   23.8208 C   0  0  0  0  0  0
  -21.3661   -5.6789   24.9170 C   0  0  0  0  0  0
  -21.6046   -4.3052   24.7221 C   0  0  0  0  0  0
  -21.8821   -3.8142   23.4342 C   0  0  0  0  0  0
  -21.9192   -4.6958   22.3399 C   0  0  0  0  0  0
  -22.7843  -13.5222   21.1850 C   0  0  0  0  0  0
  -22.1661   -4.2145   21.0976 F   0  0  0  0  0  0
  -21.5630   -3.4537   25.7735 F   0  0  0  0  0  0
  -30.0316  -13.3106   20.4396 N   0  0  0  0  0  0
  -26.3001  -12.9344   20.3353 N   0  0  0  0  0  0
  -25.9319  -11.6500   20.5776 N   0  0  0  0  0  0
  -22.0489  -12.8213   22.0409 N   0  0  0  0  0  0
  -25.4203  -15.1861   20.3984 N   0  0  0  0  0  0
  -31.8413  -14.6324   20.0818 O   0  0  0  0  0  0
  -21.6637   -6.8871   21.4237 O   0  0  0  0  0  0
  -22.3533  -14.5533   20.6704 O   0  0  0  0  0  0
  -24.6154  -31.8672   23.2093 C   0  0  0  0  0  0
  -25.9041  -32.4824   23.8390 C   0  0  1  0  0  0
  -27.2302  -27.4292   20.1027 C   0  0  0  0  0  0
  -25.5896  -33.8620   24.2327 N   0  0  0  0  0  0
  -23.4039  -30.4902   21.5499 C   0  0  2  0  0  0
  -24.8518  -28.9574   20.1114 C   0  0  0  0  0  0
  -22.7417  -29.4656   22.4989 C   0  0  0  0  0  0
  -18.0272  -28.1379   22.8488 C   0  0  0  0  0  0
  -24.1489  -36.7309   23.2640 C   0  0  0  0  0  0
  -25.9333  -30.8330   21.3620 C   0  0  0  0  0  0
  -26.0128  -29.4675   20.7079 C   0  0  0  0  0  0
  -27.2095  -28.7121   20.6976 C   0  0  0  0  0  0
  -26.0580  -26.9380   19.4916 C   0  0  0  0  0  0
  -24.8697  -27.6924   19.4977 C   0  0  0  0  0  0
  -23.6121  -29.8229   20.1639 C   0  0  0  0  0  0
  -25.4109  -36.3110   24.0341 C   0  0  1  0  0  0
  -20.5863  -28.3663   23.1317 C   0  0  2  0  0  0
  -20.6765  -26.9398   22.5417 C   0  0  0  0  0  0
  -19.5744  -26.6383   21.5215 C   0  0  0  0  0  0
  -18.1922  -26.7926   22.1623 C   0  0  0  0  0  0
  -19.1521  -28.8837   23.2900 C   0  0  0  0  0  0
  -18.9452  -30.1444   23.8910 C   0  0  0  0  0  0
  -17.6454  -30.6584   24.0565 C   0  0  0  0  0  0
  -25.9030  -34.9477   23.5129 C   0  0  0  0  0  0
  -16.5342  -29.9084   23.6332 C   0  0  0  0  0  0
  -16.7262  -28.6503   23.0345 C   0  0  0  0  0  0
  -26.4468  -31.6598   25.0715 C   0  0  0  0  0  0
  -25.3737  -31.3694   26.1465 C   0  0  0  0  0  0
  -27.0305  -30.3050   24.6076 C   0  0  0  0  0  0
  -27.6046  -32.4314   25.7477 C   0  0  0  0  0  0
  -27.5583  -37.1807   24.8468 C   0  0  0  0  0  0
  -21.4144  -29.3032   22.3729 N   0  0  0  0  0  0
  -26.4297  -37.3793   23.9410 N   0  0  0  0  0  0
  -24.6694  -31.0773   22.0993 N   0  0  0  0  0  0
  -23.4188  -28.8198   23.3032 O   0  0  0  0  0  0
  -28.3622  -26.6426   20.1252 O   0  0  0  0  0  0
  -26.5593  -34.8930   22.4693 O   0  0  0  0  0  0
  -23.5348  -32.1418   23.7490 O   0  0  0  0  0  0
  -32.2182  -18.5164   21.7698 C   0  0  0  0  0  0
  -31.2750  -19.5558   21.7564 C   0  0  0  0  0  0
  -31.8100  -17.1901   21.5594 C   0  0  0  0  0  0
  -29.9102  -19.2918   21.5123 C   0  0  0  0  0  0
  -29.4976  -17.9398   21.2737 C   0  0  0  0  0  0
  -30.4547  -16.8747   21.3019 C   0  0  0  0  0  0
  -28.0267  -17.6323   21.0125 C   0  0  0  0  0  0
  -28.9295  -20.4787   21.6360 C   0  0  0  0  0  0
  -28.8470  -24.1720   20.3344 C   0  0  0  0  0  0
  -28.5876  -22.9189   21.2253 C   0  0  0  0  0  0
  -28.2267  -25.4599   20.9412 C   0  0  0  0  0  0
  -30.0450  -15.5030   21.1450 N   0  0  0  0  0  0
  -29.2402  -21.6542   20.7736 N   0  3  0  0  0  0
  -31.4616  -12.3965   19.1260 H   0  0  0  0  0  0
  -30.3071  -11.3064   19.8355 H   0  0  0  0  0  0
  -29.7331  -11.7752   17.4334 H   0  0  0  0  0  0
  -29.6581  -13.4879   17.7663 H   0  0  0  0  0  0
  -27.8283  -11.3073   18.8247 H   0  0  0  0  0  0
  -27.3621  -12.6283   17.7881 H   0  0  0  0  0  0
  -27.6956  -14.2559   19.5631 H   0  0  0  0  0  0
  -28.6783  -11.9845   21.3571 H   0  0  0  0  0  0
  -28.4615  -13.6314   21.8625 H   0  0  0  0  0  0
  -25.2760   -9.5677   22.4755 H   0  0  0  0  0  0
  -23.9997   -7.4628   22.7474 H   0  0  0  0  0  0
  -21.0838   -8.8762   19.8948 H   0  0  0  0  0  0
  -22.3693  -10.9663   19.6159 H   0  0  0  0  0  0
  -21.2006   -7.6145   23.9709 H   0  0  0  0  0  0
  -21.1482   -6.0521   25.9074 H   0  0  0  0  0  0
  -22.0601   -2.7605   23.2842 H   0  0  0  0  0  0
  -22.4107  -11.9868   22.4783 H   0  0  0  0  0  0
  -21.1108  -13.1233   22.2622 H   0  0  0  0  0  0
  -24.6394  -15.8283   20.4790 H   0  0  0  0  0  0
  -26.2447  -15.6129   19.9987 H   0  0  0  0  0  0
  -26.7113  -32.5534   23.1154 H   0  0  0  0  0  0
  -25.0070  -33.9784   25.0490 H   0  0  0  0  0  0
  -22.6931  -31.3075   21.4110 H   0  0  0  0  0  0
  -23.3754  -35.9640   23.3311 H   0  0  0  0  0  0
  -24.3585  -36.8914   22.2055 H   0  0  0  0  0  0
  -23.7238  -37.6517   23.6643 H   0  0  0  0  0  0
  -26.0443  -31.5999   20.5941 H   0  0  0  0  0  0
  -26.8216  -30.8871   21.9793 H   0  0  0  0  0  0
  -28.1053  -29.0981   21.1639 H   0  0  0  0  0  0
  -26.0624  -25.9639   19.0227 H   0  0  0  0  0  0
  -23.9783  -27.2947   19.0328 H   0  0  0  0  0  0
  -23.7184  -30.5985   19.4046 H   0  0  0  0  0  0
  -22.7362  -29.2416   19.8694 H   0  0  0  0  0  0
  -25.1287  -36.1978   25.0834 H   0  0  0  0  0  0
  -20.9951  -28.3222   24.1440 H   0  0  0  0  0  0
  -20.5680  -26.2266   23.3601 H   0  0  0  0  0  0
  -21.6634  -26.7449   22.1198 H   0  0  0  0  0  0
  -19.6909  -25.6301   21.1229 H   0  0  0  0  0  0
  -19.6687  -27.3210   20.6760 H   0  0  0  0  0  0
  -17.4193  -26.6679   21.4022 H   0  0  0  0  0  0
  -18.0314  -26.0065   22.9015 H   0  0  0  0  0  0
  -19.7929  -30.7255   24.2282 H   0  0  0  0  0  0
  -17.5011  -31.6271   24.5157 H   0  0  0  0  0  0
  -15.5345  -30.2990   23.7657 H   0  0  0  0  0  0
  -15.8659  -28.0834   22.7047 H   0  0  0  0  0  0
  -24.5910  -30.7043   25.7797 H   0  0  0  0  0  0
  -24.8931  -32.2850   26.4924 H   0  0  0  0  0  0
  -25.8094  -30.8851   27.0215 H   0  0  0  0  0  0
  -26.2850  -29.6806   24.1142 H   0  0  0  0  0  0
  -27.4115  -29.7281   25.4514 H   0  0  0  0  0  0
  -27.8661  -30.4391   23.9201 H   0  0  0  0  0  0
  -27.2668  -33.3606   26.2076 H   0  0  0  0  0  0
  -28.3841  -32.6885   25.0292 H   0  0  0  0  0  0
  -28.0728  -31.8424   26.5375 H   0  0  0  0  0  0
  -28.2600  -38.0106   24.7515 H   0  0  0  0  0  0
  -28.1078  -36.2635   24.6290 H   0  0  0  0  0  0
  -27.2297  -37.1451   25.8871 H   0  0  0  0  0  0
  -20.9303  -29.8756   21.6953 H   0  0  0  0  0  0
  -26.0189  -38.2875   24.1404 H   0  0  0  0  0  0
  -33.2583  -18.7335   21.9700 H   0  0  0  0  0  0
  -31.6132  -20.5610   21.9681 H   0  0  0  0  0  0
  -32.5630  -16.4175   21.6190 H   0  0  0  0  0  0
  -27.4395  -17.7744   21.9203 H   0  0  0  0  0  0
  -27.8568  -16.6148   20.6682 H   0  0  0  0  0  0
  -27.6279  -18.2834   20.2346 H   0  0  0  0  0  0
  -28.9625  -20.7901   22.6810 H   0  0  0  0  0  0
  -27.8970  -20.1832   21.4579 H   0  0  0  0  0  0
  -28.4294  -24.0056   19.3411 H   0  0  0  0  0  0
  -29.9187  -24.3222   20.2013 H   0  0  0  0  0  0
  -27.5119  -22.7493   21.2959 H   0  0  0  0  0  0
  -28.9275  -23.1345   22.2397 H   0  0  0  0  0  0
  -28.7079  -25.6725   21.8967 H   0  0  0  0  0  0
  -27.1824  -25.2555   21.1865 H   0  0  0  0  0  0
  -29.0935  -15.2895   21.3997 H   0  0  0  0  0  0
  -28.9577  -21.4375   19.8316 H   0  0  0  0  0  0
  -30.2368  -21.7885   20.7706 H   0  0  0  0  0  0
  1 25  1  0  0  0
  1 30  2  0  0  0
  1 82  1  0  0  0
  2  3  1  0  0  0
  2 25  1  0  0  0
  2 84  1  0  0  0
  2 85  1  0  0  0
  3  4  1  0  0  0
  3 86  1  0  0  0
  3 87  1  0  0  0
  4  5  1  0  0  0
  4 88  1  0  0  0
  4 89  1  0  0  0
  5  6  1  0  0  0
  5 26  1  0  0  0
  5 90  1  0  0  0
  6 25  1  0  0  0
  6 91  1  0  0  0
  6 92  1  0  0  0
  7  8  2  0  0  0
  7 26  1  0  0  0
  7 29  1  0  0  0
  8  9  1  0  0  0
  8 22  1  0  0  0
  9 10  1  0  0  0
  9 27  2  0  0  0
 10 11  2  0  0  0
 10 15  1  0  0  0
 11 12  1  0  0  0
 11 93  1  0  0  0
 12 13  2  0  0  0
 12 94  1  0  0  0
 13 14  1  0  0  0
 13 31  1  0  0  0
 14 15  2  0  0  0
 14 95  1  0  0  0
 15 96  1  0  0  0
 16 17  2  0  0  0
 16 21  1  0  0  0
 16 31  1  0  0  0
 17 18  1  0  0  0
 17 97  1  0  0  0
 18 19  2  0  0  0
 18 98  1  0  0  0
 19 20  1  0  0  0
 19 24  1  0  0  0
 20 21  2  0  0  0
 20 99  1  0  0  0
 21 23  1  0  0  0
 22 28  1  0  0  0
 22 32  2  0  0  0
 26 27  1  0  0  0
 28100  1  0  0  0
 28101  1  0  0  0
 29102  1  0  0  0
 29103  1  0  0  0
 33 34  1  0  0  0
 33 66  1  0  0  0
 33 70  2  0  0  0
 34 36  1  0  0  0
 34 59  1  0  0  0
 34104  1  0  0  0
 35 44  2  0  0  0
 35 45  1  0  0  0
 35 68  1  0  0  0
 36 56  1  0  0  0
 36105  1  0  0  0
 37 39  1  0  0  0
 37 47  1  0  0  0
 37 66  1  0  0  0
 37106  1  0  0  0
 38 43  2  0  0  0
 38 46  1  0  0  0
 38 47  1  0  0  0
 39 64  1  0  0  0
 39 67  2  0  0  0
 40 52  1  0  0  0
 40 53  2  0  0  0
 40 58  1  0  0  0
 41107  1  0  0  0
 41108  1  0  0  0
 41109  1  0  0  0
 41 48  1  0  0  0
 42 43  1  0  0  0
 42 66  1  0  0  0
 42110  1  0  0  0
 42111  1  0  0  0
 43 44  1  0  0  0
 44112  1  0  0  0
 45 46  2  0  0  0
 45113  1  0  0  0
 46114  1  0  0  0
 47115  1  0  0  0
 47116  1  0  0  0
 48 56  1  0  0  0
 48 65  1  0  0  0
 48117  1  0  0  0
 49 50  1  0  0  0
 49 53  1  0  0  0
 49 64  1  0  0  0
 49118  1  0  0  0
 50 51  1  0  0  0
 50119  1  0  0  0
 50120  1  0  0  0
 51 52  1  0  0  0
 51121  1  0  0  0
 51122  1  0  0  0
 52123  1  0  0  0
 52124  1  0  0  0
 53 54  1  0  0  0
 54 55  2  0  0  0
 54125  1  0  0  0
 55 57  1  0  0  0
 55126  1  0  0  0
 56 69  2  0  0  0
 57 58  2  0  0  0
 57127  1  0  0  0
 58128  1  0  0  0
 59 60  1  0  0  0
 59 61  1  0  0  0
 59 62  1  0  0  0
 60129  1  0  0  0
 60130  1  0  0  0
 60131  1  0  0  0
 61132  1  0  0  0
 61133  1  0  0  0
 61134  1  0  0  0
 62135  1  0  0  0
 62136  1  0  0  0
 62137  1  0  0  0
 63 65  1  0  0  0
 63138  1  0  0  0
 63139  1  0  0  0
 63140  1  0  0  0
 64141  1  0  0  0
 65142  1  0  0  0
 68 81  1  0  0  0
 71 72  2  0  0  0
 71 73  1  0  0  0
 71143  1  0  0  0
 72 74  1  0  0  0
 72144  1  0  0  0
 73 76  2  0  0  0
 73145  1  0  0  0
 74 75  2  0  0  0
 74 78  1  0  0  0
 75 76  1  0  0  0
 75 77  1  0  0  0
 76 82  1  0  0  0
 77146  1  0  0  0
 77147  1  0  0  0
 77148  1  0  0  0
 78 83  1  0  0  0
 78149  1  0  0  0
 78150  1  0  0  0
 79 80  1  0  0  0
 79 81  1  0  0  0
 79151  1  0  0  0
 79152  1  0  0  0
 80 83  1  0  0  0
 80153  1  0  0  0
 80154  1  0  0  0
 81155  1  0  0  0
 81156  1  0  0  0
 82157  1  0  0  0
 83158  1  0  0  0
 83159  1  0  0  0
M  CHG  1  83   1
M  ISO  4   1 100  68 101  81 101  82 100
M  END
> <chiral flag>
0

> <version>
0

> <s_m_source_file>
/data/baiqing/PycharmProjects/Reinvent-master-3.2/result/LINK_invent/BTK/process_docking_weight1_custom_product_contain_oxygen_bond_distance_aromatic_linkinvent_7_9_3/rearranged_h_0037.sdf

> <i_m_source_file_index>
37

> <r_mmod_Potential_Energy-OPLS-2005>
-247.164321899414

> <r_mmod_Stretch_Energy-OPLS-2005>
43.9724578857422

> <r_mmod_Bend_Energy-OPLS-2005>
95.8854904174805

> <r_mmod_Torsional_Energy-OPLS-2005>
229.169982910156

> <r_mmod_Improper_Torsional_Energy-OPLS-2005>
4.08203601837158

> <r_mmod_Van_der_Waal_Energy-OPLS-2005>
155.789978027344

> <r_mmod_Electrostatic_Energy-OPLS-2005>
-313.960388183594

> <r_mmod_Solvation_Energy-OPLS-2005>
-476.823699951172

> <b_mmod_Minimization_Converged-OPLS-2005>
0

> <r_mmod_RMS_Derivative-OPLS-2005>
0.641556918621063

$$$$
37
                    3D
 Structure written by MMmdl.
164173  0  0  1  0            999 V2000
  -30.6376  -14.5449   20.5284 C   0  0  0  0  0  0
  -30.4414  -12.3398   19.4263 C   0  0  0  0  0  0
  -29.5039  -12.5006   18.2100 C   0  0  0  0  0  0
  -28.0259  -12.3392   18.6232 C   0  0  0  0  0  0
  -27.6606  -13.1794   19.8739 C   0  0  2  0  0  0
  -28.7077  -12.9872   20.9936 C   0  0  0  0  0  0
  -25.2612  -13.8074   20.5682 C   0  0  0  0  0  0
  -24.1840  -13.0396   20.9188 C   0  0  0  0  0  0
  -24.6360  -11.6856   20.8744 C   0  0  0  0  0  0
  -23.9022  -10.4266   21.0411 C   0  0  0  0  0  0
  -24.3586   -9.4187   21.9187 C   0  0  0  0  0  0
  -23.6266   -8.2224   22.0758 C   0  0  0  0  0  0
  -22.4250   -8.0267   21.3546 C   0  0  0  0  0  0
  -21.9873   -9.0233   20.4652 C   0  0  0  0  0  0
  -22.7198  -10.2116   20.3060 C   0  0  0  0  0  0
  -21.6847   -6.0718   22.5278 C   0  0  0  0  0  0
  -21.4011   -6.5625   23.8205 C   0  0  0  0  0  0
  -21.3656   -5.6781   24.9172 C   0  0  0  0  0  0
  -21.6042   -4.3048   24.7223 C   0  0  0  0  0  0
  -21.8822   -3.8134   23.4346 C   0  0  0  0  0  0
  -21.9192   -4.6949   22.3399 C   0  0  0  0  0  0
  -22.7873  -13.5238   21.1837 C   0  0  0  0  0  0
  -22.1662   -4.2136   21.0972 F   0  0  0  0  0  0
  -21.5627   -3.4532   25.7736 F   0  0  0  0  0  0
  -30.0296  -13.3272   20.4362 N   0  0  0  0  0  0
  -26.3012  -12.9188   20.3351 N   0  0  0  0  0  0
  -25.9276  -11.6385   20.5768 N   0  0  0  0  0  0
  -22.0489  -12.8262   22.0397 N   0  0  0  0  0  0
  -25.4343  -15.1783   20.4093 N   0  0  0  0  0  0
  -31.7801  -14.7531   20.1095 O   0  0  0  0  0  0
  -21.6624   -6.8860   21.4238 O   0  0  0  0  0  0
  -22.3575  -14.5537   20.6664 O   0  0  0  0  0  0
  -24.6170  -31.8652   23.2068 C   0  0  0  0  0  0
  -25.9056  -32.4807   23.8369 C   0  0  1  0  0  0
  -27.2445  -27.4132   20.0997 C   0  0  0  0  0  0
  -25.5902  -33.8605   24.2310 N   0  0  0  0  0  0
  -23.4060  -30.4865   21.5479 C   0  0  2  0  0  0
  -24.8527  -28.9432   20.1172 C   0  0  0  0  0  0
  -22.7423  -29.4646   22.4989 C   0  0  0  0  0  0
  -18.0275  -28.1388   22.8498 C   0  0  0  0  0  0
  -24.1486  -36.7308   23.2637 C   0  0  0  0  0  0
  -25.9351  -30.8257   21.3592 C   0  0  0  0  0  0
  -26.0129  -29.4566   20.7088 C   0  0  0  0  0  0
  -27.2086  -28.7007   20.6905 C   0  0  0  0  0  0
  -26.0614  -26.9114   19.5111 C   0  0  0  0  0  0
  -24.8727  -27.6717   19.5163 C   0  0  0  0  0  0
  -23.6152  -29.8133   20.1645 C   0  0  0  0  0  0
  -25.4101  -36.3102   24.0340 C   0  0  1  0  0  0
  -20.5867  -28.3674   23.1327 C   0  0  2  0  0  0
  -20.6768  -26.9409   22.5425 C   0  0  0  0  0  0
  -19.5741  -26.6393   21.5226 C   0  0  0  0  0  0
  -18.1919  -26.7938   22.1629 C   0  0  0  0  0  0
  -19.1528  -28.8845   23.2913 C   0  0  0  0  0  0
  -18.9450  -30.1451   23.8926 C   0  0  0  0  0  0
  -17.6451  -30.6592   24.0569 C   0  0  0  0  0  0
  -25.9036  -34.9468   23.5124 C   0  0  0  0  0  0
  -16.5342  -29.9095   23.6321 C   0  0  0  0  0  0
  -16.7265  -28.6509   23.0348 C   0  0  0  0  0  0
  -26.4471  -31.6593   25.0706 C   0  0  0  0  0  0
  -25.3733  -31.3709   26.1456 C   0  0  0  0  0  0
  -27.0298  -30.3034   24.6087 C   0  0  0  0  0  0
  -27.6058  -32.4304   25.7460 C   0  0  0  0  0  0
  -27.5582  -37.1796   24.8457 C   0  0  0  0  0  0
  -21.4146  -29.3041   22.3733 N   0  0  0  0  0  0
  -26.4283  -37.3789   23.9421 N   0  0  0  0  0  0
  -24.6713  -31.0741   22.0971 N   0  0  0  0  0  0
  -23.4181  -28.8198   23.3047 O   0  0  0  0  0  0
  -28.4402  -26.7146   20.1056 O   0  0  0  0  0  0
  -26.5603  -34.8928   22.4692 O   0  0  0  0  0  0
  -23.5363  -32.1412   23.7461 O   0  0  0  0  0  0
  -30.7177  -19.1652   21.5062 C   0  0  0  0  0  0
  -29.7308  -19.8383   20.7427 C   0  0  0  0  0  0
  -28.8517  -19.0448   19.9557 C   0  0  0  0  0  0
  -29.9212  -16.9581   20.7818 C   0  0  0  0  0  0
  -30.8054  -17.7524   21.5500 C   0  0  0  0  0  0
  -28.9778  -17.6249   19.9545 C   0  0  0  0  0  0
  -30.5077  -23.5823   19.9507 C   0  0  0  0  0  0
  -29.9240  -24.8061   20.0450 C   0  0  0  0  0  0
  -32.0152  -23.3705   19.9204 C   0  0  0  0  0  0
  -32.2643  -22.0064   19.2705 C   0  0  0  0  0  0
  -30.8973  -21.6124   18.7156 C   0  0  0  0  0  0
  -27.7565  -19.6929   19.1120 C   0  0  0  0  0  0
  -29.6175  -21.3872   20.8527 C   0  0  0  0  0  0
  -28.4751  -25.2827   19.9239 C   0  0  0  0  0  0
  -29.8244  -15.5324   20.9623 N   0  0  0  0  0  0
  -29.9187  -22.2269   19.6410 N   0  3  2  0  0  0
  -31.9582  -17.0298   22.6161 Cl  0  0  0  0  0  0
  -27.9555  -16.6956   18.9150 Cl  0  0  0  0  0  0
  -31.4818  -12.4686   19.1227 H   0  0  0  0  0  0
  -30.3723  -11.3316   19.8367 H   0  0  0  0  0  0
  -29.7584  -11.7712   17.4400 H   0  0  0  0  0  0
  -29.6543  -13.4839   17.7601 H   0  0  0  0  0  0
  -27.8496  -11.2818   18.8262 H   0  0  0  0  0  0
  -27.3746  -12.6030   17.7899 H   0  0  0  0  0  0
  -27.6937  -14.2134   19.5587 H   0  0  0  0  0  0
  -28.7065  -11.9518   21.3372 H   0  0  0  0  0  0
  -28.4589  -13.5847   21.8720 H   0  0  0  0  0  0
  -25.2734   -9.5660   22.4755 H   0  0  0  0  0  0
  -23.9976   -7.4611   22.7471 H   0  0  0  0  0  0
  -21.0805   -8.8755   19.8952 H   0  0  0  0  0  0
  -22.3664  -10.9656   19.6168 H   0  0  0  0  0  0
  -21.2005   -7.6135   23.9705 H   0  0  0  0  0  0
  -21.1475   -6.0513   25.9070 H   0  0  0  0  0  0
  -22.0606   -2.7599   23.2853 H   0  0  0  0  0  0
  -22.4079  -11.9925   22.4812 H   0  0  0  0  0  0
  -21.1110  -13.1323   22.2576 H   0  0  0  0  0  0
  -24.6599  -15.8267   20.4922 H   0  0  0  0  0  0
  -26.2635  -15.6057   20.0136 H   0  0  0  0  0  0
  -26.7134  -32.5514   23.1140 H   0  0  0  0  0  0
  -25.0040  -33.9752   25.0448 H   0  0  0  0  0  0
  -22.6958  -31.3037   21.4060 H   0  0  0  0  0  0
  -23.3747  -35.9641   23.3287 H   0  0  0  0  0  0
  -24.3590  -36.8933   22.2055 H   0  0  0  0  0  0
  -23.7237  -37.6509   23.6660 H   0  0  0  0  0  0
  -26.0464  -31.5899   20.5884 H   0  0  0  0  0  0
  -26.8242  -30.8835   21.9756 H   0  0  0  0  0  0
  -28.1070  -29.0989   21.1419 H   0  0  0  0  0  0
  -26.0419  -25.9406   19.0382 H   0  0  0  0  0  0
  -23.9797  -27.2703   19.0576 H   0  0  0  0  0  0
  -23.7250  -30.5856   19.4022 H   0  0  0  0  0  0
  -22.7381  -29.2341   19.8701 H   0  0  0  0  0  0
  -25.1276  -36.1953   25.0830 H   0  0  0  0  0  0
  -20.9958  -28.3242   24.1450 H   0  0  0  0  0  0
  -20.5675  -26.2282   23.3612 H   0  0  0  0  0  0
  -21.6640  -26.7450   22.1216 H   0  0  0  0  0  0
  -19.6896  -25.6307   21.1251 H   0  0  0  0  0  0
  -19.6677  -27.3211   20.6763 H   0  0  0  0  0  0
  -17.4189  -26.6694   21.4029 H   0  0  0  0  0  0
  -18.0298  -26.0075   22.9015 H   0  0  0  0  0  0
  -19.7923  -30.7264   24.2307 H   0  0  0  0  0  0
  -17.5002  -31.6272   24.5167 H   0  0  0  0  0  0
  -15.5345  -30.3003   23.7628 H   0  0  0  0  0  0
  -15.8663  -28.0834   22.7054 H   0  0  0  0  0  0
  -24.5899  -30.7066   25.7792 H   0  0  0  0  0  0
  -24.8935  -32.2871   26.4912 H   0  0  0  0  0  0
  -25.8076  -30.8863   27.0209 H   0  0  0  0  0  0
  -26.2837  -29.6794   24.1154 H   0  0  0  0  0  0
  -27.4087  -29.7273   25.4539 H   0  0  0  0  0  0
  -27.8664  -30.4356   23.9221 H   0  0  0  0  0  0
  -27.2698  -33.3603   26.2061 H   0  0  0  0  0  0
  -28.3849  -32.6859   25.0264 H   0  0  0  0  0  0
  -28.0748  -31.8411   26.5350 H   0  0  0  0  0  0
  -28.2583  -38.0113   24.7542 H   0  0  0  0  0  0
  -28.1100  -36.2651   24.6224 H   0  0  0  0  0  0
  -27.2317  -37.1377   25.8863 H   0  0  0  0  0  0
  -20.9315  -29.8749   21.6938 H   0  0  0  0  0  0
  -26.0169  -38.2862   24.1441 H   0  0  0  0  0  0
  -31.3971  -19.7354   22.1244 H   0  0  0  0  0  0
  -30.6104  -25.6282   20.1909 H   0  0  0  0  0  0
  -32.4332  -23.4192   20.9268 H   0  0  0  0  0  0
  -32.4792  -24.1619   19.3300 H   0  0  0  0  0  0
  -32.5857  -21.2847   20.0228 H   0  0  0  0  0  0
  -33.0327  -22.0430   18.4968 H   0  0  0  0  0  0
  -30.7931  -20.5408   18.5525 H   0  0  0  0  0  0
  -30.7622  -22.0748   17.7368 H   0  0  0  0  0  0
  -27.4686  -20.6785   19.4712 H   0  0  0  0  0  0
  -26.8406  -19.1024   19.1280 H   0  0  0  0  0  0
  -28.0793  -19.7797   18.0740 H   0  0  0  0  0  0
  -30.2986  -21.6999   21.6457 H   0  0  0  0  0  0
  -28.6290  -21.6536   21.2276 H   0  0  0  0  0  0
  -27.8599  -24.7847   20.6745 H   0  0  0  0  0  0
  -28.1013  -25.0120   18.9362 H   0  0  0  0  0  0
  -28.9008  -15.2039   21.1956 H   0  0  0  0  0  0
  -29.0573  -22.3266   19.1266 H   0  0  0  0  0  0
  1 25  1  0  0  0
  1 30  2  0  0  0
  1 85  1  0  0  0
  2  3  1  0  0  0
  2 25  1  0  0  0
  2 89  1  0  0  0
  2 90  1  0  0  0
  3  4  1  0  0  0
  3 91  1  0  0  0
  3 92  1  0  0  0
  4  5  1  0  0  0
  4 93  1  0  0  0
  4 94  1  0  0  0
  5  6  1  0  0  0
  5 26  1  0  0  0
  5 95  1  0  0  0
  6 25  1  0  0  0
  6 96  1  0  0  0
  6 97  1  0  0  0
  7  8  2  0  0  0
  7 26  1  0  0  0
  7 29  1  0  0  0
  8  9  1  0  0  0
  8 22  1  0  0  0
  9 10  1  0  0  0
  9 27  2  0  0  0
 10 11  2  0  0  0
 10 15  1  0  0  0
 11 12  1  0  0  0
 11 98  1  0  0  0
 12 13  2  0  0  0
 12 99  1  0  0  0
 13 14  1  0  0  0
 13 31  1  0  0  0
 14 15  2  0  0  0
 14100  1  0  0  0
 15101  1  0  0  0
 16 17  2  0  0  0
 16 21  1  0  0  0
 16 31  1  0  0  0
 17 18  1  0  0  0
 17102  1  0  0  0
 18 19  2  0  0  0
 18103  1  0  0  0
 19 20  1  0  0  0
 19 24  1  0  0  0
 20 21  2  0  0  0
 20104  1  0  0  0
 21 23  1  0  0  0
 22 28  1  0  0  0
 22 32  2  0  0  0
 26 27  1  0  0  0
 28105  1  0  0  0
 28106  1  0  0  0
 29107  1  0  0  0
 29108  1  0  0  0
 33 34  1  0  0  0
 33 66  1  0  0  0
 33 70  2  0  0  0
 34 36  1  0  0  0
 34 59  1  0  0  0
 34109  1  0  0  0
 35 44  2  0  0  0
 35 45  1  0  0  0
 35 68  1  0  0  0
 36 56  1  0  0  0
 36110  1  0  0  0
 37 39  1  0  0  0
 37 47  1  0  0  0
 37 66  1  0  0  0
 37111  1  0  0  0
 38 43  2  0  0  0
 38 46  1  0  0  0
 38 47  1  0  0  0
 39 64  1  0  0  0
 39 67  2  0  0  0
 40 52  1  0  0  0
 40 53  2  0  0  0
 40 58  1  0  0  0
 41112  1  0  0  0
 41113  1  0  0  0
 41114  1  0  0  0
 41 48  1  0  0  0
 42 43  1  0  0  0
 42 66  1  0  0  0
 42115  1  0  0  0
 42116  1  0  0  0
 43 44  1  0  0  0
 44117  1  0  0  0
 45 46  2  0  0  0
 45118  1  0  0  0
 46119  1  0  0  0
 47120  1  0  0  0
 47121  1  0  0  0
 48 56  1  0  0  0
 48 65  1  0  0  0
 48122  1  0  0  0
 49 50  1  0  0  0
 49 53  1  0  0  0
 49 64  1  0  0  0
 49123  1  0  0  0
 50 51  1  0  0  0
 50124  1  0  0  0
 50125  1  0  0  0
 51 52  1  0  0  0
 51126  1  0  0  0
 51127  1  0  0  0
 52128  1  0  0  0
 52129  1  0  0  0
 53 54  1  0  0  0
 54 55  2  0  0  0
 54130  1  0  0  0
 55 57  1  0  0  0
 55131  1  0  0  0
 56 69  2  0  0  0
 57 58  2  0  0  0
 57132  1  0  0  0
 58133  1  0  0  0
 59 60  1  0  0  0
 59 61  1  0  0  0
 59 62  1  0  0  0
 60134  1  0  0  0
 60135  1  0  0  0
 60136  1  0  0  0
 61137  1  0  0  0
 61138  1  0  0  0
 61139  1  0  0  0
 62140  1  0  0  0
 62141  1  0  0  0
 62142  1  0  0  0
 63 65  1  0  0  0
 63143  1  0  0  0
 63144  1  0  0  0
 63145  1  0  0  0
 64146  1  0  0  0
 65147  1  0  0  0
 68 84  1  0  0  0
 71 72  2  0  0  0
 71 75  1  0  0  0
 71148  1  0  0  0
 72 73  1  0  0  0
 72 83  1  0  0  0
 73 76  2  0  0  0
 73 82  1  0  0  0
 74 75  2  0  0  0
 74 76  1  0  0  0
 74 85  1  0  0  0
 75 87  1  0  0  0
 76 88  1  0  0  0
 77 78  2  0  0  0
 77 79  1  0  0  0
 77 86  1  0  0  0
 78 84  1  0  0  0
 78149  1  0  0  0
 79 80  1  0  0  0
 79150  1  0  0  0
 79151  1  0  0  0
 80 81  1  0  0  0
 80152  1  0  0  0
 80153  1  0  0  0
 81 86  1  0  0  0
 81154  1  0  0  0
 81155  1  0  0  0
 82156  1  0  0  0
 82157  1  0  0  0
 82158  1  0  0  0
 83159  1  0  0  0
 83160  1  0  0  0
 83 86  1  0  0  0
 84161  1  0  0  0
 84162  1  0  0  0
 85163  1  0  0  0
 86164  1  0  0  0
M  CHG  1  86   1
M  ISO  4   1 100  68 101  84 101  85 100
M  END
> <chiral flag>
0

> <version>
0

> <s_m_source_file>
/data/baiqing/PycharmProjects/Reinvent-master-3.2/result/LINK_invent/BTK/process_docking_weight1_custom_product_contain_oxygen_bond_distance_aromatic_linkinvent_7_9_3/rearranged_h_0037.sdf

> <i_m_source_file_index>
38

> <r_mmod_Potential_Energy-OPLS-2005>
-118.310043334961

> <r_mmod_Stretch_Energy-OPLS-2005>
48.1280632019043

> <r_mmod_Bend_Energy-OPLS-2005>
159.057098388672

> <r_mmod_Torsional_Energy-OPLS-2005>
268.955993652344

> <r_mmod_Improper_Torsional_Energy-OPLS-2005>
6.41471338272095

> <r_mmod_Van_der_Waal_Energy-OPLS-2005>
145.486343383789

> <r_mmod_Electrostatic_Energy-OPLS-2005>
-306.366577148438

> <r_mmod_Solvation_Energy-OPLS-2005>
-460.483734130859

> <b_mmod_Minimization_Converged-OPLS-2005>
0

> <r_mmod_RMS_Derivative-OPLS-2005>
1.44628715515137

$$$$
38
                    3D
 Structure written by MMmdl.
165173  0  0  1  0            999 V2000
  -30.7994  -14.3633   20.6120 C   0  0  0  0  0  0
  -30.3959  -12.2432   19.4373 C   0  0  0  0  0  0
  -29.4939  -12.5066   18.2180 C   0  0  0  0  0  0
  -28.0135  -12.3823   18.6168 C   0  0  0  0  0  0
  -27.6658  -13.2166   19.8805 C   0  0  2  0  0  0
  -28.7029  -13.0040   21.0114 C   0  0  0  0  0  0
  -25.2543  -13.8187   20.5690 C   0  0  0  0  0  0
  -24.1803  -13.0426   20.9165 C   0  0  0  0  0  0
  -24.6380  -11.6906   20.8689 C   0  0  0  0  0  0
  -23.9047  -10.4294   21.0369 C   0  0  0  0  0  0
  -24.3600   -9.4223   21.9160 C   0  0  0  0  0  0
  -23.6286   -8.2261   22.0743 C   0  0  0  0  0  0
  -22.4276   -8.0276   21.3519 C   0  0  0  0  0  0
  -21.9901   -9.0245   20.4617 C   0  0  0  0  0  0
  -22.7215  -10.2124   20.3025 C   0  0  0  0  0  0
  -21.6854   -6.0724   22.5281 C   0  0  0  0  0  0
  -21.4018   -6.5634   23.8219 C   0  0  0  0  0  0
  -21.3659   -5.6778   24.9176 C   0  0  0  0  0  0
  -21.6049   -4.3054   24.7232 C   0  0  0  0  0  0
  -21.8816   -3.8137   23.4353 C   0  0  0  0  0  0
  -21.9194   -4.6959   22.3413 C   0  0  0  0  0  0
  -22.7807  -13.5200   21.1817 C   0  0  0  0  0  0
  -22.1652   -4.2134   21.0986 F   0  0  0  0  0  0
  -21.5622   -3.4541   25.7744 F   0  0  0  0  0  0
  -30.0575  -13.2337   20.4750 N   0  0  0  0  0  0
  -26.3028  -12.9400   20.3384 N   0  0  0  0  0  0
  -25.9322  -11.6538   20.5746 N   0  0  0  0  0  0
  -22.0449  -12.8192   22.0368 N   0  0  0  0  0  0
  -25.4182  -15.1918   20.4129 N   0  0  0  0  0  0
  -31.8401  -14.5662   19.9812 O   0  0  0  0  0  0
  -21.6649   -6.8873   21.4236 O   0  0  0  0  0  0
  -22.3463  -14.5491   20.6655 O   0  0  0  0  0  0
  -24.6163  -31.8722   23.2081 C   0  0  0  0  0  0
  -25.9073  -32.4844   23.8352 C   0  0  1  0  0  0
  -27.2228  -27.4729   20.0857 C   0  0  0  0  0  0
  -25.5962  -33.8632   24.2304 N   0  0  0  0  0  0
  -23.3958  -30.5014   21.5443 C   0  0  2  0  0  0
  -24.8343  -28.9656   20.1088 C   0  0  0  0  0  0
  -22.7372  -29.4724   22.4922 C   0  0  0  0  0  0
  -18.0267  -28.1419   22.8485 C   0  0  0  0  0  0
  -24.1484  -36.7288   23.2631 C   0  0  0  0  0  0
  -25.9182  -30.8507   21.3455 C   0  0  0  0  0  0
  -25.9918  -29.4828   20.7038 C   0  0  0  0  0  0
  -27.1910  -28.7448   20.6876 C   0  0  0  0  0  0
  -26.0516  -26.9572   19.4905 C   0  0  0  0  0  0
  -24.8571  -27.6987   19.4978 C   0  0  0  0  0  0
  -23.6011  -29.8351   20.1557 C   0  0  0  0  0  0
  -25.4105  -36.3107   24.0341 C   0  0  1  0  0  0
  -20.5870  -28.3703   23.1306 C   0  0  2  0  0  0
  -20.6795  -26.9455   22.5389 C   0  0  0  0  0  0
  -19.5772  -26.6439   21.5193 C   0  0  0  0  0  0
  -18.1931  -26.7973   22.1600 C   0  0  0  0  0  0
  -19.1528  -28.8869   23.2912 C   0  0  0  0  0  0
  -18.9466  -30.1470   23.8927 C   0  0  0  0  0  0
  -17.6483  -30.6623   24.0589 C   0  0  0  0  0  0
  -25.9052  -34.9487   23.5089 C   0  0  0  0  0  0
  -16.5364  -29.9145   23.6344 C   0  0  0  0  0  0
  -16.7266  -28.6568   23.0345 C   0  0  0  0  0  0
  -26.4505  -31.6623   25.0663 C   0  0  0  0  0  0
  -25.3805  -31.3774   26.1435 C   0  0  0  0  0  0
  -27.0325  -30.3090   24.5974 C   0  0  0  0  0  0
  -27.6020  -32.4371   25.7498 C   0  0  0  0  0  0
  -27.5553  -37.1818   24.8464 C   0  0  0  0  0  0
  -21.4108  -29.3081   22.3710 N   0  0  0  0  0  0
  -26.4269  -37.3817   23.9414 N   0  0  0  0  0  0
  -24.6615  -31.0897   22.0909 N   0  0  0  0  0  0
  -23.4169  -28.8275   23.2961 O   0  0  0  0  0  0
  -28.3992  -26.7719   20.0686 O   0  0  0  0  0  0
  -26.5562  -34.8951   22.4628 O   0  0  0  0  0  0
  -23.5379  -32.1420   23.7542 O   0  0  0  0  0  0
  -32.2184  -20.8050   21.1778 C   0  0  0  0  0  0
  -29.5948  -19.9454   20.7436 C   0  0  0  0  0  0
  -31.4004  -21.5207   20.2846 C   0  0  0  0  0  0
  -31.7417  -19.6576   21.8482 C   0  0  0  0  0  0
  -30.0478  -21.1337   20.1398 C   0  0  0  0  0  0
  -30.4363  -19.1561   21.5654 C   0  0  0  0  0  0
  -31.9998  -22.6739   19.4907 C   0  0  0  0  0  0
  -32.6995  -18.9979   22.8308 C   0  0  0  0  0  0
  -29.0439  -22.0080   19.4109 C   0  0  0  0  0  0
  -30.8071  -16.6915   21.2727 C   0  0  0  0  0  0
  -28.3343  -24.3687   19.7071 C   0  0  0  0  0  0
  -28.3483  -25.5134   20.7293 C   0  0  0  0  0  0
  -29.9714  -17.7515   22.0150 C   0  0  1  0  0  0
  -30.3199  -15.3200   21.4132 N   0  0  0  0  0  0
  -28.6486  -23.0734   20.3449 N   0  3  0  0  0  0
  -30.1159  -17.5935   23.3297 F   0  0  0  0  0  0
  -28.2386  -17.4409   21.6646 Cl  0  0  0  0  0  0
  -31.4475  -12.2808   19.1446 H   0  0  0  0  0  0
  -30.2352  -11.2314   19.8185 H   0  0  0  0  0  0
  -29.7281  -11.8068   17.4152 H   0  0  0  0  0  0
  -29.6881  -13.5063   17.8276 H   0  0  0  0  0  0
  -27.8018  -11.3278   18.7947 H   0  0  0  0  0  0
  -27.3750  -12.6840   17.7847 H   0  0  0  0  0  0
  -27.7115  -14.2658   19.5860 H   0  0  0  0  0  0
  -28.6371  -11.9889   21.4051 H   0  0  0  0  0  0
  -28.4717  -13.6577   21.8518 H   0  0  0  0  0  0
  -25.2765   -9.5714   22.4704 H   0  0  0  0  0  0
  -24.0004   -7.4670   22.7463 H   0  0  0  0  0  0
  -21.0844   -8.8741   19.8927 H   0  0  0  0  0  0
  -22.3682  -10.9634   19.6109 H   0  0  0  0  0  0
  -21.2021   -7.6150   23.9703 H   0  0  0  0  0  0
  -21.1459   -6.0526   25.9066 H   0  0  0  0  0  0
  -22.0593   -2.7608   23.2866 H   0  0  0  0  0  0
  -22.4103  -11.9899   22.4817 H   0  0  0  0  0  0
  -21.1009  -13.1107   22.2464 H   0  0  0  0  0  0
  -24.6491  -15.8375   20.5570 H   0  0  0  0  0  0
  -26.2784  -15.6505   20.1377 H   0  0  0  0  0  0
  -26.7137  -32.5556   23.1114 H   0  0  0  0  0  0
  -25.0331  -33.9798   25.0602 H   0  0  0  0  0  0
  -22.6849  -31.3189   21.4096 H   0  0  0  0  0  0
  -23.3768  -35.9596   23.3301 H   0  0  0  0  0  0
  -24.3596  -36.8878   22.2036 H   0  0  0  0  0  0
  -23.7214  -37.6495   23.6633 H   0  0  0  0  0  0
  -26.0172  -31.6090   20.5681 H   0  0  0  0  0  0
  -26.8172  -30.9196   21.9448 H   0  0  0  0  0  0
  -28.0870  -29.1462   21.1399 H   0  0  0  0  0  0
  -26.0523  -25.9989   18.9965 H   0  0  0  0  0  0
  -23.9730  -27.2964   19.0201 H   0  0  0  0  0  0
  -23.7187  -30.6102   19.3975 H   0  0  0  0  0  0
  -22.7234  -29.2616   19.8540 H   0  0  0  0  0  0
  -25.1314  -36.1926   25.0848 H   0  0  0  0  0  0
  -20.9969  -28.3268   24.1432 H   0  0  0  0  0  0
  -20.5735  -26.2327   23.3575 H   0  0  0  0  0  0
  -21.6680  -26.7560   22.1172 H   0  0  0  0  0  0
  -19.6946  -25.6356   21.1227 H   0  0  0  0  0  0
  -19.6708  -27.3252   20.6725 H   0  0  0  0  0  0
  -17.4228  -26.6718   21.3970 H   0  0  0  0  0  0
  -18.0320  -26.0120   22.9003 H   0  0  0  0  0  0
  -19.7955  -30.7262   24.2292 H   0  0  0  0  0  0
  -17.5074  -31.6290   24.5211 H   0  0  0  0  0  0
  -15.5386  -30.3086   23.7663 H   0  0  0  0  0  0
  -15.8655  -28.0924   22.7024 H   0  0  0  0  0  0
  -24.5952  -30.7115   25.7856 H   0  0  0  0  0  0
  -24.9043  -32.2953   26.4862 H   0  0  0  0  0  0
  -25.8209  -30.9012   27.0192 H   0  0  0  0  0  0
  -26.2826  -29.6887   24.1024 H   0  0  0  0  0  0
  -27.4150  -29.7285   25.4374 H   0  0  0  0  0  0
  -27.8658  -30.4482   23.9081 H   0  0  0  0  0  0
  -27.2538  -33.3655   26.2039 H   0  0  0  0  0  0
  -28.3884  -32.6929   25.0397 H   0  0  0  0  0  0
  -28.0603  -31.8527   26.5478 H   0  0  0  0  0  0
  -28.2599  -38.0098   24.7549 H   0  0  0  0  0  0
  -28.1030  -36.2640   24.6269 H   0  0  0  0  0  0
  -27.2286  -37.1422   25.8875 H   0  0  0  0  0  0
  -20.9230  -29.8832   21.6970 H   0  0  0  0  0  0
  -26.0130  -38.2889   24.1454 H   0  0  0  0  0  0
  -33.2346  -21.1362   21.3441 H   0  0  0  0  0  0
  -28.5787  -19.6505   20.5363 H   0  0  0  0  0  0
  -33.0338  -22.8731   19.7803 H   0  0  0  0  0  0
  -31.4390  -23.5985   19.6187 H   0  0  0  0  0  0
  -32.0120  -22.4242   18.4261 H   0  0  0  0  0  0
  -33.3129  -19.7520   23.3269 H   0  0  0  0  0  0
  -33.3740  -18.3076   22.3252 H   0  0  0  0  0  0
  -32.1930  -18.4688   23.6314 H   0  0  0  0  0  0
  -28.1612  -21.4415   19.1024 H   0  0  0  0  0  0
  -29.4898  -22.4066   18.4993 H   0  0  0  0  0  0
  -31.8586  -16.7395   21.5583 H   0  0  0  0  0  0
  -30.7762  -16.9408   20.2096 H   0  0  0  0  0  0
  -29.0737  -24.5825   18.9348 H   0  0  0  0  0  0
  -27.3695  -24.2911   19.2106 H   0  0  0  0  0  0
  -29.2453  -25.4600   21.3461 H   0  0  0  0  0  0
  -27.5058  -25.4367   21.4206 H   0  0  0  0  0  0
  -29.5028  -15.1531   21.9793 H   0  0  0  0  0  0
  -29.4337  -23.2018   20.9649 H   0  0  0  0  0  0
  -27.8776  -22.7537   20.9116 H   0  0  0  0  0  0
  1 25  1  0  0  0
  1 30  2  0  0  0
  1 84  1  0  0  0
  2  3  1  0  0  0
  2 25  1  0  0  0
  2 88  1  0  0  0
  2 89  1  0  0  0
  3  4  1  0  0  0
  3 90  1  0  0  0
  3 91  1  0  0  0
  4  5  1  0  0  0
  4 92  1  0  0  0
  4 93  1  0  0  0
  5  6  1  0  0  0
  5 26  1  0  0  0
  5 94  1  0  0  0
  6 25  1  0  0  0
  6 95  1  0  0  0
  6 96  1  0  0  0
  7  8  2  0  0  0
  7 26  1  0  0  0
  7 29  1  0  0  0
  8  9  1  0  0  0
  8 22  1  0  0  0
  9 10  1  0  0  0
  9 27  2  0  0  0
 10 11  2  0  0  0
 10 15  1  0  0  0
 11 12  1  0  0  0
 11 97  1  0  0  0
 12 13  2  0  0  0
 12 98  1  0  0  0
 13 14  1  0  0  0
 13 31  1  0  0  0
 14 15  2  0  0  0
 14 99  1  0  0  0
 15100  1  0  0  0
 16 17  2  0  0  0
 16 21  1  0  0  0
 16 31  1  0  0  0
 17 18  1  0  0  0
 17101  1  0  0  0
 18 19  2  0  0  0
 18102  1  0  0  0
 19 20  1  0  0  0
 19 24  1  0  0  0
 20 21  2  0  0  0
 20103  1  0  0  0
 21 23  1  0  0  0
 22 28  1  0  0  0
 22 32  2  0  0  0
 26 27  1  0  0  0
 28104  1  0  0  0
 28105  1  0  0  0
 29106  1  0  0  0
 29107  1  0  0  0
 33 34  1  0  0  0
 33 66  1  0  0  0
 33 70  2  0  0  0
 34 36  1  0  0  0
 34 59  1  0  0  0
 34108  1  0  0  0
 35 44  2  0  0  0
 35 45  1  0  0  0
 35 68  1  0  0  0
 36 56  1  0  0  0
 36109  1  0  0  0
 37 39  1  0  0  0
 37 47  1  0  0  0
 37 66  1  0  0  0
 37110  1  0  0  0
 38 43  2  0  0  0
 38 46  1  0  0  0
 38 47  1  0  0  0
 39 64  1  0  0  0
 39 67  2  0  0  0
 40 52  1  0  0  0
 40 53  2  0  0  0
 40 58  1  0  0  0
 41111  1  0  0  0
 41112  1  0  0  0
 41113  1  0  0  0
 41 48  1  0  0  0
 42 43  1  0  0  0
 42 66  1  0  0  0
 42114  1  0  0  0
 42115  1  0  0  0
 43 44  1  0  0  0
 44116  1  0  0  0
 45 46  2  0  0  0
 45117  1  0  0  0
 46118  1  0  0  0
 47119  1  0  0  0
 47120  1  0  0  0
 48 56  1  0  0  0
 48 65  1  0  0  0
 48121  1  0  0  0
 49 50  1  0  0  0
 49 53  1  0  0  0
 49 64  1  0  0  0
 49122  1  0  0  0
 50 51  1  0  0  0
 50123  1  0  0  0
 50124  1  0  0  0
 51 52  1  0  0  0
 51125  1  0  0  0
 51126  1  0  0  0
 52127  1  0  0  0
 52128  1  0  0  0
 53 54  1  0  0  0
 54 55  2  0  0  0
 54129  1  0  0  0
 55 57  1  0  0  0
 55130  1  0  0  0
 56 69  2  0  0  0
 57 58  2  0  0  0
 57131  1  0  0  0
 58132  1  0  0  0
 59 60  1  0  0  0
 59 61  1  0  0  0
 59 62  1  0  0  0
 60133  1  0  0  0
 60134  1  0  0  0
 60135  1  0  0  0
 61136  1  0  0  0
 61137  1  0  0  0
 61138  1  0  0  0
 62139  1  0  0  0
 62140  1  0  0  0
 62141  1  0  0  0
 63 65  1  0  0  0
 63142  1  0  0  0
 63143  1  0  0  0
 63144  1  0  0  0
 64145  1  0  0  0
 65146  1  0  0  0
 68 82  1  0  0  0
 71 73  2  0  0  0
 71 74  1  0  0  0
 71147  1  0  0  0
 72 75  2  0  0  0
 72 76  1  0  0  0
 72148  1  0  0  0
 73 75  1  0  0  0
 73 77  1  0  0  0
 74 76  2  0  0  0
 74 78  1  0  0  0
 75 79  1  0  0  0
 76 83  1  0  0  0
 77149  1  0  0  0
 77150  1  0  0  0
 77151  1  0  0  0
 78152  1  0  0  0
 78153  1  0  0  0
 78154  1  0  0  0
 79 85  1  0  0  0
 79155  1  0  0  0
 79156  1  0  0  0
 80 83  1  0  0  0
 80 84  1  0  0  0
 80157  1  0  0  0
 80158  1  0  0  0
 81 82  1  0  0  0
 81 85  1  0  0  0
 81159  1  0  0  0
 81160  1  0  0  0
 82161  1  0  0  0
 82162  1  0  0  0
 83 86  1  0  0  0
 83 87  1  0  0  0
 84163  1  0  0  0
 85164  1  0  0  0
 85165  1  0  0  0
M  CHG  1  85   1
M  ISO  4   1 100  68 101  82 101  84 100
M  END
> <chiral flag>
0

> <version>
0

> <s_m_source_file>
/data/baiqing/PycharmProjects/Reinvent-master-3.2/result/LINK_invent/BTK/process_docking_weight1_custom_product_contain_oxygen_bond_distance_aromatic_linkinvent_7_9_3/rearranged_h_0037.sdf

> <i_m_source_file_index>
39

> <r_mmod_Potential_Energy-OPLS-2005>
-256.662445068359

> <r_mmod_Stretch_Energy-OPLS-2005>
34.8800086975098

> <r_mmod_Bend_Energy-OPLS-2005>
98.2221603393555

> <r_mmod_Torsional_Energy-OPLS-2005>
237.302917480469

> <r_mmod_Improper_Torsional_Energy-OPLS-2005>
3.05596375465393

> <r_mmod_Van_der_Waal_Energy-OPLS-2005>
166.345596313477

> <r_mmod_Electrostatic_Energy-OPLS-2005>
-376.680969238281

> <r_mmod_Solvation_Energy-OPLS-2005>
-430.138793945312

> <b_mmod_Minimization_Converged-OPLS-2005>
0

> <r_mmod_RMS_Derivative-OPLS-2005>
4.56675243377686

$$$$
39
                    3D
 Structure written by MMmdl.
164173  0  0  1  0            999 V2000
  -30.6598  -14.4969   20.5896 C   0  0  0  0  0  0
  -30.4386  -12.3288   19.4203 C   0  0  0  0  0  0
  -29.5018  -12.5266   18.2088 C   0  0  0  0  0  0
  -28.0221  -12.3737   18.6170 C   0  0  0  0  0  0
  -27.6655  -13.1975   19.8823 C   0  0  2  0  0  0
  -28.7062  -12.9538   20.9980 C   0  0  0  0  0  0
  -25.2603  -13.8132   20.5647 C   0  0  0  0  0  0
  -24.1846  -13.0425   20.9155 C   0  0  0  0  0  0
  -24.6385  -11.6889   20.8729 C   0  0  0  0  0  0
  -23.9041  -10.4289   21.0404 C   0  0  0  0  0  0
  -24.3599   -9.4201   21.9173 C   0  0  0  0  0  0
  -23.6280   -8.2234   22.0744 C   0  0  0  0  0  0
  -22.4260   -8.0274   21.3539 C   0  0  0  0  0  0
  -21.9896   -9.0244   20.4638 C   0  0  0  0  0  0
  -22.7219  -10.2124   20.3046 C   0  0  0  0  0  0
  -21.6849   -6.0728   22.5279 C   0  0  0  0  0  0
  -21.4015   -6.5637   23.8213 C   0  0  0  0  0  0
  -21.3659   -5.6788   24.9172 C   0  0  0  0  0  0
  -21.6044   -4.3051   24.7221 C   0  0  0  0  0  0
  -21.8819   -3.8139   23.4341 C   0  0  0  0  0  0
  -21.9190   -4.6956   22.3399 C   0  0  0  0  0  0
  -22.7872  -13.5237   21.1827 C   0  0  0  0  0  0
  -22.1655   -4.2141   21.0975 F   0  0  0  0  0  0
  -21.5631   -3.4533   25.7732 F   0  0  0  0  0  0
  -30.0391  -13.2896   20.4605 N   0  0  0  0  0  0
  -26.3039  -12.9275   20.3372 N   0  0  0  0  0  0
  -25.9309  -11.6448   20.5760 N   0  0  0  0  0  0
  -22.0508  -12.8234   22.0389 N   0  0  0  0  0  0
  -25.4363  -15.1841   20.4020 N   0  0  0  0  0  0
  -31.7599  -14.7477   20.0880 O   0  0  0  0  0  0
  -21.6629   -6.8865   21.4240 O   0  0  0  0  0  0
  -22.3559  -14.5547   20.6688 O   0  0  0  0  0  0
  -24.6177  -31.8666   23.2094 C   0  0  0  0  0  0
  -25.9067  -32.4808   23.8391 C   0  0  1  0  0  0
  -27.2359  -27.4095   20.0823 C   0  0  0  0  0  0
  -25.5923  -33.8606   24.2326 N   0  0  0  0  0  0
  -23.4055  -30.4914   21.5512 C   0  0  2  0  0  0
  -24.8504  -28.9583   20.1128 C   0  0  0  0  0  0
  -22.7420  -29.4656   22.4990 C   0  0  0  0  0  0
  -18.0271  -28.1376   22.8500 C   0  0  0  0  0  0
  -24.1497  -36.7308   23.2634 C   0  0  0  0  0  0
  -25.9388  -30.8226   21.3672 C   0  0  0  0  0  0
  -26.0136  -29.4561   20.7112 C   0  0  0  0  0  0
  -27.2036  -28.6866   20.6990 C   0  0  0  0  0  0
  -26.0373  -26.9259   19.5028 C   0  0  0  0  0  0
  -24.8585  -27.6925   19.5086 C   0  0  0  0  0  0
  -23.6142  -29.8273   20.1649 C   0  0  0  0  0  0
  -25.4112  -36.3097   24.0341 C   0  0  1  0  0  0
  -20.5862  -28.3665   23.1323 C   0  0  2  0  0  0
  -20.6767  -26.9407   22.5414 C   0  0  0  0  0  0
  -19.5749  -26.6388   21.5211 C   0  0  0  0  0  0
  -18.1926  -26.7930   22.1620 C   0  0  0  0  0  0
  -19.1517  -28.8837   23.2910 C   0  0  0  0  0  0
  -18.9442  -30.1444   23.8920 C   0  0  0  0  0  0
  -17.6443  -30.6588   24.0558 C   0  0  0  0  0  0
  -25.9046  -34.9465   23.5126 C   0  0  0  0  0  0
  -16.5334  -29.9085   23.6328 C   0  0  0  0  0  0
  -16.7258  -28.6495   23.0364 C   0  0  0  0  0  0
  -26.4480  -31.6584   25.0721 C   0  0  0  0  0  0
  -25.3746  -31.3682   26.1464 C   0  0  0  0  0  0
  -27.0286  -30.3020   24.6097 C   0  0  0  0  0  0
  -27.6072  -32.4286   25.7477 C   0  0  0  0  0  0
  -27.5586  -37.1805   24.8461 C   0  0  0  0  0  0
  -21.4145  -29.3033   22.3729 N   0  0  0  0  0  0
  -26.4293  -37.3786   23.9413 N   0  0  0  0  0  0
  -24.6723  -31.0754   22.1002 N   0  0  0  0  0  0
  -23.4188  -28.8206   23.3040 O   0  0  0  0  0  0
  -28.4080  -26.6633   20.1188 O   0  0  0  0  0  0
  -26.5599  -34.8921   22.4681 O   0  0  0  0  0  0
  -23.5365  -32.1427   23.7481 O   0  0  0  0  0  0
  -30.0007  -19.0091   22.2954 C   0  0  0  0  0  0
  -29.3765  -19.6594   21.2064 C   0  0  0  0  0  0
  -29.1257  -18.9037   20.0277 C   0  0  0  0  0  0
  -29.9414  -16.8455   21.1395 C   0  0  0  0  0  0
  -30.2723  -17.6242   22.2714 C   0  0  0  0  0  0
  -29.3935  -17.5011   20.0025 C   0  0  0  0  0  0
  -28.7619  -23.2758   20.2282 C   0  0  0  0  0  0
  -31.6780  -23.4588   20.2717 C   0  0  0  0  0  0
  -30.8452  -24.7438   20.1864 C   0  0  0  0  0  0
  -30.9364  -22.3389   21.0296 C   0  0  0  0  0  0
  -29.5099  -24.4257   19.5028 C   0  0  2  0  0  0
  -28.4740  -19.5786   18.8266 C   0  0  0  0  0  0
  -28.8230  -21.0902   21.4152 C   0  0  0  0  0  0
  -28.6737  -25.6816   19.0916 C   0  0  0  0  0  0
  -29.4889  -22.2438   20.7586 N   0  0  0  0  0  0
  -29.9412  -15.4154   21.2619 N   0  0  0  0  0  0
  -27.5276  -23.2976   20.2587 O   0  0  0  0  0  0
  -30.9269  -16.8783   23.6886 Cl  0  0  0  0  0  0
  -28.9320  -16.5664   18.6155 Cl  0  0  0  0  0  0
  -31.4794  -12.4577   19.1194 H   0  0  0  0  0  0
  -30.3641  -11.3089   19.8025 H   0  0  0  0  0  0
  -29.7486  -11.8144   17.4202 H   0  0  0  0  0  0
  -29.6608  -13.5196   17.7843 H   0  0  0  0  0  0
  -27.8338  -11.3156   18.8007 H   0  0  0  0  0  0
  -27.3725  -12.6580   17.7885 H   0  0  0  0  0  0
  -27.7140  -14.2486   19.6038 H   0  0  0  0  0  0
  -28.6894  -11.9062   21.3027 H   0  0  0  0  0  0
  -28.4503  -13.5114   21.8992 H   0  0  0  0  0  0
  -25.2746   -9.5680   22.4743 H   0  0  0  0  0  0
  -23.9986   -7.4631   22.7468 H   0  0  0  0  0  0
  -21.0817   -8.8757   19.8954 H   0  0  0  0  0  0
  -22.3670  -10.9655   19.6152 H   0  0  0  0  0  0
  -21.2012   -7.6149   23.9712 H   0  0  0  0  0  0
  -21.1485   -6.0517   25.9074 H   0  0  0  0  0  0
  -22.0601   -2.7601   23.2836 H   0  0  0  0  0  0
  -22.4110  -11.9877   22.4761 H   0  0  0  0  0  0
  -21.1135  -13.1277   22.2623 H   0  0  0  0  0  0
  -24.6686  -15.8404   20.4905 H   0  0  0  0  0  0
  -26.2849  -15.6109   20.0530 H   0  0  0  0  0  0
  -26.7136  -32.5506   23.1151 H   0  0  0  0  0  0
  -25.0097  -33.9762   25.0488 H   0  0  0  0  0  0
  -22.6950  -31.3091   21.4139 H   0  0  0  0  0  0
  -23.3753  -35.9647   23.3284 H   0  0  0  0  0  0
  -24.3607  -36.8924   22.2052 H   0  0  0  0  0  0
  -23.7255  -37.6514   23.6651 H   0  0  0  0  0  0
  -26.0572  -31.5887   20.5997 H   0  0  0  0  0  0
  -26.8254  -30.8720   21.9882 H   0  0  0  0  0  0
  -28.0991  -29.0688   21.1691 H   0  0  0  0  0  0
  -25.9576  -25.9415   19.0707 H   0  0  0  0  0  0
  -23.9592  -27.2941   19.0597 H   0  0  0  0  0  0
  -23.7216  -30.6034   19.4062 H   0  0  0  0  0  0
  -22.7380  -29.2474   19.8693 H   0  0  0  0  0  0
  -25.1287  -36.1950   25.0835 H   0  0  0  0  0  0
  -20.9953  -28.3219   24.1444 H   0  0  0  0  0  0
  -20.5678  -26.2267   23.3592 H   0  0  0  0  0  0
  -21.6636  -26.7460   22.1197 H   0  0  0  0  0  0
  -19.6908  -25.6298   21.1244 H   0  0  0  0  0  0
  -19.6704  -27.3196   20.6741 H   0  0  0  0  0  0
  -17.4203  -26.6687   21.4013 H   0  0  0  0  0  0
  -18.0327  -26.0063   22.9005 H   0  0  0  0  0  0
  -19.7912  -30.7253   24.2315 H   0  0  0  0  0  0
  -17.4993  -31.6280   24.5133 H   0  0  0  0  0  0
  -15.5336  -30.2989   23.7640 H   0  0  0  0  0  0
  -15.8655  -28.0807   22.7092 H   0  0  0  0  0  0
  -24.5952  -30.6990   25.7794 H   0  0  0  0  0  0
  -24.8897  -32.2822   26.4901 H   0  0  0  0  0  0
  -25.8107  -30.8866   27.0225 H   0  0  0  0  0  0
  -26.2807  -29.6806   24.1154 H   0  0  0  0  0  0
  -27.4030  -29.7239   25.4553 H   0  0  0  0  0  0
  -27.8670  -30.4308   23.9251 H   0  0  0  0  0  0
  -27.2715  -33.3587   26.2071 H   0  0  0  0  0  0
  -28.3876  -32.6826   25.0292 H   0  0  0  0  0  0
  -28.0747  -31.8389   26.5370 H   0  0  0  0  0  0
  -28.2583  -38.0120   24.7526 H   0  0  0  0  0  0
  -28.1099  -36.2652   24.6252 H   0  0  0  0  0  0
  -27.2320  -37.1411   25.8867 H   0  0  0  0  0  0
  -20.9306  -29.8741   21.6940 H   0  0  0  0  0  0
  -26.0174  -38.2862   24.1406 H   0  0  0  0  0  0
  -30.2041  -19.5591   23.2036 H   0  0  0  0  0  0
  -32.6385  -23.6596   20.7471 H   0  0  0  0  0  0
  -31.9117  -23.1141   19.2630 H   0  0  0  0  0  0
  -31.3889  -25.4986   19.6168 H   0  0  0  0  0  0
  -30.6738  -25.1625   21.1793 H   0  0  0  0  0  0
  -31.0558  -22.5029   22.1017 H   0  0  0  0  0  0
  -31.4217  -21.3863   20.8144 H   0  0  0  0  0  0
  -29.7656  -23.9684   18.5457 H   0  0  0  0  0  0
  -28.7947  -20.6134   18.7261 H   0  0  0  0  0  0
  -27.3890  -19.5659   18.9305 H   0  0  0  0  0  0
  -28.7339  -19.0952   17.8861 H   0  0  0  0  0  0
  -28.8014  -21.3030   22.4855 H   0  0  0  0  0  0
  -27.7697  -21.0392   21.1364 H   0  0  0  0  0  0
  -27.7957  -25.3216   18.5658 H   0  0  0  0  0  0
  -29.2334  -26.2132   18.3218 H   0  0  0  0  0  0
  -29.1381  -15.0373   21.7381 H   0  0  0  0  0  0
  1 25  1  0  0  0
  1 30  2  0  0  0
  1 86  1  0  0  0
  2  3  1  0  0  0
  2 25  1  0  0  0
  2 90  1  0  0  0
  2 91  1  0  0  0
  3  4  1  0  0  0
  3 92  1  0  0  0
  3 93  1  0  0  0
  4  5  1  0  0  0
  4 94  1  0  0  0
  4 95  1  0  0  0
  5  6  1  0  0  0
  5 26  1  0  0  0
  5 96  1  0  0  0
  6 25  1  0  0  0
  6 97  1  0  0  0
  6 98  1  0  0  0
  7  8  2  0  0  0
  7 26  1  0  0  0
  7 29  1  0  0  0
  8  9  1  0  0  0
  8 22  1  0  0  0
  9 10  1  0  0  0
  9 27  2  0  0  0
 10 11  2  0  0  0
 10 15  1  0  0  0
 11 12  1  0  0  0
 11 99  1  0  0  0
 12 13  2  0  0  0
 12100  1  0  0  0
 13 14  1  0  0  0
 13 31  1  0  0  0
 14 15  2  0  0  0
 14101  1  0  0  0
 15102  1  0  0  0
 16 17  2  0  0  0
 16 21  1  0  0  0
 16 31  1  0  0  0
 17 18  1  0  0  0
 17103  1  0  0  0
 18 19  2  0  0  0
 18104  1  0  0  0
 19 20  1  0  0  0
 19 24  1  0  0  0
 20 21  2  0  0  0
 20105  1  0  0  0
 21 23  1  0  0  0
 22 28  1  0  0  0
 22 32  2  0  0  0
 26 27  1  0  0  0
 28106  1  0  0  0
 28107  1  0  0  0
 29108  1  0  0  0
 29109  1  0  0  0
 33 34  1  0  0  0
 33 66  1  0  0  0
 33 70  2  0  0  0
 34 36  1  0  0  0
 34 59  1  0  0  0
 34110  1  0  0  0
 35 44  2  0  0  0
 35 45  1  0  0  0
 35 68  1  0  0  0
 36 56  1  0  0  0
 36111  1  0  0  0
 37 39  1  0  0  0
 37 47  1  0  0  0
 37 66  1  0  0  0
 37112  1  0  0  0
 38 43  2  0  0  0
 38 46  1  0  0  0
 38 47  1  0  0  0
 39 64  1  0  0  0
 39 67  2  0  0  0
 40 52  1  0  0  0
 40 53  2  0  0  0
 40 58  1  0  0  0
 41113  1  0  0  0
 41114  1  0  0  0
 41115  1  0  0  0
 41 48  1  0  0  0
 42 43  1  0  0  0
 42 66  1  0  0  0
 42116  1  0  0  0
 42117  1  0  0  0
 43 44  1  0  0  0
 44118  1  0  0  0
 45 46  2  0  0  0
 45119  1  0  0  0
 46120  1  0  0  0
 47121  1  0  0  0
 47122  1  0  0  0
 48 56  1  0  0  0
 48 65  1  0  0  0
 48123  1  0  0  0
 49 50  1  0  0  0
 49 53  1  0  0  0
 49 64  1  0  0  0
 49124  1  0  0  0
 50 51  1  0  0  0
 50125  1  0  0  0
 50126  1  0  0  0
 51 52  1  0  0  0
 51127  1  0  0  0
 51128  1  0  0  0
 52129  1  0  0  0
 52130  1  0  0  0
 53 54  1  0  0  0
 54 55  2  0  0  0
 54131  1  0  0  0
 55 57  1  0  0  0
 55132  1  0  0  0
 56 69  2  0  0  0
 57 58  2  0  0  0
 57133  1  0  0  0
 58134  1  0  0  0
 59 60  1  0  0  0
 59 61  1  0  0  0
 59 62  1  0  0  0
 60135  1  0  0  0
 60136  1  0  0  0
 60137  1  0  0  0
 61138  1  0  0  0
 61139  1  0  0  0
 61140  1  0  0  0
 62141  1  0  0  0
 62142  1  0  0  0
 62143  1  0  0  0
 63 65  1  0  0  0
 63144  1  0  0  0
 63145  1  0  0  0
 63146  1  0  0  0
 64147  1  0  0  0
 65148  1  0  0  0
 68 84  1  0  0  0
 71 72  2  0  0  0
 71 75  1  0  0  0
 71149  1  0  0  0
 72 73  1  0  0  0
 72 83  1  0  0  0
 73 76  2  0  0  0
 73 82  1  0  0  0
 74 75  2  0  0  0
 74 76  1  0  0  0
 74 86  1  0  0  0
 75 88  1  0  0  0
 76 89  1  0  0  0
 77 81  1  0  0  0
 77 85  1  0  0  0
 77 87  2  0  0  0
 78 79  1  0  0  0
 78 80  1  0  0  0
 78150  1  0  0  0
 78151  1  0  0  0
 79 81  1  0  0  0
 79152  1  0  0  0
 79153  1  0  0  0
 80 85  1  0  0  0
 80154  1  0  0  0
 80155  1  0  0  0
 81 84  1  0  0  0
 81156  1  0  0  0
 82157  1  0  0  0
 82158  1  0  0  0
 82159  1  0  0  0
 83 85  1  0  0  0
 83160  1  0  0  0
 83161  1  0  0  0
 84162  1  0  0  0
 84163  1  0  0  0
 86164  1  0  0  0
M  ISO  4   1 100  68 101  84 101  86 100
M  END
> <chiral flag>
0

> <version>
0

> <s_m_source_file>
/data/baiqing/PycharmProjects/Reinvent-master-3.2/result/LINK_invent/BTK/process_docking_weight1_custom_product_contain_oxygen_bond_distance_aromatic_linkinvent_7_9_3/rearranged_h_0037.sdf

> <i_m_source_file_index>
40

> <r_mmod_Potential_Energy-OPLS-2005>
-8.83468055725098

> <r_mmod_Stretch_Energy-OPLS-2005>
50.1956748962402

> <r_mmod_Bend_Energy-OPLS-2005>
126.069076538086

> <r_mmod_Torsional_Energy-OPLS-2005>
271.591674804688

> <r_mmod_Improper_Torsional_Energy-OPLS-2005>
6.91130638122559

> <r_mmod_Van_der_Waal_Energy-OPLS-2005>
160.868804931641

> <r_mmod_Electrostatic_Energy-OPLS-2005>
-419.440612792969

> <r_mmod_Solvation_Energy-OPLS-2005>
-221.205337524414

> <b_mmod_Minimization_Converged-OPLS-2005>
0

> <r_mmod_RMS_Derivative-OPLS-2005>
1.30424225330353

$$$$
40
                    3D
 Structure written by MMmdl.
166175  0  0  1  0            999 V2000
  -30.6164  -14.7319   20.4669 C   0  0  0  0  0  0
  -30.4339  -12.4517   19.4609 C   0  0  0  0  0  0
  -29.5058  -12.5051   18.2284 C   0  0  0  0  0  0
  -28.0329  -12.3270   18.6467 C   0  0  0  0  0  0
  -27.6394  -13.2290   19.8466 C   0  0  2  0  0  0
  -28.6870  -13.1621   20.9785 C   0  0  0  0  0  0
  -25.2493  -13.8188   20.5675 C   0  0  0  0  0  0
  -24.1796  -13.0433   20.9226 C   0  0  0  0  0  0
  -24.6396  -11.6915   20.8773 C   0  0  0  0  0  0
  -23.9081  -10.4292   21.0424 C   0  0  0  0  0  0
  -24.3629   -9.4203   21.9196 C   0  0  0  0  0  0
  -23.6300   -8.2240   22.0756 C   0  0  0  0  0  0
  -22.4283   -8.0284   21.3546 C   0  0  0  0  0  0
  -21.9926   -9.0266   20.4655 C   0  0  0  0  0  0
  -22.7258  -10.2142   20.3069 C   0  0  0  0  0  0
  -21.6850   -6.0749   22.5284 C   0  0  0  0  0  0
  -21.4012   -6.5648   23.8221 C   0  0  0  0  0  0
  -21.3657   -5.6797   24.9181 C   0  0  0  0  0  0
  -21.6040   -4.3060   24.7227 C   0  0  0  0  0  0
  -21.8816   -3.8157   23.4345 C   0  0  0  0  0  0
  -21.9190   -4.6977   22.3405 C   0  0  0  0  0  0
  -22.7817  -13.5216   21.1883 C   0  0  0  0  0  0
  -22.1657   -4.2166   21.0982 F   0  0  0  0  0  0
  -21.5627   -3.4541   25.7739 F   0  0  0  0  0  0
  -29.9861  -13.5119   20.3902 N   0  0  0  0  0  0
  -26.2924  -12.9393   20.3274 N   0  0  0  0  0  0
  -25.9320  -11.6541   20.5767 N   0  0  0  0  0  0
  -22.0458  -12.8214   22.0439 N   0  0  0  0  0  0
  -25.4128  -15.1914   20.4011 N   0  0  0  0  0  0
  -31.8169  -14.8196   20.1937 O   0  0  0  0  0  0
  -21.6633   -6.8892   21.4246 O   0  0  0  0  0  0
  -22.3506  -14.5523   20.6723 O   0  0  0  0  0  0
  -24.6296  -31.8581   23.1979 C   0  0  0  0  0  0
  -25.9135  -32.4774   23.8321 C   0  0  1  0  0  0
  -27.2311  -27.2909   20.1292 C   0  0  0  0  0  0
  -25.5935  -33.8568   24.2269 N   0  0  0  0  0  0
  -23.4244  -30.4799   21.5398 C   0  0  2  0  0  0
  -24.8740  -28.9204   20.1173 C   0  0  0  0  0  0
  -22.7480  -29.4637   22.4903 C   0  0  0  0  0  0
  -18.0291  -28.1412   22.8505 C   0  0  0  0  0  0
  -24.1481  -36.7281   23.2637 C   0  0  0  0  0  0
  -25.9666  -30.7811   21.3708 C   0  0  0  0  0  0
  -26.0437  -29.4018   20.7195 C   0  0  0  0  0  0
  -27.2280  -28.6015   20.7092 C   0  0  0  0  0  0
  -26.0394  -26.8637   19.5072 C   0  0  0  0  0  0
  -24.8743  -27.6580   19.5014 C   0  0  0  0  0  0
  -23.6428  -29.8055   20.1596 C   0  0  0  0  0  0
  -25.4111  -36.3085   24.0327 C   0  0  1  0  0  0
  -20.5892  -28.3724   23.1278 C   0  0  2  0  0  0
  -20.6780  -26.9439   22.5421 C   0  0  0  0  0  0
  -19.5756  -26.6420   21.5222 C   0  0  0  0  0  0
  -18.1936  -26.7962   22.1634 C   0  0  0  0  0  0
  -19.1545  -28.8883   23.2895 C   0  0  0  0  0  0
  -18.9467  -30.1477   23.8917 C   0  0  0  0  0  0
  -17.6471  -30.6611   24.0576 C   0  0  0  0  0  0
  -25.9047  -34.9450   23.5098 C   0  0  0  0  0  0
  -16.5360  -29.9109   23.6336 C   0  0  0  0  0  0
  -16.7281  -28.6525   23.0366 C   0  0  0  0  0  0
  -26.4502  -31.6584   25.0696 C   0  0  0  0  0  0
  -25.3721  -31.3726   26.1421 C   0  0  0  0  0  0
  -27.0343  -30.3004   24.6152 C   0  0  0  0  0  0
  -27.6062  -32.4299   25.7478 C   0  0  0  0  0  0
  -27.5578  -37.1797   24.8468 C   0  0  0  0  0  0
  -21.4195  -29.3060   22.3651 N   0  0  0  0  0  0
  -26.4285  -37.3787   23.9412 N   0  0  0  0  0  0
  -24.6929  -31.0566   22.0939 N   0  0  0  0  0  0
  -23.4197  -28.8195   23.3005 O   0  0  0  0  0  0
  -28.3489  -26.4354   20.1085 O   0  0  0  0  0  0
  -26.5610  -34.8922   22.4660 O   0  0  0  0  0  0
  -23.5453  -32.1382   23.7293 O   0  0  0  0  0  0
  -30.8976  -20.0334   21.3172 C   0  0  0  0  0  0
  -31.3065  -17.6201   21.5290 C   0  0  0  0  0  0
  -31.6630  -18.9558   21.8104 C   0  0  0  0  0  0
  -29.7367  -19.8260   20.5415 C   0  0  0  0  0  0
  -29.3765  -18.4314   20.2803 C   0  0  0  0  0  0
  -30.1661  -17.2998   20.7622 C   0  0  0  0  0  0
  -28.8420  -23.7580   22.7977 C   0  0  0  0  0  0
  -28.9707  -25.0759   21.9975 C   0  0  0  0  0  0
  -28.4255  -22.5190   21.9680 C   0  0  0  0  0  0
  -28.7548  -23.7625   19.8355 C   0  0  0  0  0  0
  -28.2255  -25.0493   20.6580 C   0  0  2  0  0  0
  -32.8922  -19.2274   22.6564 C   0  0  0  0  0  0
  -28.1345  -18.1534   19.4486 C   0  0  0  0  0  0
  -28.9830  -21.1148   19.9549 C   0  0  0  0  0  0
  -29.8203  -15.8647   20.5816 N   0  0  0  0  0  0
  -29.0919  -22.4883   20.6454 N   0  3  2  0  0  0
  -31.4729  -12.5835   19.1539 H   0  0  0  0  0  0
  -30.3853  -11.4745   19.9436 H   0  0  0  0  0  0
  -29.7863  -11.7327   17.5114 H   0  0  0  0  0  0
  -29.6297  -13.4597   17.7153 H   0  0  0  0  0  0
  -27.8933  -11.2786   18.9119 H   0  0  0  0  0  0
  -27.3730  -12.5141   17.7992 H   0  0  0  0  0  0
  -27.6325  -14.2492   19.4625 H   0  0  0  0  0  0
  -28.7221  -12.1657   21.4211 H   0  0  0  0  0  0
  -28.4261  -13.8470   21.7872 H   0  0  0  0  0  0
  -25.2771   -9.5671   22.4776 H   0  0  0  0  0  0
  -24.0009   -7.4626   22.7464 H   0  0  0  0  0  0
  -21.0863   -8.8795   19.8955 H   0  0  0  0  0  0
  -22.3724  -10.9690   19.6184 H   0  0  0  0  0  0
  -21.2000   -7.6155   23.9733 H   0  0  0  0  0  0
  -21.1481   -6.0524   25.9087 H   0  0  0  0  0  0
  -22.0594   -2.7620   23.2840 H   0  0  0  0  0  0
  -22.4063  -11.9879   22.4838 H   0  0  0  0  0  0
  -21.1076  -13.1243   22.2633 H   0  0  0  0  0  0
  -24.6277  -15.8287   20.4829 H   0  0  0  0  0  0
  -26.2355  -15.6297   20.0103 H   0  0  0  0  0  0
  -26.7205  -32.5428   23.1070 H   0  0  0  0  0  0
  -25.0087  -33.9697   25.0421 H   0  0  0  0  0  0
  -22.7195  -31.3015   21.3901 H   0  0  0  0  0  0
  -23.3741  -35.9612   23.3304 H   0  0  0  0  0  0
  -24.3572  -36.8902   22.2052 H   0  0  0  0  0  0
  -23.7226  -37.6481   23.6656 H   0  0  0  0  0  0
  -26.0942  -31.5404   20.5974 H   0  0  0  0  0  0
  -26.8490  -30.8389   21.9973 H   0  0  0  0  0  0
  -28.1303  -28.9723   21.1749 H   0  0  0  0  0  0
  -26.0043  -25.8995   19.0202 H   0  0  0  0  0  0
  -23.9787  -27.2853   19.0246 H   0  0  0  0  0  0
  -23.7653  -30.5766   19.3983 H   0  0  0  0  0  0
  -22.7632  -29.2344   19.8580 H   0  0  0  0  0  0
  -25.1291  -36.1938   25.0818 H   0  0  0  0  0  0
  -20.9998  -28.3323   24.1395 H   0  0  0  0  0  0
  -20.5685  -26.2341   23.3636 H   0  0  0  0  0  0
  -21.6642  -26.7467   22.1209 H   0  0  0  0  0  0
  -19.6913  -25.6328   21.1258 H   0  0  0  0  0  0
  -19.6698  -27.3213   20.6730 H   0  0  0  0  0  0
  -17.4213  -26.6726   21.4033 H   0  0  0  0  0  0
  -18.0330  -26.0088   22.9012 H   0  0  0  0  0  0
  -19.7939  -30.7292   24.2306 H   0  0  0  0  0  0
  -17.5017  -31.6287   24.5179 H   0  0  0  0  0  0
  -15.5359  -30.3022   23.7647 H   0  0  0  0  0  0
  -15.8681  -28.0849   22.7079 H   0  0  0  0  0  0
  -24.5861  -30.7129   25.7733 H   0  0  0  0  0  0
  -24.8960  -32.2902   26.4887 H   0  0  0  0  0  0
  -25.8035  -30.8860   27.0175 H   0  0  0  0  0  0
  -26.2922  -29.6745   24.1189 H   0  0  0  0  0  0
  -27.4038  -29.7281   25.4669 H   0  0  0  0  0  0
  -27.8791  -30.4271   23.9368 H   0  0  0  0  0  0
  -27.2692  -33.3595   26.2078 H   0  0  0  0  0  0
  -28.3891  -32.6864   25.0325 H   0  0  0  0  0  0
  -28.0703  -31.8397   26.5393 H   0  0  0  0  0  0
  -28.2609  -38.0085   24.7525 H   0  0  0  0  0  0
  -28.1068  -36.2621   24.6292 H   0  0  0  0  0  0
  -27.2294  -37.1446   25.8871 H   0  0  0  0  0  0
  -20.9371  -29.8784   21.6861 H   0  0  0  0  0  0
  -26.0166  -38.2860   24.1417 H   0  0  0  0  0  0
  -31.2248  -21.0403   21.5388 H   0  0  0  0  0  0
  -31.9223  -16.8296   21.9348 H   0  0  0  0  0  0
  -28.1159  -23.8929   23.6002 H   0  0  0  0  0  0
  -29.7932  -23.5625   23.2932 H   0  0  0  0  0  0
  -30.0236  -25.2735   21.7952 H   0  0  0  0  0  0
  -28.6234  -25.9137   22.6035 H   0  0  0  0  0  0
  -27.3446  -22.5132   21.8183 H   0  0  0  0  0  0
  -28.6576  -21.6149   22.5322 H   0  0  0  0  0  0
  -29.6585  -24.0436   19.2959 H   0  0  0  0  0  0
  -28.0191  -23.5159   19.0689 H   0  0  0  0  0  0
  -27.1750  -24.8664   20.8878 H   0  0  0  0  0  0
  -32.9099  -20.2542   23.0242 H   0  0  0  0  0  0
  -33.7993  -19.0556   22.0761 H   0  0  0  0  0  0
  -32.9154  -18.5661   23.5226 H   0  0  0  0  0  0
  -27.2394  -18.2710   20.0599 H   0  0  0  0  0  0
  -28.1342  -17.1465   19.0329 H   0  0  0  0  0  0
  -28.0648  -18.8394   18.6040 H   0  0  0  0  0  0
  -27.9221  -20.8872   19.8494 H   0  0  0  0  0  0
  -29.3534  -21.2414   18.9368 H   0  0  0  0  0  0
  -28.8342  -15.6669   20.5549 H   0  0  0  0  0  0
  -30.0760  -22.5810   20.8478 H   0  0  0  0  0  0
  1 25  1  0  0  0
  1 30  2  0  0  0
  1 85  1  0  0  0
  2  3  1  0  0  0
  2 25  1  0  0  0
  2 87  1  0  0  0
  2 88  1  0  0  0
  3  4  1  0  0  0
  3 89  1  0  0  0
  3 90  1  0  0  0
  4  5  1  0  0  0
  4 91  1  0  0  0
  4 92  1  0  0  0
  5  6  1  0  0  0
  5 26  1  0  0  0
  5 93  1  0  0  0
  6 25  1  0  0  0
  6 94  1  0  0  0
  6 95  1  0  0  0
  7  8  2  0  0  0
  7 26  1  0  0  0
  7 29  1  0  0  0
  8  9  1  0  0  0
  8 22  1  0  0  0
  9 10  1  0  0  0
  9 27  2  0  0  0
 10 11  2  0  0  0
 10 15  1  0  0  0
 11 12  1  0  0  0
 11 96  1  0  0  0
 12 13  2  0  0  0
 12 97  1  0  0  0
 13 14  1  0  0  0
 13 31  1  0  0  0
 14 15  2  0  0  0
 14 98  1  0  0  0
 15 99  1  0  0  0
 16 17  2  0  0  0
 16 21  1  0  0  0
 16 31  1  0  0  0
 17 18  1  0  0  0
 17100  1  0  0  0
 18 19  2  0  0  0
 18101  1  0  0  0
 19 20  1  0  0  0
 19 24  1  0  0  0
 20 21  2  0  0  0
 20102  1  0  0  0
 21 23  1  0  0  0
 22 28  1  0  0  0
 22 32  2  0  0  0
 26 27  1  0  0  0
 28103  1  0  0  0
 28104  1  0  0  0
 29105  1  0  0  0
 29106  1  0  0  0
 33 34  1  0  0  0
 33 66  1  0  0  0
 33 70  2  0  0  0
 34 36  1  0  0  0
 34 59  1  0  0  0
 34107  1  0  0  0
 35 44  2  0  0  0
 35 45  1  0  0  0
 35 68  1  0  0  0
 36 56  1  0  0  0
 36108  1  0  0  0
 37 39  1  0  0  0
 37 47  1  0  0  0
 37 66  1  0  0  0
 37109  1  0  0  0
 38 43  2  0  0  0
 38 46  1  0  0  0
 38 47  1  0  0  0
 39 64  1  0  0  0
 39 67  2  0  0  0
 40 52  1  0  0  0
 40 53  2  0  0  0
 40 58  1  0  0  0
 41110  1  0  0  0
 41111  1  0  0  0
 41112  1  0  0  0
 41 48  1  0  0  0
 42 43  1  0  0  0
 42 66  1  0  0  0
 42113  1  0  0  0
 42114  1  0  0  0
 43 44  1  0  0  0
 44115  1  0  0  0
 45 46  2  0  0  0
 45116  1  0  0  0
 46117  1  0  0  0
 47118  1  0  0  0
 47119  1  0  0  0
 48 56  1  0  0  0
 48 65  1  0  0  0
 48120  1  0  0  0
 49 50  1  0  0  0
 49 53  1  0  0  0
 49 64  1  0  0  0
 49121  1  0  0  0
 50 51  1  0  0  0
 50122  1  0  0  0
 50123  1  0  0  0
 51 52  1  0  0  0
 51124  1  0  0  0
 51125  1  0  0  0
 52126  1  0  0  0
 52127  1  0  0  0
 53 54  1  0  0  0
 54 55  2  0  0  0
 54128  1  0  0  0
 55 57  1  0  0  0
 55129  1  0  0  0
 56 69  2  0  0  0
 57 58  2  0  0  0
 57130  1  0  0  0
 58131  1  0  0  0
 59 60  1  0  0  0
 59 61  1  0  0  0
 59 62  1  0  0  0
 60132  1  0  0  0
 60133  1  0  0  0
 60134  1  0  0  0
 61135  1  0  0  0
 61136  1  0  0  0
 61137  1  0  0  0
 62138  1  0  0  0
 62139  1  0  0  0
 62140  1  0  0  0
 63 65  1  0  0  0
 63141  1  0  0  0
 63142  1  0  0  0
 63143  1  0  0  0
 64144  1  0  0  0
 65145  1  0  0  0
 68 81  1  0  0  0
 71 73  2  0  0  0
 71 74  1  0  0  0
 71146  1  0  0  0
 72 73  1  0  0  0
 72 76  2  0  0  0
 72147  1  0  0  0
 73 82  1  0  0  0
 74 75  2  0  0  0
 74 84  1  0  0  0
 75 76  1  0  0  0
 75 83  1  0  0  0
 76 85  1  0  0  0
 77 78  1  0  0  0
 77 79  1  0  0  0
 77148  1  0  0  0
 77149  1  0  0  0
 78 81  1  0  0  0
 78150  1  0  0  0
 78151  1  0  0  0
 79 86  1  0  0  0
 79152  1  0  0  0
 79153  1  0  0  0
 80 81  1  0  0  0
 80 86  1  0  0  0
 80154  1  0  0  0
 80155  1  0  0  0
 81156  1  0  0  0
 82157  1  0  0  0
 82158  1  0  0  0
 82159  1  0  0  0
 83160  1  0  0  0
 83161  1  0  0  0
 83162  1  0  0  0
 84163  1  0  0  0
 84164  1  0  0  0
 84 86  1  0  0  0
 85165  1  0  0  0
 86166  1  0  0  0
M  CHG  1  86   1
M  ISO  4   1 100  68 101  81 101  85 100
M  END
> <chiral flag>
0

> <version>
0

> <s_m_source_file>
/data/baiqing/PycharmProjects/Reinvent-master-3.2/result/LINK_invent/BTK/process_docking_weight1_custom_product_contain_oxygen_bond_distance_aromatic_linkinvent_7_9_3/rearranged_h_0037.sdf

> <i_m_source_file_index>
41

> <r_mmod_Potential_Energy-OPLS-2005>
91.4553298950195

> <r_mmod_Stretch_Energy-OPLS-2005>
120.551055908203

> <r_mmod_Bend_Energy-OPLS-2005>
154.095291137695

> <r_mmod_Torsional_Energy-OPLS-2005>
290.110565185547

> <r_mmod_Improper_Torsional_Energy-OPLS-2005>
6.93527698516846

> <r_mmod_Van_der_Waal_Energy-OPLS-2005>
137.166900634766

> <r_mmod_Electrostatic_Energy-OPLS-2005>
-264.530303955078

> <r_mmod_Solvation_Energy-OPLS-2005>
-426.075469970703

> <b_mmod_Minimization_Converged-OPLS-2005>
0

> <r_mmod_RMS_Derivative-OPLS-2005>
2.02912616729736

$$$$
41
                    3D
 Structure written by MMmdl.
174183  0  0  1  0            999 V2000
  -30.6788  -14.5748   20.5175 C   0  0  0  0  0  0
  -30.4199  -12.3567   19.4473 C   0  0  0  0  0  0
  -29.4973  -12.5008   18.2190 C   0  0  0  0  0  0
  -28.0196  -12.3539   18.6307 C   0  0  0  0  0  0
  -27.6510  -13.2205   19.8648 C   0  0  2  0  0  0
  -28.6961  -13.0739   20.9941 C   0  0  0  0  0  0
  -25.2525  -13.8169   20.5683 C   0  0  0  0  0  0
  -24.1816  -13.0424   20.9216 C   0  0  0  0  0  0
  -24.6404  -11.6904   20.8768 C   0  0  0  0  0  0
  -23.9081  -10.4284   21.0426 C   0  0  0  0  0  0
  -24.3631   -9.4196   21.9200 C   0  0  0  0  0  0
  -23.6304   -8.2233   22.0765 C   0  0  0  0  0  0
  -22.4288   -8.0280   21.3549 C   0  0  0  0  0  0
  -21.9929   -9.0253   20.4644 C   0  0  0  0  0  0
  -22.7260  -10.2133   20.3063 C   0  0  0  0  0  0
  -21.6845   -6.0741   22.5284 C   0  0  0  0  0  0
  -21.4000   -6.5647   23.8219 C   0  0  0  0  0  0
  -21.3660   -5.6802   24.9180 C   0  0  0  0  0  0
  -21.6052   -4.3065   24.7229 C   0  0  0  0  0  0
  -21.8818   -3.8154   23.4347 C   0  0  0  0  0  0
  -21.9189   -4.6970   22.3401 C   0  0  0  0  0  0
  -22.7837  -13.5210   21.1868 C   0  0  0  0  0  0
  -22.1661   -4.2159   21.0978 F   0  0  0  0  0  0
  -21.5638   -3.4546   25.7740 F   0  0  0  0  0  0
  -30.0145  -13.3851   20.4238 N   0  0  0  0  0  0
  -26.2972  -12.9376   20.3339 N   0  0  0  0  0  0
  -25.9333  -11.6522   20.5790 N   0  0  0  0  0  0
  -22.0483  -12.8185   22.0418 N   0  0  0  0  0  0
  -25.4166  -15.1881   20.4039 N   0  0  0  0  0  0
  -31.8424  -14.6846   20.1214 O   0  0  0  0  0  0
  -21.6638   -6.8886   21.4249 O   0  0  0  0  0  0
  -22.3525  -14.5520   20.6722 O   0  0  0  0  0  0
  -24.6233  -31.8643   23.2071 C   0  0  0  0  0  0
  -25.9098  -32.4795   23.8377 C   0  0  1  0  0  0
  -27.2214  -27.3589   20.0830 C   0  0  0  0  0  0
  -25.5930  -33.8594   24.2299 N   0  0  0  0  0  0
  -23.4119  -30.4910   21.5529 C   0  0  2  0  0  0
  -24.8515  -28.9507   20.1182 C   0  0  0  0  0  0
  -22.7444  -29.4651   22.4989 C   0  0  0  0  0  0
  -18.0273  -28.1383   22.8504 C   0  0  0  0  0  0
  -24.1481  -36.7297   23.2643 C   0  0  0  0  0  0
  -25.9516  -30.8046   21.3716 C   0  0  0  0  0  0
  -26.0230  -29.4354   20.7123 C   0  0  0  0  0  0
  -27.2092  -28.6496   20.6881 C   0  0  0  0  0  0
  -26.0082  -26.9030   19.5113 C   0  0  0  0  0  0
  -24.8417  -27.6843   19.5194 C   0  0  0  0  0  0
  -23.6212  -29.8291   20.1678 C   0  0  0  0  0  0
  -25.4110  -36.3093   24.0332 C   0  0  1  0  0  0
  -20.5873  -28.3677   23.1305 C   0  0  2  0  0  0
  -20.6767  -26.9409   22.5415 C   0  0  0  0  0  0
  -19.5733  -26.6391   21.5224 C   0  0  0  0  0  0
  -18.1912  -26.7925   22.1640 C   0  0  0  0  0  0
  -19.1528  -28.8848   23.2893 C   0  0  0  0  0  0
  -18.9456  -30.1458   23.8893 C   0  0  0  0  0  0
  -17.6459  -30.6588   24.0574 C   0  0  0  0  0  0
  -25.9048  -34.9460   23.5112 C   0  0  0  0  0  0
  -16.5347  -29.9089   23.6338 C   0  0  0  0  0  0
  -16.7262  -28.6507   23.0355 C   0  0  0  0  0  0
  -26.4494  -31.6592   25.0734 C   0  0  0  0  0  0
  -25.3737  -31.3700   26.1465 C   0  0  0  0  0  0
  -27.0360  -30.3029   24.6163 C   0  0  0  0  0  0
  -27.6034  -32.4339   25.7514 C   0  0  0  0  0  0
  -27.5566  -37.1810   24.8467 C   0  0  0  0  0  0
  -21.4166  -29.3044   22.3716 N   0  0  0  0  0  0
  -26.4283  -37.3792   23.9409 N   0  0  0  0  0  0
  -24.6817  -31.0687   22.1005 N   0  0  0  0  0  0
  -23.4188  -28.8179   23.3045 O   0  0  0  0  0  0
  -28.3837  -26.5770   20.0815 O   0  0  0  0  0  0
  -26.5619  -34.8917   22.4678 O   0  0  0  0  0  0
  -23.5405  -32.1416   23.7431 O   0  0  0  0  0  0
  -31.2122  -19.7860   21.1291 C   0  0  0  0  0  0
  -31.6639  -17.3951   21.3269 C   0  0  0  0  0  0
  -29.8725  -19.5413   20.7468 C   0  0  0  0  0  0
  -29.4425  -18.1636   20.6647 C   0  0  0  0  0  0
  -30.3454  -17.0705   20.9312 C   0  0  0  0  0  0
  -32.0916  -18.7294   21.4201 C   0  0  0  0  0  0
  -28.7250  -23.2815   21.0670 C   0  0  0  0  0  0
  -28.8926  -23.6154   22.3617 C   0  0  0  0  0  0
  -29.7911  -22.9447   23.2858 C   0  0  0  0  0  0
  -29.9958  -23.3784   24.5391 C   0  0  0  0  0  0
  -27.8203  -24.0448   20.0797 C   0  0  0  0  0  0
  -30.7420  -23.9608   19.1834 C   0  0  0  0  0  0
  -29.7925  -25.0655   18.6549 C   0  0  0  0  0  0
  -30.1651  -22.5151   19.1625 C   0  0  0  0  0  0
  -28.4248  -25.3032   19.3559 C   0  0  2  0  0  0
  -28.0001  -17.8599   20.2793 C   0  0  0  0  0  0
  -30.9421  -22.7200   25.5195 C   0  0  0  0  0  0
  -28.9134  -20.7554   20.4838 C   0  0  0  0  0  0
  -29.9388  -15.6703   20.8633 N   0  0  0  0  0  0
  -29.5174  -22.1429   20.4490 N   0  3  2  0  0  0
  -33.7094  -19.0760   21.9073 Cl  0  0  0  0  0  0
  -31.4645  -12.4505   19.1451 H   0  0  0  0  0  0
  -30.3251  -11.3629   19.8875 H   0  0  0  0  0  0
  -29.7501  -11.7531   17.4664 H   0  0  0  0  0  0
  -29.6536  -13.4737   17.7498 H   0  0  0  0  0  0
  -27.8424  -11.3012   18.8537 H   0  0  0  0  0  0
  -27.3684  -12.5993   17.7914 H   0  0  0  0  0  0
  -27.6713  -14.2568   19.5285 H   0  0  0  0  0  0
  -28.6932  -12.0575   21.3928 H   0  0  0  0  0  0
  -28.4546  -13.7249   21.8360 H   0  0  0  0  0  0
  -25.2774   -9.5668   22.4780 H   0  0  0  0  0  0
  -24.0007   -7.4622   22.7489 H   0  0  0  0  0  0
  -21.0867   -8.8774   19.8940 H   0  0  0  0  0  0
  -22.3728  -10.9680   19.6176 H   0  0  0  0  0  0
  -21.1983   -7.6159   23.9718 H   0  0  0  0  0  0
  -21.1489   -6.0536   25.9086 H   0  0  0  0  0  0
  -22.0596   -2.7616   23.2845 H   0  0  0  0  0  0
  -22.4110  -11.9834   22.4771 H   0  0  0  0  0  0
  -21.1104  -13.1206   22.2640 H   0  0  0  0  0  0
  -24.6373  -15.8302   20.4975 H   0  0  0  0  0  0
  -26.2394  -15.6194   20.0072 H   0  0  0  0  0  0
  -26.7167  -32.5470   23.1130 H   0  0  0  0  0  0
  -25.0066  -33.9750   25.0431 H   0  0  0  0  0  0
  -22.7036  -31.3109   21.4158 H   0  0  0  0  0  0
  -23.3750  -35.9621   23.3306 H   0  0  0  0  0  0
  -24.3551  -36.8926   22.2056 H   0  0  0  0  0  0
  -23.7230  -37.6495   23.6667 H   0  0  0  0  0  0
  -26.0770  -31.5697   20.6040 H   0  0  0  0  0  0
  -26.8349  -30.8503   21.9973 H   0  0  0  0  0  0
  -28.1145  -29.0265   21.1432 H   0  0  0  0  0  0
  -25.9063  -25.9270   19.0643 H   0  0  0  0  0  0
  -23.9357  -27.2956   19.0752 H   0  0  0  0  0  0
  -23.7388  -30.6066   19.4128 H   0  0  0  0  0  0
  -22.7393  -29.2605   19.8679 H   0  0  0  0  0  0
  -25.1291  -36.1950   25.0827 H   0  0  0  0  0  0
  -20.9954  -28.3250   24.1433 H   0  0  0  0  0  0
  -20.5690  -26.2288   23.3611 H   0  0  0  0  0  0
  -21.6628  -26.7457   22.1195 H   0  0  0  0  0  0
  -19.6889  -25.6308   21.1238 H   0  0  0  0  0  0
  -19.6656  -27.3217   20.6770 H   0  0  0  0  0  0
  -17.4187  -26.6692   21.4039 H   0  0  0  0  0  0
  -18.0289  -26.0055   22.9024 H   0  0  0  0  0  0
  -19.7931  -30.7284   24.2242 H   0  0  0  0  0  0
  -17.5014  -31.6261   24.5194 H   0  0  0  0  0  0
  -15.5344  -30.2999   23.7660 H   0  0  0  0  0  0
  -15.8658  -28.0836   22.7059 H   0  0  0  0  0  0
  -24.5916  -30.7048   25.7797 H   0  0  0  0  0  0
  -24.8922  -32.2853   26.4913 H   0  0  0  0  0  0
  -25.8077  -30.8869   27.0230 H   0  0  0  0  0  0
  -26.2939  -29.6769   24.1197 H   0  0  0  0  0  0
  -27.4101  -29.7292   25.4656 H   0  0  0  0  0  0
  -27.8774  -30.4351   23.9354 H   0  0  0  0  0  0
  -27.2623  -33.3641   26.2073 H   0  0  0  0  0  0
  -28.3849  -32.6911   25.0350 H   0  0  0  0  0  0
  -28.0692  -31.8486   26.5455 H   0  0  0  0  0  0
  -28.2595  -38.0101   24.7529 H   0  0  0  0  0  0
  -28.1065  -36.2638   24.6294 H   0  0  0  0  0  0
  -27.2279  -37.1455   25.8869 H   0  0  0  0  0  0
  -20.9333  -29.8786   21.6945 H   0  0  0  0  0  0
  -26.0168  -38.2864   24.1431 H   0  0  0  0  0  0
  -31.6028  -20.7875   21.2237 H   0  0  0  0  0  0
  -32.3726  -16.6220   21.5816 H   0  0  0  0  0  0
  -28.3283  -24.4606   22.7300 H   0  0  0  0  0  0
  -30.3278  -22.0597   22.9767 H   0  0  0  0  0  0
  -29.4756  -24.2556   24.8991 H   0  0  0  0  0  0
  -26.9167  -24.3417   20.6134 H   0  0  0  0  0  0
  -27.4721  -23.3404   19.3236 H   0  0  0  0  0  0
  -31.1317  -24.2236   20.1682 H   0  0  0  0  0  0
  -31.6163  -23.9678   18.5302 H   0  0  0  0  0  0
  -29.5941  -24.8261   17.6088 H   0  0  0  0  0  0
  -30.3322  -26.0124   18.6162 H   0  0  0  0  0  0
  -30.9729  -21.8066   18.9739 H   0  0  0  0  0  0
  -29.4683  -22.3986   18.3316 H   0  0  0  0  0  0
  -27.8002  -25.4551   18.4775 H   0  0  0  0  0  0
  -27.3035  -18.5646   20.7326 H   0  0  0  0  0  0
  -27.6884  -16.8714   20.6096 H   0  0  0  0  0  0
  -27.8796  -17.9050   19.1970 H   0  0  0  0  0  0
  -31.4036  -21.8276   25.0941 H   0  0  0  0  0  0
  -30.4120  -22.4318   26.4275 H   0  0  0  0  0  0
  -31.7373  -23.4143   25.7934 H   0  0  0  0  0  0
  -28.1804  -20.7405   21.2908 H   0  0  0  0  0  0
  -28.3476  -20.5901   19.5661 H   0  0  0  0  0  0
  -28.9620  -15.4820   21.0258 H   0  0  0  0  0  0
  -30.3018  -22.0283   21.0703 H   0  0  0  0  0  0
  1 25  1  0  0  0
  1 30  2  0  0  0
  1 89  1  0  0  0
  2  3  1  0  0  0
  2 25  1  0  0  0
  2 92  1  0  0  0
  2 93  1  0  0  0
  3  4  1  0  0  0
  3 94  1  0  0  0
  3 95  1  0  0  0
  4  5  1  0  0  0
  4 96  1  0  0  0
  4 97  1  0  0  0
  5  6  1  0  0  0
  5 26  1  0  0  0
  5 98  1  0  0  0
  6 25  1  0  0  0
  6 99  1  0  0  0
  6100  1  0  0  0
  7  8  2  0  0  0
  7 26  1  0  0  0
  7 29  1  0  0  0
  8  9  1  0  0  0
  8 22  1  0  0  0
  9 10  1  0  0  0
  9 27  2  0  0  0
 10 11  2  0  0  0
 10 15  1  0  0  0
 11 12  1  0  0  0
 11101  1  0  0  0
 12 13  2  0  0  0
 12102  1  0  0  0
 13 14  1  0  0  0
 13 31  1  0  0  0
 14 15  2  0  0  0
 14103  1  0  0  0
 15104  1  0  0  0
 16 17  2  0  0  0
 16 21  1  0  0  0
 16 31  1  0  0  0
 17 18  1  0  0  0
 17105  1  0  0  0
 18 19  2  0  0  0
 18106  1  0  0  0
 19 20  1  0  0  0
 19 24  1  0  0  0
 20 21  2  0  0  0
 20107  1  0  0  0
 21 23  1  0  0  0
 22 28  1  0  0  0
 22 32  2  0  0  0
 26 27  1  0  0  0
 28108  1  0  0  0
 28109  1  0  0  0
 29110  1  0  0  0
 29111  1  0  0  0
 33 34  1  0  0  0
 33 66  1  0  0  0
 33 70  2  0  0  0
 34 36  1  0  0  0
 34 59  1  0  0  0
 34112  1  0  0  0
 35 44  2  0  0  0
 35 45  1  0  0  0
 35 68  1  0  0  0
 36 56  1  0  0  0
 36113  1  0  0  0
 37 39  1  0  0  0
 37 47  1  0  0  0
 37 66  1  0  0  0
 37114  1  0  0  0
 38 43  2  0  0  0
 38 46  1  0  0  0
 38 47  1  0  0  0
 39 64  1  0  0  0
 39 67  2  0  0  0
 40 52  1  0  0  0
 40 53  2  0  0  0
 40 58  1  0  0  0
 41115  1  0  0  0
 41116  1  0  0  0
 41117  1  0  0  0
 41 48  1  0  0  0
 42 43  1  0  0  0
 42 66  1  0  0  0
 42118  1  0  0  0
 42119  1  0  0  0
 43 44  1  0  0  0
 44120  1  0  0  0
 45 46  2  0  0  0
 45121  1  0  0  0
 46122  1  0  0  0
 47123  1  0  0  0
 47124  1  0  0  0
 48 56  1  0  0  0
 48 65  1  0  0  0
 48125  1  0  0  0
 49 50  1  0  0  0
 49 53  1  0  0  0
 49 64  1  0  0  0
 49126  1  0  0  0
 50 51  1  0  0  0
 50127  1  0  0  0
 50128  1  0  0  0
 51 52  1  0  0  0
 51129  1  0  0  0
 51130  1  0  0  0
 52131  1  0  0  0
 52132  1  0  0  0
 53 54  1  0  0  0
 54 55  2  0  0  0
 54133  1  0  0  0
 55 57  1  0  0  0
 55134  1  0  0  0
 56 69  2  0  0  0
 57 58  2  0  0  0
 57135  1  0  0  0
 58136  1  0  0  0
 59 60  1  0  0  0
 59 61  1  0  0  0
 59 62  1  0  0  0
 60137  1  0  0  0
 60138  1  0  0  0
 60139  1  0  0  0
 61140  1  0  0  0
 61141  1  0  0  0
 61142  1  0  0  0
 62143  1  0  0  0
 62144  1  0  0  0
 62145  1  0  0  0
 63 65  1  0  0  0
 63146  1  0  0  0
 63147  1  0  0  0
 63148  1  0  0  0
 64149  1  0  0  0
 65150  1  0  0  0
 68 85  1  0  0  0
 71 73  2  0  0  0
 71 76  1  0  0  0
 71151  1  0  0  0
 72 75  1  0  0  0
 72 76  2  0  0  0
 72152  1  0  0  0
 73 74  1  0  0  0
 73 88  1  0  0  0
 74 75  2  0  0  0
 74 86  1  0  0  0
 75 89  1  0  0  0
 76 91  1  0  0  0
 77 78  2  0  0  0
 77 81  1  0  0  0
 77 90  1  0  0  0
 78 79  1  0  0  0
 78153  1  0  0  0
 79 80  2  0  0  0
 79154  1  0  0  0
 80 87  1  0  0  0
 80155  1  0  0  0
 81 85  1  0  0  0
 81156  1  0  0  0
 81157  1  0  0  0
 82 83  1  0  0  0
 82 84  1  0  0  0
 82158  1  0  0  0
 82159  1  0  0  0
 83 85  1  0  0  0
 83160  1  0  0  0
 83161  1  0  0  0
 84 90  1  0  0  0
 84162  1  0  0  0
 84163  1  0  0  0
 85164  1  0  0  0
 86165  1  0  0  0
 86166  1  0  0  0
 86167  1  0  0  0
 87168  1  0  0  0
 87169  1  0  0  0
 87170  1  0  0  0
 88171  1  0  0  0
 88172  1  0  0  0
 88 90  1  0  0  0
 89173  1  0  0  0
 90174  1  0  0  0
M  CHG  1  90   1
M  ISO  4   1 100  68 101  85 101  89 100
M  END
> <chiral flag>
0

> <version>
0

> <s_m_source_file>
/data/baiqing/PycharmProjects/Reinvent-master-3.2/result/LINK_invent/BTK/process_docking_weight1_custom_product_contain_oxygen_bond_distance_aromatic_linkinvent_7_9_3/rearranged_h_0037.sdf

> <i_m_source_file_index>
42

> <r_mmod_Potential_Energy-OPLS-2005>
-47.2628974914551

> <r_mmod_Stretch_Energy-OPLS-2005>
70.5360946655273

> <r_mmod_Bend_Energy-OPLS-2005>
148.358032226562

> <r_mmod_Torsional_Energy-OPLS-2005>
243.968841552734

> <r_mmod_Improper_Torsional_Energy-OPLS-2005>
5.12161731719971

> <r_mmod_Van_der_Waal_Energy-OPLS-2005>
155.375289916992

> <r_mmod_Electrostatic_Energy-OPLS-2005>
-261.111022949219

> <r_mmod_Solvation_Energy-OPLS-2005>
-440.064819335938

> <b_mmod_Minimization_Converged-OPLS-2005>
0

> <r_mmod_RMS_Derivative-OPLS-2005>
1.40536177158356

$$$$
42
                    3D
 Structure written by MMmdl.
171180  0  0  1  0            999 V2000
  -30.7036  -14.4688   20.5662 C   0  0  0  0  0  0
  -30.4226  -12.3009   19.4259 C   0  0  0  0  0  0
  -29.4948  -12.5072   18.2105 C   0  0  0  0  0  0
  -28.0163  -12.3688   18.6209 C   0  0  0  0  0  0
  -27.6637  -13.2065   19.8790 C   0  0  2  0  0  0
  -28.7056  -12.9865   21.0008 C   0  0  0  0  0  0
  -25.2589  -13.8163   20.5675 C   0  0  0  0  0  0
  -24.1845  -13.0435   20.9187 C   0  0  0  0  0  0
  -24.6403  -11.6906   20.8753 C   0  0  0  0  0  0
  -23.9066  -10.4293   21.0417 C   0  0  0  0  0  0
  -24.3617   -9.4205   21.9192 C   0  0  0  0  0  0
  -23.6292   -8.2242   22.0763 C   0  0  0  0  0  0
  -22.4275   -8.0283   21.3552 C   0  0  0  0  0  0
  -21.9915   -9.0257   20.4649 C   0  0  0  0  0  0
  -22.7243  -10.2136   20.3059 C   0  0  0  0  0  0
  -21.6847   -6.0738   22.5285 C   0  0  0  0  0  0
  -21.4013   -6.5641   23.8218 C   0  0  0  0  0  0
  -21.3661   -5.6797   24.9181 C   0  0  0  0  0  0
  -21.6041   -4.3060   24.7228 C   0  0  0  0  0  0
  -21.8819   -3.8152   23.4350 C   0  0  0  0  0  0
  -21.9192   -4.6968   22.3407 C   0  0  0  0  0  0
  -22.7868  -13.5234   21.1849 C   0  0  0  0  0  0
  -22.1656   -4.2151   21.0988 F   0  0  0  0  0  0
  -21.5632   -3.4544   25.7741 F   0  0  0  0  0  0
  -30.0409  -13.2847   20.4517 N   0  0  0  0  0  0
  -26.3036  -12.9330   20.3382 N   0  0  0  0  0  0
  -25.9332  -11.6491   20.5785 N   0  0  0  0  0  0
  -22.0509  -12.8218   22.0402 N   0  0  0  0  0  0
  -25.4291  -15.1881   20.4057 N   0  0  0  0  0  0
  -31.8269  -14.6517   20.0893 O   0  0  0  0  0  0
  -21.6635   -6.8883   21.4252 O   0  0  0  0  0  0
  -22.3553  -14.5538   20.6697 O   0  0  0  0  0  0
  -24.6158  -31.8671   23.2105 C   0  0  0  0  0  0
  -25.9053  -32.4819   23.8402 C   0  0  1  0  0  0
  -27.2330  -27.4219   20.0950 C   0  0  0  0  0  0
  -25.5901  -33.8618   24.2327 N   0  0  0  0  0  0
  -23.4041  -30.4918   21.5513 C   0  0  2  0  0  0
  -24.8500  -28.9588   20.1144 C   0  0  0  0  0  0
  -22.7416  -29.4651   22.4983 C   0  0  0  0  0  0
  -18.0270  -28.1380   22.8497 C   0  0  0  0  0  0
  -24.1487  -36.7315   23.2639 C   0  0  0  0  0  0
  -25.9353  -30.8285   21.3660 C   0  0  0  0  0  0
  -26.0120  -29.4624   20.7117 C   0  0  0  0  0  0
  -27.2059  -28.7020   20.6991 C   0  0  0  0  0  0
  -26.0549  -26.9479   19.4711 C   0  0  0  0  0  0
  -24.8667  -27.7003   19.4914 C   0  0  0  0  0  0
  -23.6126  -29.8265   20.1653 C   0  0  0  0  0  0
  -25.4107  -36.3106   24.0337 C   0  0  1  0  0  0
  -20.5864  -28.3666   23.1321 C   0  0  2  0  0  0
  -20.6755  -26.9399   22.5425 C   0  0  0  0  0  0
  -19.5733  -26.6385   21.5217 C   0  0  0  0  0  0
  -18.1913  -26.7929   22.1626 C   0  0  0  0  0  0
  -19.1521  -28.8838   23.2906 C   0  0  0  0  0  0
  -18.9448  -30.1447   23.8912 C   0  0  0  0  0  0
  -17.6449  -30.6589   24.0569 C   0  0  0  0  0  0
  -25.9035  -34.9473   23.5126 C   0  0  0  0  0  0
  -16.5338  -29.9095   23.6327 C   0  0  0  0  0  0
  -16.7260  -28.6513   23.0345 C   0  0  0  0  0  0
  -26.4482  -31.6594   25.0729 C   0  0  0  0  0  0
  -25.3749  -31.3692   26.1473 C   0  0  0  0  0  0
  -27.0318  -30.3038   24.6109 C   0  0  0  0  0  0
  -27.6053  -32.4315   25.7501 C   0  0  0  0  0  0
  -27.5582  -37.1803   24.8460 C   0  0  0  0  0  0
  -21.4141  -29.3035   22.3728 N   0  0  0  0  0  0
  -26.4288  -37.3795   23.9414 N   0  0  0  0  0  0
  -24.6705  -31.0765   22.1011 N   0  0  0  0  0  0
  -23.4185  -28.8182   23.3021 O   0  0  0  0  0  0
  -28.4006  -26.6772   20.1034 O   0  0  0  0  0  0
  -26.5593  -34.8924   22.4685 O   0  0  0  0  0  0
  -23.5346  -32.1428   23.7488 O   0  0  0  0  0  0
  -28.7984  -18.8855   20.2120 C   0  0  0  0  0  0
  -28.8238  -17.5423   20.6381 C   0  0  0  0  0  0
  -31.2454  -17.5752   20.5833 C   0  0  0  0  0  0
  -29.9931  -19.5976   19.9410 C   0  0  0  0  0  0
  -31.2372  -18.9337   20.1660 C   0  0  0  0  0  0
  -30.0440  -16.8547   20.7834 C   0  0  0  0  0  0
  -28.4347  -23.0432   19.0649 C   0  0  0  0  0  0
  -25.8775  -21.3388   16.9751 C   0  0  0  0  0  0
  -27.4710  -22.7759   18.1551 C   0  0  0  0  0  0
  -26.8375  -21.4945   17.8997 C   0  0  0  0  0  0
  -29.0248  -24.4474   19.2367 C   0  0  0  0  0  0
  -28.7030  -23.4278   22.0955 C   0  0  0  0  0  0
  -28.8419  -24.9199   21.7203 C   0  0  0  0  0  0
  -29.6026  -22.4618   21.2840 C   0  0  0  0  0  0
  -28.2885  -25.2538   20.3286 C   0  0  1  0  0  0
  -29.9102  -21.0070   19.3061 C   0  0  0  0  0  0
  -32.5730  -19.6408   19.9290 C   0  0  0  0  0  0
  -29.9954  -15.4672   21.1308 N   0  0  0  0  0  0
  -29.0153  -21.9889   19.9949 N   0  3  1  0  0  0
  -33.6160  -18.8873   20.2796 F   0  0  0  0  0  0
  -32.7011  -19.9424   18.6368 F   0  0  0  0  0  0
  -32.6245  -20.7641   20.6467 F   0  0  0  0  0  0
  -31.4676  -12.3942   19.1250 H   0  0  0  0  0  0
  -30.3168  -11.2897   19.8215 H   0  0  0  0  0  0
  -29.7315  -11.7859   17.4271 H   0  0  0  0  0  0
  -29.6660  -13.4958   17.7814 H   0  0  0  0  0  0
  -27.8246  -11.3128   18.8133 H   0  0  0  0  0  0
  -27.3669  -12.6469   17.7901 H   0  0  0  0  0  0
  -27.7067  -14.2550   19.5834 H   0  0  0  0  0  0
  -28.6788  -11.9515   21.3445 H   0  0  0  0  0  0
  -28.4666  -13.5867   21.8802 H   0  0  0  0  0  0
  -25.2769   -9.5671   22.4757 H   0  0  0  0  0  0
  -24.0000   -7.4634   22.7484 H   0  0  0  0  0  0
  -21.0849   -8.8782   19.8951 H   0  0  0  0  0  0
  -22.3714  -10.9678   19.6162 H   0  0  0  0  0  0
  -21.2001   -7.6149   23.9720 H   0  0  0  0  0  0
  -21.1482   -6.0530   25.9084 H   0  0  0  0  0  0
  -22.0593   -2.7614   23.2856 H   0  0  0  0  0  0
  -22.4122  -11.9865   22.4765 H   0  0  0  0  0  0
  -21.1129  -13.1254   22.2616 H   0  0  0  0  0  0
  -24.6562  -15.8384   20.4963 H   0  0  0  0  0  0
  -26.2667  -15.6195   20.0382 H   0  0  0  0  0  0
  -26.7123  -32.5539   23.1165 H   0  0  0  0  0  0
  -25.0067  -33.9786   25.0481 H   0  0  0  0  0  0
  -22.6938  -31.3092   21.4126 H   0  0  0  0  0  0
  -23.3754  -35.9641   23.3286 H   0  0  0  0  0  0
  -24.3584  -36.8948   22.2055 H   0  0  0  0  0  0
  -23.7232  -37.6513   23.6666 H   0  0  0  0  0  0
  -26.0466  -31.5934   20.5965 H   0  0  0  0  0  0
  -26.8248  -30.8830   21.9828 H   0  0  0  0  0  0
  -28.1025  -29.0863   21.1659 H   0  0  0  0  0  0
  -26.0416  -26.0000   18.9529 H   0  0  0  0  0  0
  -23.9777  -27.3124   19.0140 H   0  0  0  0  0  0
  -23.7213  -30.6033   19.4074 H   0  0  0  0  0  0
  -22.7368  -29.2468   19.8677 H   0  0  0  0  0  0
  -25.1274  -36.1971   25.0829 H   0  0  0  0  0  0
  -20.9955  -28.3233   24.1441 H   0  0  0  0  0  0
  -20.5661  -26.2267   23.3609 H   0  0  0  0  0  0
  -21.6626  -26.7432   22.1219 H   0  0  0  0  0  0
  -19.6895  -25.6300   21.1231 H   0  0  0  0  0  0
  -19.6680  -27.3208   20.6758 H   0  0  0  0  0  0
  -17.4186  -26.6688   21.4029 H   0  0  0  0  0  0
  -18.0303  -26.0072   22.9021 H   0  0  0  0  0  0
  -19.7924  -30.7261   24.2286 H   0  0  0  0  0  0
  -17.5005  -31.6270   24.5173 H   0  0  0  0  0  0
  -15.5337  -30.2995   23.7647 H   0  0  0  0  0  0
  -15.8662  -28.0840   22.7036 H   0  0  0  0  0  0
  -24.5935  -30.7018   25.7822 H   0  0  0  0  0  0
  -24.8920  -32.2837   26.4921 H   0  0  0  0  0  0
  -25.8106  -30.8878   27.0233 H   0  0  0  0  0  0
  -26.2863  -29.6800   24.1161 H   0  0  0  0  0  0
  -27.4088  -29.7271   25.4566 H   0  0  0  0  0  0
  -27.8698  -30.4366   23.9261 H   0  0  0  0  0  0
  -27.2669  -33.3608   26.2102 H   0  0  0  0  0  0
  -28.3854  -32.6885   25.0323 H   0  0  0  0  0  0
  -28.0729  -31.8423   26.5401 H   0  0  0  0  0  0
  -28.2573  -38.0125   24.7536 H   0  0  0  0  0  0
  -28.1098  -36.2651   24.6246 H   0  0  0  0  0  0
  -27.2305  -37.1416   25.8864 H   0  0  0  0  0  0
  -20.9289  -29.8784   21.6982 H   0  0  0  0  0  0
  -26.0176  -38.2866   24.1443 H   0  0  0  0  0  0
  -27.8306  -19.3403   20.0661 H   0  0  0  0  0  0
  -27.8861  -17.0315   20.8096 H   0  0  0  0  0  0
  -32.1928  -17.0768   20.7288 H   0  0  0  0  0  0
  -25.4235  -20.3726   16.8024 H   0  0  0  0  0  0
  -25.5259  -22.1653   16.3734 H   0  0  0  0  0  0
  -27.1363  -23.6082   17.5501 H   0  0  0  0  0  0
  -27.1274  -20.6156   18.4511 H   0  0  0  0  0  0
  -28.9036  -24.9654   18.2844 H   0  0  0  0  0  0
  -30.1014  -24.4207   19.4053 H   0  0  0  0  0  0
  -27.6588  -23.1151   22.0563 H   0  0  0  0  0  0
  -28.9898  -23.3379   23.1442 H   0  0  0  0  0  0
  -29.8853  -25.2297   21.7922 H   0  0  0  0  0  0
  -28.3016  -25.5147   22.4584 H   0  0  0  0  0  0
  -29.7863  -21.5812   21.9015 H   0  0  0  0  0  0
  -30.5852  -22.9068   21.1207 H   0  0  0  0  0  0
  -27.2483  -24.9328   20.3414 H   0  0  0  0  0  0
  -29.5544  -20.8472   18.2881 H   0  0  0  0  0  0
  -30.8838  -21.4740   19.1757 H   0  0  0  0  0  0
  -29.1202  -15.1517   21.5205 H   0  0  0  0  0  0
  -28.2297  -21.4288   20.2880 H   0  0  0  0  0  0
  1 25  1  0  0  0
  1 30  2  0  0  0
  1 88  1  0  0  0
  2  3  1  0  0  0
  2 25  1  0  0  0
  2 93  1  0  0  0
  2 94  1  0  0  0
  3  4  1  0  0  0
  3 95  1  0  0  0
  3 96  1  0  0  0
  4  5  1  0  0  0
  4 97  1  0  0  0
  4 98  1  0  0  0
  5  6  1  0  0  0
  5 26  1  0  0  0
  5 99  1  0  0  0
  6 25  1  0  0  0
  6100  1  0  0  0
  6101  1  0  0  0
  7  8  2  0  0  0
  7 26  1  0  0  0
  7 29  1  0  0  0
  8  9  1  0  0  0
  8 22  1  0  0  0
  9 10  1  0  0  0
  9 27  2  0  0  0
 10 11  2  0  0  0
 10 15  1  0  0  0
 11 12  1  0  0  0
 11102  1  0  0  0
 12 13  2  0  0  0
 12103  1  0  0  0
 13 14  1  0  0  0
 13 31  1  0  0  0
 14 15  2  0  0  0
 14104  1  0  0  0
 15105  1  0  0  0
 16 17  2  0  0  0
 16 21  1  0  0  0
 16 31  1  0  0  0
 17 18  1  0  0  0
 17106  1  0  0  0
 18 19  2  0  0  0
 18107  1  0  0  0
 19 20  1  0  0  0
 19 24  1  0  0  0
 20 21  2  0  0  0
 20108  1  0  0  0
 21 23  1  0  0  0
 22 28  1  0  0  0
 22 32  2  0  0  0
 26 27  1  0  0  0
 28109  1  0  0  0
 28110  1  0  0  0
 29111  1  0  0  0
 29112  1  0  0  0
 33 34  1  0  0  0
 33 66  1  0  0  0
 33 70  2  0  0  0
 34 36  1  0  0  0
 34 59  1  0  0  0
 34113  1  0  0  0
 35 44  2  0  0  0
 35 45  1  0  0  0
 35 68  1  0  0  0
 36 56  1  0  0  0
 36114  1  0  0  0
 37 39  1  0  0  0
 37 47  1  0  0  0
 37 66  1  0  0  0
 37115  1  0  0  0
 38 43  2  0  0  0
 38 46  1  0  0  0
 38 47  1  0  0  0
 39 64  1  0  0  0
 39 67  2  0  0  0
 40 52  1  0  0  0
 40 53  2  0  0  0
 40 58  1  0  0  0
 41116  1  0  0  0
 41117  1  0  0  0
 41118  1  0  0  0
 41 48  1  0  0  0
 42 43  1  0  0  0
 42 66  1  0  0  0
 42119  1  0  0  0
 42120  1  0  0  0
 43 44  1  0  0  0
 44121  1  0  0  0
 45 46  2  0  0  0
 45122  1  0  0  0
 46123  1  0  0  0
 47124  1  0  0  0
 47125  1  0  0  0
 48 56  1  0  0  0
 48 65  1  0  0  0
 48126  1  0  0  0
 49 50  1  0  0  0
 49 53  1  0  0  0
 49 64  1  0  0  0
 49127  1  0  0  0
 50 51  1  0  0  0
 50128  1  0  0  0
 50129  1  0  0  0
 51 52  1  0  0  0
 51130  1  0  0  0
 51131  1  0  0  0
 52132  1  0  0  0
 52133  1  0  0  0
 53 54  1  0  0  0
 54 55  2  0  0  0
 54134  1  0  0  0
 55 57  1  0  0  0
 55135  1  0  0  0
 56 69  2  0  0  0
 57 58  2  0  0  0
 57136  1  0  0  0
 58137  1  0  0  0
 59 60  1  0  0  0
 59 61  1  0  0  0
 59 62  1  0  0  0
 60138  1  0  0  0
 60139  1  0  0  0
 60140  1  0  0  0
 61141  1  0  0  0
 61142  1  0  0  0
 61143  1  0  0  0
 62144  1  0  0  0
 62145  1  0  0  0
 62146  1  0  0  0
 63 65  1  0  0  0
 63147  1  0  0  0
 63148  1  0  0  0
 63149  1  0  0  0
 64150  1  0  0  0
 65151  1  0  0  0
 68 85  1  0  0  0
 71 72  2  0  0  0
 71 74  1  0  0  0
 71152  1  0  0  0
 72 76  1  0  0  0
 72153  1  0  0  0
 73 75  1  0  0  0
 73 76  2  0  0  0
 73154  1  0  0  0
 74 75  2  0  0  0
 74 86  1  0  0  0
 75 87  1  0  0  0
 76 88  1  0  0  0
 77 79  2  0  0  0
 77 81  1  0  0  0
 77 89  1  0  0  0
 78 80  2  0  0  0
 78155  1  0  0  0
 78156  1  0  0  0
 79 80  1  0  0  0
 79157  1  0  0  0
 80158  1  0  0  0
 81 85  1  0  0  0
 81159  1  0  0  0
 81160  1  0  0  0
 82 83  1  0  0  0
 82 84  1  0  0  0
 82161  1  0  0  0
 82162  1  0  0  0
 83 85  1  0  0  0
 83163  1  0  0  0
 83164  1  0  0  0
 84 89  1  0  0  0
 84165  1  0  0  0
 84166  1  0  0  0
 85167  1  0  0  0
 86168  1  0  0  0
 86169  1  0  0  0
 86 89  1  0  0  0
 87 90  1  0  0  0
 87 91  1  0  0  0
 87 92  1  0  0  0
 88170  1  0  0  0
 89171  1  0  0  0
M  CHG  1  89   1
M  ISO  4   1 100  68 101  85 101  88 100
M  END
> <chiral flag>
0

> <version>
0

> <s_m_source_file>
/data/baiqing/PycharmProjects/Reinvent-master-3.2/result/LINK_invent/BTK/process_docking_weight1_custom_product_contain_oxygen_bond_distance_aromatic_linkinvent_7_9_3/rearranged_h_0037.sdf

> <i_m_source_file_index>
43

> <r_mmod_Potential_Energy-OPLS-2005>
-112.011856079102

> <r_mmod_Stretch_Energy-OPLS-2005>
46.6860198974609

> <r_mmod_Bend_Energy-OPLS-2005>
119.519119262695

> <r_mmod_Torsional_Energy-OPLS-2005>
245.35139465332

> <r_mmod_Improper_Torsional_Energy-OPLS-2005>
5.22334337234497

> <r_mmod_Van_der_Waal_Energy-OPLS-2005>
158.047729492188

> <r_mmod_Electrostatic_Energy-OPLS-2005>
-263.53955078125

> <r_mmod_Solvation_Energy-OPLS-2005>
-436.318878173828

> <b_mmod_Minimization_Converged-OPLS-2005>
0

> <r_mmod_RMS_Derivative-OPLS-2005>
1.18398225307465

$$$$
43
                    3D
 Structure written by MMmdl.
170179  0  0  1  0            999 V2000
  -30.6881  -14.5218   20.4520 C   0  0  0  0  0  0
  -30.4164  -12.2951   19.4716 C   0  0  0  0  0  0
  -29.5075  -12.4557   18.2359 C   0  0  0  0  0  0
  -28.0258  -12.3202   18.6424 C   0  0  0  0  0  0
  -27.6506  -13.2130   19.8579 C   0  0  2  0  0  0
  -28.6877  -13.0826   20.9919 C   0  0  0  0  0  0
  -25.2488  -13.8110   20.5635 C   0  0  0  0  0  0
  -24.1806  -13.0398   20.9204 C   0  0  0  0  0  0
  -24.6393  -11.6884   20.8766 C   0  0  0  0  0  0
  -23.9056  -10.4281   21.0430 C   0  0  0  0  0  0
  -24.3615   -9.4204   21.9214 C   0  0  0  0  0  0
  -23.6306   -8.2219   22.0761 C   0  0  0  0  0  0
  -22.4277   -8.0272   21.3555 C   0  0  0  0  0  0
  -21.9911   -9.0239   20.4651 C   0  0  0  0  0  0
  -22.7227  -10.2127   20.3082 C   0  0  0  0  0  0
  -21.6847   -6.0739   22.5277 C   0  0  0  0  0  0
  -21.3993   -6.5644   23.8217 C   0  0  0  0  0  0
  -21.3660   -5.6801   24.9177 C   0  0  0  0  0  0
  -21.6035   -4.3063   24.7228 C   0  0  0  0  0  0
  -21.8830   -3.8160   23.4365 C   0  0  0  0  0  0
  -21.9188   -4.6964   22.3414 C   0  0  0  0  0  0
  -22.7824  -13.5202   21.1874 C   0  0  0  0  0  0
  -22.1671   -4.2157   21.0988 F   0  0  0  0  0  0
  -21.5631   -3.4548   25.7746 F   0  0  0  0  0  0
  -30.0255  -13.3325   20.4379 N   0  0  0  0  0  0
  -26.2983  -12.9331   20.3290 N   0  0  0  0  0  0
  -25.9318  -11.6501   20.5786 N   0  0  0  0  0  0
  -22.0479  -12.8200   22.0429 N   0  0  0  0  0  0
  -25.4144  -15.1787   20.3963 N   0  0  0  0  0  0
  -31.8791  -14.5906   20.1427 O   0  0  0  0  0  0
  -21.6639   -6.8885   21.4258 O   0  0  0  0  0  0
  -22.3517  -14.5522   20.6725 O   0  0  0  0  0  0
  -24.6168  -31.8691   23.2103 C   0  0  0  0  0  0
  -25.9052  -32.4827   23.8394 C   0  0  1  0  0  0
  -27.2118  -27.4226   20.0383 C   0  0  0  0  0  0
  -25.5888  -33.8634   24.2327 N   0  0  0  0  0  0
  -23.3992  -30.4965   21.5591 C   0  0  2  0  0  0
  -24.8321  -28.9615   20.1128 C   0  0  0  0  0  0
  -22.7370  -29.4658   22.5004 C   0  0  0  0  0  0
  -18.0264  -28.1364   22.8492 C   0  0  0  0  0  0
  -24.1501  -36.7354   23.2633 C   0  0  0  0  0  0
  -25.9342  -30.8200   21.3634 C   0  0  0  0  0  0
  -25.9984  -29.4543   20.7094 C   0  0  0  0  0  0
  -27.1885  -28.6870   20.6797 C   0  0  0  0  0  0
  -26.0191  -26.9502   19.4462 C   0  0  0  0  0  0
  -24.8348  -27.7024   19.4962 C   0  0  0  0  0  0
  -23.6041  -29.8424   20.1679 C   0  0  0  0  0  0
  -25.4115  -36.3131   24.0334 C   0  0  1  0  0  0
  -20.5849  -28.3649   23.1333 C   0  0  2  0  0  0
  -20.6751  -26.9395   22.5408 C   0  0  0  0  0  0
  -19.5733  -26.6392   21.5193 C   0  0  0  0  0  0
  -18.1920  -26.7913   22.1612 C   0  0  0  0  0  0
  -19.1513  -28.8822   23.2921 C   0  0  0  0  0  0
  -18.9427  -30.1425   23.8943 C   0  0  0  0  0  0
  -17.6432  -30.6570   24.0569 C   0  0  0  0  0  0
  -25.9029  -34.9498   23.5134 C   0  0  0  0  0  0
  -16.5327  -29.9085   23.6305 C   0  0  0  0  0  0
  -16.7259  -28.6500   23.0343 C   0  0  0  0  0  0
  -26.4434  -31.6595   25.0740 C   0  0  0  0  0  0
  -25.3709  -31.3717   26.1510 C   0  0  0  0  0  0
  -27.0209  -30.3024   24.6093 C   0  0  0  0  0  0
  -27.6029  -32.4275   25.7489 C   0  0  0  0  0  0
  -27.5585  -37.1824   24.8453 C   0  0  0  0  0  0
  -21.4106  -29.3036   22.3760 N   0  0  0  0  0  0
  -26.4306  -37.3799   23.9387 N   0  0  0  0  0  0
  -24.6692  -31.0753   22.1031 N   0  0  0  0  0  0
  -23.4160  -28.8187   23.3006 O   0  0  0  0  0  0
  -28.3889  -26.7006   20.0076 O   0  0  0  0  0  0
  -26.5614  -34.8936   22.4706 O   0  0  0  0  0  0
  -23.5348  -32.1479   23.7467 O   0  0  0  0  0  0
  -30.6811  -20.3807   20.7301 C   0  0  0  0  0  0
  -28.3257  -19.8995   20.9694 C   0  0  0  0  0  0
  -29.9496  -18.0516   21.1116 C   0  0  0  0  0  0
  -30.9804  -19.0085   20.8736 C   0  0  0  0  0  0
  -29.3579  -20.8414   20.8224 C   0  0  0  0  0  0
  -28.6034  -18.5212   21.0969 C   0  0  0  0  0  0
  -30.3126  -16.6093   21.3759 C   0  0  0  0  0  0
  -32.4555  -18.6194   20.8911 C   0  0  0  0  0  0
  -31.1940  -16.3308   22.6156 C   0  0  0  0  0  0
  -33.0754  -18.6770   22.3057 C   0  0  0  0  0  0
  -31.2384  -17.4086   23.7264 C   0  0  0  0  0  0
  -32.0753  -18.6906   23.4863 C   0  0  0  0  0  0
  -27.4295  -17.5776   21.2469 C   0  0  0  0  0  0
  -29.0438  -22.3316   20.9362 C   0  0  0  0  0  0
  -27.8428  -24.2452   19.9122 C   0  0  0  0  0  0
  -28.4730  -25.4904   19.2247 C   0  0  0  0  0  0
  -29.9053  -15.6674   20.5966 N   0  0  0  0  0  0
  -28.6056  -22.9833   19.6875 N   0  3  0  0  0  0
  -31.4663  -12.3544   19.1839 H   0  0  0  0  0  0
  -30.2925  -11.3086   19.9224 H   0  0  0  0  0  0
  -29.7573  -11.6978   17.4909 H   0  0  0  0  0  0
  -29.6797  -13.4261   17.7627 H   0  0  0  0  0  0
  -27.8586  -11.2716   18.8970 H   0  0  0  0  0  0
  -27.3747  -12.5361   17.7931 H   0  0  0  0  0  0
  -27.6724  -14.2454   19.5047 H   0  0  0  0  0  0
  -28.6540  -12.0887   21.4378 H   0  0  0  0  0  0
  -28.4582  -13.7826   21.7970 H   0  0  0  0  0  0
  -25.2771   -9.5668   22.4790 H   0  0  0  0  0  0
  -24.0007   -7.4610   22.7480 H   0  0  0  0  0  0
  -21.0838   -8.8784   19.8957 H   0  0  0  0  0  0
  -22.3713  -10.9684   19.6193 H   0  0  0  0  0  0
  -21.1976   -7.6147   23.9722 H   0  0  0  0  0  0
  -21.1466   -6.0527   25.9079 H   0  0  0  0  0  0
  -22.0605   -2.7622   23.2858 H   0  0  0  0  0  0
  -22.4099  -11.9830   22.4771 H   0  0  0  0  0  0
  -21.1111  -13.1250   22.2695 H   0  0  0  0  0  0
  -24.6538  -15.8395   20.5073 H   0  0  0  0  0  0
  -26.2713  -15.6016   20.0689 H   0  0  0  0  0  0
  -26.7131  -32.5515   23.1150 H   0  0  0  0  0  0
  -24.9999  -33.9773   25.0449 H   0  0  0  0  0  0
  -22.6929  -31.3207   21.4277 H   0  0  0  0  0  0
  -23.3718  -35.9715   23.3289 H   0  0  0  0  0  0
  -24.3608  -36.8975   22.2041 H   0  0  0  0  0  0
  -23.7280  -37.6582   23.6644 H   0  0  0  0  0  0
  -26.0517  -31.5798   20.5882 H   0  0  0  0  0  0
  -26.8299  -30.8760   21.9746 H   0  0  0  0  0  0
  -28.0930  -29.0638   21.1314 H   0  0  0  0  0  0
  -25.9634  -26.0040   18.9300 H   0  0  0  0  0  0
  -23.9334  -27.3107   19.0444 H   0  0  0  0  0  0
  -23.7209  -30.6356   19.4255 H   0  0  0  0  0  0
  -22.7205  -29.2803   19.8595 H   0  0  0  0  0  0
  -25.1273  -36.1998   25.0819 H   0  0  0  0  0  0
  -20.9947  -28.3182   24.1449 H   0  0  0  0  0  0
  -20.5608  -26.2246   23.3575 H   0  0  0  0  0  0
  -21.6629  -26.7431   22.1217 H   0  0  0  0  0  0
  -19.6879  -25.6319   21.1204 H   0  0  0  0  0  0
  -19.6655  -27.3219   20.6744 H   0  0  0  0  0  0
  -17.4165  -26.6652   21.4043 H   0  0  0  0  0  0
  -18.0335  -26.0070   22.9030 H   0  0  0  0  0  0
  -19.7914  -30.7228   24.2324 H   0  0  0  0  0  0
  -17.4998  -31.6249   24.5168 H   0  0  0  0  0  0
  -15.5338  -30.2997   23.7605 H   0  0  0  0  0  0
  -15.8663  -28.0838   22.7025 H   0  0  0  0  0  0
  -24.5892  -30.7025   25.7873 H   0  0  0  0  0  0
  -24.8893  -32.2892   26.4934 H   0  0  0  0  0  0
  -25.8112  -30.8930   27.0286 H   0  0  0  0  0  0
  -26.2729  -29.6846   24.1122 H   0  0  0  0  0  0
  -27.3925  -29.7185   25.4523 H   0  0  0  0  0  0
  -27.8600  -30.4290   23.9249 H   0  0  0  0  0  0
  -27.2666  -33.3554   26.2122 H   0  0  0  0  0  0
  -28.3829  -32.6870   25.0319 H   0  0  0  0  0  0
  -28.0721  -31.8372   26.5367 H   0  0  0  0  0  0
  -28.2609  -38.0123   24.7496 H   0  0  0  0  0  0
  -28.1087  -36.2652   24.6275 H   0  0  0  0  0  0
  -27.2325  -37.1488   25.8871 H   0  0  0  0  0  0
  -20.9208  -29.8828   21.7107 H   0  0  0  0  0  0
  -26.0200  -38.2880   24.1367 H   0  0  0  0  0  0
  -31.4914  -21.0897   20.6277 H   0  0  0  0  0  0
  -27.3044  -20.2473   21.0337 H   0  0  0  0  0  0
  -33.0083  -19.2794   20.2207 H   0  0  0  0  0  0
  -32.5887  -17.6322   20.4532 H   0  0  0  0  0  0
  -32.2059  -16.0877   22.3030 H   0  0  0  0  0  0
  -30.8075  -15.4250   23.0849 H   0  0  0  0  0  0
  -33.6413  -19.6079   22.3697 H   0  0  0  0  0  0
  -33.8195  -17.8884   22.4281 H   0  0  0  0  0  0
  -31.6395  -16.9234   24.6175 H   0  0  0  0  0  0
  -30.2182  -17.6883   24.0077 H   0  0  0  0  0  0
  -31.3984  -19.5406   23.3819 H   0  0  0  0  0  0
  -32.6203  -18.9148   24.4042 H   0  0  0  0  0  0
  -27.4316  -16.9026   20.3956 H   0  0  0  0  0  0
  -26.4757  -18.1060   21.2508 H   0  0  0  0  0  0
  -27.4982  -16.9931   22.1624 H   0  0  0  0  0  0
  -29.9124  -22.8720   21.3152 H   0  0  0  0  0  0
  -28.2666  -22.4243   21.7015 H   0  0  0  0  0  0
  -26.8347  -24.0692   19.5335 H   0  0  0  0  0  0
  -27.7193  -24.4384   20.9807 H   0  0  0  0  0  0
  -29.5354  -25.3202   19.0630 H   0  0  0  0  0  0
  -28.0703  -25.6238   18.2152 H   0  0  0  0  0  0
  -28.0373  -22.3274   19.1750 H   0  0  0  0  0  0
  -29.4222  -23.1599   19.1263 H   0  0  0  0  0  0
  1 25  1  0  0  0
  1 30  2  0  0  0
  1 87  1  0  0  0
  2  3  1  0  0  0
  2 25  1  0  0  0
  2 89  1  0  0  0
  2 90  1  0  0  0
  3  4  1  0  0  0
  3 91  1  0  0  0
  3 92  1  0  0  0
  4  5  1  0  0  0
  4 93  1  0  0  0
  4 94  1  0  0  0
  5  6  1  0  0  0
  5 26  1  0  0  0
  5 95  1  0  0  0
  6 25  1  0  0  0
  6 96  1  0  0  0
  6 97  1  0  0  0
  7  8  2  0  0  0
  7 26  1  0  0  0
  7 29  1  0  0  0
  8  9  1  0  0  0
  8 22  1  0  0  0
  9 10  1  0  0  0
  9 27  2  0  0  0
 10 11  2  0  0  0
 10 15  1  0  0  0
 11 12  1  0  0  0
 11 98  1  0  0  0
 12 13  2  0  0  0
 12 99  1  0  0  0
 13 14  1  0  0  0
 13 31  1  0  0  0
 14 15  2  0  0  0
 14100  1  0  0  0
 15101  1  0  0  0
 16 17  2  0  0  0
 16 21  1  0  0  0
 16 31  1  0  0  0
 17 18  1  0  0  0
 17102  1  0  0  0
 18 19  2  0  0  0
 18103  1  0  0  0
 19 20  1  0  0  0
 19 24  1  0  0  0
 20 21  2  0  0  0
 20104  1  0  0  0
 21 23  1  0  0  0
 22 28  1  0  0  0
 22 32  2  0  0  0
 26 27  1  0  0  0
 28105  1  0  0  0
 28106  1  0  0  0
 29107  1  0  0  0
 29108  1  0  0  0
 33 34  1  0  0  0
 33 66  1  0  0  0
 33 70  2  0  0  0
 34 36  1  0  0  0
 34 59  1  0  0  0
 34109  1  0  0  0
 35 44  2  0  0  0
 35 45  1  0  0  0
 35 68  1  0  0  0
 36 56  1  0  0  0
 36110  1  0  0  0
 37 39  1  0  0  0
 37 47  1  0  0  0
 37 66  1  0  0  0
 37111  1  0  0  0
 38 43  2  0  0  0
 38 46  1  0  0  0
 38 47  1  0  0  0
 39 64  1  0  0  0
 39 67  2  0  0  0
 40 52  1  0  0  0
 40 53  2  0  0  0
 40 58  1  0  0  0
 41112  1  0  0  0
 41113  1  0  0  0
 41114  1  0  0  0
 41 48  1  0  0  0
 42 43  1  0  0  0
 42 66  1  0  0  0
 42115  1  0  0  0
 42116  1  0  0  0
 43 44  1  0  0  0
 44117  1  0  0  0
 45 46  2  0  0  0
 45118  1  0  0  0
 46119  1  0  0  0
 47120  1  0  0  0
 47121  1  0  0  0
 48 56  1  0  0  0
 48 65  1  0  0  0
 48122  1  0  0  0
 49 50  1  0  0  0
 49 53  1  0  0  0
 49 64  1  0  0  0
 49123  1  0  0  0
 50 51  1  0  0  0
 50124  1  0  0  0
 50125  1  0  0  0
 51 52  1  0  0  0
 51126  1  0  0  0
 51127  1  0  0  0
 52128  1  0  0  0
 52129  1  0  0  0
 53 54  1  0  0  0
 54 55  2  0  0  0
 54130  1  0  0  0
 55 57  1  0  0  0
 55131  1  0  0  0
 56 69  2  0  0  0
 57 58  2  0  0  0
 57132  1  0  0  0
 58133  1  0  0  0
 59 60  1  0  0  0
 59 61  1  0  0  0
 59 62  1  0  0  0
 60134  1  0  0  0
 60135  1  0  0  0
 60136  1  0  0  0
 61137  1  0  0  0
 61138  1  0  0  0
 61139  1  0  0  0
 62140  1  0  0  0
 62141  1  0  0  0
 62142  1  0  0  0
 63 65  1  0  0  0
 63143  1  0  0  0
 63144  1  0  0  0
 63145  1  0  0  0
 64146  1  0  0  0
 65147  1  0  0  0
 68 86  1  0  0  0
 71 74  2  0  0  0
 71 75  1  0  0  0
 71148  1  0  0  0
 72 75  2  0  0  0
 72 76  1  0  0  0
 72149  1  0  0  0
 73 74  1  0  0  0
 73 76  2  0  0  0
 73 77  1  0  0  0
 74 78  1  0  0  0
 75 84  1  0  0  0
 76 83  1  0  0  0
 77 79  1  0  0  0
 77 87  2  0  0  0
 78 80  1  0  0  0
 78150  1  0  0  0
 78151  1  0  0  0
 79 81  1  0  0  0
 79152  1  0  0  0
 79153  1  0  0  0
 80 82  1  0  0  0
 80154  1  0  0  0
 80155  1  0  0  0
 81 82  1  0  0  0
 81156  1  0  0  0
 81157  1  0  0  0
 82158  1  0  0  0
 82159  1  0  0  0
 83160  1  0  0  0
 83161  1  0  0  0
 83162  1  0  0  0
 84 88  1  0  0  0
 84163  1  0  0  0
 84164  1  0  0  0
 85 86  1  0  0  0
 85 88  1  0  0  0
 85165  1  0  0  0
 85166  1  0  0  0
 86167  1  0  0  0
 86168  1  0  0  0
 88169  1  0  0  0
 88170  1  0  0  0
M  CHG  1  88   1
M  ISO  4   1 100  68 101  86 101  87 100
M  END
> <chiral flag>
0

> <version>
0

> <s_m_source_file>
/data/baiqing/PycharmProjects/Reinvent-master-3.2/result/LINK_invent/BTK/process_docking_weight1_custom_product_contain_oxygen_bond_distance_aromatic_linkinvent_7_9_3/rearranged_h_0037.sdf

> <i_m_source_file_index>
44

> <r_mmod_Potential_Energy-OPLS-2005>
-20.317232131958

> <r_mmod_Stretch_Energy-OPLS-2005>
45.5995864868164

> <r_mmod_Bend_Energy-OPLS-2005>
123.562721252441

> <r_mmod_Torsional_Energy-OPLS-2005>
255.028350830078

> <r_mmod_Improper_Torsional_Energy-OPLS-2005>
6.51106071472168

> <r_mmod_Van_der_Waal_Energy-OPLS-2005>
179.528717041016

> <r_mmod_Electrostatic_Energy-OPLS-2005>
-232.609283447266

> <r_mmod_Solvation_Energy-OPLS-2005>
-424.1591796875

> <b_mmod_Minimization_Converged-OPLS-2005>
0

> <r_mmod_RMS_Derivative-OPLS-2005>
5.88866853713989

$$$$
44
                    3D
 Structure written by MMmdl.
181190  0  0  1  0            999 V2000
  -30.6619  -14.5122   20.5586 C   0  0  0  0  0  0
  -30.4365  -12.3358   19.4076 C   0  0  0  0  0  0
  -29.4911  -12.5121   18.1979 C   0  0  0  0  0  0
  -28.0146  -12.3565   18.6166 C   0  0  0  0  0  0
  -27.6612  -13.1985   19.8704 C   0  0  2  0  0  0
  -28.7103  -12.9783   20.9851 C   0  0  0  0  0  0
  -25.2607  -13.8131   20.5695 C   0  0  0  0  0  0
  -24.1860  -13.0424   20.9181 C   0  0  0  0  0  0
  -24.6402  -11.6885   20.8742 C   0  0  0  0  0  0
  -23.9060  -10.4289   21.0413 C   0  0  0  0  0  0
  -24.3617   -9.4208   21.9193 C   0  0  0  0  0  0
  -23.6295   -8.2238   22.0759 C   0  0  0  0  0  0
  -22.4276   -8.0286   21.3540 C   0  0  0  0  0  0
  -21.9909   -9.0263   20.4650 C   0  0  0  0  0  0
  -22.7232  -10.2144   20.3062 C   0  0  0  0  0  0
  -21.6852   -6.0745   22.5282 C   0  0  0  0  0  0
  -21.4018   -6.5643   23.8223 C   0  0  0  0  0  0
  -21.3656   -5.6795   24.9184 C   0  0  0  0  0  0
  -21.6046   -4.3058   24.7232 C   0  0  0  0  0  0
  -21.8817   -3.8156   23.4352 C   0  0  0  0  0  0
  -21.9197   -4.6969   22.3409 C   0  0  0  0  0  0
  -22.7888  -13.5248   21.1840 C   0  0  0  0  0  0
  -22.1667   -4.2165   21.0978 F   0  0  0  0  0  0
  -21.5627   -3.4547   25.7742 F   0  0  0  0  0  0
  -30.0317  -13.3131   20.4264 N   0  0  0  0  0  0
  -26.3037  -12.9296   20.3373 N   0  0  0  0  0  0
  -25.9327  -11.6465   20.5767 N   0  0  0  0  0  0
  -22.0510  -12.8261   22.0391 N   0  0  0  0  0  0
  -25.4273  -15.1859   20.4105 N   0  0  0  0  0  0
  -31.8089  -14.7222   20.1499 O   0  0  0  0  0  0
  -21.6629   -6.8885   21.4247 O   0  0  0  0  0  0
  -22.3590  -14.5557   20.6674 O   0  0  0  0  0  0
  -24.6189  -31.8654   23.2082 C   0  0  0  0  0  0
  -25.9048  -32.4811   23.8415 C   0  0  1  0  0  0
  -27.2322  -27.4024   20.0852 C   0  0  0  0  0  0
  -25.5879  -33.8616   24.2340 N   0  0  0  0  0  0
  -23.4058  -30.4917   21.5497 C   0  0  2  0  0  0
  -24.8545  -28.9592   20.1123 C   0  0  0  0  0  0
  -22.7378  -29.4647   22.4926 C   0  0  0  0  0  0
  -18.0259  -28.1300   22.8485 C   0  0  0  0  0  0
  -24.1473  -36.7343   23.2618 C   0  0  0  0  0  0
  -25.9407  -30.8233   21.3617 C   0  0  0  0  0  0
  -26.0187  -29.4564   20.7064 C   0  0  0  0  0  0
  -27.2126  -28.6880   20.6869 C   0  0  0  0  0  0
  -26.0414  -26.9376   19.4758 C   0  0  0  0  0  0
  -24.8611  -27.6998   19.4935 C   0  0  0  0  0  0
  -23.6159  -29.8266   20.1640 C   0  0  0  0  0  0
  -25.4080  -36.3129   24.0339 C   0  0  1  0  0  0
  -20.5843  -28.3625   23.1241 C   0  0  2  0  0  0
  -20.6723  -26.9334   22.5370 C   0  0  0  0  0  0
  -19.5723  -26.6319   21.5139 C   0  0  0  0  0  0
  -18.1906  -26.7852   22.1579 C   0  0  0  0  0  0
  -19.1511  -28.8774   23.2872 C   0  0  0  0  0  0
  -18.9446  -30.1365   23.8912 C   0  0  0  0  0  0
  -17.6450  -30.6528   24.0522 C   0  0  0  0  0  0
  -25.9011  -34.9477   23.5142 C   0  0  0  0  0  0
  -16.5337  -29.9038   23.6281 C   0  0  0  0  0  0
  -16.7239  -28.6424   23.0355 C   0  0  0  0  0  0
  -26.4480  -31.6592   25.0745 C   0  0  0  0  0  0
  -25.3738  -31.3681   26.1483 C   0  0  0  0  0  0
  -27.0299  -30.3028   24.6125 C   0  0  0  0  0  0
  -27.6060  -32.4313   25.7495 C   0  0  0  0  0  0
  -27.5567  -37.1790   24.8433 C   0  0  0  0  0  0
  -21.4099  -29.3044   22.3671 N   0  0  0  0  0  0
  -26.4274  -37.3801   23.9397 N   0  0  0  0  0  0
  -24.6746  -31.0718   22.1013 N   0  0  0  0  0  0
  -23.4133  -28.8136   23.2932 O   0  0  0  0  0  0
  -28.3916  -26.6297   20.1113 O   0  0  0  0  0  0
  -26.5545  -34.8918   22.4697 O   0  0  0  0  0  0
  -23.5366  -32.1429   23.7436 O   0  0  0  0  0  0
  -30.3926  -18.2792   23.3854 C   0  0  0  0  0  0
  -30.1800  -17.9430   20.6287 C   0  0  0  0  0  0
  -30.4236  -19.4344   22.5629 C   0  0  0  0  0  0
  -30.2450  -16.9828   22.8631 C   0  0  0  0  0  0
  -30.2579  -19.2730   21.1447 C   0  0  0  0  0  0
  -30.1701  -16.7998   21.4696 C   0  0  0  0  0  0
  -33.2029  -20.2700   27.0870 C   0  0  0  0  0  0
  -31.8843  -20.9184   27.5442 C   0  0  0  0  0  0
  -33.1311  -19.5950   25.7078 C   0  0  0  0  0  0
  -31.5497  -22.1800   26.7305 C   0  0  0  0  0  0
  -32.6611  -20.5159   24.5636 C   0  0  0  0  0  0
  -30.7595  -21.9330   25.4310 C   0  0  0  0  0  0
  -30.1368  -15.8053   23.8190 C   0  0  0  0  0  0
  -30.5636  -20.7962   23.2670 C   0  0  0  0  0  0
  -30.0129  -20.4061   20.0998 C   0  0  0  0  0  0
  -29.4544  -24.3077   20.2260 C   0  0  0  0  0  0
  -29.2328  -22.8028   19.8446 C   0  0  0  0  0  0
  -28.2533  -25.2131   19.8282 C   0  0  0  0  0  0
  -29.8467  -15.5033   20.9738 N   0  0  0  0  0  0
  -31.1917  -20.7611   24.6144 N   0  3  0  0  0  0
  -30.1801  -21.8399   20.4821 N   0  3  0  0  0  0
  -31.4750  -12.4670   19.0973 H   0  0  0  0  0  0
  -30.3665  -11.3238   19.8098 H   0  0  0  0  0  0
  -29.7352  -11.7862   17.4208 H   0  0  0  0  0  0
  -29.6368  -13.4976   17.7525 H   0  0  0  0  0  0
  -27.8351  -11.2992   18.8168 H   0  0  0  0  0  0
  -27.3576  -12.6252   17.7891 H   0  0  0  0  0  0
  -27.6993  -14.2433   19.5618 H   0  0  0  0  0  0
  -28.7074  -11.9367   21.3092 H   0  0  0  0  0  0
  -28.4706  -13.5609   21.8758 H   0  0  0  0  0  0
  -25.2755   -9.5694   22.4779 H   0  0  0  0  0  0
  -24.0009   -7.4632   22.7484 H   0  0  0  0  0  0
  -21.0838   -8.8789   19.8962 H   0  0  0  0  0  0
  -22.3690  -10.9695   19.6187 H   0  0  0  0  0  0
  -21.1998   -7.6155   23.9738 H   0  0  0  0  0  0
  -21.1479   -6.0521   25.9090 H   0  0  0  0  0  0
  -22.0591   -2.7621   23.2847 H   0  0  0  0  0  0
  -22.4104  -11.9913   22.4782 H   0  0  0  0  0  0
  -21.1137  -13.1325   22.2601 H   0  0  0  0  0  0
  -24.6445  -15.8239   20.5031 H   0  0  0  0  0  0
  -26.2715  -15.6401   20.0848 H   0  0  0  0  0  0
  -26.7077  -32.5491   23.1140 H   0  0  0  0  0  0
  -24.9997  -33.9798   25.0459 H   0  0  0  0  0  0
  -22.6962  -31.3108   21.4065 H   0  0  0  0  0  0
  -23.3731  -35.9671   23.3301 H   0  0  0  0  0  0
  -24.3555  -36.9005   22.2028 H   0  0  0  0  0  0
  -23.7284  -37.6569   23.6660 H   0  0  0  0  0  0
  -26.0375  -31.5854   20.5887 H   0  0  0  0  0  0
  -26.8340  -30.8918   21.9714 H   0  0  0  0  0  0
  -28.1188  -29.0726   21.1337 H   0  0  0  0  0  0
  -25.9901  -25.9830   18.9725 H   0  0  0  0  0  0
  -23.9662  -27.3154   19.0244 H   0  0  0  0  0  0
  -23.7164  -30.6058   19.4074 H   0  0  0  0  0  0
  -22.7425  -29.2433   19.8671 H   0  0  0  0  0  0
  -25.1256  -36.2002   25.0836 H   0  0  0  0  0  0
  -20.9946  -28.3201   24.1363 H   0  0  0  0  0  0
  -20.5516  -26.2232   23.3572 H   0  0  0  0  0  0
  -21.6595  -26.7279   22.1237 H   0  0  0  0  0  0
  -19.6873  -25.6217   21.1210 H   0  0  0  0  0  0
  -19.6691  -27.3072   20.6621 H   0  0  0  0  0  0
  -17.4143  -26.6555   21.4027 H   0  0  0  0  0  0
  -18.0381  -25.9956   22.8958 H   0  0  0  0  0  0
  -19.7922  -30.7136   24.2350 H   0  0  0  0  0  0
  -17.5018  -31.6241   24.5063 H   0  0  0  0  0  0
  -15.5351  -30.2957   23.7579 H   0  0  0  0  0  0
  -15.8628  -28.0735   22.7103 H   0  0  0  0  0  0
  -24.5927  -30.7015   25.7817 H   0  0  0  0  0  0
  -24.8854  -32.2811   26.4897 H   0  0  0  0  0  0
  -25.8074  -30.8875   27.0262 H   0  0  0  0  0  0
  -26.2829  -29.6781   24.1194 H   0  0  0  0  0  0
  -27.4103  -29.7282   25.4589 H   0  0  0  0  0  0
  -27.8666  -30.4353   23.9253 H   0  0  0  0  0  0
  -27.2702  -33.3630   26.2060 H   0  0  0  0  0  0
  -28.3863  -32.6857   25.0315 H   0  0  0  0  0  0
  -28.0725  -31.8448   26.5435 H   0  0  0  0  0  0
  -28.2526  -38.0122   24.7517 H   0  0  0  0  0  0
  -28.1152  -36.2667   24.6252 H   0  0  0  0  0  0
  -27.2286  -37.1434   25.8830 H   0  0  0  0  0  0
  -20.9196  -29.8918   21.7061 H   0  0  0  0  0  0
  -26.0194  -38.2884   24.1458 H   0  0  0  0  0  0
  -30.4443  -18.3596   24.4602 H   0  0  0  0  0  0
  -30.0410  -17.8027   19.5646 H   0  0  0  0  0  0
  -33.5076  -19.5239   27.8228 H   0  0  0  0  0  0
  -33.9980  -21.0188   27.0856 H   0  0  0  0  0  0
  -31.9943  -21.2038   28.5910 H   0  0  0  0  0  0
  -31.0586  -20.2046   27.5222 H   0  0  0  0  0  0
  -32.5058  -18.7018   25.7562 H   0  0  0  0  0  0
  -34.1307  -19.2291   25.4646 H   0  0  0  0  0  0
  -32.4619  -22.7369   26.5095 H   0  0  0  0  0  0
  -30.9537  -22.8518   27.3493 H   0  0  0  0  0  0
  -32.9099  -20.0007   23.6333 H   0  0  0  0  0  0
  -33.2227  -21.4512   24.5328 H   0  0  0  0  0  0
  -30.8095  -22.8417   24.8283 H   0  0  0  0  0  0
  -29.7040  -21.8007   25.6778 H   0  0  0  0  0  0
  -30.2538  -16.1112   24.8589 H   0  0  0  0  0  0
  -30.9061  -15.0634   23.6029 H   0  0  0  0  0  0
  -29.1602  -15.3299   23.7262 H   0  0  0  0  0  0
  -29.5643  -21.2273   23.3395 H   0  0  0  0  0  0
  -31.1829  -21.4747   22.6852 H   0  0  0  0  0  0
  -28.9891  -20.2588   19.7483 H   0  0  0  0  0  0
  -30.6452  -20.2202   19.2295 H   0  0  0  0  0  0
  -30.3679  -24.6761   19.7502 H   0  0  0  0  0  0
  -29.6043  -24.4004   21.3012 H   0  0  0  0  0  0
  -29.2799  -22.6883   18.7591 H   0  0  0  0  0  0
  -28.2225  -22.5115   20.1386 H   0  0  0  0  0  0
  -27.3802  -24.8233   20.3552 H   0  0  0  0  0  0
  -28.0581  -25.0817   18.7653 H   0  0  0  0  0  0
  -28.9236  -15.1749   21.2149 H   0  0  0  0  0  0
  -30.7930  -19.9524   25.0665 H   0  0  0  0  0  0
  -31.1300  -22.1080   20.2740 H   0  0  0  0  0  0
  -30.0374  -21.9141   21.4708 H   0  0  0  0  0  0
  1 25  1  0  0  0
  1 30  2  0  0  0
  1 89  1  0  0  0
  2  3  1  0  0  0
  2 25  1  0  0  0
  2 92  1  0  0  0
  2 93  1  0  0  0
  3  4  1  0  0  0
  3 94  1  0  0  0
  3 95  1  0  0  0
  4  5  1  0  0  0
  4 96  1  0  0  0
  4 97  1  0  0  0
  5  6  1  0  0  0
  5 26  1  0  0  0
  5 98  1  0  0  0
  6 25  1  0  0  0
  6 99  1  0  0  0
  6100  1  0  0  0
  7  8  2  0  0  0
  7 26  1  0  0  0
  7 29  1  0  0  0
  8  9  1  0  0  0
  8 22  1  0  0  0
  9 10  1  0  0  0
  9 27  2  0  0  0
 10 11  2  0  0  0
 10 15  1  0  0  0
 11 12  1  0  0  0
 11101  1  0  0  0
 12 13  2  0  0  0
 12102  1  0  0  0
 13 14  1  0  0  0
 13 31  1  0  0  0
 14 15  2  0  0  0
 14103  1  0  0  0
 15104  1  0  0  0
 16 17  2  0  0  0
 16 21  1  0  0  0
 16 31  1  0  0  0
 17 18  1  0  0  0
 17105  1  0  0  0
 18 19  2  0  0  0
 18106  1  0  0  0
 19 20  1  0  0  0
 19 24  1  0  0  0
 20 21  2  0  0  0
 20107  1  0  0  0
 21 23  1  0  0  0
 22 28  1  0  0  0
 22 32  2  0  0  0
 26 27  1  0  0  0
 28108  1  0  0  0
 28109  1  0  0  0
 29110  1  0  0  0
 29111  1  0  0  0
 33 34  1  0  0  0
 33 66  1  0  0  0
 33 70  2  0  0  0
 34 36  1  0  0  0
 34 59  1  0  0  0
 34112  1  0  0  0
 35 44  2  0  0  0
 35 45  1  0  0  0
 35 68  1  0  0  0
 36 56  1  0  0  0
 36113  1  0  0  0
 37 39  1  0  0  0
 37 47  1  0  0  0
 37 66  1  0  0  0
 37114  1  0  0  0
 38 43  2  0  0  0
 38 46  1  0  0  0
 38 47  1  0  0  0
 39 64  1  0  0  0
 39 67  2  0  0  0
 40 52  1  0  0  0
 40 53  2  0  0  0
 40 58  1  0  0  0
 41115  1  0  0  0
 41116  1  0  0  0
 41117  1  0  0  0
 41 48  1  0  0  0
 42 43  1  0  0  0
 42 66  1  0  0  0
 42118  1  0  0  0
 42119  1  0  0  0
 43 44  1  0  0  0
 44120  1  0  0  0
 45 46  2  0  0  0
 45121  1  0  0  0
 46122  1  0  0  0
 47123  1  0  0  0
 47124  1  0  0  0
 48 56  1  0  0  0
 48 65  1  0  0  0
 48125  1  0  0  0
 49 50  1  0  0  0
 49 53  1  0  0  0
 49 64  1  0  0  0
 49126  1  0  0  0
 50 51  1  0  0  0
 50127  1  0  0  0
 50128  1  0  0  0
 51 52  1  0  0  0
 51129  1  0  0  0
 51130  1  0  0  0
 52131  1  0  0  0
 52132  1  0  0  0
 53 54  1  0  0  0
 54 55  2  0  0  0
 54133  1  0  0  0
 55 57  1  0  0  0
 55134  1  0  0  0
 56 69  2  0  0  0
 57 58  2  0  0  0
 57135  1  0  0  0
 58136  1  0  0  0
 59 60  1  0  0  0
 59 61  1  0  0  0
 59 62  1  0  0  0
 60137  1  0  0  0
 60138  1  0  0  0
 60139  1  0  0  0
 61140  1  0  0  0
 61141  1  0  0  0
 61142  1  0  0  0
 62143  1  0  0  0
 62144  1  0  0  0
 62145  1  0  0  0
 63 65  1  0  0  0
 63146  1  0  0  0
 63147  1  0  0  0
 63148  1  0  0  0
 64149  1  0  0  0
 65150  1  0  0  0
 68 88  1  0  0  0
 71 73  2  0  0  0
 71 74  1  0  0  0
 71151  1  0  0  0
 72 75  2  0  0  0
 72 76  1  0  0  0
 72152  1  0  0  0
 73 75  1  0  0  0
 73 84  1  0  0  0
 74 76  2  0  0  0
 74 83  1  0  0  0
 75 85  1  0  0  0
 76 89  1  0  0  0
 77 78  1  0  0  0
 77 79  1  0  0  0
 77153  1  0  0  0
 77154  1  0  0  0
 78 80  1  0  0  0
 78155  1  0  0  0
 78156  1  0  0  0
 79 81  1  0  0  0
 79157  1  0  0  0
 79158  1  0  0  0
 80 82  1  0  0  0
 80159  1  0  0  0
 80160  1  0  0  0
 81 90  1  0  0  0
 81161  1  0  0  0
 81162  1  0  0  0
 82 90  1  0  0  0
 82163  1  0  0  0
 82164  1  0  0  0
 83165  1  0  0  0
 83166  1  0  0  0
 83167  1  0  0  0
 84168  1  0  0  0
 84169  1  0  0  0
 84 90  1  0  0  0
 85 91  1  0  0  0
 85170  1  0  0  0
 85171  1  0  0  0
 86 87  1  0  0  0
 86 88  1  0  0  0
 86172  1  0  0  0
 86173  1  0  0  0
 87 91  1  0  0  0
 87174  1  0  0  0
 87175  1  0  0  0
 88176  1  0  0  0
 88177  1  0  0  0
 89178  1  0  0  0
 90179  1  0  0  0
 91180  1  0  0  0
 91181  1  0  0  0
M  CHG  2  90   1  91   1
M  ISO  4   1 100  68 101  88 101  89 100
M  END
> <chiral flag>
0

> <version>
0

> <s_m_source_file>
/data/baiqing/PycharmProjects/Reinvent-master-3.2/result/LINK_invent/BTK/process_docking_weight1_custom_product_contain_oxygen_bond_distance_aromatic_linkinvent_7_9_3/rearranged_h_0037.sdf

> <i_m_source_file_index>
45

> <r_mmod_Potential_Energy-OPLS-2005>
-221.487869262695

> <r_mmod_Stretch_Energy-OPLS-2005>
53.028190612793

> <r_mmod_Bend_Energy-OPLS-2005>
134.684600830078

> <r_mmod_Torsional_Energy-OPLS-2005>
288.312927246094

> <r_mmod_Improper_Torsional_Energy-OPLS-2005>
7.63238525390625

> <r_mmod_Van_der_Waal_Energy-OPLS-2005>
162.67985534668

> <r_mmod_Electrostatic_Energy-OPLS-2005>
91.3697052001953

> <r_mmod_Solvation_Energy-OPLS-2005>
-978.284301757812

> <b_mmod_Minimization_Converged-OPLS-2005>
0

> <r_mmod_RMS_Derivative-OPLS-2005>
3.58510208129883

$$$$
45
                    3D
 Structure written by MMmdl.
167176  0  0  1  0            999 V2000
  -30.5973  -14.7344   20.4725 C   0  0  0  0  0  0
  -30.4380  -12.4556   19.4445 C   0  0  0  0  0  0
  -29.4996  -12.5169   18.2188 C   0  0  0  0  0  0
  -28.0282  -12.3372   18.6444 C   0  0  0  0  0  0
  -27.6418  -13.2281   19.8556 C   0  0  2  0  0  0
  -28.6961  -13.1429   20.9780 C   0  0  0  0  0  0
  -25.2514  -13.8180   20.5771 C   0  0  0  0  0  0
  -24.1812  -13.0419   20.9288 C   0  0  0  0  0  0
  -24.6413  -11.6901   20.8791 C   0  0  0  0  0  0
  -23.9095  -10.4267   21.0410 C   0  0  0  0  0  0
  -24.3638   -9.4174   21.9187 C   0  0  0  0  0  0
  -23.6306   -8.2213   22.0731 C   0  0  0  0  0  0
  -22.4286   -8.0271   21.3524 C   0  0  0  0  0  0
  -21.9939   -9.0255   20.4632 C   0  0  0  0  0  0
  -22.7265  -10.2132   20.3054 C   0  0  0  0  0  0
  -21.6841   -6.0757   22.5301 C   0  0  0  0  0  0
  -21.4005   -6.5657   23.8238 C   0  0  0  0  0  0
  -21.3659   -5.6799   24.9193 C   0  0  0  0  0  0
  -21.6046   -4.3067   24.7224 C   0  0  0  0  0  0
  -21.8818   -3.8171   23.4338 C   0  0  0  0  0  0
  -21.9184   -4.6989   22.3401 C   0  0  0  0  0  0
  -22.7820  -13.5178   21.1936 C   0  0  0  0  0  0
  -22.1648   -4.2190   21.0966 F   0  0  0  0  0  0
  -21.5626   -3.4531   25.7721 F   0  0  0  0  0  0
  -29.9901  -13.5032   20.3844 N   0  0  0  0  0  0
  -26.2958  -12.9394   20.3392 N   0  0  0  0  0  0
  -25.9347  -11.6533   20.5820 N   0  0  0  0  0  0
  -22.0471  -12.8135   22.0465 N   0  0  0  0  0  0
  -25.4160  -15.1911   20.4133 N   0  0  0  0  0  0
  -31.7982  -14.8567   20.2078 O   0  0  0  0  0  0
  -21.6614   -6.8892   21.4251 O   0  0  0  0  0  0
  -22.3493  -14.5470   20.6760 O   0  0  0  0  0  0
  -24.6290  -31.8543   23.1980 C   0  0  0  0  0  0
  -25.9116  -32.4757   23.8319 C   0  0  1  0  0  0
  -27.2169  -27.2607   20.1327 C   0  0  0  0  0  0
  -25.5885  -33.8560   24.2217 N   0  0  0  0  0  0
  -23.4263  -30.4738   21.5433 C   0  0  2  0  0  0
  -24.8760  -28.9182   20.1102 C   0  0  0  0  0  0
  -22.7486  -29.4569   22.4923 C   0  0  0  0  0  0
  -18.0261  -28.1384   22.8483 C   0  0  0  0  0  0
  -24.1483  -36.7288   23.2642 C   0  0  0  0  0  0
  -25.9714  -30.7642   21.3781 C   0  0  0  0  0  0
  -26.0458  -29.3892   20.7176 C   0  0  0  0  0  0
  -27.2224  -28.5743   20.7123 C   0  0  0  0  0  0
  -26.0287  -26.8533   19.4933 C   0  0  0  0  0  0
  -24.8728  -27.6598   19.4870 C   0  0  0  0  0  0
  -23.6468  -29.8033   20.1613 C   0  0  0  0  0  0
  -25.4116  -36.3069   24.0307 C   0  0  1  0  0  0
  -20.5869  -28.3684   23.1284 C   0  0  2  0  0  0
  -20.6761  -26.9403   22.5414 C   0  0  0  0  0  0
  -19.5754  -26.6386   21.5217 C   0  0  0  0  0  0
  -18.1923  -26.7931   22.1613 C   0  0  0  0  0  0
  -19.1525  -28.8849   23.2871 C   0  0  0  0  0  0
  -18.9457  -30.1446   23.8886 C   0  0  0  0  0  0
  -17.6469  -30.6586   24.0558 C   0  0  0  0  0  0
  -25.9060  -34.9432   23.5073 C   0  0  0  0  0  0
  -16.5357  -29.9063   23.6360 C   0  0  0  0  0  0
  -16.7260  -28.6495   23.0373 C   0  0  0  0  0  0
  -26.4464  -31.6593   25.0720 C   0  0  0  0  0  0
  -25.3660  -31.3736   26.1433 C   0  0  0  0  0  0
  -27.0337  -30.3018   24.6218 C   0  0  0  0  0  0
  -27.6024  -32.4341   25.7488 C   0  0  0  0  0  0
  -27.5562  -37.1776   24.8465 C   0  0  0  0  0  0
  -21.4205  -29.3020   22.3676 N   0  0  0  0  0  0
  -26.4291  -37.3758   23.9408 N   0  0  0  0  0  0
  -24.6944  -31.0499   22.0954 N   0  0  0  0  0  0
  -23.4190  -28.8108   23.3015 O   0  0  0  0  0  0
  -28.3309  -26.3935   20.1299 O   0  0  0  0  0  0
  -26.5648  -34.8907   22.4648 O   0  0  0  0  0  0
  -23.5442  -32.1372   23.7277 O   0  0  0  0  0  0
  -30.1833  -19.9095   22.0714 C   0  0  0  0  0  0
  -29.5534  -18.4079   20.2786 C   0  0  0  0  0  0
  -29.6394  -19.7750   20.7787 C   0  0  0  0  0  0
  -30.5922  -18.7934   22.8372 C   0  0  0  0  0  0
  -30.4532  -17.4637   22.3511 C   0  0  0  0  0  0
  -29.9698  -17.2316   21.0310 C   0  0  0  0  0  0
  -27.5257  -22.1101   21.5458 C   0  0  0  0  0  0
  -26.8257  -20.9852   21.7824 C   0  0  0  0  0  0
  -27.3983  -23.3789   22.3852 C   0  0  0  0  0  0
  -27.0938  -24.6474   21.5708 C   0  0  0  0  0  0
  -28.6837  -23.6869   19.7880 C   0  0  0  0  0  0
  -28.2873  -24.9800   20.6707 C   0  0  1  0  0  0
  -31.1857  -19.0653   24.2090 C   0  0  0  0  0  0
  -30.7867  -16.2901   23.2773 C   0  0  0  0  0  0
  -29.3759  -21.1178   19.9401 C   0  0  0  0  0  0
  -29.7604  -15.8370   20.5696 N   0  0  0  0  0  0
  -28.3803  -22.2530   20.3077 N   0  3  1  0  0  0
  -31.4778  -12.5908   19.1371 H   0  0  0  0  0  0
  -30.3893  -11.4757   19.9193 H   0  0  0  0  0  0
  -29.7727  -11.7505   17.4916 H   0  0  0  0  0  0
  -29.6200  -13.4782   17.7143 H   0  0  0  0  0  0
  -27.8872  -11.2866   18.9000 H   0  0  0  0  0  0
  -27.3618  -12.5397   17.8040 H   0  0  0  0  0  0
  -27.6337  -14.2518   19.4845 H   0  0  0  0  0  0
  -28.7371  -12.1335   21.3899 H   0  0  0  0  0  0
  -28.4416  -13.8007   21.8113 H   0  0  0  0  0  0
  -25.2778   -9.5619   22.4774 H   0  0  0  0  0  0
  -24.0030   -7.4561   22.7401 H   0  0  0  0  0  0
  -21.0896   -8.8769   19.8893 H   0  0  0  0  0  0
  -22.3751  -10.9680   19.6162 H   0  0  0  0  0  0
  -21.1992   -7.6168   23.9764 H   0  0  0  0  0  0
  -21.1491   -6.0517   25.9106 H   0  0  0  0  0  0
  -22.0598   -2.7638   23.2825 H   0  0  0  0  0  0
  -22.4123  -11.9829   22.4888 H   0  0  0  0  0  0
  -21.1074  -13.1101   22.2648 H   0  0  0  0  0  0
  -24.6335  -15.8307   20.4956 H   0  0  0  0  0  0
  -26.2475  -15.6326   20.0428 H   0  0  0  0  0  0
  -26.7161  -32.5419   23.1032 H   0  0  0  0  0  0
  -24.9990  -33.9738   25.0334 H   0  0  0  0  0  0
  -22.7239  -31.2970   21.3963 H   0  0  0  0  0  0
  -23.3739  -35.9620   23.3323 H   0  0  0  0  0  0
  -24.3569  -36.8953   22.2063 H   0  0  0  0  0  0
  -23.7251  -37.6478   23.6705 H   0  0  0  0  0  0
  -26.1179  -31.5283   20.6132 H   0  0  0  0  0  0
  -26.8445  -30.8114   22.0159 H   0  0  0  0  0  0
  -28.1236  -28.9326   21.1869 H   0  0  0  0  0  0
  -25.9868  -25.8919   18.9983 H   0  0  0  0  0  0
  -23.9754  -27.2990   19.0039 H   0  0  0  0  0  0
  -23.7634  -30.5793   19.4047 H   0  0  0  0  0  0
  -22.7640  -29.2345   19.8626 H   0  0  0  0  0  0
  -25.1278  -36.1912   25.0793 H   0  0  0  0  0  0
  -20.9956  -28.3281   24.1413 H   0  0  0  0  0  0
  -20.5685  -26.2262   23.3596 H   0  0  0  0  0  0
  -21.6620  -26.7450   22.1195 H   0  0  0  0  0  0
  -19.6920  -25.6298   21.1247 H   0  0  0  0  0  0
  -19.6729  -27.3182   20.6758 H   0  0  0  0  0  0
  -17.4196  -26.6686   21.4012 H   0  0  0  0  0  0
  -18.0301  -26.0077   22.9014 H   0  0  0  0  0  0
  -19.7940  -30.7240   24.2270 H   0  0  0  0  0  0
  -17.5030  -31.6280   24.5121 H   0  0  0  0  0  0
  -15.5347  -30.2946   23.7708 H   0  0  0  0  0  0
  -15.8676  -28.0795   22.7103 H   0  0  0  0  0  0
  -24.5851  -30.7086   25.7728 H   0  0  0  0  0  0
  -24.8801  -32.2889   26.4833 H   0  0  0  0  0  0
  -25.7921  -30.8919   27.0252 H   0  0  0  0  0  0
  -26.2921  -29.6726   24.1274 H   0  0  0  0  0  0
  -27.4074  -29.7322   25.4738 H   0  0  0  0  0  0
  -27.8769  -30.4305   23.9423 H   0  0  0  0  0  0
  -27.2668  -33.3707   26.1965 H   0  0  0  0  0  0
  -28.3857  -32.6810   25.0304 H   0  0  0  0  0  0
  -28.0638  -31.8518   26.5489 H   0  0  0  0  0  0
  -28.2548  -38.0088   24.7508 H   0  0  0  0  0  0
  -28.1059  -36.2611   24.6277 H   0  0  0  0  0  0
  -27.2279  -37.1425   25.8862 H   0  0  0  0  0  0
  -20.9371  -29.8755   21.6895 H   0  0  0  0  0  0
  -26.0165  -38.2822   24.1430 H   0  0  0  0  0  0
  -30.3058  -20.9020   22.4837 H   0  0  0  0  0  0
  -29.1835  -18.2566   19.2737 H   0  0  0  0  0  0
  -26.1645  -20.9119   22.6368 H   0  0  0  0  0  0
  -26.8892  -20.1217   21.1358 H   0  0  0  0  0  0
  -28.3124  -23.5073   22.9666 H   0  0  0  0  0  0
  -26.6015  -23.2427   23.1177 H   0  0  0  0  0  0
  -26.9171  -25.4742   22.2593 H   0  0  0  0  0  0
  -26.1776  -24.5146   20.9984 H   0  0  0  0  0  0
  -29.7483  -23.7559   19.5714 H   0  0  0  0  0  0
  -28.1997  -23.7783   18.8156 H   0  0  0  0  0  0
  -29.1151  -25.0422   21.3787 H   0  0  0  0  0  0
  -31.4701  -20.1109   24.3271 H   0  0  0  0  0  0
  -32.0826  -18.4662   24.3733 H   0  0  0  0  0  0
  -30.4623  -18.8238   24.9880 H   0  0  0  0  0  0
  -30.6981  -16.5443   24.3328 H   0  0  0  0  0  0
  -31.8047  -15.9381   23.1052 H   0  0  0  0  0  0
  -30.1046  -15.4535   23.1299 H   0  0  0  0  0  0
  -29.1164  -20.8126   18.9245 H   0  0  0  0  0  0
  -30.3549  -21.5853   19.8388 H   0  0  0  0  0  0
  -28.7896  -15.5913   20.4532 H   0  0  0  0  0  0
  -27.7085  -22.0089   19.5937 H   0  0  0  0  0  0
  1 25  1  0  0  0
  1 30  2  0  0  0
  1 86  1  0  0  0
  2  3  1  0  0  0
  2 25  1  0  0  0
  2 88  1  0  0  0
  2 89  1  0  0  0
  3  4  1  0  0  0
  3 90  1  0  0  0
  3 91  1  0  0  0
  4  5  1  0  0  0
  4 92  1  0  0  0
  4 93  1  0  0  0
  5  6  1  0  0  0
  5 26  1  0  0  0
  5 94  1  0  0  0
  6 25  1  0  0  0
  6 95  1  0  0  0
  6 96  1  0  0  0
  7  8  2  0  0  0
  7 26  1  0  0  0
  7 29  1  0  0  0
  8  9  1  0  0  0
  8 22  1  0  0  0
  9 10  1  0  0  0
  9 27  2  0  0  0
 10 11  2  0  0  0
 10 15  1  0  0  0
 11 12  1  0  0  0
 11 97  1  0  0  0
 12 13  2  0  0  0
 12 98  1  0  0  0
 13 14  1  0  0  0
 13 31  1  0  0  0
 14 15  2  0  0  0
 14 99  1  0  0  0
 15100  1  0  0  0
 16 17  2  0  0  0
 16 21  1  0  0  0
 16 31  1  0  0  0
 17 18  1  0  0  0
 17101  1  0  0  0
 18 19  2  0  0  0
 18102  1  0  0  0
 19 20  1  0  0  0
 19 24  1  0  0  0
 20 21  2  0  0  0
 20103  1  0  0  0
 21 23  1  0  0  0
 22 28  1  0  0  0
 22 32  2  0  0  0
 26 27  1  0  0  0
 28104  1  0  0  0
 28105  1  0  0  0
 29106  1  0  0  0
 29107  1  0  0  0
 33 34  1  0  0  0
 33 66  1  0  0  0
 33 70  2  0  0  0
 34 36  1  0  0  0
 34 59  1  0  0  0
 34108  1  0  0  0
 35 44  2  0  0  0
 35 45  1  0  0  0
 35 68  1  0  0  0
 36 56  1  0  0  0
 36109  1  0  0  0
 37 39  1  0  0  0
 37 47  1  0  0  0
 37 66  1  0  0  0
 37110  1  0  0  0
 38 43  2  0  0  0
 38 46  1  0  0  0
 38 47  1  0  0  0
 39 64  1  0  0  0
 39 67  2  0  0  0
 40 52  1  0  0  0
 40 53  2  0  0  0
 40 58  1  0  0  0
 41111  1  0  0  0
 41112  1  0  0  0
 41113  1  0  0  0
 41 48  1  0  0  0
 42 43  1  0  0  0
 42 66  1  0  0  0
 42114  1  0  0  0
 42115  1  0  0  0
 43 44  1  0  0  0
 44116  1  0  0  0
 45 46  2  0  0  0
 45117  1  0  0  0
 46118  1  0  0  0
 47119  1  0  0  0
 47120  1  0  0  0
 48 56  1  0  0  0
 48 65  1  0  0  0
 48121  1  0  0  0
 49 50  1  0  0  0
 49 53  1  0  0  0
 49 64  1  0  0  0
 49122  1  0  0  0
 50 51  1  0  0  0
 50123  1  0  0  0
 50124  1  0  0  0
 51 52  1  0  0  0
 51125  1  0  0  0
 51126  1  0  0  0
 52127  1  0  0  0
 52128  1  0  0  0
 53 54  1  0  0  0
 54 55  2  0  0  0
 54129  1  0  0  0
 55 57  1  0  0  0
 55130  1  0  0  0
 56 69  2  0  0  0
 57 58  2  0  0  0
 57131  1  0  0  0
 58132  1  0  0  0
 59 60  1  0  0  0
 59 61  1  0  0  0
 59 62  1  0  0  0
 60133  1  0  0  0
 60134  1  0  0  0
 60135  1  0  0  0
 61136  1  0  0  0
 61137  1  0  0  0
 61138  1  0  0  0
 62139  1  0  0  0
 62140  1  0  0  0
 62141  1  0  0  0
 63 65  1  0  0  0
 63142  1  0  0  0
 63143  1  0  0  0
 63144  1  0  0  0
 64145  1  0  0  0
 65146  1  0  0  0
 68 82  1  0  0  0
 71 73  2  0  0  0
 71 74  1  0  0  0
 71147  1  0  0  0
 72 73  1  0  0  0
 72 76  2  0  0  0
 72148  1  0  0  0
 73 85  1  0  0  0
 74 75  2  0  0  0
 74 83  1  0  0  0
 75 76  1  0  0  0
 75 84  1  0  0  0
 76 86  1  0  0  0
 77 78  2  0  0  0
 77 79  1  0  0  0
 77 87  1  0  0  0
 78149  1  0  0  0
 78150  1  0  0  0
 79 80  1  0  0  0
 79151  1  0  0  0
 79152  1  0  0  0
 80 82  1  0  0  0
 80153  1  0  0  0
 80154  1  0  0  0
 81 82  1  0  0  0
 81 87  1  0  0  0
 81155  1  0  0  0
 81156  1  0  0  0
 82157  1  0  0  0
 83158  1  0  0  0
 83159  1  0  0  0
 83160  1  0  0  0
 84161  1  0  0  0
 84162  1  0  0  0
 84163  1  0  0  0
 85164  1  0  0  0
 85165  1  0  0  0
 85 87  1  0  0  0
 86166  1  0  0  0
 87167  1  0  0  0
M  CHG  1  87   1
M  ISO  4   1 100  68 101  82 101  86 100
M  END
> <chiral flag>
0

> <version>
0

> <s_m_source_file>
/data/baiqing/PycharmProjects/Reinvent-master-3.2/result/LINK_invent/BTK/process_docking_weight1_custom_product_contain_oxygen_bond_distance_aromatic_linkinvent_7_9_3/rearranged_h_0037.sdf

> <i_m_source_file_index>
46

> <r_mmod_Potential_Energy-OPLS-2005>
153.095275878906

> <r_mmod_Stretch_Energy-OPLS-2005>
131.356307983398

> <r_mmod_Bend_Energy-OPLS-2005>
222.996795654297

> <r_mmod_Torsional_Energy-OPLS-2005>
292.868072509766

> <r_mmod_Improper_Torsional_Energy-OPLS-2005>
9.29474544525146

> <r_mmod_Van_der_Waal_Energy-OPLS-2005>
141.064514160156

> <r_mmod_Electrostatic_Energy-OPLS-2005>
-295.817413330078

> <r_mmod_Solvation_Energy-OPLS-2005>
-429.515655517578

> <b_mmod_Minimization_Converged-OPLS-2005>
0

> <r_mmod_RMS_Derivative-OPLS-2005>
4.39340829849243

$$$$
46
                    3D
 Structure written by MMmdl.
169178  0  0  1  0            999 V2000
  -30.6130  -14.7484   20.4097 C   0  0  0  0  0  0
  -30.4375  -12.4416   19.4828 C   0  0  0  0  0  0
  -29.5037  -12.4290   18.2487 C   0  0  0  0  0  0
  -28.0302  -12.2956   18.6673 C   0  0  0  0  0  0
  -27.6401  -13.2284   19.8430 C   0  0  2  0  0  0
  -28.6866  -13.1771   20.9788 C   0  0  0  0  0  0
  -25.2507  -13.8205   20.5697 C   0  0  0  0  0  0
  -24.1787  -13.0453   20.9220 C   0  0  0  0  0  0
  -24.6399  -11.6932   20.8758 C   0  0  0  0  0  0
  -23.9070  -10.4313   21.0406 C   0  0  0  0  0  0
  -24.3618   -9.4203   21.9158 C   0  0  0  0  0  0
  -23.6310   -8.2231   22.0721 C   0  0  0  0  0  0
  -22.4294   -8.0284   21.3511 C   0  0  0  0  0  0
  -21.9916   -9.0259   20.4613 C   0  0  0  0  0  0
  -22.7247  -10.2146   20.3035 C   0  0  0  0  0  0
  -21.6874   -6.0745   22.5269 C   0  0  0  0  0  0
  -21.4044   -6.5634   23.8208 C   0  0  0  0  0  0
  -21.3657   -5.6768   24.9157 C   0  0  0  0  0  0
  -21.6043   -4.3034   24.7186 C   0  0  0  0  0  0
  -21.8831   -3.8146   23.4299 C   0  0  0  0  0  0
  -21.9196   -4.6978   22.3373 C   0  0  0  0  0  0
  -22.7803  -13.5222   21.1856 C   0  0  0  0  0  0
  -22.1654   -4.2171   21.0951 F   0  0  0  0  0  0
  -21.5612   -3.4511   25.7695 F   0  0  0  0  0  0
  -29.9874  -13.5200   20.3932 N   0  0  0  0  0  0
  -26.2932  -12.9421   20.3272 N   0  0  0  0  0  0
  -25.9341  -11.6564   20.5805 N   0  0  0  0  0  0
  -22.0436  -12.8221   22.0410 N   0  0  0  0  0  0
  -25.4222  -15.1930   20.4114 N   0  0  0  0  0  0
  -31.8121  -14.8207   20.1379 O   0  0  0  0  0  0
  -21.6632   -6.8896   21.4235 O   0  0  0  0  0  0
  -22.3477  -14.5507   20.6674 O   0  0  0  0  0  0
  -24.6245  -31.8553   23.1989 C   0  0  0  0  0  0
  -25.9076  -32.4764   23.8338 C   0  0  1  0  0  0
  -27.2312  -27.2834   20.1395 C   0  0  0  0  0  0
  -25.5871  -33.8570   24.2238 N   0  0  0  0  0  0
  -23.4241  -30.4742   21.5380 C   0  0  2  0  0  0
  -24.8755  -28.9178   20.1047 C   0  0  0  0  0  0
  -22.7484  -29.4596   22.4903 C   0  0  0  0  0  0
  -18.0283  -28.1394   22.8479 C   0  0  0  0  0  0
  -24.1489  -36.7296   23.2655 C   0  0  0  0  0  0
  -25.9643  -30.7740   21.3779 C   0  0  0  0  0  0
  -26.0366  -29.3978   20.7203 C   0  0  0  0  0  0
  -27.2100  -28.5879   20.7312 C   0  0  0  0  0  0
  -26.0525  -26.8551   19.4942 C   0  0  0  0  0  0
  -24.8880  -27.6555   19.4803 C   0  0  0  0  0  0
  -23.6425  -29.8013   20.1538 C   0  0  0  0  0  0
  -25.4120  -36.3077   24.0334 C   0  0  1  0  0  0
  -20.5888  -28.3695   23.1270 C   0  0  2  0  0  0
  -20.6767  -26.9407   22.5426 C   0  0  0  0  0  0
  -19.5761  -26.6379   21.5219 C   0  0  0  0  0  0
  -18.1931  -26.7940   22.1606 C   0  0  0  0  0  0
  -19.1533  -28.8862   23.2879 C   0  0  0  0  0  0
  -18.9460  -30.1462   23.8906 C   0  0  0  0  0  0
  -17.6462  -30.6591   24.0569 C   0  0  0  0  0  0
  -25.9045  -34.9448   23.5094 C   0  0  0  0  0  0
  -16.5356  -29.9091   23.6334 C   0  0  0  0  0  0
  -16.7274  -28.6512   23.0353 C   0  0  0  0  0  0
  -26.4468  -31.6612   25.0735 C   0  0  0  0  0  0
  -25.3708  -31.3768   26.1474 C   0  0  0  0  0  0
  -27.0331  -30.3038   24.6213 C   0  0  0  0  0  0
  -27.6001  -32.4409   25.7484 C   0  0  0  0  0  0
  -27.5587  -37.1808   24.8462 C   0  0  0  0  0  0
  -21.4198  -29.3030   22.3646 N   0  0  0  0  0  0
  -26.4297  -37.3768   23.9407 N   0  0  0  0  0  0
  -24.6892  -31.0532   22.0944 N   0  0  0  0  0  0
  -23.4189  -28.8146   23.3007 O   0  0  0  0  0  0
  -28.3638  -26.4621   20.2838 O   0  0  0  0  0  0
  -26.5640  -34.8924   22.4681 O   0  0  0  0  0  0
  -23.5397  -32.1357   23.7298 O   0  0  0  0  0  0
  -29.7375  -18.4395   17.7205 C   0  0  0  0  0  0
  -29.3400  -18.4538   20.4527 C   0  0  0  0  0  0
  -29.1202  -19.5573   18.3028 C   0  0  0  0  0  0
  -30.1289  -17.3051   18.4567 C   0  0  0  0  0  0
  -29.0444  -19.6819   19.7135 C   0  0  0  0  0  0
  -29.8239  -17.2099   19.8468 C   0  0  0  0  0  0
  -30.6803  -24.6691   18.0820 C   0  0  0  0  0  0
  -30.2959  -23.1907   18.0340 C   0  0  0  0  0  0
  -30.1253  -25.4159   19.2977 C   0  0  0  0  0  0
  -30.4475  -22.4639   19.3810 C   0  0  0  0  0  0
  -28.4306  -23.7579   20.4655 C   0  0  0  0  0  0
  -28.6432  -25.1492   19.6291 C   0  0  1  0  0  0
  -28.5026  -20.5475   17.3266 C   0  0  0  0  0  0
  -30.8151  -16.2228   17.6415 C   0  0  0  0  0  0
  -28.4961  -21.0520   20.3545 C   0  0  0  0  0  0
  -29.8369  -15.8945   20.5599 N   0  0  0  0  0  0
  -29.2072  -22.4244   20.2035 N   0  3  1  0  0  0
  -31.4750  -12.5712   19.1691 H   0  0  0  0  0  0
  -30.4009  -11.4832   20.0021 H   0  0  0  0  0  0
  -29.7787  -11.6001   17.5953 H   0  0  0  0  0  0
  -29.6262  -13.3252   17.6514 H   0  0  0  0  0  0
  -27.8789  -11.2572   18.9599 H   0  0  0  0  0  0
  -27.3767  -12.4630   17.8112 H   0  0  0  0  0  0
  -27.6350  -14.2419   19.4419 H   0  0  0  0  0  0
  -28.7205  -12.1829   21.4293 H   0  0  0  0  0  0
  -28.4284  -13.8693   21.7817 H   0  0  0  0  0  0
  -25.2779   -9.5694   22.4701 H   0  0  0  0  0  0
  -24.0036   -7.4632   22.7438 H   0  0  0  0  0  0
  -21.0831   -8.8768   19.8946 H   0  0  0  0  0  0
  -22.3682  -10.9664   19.6122 H   0  0  0  0  0  0
  -21.2065   -7.6150   23.9739 H   0  0  0  0  0  0
  -21.1456   -6.0474   25.9065 H   0  0  0  0  0  0
  -22.0624   -2.7620   23.2769 H   0  0  0  0  0  0
  -22.4099  -11.9932   22.4864 H   0  0  0  0  0  0
  -21.1061  -13.1250   22.2603 H   0  0  0  0  0  0
  -24.6591  -15.8510   20.5280 H   0  0  0  0  0  0
  -26.2783  -15.6320   20.0956 H   0  0  0  0  0  0
  -26.7136  -32.5417   23.1075 H   0  0  0  0  0  0
  -24.9971  -33.9707   25.0349 H   0  0  0  0  0  0
  -22.7197  -31.2951   21.3882 H   0  0  0  0  0  0
  -23.3751  -35.9628   23.3323 H   0  0  0  0  0  0
  -24.3565  -36.8916   22.2067 H   0  0  0  0  0  0
  -23.7247  -37.6502   23.6680 H   0  0  0  0  0  0
  -26.1063  -31.5375   20.6110 H   0  0  0  0  0  0
  -26.8401  -30.8187   22.0145 H   0  0  0  0  0  0
  -28.0970  -28.9413   21.2386 H   0  0  0  0  0  0
  -26.0014  -25.8786   19.0352 H   0  0  0  0  0  0
  -23.9935  -27.2844   18.9979 H   0  0  0  0  0  0
  -23.7622  -30.5742   19.3930 H   0  0  0  0  0  0
  -22.7632  -29.2288   19.8540 H   0  0  0  0  0  0
  -25.1311  -36.1925   25.0826 H   0  0  0  0  0  0
  -20.9996  -28.3291   24.1391 H   0  0  0  0  0  0
  -20.5653  -26.2313   23.3639 H   0  0  0  0  0  0
  -21.6632  -26.7432   22.1230 H   0  0  0  0  0  0
  -19.6917  -25.6285   21.1264 H   0  0  0  0  0  0
  -19.6712  -27.3176   20.6743 H   0  0  0  0  0  0
  -17.4215  -26.6722   21.3992 H   0  0  0  0  0  0
  -18.0305  -26.0077   22.8986 H   0  0  0  0  0  0
  -19.7938  -30.7272   24.2284 H   0  0  0  0  0  0
  -17.5017  -31.6266   24.5175 H   0  0  0  0  0  0
  -15.5354  -30.2996   23.7657 H   0  0  0  0  0  0
  -15.8677  -28.0838   22.7063 H   0  0  0  0  0  0
  -24.5795  -30.7219   25.7807 H   0  0  0  0  0  0
  -24.9001  -32.2950   26.4998 H   0  0  0  0  0  0
  -25.8010  -30.8848   27.0202 H   0  0  0  0  0  0
  -26.2906  -29.6788   24.1224 H   0  0  0  0  0  0
  -27.4015  -29.7304   25.4731 H   0  0  0  0  0  0
  -27.8787  -30.4351   23.9456 H   0  0  0  0  0  0
  -27.2539  -33.3669   26.2090 H   0  0  0  0  0  0
  -28.3738  -32.7068   25.0272 H   0  0  0  0  0  0
  -28.0755  -31.8566   26.5365 H   0  0  0  0  0  0
  -28.2609  -38.0097   24.7480 H   0  0  0  0  0  0
  -28.1062  -36.2624   24.6303 H   0  0  0  0  0  0
  -27.2303  -37.1486   25.8863 H   0  0  0  0  0  0
  -20.9385  -29.8723   21.6825 H   0  0  0  0  0  0
  -26.0183  -38.2847   24.1385 H   0  0  0  0  0  0
  -29.8699  -18.4401   16.6478 H   0  0  0  0  0  0
  -29.1447  -18.4555   21.5158 H   0  0  0  0  0  0
  -30.3441  -25.1599   17.1661 H   0  0  0  0  0  0
  -31.7664  -24.7654   18.0844 H   0  0  0  0  0  0
  -30.9414  -22.7049   17.3006 H   0  0  0  0  0  0
  -29.2806  -23.0962   17.6533 H   0  0  0  0  0  0
  -30.2757  -26.4756   19.0876 H   0  0  0  0  0  0
  -30.7268  -25.2257   20.1867 H   0  0  0  0  0  0
  -31.2334  -22.9326   19.9750 H   0  0  0  0  0  0
  -30.8251  -21.4590   19.2071 H   0  0  0  0  0  0
  -27.3646  -23.5341   20.4598 H   0  0  0  0  0  0
  -28.6424  -23.9942   21.5081 H   0  0  0  0  0  0
  -28.0876  -25.0944   18.6936 H   0  0  0  0  0  0
  -27.8588  -20.0074   16.6289 H   0  0  0  0  0  0
  -29.2720  -21.0244   16.7202 H   0  0  0  0  0  0
  -27.8781  -21.3059   17.7952 H   0  0  0  0  0  0
  -30.8120  -16.4505   16.5748 H   0  0  0  0  0  0
  -30.3223  -15.2674   17.7500 H   0  0  0  0  0  0
  -31.8584  -16.1342   17.9404 H   0  0  0  0  0  0
  -28.4197  -20.8722   21.4267 H   0  0  0  0  0  0
  -27.4611  -21.1774   20.0391 H   0  0  0  0  0  0
  -28.9792  -15.7116   21.0564 H   0  0  0  0  0  0
  -29.6789  -22.3713   21.0943 H   0  0  0  0  0  0
  1 25  1  0  0  0
  1 30  2  0  0  0
  1 86  1  0  0  0
  2  3  1  0  0  0
  2 25  1  0  0  0
  2 88  1  0  0  0
  2 89  1  0  0  0
  3  4  1  0  0  0
  3 90  1  0  0  0
  3 91  1  0  0  0
  4  5  1  0  0  0
  4 92  1  0  0  0
  4 93  1  0  0  0
  5  6  1  0  0  0
  5 26  1  0  0  0
  5 94  1  0  0  0
  6 25  1  0  0  0
  6 95  1  0  0  0
  6 96  1  0  0  0
  7  8  2  0  0  0
  7 26  1  0  0  0
  7 29  1  0  0  0
  8  9  1  0  0  0
  8 22  1  0  0  0
  9 10  1  0  0  0
  9 27  2  0  0  0
 10 11  2  0  0  0
 10 15  1  0  0  0
 11 12  1  0  0  0
 11 97  1  0  0  0
 12 13  2  0  0  0
 12 98  1  0  0  0
 13 14  1  0  0  0
 13 31  1  0  0  0
 14 15  2  0  0  0
 14 99  1  0  0  0
 15100  1  0  0  0
 16 17  2  0  0  0
 16 21  1  0  0  0
 16 31  1  0  0  0
 17 18  1  0  0  0
 17101  1  0  0  0
 18 19  2  0  0  0
 18102  1  0  0  0
 19 20  1  0  0  0
 19 24  1  0  0  0
 20 21  2  0  0  0
 20103  1  0  0  0
 21 23  1  0  0  0
 22 28  1  0  0  0
 22 32  2  0  0  0
 26 27  1  0  0  0
 28104  1  0  0  0
 28105  1  0  0  0
 29106  1  0  0  0
 29107  1  0  0  0
 33 34  1  0  0  0
 33 66  1  0  0  0
 33 70  2  0  0  0
 34 36  1  0  0  0
 34 59  1  0  0  0
 34108  1  0  0  0
 35 44  2  0  0  0
 35 45  1  0  0  0
 35 68  1  0  0  0
 36 56  1  0  0  0
 36109  1  0  0  0
 37 39  1  0  0  0
 37 47  1  0  0  0
 37 66  1  0  0  0
 37110  1  0  0  0
 38 43  2  0  0  0
 38 46  1  0  0  0
 38 47  1  0  0  0
 39 64  1  0  0  0
 39 67  2  0  0  0
 40 52  1  0  0  0
 40 53  2  0  0  0
 40 58  1  0  0  0
 41111  1  0  0  0
 41112  1  0  0  0
 41113  1  0  0  0
 41 48  1  0  0  0
 42 43  1  0  0  0
 42 66  1  0  0  0
 42114  1  0  0  0
 42115  1  0  0  0
 43 44  1  0  0  0
 44116  1  0  0  0
 45 46  2  0  0  0
 45117  1  0  0  0
 46118  1  0  0  0
 47119  1  0  0  0
 47120  1  0  0  0
 48 56  1  0  0  0
 48 65  1  0  0  0
 48121  1  0  0  0
 49 50  1  0  0  0
 49 53  1  0  0  0
 49 64  1  0  0  0
 49122  1  0  0  0
 50 51  1  0  0  0
 50123  1  0  0  0
 50124  1  0  0  0
 51 52  1  0  0  0
 51125  1  0  0  0
 51126  1  0  0  0
 52127  1  0  0  0
 52128  1  0  0  0
 53 54  1  0  0  0
 54 55  2  0  0  0
 54129  1  0  0  0
 55 57  1  0  0  0
 55130  1  0  0  0
 56 69  2  0  0  0
 57 58  2  0  0  0
 57131  1  0  0  0
 58132  1  0  0  0
 59 60  1  0  0  0
 59 61  1  0  0  0
 59 62  1  0  0  0
 60133  1  0  0  0
 60134  1  0  0  0
 60135  1  0  0  0
 61136  1  0  0  0
 61137  1  0  0  0
 61138  1  0  0  0
 62139  1  0  0  0
 62140  1  0  0  0
 62141  1  0  0  0
 63 65  1  0  0  0
 63142  1  0  0  0
 63143  1  0  0  0
 63144  1  0  0  0
 64145  1  0  0  0
 65146  1  0  0  0
 68 82  1  0  0  0
 71 73  2  0  0  0
 71 74  1  0  0  0
 71147  1  0  0  0
 72 75  2  0  0  0
 72 76  1  0  0  0
 72148  1  0  0  0
 73 75  1  0  0  0
 73 83  1  0  0  0
 74 76  2  0  0  0
 74 84  1  0  0  0
 75 85  1  0  0  0
 76 86  1  0  0  0
 77 78  1  0  0  0
 77 79  1  0  0  0
 77149  1  0  0  0
 77150  1  0  0  0
 78 80  1  0  0  0
 78151  1  0  0  0
 78152  1  0  0  0
 79 82  1  0  0  0
 79153  1  0  0  0
 79154  1  0  0  0
 80 87  1  0  0  0
 80155  1  0  0  0
 80156  1  0  0  0
 81 82  1  0  0  0
 81 87  1  0  0  0
 81157  1  0  0  0
 81158  1  0  0  0
 82159  1  0  0  0
 83160  1  0  0  0
 83161  1  0  0  0
 83162  1  0  0  0
 84163  1  0  0  0
 84164  1  0  0  0
 84165  1  0  0  0
 85166  1  0  0  0
 85167  1  0  0  0
 85 87  1  0  0  0
 86168  1  0  0  0
 87169  1  0  0  0
M  CHG  1  87   1
M  ISO  4   1 100  68 101  82 101  86 100
M  END
> <chiral flag>
0

> <version>
0

> <s_m_source_file>
/data/baiqing/PycharmProjects/Reinvent-master-3.2/result/LINK_invent/BTK/process_docking_weight1_custom_product_contain_oxygen_bond_distance_aromatic_linkinvent_7_9_3/rearranged_h_0037.sdf

> <i_m_source_file_index>
47

> <r_mmod_Potential_Energy-OPLS-2005>
249.613235473633

> <r_mmod_Stretch_Energy-OPLS-2005>
138.92041015625

> <r_mmod_Bend_Energy-OPLS-2005>
250.869766235352

> <r_mmod_Torsional_Energy-OPLS-2005>
316.263244628906

> <r_mmod_Improper_Torsional_Energy-OPLS-2005>
6.24987363815308

> <r_mmod_Van_der_Waal_Energy-OPLS-2005>
149.041854858398

> <r_mmod_Electrostatic_Energy-OPLS-2005>
-274.393676757812

> <r_mmod_Solvation_Energy-OPLS-2005>
-422.263580322266

> <b_mmod_Minimization_Converged-OPLS-2005>
0

> <r_mmod_RMS_Derivative-OPLS-2005>
3.726478099823

$$$$
47
                    3D
 Structure written by MMmdl.
184193  0  0  1  0            999 V2000
  -30.6568  -14.5149   20.5907 C   0  0  0  0  0  0
  -30.4323  -12.3395   19.4196 C   0  0  0  0  0  0
  -29.4964  -12.5146   18.2047 C   0  0  0  0  0  0
  -28.0173  -12.3644   18.6168 C   0  0  0  0  0  0
  -27.6595  -13.2023   19.8730 C   0  0  2  0  0  0
  -28.7005  -12.9784   20.9914 C   0  0  0  0  0  0
  -25.2582  -13.8123   20.5607 C   0  0  0  0  0  0
  -24.1847  -13.0440   20.9200 C   0  0  0  0  0  0
  -24.6399  -11.6901   20.8783 C   0  0  0  0  0  0
  -23.9056  -10.4293   21.0446 C   0  0  0  0  0  0
  -24.3614   -9.4198   21.9203 C   0  0  0  0  0  0
  -23.6299   -8.2225   22.0742 C   0  0  0  0  0  0
  -22.4267   -8.0284   21.3545 C   0  0  0  0  0  0
  -21.9914   -9.0258   20.4640 C   0  0  0  0  0  0
  -22.7243  -10.2144   20.3076 C   0  0  0  0  0  0
  -21.6831   -6.0752   22.5288 C   0  0  0  0  0  0
  -21.4007   -6.5644   23.8231 C   0  0  0  0  0  0
  -21.3653   -5.6785   24.9180 C   0  0  0  0  0  0
  -21.6040   -4.3051   24.7215 C   0  0  0  0  0  0
  -21.8822   -3.8159   23.4332 C   0  0  0  0  0  0
  -21.9176   -4.6983   22.3397 C   0  0  0  0  0  0
  -22.7876  -13.5259   21.1848 C   0  0  0  0  0  0
  -22.1635   -4.2175   21.0973 F   0  0  0  0  0  0
  -21.5645   -3.4531   25.7725 F   0  0  0  0  0  0
  -30.0219  -13.3176   20.4406 N   0  0  0  0  0  0
  -26.3017  -12.9291   20.3350 N   0  0  0  0  0  0
  -25.9319  -11.6467   20.5799 N   0  0  0  0  0  0
  -22.0508  -12.8266   22.0414 N   0  0  0  0  0  0
  -25.4287  -15.1808   20.3817 N   0  0  0  0  0  0
  -31.7887  -14.7274   20.1481 O   0  0  0  0  0  0
  -21.6615   -6.8896   21.4249 O   0  0  0  0  0  0
  -22.3564  -14.5546   20.6669 O   0  0  0  0  0  0
  -24.6176  -31.8636   23.2081 C   0  0  0  0  0  0
  -25.9066  -32.4790   23.8380 C   0  0  1  0  0  0
  -27.2366  -27.4041   20.1134 C   0  0  0  0  0  0
  -25.5927  -33.8593   24.2316 N   0  0  0  0  0  0
  -23.4058  -30.4870   21.5478 C   0  0  2  0  0  0
  -24.8526  -28.9394   20.1227 C   0  0  0  0  0  0
  -22.7403  -29.4650   22.4980 C   0  0  0  0  0  0
  -18.0268  -28.1378   22.8487 C   0  0  0  0  0  0
  -24.1481  -36.7292   23.2643 C   0  0  0  0  0  0
  -25.9359  -30.8204   21.3641 C   0  0  0  0  0  0
  -26.0133  -29.4497   20.7181 C   0  0  0  0  0  0
  -27.2101  -28.6931   20.7021 C   0  0  0  0  0  0
  -26.0576  -26.9079   19.5187 C   0  0  0  0  0  0
  -24.8708  -27.6681   19.5198 C   0  0  0  0  0  0
  -23.6172  -29.8134   20.1651 C   0  0  0  0  0  0
  -25.4107  -36.3091   24.0342 C   0  0  1  0  0  0
  -20.5855  -28.3670   23.1306 C   0  0  2  0  0  0
  -20.6756  -26.9404   22.5418 C   0  0  0  0  0  0
  -19.5747  -26.6380   21.5208 C   0  0  0  0  0  0
  -18.1920  -26.7925   22.1608 C   0  0  0  0  0  0
  -19.1515  -28.8839   23.2891 C   0  0  0  0  0  0
  -18.9447  -30.1445   23.8903 C   0  0  0  0  0  0
  -17.6451  -30.6586   24.0565 C   0  0  0  0  0  0
  -25.9042  -34.9461   23.5124 C   0  0  0  0  0  0
  -16.5340  -29.9089   23.6339 C   0  0  0  0  0  0
  -16.7253  -28.6504   23.0354 C   0  0  0  0  0  0
  -26.4497  -31.6570   25.0708 C   0  0  0  0  0  0
  -25.3777  -31.3658   26.1458 C   0  0  0  0  0  0
  -27.0334  -30.3019   24.6085 C   0  0  0  0  0  0
  -27.6059  -32.4301   25.7476 C   0  0  0  0  0  0
  -27.5575  -37.1803   24.8477 C   0  0  0  0  0  0
  -21.4130  -29.3038   22.3712 N   0  0  0  0  0  0
  -26.4285  -37.3782   23.9421 N   0  0  0  0  0  0
  -24.6713  -31.0722   22.0984 N   0  0  0  0  0  0
  -23.4155  -28.8204   23.3049 O   0  0  0  0  0  0
  -28.4135  -26.6840   20.0367 O   0  0  0  0  0  0
  -26.5589  -34.8919   22.4679 O   0  0  0  0  0  0
  -23.5369  -32.1392   23.7473 O   0  0  0  0  0  0
  -29.6594  -17.8402   19.2773 C   0  0  0  0  0  0
  -28.7673  -20.0720   18.9282 C   0  0  0  0  0  0
  -29.6624  -18.0270   20.6755 C   0  0  0  0  0  0
  -28.7256  -20.3164   20.3189 C   0  0  0  0  0  0
  -29.1776  -19.2779   21.2182 C   0  0  0  0  0  0
  -29.2220  -18.8505   18.4093 C   0  0  0  0  0  0
  -24.7217  -17.3677   23.5973 C   0  0  0  0  0  0
  -25.4041  -16.0537   24.0336 C   0  0  0  0  0  0
  -25.3196  -18.0295   22.3384 C   0  0  0  0  0  0
  -26.9306  -16.1129   24.2658 C   0  0  0  0  0  0
  -25.7690  -19.4926   22.5291 C   0  0  0  0  0  0
  -27.3900  -17.1868   25.2765 C   0  0  0  0  0  0
  -26.8390  -19.7258   23.6174 C   0  0  0  0  0  0
  -28.4376  -18.1895   24.7291 C   0  0  0  0  0  0
  -30.2865  -16.8763   21.5105 C   0  0  0  0  0  0
  -29.1810  -19.5022   22.7439 C   0  0  0  0  0  0
  -28.0782  -21.6722   20.7245 C   0  0  0  0  0  0
  -28.1006  -24.1413   20.0897 C   0  0  0  0  0  0
  -28.5394  -25.4621   20.8009 C   0  0  0  0  0  0
  -29.9035  -15.4931   21.1460 N   0  0  0  0  0  0
  -28.0337  -18.8496   23.4516 N   0  3  0  0  0  0
  -28.8792  -22.9131   20.4917 N   0  3  0  0  0  0
  -29.2436  -18.5887   16.7048 Cl  0  0  0  0  0  0
  -31.4731  -12.4666   19.1190 H   0  0  0  0  0  0
  -30.3608  -11.3254   19.8165 H   0  0  0  0  0  0
  -29.7448  -11.7903   17.4278 H   0  0  0  0  0  0
  -29.6541  -13.4991   17.7612 H   0  0  0  0  0  0
  -27.8314  -11.3078   18.8104 H   0  0  0  0  0  0
  -27.3647  -12.6388   17.7873 H   0  0  0  0  0  0
  -27.7034  -14.2507   19.5772 H   0  0  0  0  0  0
  -28.6950  -11.9349   21.3104 H   0  0  0  0  0  0
  -28.4540  -13.5521   21.8864 H   0  0  0  0  0  0
  -25.2763   -9.5671   22.4771 H   0  0  0  0  0  0
  -24.0034   -7.4606   22.7434 H   0  0  0  0  0  0
  -21.0853   -8.8780   19.8924 H   0  0  0  0  0  0
  -22.3719  -10.9698   19.6187 H   0  0  0  0  0  0
  -21.2004   -7.6150   23.9755 H   0  0  0  0  0  0
  -21.1461   -6.0499   25.9091 H   0  0  0  0  0  0
  -22.0606   -2.7620   23.2815 H   0  0  0  0  0  0
  -22.4103  -11.9930   22.4815 H   0  0  0  0  0  0
  -21.1124  -13.1294   22.2584 H   0  0  0  0  0  0
  -24.6438  -15.8179   20.4472 H   0  0  0  0  0  0
  -26.2477  -15.6015   19.9659 H   0  0  0  0  0  0
  -26.7138  -32.5484   23.1137 H   0  0  0  0  0  0
  -25.0149  -33.9754   25.0514 H   0  0  0  0  0  0
  -22.6972  -31.3057   21.4048 H   0  0  0  0  0  0
  -23.3742  -35.9624   23.3306 H   0  0  0  0  0  0
  -24.3580  -36.8900   22.2056 H   0  0  0  0  0  0
  -23.7225  -37.6497   23.6654 H   0  0  0  0  0  0
  -26.0504  -31.5817   20.5909 H   0  0  0  0  0  0
  -26.8228  -30.8761   21.9821 H   0  0  0  0  0  0
  -28.1120  -29.0955   21.1421 H   0  0  0  0  0  0
  -26.0585  -25.9425   19.0331 H   0  0  0  0  0  0
  -23.9803  -27.2717   19.0508 H   0  0  0  0  0  0
  -23.7321  -30.5846   19.4023 H   0  0  0  0  0  0
  -22.7391  -29.2369   19.8681 H   0  0  0  0  0  0
  -25.1283  -36.1947   25.0833 H   0  0  0  0  0  0
  -20.9943  -28.3233   24.1426 H   0  0  0  0  0  0
  -20.5648  -26.2280   23.3609 H   0  0  0  0  0  0
  -21.6628  -26.7445   22.1217 H   0  0  0  0  0  0
  -19.6910  -25.6292   21.1231 H   0  0  0  0  0  0
  -19.6703  -27.3189   20.6738 H   0  0  0  0  0  0
  -17.4206  -26.6686   21.3989 H   0  0  0  0  0  0
  -18.0312  -26.0057   22.8987 H   0  0  0  0  0  0
  -19.7932  -30.7249   24.2265 H   0  0  0  0  0  0
  -17.5024  -31.6272   24.5159 H   0  0  0  0  0  0
  -15.5348  -30.2999   23.7675 H   0  0  0  0  0  0
  -15.8641  -28.0833   22.7067 H   0  0  0  0  0  0
  -24.6001  -30.6930   25.7820 H   0  0  0  0  0  0
  -24.8901  -32.2792   26.4875 H   0  0  0  0  0  0
  -25.8166  -30.8889   27.0230 H   0  0  0  0  0  0
  -26.2866  -29.6749   24.1191 H   0  0  0  0  0  0
  -27.4166  -29.7282   25.4534 H   0  0  0  0  0  0
  -27.8676  -30.4331   23.9187 H   0  0  0  0  0  0
  -27.2673  -33.3613   26.2029 H   0  0  0  0  0  0
  -28.3885  -32.6833   25.0311 H   0  0  0  0  0  0
  -28.0707  -31.8435   26.5407 H   0  0  0  0  0  0
  -28.2597  -38.0093   24.7522 H   0  0  0  0  0  0
  -28.1061  -36.2627   24.6301 H   0  0  0  0  0  0
  -27.2306  -37.1456   25.8883 H   0  0  0  0  0  0
  -20.9296  -29.8752   21.6920 H   0  0  0  0  0  0
  -26.0163  -38.2857   24.1421 H   0  0  0  0  0  0
  -30.0260  -16.9173   18.8509 H   0  0  0  0  0  0
  -28.4183  -20.8249   18.2350 H   0  0  0  0  0  0
  -24.6899  -18.0688   24.4306 H   0  0  0  0  0  0
  -23.6710  -17.1479   23.3997 H   0  0  0  0  0  0
  -25.1968  -15.2833   23.2896 H   0  0  0  0  0  0
  -24.9222  -15.7056   24.9483 H   0  0  0  0  0  0
  -24.5642  -18.0116   21.5514 H   0  0  0  0  0  0
  -26.1402  -17.4403   21.9332 H   0  0  0  0  0  0
  -27.4530  -16.2119   23.3150 H   0  0  0  0  0  0
  -27.2470  -15.1367   24.6362 H   0  0  0  0  0  0
  -24.8965  -20.1015   22.7708 H   0  0  0  0  0  0
  -26.1233  -19.8640   21.5695 H   0  0  0  0  0  0
  -27.8323  -16.6803   26.1350 H   0  0  0  0  0  0
  -26.5365  -17.7083   25.7062 H   0  0  0  0  0  0
  -26.3757  -19.5751   24.5906 H   0  0  0  0  0  0
  -27.1255  -20.7754   23.6546 H   0  0  0  0  0  0
  -29.3725  -17.6458   24.5930 H   0  0  0  0  0  0
  -28.6497  -18.9514   25.4819 H   0  0  0  0  0  0
  -30.0405  -16.9754   22.5619 H   0  0  0  0  0  0
  -31.3713  -16.9818   21.4584 H   0  0  0  0  0  0
  -29.2413  -20.5616   22.9911 H   0  0  0  0  0  0
  -30.1312  -19.1244   23.1224 H   0  0  0  0  0  0
  -27.7393  -21.6812   21.7548 H   0  0  0  0  0  0
  -27.1624  -21.7429   20.1352 H   0  0  0  0  0  0
  -28.2186  -24.2563   19.0123 H   0  0  0  0  0  0
  -27.0336  -24.0002   20.2603 H   0  0  0  0  0  0
  -29.6006  -25.3910   21.0386 H   0  0  0  0  0  0
  -28.0316  -25.5633   21.7613 H   0  0  0  0  0  0
  -28.9785  -15.2034   21.4219 H   0  0  0  0  0  0
  -27.7348  -18.0941   22.8541 H   0  0  0  0  0  0
  -29.5576  -22.7260   19.7700 H   0  0  0  0  0  0
  -29.4008  -23.1057   21.3320 H   0  0  0  0  0  0
  1 25  1  0  0  0
  1 30  2  0  0  0
  1 90  1  0  0  0
  2  3  1  0  0  0
  2 25  1  0  0  0
  2 94  1  0  0  0
  2 95  1  0  0  0
  3  4  1  0  0  0
  3 96  1  0  0  0
  3 97  1  0  0  0
  4  5  1  0  0  0
  4 98  1  0  0  0
  4 99  1  0  0  0
  5  6  1  0  0  0
  5 26  1  0  0  0
  5100  1  0  0  0
  6 25  1  0  0  0
  6101  1  0  0  0
  6102  1  0  0  0
  7  8  2  0  0  0
  7 26  1  0  0  0
  7 29  1  0  0  0
  8  9  1  0  0  0
  8 22  1  0  0  0
  9 10  1  0  0  0
  9 27  2  0  0  0
 10 11  2  0  0  0
 10 15  1  0  0  0
 11 12  1  0  0  0
 11103  1  0  0  0
 12 13  2  0  0  0
 12104  1  0  0  0
 13 14  1  0  0  0
 13 31  1  0  0  0
 14 15  2  0  0  0
 14105  1  0  0  0
 15106  1  0  0  0
 16 17  2  0  0  0
 16 21  1  0  0  0
 16 31  1  0  0  0
 17 18  1  0  0  0
 17107  1  0  0  0
 18 19  2  0  0  0
 18108  1  0  0  0
 19 20  1  0  0  0
 19 24  1  0  0  0
 20 21  2  0  0  0
 20109  1  0  0  0
 21 23  1  0  0  0
 22 28  1  0  0  0
 22 32  2  0  0  0
 26 27  1  0  0  0
 28110  1  0  0  0
 28111  1  0  0  0
 29112  1  0  0  0
 29113  1  0  0  0
 33 34  1  0  0  0
 33 66  1  0  0  0
 33 70  2  0  0  0
 34 36  1  0  0  0
 34 59  1  0  0  0
 34114  1  0  0  0
 35 44  2  0  0  0
 35 45  1  0  0  0
 35 68  1  0  0  0
 36 56  1  0  0  0
 36115  1  0  0  0
 37 39  1  0  0  0
 37 47  1  0  0  0
 37 66  1  0  0  0
 37116  1  0  0  0
 38 43  2  0  0  0
 38 46  1  0  0  0
 38 47  1  0  0  0
 39 64  1  0  0  0
 39 67  2  0  0  0
 40 52  1  0  0  0
 40 53  2  0  0  0
 40 58  1  0  0  0
 41117  1  0  0  0
 41118  1  0  0  0
 41119  1  0  0  0
 41 48  1  0  0  0
 42 43  1  0  0  0
 42 66  1  0  0  0
 42120  1  0  0  0
 42121  1  0  0  0
 43 44  1  0  0  0
 44122  1  0  0  0
 45 46  2  0  0  0
 45123  1  0  0  0
 46124  1  0  0  0
 47125  1  0  0  0
 47126  1  0  0  0
 48 56  1  0  0  0
 48 65  1  0  0  0
 48127  1  0  0  0
 49 50  1  0  0  0
 49 53  1  0  0  0
 49 64  1  0  0  0
 49128  1  0  0  0
 50 51  1  0  0  0
 50129  1  0  0  0
 50130  1  0  0  0
 51 52  1  0  0  0
 51131  1  0  0  0
 51132  1  0  0  0
 52133  1  0  0  0
 52134  1  0  0  0
 53 54  1  0  0  0
 54 55  2  0  0  0
 54135  1  0  0  0
 55 57  1  0  0  0
 55136  1  0  0  0
 56 69  2  0  0  0
 57 58  2  0  0  0
 57137  1  0  0  0
 58138  1  0  0  0
 59 60  1  0  0  0
 59 61  1  0  0  0
 59 62  1  0  0  0
 60139  1  0  0  0
 60140  1  0  0  0
 60141  1  0  0  0
 61142  1  0  0  0
 61143  1  0  0  0
 61144  1  0  0  0
 62145  1  0  0  0
 62146  1  0  0  0
 62147  1  0  0  0
 63 65  1  0  0  0
 63148  1  0  0  0
 63149  1  0  0  0
 63150  1  0  0  0
 64151  1  0  0  0
 65152  1  0  0  0
 68 89  1  0  0  0
 71 73  2  0  0  0
 71 76  1  0  0  0
 71153  1  0  0  0
 72 74  1  0  0  0
 72 76  2  0  0  0
 72154  1  0  0  0
 73 75  1  0  0  0
 73 85  1  0  0  0
 74 75  2  0  0  0
 74 87  1  0  0  0
 75 86  1  0  0  0
 76 93  1  0  0  0
 77 78  1  0  0  0
 77 79  1  0  0  0
 77155  1  0  0  0
 77156  1  0  0  0
 78 80  1  0  0  0
 78157  1  0  0  0
 78158  1  0  0  0
 79 81  1  0  0  0
 79159  1  0  0  0
 79160  1  0  0  0
 80 82  1  0  0  0
 80161  1  0  0  0
 80162  1  0  0  0
 81 83  1  0  0  0
 81163  1  0  0  0
 81164  1  0  0  0
 82 84  1  0  0  0
 82165  1  0  0  0
 82166  1  0  0  0
 83 91  1  0  0  0
 83167  1  0  0  0
 83168  1  0  0  0
 84 91  1  0  0  0
 84169  1  0  0  0
 84170  1  0  0  0
 85 90  1  0  0  0
 85171  1  0  0  0
 85172  1  0  0  0
 86173  1  0  0  0
 86174  1  0  0  0
 86 91  1  0  0  0
 87 92  1  0  0  0
 87175  1  0  0  0
 87176  1  0  0  0
 88 89  1  0  0  0
 88 92  1  0  0  0
 88177  1  0  0  0
 88178  1  0  0  0
 89179  1  0  0  0
 89180  1  0  0  0
 90181  1  0  0  0
 91182  1  0  0  0
 92183  1  0  0  0
 92184  1  0  0  0
M  CHG  2  91   1  92   1
M  ISO  4   1 100  68 101  89 101  90 100
M  END
> <chiral flag>
0

> <version>
0

> <s_m_source_file>
/data/baiqing/PycharmProjects/Reinvent-master-3.2/result/LINK_invent/BTK/process_docking_weight1_custom_product_contain_oxygen_bond_distance_aromatic_linkinvent_7_9_3/rearranged_h_0037.sdf

> <i_m_source_file_index>
48

> <r_mmod_Potential_Energy-OPLS-2005>
-249.803100585938

> <r_mmod_Stretch_Energy-OPLS-2005>
59.1071701049805

> <r_mmod_Bend_Energy-OPLS-2005>
135.097946166992

> <r_mmod_Torsional_Energy-OPLS-2005>
290.778411865234

> <r_mmod_Improper_Torsional_Energy-OPLS-2005>
4.14590930938721

> <r_mmod_Van_der_Waal_Energy-OPLS-2005>
124.275451660156

> <r_mmod_Electrostatic_Energy-OPLS-2005>
70.8571319580078

> <r_mmod_Solvation_Energy-OPLS-2005>
-950.606811523438

> <b_mmod_Minimization_Converged-OPLS-2005>
0

> <r_mmod_RMS_Derivative-OPLS-2005>
1.83466219902039

$$$$
48
                    3D
 Structure written by MMmdl.
168177  0  0  1  0            999 V2000
  -29.8441  -16.9236   20.2620 C   0  0  0  0  0  0
  -30.2769  -14.0710   19.5244 C   0  0  0  0  0  0
  -29.5816  -13.0978   18.4592 C   0  0  0  0  0  0
  -28.2944  -12.4509   18.9683 C   0  0  0  0  0  0
  -27.5864  -13.4935   19.8363 C   0  0  2  0  0  0
  -28.4960  -14.3199   20.8505 C   0  0  0  0  0  0
  -25.2137  -13.8605   20.6029 C   0  0  0  0  0  0
  -24.1691  -13.0500   20.9343 C   0  0  0  0  0  0
  -24.6641  -11.7106   20.8716 C   0  0  0  0  0  0
  -23.9344  -10.4346   21.0309 C   0  0  0  0  0  0
  -24.3808   -9.4251   21.9117 C   0  0  0  0  0  0
  -23.6407   -8.2327   22.0737 C   0  0  0  0  0  0
  -22.4380   -8.0355   21.3540 C   0  0  0  0  0  0
  -22.0080   -9.0343   20.4631 C   0  0  0  0  0  0
  -22.7483  -10.2172   20.2994 C   0  0  0  0  0  0
  -21.6890   -6.0794   22.5274 C   0  0  0  0  0  0
  -21.4049   -6.5673   23.8224 C   0  0  0  0  0  0
  -21.3672   -5.6805   24.9170 C   0  0  0  0  0  0
  -21.6038   -4.3071   24.7202 C   0  0  0  0  0  0
  -21.8819   -3.8172   23.4320 C   0  0  0  0  0  0
  -21.9204   -4.7007   22.3381 C   0  0  0  0  0  0
  -22.7643  -13.5046   21.1921 C   0  0  0  0  0  0
  -22.1661   -4.2194   21.0963 F   0  0  0  0  0  0
  -21.5619   -3.4549   25.7710 F   0  0  0  0  0  0
  -29.4515  -15.3314   20.1439 N   0  0  0  0  0  0
  -26.2936  -13.0355   20.3668 N   0  0  0  0  0  0
  -25.9689  -11.7215   20.5709 N   0  0  0  0  0  0
  -22.0353  -12.7990   22.0496 N   0  0  0  0  0  0
  -25.3332  -15.2383   20.4405 N   0  0  0  0  0  0
  -31.0931  -16.6434   20.2136 O   0  0  0  0  0  0
  -21.6704   -6.8961   21.4251 O   0  0  0  0  0  0
  -22.3229  -14.5298   20.6720 O   0  0  0  0  0  0
  -24.7656  -31.6989   23.0847 C   0  0  0  0  0  0
  -25.9801  -32.4013   23.7746 C   0  0  1  0  0  0
  -27.3119  -25.8694   20.2830 C   0  0  0  0  0  0
  -25.6028  -33.7884   24.1527 N   0  0  0  0  0  0
  -23.6372  -30.2593   21.4576 C   0  0  2  0  0  0
  -25.1177  -28.4284   20.1509 C   0  0  0  0  0  0
  -22.8168  -29.3780   22.4500 C   0  0  0  0  0  0
  -18.0419  -28.1445   22.8415 C   0  0  0  0  0  0
  -24.1528  -36.6988   23.2672 C   0  0  0  0  0  0
  -26.2443  -30.1555   21.4803 C   0  0  0  0  0  0
  -26.3150  -28.6222   20.8511 C   0  0  0  0  0  0
  -27.3516  -27.4042   20.8722 C   0  0  0  0  0  0
  -26.0817  -26.1135   19.5227 C   0  0  0  0  0  0
  -25.0925  -27.1969   19.4569 C   0  0  0  0  0  0
  -23.9419  -29.4715   20.1330 C   0  0  0  0  0  0
  -25.4195  -36.2675   24.0247 C   0  0  1  0  0  0
  -20.6091  -28.3878   23.0965 C   0  0  2  0  0  0
  -20.6852  -26.9463   22.5417 C   0  0  0  0  0  0
  -19.5857  -26.6353   21.5217 C   0  0  0  0  0  0
  -18.2016  -26.7946   22.1590 C   0  0  0  0  0  0
  -19.1695  -28.9015   23.2638 C   0  0  0  0  0  0
  -18.9578  -30.1546   23.8774 C   0  0  0  0  0  0
  -17.6555  -30.6611   24.0521 C   0  0  0  0  0  0
  -25.9207  -34.9055   23.4789 C   0  0  0  0  0  0
  -16.5440  -29.9084   23.6331 C   0  0  0  0  0  0
  -16.7387  -28.6486   23.0393 C   0  0  0  0  0  0
  -26.4707  -31.6351   25.0660 C   0  0  0  0  0  0
  -25.3542  -31.3836   26.1102 C   0  0  0  0  0  0
  -27.0758  -30.2629   24.7091 C   0  0  0  0  0  0
  -27.6043  -32.4371   25.7465 C   0  0  0  0  0  0
  -27.5582  -37.1649   24.8458 C   0  0  0  0  0  0
  -21.4748  -29.2939   22.3218 N   0  0  0  0  0  0
  -26.4283  -37.3504   23.9407 N   0  0  0  0  0  0
  -24.9150  -30.7550   22.0617 N   0  0  0  0  0  0
  -23.4146  -28.7530   23.3262 O   0  0  0  0  0  0
  -27.9693  -24.1601   20.2633 O   0  0  0  0  0  0
  -26.5987  -34.8791   22.4505 O   0  0  0  0  0  0
  -23.6497  -32.0486   23.5198 O   0  0  0  0  0  0
  -29.4511  -23.6380   18.8305 C   0  0  0  0  0  0
  -28.7262  -21.9945   21.5523 C   0  0  0  0  0  0
  -28.8787  -21.9535   19.0033 C   0  0  0  0  0  0
  -29.9872  -24.6332   20.3102 C   0  0  0  0  0  0
  -28.9169  -20.7735   20.2899 C   0  0  0  0  0  0
  -29.3267  -23.6830   21.8084 C   0  0  0  0  0  0
  -33.5770  -23.6321   20.8940 C   0  0  0  0  0  0
  -36.4564  -24.2629   18.6715 C   0  0  0  0  0  0
  -34.8590  -23.7345   20.4747 C   0  0  0  0  0  0
  -35.2857  -24.4800   19.3006 C   0  0  0  0  0  0
  -33.0428  -22.5506   21.8965 C   0  0  0  0  0  0
  -31.6459  -21.7712   21.4527 C   0  0  0  0  0  0
  -31.8772  -22.9388   19.3675 C   0  0  0  0  0  0
  -30.6781  -22.5442   20.3870 C   0  0  2  0  0  0
  -28.6573  -21.3141   17.6501 C   0  0  0  0  0  0
  -31.4366  -25.2529   20.2631 C   0  0  0  0  0  0
  -29.1001  -18.6406   20.2794 N   0  0  0  0  0  0
  -32.4242  -24.1090   20.0606 N   0  3  2  0  0  0
  -29.5035  -24.3149   23.4048 Cl  0  0  0  0  0  0
  -31.1191  -14.5091   18.9917 H   0  0  0  0  0  0
  -30.7658  -13.4955   20.3150 H   0  0  0  0  0  0
  -30.2828  -12.3342   18.1239 H   0  0  0  0  0  0
  -29.3373  -13.6881   17.5763 H   0  0  0  0  0  0
  -28.5450  -11.5877   19.5812 H   0  0  0  0  0  0
  -27.6673  -12.1002   18.1490 H   0  0  0  0  0  0
  -27.2987  -14.2387   19.0931 H   0  0  0  0  0  0
  -29.0085  -13.6649   21.5597 H   0  0  0  0  0  0
  -27.8547  -14.9327   21.4780 H   0  0  0  0  0  0
  -25.2949   -9.5703   22.4738 H   0  0  0  0  0  0
  -24.0072   -7.4728   22.7502 H   0  0  0  0  0  0
  -21.1007   -8.8897   19.8956 H   0  0  0  0  0  0
  -22.3941  -10.9708   19.6103 H   0  0  0  0  0  0
  -21.2060   -7.6187   23.9731 H   0  0  0  0  0  0
  -21.1489   -6.0536   25.9069 H   0  0  0  0  0  0
  -22.0577   -2.7645   23.2807 H   0  0  0  0  0  0
  -22.4083  -11.9711   22.4919 H   0  0  0  0  0  0
  -21.0918  -13.0905   22.2664 H   0  0  0  0  0  0
  -24.5395  -15.8622   20.5440 H   0  0  0  0  0  0
  -26.1717  -15.7084   20.1338 H   0  0  0  0  0  0
  -26.8020  -32.4400   23.0578 H   0  0  0  0  0  0
  -24.9911  -33.8796   24.9527 H   0  0  0  0  0  0
  -23.0158  -31.1168   21.1878 H   0  0  0  0  0  0
  -23.3844  -35.9259   23.3145 H   0  0  0  0  0  0
  -24.3603  -36.8881   22.2129 H   0  0  0  0  0  0
  -23.7217  -37.6067   23.6900 H   0  0  0  0  0  0
  -26.5137  -30.8170   20.6551 H   0  0  0  0  0  0
  -27.0775  -30.2639   22.1590 H   0  0  0  0  0  0
  -28.2195  -27.5822   21.4940 H   0  0  0  0  0  0
  -25.7864  -25.2499   18.9408 H   0  0  0  0  0  0
  -24.2259  -27.0043   18.8454 H   0  0  0  0  0  0
  -24.1861  -30.1973   19.3606 H   0  0  0  0  0  0
  -23.0383  -28.9763   19.7706 H   0  0  0  0  0  0
  -25.1421  -36.1359   25.0739 H   0  0  0  0  0  0
  -21.0141  -28.3585   24.1108 H   0  0  0  0  0  0
  -20.5620  -26.2552   23.3772 H   0  0  0  0  0  0
  -21.6709  -26.7272   22.1300 H   0  0  0  0  0  0
  -19.6994  -25.6218   21.1363 H   0  0  0  0  0  0
  -19.6788  -27.3087   20.6677 H   0  0  0  0  0  0
  -17.4294  -26.6721   21.3965 H   0  0  0  0  0  0
  -18.0350  -26.0102   22.9000 H   0  0  0  0  0  0
  -19.8048  -30.7366   24.2128 H   0  0  0  0  0  0
  -17.5101  -31.6270   24.5162 H   0  0  0  0  0  0
  -15.5436  -30.2946   23.7714 H   0  0  0  0  0  0
  -15.8777  -28.0725   22.7220 H   0  0  0  0  0  0
  -24.5879  -30.7046   25.7327 H   0  0  0  0  0  0
  -24.8585  -32.3085   26.4067 H   0  0  0  0  0  0
  -25.7550  -30.9296   27.0172 H   0  0  0  0  0  0
  -26.3639  -29.6023   24.2154 H   0  0  0  0  0  0
  -27.3946  -29.7338   25.6074 H   0  0  0  0  0  0
  -27.9682  -30.3605   24.0912 H   0  0  0  0  0  0
  -27.2581  -33.3903   26.1457 H   0  0  0  0  0  0
  -28.4098  -32.6542   25.0426 H   0  0  0  0  0  0
  -28.0409  -31.8875   26.5814 H   0  0  0  0  0  0
  -28.2473  -38.0066   24.7595 H   0  0  0  0  0  0
  -28.1208  -36.2575   24.6166 H   0  0  0  0  0  0
  -27.2304  -37.1125   25.8863 H   0  0  0  0  0  0
  -21.0277  -29.8486   21.6050 H   0  0  0  0  0  0
  -26.0044  -38.2538   24.1408 H   0  0  0  0  0  0
  -29.6415  -24.0364   17.8451 H   0  0  0  0  0  0
  -28.4942  -21.5528   22.5098 H   0  0  0  0  0  0
  -36.7423  -24.8372   17.8013 H   0  0  0  0  0  0
  -37.1624  -23.5072   18.9912 H   0  0  0  0  0  0
  -35.6090  -23.1649   21.0164 H   0  0  0  0  0  0
  -34.6490  -25.2651   18.9054 H   0  0  0  0  0  0
  -32.8456  -23.0927   22.8242 H   0  0  0  0  0  0
  -33.8213  -21.8320   22.1573 H   0  0  0  0  0  0
  -31.1358  -21.3970   22.3513 H   0  0  0  0  0  0
  -31.9261  -20.8423   20.9594 H   0  0  0  0  0  0
  -32.6271  -22.1480   19.2700 H   0  0  0  0  0  0
  -31.6763  -23.1676   18.3216 H   0  0  0  0  0  0
  -31.1543  -22.9548   21.2405 H   0  0  0  0  0  0
  -29.3734  -20.5095   17.4967 H   0  0  0  0  0  0
  -28.7960  -22.0355   16.8407 H   0  0  0  0  0  0
  -27.6515  -20.8958   17.5743 H   0  0  0  0  0  0
  -31.6414  -25.7831   21.1894 H   0  0  0  0  0  0
  -31.5166  -25.9678   19.4415 H   0  0  0  0  0  0
  -28.1310  -18.3455   20.2983 H   0  0  0  0  0  0
  -31.8414  -23.8514   20.8407 H   0  0  0  0  0  0
  1 25  1  0  0  0
  1 30  2  0  0  0
  1 87  1  0  0  0
  2  3  1  0  0  0
  2 25  1  0  0  0
  2 90  1  0  0  0
  2 91  1  0  0  0
  3  4  1  0  0  0
  3 92  1  0  0  0
  3 93  1  0  0  0
  4  5  1  0  0  0
  4 94  1  0  0  0
  4 95  1  0  0  0
  5  6  1  0  0  0
  5 26  1  0  0  0
  5 96  1  0  0  0
  6 25  1  0  0  0
  6 97  1  0  0  0
  6 98  1  0  0  0
  7  8  2  0  0  0
  7 26  1  0  0  0
  7 29  1  0  0  0
  8  9  1  0  0  0
  8 22  1  0  0  0
  9 10  1  0  0  0
  9 27  2  0  0  0
 10 11  2  0  0  0
 10 15  1  0  0  0
 11 12  1  0  0  0
 11 99  1  0  0  0
 12 13  2  0  0  0
 12100  1  0  0  0
 13 14  1  0  0  0
 13 31  1  0  0  0
 14 15  2  0  0  0
 14101  1  0  0  0
 15102  1  0  0  0
 16 17  2  0  0  0
 16 21  1  0  0  0
 16 31  1  0  0  0
 17 18  1  0  0  0
 17103  1  0  0  0
 18 19  2  0  0  0
 18104  1  0  0  0
 19 20  1  0  0  0
 19 24  1  0  0  0
 20 21  2  0  0  0
 20105  1  0  0  0
 21 23  1  0  0  0
 22 28  1  0  0  0
 22 32  2  0  0  0
 26 27  1  0  0  0
 28106  1  0  0  0
 28107  1  0  0  0
 29108  1  0  0  0
 29109  1  0  0  0
 33 34  1  0  0  0
 33 66  1  0  0  0
 33 70  2  0  0  0
 34 36  1  0  0  0
 34 59  1  0  0  0
 34110  1  0  0  0
 35 44  2  0  0  0
 35 45  1  0  0  0
 35 68  1  0  0  0
 36 56  1  0  0  0
 36111  1  0  0  0
 37 39  1  0  0  0
 37 47  1  0  0  0
 37 66  1  0  0  0
 37112  1  0  0  0
 38 43  2  0  0  0
 38 46  1  0  0  0
 38 47  1  0  0  0
 39 64  1  0  0  0
 39 67  2  0  0  0
 40 52  1  0  0  0
 40 53  2  0  0  0
 40 58  1  0  0  0
 41113  1  0  0  0
 41114  1  0  0  0
 41115  1  0  0  0
 41 48  1  0  0  0
 42 43  1  0  0  0
 42 66  1  0  0  0
 42116  1  0  0  0
 42117  1  0  0  0
 43 44  1  0  0  0
 44118  1  0  0  0
 45 46  2  0  0  0
 45119  1  0  0  0
 46120  1  0  0  0
 47121  1  0  0  0
 47122  1  0  0  0
 48 56  1  0  0  0
 48 65  1  0  0  0
 48123  1  0  0  0
 49 50  1  0  0  0
 49 53  1  0  0  0
 49 64  1  0  0  0
 49124  1  0  0  0
 50 51  1  0  0  0
 50125  1  0  0  0
 50126  1  0  0  0
 51 52  1  0  0  0
 51127  1  0  0  0
 51128  1  0  0  0
 52129  1  0  0  0
 52130  1  0  0  0
 53 54  1  0  0  0
 54 55  2  0  0  0
 54131  1  0  0  0
 55 57  1  0  0  0
 55132  1  0  0  0
 56 69  2  0  0  0
 57 58  2  0  0  0
 57133  1  0  0  0
 58134  1  0  0  0
 59 60  1  0  0  0
 59 61  1  0  0  0
 59 62  1  0  0  0
 60135  1  0  0  0
 60136  1  0  0  0
 60137  1  0  0  0
 61138  1  0  0  0
 61139  1  0  0  0
 61140  1  0  0  0
 62141  1  0  0  0
 62142  1  0  0  0
 62143  1  0  0  0
 63 65  1  0  0  0
 63144  1  0  0  0
 63145  1  0  0  0
 63146  1  0  0  0
 64147  1  0  0  0
 65148  1  0  0  0
 68 84  1  0  0  0
 71 73  2  0  0  0
 71 74  1  0  0  0
 71149  1  0  0  0
 72 75  2  0  0  0
 72 76  1  0  0  0
 72150  1  0  0  0
 73 75  1  0  0  0
 73 85  1  0  0  0
 74 76  2  0  0  0
 74 86  1  0  0  0
 75 87  1  0  0  0
 76 89  1  0  0  0
 77 79  2  0  0  0
 77 81  1  0  0  0
 77 88  1  0  0  0
 78 80  2  0  0  0
 78151  1  0  0  0
 78152  1  0  0  0
 79 80  1  0  0  0
 79153  1  0  0  0
 80154  1  0  0  0
 81 82  1  0  0  0
 81155  1  0  0  0
 81156  1  0  0  0
 82 84  1  0  0  0
 82157  1  0  0  0
 82158  1  0  0  0
 83 84  1  0  0  0
 83 88  1  0  0  0
 83159  1  0  0  0
 83160  1  0  0  0
 84161  1  0  0  0
 85162  1  0  0  0
 85163  1  0  0  0
 85164  1  0  0  0
 86165  1  0  0  0
 86166  1  0  0  0
 86 88  1  0  0  0
 87167  1  0  0  0
 88168  1  0  0  0
M  CHG  1  88   1
M  ISO  4   1 100  68 101  84 101  87 100
M  END
> <chiral flag>
0

> <version>
0

> <s_m_source_file>
/data/baiqing/PycharmProjects/Reinvent-master-3.2/result/LINK_invent/BTK/process_docking_weight1_custom_product_contain_oxygen_bond_distance_aromatic_linkinvent_7_9_3/rearranged_h_0037.sdf

> <i_m_source_file_index>
49

> <r_mmod_Potential_Energy-OPLS-2005>
15842.2392578125

> <r_mmod_Stretch_Energy-OPLS-2005>
8566.169921875

> <r_mmod_Bend_Energy-OPLS-2005>
1524.06579589844

> <r_mmod_Torsional_Energy-OPLS-2005>
452.222686767578

> <r_mmod_Improper_Torsional_Energy-OPLS-2005>
29.6206951141357

> <r_mmod_Van_der_Waal_Energy-OPLS-2005>
2168.82275390625

> <r_mmod_Electrostatic_Energy-OPLS-2005>
-276.909271240234

> <r_mmod_Solvation_Energy-OPLS-2005>
-445.607788085938

> <b_mmod_Minimization_Converged-OPLS-2005>
0

> <r_mmod_RMS_Derivative-OPLS-2005>
11.8250198364258

$$$$
49
                    3D
 Structure written by MMmdl.
172181  0  0  1  0            999 V2000
  -30.6521  -14.7451   20.4700 C   0  0  0  0  0  0
  -30.4226  -12.4549   19.4707 C   0  0  0  0  0  0
  -29.4940  -12.5077   18.2382 C   0  0  0  0  0  0
  -28.0264  -12.3327   18.6665 C   0  0  0  0  0  0
  -27.6434  -13.2340   19.8693 C   0  0  2  0  0  0
  -28.7001  -13.1859   20.9955 C   0  0  0  0  0  0
  -25.2527  -13.8204   20.5796 C   0  0  0  0  0  0
  -24.1804  -13.0432   20.9257 C   0  0  0  0  0  0
  -24.6417  -11.6921   20.8785 C   0  0  0  0  0  0
  -23.9075  -10.4290   21.0391 C   0  0  0  0  0  0
  -24.3616   -9.4199   21.9169 C   0  0  0  0  0  0
  -23.6306   -8.2227   22.0729 C   0  0  0  0  0  0
  -22.4299   -8.0271   21.3529 C   0  0  0  0  0  0
  -21.9923   -9.0229   20.4626 C   0  0  0  0  0  0
  -22.7222  -10.2121   20.3047 C   0  0  0  0  0  0
  -21.6890   -6.0703   22.5259 C   0  0  0  0  0  0
  -21.4013   -6.5601   23.8192 C   0  0  0  0  0  0
  -21.3685   -5.6751   24.9155 C   0  0  0  0  0  0
  -21.6074   -4.3020   24.7201 C   0  0  0  0  0  0
  -21.8819   -3.8113   23.4330 C   0  0  0  0  0  0
  -21.9210   -4.6930   22.3378 C   0  0  0  0  0  0
  -22.7841  -13.5205   21.1910 C   0  0  0  0  0  0
  -22.1682   -4.2114   21.0952 F   0  0  0  0  0  0
  -21.5654   -3.4507   25.7717 F   0  0  0  0  0  0
  -29.9925  -13.5336   20.3881 N   0  0  0  0  0  0
  -26.2959  -12.9403   20.3488 N   0  0  0  0  0  0
  -25.9346  -11.6527   20.5872 N   0  0  0  0  0  0
  -22.0563  -12.8101   22.0488 N   0  0  0  0  0  0
  -25.4255  -15.1923   20.4079 N   0  0  0  0  0  0
  -31.8507  -14.8113   20.1779 O   0  0  0  0  0  0
  -21.6681   -6.8850   21.4225 O   0  0  0  0  0  0
  -22.3488  -14.5527   20.6812 O   0  0  0  0  0  0
  -24.6410  -31.8534   23.1953 C   0  0  0  0  0  0
  -25.9191  -32.4785   23.8337 C   0  0  1  0  0  0
  -27.2488  -27.2533   20.1371 C   0  0  0  0  0  0
  -25.5950  -33.8582   24.2280 N   0  0  0  0  0  0
  -23.4386  -30.4771   21.5392 C   0  0  2  0  0  0
  -24.8904  -28.9184   20.1344 C   0  0  0  0  0  0
  -22.7506  -29.4645   22.4882 C   0  0  0  0  0  0
  -18.0307  -28.1418   22.8502 C   0  0  0  0  0  0
  -24.1487  -36.7282   23.2644 C   0  0  0  0  0  0
  -25.9897  -30.7762   21.3633 C   0  0  0  0  0  0
  -26.0724  -29.3963   20.7115 C   0  0  0  0  0  0
  -27.2580  -28.5881   20.6863 C   0  0  0  0  0  0
  -25.9993  -26.8207   19.6248 C   0  0  0  0  0  0
  -24.8562  -27.6313   19.5919 C   0  0  0  0  0  0
  -23.6633  -29.8042   20.1625 C   0  0  0  0  0  0
  -25.4116  -36.3093   24.0332 C   0  0  1  0  0  0
  -20.5918  -28.3777   23.1239 C   0  0  2  0  0  0
  -20.6830  -26.9485   22.5420 C   0  0  0  0  0  0
  -19.5779  -26.6429   21.5261 C   0  0  0  0  0  0
  -18.1952  -26.7953   22.1657 C   0  0  0  0  0  0
  -19.1563  -28.8917   23.2887 C   0  0  0  0  0  0
  -18.9481  -30.1502   23.8929 C   0  0  0  0  0  0
  -17.6465  -30.6628   24.0600 C   0  0  0  0  0  0
  -25.9051  -34.9457   23.5110 C   0  0  0  0  0  0
  -16.5368  -29.9124   23.6350 C   0  0  0  0  0  0
  -16.7293  -28.6528   23.0382 C   0  0  0  0  0  0
  -26.4513  -31.6586   25.0736 C   0  0  0  0  0  0
  -25.3717  -31.3719   26.1441 C   0  0  0  0  0  0
  -27.0398  -30.3015   24.6252 C   0  0  0  0  0  0
  -27.6086  -32.4301   25.7500 C   0  0  0  0  0  0
  -27.5578  -37.1795   24.8465 C   0  0  0  0  0  0
  -21.4225  -29.3094   22.3592 N   0  0  0  0  0  0
  -26.4290  -37.3787   23.9414 N   0  0  0  0  0  0
  -24.7110  -31.0507   22.0904 N   0  0  0  0  0  0
  -23.4170  -28.8189   23.3044 O   0  0  0  0  0  0
  -28.3821  -26.3873   20.1270 O   0  0  0  0  0  0
  -26.5622  -34.8913   22.4686 O   0  0  0  0  0  0
  -23.5549  -32.1333   23.7218 O   0  0  0  0  0  0
  -31.0870  -18.7548   22.8271 C   0  0  0  0  0  0
  -29.9285  -18.5166   20.3240 C   0  0  0  0  0  0
  -30.7588  -19.9305   22.1302 C   0  0  0  0  0  0
  -30.8695  -17.4627   22.3164 C   0  0  0  0  0  0
  -30.1730  -19.8713   20.8334 C   0  0  0  0  0  0
  -30.2682  -17.2838   21.0418 C   0  0  0  0  0  0
  -27.8896  -24.6311   18.4259 C   0  0  0  0  0  0
  -27.1631  -23.2861   18.3902 C   0  0  0  0  0  0
  -29.3467  -23.7707   20.1916 C   0  0  0  0  0  0
  -28.2178  -24.9029   19.8993 C   0  0  1  0  0  0
  -28.0854  -22.0950   18.7572 C   0  0  2  0  0  0
  -31.2884  -16.3006   23.2054 C   0  0  0  0  0  0
  -27.2104  -20.8341   18.8405 C   0  0  0  0  0  0
  -32.6780  -21.4903   22.7001 C   0  0  0  0  0  0
  -31.1678  -21.2246   22.8312 C   0  0  0  0  0  0
  -30.0965  -21.2360   19.9771 C   0  0  0  0  0  0
  -29.9011  -15.9073   20.6094 N   0  0  0  0  0  0
  -28.9402  -22.2777   19.9915 N   0  3  1  0  0  0
  -31.4628  -12.5576   19.1624 H   0  0  0  0  0  0
  -30.3433  -11.4888   19.9670 H   0  0  0  0  0  0
  -29.7614  -11.7342   17.5171 H   0  0  0  0  0  0
  -29.6174  -13.4645   17.7274 H   0  0  0  0  0  0
  -27.8874  -11.2862   18.9354 H   0  0  0  0  0  0
  -27.3558  -12.5164   17.8274 H   0  0  0  0  0  0
  -27.6349  -14.2546   19.4871 H   0  0  0  0  0  0
  -28.7496  -12.1922   21.4412 H   0  0  0  0  0  0
  -28.4426  -13.8738   21.8029 H   0  0  0  0  0  0
  -25.2761   -9.5684   22.4739 H   0  0  0  0  0  0
  -24.0056   -7.4590   22.7405 H   0  0  0  0  0  0
  -21.0892   -8.8699   19.8879 H   0  0  0  0  0  0
  -22.3682  -10.9648   19.6156 H   0  0  0  0  0  0
  -21.1987   -7.6106   23.9677 H   0  0  0  0  0  0
  -21.1545   -6.0490   25.9065 H   0  0  0  0  0  0
  -22.0598   -2.7576   23.2833 H   0  0  0  0  0  0
  -22.4267  -11.9741   22.4728 H   0  0  0  0  0  0
  -21.1167  -13.1051   22.2776 H   0  0  0  0  0  0
  -24.6646  -15.8551   20.4940 H   0  0  0  0  0  0
  -26.2707  -15.6134   20.0445 H   0  0  0  0  0  0
  -26.7283  -32.5444   23.1109 H   0  0  0  0  0  0
  -25.0049  -33.9700   25.0392 H   0  0  0  0  0  0
  -22.7443  -31.3043   21.3786 H   0  0  0  0  0  0
  -23.3773  -35.9584   23.3280 H   0  0  0  0  0  0
  -24.3569  -36.8942   22.2061 H   0  0  0  0  0  0
  -23.7205  -37.6467   23.6669 H   0  0  0  0  0  0
  -26.1177  -31.5285   20.5831 H   0  0  0  0  0  0
  -26.8712  -30.8404   21.9916 H   0  0  0  0  0  0
  -28.1693  -28.9682   21.1287 H   0  0  0  0  0  0
  -25.8258  -25.8158   19.2817 H   0  0  0  0  0  0
  -23.9351  -27.2272   19.1961 H   0  0  0  0  0  0
  -23.8018  -30.5713   19.4008 H   0  0  0  0  0  0
  -22.7854  -29.2347   19.8564 H   0  0  0  0  0  0
  -25.1294  -36.1949   25.0820 H   0  0  0  0  0  0
  -21.0076  -28.3411   24.1337 H   0  0  0  0  0  0
  -20.5835  -26.2397   23.3631 H   0  0  0  0  0  0
  -21.6658  -26.7552   22.1134 H   0  0  0  0  0  0
  -19.6958  -25.6357   21.1265 H   0  0  0  0  0  0
  -19.6714  -27.3258   20.6778 H   0  0  0  0  0  0
  -17.4241  -26.6769   21.4035 H   0  0  0  0  0  0
  -18.0330  -26.0100   22.9045 H   0  0  0  0  0  0
  -19.7941  -30.7342   24.2296 H   0  0  0  0  0  0
  -17.5019  -31.6300   24.5211 H   0  0  0  0  0  0
  -15.5372  -30.3068   23.7635 H   0  0  0  0  0  0
  -15.8692  -28.0881   22.7100 H   0  0  0  0  0  0
  -24.5904  -30.7085   25.7707 H   0  0  0  0  0  0
  -24.8910  -32.2891   26.4848 H   0  0  0  0  0  0
  -25.8004  -30.8879   27.0227 H   0  0  0  0  0  0
  -26.3018  -29.6731   24.1279 H   0  0  0  0  0  0
  -27.4081  -29.7315   25.4788 H   0  0  0  0  0  0
  -27.8851  -30.4299   23.9500 H   0  0  0  0  0  0
  -27.2736  -33.3617   26.2043 H   0  0  0  0  0  0
  -28.3884  -32.6829   25.0313 H   0  0  0  0  0  0
  -28.0762  -31.8462   26.5438 H   0  0  0  0  0  0
  -28.2586  -38.0102   24.7527 H   0  0  0  0  0  0
  -28.1090  -36.2642   24.6268 H   0  0  0  0  0  0
  -27.2285  -37.1385   25.8863 H   0  0  0  0  0  0
  -20.9453  -29.8765   21.6716 H   0  0  0  0  0  0
  -26.0187  -38.2858   24.1460 H   0  0  0  0  0  0
  -31.5398  -18.8544   23.8057 H   0  0  0  0  0  0
  -29.5007  -18.4042   19.3351 H   0  0  0  0  0  0
  -27.2978  -25.4053   17.9418 H   0  0  0  0  0  0
  -28.8019  -24.6036   17.8278 H   0  0  0  0  0  0
  -26.7410  -23.1320   17.3964 H   0  0  0  0  0  0
  -26.3017  -23.3142   19.0571 H   0  0  0  0  0  0
  -29.7399  -23.8941   21.1993 H   0  0  0  0  0  0
  -30.1916  -23.9707   19.5305 H   0  0  0  0  0  0
  -27.3804  -24.6297   20.5455 H   0  0  0  0  0  0
  -28.7551  -21.9939   17.9017 H   0  0  0  0  0  0
  -31.5054  -16.6301   24.2238 H   0  0  0  0  0  0
  -32.1942  -15.8386   22.8188 H   0  0  0  0  0  0
  -30.5099  -15.5419   23.2732 H   0  0  0  0  0  0
  -26.4512  -20.9153   19.6203 H   0  0  0  0  0  0
  -27.7899  -19.9361   19.0371 H   0  0  0  0  0  0
  -26.6871  -20.6682   17.8989 H   0  0  0  0  0  0
  -32.9700  -22.3916   23.2378 H   0  0  0  0  0  0
  -32.9936  -21.5977   21.6612 H   0  0  0  0  0  0
  -33.2575  -20.6741   23.1356 H   0  0  0  0  0  0
  -30.9478  -21.1167   23.8979 H   0  0  0  0  0  0
  -30.5680  -22.0757   22.5083 H   0  0  0  0  0  0
  -30.3004  -20.9443   18.9488 H   0  0  0  0  0  0
  -31.0084  -21.7887   20.2060 H   0  0  0  0  0  0
  -28.9056  -15.7454   20.5568 H   0  0  0  0  0  0
  -28.3613  -22.0526   20.7881 H   0  0  0  0  0  0
  1 25  1  0  0  0
  1 30  2  0  0  0
  1 87  1  0  0  0
  2  3  1  0  0  0
  2 25  1  0  0  0
  2 89  1  0  0  0
  2 90  1  0  0  0
  3  4  1  0  0  0
  3 91  1  0  0  0
  3 92  1  0  0  0
  4  5  1  0  0  0
  4 93  1  0  0  0
  4 94  1  0  0  0
  5  6  1  0  0  0
  5 26  1  0  0  0
  5 95  1  0  0  0
  6 25  1  0  0  0
  6 96  1  0  0  0
  6 97  1  0  0  0
  7  8  2  0  0  0
  7 26  1  0  0  0
  7 29  1  0  0  0
  8  9  1  0  0  0
  8 22  1  0  0  0
  9 10  1  0  0  0
  9 27  2  0  0  0
 10 11  2  0  0  0
 10 15  1  0  0  0
 11 12  1  0  0  0
 11 98  1  0  0  0
 12 13  2  0  0  0
 12 99  1  0  0  0
 13 14  1  0  0  0
 13 31  1  0  0  0
 14 15  2  0  0  0
 14100  1  0  0  0
 15101  1  0  0  0
 16 17  2  0  0  0
 16 21  1  0  0  0
 16 31  1  0  0  0
 17 18  1  0  0  0
 17102  1  0  0  0
 18 19  2  0  0  0
 18103  1  0  0  0
 19 20  1  0  0  0
 19 24  1  0  0  0
 20 21  2  0  0  0
 20104  1  0  0  0
 21 23  1  0  0  0
 22 28  1  0  0  0
 22 32  2  0  0  0
 26 27  1  0  0  0
 28105  1  0  0  0
 28106  1  0  0  0
 29107  1  0  0  0
 29108  1  0  0  0
 33 34  1  0  0  0
 33 66  1  0  0  0
 33 70  2  0  0  0
 34 36  1  0  0  0
 34 59  1  0  0  0
 34109  1  0  0  0
 35 44  2  0  0  0
 35 45  1  0  0  0
 35 68  1  0  0  0
 36 56  1  0  0  0
 36110  1  0  0  0
 37 39  1  0  0  0
 37 47  1  0  0  0
 37 66  1  0  0  0
 37111  1  0  0  0
 38 43  2  0  0  0
 38 46  1  0  0  0
 38 47  1  0  0  0
 39 64  1  0  0  0
 39 67  2  0  0  0
 40 52  1  0  0  0
 40 53  2  0  0  0
 40 58  1  0  0  0
 41112  1  0  0  0
 41113  1  0  0  0
 41114  1  0  0  0
 41 48  1  0  0  0
 42 43  1  0  0  0
 42 66  1  0  0  0
 42115  1  0  0  0
 42116  1  0  0  0
 43 44  1  0  0  0
 44117  1  0  0  0
 45 46  2  0  0  0
 45118  1  0  0  0
 46119  1  0  0  0
 47120  1  0  0  0
 47121  1  0  0  0
 48 56  1  0  0  0
 48 65  1  0  0  0
 48122  1  0  0  0
 49 50  1  0  0  0
 49 53  1  0  0  0
 49 64  1  0  0  0
 49123  1  0  0  0
 50 51  1  0  0  0
 50124  1  0  0  0
 50125  1  0  0  0
 51 52  1  0  0  0
 51126  1  0  0  0
 51127  1  0  0  0
 52128  1  0  0  0
 52129  1  0  0  0
 53 54  1  0  0  0
 54 55  2  0  0  0
 54130  1  0  0  0
 55 57  1  0  0  0
 55131  1  0  0  0
 56 69  2  0  0  0
 57 58  2  0  0  0
 57132  1  0  0  0
 58133  1  0  0  0
 59 60  1  0  0  0
 59 61  1  0  0  0
 59 62  1  0  0  0
 60134  1  0  0  0
 60135  1  0  0  0
 60136  1  0  0  0
 61137  1  0  0  0
 61138  1  0  0  0
 61139  1  0  0  0
 62140  1  0  0  0
 62141  1  0  0  0
 62142  1  0  0  0
 63 65  1  0  0  0
 63143  1  0  0  0
 63144  1  0  0  0
 63145  1  0  0  0
 64146  1  0  0  0
 65147  1  0  0  0
 68 80  1  0  0  0
 71 73  2  0  0  0
 71 74  1  0  0  0
 71148  1  0  0  0
 72 75  2  0  0  0
 72 76  1  0  0  0
 72149  1  0  0  0
 73 75  1  0  0  0
 73 85  1  0  0  0
 74 76  2  0  0  0
 74 82  1  0  0  0
 75 86  1  0  0  0
 76 87  1  0  0  0
 77 78  1  0  0  0
 77 80  1  0  0  0
 77150  1  0  0  0
 77151  1  0  0  0
 78 81  1  0  0  0
 78152  1  0  0  0
 78153  1  0  0  0
 79 80  1  0  0  0
 79 88  1  0  0  0
 79154  1  0  0  0
 79155  1  0  0  0
 80156  1  0  0  0
 81 83  1  0  0  0
 81 88  1  0  0  0
 81157  1  0  0  0
 82158  1  0  0  0
 82159  1  0  0  0
 82160  1  0  0  0
 83161  1  0  0  0
 83162  1  0  0  0
 83163  1  0  0  0
 84 85  1  0  0  0
 84164  1  0  0  0
 84165  1  0  0  0
 84166  1  0  0  0
 85167  1  0  0  0
 85168  1  0  0  0
 86169  1  0  0  0
 86170  1  0  0  0
 86 88  1  0  0  0
 87171  1  0  0  0
 88172  1  0  0  0
M  CHG  1  88   1
M  ISO  4   1 100  68 101  80 101  87 100
M  END
> <chiral flag>
0

> <version>
0

> <s_m_source_file>
/data/baiqing/PycharmProjects/Reinvent-master-3.2/result/LINK_invent/BTK/process_docking_weight1_custom_product_contain_oxygen_bond_distance_aromatic_linkinvent_7_9_3/rearranged_h_0037.sdf

> <i_m_source_file_index>
50

> <r_mmod_Potential_Energy-OPLS-2005>
192.993911743164

> <r_mmod_Stretch_Energy-OPLS-2005>
151.04052734375

> <r_mmod_Bend_Energy-OPLS-2005>
212.821594238281

> <r_mmod_Torsional_Energy-OPLS-2005>
274.647216796875

> <r_mmod_Improper_Torsional_Energy-OPLS-2005>
9.05187511444092

> <r_mmod_Van_der_Waal_Energy-OPLS-2005>
158.344848632812

> <r_mmod_Electrostatic_Energy-OPLS-2005>
-280.374237060547

> <r_mmod_Solvation_Energy-OPLS-2005>
-419.637817382812

> <b_mmod_Minimization_Converged-OPLS-2005>
0

> <r_mmod_RMS_Derivative-OPLS-2005>
6.58644914627075

$$$$
50
                    3D
 Structure written by MMmdl.
166175  0  0  1  0            999 V2000
  -30.5312  -15.0026   20.4236 C   0  0  0  0  0  0
  -30.4334  -12.6245   19.5002 C   0  0  0  0  0  0
  -29.5206  -12.5430   18.2549 C   0  0  0  0  0  0
  -28.0536  -12.3231   18.6692 C   0  0  0  0  0  0
  -27.6235  -13.2561   19.8321 C   0  0  2  0  0  0
  -28.6662  -13.3092   20.9682 C   0  0  0  0  0  0
  -25.2438  -13.8231   20.5720 C   0  0  0  0  0  0
  -24.1769  -13.0437   20.9234 C   0  0  0  0  0  0
  -24.6401  -11.6930   20.8748 C   0  0  0  0  0  0
  -23.9096  -10.4289   21.0397 C   0  0  0  0  0  0
  -24.3645   -9.4205   21.9172 C   0  0  0  0  0  0
  -23.6312   -8.2244   22.0748 C   0  0  0  0  0  0
  -22.4292   -8.0284   21.3541 C   0  0  0  0  0  0
  -21.9927   -9.0262   20.4648 C   0  0  0  0  0  0
  -22.7265  -10.2135   20.3055 C   0  0  0  0  0  0
  -21.6861   -6.0746   22.5283 C   0  0  0  0  0  0
  -21.4019   -6.5645   23.8218 C   0  0  0  0  0  0
  -21.3661   -5.6792   24.9176 C   0  0  0  0  0  0
  -21.6048   -4.3056   24.7223 C   0  0  0  0  0  0
  -21.8821   -3.8153   23.4343 C   0  0  0  0  0  0
  -21.9194   -4.6971   22.3404 C   0  0  0  0  0  0
  -22.7790  -13.5198   21.1886 C   0  0  0  0  0  0
  -22.1657   -4.2158   21.0977 F   0  0  0  0  0  0
  -21.5628   -3.4536   25.7735 F   0  0  0  0  0  0
  -29.9320  -13.7385   20.3618 N   0  0  0  0  0  0
  -26.2859  -12.9473   20.3228 N   0  0  0  0  0  0
  -25.9333  -11.6595   20.5722 N   0  0  0  0  0  0
  -22.0447  -12.8182   22.0442 N   0  0  0  0  0  0
  -25.4083  -15.1964   20.4166 N   0  0  0  0  0  0
  -31.7342  -15.0325   20.1437 O   0  0  0  0  0  0
  -21.6649   -6.8888   21.4246 O   0  0  0  0  0  0
  -22.3466  -14.5493   20.6722 O   0  0  0  0  0  0
  -24.6480  -31.8407   23.1872 C   0  0  0  0  0  0
  -25.9240  -32.4676   23.8267 C   0  0  1  0  0  0
  -27.2090  -27.0755   20.1747 C   0  0  0  0  0  0
  -25.5979  -33.8490   24.2187 N   0  0  0  0  0  0
  -23.4545  -30.4592   21.5340 C   0  0  2  0  0  0
  -24.9061  -28.8818   20.1129 C   0  0  0  0  0  0
  -22.7590  -29.4529   22.4855 C   0  0  0  0  0  0
  -18.0309  -28.1398   22.8470 C   0  0  0  0  0  0
  -24.1496  -36.7243   23.2638 C   0  0  0  0  0  0
  -26.0152  -30.6946   21.3983 C   0  0  0  0  0  0
  -26.0840  -29.2992   20.7466 C   0  0  0  0  0  0
  -27.2355  -28.4129   20.7623 C   0  0  0  0  0  0
  -26.0246  -26.8076   19.4557 C   0  0  0  0  0  0
  -24.8933  -27.6500   19.4476 C   0  0  0  0  0  0
  -23.6846  -29.7886   20.1545 C   0  0  0  0  0  0
  -25.4128  -36.3022   24.0312 C   0  0  1  0  0  0
  -20.5921  -28.3729   23.1230 C   0  0  2  0  0  0
  -20.6793  -26.9427   22.5410 C   0  0  0  0  0  0
  -19.5772  -26.6376   21.5219 C   0  0  0  0  0  0
  -18.1950  -26.7937   22.1616 C   0  0  0  0  0  0
  -19.1564  -28.8882   23.2840 C   0  0  0  0  0  0
  -18.9476  -30.1477   23.8869 C   0  0  0  0  0  0
  -17.6471  -30.6591   24.0555 C   0  0  0  0  0  0
  -25.9083  -34.9397   23.5059 C   0  0  0  0  0  0
  -16.5364  -29.9080   23.6335 C   0  0  0  0  0  0
  -16.7293  -28.6501   23.0354 C   0  0  0  0  0  0
  -26.4545  -31.6550   25.0719 C   0  0  0  0  0  0
  -25.3721  -31.3755   26.1406 C   0  0  0  0  0  0
  -27.0391  -30.2928   24.6338 C   0  0  0  0  0  0
  -27.6084  -32.4313   25.7492 C   0  0  0  0  0  0
  -27.5581  -37.1772   24.8464 C   0  0  0  0  0  0
  -21.4277  -29.3046   22.3593 N   0  0  0  0  0  0
  -26.4289  -37.3740   23.9411 N   0  0  0  0  0  0
  -24.7260  -31.0207   22.0940 N   0  0  0  0  0  0
  -23.4214  -28.8085   23.3028 O   0  0  0  0  0  0
  -28.2458  -26.0484   20.2008 O   0  0  0  0  0  0
  -26.5658  -34.8901   22.4634 O   0  0  0  0  0  0
  -23.5584  -32.1311   23.7057 O   0  0  0  0  0  0
  -31.4170  -19.5165   21.7811 C   0  0  0  0  0  0
  -30.6221  -20.5819   21.3139 C   0  0  0  0  0  0
  -31.1437  -18.1488   21.5416 C   0  0  0  0  0  0
  -29.1657  -18.9110   20.3356 C   0  0  0  0  0  0
  -29.4422  -20.3894   20.5685 C   0  0  0  0  0  0
  -30.0251  -17.7387   20.7582 C   0  0  0  0  0  0
  -27.8546  -21.5620   19.0445 C   0  0  0  0  0  0
  -28.3306  -21.3101   17.8133 C   0  0  0  0  0  0
  -26.3844  -21.8385   19.2954 C   0  0  0  0  0  0
  -26.0690  -23.3381   19.4043 C   0  0  0  0  0  0
  -26.6083  -23.9976   20.6858 C   0  0  0  0  0  0
  -29.1071  -23.1644   20.3472 C   0  0  0  0  0  0
  -28.0617  -24.5096   20.5997 C   0  0  1  0  0  0
  -32.0777  -17.1654   22.2338 C   0  0  0  0  0  0
  -27.8591  -18.5356   19.6544 C   0  0  0  0  0  0
  -28.6865  -21.6399   20.1507 N   0  0  0  0  0  0
  -29.7534  -16.2101   20.5563 N   0  0  0  0  0  0
  -31.4675  -12.7784   19.1892 H   0  0  0  0  0  0
  -30.4247  -11.6804   20.0473 H   0  0  0  0  0  0
  -29.8484  -11.7388   17.5946 H   0  0  0  0  0  0
  -29.6051  -13.4662   17.6786 H   0  0  0  0  0  0
  -27.9496  -11.2799   18.9708 H   0  0  0  0  0  0
  -27.3937  -12.4576   17.8108 H   0  0  0  0  0  0
  -27.5742  -14.2540   19.3952 H   0  0  0  0  0  0
  -28.7685  -12.3395   21.4569 H   0  0  0  0  0  0
  -28.3562  -14.0160   21.7403 H   0  0  0  0  0  0
  -25.2793   -9.5679   22.4743 H   0  0  0  0  0  0
  -24.0028   -7.4636   22.7465 H   0  0  0  0  0  0
  -21.0854   -8.8788   19.8957 H   0  0  0  0  0  0
  -22.3721  -10.9678   19.6168 H   0  0  0  0  0  0
  -21.2011   -7.6152   23.9723 H   0  0  0  0  0  0
  -21.1482   -6.0520   25.9079 H   0  0  0  0  0  0
  -22.0597   -2.7612   23.2841 H   0  0  0  0  0  0
  -22.4076  -11.9861   22.4845 H   0  0  0  0  0  0
  -21.1060  -13.1200   22.2641 H   0  0  0  0  0  0
  -24.6384  -15.8462   20.5373 H   0  0  0  0  0  0
  -26.2482  -15.6398   20.0720 H   0  0  0  0  0  0
  -26.7305  -32.5265   23.0984 H   0  0  0  0  0  0
  -25.0112  -33.9605   25.0327 H   0  0  0  0  0  0
  -22.7596  -31.2873   21.3775 H   0  0  0  0  0  0
  -23.3773  -35.9559   23.3265 H   0  0  0  0  0  0
  -24.3595  -36.8905   22.2059 H   0  0  0  0  0  0
  -23.7226  -37.6421   23.6693 H   0  0  0  0  0  0
  -26.1770  -31.4431   20.6212 H   0  0  0  0  0  0
  -26.8837  -30.7503   22.0424 H   0  0  0  0  0  0
  -28.1288  -28.7296   21.2813 H   0  0  0  0  0  0
  -25.9452  -25.8933   18.8959 H   0  0  0  0  0  0
  -24.0069  -27.3356   18.9144 H   0  0  0  0  0  0
  -23.8217  -30.5627   19.3986 H   0  0  0  0  0  0
  -22.7987  -29.2312   19.8433 H   0  0  0  0  0  0
  -25.1311  -36.1846   25.0800 H   0  0  0  0  0  0
  -21.0007  -28.3324   24.1357 H   0  0  0  0  0  0
  -20.5688  -26.2345   23.3634 H   0  0  0  0  0  0
  -21.6661  -26.7429   22.1215 H   0  0  0  0  0  0
  -19.6938  -25.6283   21.1265 H   0  0  0  0  0  0
  -19.6717  -27.3169   20.6737 H   0  0  0  0  0  0
  -17.4224  -26.6685   21.4011 H   0  0  0  0  0  0
  -18.0340  -26.0089   22.9013 H   0  0  0  0  0  0
  -19.7950  -30.7296   24.2231 H   0  0  0  0  0  0
  -17.5022  -31.6269   24.5155 H   0  0  0  0  0  0
  -15.5366  -30.2965   23.7681 H   0  0  0  0  0  0
  -15.8691  -28.0804   22.7090 H   0  0  0  0  0  0
  -24.5963  -30.7021   25.7747 H   0  0  0  0  0  0
  -24.8832  -32.2923   26.4707 H   0  0  0  0  0  0
  -25.8011  -30.9045   27.0259 H   0  0  0  0  0  0
  -26.3010  -29.6650   24.1333 H   0  0  0  0  0  0
  -27.3947  -29.7240   25.4939 H   0  0  0  0  0  0
  -27.8955  -30.4123   23.9702 H   0  0  0  0  0  0
  -27.2711  -33.3666   26.1970 H   0  0  0  0  0  0
  -28.3940  -32.6773   25.0337 H   0  0  0  0  0  0
  -28.0695  -31.8487   26.5469 H   0  0  0  0  0  0
  -28.2573  -38.0094   24.7532 H   0  0  0  0  0  0
  -28.1098  -36.2618   24.6259 H   0  0  0  0  0  0
  -27.2302  -37.1385   25.8868 H   0  0  0  0  0  0
  -20.9509  -29.8736   21.6738 H   0  0  0  0  0  0
  -26.0146  -38.2805   24.1425 H   0  0  0  0  0  0
  -32.2801  -19.7770   22.3775 H   0  0  0  0  0  0
  -30.9554  -21.5731   21.5718 H   0  0  0  0  0  0
  -27.6786  -21.2801   16.9520 H   0  0  0  0  0  0
  -29.3840  -21.1367   17.6424 H   0  0  0  0  0  0
  -26.0646  -21.3238   20.2021 H   0  0  0  0  0  0
  -25.8004  -21.3998   18.4847 H   0  0  0  0  0  0
  -24.9854  -23.4558   19.3933 H   0  0  0  0  0  0
  -26.4397  -23.8485   18.5156 H   0  0  0  0  0  0
  -26.5542  -23.2608   21.4888 H   0  0  0  0  0  0
  -25.9436  -24.7873   21.0294 H   0  0  0  0  0  0
  -29.8350  -23.2169   21.1523 H   0  0  0  0  0  0
  -29.6883  -23.4058   19.4561 H   0  0  0  0  0  0
  -28.2633  -24.6722   21.6593 H   0  0  0  0  0  0
  -32.5797  -17.6290   23.0837 H   0  0  0  0  0  0
  -32.8549  -16.8247   21.5498 H   0  0  0  0  0  0
  -31.5424  -16.3064   22.6365 H   0  0  0  0  0  0
  -27.0323  -19.0818   20.1073 H   0  0  0  0  0  0
  -27.6257  -17.4778   19.7551 H   0  0  0  0  0  0
  -27.8916  -18.7596   18.5898 H   0  0  0  0  0  0
  -28.7703  -15.9924   20.5212 H   0  0  0  0  0  0
  1 25  1  0  0  0
  1 30  2  0  0  0
  1 87  1  0  0  0
  2  3  1  0  0  0
  2 25  1  0  0  0
  2 88  1  0  0  0
  2 89  1  0  0  0
  3  4  1  0  0  0
  3 90  1  0  0  0
  3 91  1  0  0  0
  4  5  1  0  0  0
  4 92  1  0  0  0
  4 93  1  0  0  0
  5  6  1  0  0  0
  5 26  1  0  0  0
  5 94  1  0  0  0
  6 25  1  0  0  0
  6 95  1  0  0  0
  6 96  1  0  0  0
  7  8  2  0  0  0
  7 26  1  0  0  0
  7 29  1  0  0  0
  8  9  1  0  0  0
  8 22  1  0  0  0
  9 10  1  0  0  0
  9 27  2  0  0  0
 10 11  2  0  0  0
 10 15  1  0  0  0
 11 12  1  0  0  0
 11 97  1  0  0  0
 12 13  2  0  0  0
 12 98  1  0  0  0
 13 14  1  0  0  0
 13 31  1  0  0  0
 14 15  2  0  0  0
 14 99  1  0  0  0
 15100  1  0  0  0
 16 17  2  0  0  0
 16 21  1  0  0  0
 16 31  1  0  0  0
 17 18  1  0  0  0
 17101  1  0  0  0
 18 19  2  0  0  0
 18102  1  0  0  0
 19 20  1  0  0  0
 19 24  1  0  0  0
 20 21  2  0  0  0
 20103  1  0  0  0
 21 23  1  0  0  0
 22 28  1  0  0  0
 22 32  2  0  0  0
 26 27  1  0  0  0
 28104  1  0  0  0
 28105  1  0  0  0
 29106  1  0  0  0
 29107  1  0  0  0
 33 34  1  0  0  0
 33 66  1  0  0  0
 33 70  2  0  0  0
 34 36  1  0  0  0
 34 59  1  0  0  0
 34108  1  0  0  0
 35 44  2  0  0  0
 35 45  1  0  0  0
 35 68  1  0  0  0
 36 56  1  0  0  0
 36109  1  0  0  0
 37 39  1  0  0  0
 37 47  1  0  0  0
 37 66  1  0  0  0
 37110  1  0  0  0
 38 43  2  0  0  0
 38 46  1  0  0  0
 38 47  1  0  0  0
 39 64  1  0  0  0
 39 67  2  0  0  0
 40 52  1  0  0  0
 40 53  2  0  0  0
 40 58  1  0  0  0
 41111  1  0  0  0
 41112  1  0  0  0
 41113  1  0  0  0
 41 48  1  0  0  0
 42 43  1  0  0  0
 42 66  1  0  0  0
 42114  1  0  0  0
 42115  1  0  0  0
 43 44  1  0  0  0
 44116  1  0  0  0
 45 46  2  0  0  0
 45117  1  0  0  0
 46118  1  0  0  0
 47119  1  0  0  0
 47120  1  0  0  0
 48 56  1  0  0  0
 48 65  1  0  0  0
 48121  1  0  0  0
 49 50  1  0  0  0
 49 53  1  0  0  0
 49 64  1  0  0  0
 49122  1  0  0  0
 50 51  1  0  0  0
 50123  1  0  0  0
 50124  1  0  0  0
 51 52  1  0  0  0
 51125  1  0  0  0
 51126  1  0  0  0
 52127  1  0  0  0
 52128  1  0  0  0
 53 54  1  0  0  0
 54 55  2  0  0  0
 54129  1  0  0  0
 55 57  1  0  0  0
 55130  1  0  0  0
 56 69  2  0  0  0
 57 58  2  0  0  0
 57131  1  0  0  0
 58132  1  0  0  0
 59 60  1  0  0  0
 59 61  1  0  0  0
 59 62  1  0  0  0
 60133  1  0  0  0
 60134  1  0  0  0
 60135  1  0  0  0
 61136  1  0  0  0
 61137  1  0  0  0
 61138  1  0  0  0
 62139  1  0  0  0
 62140  1  0  0  0
 62141  1  0  0  0
 63 65  1  0  0  0
 63142  1  0  0  0
 63143  1  0  0  0
 63144  1  0  0  0
 64145  1  0  0  0
 65146  1  0  0  0
 68 83  1  0  0  0
 71 72  2  0  0  0
 71 73  1  0  0  0
 71147  1  0  0  0
 72 75  1  0  0  0
 72148  1  0  0  0
 73 76  2  0  0  0
 73 84  1  0  0  0
 74 75  2  0  0  0
 74 76  1  0  0  0
 74 85  1  0  0  0
 75 86  1  0  0  0
 76 87  1  0  0  0
 77 78  2  0  0  0
 77 79  1  0  0  0
 77 86  1  0  0  0
 78149  1  0  0  0
 78150  1  0  0  0
 79 80  1  0  0  0
 79151  1  0  0  0
 79152  1  0  0  0
 80 81  1  0  0  0
 80153  1  0  0  0
 80154  1  0  0  0
 81 83  1  0  0  0
 81155  1  0  0  0
 81156  1  0  0  0
 82 83  1  0  0  0
 82 86  1  0  0  0
 82157  1  0  0  0
 82158  1  0  0  0
 83159  1  0  0  0
 84160  1  0  0  0
 84161  1  0  0  0
 84162  1  0  0  0
 85163  1  0  0  0
 85164  1  0  0  0
 85165  1  0  0  0
 87166  1  0  0  0
M  ISO  4   1 100  68 101  83 101  87 100
M  END
> <chiral flag>
0

> <version>
0

> <s_m_source_file>
/data/baiqing/PycharmProjects/Reinvent-master-3.2/result/LINK_invent/BTK/process_docking_weight1_custom_product_contain_oxygen_bond_distance_aromatic_linkinvent_7_9_3/rearranged_h_0037.sdf

> <i_m_source_file_index>
51

> <r_mmod_Potential_Energy-OPLS-2005>
749.554077148438

> <r_mmod_Stretch_Energy-OPLS-2005>
350.079315185547

> <r_mmod_Bend_Energy-OPLS-2005>
332.440551757812

> <r_mmod_Torsional_Energy-OPLS-2005>
297.296020507812

> <r_mmod_Improper_Torsional_Energy-OPLS-2005>
7.16797542572021

> <r_mmod_Van_der_Waal_Energy-OPLS-2005>
147.192825317383

> <r_mmod_Electrostatic_Energy-OPLS-2005>
-421.353393554688

> <r_mmod_Solvation_Energy-OPLS-2005>
-200.304672241211

> <b_mmod_Minimization_Converged-OPLS-2005>
0

> <r_mmod_RMS_Derivative-OPLS-2005>
1.63788664340973

$$$$
51
                    3D
 Structure written by MMmdl.
170179  0  0  1  0            999 V2000
  -30.7033  -14.4569   20.5795 C   0  0  0  0  0  0
  -30.4258  -12.3007   19.4197 C   0  0  0  0  0  0
  -29.4964  -12.5125   18.2065 C   0  0  0  0  0  0
  -28.0170  -12.3718   18.6167 C   0  0  0  0  0  0
  -27.6648  -13.2012   19.8804 C   0  0  2  0  0  0
  -28.7070  -12.9708   20.9987 C   0  0  0  0  0  0
  -25.2610  -13.8144   20.5691 C   0  0  0  0  0  0
  -24.1849  -13.0430   20.9175 C   0  0  0  0  0  0
  -24.6393  -11.6894   20.8732 C   0  0  0  0  0  0
  -23.9057  -10.4284   21.0400 C   0  0  0  0  0  0
  -24.3613   -9.4201   21.9176 C   0  0  0  0  0  0
  -23.6292   -8.2237   22.0748 C   0  0  0  0  0  0
  -22.4273   -8.0277   21.3543 C   0  0  0  0  0  0
  -21.9908   -9.0245   20.4641 C   0  0  0  0  0  0
  -22.7232  -10.2124   20.3046 C   0  0  0  0  0  0
  -21.6851   -6.0738   22.5282 C   0  0  0  0  0  0
  -21.4010   -6.5636   23.8216 C   0  0  0  0  0  0
  -21.3659   -5.6786   24.9176 C   0  0  0  0  0  0
  -21.6048   -4.3051   24.7225 C   0  0  0  0  0  0
  -21.8818   -3.8146   23.4342 C   0  0  0  0  0  0
  -21.9191   -4.6966   22.3402 C   0  0  0  0  0  0
  -22.7872  -13.5236   21.1839 C   0  0  0  0  0  0
  -22.1662   -4.2155   21.0980 F   0  0  0  0  0  0
  -21.5633   -3.4532   25.7735 F   0  0  0  0  0  0
  -30.0417  -13.2751   20.4524 N   0  0  0  0  0  0
  -26.3043  -12.9301   20.3389 N   0  0  0  0  0  0
  -25.9321  -11.6468   20.5772 N   0  0  0  0  0  0
  -22.0505  -12.8227   22.0390 N   0  0  0  0  0  0
  -25.4348  -15.1861   20.4108 N   0  0  0  0  0  0
  -31.8180  -14.6625   20.0892 O   0  0  0  0  0  0
  -21.6636   -6.8877   21.4242 O   0  0  0  0  0  0
  -22.3562  -14.5544   20.6687 O   0  0  0  0  0  0
  -24.6143  -31.8689   23.2123 C   0  0  0  0  0  0
  -25.9041  -32.4826   23.8414 C   0  0  1  0  0  0
  -27.2304  -27.4380   20.1016 C   0  0  0  0  0  0
  -25.5903  -33.8626   24.2345 N   0  0  0  0  0  0
  -23.4023  -30.4933   21.5516 C   0  0  2  0  0  0
  -24.8500  -28.9611   20.1159 C   0  0  0  0  0  0
  -22.7407  -29.4668   22.4993 C   0  0  0  0  0  0
  -18.0272  -28.1379   22.8491 C   0  0  0  0  0  0
  -24.1485  -36.7317   23.2637 C   0  0  0  0  0  0
  -25.9310  -30.8338   21.3676 C   0  0  0  0  0  0
  -26.0089  -29.4670   20.7201 C   0  0  0  0  0  0
  -27.2036  -28.7102   20.7167 C   0  0  0  0  0  0
  -26.0643  -26.9590   19.4703 C   0  0  0  0  0  0
  -24.8715  -27.7040   19.4894 C   0  0  0  0  0  0
  -23.6117  -29.8268   20.1659 C   0  0  0  0  0  0
  -25.4104  -36.3115   24.0342 C   0  0  1  0  0  0
  -20.5861  -28.3667   23.1316 C   0  0  2  0  0  0
  -20.6761  -26.9403   22.5415 C   0  0  0  0  0  0
  -19.5741  -26.6386   21.5211 C   0  0  0  0  0  0
  -18.1919  -26.7926   22.1622 C   0  0  0  0  0  0
  -19.1520  -28.8839   23.2901 C   0  0  0  0  0  0
  -18.9449  -30.1445   23.8910 C   0  0  0  0  0  0
  -17.6449  -30.6583   24.0566 C   0  0  0  0  0  0
  -25.9032  -34.9479   23.5138 C   0  0  0  0  0  0
  -16.5340  -29.9087   23.6327 C   0  0  0  0  0  0
  -16.7259  -28.6506   23.0344 C   0  0  0  0  0  0
  -26.4474  -31.6592   25.0731 C   0  0  0  0  0  0
  -25.3752  -31.3690   26.1487 C   0  0  0  0  0  0
  -27.0300  -30.3035   24.6098 C   0  0  0  0  0  0
  -27.6056  -32.4306   25.7488 C   0  0  0  0  0  0
  -27.5580  -37.1816   24.8464 C   0  0  0  0  0  0
  -21.4136  -29.3039   22.3728 N   0  0  0  0  0  0
  -26.4292  -37.3796   23.9409 N   0  0  0  0  0  0
  -24.6671  -31.0799   22.1021 N   0  0  0  0  0  0
  -23.4177  -28.8210   23.3036 O   0  0  0  0  0  0
  -28.3785  -26.6776   20.0697 O   0  0  0  0  0  0
  -26.5587  -34.8925   22.4696 O   0  0  0  0  0  0
  -23.5335  -32.1443   23.7513 O   0  0  0  0  0  0
  -29.8982  -18.7990   19.5065 C   0  0  0  0  0  0
  -30.7319  -17.6711   21.9357 C   0  0  0  0  0  0
  -30.4644  -19.6404   20.4907 C   0  0  0  0  0  0
  -30.1876  -16.8308   20.9386 C   0  0  0  0  0  0
  -29.7525  -17.4124   19.7210 C   0  0  0  0  0  0
  -30.8766  -19.0615   21.7173 C   0  0  0  0  0  0
  -30.2639  -24.2807   19.8407 C   0  0  0  0  0  0
  -31.3150  -24.5668   19.0188 C   0  0  0  0  0  0
  -29.9236  -25.1016   21.0982 C   0  0  0  0  0  0
  -27.7981  -23.6714   19.6549 C   0  0  0  0  0  0
  -27.5069  -24.4841   20.9278 C   0  0  0  0  0  0
  -29.2495  -23.1443   19.5747 C   0  0  2  0  0  0
  -28.4871  -25.6645   21.0864 C   0  0  2  0  0  0
  -31.6643  -23.8042   17.7444 C   0  0  0  0  0  0
  -32.2994  -25.7165   19.2174 C   0  0  0  0  0  0
  -30.6570  -21.1307   20.1751 C   0  0  0  0  0  0
  -30.0206  -15.4371   21.1965 N   0  0  0  0  0  0
  -29.4482  -21.9494   20.4474 N   0  3  0  0  0  0
  -29.0186  -16.4637   18.4756 Cl  0  0  0  0  0  0
  -31.5627  -20.0334   22.9706 Cl  0  0  0  0  0  0
  -31.4705  -12.4001   19.1189 H   0  0  0  0  0  0
  -30.3248  -11.2855   19.8067 H   0  0  0  0  0  0
  -29.7360  -11.7967   17.4188 H   0  0  0  0  0  0
  -29.6663  -13.5029   17.7807 H   0  0  0  0  0  0
  -27.8234  -11.3149   18.8022 H   0  0  0  0  0  0
  -27.3680  -12.6572   17.7880 H   0  0  0  0  0  0
  -27.7090  -14.2505   19.5951 H   0  0  0  0  0  0
  -28.6804  -11.9312   21.3291 H   0  0  0  0  0  0
  -28.4673  -13.5593   21.8850 H   0  0  0  0  0  0
  -25.2761   -9.5682   22.4743 H   0  0  0  0  0  0
  -24.0012   -7.4627   22.7458 H   0  0  0  0  0  0
  -21.0846   -8.8752   19.8943 H   0  0  0  0  0  0
  -22.3691  -10.9657   19.6151 H   0  0  0  0  0  0
  -21.1993   -7.6143   23.9725 H   0  0  0  0  0  0
  -21.1486   -6.0512   25.9082 H   0  0  0  0  0  0
  -22.0598   -2.7611   23.2835 H   0  0  0  0  0  0
  -22.4114  -11.9885   22.4780 H   0  0  0  0  0  0
  -21.1116  -13.1247   22.2576 H   0  0  0  0  0  0
  -24.6685  -15.8417   20.5157 H   0  0  0  0  0  0
  -26.2870  -15.6218   20.0819 H   0  0  0  0  0  0
  -26.7114  -32.5548   23.1184 H   0  0  0  0  0  0
  -25.0076  -33.9790   25.0504 H   0  0  0  0  0  0
  -22.6910  -31.3103   21.4128 H   0  0  0  0  0  0
  -23.3745  -35.9652   23.3302 H   0  0  0  0  0  0
  -24.3585  -36.8926   22.2051 H   0  0  0  0  0  0
  -23.7235  -37.6525   23.6645 H   0  0  0  0  0  0
  -26.0421  -31.5969   20.5959 H   0  0  0  0  0  0
  -26.8197  -30.8901   21.9842 H   0  0  0  0  0  0
  -28.0992  -29.0959   21.1841 H   0  0  0  0  0  0
  -26.0731  -26.0053   18.9641 H   0  0  0  0  0  0
  -23.9853  -27.3125   19.0091 H   0  0  0  0  0  0
  -23.7197  -30.6015   19.4060 H   0  0  0  0  0  0
  -22.7363  -29.2457   19.8701 H   0  0  0  0  0  0
  -25.1278  -36.1987   25.0834 H   0  0  0  0  0  0
  -20.9951  -28.3229   24.1436 H   0  0  0  0  0  0
  -20.5661  -26.2275   23.3603 H   0  0  0  0  0  0
  -21.6634  -26.7450   22.1207 H   0  0  0  0  0  0
  -19.6901  -25.6300   21.1234 H   0  0  0  0  0  0
  -19.6681  -27.3203   20.6746 H   0  0  0  0  0  0
  -17.4190  -26.6676   21.4021 H   0  0  0  0  0  0
  -18.0319  -26.0065   22.9014 H   0  0  0  0  0  0
  -19.7923  -30.7259   24.2281 H   0  0  0  0  0  0
  -17.5005  -31.6266   24.5165 H   0  0  0  0  0  0
  -15.5341  -30.2992   23.7646 H   0  0  0  0  0  0
  -15.8658  -28.0833   22.7044 H   0  0  0  0  0  0
  -24.5910  -30.7054   25.7821 H   0  0  0  0  0  0
  -24.8964  -32.2842   26.4979 H   0  0  0  0  0  0
  -25.8114  -30.8822   27.0219 H   0  0  0  0  0  0
  -26.2838  -29.6797   24.1162 H   0  0  0  0  0  0
  -27.4080  -29.7268   25.4550 H   0  0  0  0  0  0
  -27.8671  -30.4350   23.9237 H   0  0  0  0  0  0
  -27.2687  -33.3605   26.2083 H   0  0  0  0  0  0
  -28.3860  -32.6865   25.0306 H   0  0  0  0  0  0
  -28.0731  -31.8416   26.5391 H   0  0  0  0  0  0
  -28.2600  -38.0111   24.7514 H   0  0  0  0  0  0
  -28.1074  -36.2646   24.6285 H   0  0  0  0  0  0
  -27.2304  -37.1459   25.8868 H   0  0  0  0  0  0
  -20.9290  -29.8770   21.6960 H   0  0  0  0  0  0
  -26.0184  -38.2877   24.1409 H   0  0  0  0  0  0
  -29.5746  -19.2129   18.5621 H   0  0  0  0  0  0
  -31.0500  -17.2512   22.8787 H   0  0  0  0  0  0
  -30.5989  -25.9258   21.2936 H   0  0  0  0  0  0
  -30.0402  -24.4455   21.9611 H   0  0  0  0  0  0
  -27.6231  -24.3112   18.7892 H   0  0  0  0  0  0
  -27.0830  -22.8535   19.5590 H   0  0  0  0  0  0
  -27.5940  -23.8327   21.7981 H   0  0  0  0  0  0
  -26.4714  -24.8196   20.9431 H   0  0  0  0  0  0
  -29.3306  -22.7876   18.5514 H   0  0  0  0  0  0
  -28.3017  -26.1411   22.0514 H   0  0  0  0  0  0
  -31.1248  -22.8785   17.5749 H   0  0  0  0  0  0
  -32.7224  -23.5393   17.7518 H   0  0  0  0  0  0
  -31.4951  -24.4426   16.8764 H   0  0  0  0  0  0
  -32.1657  -26.3238   20.1054 H   0  0  0  0  0  0
  -32.2467  -26.3932   18.3640 H   0  0  0  0  0  0
  -33.3167  -25.3265   19.2619 H   0  0  0  0  0  0
  -30.9181  -21.1945   19.1192 H   0  0  0  0  0  0
  -31.5125  -21.5462   20.7082 H   0  0  0  0  0  0
  -29.1450  -15.1609   21.6137 H   0  0  0  0  0  0
  -28.6579  -21.3443   20.2958 H   0  0  0  0  0  0
  -29.4400  -22.2114   21.4193 H   0  0  0  0  0  0
  1 25  1  0  0  0
  1 30  2  0  0  0
  1 87  1  0  0  0
  2  3  1  0  0  0
  2 25  1  0  0  0
  2 91  1  0  0  0
  2 92  1  0  0  0
  3  4  1  0  0  0
  3 93  1  0  0  0
  3 94  1  0  0  0
  4  5  1  0  0  0
  4 95  1  0  0  0
  4 96  1  0  0  0
  5  6  1  0  0  0
  5 26  1  0  0  0
  5 97  1  0  0  0
  6 25  1  0  0  0
  6 98  1  0  0  0
  6 99  1  0  0  0
  7  8  2  0  0  0
  7 26  1  0  0  0
  7 29  1  0  0  0
  8  9  1  0  0  0
  8 22  1  0  0  0
  9 10  1  0  0  0
  9 27  2  0  0  0
 10 11  2  0  0  0
 10 15  1  0  0  0
 11 12  1  0  0  0
 11100  1  0  0  0
 12 13  2  0  0  0
 12101  1  0  0  0
 13 14  1  0  0  0
 13 31  1  0  0  0
 14 15  2  0  0  0
 14102  1  0  0  0
 15103  1  0  0  0
 16 17  2  0  0  0
 16 21  1  0  0  0
 16 31  1  0  0  0
 17 18  1  0  0  0
 17104  1  0  0  0
 18 19  2  0  0  0
 18105  1  0  0  0
 19 20  1  0  0  0
 19 24  1  0  0  0
 20 21  2  0  0  0
 20106  1  0  0  0
 21 23  1  0  0  0
 22 28  1  0  0  0
 22 32  2  0  0  0
 26 27  1  0  0  0
 28107  1  0  0  0
 28108  1  0  0  0
 29109  1  0  0  0
 29110  1  0  0  0
 33 34  1  0  0  0
 33 66  1  0  0  0
 33 70  2  0  0  0
 34 36  1  0  0  0
 34 59  1  0  0  0
 34111  1  0  0  0
 35 44  2  0  0  0
 35 45  1  0  0  0
 35 68  1  0  0  0
 36 56  1  0  0  0
 36112  1  0  0  0
 37 39  1  0  0  0
 37 47  1  0  0  0
 37 66  1  0  0  0
 37113  1  0  0  0
 38 43  2  0  0  0
 38 46  1  0  0  0
 38 47  1  0  0  0
 39 64  1  0  0  0
 39 67  2  0  0  0
 40 52  1  0  0  0
 40 53  2  0  0  0
 40 58  1  0  0  0
 41114  1  0  0  0
 41115  1  0  0  0
 41116  1  0  0  0
 41 48  1  0  0  0
 42 43  1  0  0  0
 42 66  1  0  0  0
 42117  1  0  0  0
 42118  1  0  0  0
 43 44  1  0  0  0
 44119  1  0  0  0
 45 46  2  0  0  0
 45120  1  0  0  0
 46121  1  0  0  0
 47122  1  0  0  0
 47123  1  0  0  0
 48 56  1  0  0  0
 48 65  1  0  0  0
 48124  1  0  0  0
 49 50  1  0  0  0
 49 53  1  0  0  0
 49 64  1  0  0  0
 49125  1  0  0  0
 50 51  1  0  0  0
 50126  1  0  0  0
 50127  1  0  0  0
 51 52  1  0  0  0
 51128  1  0  0  0
 51129  1  0  0  0
 52130  1  0  0  0
 52131  1  0  0  0
 53 54  1  0  0  0
 54 55  2  0  0  0
 54132  1  0  0  0
 55 57  1  0  0  0
 55133  1  0  0  0
 56 69  2  0  0  0
 57 58  2  0  0  0
 57134  1  0  0  0
 58135  1  0  0  0
 59 60  1  0  0  0
 59 61  1  0  0  0
 59 62  1  0  0  0
 60136  1  0  0  0
 60137  1  0  0  0
 60138  1  0  0  0
 61139  1  0  0  0
 61140  1  0  0  0
 61141  1  0  0  0
 62142  1  0  0  0
 62143  1  0  0  0
 62144  1  0  0  0
 63 65  1  0  0  0
 63145  1  0  0  0
 63146  1  0  0  0
 63147  1  0  0  0
 64148  1  0  0  0
 65149  1  0  0  0
 68 83  1  0  0  0
 71 73  2  0  0  0
 71 75  1  0  0  0
 71150  1  0  0  0
 72 74  1  0  0  0
 72 76  2  0  0  0
 72151  1  0  0  0
 73 76  1  0  0  0
 73 86  1  0  0  0
 74 75  2  0  0  0
 74 87  1  0  0  0
 75 89  1  0  0  0
 76 90  1  0  0  0
 77 78  2  0  0  0
 77 79  1  0  0  0
 77 82  1  0  0  0
 78 84  1  0  0  0
 78 85  1  0  0  0
 79 83  1  0  0  0
 79152  1  0  0  0
 79153  1  0  0  0
 80 81  1  0  0  0
 80 82  1  0  0  0
 80154  1  0  0  0
 80155  1  0  0  0
 81 83  1  0  0  0
 81156  1  0  0  0
 81157  1  0  0  0
 82 88  1  0  0  0
 82158  1  0  0  0
 83159  1  0  0  0
 84160  1  0  0  0
 84161  1  0  0  0
 84162  1  0  0  0
 85163  1  0  0  0
 85164  1  0  0  0
 85165  1  0  0  0
 86 88  1  0  0  0
 86166  1  0  0  0
 86167  1  0  0  0
 87168  1  0  0  0
 88169  1  0  0  0
 88170  1  0  0  0
M  CHG  1  88   1
M  ISO  4   1 100  68 101  83 101  87 100
M  END
> <chiral flag>
0

> <version>
0

> <s_m_source_file>
/data/baiqing/PycharmProjects/Reinvent-master-3.2/result/LINK_invent/BTK/process_docking_weight1_custom_product_contain_oxygen_bond_distance_aromatic_linkinvent_7_9_3/rearranged_h_0037.sdf

> <i_m_source_file_index>
52

> <r_mmod_Potential_Energy-OPLS-2005>
-231.051528930664

> <r_mmod_Stretch_Energy-OPLS-2005>
41.8531455993652

> <r_mmod_Bend_Energy-OPLS-2005>
111.440940856934

> <r_mmod_Torsional_Energy-OPLS-2005>
274.352478027344

> <r_mmod_Improper_Torsional_Energy-OPLS-2005>
3.97272300720215

> <r_mmod_Van_der_Waal_Energy-OPLS-2005>
152.027908325195

> <r_mmod_Electrostatic_Energy-OPLS-2005>
-364.580322265625

> <r_mmod_Solvation_Energy-OPLS-2005>
-460.998199462891

> <b_mmod_Minimization_Converged-OPLS-2005>
0

> <r_mmod_RMS_Derivative-OPLS-2005>
0.60946786403656

$$$$
52
                    3D
 Structure written by MMmdl.
158166  0  0  1  0            999 V2000
  -30.7097  -14.5104   20.5075 C   0  0  0  0  0  0
  -30.4187  -12.3120   19.4475 C   0  0  0  0  0  0
  -29.5012  -12.4957   18.2200 C   0  0  0  0  0  0
  -28.0221  -12.3576   18.6291 C   0  0  0  0  0  0
  -27.6602  -13.2166   19.8711 C   0  0  2  0  0  0
  -28.7053  -13.0497   21.0006 C   0  0  0  0  0  0
  -25.2573  -13.8181   20.5680 C   0  0  0  0  0  0
  -24.1830  -13.0453   20.9184 C   0  0  0  0  0  0
  -24.6398  -11.6921   20.8738 C   0  0  0  0  0  0
  -23.9063  -10.4303   21.0407 C   0  0  0  0  0  0
  -24.3615   -9.4218   21.9184 C   0  0  0  0  0  0
  -23.6299   -8.2246   22.0750 C   0  0  0  0  0  0
  -22.4285   -8.0284   21.3535 C   0  0  0  0  0  0
  -21.9919   -9.0259   20.4644 C   0  0  0  0  0  0
  -22.7240  -10.2142   20.3056 C   0  0  0  0  0  0
  -21.6855   -6.0737   22.5278 C   0  0  0  0  0  0
  -21.4014   -6.5637   23.8209 C   0  0  0  0  0  0
  -21.3664   -5.6788   24.9170 C   0  0  0  0  0  0
  -21.6047   -4.3057   24.7218 C   0  0  0  0  0  0
  -21.8813   -3.8148   23.4344 C   0  0  0  0  0  0
  -21.9187   -4.6964   22.3401 C   0  0  0  0  0  0
  -22.7846  -13.5251   21.1845 C   0  0  0  0  0  0
  -22.1653   -4.2148   21.0980 F   0  0  0  0  0  0
  -21.5644   -3.4543   25.7732 F   0  0  0  0  0  0
  -30.0348  -13.3298   20.4391 N   0  0  0  0  0  0
  -26.3020  -12.9374   20.3361 N   0  0  0  0  0  0
  -25.9332  -11.6523   20.5782 N   0  0  0  0  0  0
  -22.0468  -12.8258   22.0402 N   0  0  0  0  0  0
  -25.4288  -15.1894   20.4069 N   0  0  0  0  0  0
  -31.8697  -14.6296   20.1083 O   0  0  0  0  0  0
  -21.6644   -6.8884   21.4238 O   0  0  0  0  0  0
  -22.3529  -14.5554   20.6685 O   0  0  0  0  0  0
  -24.6169  -31.8681   23.2093 C   0  0  0  0  0  0
  -25.9055  -32.4824   23.8396 C   0  0  1  0  0  0
  -27.2332  -27.4080   20.0971 C   0  0  0  0  0  0
  -25.5917  -33.8627   24.2323 N   0  0  0  0  0  0
  -23.4056  -30.4936   21.5508 C   0  0  2  0  0  0
  -24.8519  -28.9597   20.1159 C   0  0  0  0  0  0
  -22.7419  -29.4666   22.4968 C   0  0  0  0  0  0
  -18.0276  -28.1370   22.8471 C   0  0  0  0  0  0
  -24.1496  -36.7306   23.2634 C   0  0  0  0  0  0
  -25.9401  -30.8256   21.3680 C   0  0  0  0  0  0
  -26.0171  -29.4610   20.7086 C   0  0  0  0  0  0
  -27.2110  -28.6955   20.6926 C   0  0  0  0  0  0
  -26.0415  -26.9351   19.4955 C   0  0  0  0  0  0
  -24.8597  -27.6957   19.5080 C   0  0  0  0  0  0
  -23.6158  -29.8288   20.1655 C   0  0  0  0  0  0
  -25.4118  -36.3111   24.0334 C   0  0  1  0  0  0
  -20.5871  -28.3665   23.1293 C   0  0  2  0  0  0
  -20.6775  -26.9399   22.5397 C   0  0  0  0  0  0
  -19.5759  -26.6374   21.5193 C   0  0  0  0  0  0
  -18.1935  -26.7919   22.1598 C   0  0  0  0  0  0
  -19.1529  -28.8833   23.2881 C   0  0  0  0  0  0
  -18.9459  -30.1440   23.8890 C   0  0  0  0  0  0
  -17.6463  -30.6582   24.0552 C   0  0  0  0  0  0
  -25.9042  -34.9476   23.5118 C   0  0  0  0  0  0
  -16.5346  -29.9075   23.6334 C   0  0  0  0  0  0
  -16.7265  -28.6493   23.0347 C   0  0  0  0  0  0
  -26.4469  -31.6613   25.0737 C   0  0  0  0  0  0
  -25.3726  -31.3749   26.1481 C   0  0  0  0  0  0
  -27.0294  -30.3051   24.6135 C   0  0  0  0  0  0
  -27.6051  -32.4330   25.7495 C   0  0  0  0  0  0
  -27.5586  -37.1810   24.8461 C   0  0  0  0  0  0
  -21.4144  -29.3037   22.3700 N   0  0  0  0  0  0
  -26.4304  -37.3797   23.9399 N   0  0  0  0  0  0
  -24.6723  -31.0771   22.0996 N   0  0  0  0  0  0
  -23.4181  -28.8194   23.3014 O   0  0  0  0  0  0
  -28.3901  -26.6380   20.1253 O   0  0  0  0  0  0
  -26.5590  -34.8927   22.4673 O   0  0  0  0  0  0
  -23.5353  -32.1440   23.7471 O   0  0  0  0  0  0
  -30.2286  -19.4786   20.4459 C   0  0  0  0  0  0
  -30.1482  -19.4723   23.2270 C   0  0  0  0  0  0
  -30.2032  -18.2238   21.1203 C   0  0  0  0  0  0
  -30.1678  -20.7085   22.5446 C   0  0  0  0  0  0
  -30.2086  -20.7211   21.1303 C   0  0  0  0  0  0
  -30.1736  -18.2397   22.5417 C   0  0  0  0  0  0
  -30.1987  -21.9931   23.3600 C   0  0  0  0  0  0
  -30.2614  -16.9568   20.2340 C   0  0  0  0  0  0
  -29.4583  -24.3352   20.3382 C   0  0  0  0  0  0
  -29.1234  -22.8103   20.3766 C   0  0  0  0  0  0
  -28.2089  -25.2045   20.0337 C   0  0  0  0  0  0
  -30.2996  -21.9288   20.4028 N   0  0  0  0  0  0
  -29.9636  -15.6046   20.7680 N   0  0  0  0  0  0
  -30.1969  -16.8052   23.5077 Cl  0  0  0  0  0  0
  -31.4673  -12.3855   19.1529 H   0  0  0  0  0  0
  -30.3009  -11.3139   19.8721 H   0  0  0  0  0  0
  -29.7499  -11.7615   17.4526 H   0  0  0  0  0  0
  -29.6678  -13.4774   17.7733 H   0  0  0  0  0  0
  -27.8380  -11.3054   18.8438 H   0  0  0  0  0  0
  -27.3724  -12.6154   17.7918 H   0  0  0  0  0  0
  -27.6909  -14.2553   19.5426 H   0  0  0  0  0  0
  -28.6809  -12.0333   21.3965 H   0  0  0  0  0  0
  -28.4797  -13.7057   21.8423 H   0  0  0  0  0  0
  -25.2754   -9.5706   22.4766 H   0  0  0  0  0  0
  -24.0008   -7.4643   22.7479 H   0  0  0  0  0  0
  -21.0842   -8.8784   19.8959 H   0  0  0  0  0  0
  -22.3693  -10.9681   19.6174 H   0  0  0  0  0  0
  -21.2004   -7.6143   23.9714 H   0  0  0  0  0  0
  -21.1497   -6.0521   25.9079 H   0  0  0  0  0  0
  -22.0591   -2.7606   23.2838 H   0  0  0  0  0  0
  -22.4068  -11.9927   22.4817 H   0  0  0  0  0  0
  -21.1087  -13.1300   22.2593 H   0  0  0  0  0  0
  -24.6633  -15.8466   20.5136 H   0  0  0  0  0  0
  -26.2806  -15.6248   20.0761 H   0  0  0  0  0  0
  -26.7121  -32.5531   23.1154 H   0  0  0  0  0  0
  -25.0109  -33.9802   25.0497 H   0  0  0  0  0  0
  -22.6940  -31.3103   21.4114 H   0  0  0  0  0  0
  -23.3768  -35.9631   23.3307 H   0  0  0  0  0  0
  -24.3586  -36.8909   22.2049 H   0  0  0  0  0  0
  -23.7235  -37.6508   23.6642 H   0  0  0  0  0  0
  -26.0639  -31.5968   20.6061 H   0  0  0  0  0  0
  -26.8231  -30.8701   21.9942 H   0  0  0  0  0  0
  -28.1079  -29.0795   21.1588 H   0  0  0  0  0  0
  -25.9923  -25.9724   19.0109 H   0  0  0  0  0  0
  -23.9625  -27.2988   19.0537 H   0  0  0  0  0  0
  -23.7278  -30.6054   19.4082 H   0  0  0  0  0  0
  -22.7384  -29.2525   19.8659 H   0  0  0  0  0  0
  -25.1299  -36.1978   25.0826 H   0  0  0  0  0  0
  -20.9964  -28.3229   24.1418 H   0  0  0  0  0  0
  -20.5682  -26.2263   23.3579 H   0  0  0  0  0  0
  -21.6648  -26.7446   22.1192 H   0  0  0  0  0  0
  -19.6931  -25.6277   21.1228 H   0  0  0  0  0  0
  -19.6721  -27.3170   20.6714 H   0  0  0  0  0  0
  -17.4206  -26.6645   21.4003 H   0  0  0  0  0  0
  -18.0354  -26.0064   22.9004 H   0  0  0  0  0  0
  -19.7941  -30.7247   24.2254 H   0  0  0  0  0  0
  -17.5029  -31.6272   24.5139 H   0  0  0  0  0  0
  -15.5354  -30.2975   23.7687 H   0  0  0  0  0  0
  -15.8658  -28.0821   22.7066 H   0  0  0  0  0  0
  -24.5847  -30.7160   25.7805 H   0  0  0  0  0  0
  -24.8985  -32.2928   26.4977 H   0  0  0  0  0  0
  -25.8062  -30.8854   27.0213 H   0  0  0  0  0  0
  -26.2842  -29.6821   24.1168 H   0  0  0  0  0  0
  -27.4023  -29.7289   25.4615 H   0  0  0  0  0  0
  -27.8707  -30.4365   23.9323 H   0  0  0  0  0  0
  -27.2673  -33.3614   26.2123 H   0  0  0  0  0  0
  -28.3842  -32.6914   25.0308 H   0  0  0  0  0  0
  -28.0740  -31.8417   26.5376 H   0  0  0  0  0  0
  -28.2608  -38.0104   24.7511 H   0  0  0  0  0  0
  -28.1078  -36.2633   24.6293 H   0  0  0  0  0  0
  -27.2295  -37.1466   25.8862 H   0  0  0  0  0  0
  -20.9287  -29.8775   21.6947 H   0  0  0  0  0  0
  -26.0195  -38.2877   24.1401 H   0  0  0  0  0  0
  -30.2783  -19.4789   19.3658 H   0  0  0  0  0  0
  -30.1378  -19.4620   24.3075 H   0  0  0  0  0  0
  -30.5917  -21.8164   24.3619 H   0  0  0  0  0  0
  -29.1963  -22.4083   23.4596 H   0  0  0  0  0  0
  -30.8357  -22.7450   22.8937 H   0  0  0  0  0  0
  -31.2364  -16.9721   19.7442 H   0  0  0  0  0  0
  -29.5463  -17.1114   19.4250 H   0  0  0  0  0  0
  -30.2133  -24.5331   19.5767 H   0  0  0  0  0  0
  -29.8936  -24.6410   21.2904 H   0  0  0  0  0  0
  -28.5577  -22.5560   19.4785 H   0  0  0  0  0  0
  -28.4565  -22.5976   21.2136 H   0  0  0  0  0  0
  -27.4150  -24.9050   20.7195 H   0  0  0  0  0  0
  -27.8808  -24.9492   19.0245 H   0  0  0  0  0  0
  -30.6927  -21.7999   19.4731 H   0  0  0  0  0  0
  -29.0250  -15.4431   21.0980 H   0  0  0  0  0  0
  1 25  1  0  0  0
  1 30  2  0  0  0
  1 83  1  0  0  0
  2  3  1  0  0  0
  2 25  1  0  0  0
  2 85  1  0  0  0
  2 86  1  0  0  0
  3  4  1  0  0  0
  3 87  1  0  0  0
  3 88  1  0  0  0
  4  5  1  0  0  0
  4 89  1  0  0  0
  4 90  1  0  0  0
  5  6  1  0  0  0
  5 26  1  0  0  0
  5 91  1  0  0  0
  6 25  1  0  0  0
  6 92  1  0  0  0
  6 93  1  0  0  0
  7  8  2  0  0  0
  7 26  1  0  0  0
  7 29  1  0  0  0
  8  9  1  0  0  0
  8 22  1  0  0  0
  9 10  1  0  0  0
  9 27  2  0  0  0
 10 11  2  0  0  0
 10 15  1  0  0  0
 11 12  1  0  0  0
 11 94  1  0  0  0
 12 13  2  0  0  0
 12 95  1  0  0  0
 13 14  1  0  0  0
 13 31  1  0  0  0
 14 15  2  0  0  0
 14 96  1  0  0  0
 15 97  1  0  0  0
 16 17  2  0  0  0
 16 21  1  0  0  0
 16 31  1  0  0  0
 17 18  1  0  0  0
 17 98  1  0  0  0
 18 19  2  0  0  0
 18 99  1  0  0  0
 19 20  1  0  0  0
 19 24  1  0  0  0
 20 21  2  0  0  0
 20100  1  0  0  0
 21 23  1  0  0  0
 22 28  1  0  0  0
 22 32  2  0  0  0
 26 27  1  0  0  0
 28101  1  0  0  0
 28102  1  0  0  0
 29103  1  0  0  0
 29104  1  0  0  0
 33 34  1  0  0  0
 33 66  1  0  0  0
 33 70  2  0  0  0
 34 36  1  0  0  0
 34 59  1  0  0  0
 34105  1  0  0  0
 35 44  2  0  0  0
 35 45  1  0  0  0
 35 68  1  0  0  0
 36 56  1  0  0  0
 36106  1  0  0  0
 37 39  1  0  0  0
 37 47  1  0  0  0
 37 66  1  0  0  0
 37107  1  0  0  0
 38 43  2  0  0  0
 38 46  1  0  0  0
 38 47  1  0  0  0
 39 64  1  0  0  0
 39 67  2  0  0  0
 40 52  1  0  0  0
 40 53  2  0  0  0
 40 58  1  0  0  0
 41108  1  0  0  0
 41109  1  0  0  0
 41110  1  0  0  0
 41 48  1  0  0  0
 42 43  1  0  0  0
 42 66  1  0  0  0
 42111  1  0  0  0
 42112  1  0  0  0
 43 44  1  0  0  0
 44113  1  0  0  0
 45 46  2  0  0  0
 45114  1  0  0  0
 46115  1  0  0  0
 47116  1  0  0  0
 47117  1  0  0  0
 48 56  1  0  0  0
 48 65  1  0  0  0
 48118  1  0  0  0
 49 50  1  0  0  0
 49 53  1  0  0  0
 49 64  1  0  0  0
 49119  1  0  0  0
 50 51  1  0  0  0
 50120  1  0  0  0
 50121  1  0  0  0
 51 52  1  0  0  0
 51122  1  0  0  0
 51123  1  0  0  0
 52124  1  0  0  0
 52125  1  0  0  0
 53 54  1  0  0  0
 54 55  2  0  0  0
 54126  1  0  0  0
 55 57  1  0  0  0
 55127  1  0  0  0
 56 69  2  0  0  0
 57 58  2  0  0  0
 57128  1  0  0  0
 58129  1  0  0  0
 59 60  1  0  0  0
 59 61  1  0  0  0
 59 62  1  0  0  0
 60130  1  0  0  0
 60131  1  0  0  0
 60132  1  0  0  0
 61133  1  0  0  0
 61134  1  0  0  0
 61135  1  0  0  0
 62136  1  0  0  0
 62137  1  0  0  0
 62138  1  0  0  0
 63 65  1  0  0  0
 63139  1  0  0  0
 63140  1  0  0  0
 63141  1  0  0  0
 64142  1  0  0  0
 65143  1  0  0  0
 68 81  1  0  0  0
 71 73  2  0  0  0
 71 75  1  0  0  0
 71144  1  0  0  0
 72 74  1  0  0  0
 72 76  2  0  0  0
 72145  1  0  0  0
 73 76  1  0  0  0
 73 78  1  0  0  0
 74 75  2  0  0  0
 74 77  1  0  0  0
 75 82  1  0  0  0
 76 84  1  0  0  0
 77146  1  0  0  0
 77147  1  0  0  0
 77148  1  0  0  0
 78 83  1  0  0  0
 78149  1  0  0  0
 78150  1  0  0  0
 79 80  1  0  0  0
 79 81  1  0  0  0
 79151  1  0  0  0
 79152  1  0  0  0
 80 82  1  0  0  0
 80153  1  0  0  0
 80154  1  0  0  0
 81155  1  0  0  0
 81156  1  0  0  0
 82157  1  0  0  0
 83158  1  0  0  0
M  ISO  4   1 100  68 101  81 101  83 100
M  END
> <chiral flag>
0

> <version>
0

> <s_m_source_file>
/data/baiqing/PycharmProjects/Reinvent-master-3.2/result/LINK_invent/BTK/process_docking_weight1_custom_product_contain_oxygen_bond_distance_aromatic_linkinvent_7_9_3/rearranged_h_0037.sdf

> <i_m_source_file_index>
53

> <r_mmod_Potential_Energy-OPLS-2005>
-80.9215545654297

> <r_mmod_Stretch_Energy-OPLS-2005>
44.959400177002

> <r_mmod_Bend_Energy-OPLS-2005>
112.899757385254

> <r_mmod_Torsional_Energy-OPLS-2005>
214.996780395508

> <r_mmod_Improper_Torsional_Energy-OPLS-2005>
12.3114147186279

> <r_mmod_Van_der_Waal_Energy-OPLS-2005>
158.332550048828

> <r_mmod_Electrostatic_Energy-OPLS-2005>
-427.733215332031

> <r_mmod_Solvation_Energy-OPLS-2005>
-217.317489624023

> <b_mmod_Minimization_Converged-OPLS-2005>
0

> <r_mmod_RMS_Derivative-OPLS-2005>
1.86584198474884

$$$$
53
                    3D
 Structure written by MMmdl.
173182  0  0  1  0            999 V2000
  -30.6449  -14.7637   20.3860 C   0  0  0  0  0  0
  -30.4405  -12.4406   19.4824 C   0  0  0  0  0  0
  -29.5171  -12.3667   18.2462 C   0  0  0  0  0  0
  -28.0305  -12.2868   18.6543 C   0  0  0  0  0  0
  -27.6343  -13.2191   19.8332 C   0  0  2  0  0  0
  -28.6881  -13.2292   20.9589 C   0  0  0  0  0  0
  -25.2514  -13.8171   20.5695 C   0  0  0  0  0  0
  -24.1794  -13.0426   20.9224 C   0  0  0  0  0  0
  -24.6384  -11.6912   20.8780 C   0  0  0  0  0  0
  -23.9058  -10.4298   21.0434 C   0  0  0  0  0  0
  -24.3624   -9.4214   21.9199 C   0  0  0  0  0  0
  -23.6303   -8.2249   22.0750 C   0  0  0  0  0  0
  -22.4286   -8.0289   21.3542 C   0  0  0  0  0  0
  -21.9914   -9.0261   20.4645 C   0  0  0  0  0  0
  -22.7238  -10.2144   20.3071 C   0  0  0  0  0  0
  -21.6865   -6.0737   22.5268 C   0  0  0  0  0  0
  -21.4022   -6.5634   23.8204 C   0  0  0  0  0  0
  -21.3662   -5.6784   24.9161 C   0  0  0  0  0  0
  -21.6053   -4.3047   24.7208 C   0  0  0  0  0  0
  -21.8826   -3.8142   23.4328 C   0  0  0  0  0  0
  -21.9192   -4.6964   22.3385 C   0  0  0  0  0  0
  -22.7823  -13.5234   21.1868 C   0  0  0  0  0  0
  -22.1672   -4.2153   21.0961 F   0  0  0  0  0  0
  -21.5630   -3.4533   25.7722 F   0  0  0  0  0  0
  -29.9787  -13.5551   20.3427 N   0  0  0  0  0  0
  -26.2926  -12.9348   20.3294 N   0  0  0  0  0  0
  -25.9311  -11.6516   20.5822 N   0  0  0  0  0  0
  -22.0468  -12.8215   22.0429 N   0  0  0  0  0  0
  -25.4182  -15.1882   20.4088 N   0  0  0  0  0  0
  -31.8687  -14.7581   20.2380 O   0  0  0  0  0  0
  -21.6659   -6.8885   21.4233 O   0  0  0  0  0  0
  -22.3502  -14.5525   20.6687 O   0  0  0  0  0  0
  -24.6264  -31.8605   23.2045 C   0  0  0  0  0  0
  -25.9112  -32.4789   23.8366 C   0  0  1  0  0  0
  -27.2084  -27.2959   20.1344 C   0  0  0  0  0  0
  -25.5930  -33.8593   24.2292 N   0  0  0  0  0  0
  -23.4222  -30.4833   21.5463 C   0  0  2  0  0  0
  -24.8735  -28.9442   20.1066 C   0  0  0  0  0  0
  -22.7491  -29.4613   22.4937 C   0  0  0  0  0  0
  -18.0289  -28.1385   22.8484 C   0  0  0  0  0  0
  -24.1493  -36.7304   23.2643 C   0  0  0  0  0  0
  -25.9662  -30.7780   21.3881 C   0  0  0  0  0  0
  -26.0377  -29.4020   20.7400 C   0  0  0  0  0  0
  -27.2077  -28.5796   20.7655 C   0  0  0  0  0  0
  -26.0643  -26.9495   19.3993 C   0  0  0  0  0  0
  -24.8900  -27.7208   19.4226 C   0  0  0  0  0  0
  -23.6402  -29.8241   20.1594 C   0  0  0  0  0  0
  -25.4118  -36.3099   24.0335 C   0  0  1  0  0  0
  -20.5895  -28.3683   23.1288 C   0  0  2  0  0  0
  -20.6783  -26.9406   22.5413 C   0  0  0  0  0  0
  -19.5759  -26.6387   21.5217 C   0  0  0  0  0  0
  -18.1935  -26.7928   22.1630 C   0  0  0  0  0  0
  -19.1541  -28.8856   23.2874 C   0  0  0  0  0  0
  -18.9461  -30.1458   23.8890 C   0  0  0  0  0  0
  -17.6458  -30.6581   24.0568 C   0  0  0  0  0  0
  -25.9055  -34.9464   23.5116 C   0  0  0  0  0  0
  -16.5348  -29.9078   23.6340 C   0  0  0  0  0  0
  -16.7276  -28.6500   23.0352 C   0  0  0  0  0  0
  -26.4491  -31.6578   25.0711 C   0  0  0  0  0  0
  -25.3713  -31.3701   26.1416 C   0  0  0  0  0  0
  -27.0328  -30.3002   24.6162 C   0  0  0  0  0  0
  -27.6064  -32.4294   25.7470 C   0  0  0  0  0  0
  -27.5585  -37.1806   24.8467 C   0  0  0  0  0  0
  -21.4203  -29.3029   22.3675 N   0  0  0  0  0  0
  -26.4304  -37.3785   23.9404 N   0  0  0  0  0  0
  -24.6897  -31.0585   22.1023 N   0  0  0  0  0  0
  -23.4208  -28.8158   23.3023 O   0  0  0  0  0  0
  -28.2496  -26.3527   20.1775 O   0  0  0  0  0  0
  -26.5630  -34.8926   22.4682 O   0  0  0  0  0  0
  -23.5422  -32.1427   23.7345 O   0  0  0  0  0  0
  -31.8682  -18.9186   21.5616 C   0  0  0  0  0  0
  -31.0383  -20.0202   21.2780 C   0  0  0  0  0  0
  -31.4615  -17.5959   21.2983 C   0  0  0  0  0  0
  -29.7078  -19.8369   20.8434 C   0  0  0  0  0  0
  -29.2804  -18.4542   20.6544 C   0  0  0  0  0  0
  -30.1898  -17.3086   20.7474 C   0  0  0  0  0  0
  -27.9654  -23.6505   20.3361 C   0  0  0  0  0  0
  -26.8728  -23.1342   19.7132 C   0  0  0  0  0  0
  -28.9293  -23.8974   22.9845 C   0  0  0  0  0  0
  -28.9597  -25.2025   22.1939 C   0  0  0  0  0  0
  -29.5759  -22.7596   22.1803 C   0  0  0  0  0  0
  -28.0152  -25.1164   20.9946 C   0  0  2  0  0  0
  -27.8055  -18.2048   20.3631 C   0  0  0  0  0  0
  -25.5070  -23.7451   19.4944 C   0  0  0  0  0  0
  -28.7700  -21.0887   20.5008 C   0  0  0  0  0  0
  -29.3534  -16.0295   18.7854 C   0  0  0  0  0  0
  -30.0152  -17.0446   17.8186 C   0  0  0  0  0  0
  -29.9254  -15.9538   20.1606 N   0  0  0  0  0  0
  -29.0603  -22.5853   20.7900 N   0  3  1  0  0  0
  -31.6985  -16.5915   17.4432 Cl  0  0  0  0  0  0
  -31.4733  -12.5657   19.1537 H   0  0  0  0  0  0
  -30.4199  -11.5022   20.0388 H   0  0  0  0  0  0
  -29.7716  -11.4759   17.6697 H   0  0  0  0  0  0
  -29.7023  -13.1880   17.5592 H   0  0  0  0  0  0
  -27.8466  -11.2496   18.9397 H   0  0  0  0  0  0
  -27.3926  -12.4769   17.7903 H   0  0  0  0  0  0
  -27.5871  -14.2182   19.4159 H   0  0  0  0  0  0
  -28.7302  -12.2666   21.4713 H   0  0  0  0  0  0
  -28.4307  -13.9766   21.7112 H   0  0  0  0  0  0
  -25.2777   -9.5699   22.4762 H   0  0  0  0  0  0
  -24.0024   -7.4641   22.7459 H   0  0  0  0  0  0
  -21.0854   -8.8787   19.8936 H   0  0  0  0  0  0
  -22.3715  -10.9692   19.6178 H   0  0  0  0  0  0
  -21.2028   -7.6146   23.9705 H   0  0  0  0  0  0
  -21.1479   -6.0516   25.9068 H   0  0  0  0  0  0
  -22.0602   -2.7604   23.2820 H   0  0  0  0  0  0
  -22.4092  -11.9895   22.4832 H   0  0  0  0  0  0
  -21.1078  -13.1219   22.2610 H   0  0  0  0  0  0
  -24.6500  -15.8402   20.5270 H   0  0  0  0  0  0
  -26.2740  -15.6299   20.1010 H   0  0  0  0  0  0
  -26.7176  -32.5461   23.1108 H   0  0  0  0  0  0
  -25.0034  -33.9753   25.0409 H   0  0  0  0  0  0
  -22.7154  -31.3036   21.4052 H   0  0  0  0  0  0
  -23.3755  -35.9635   23.3303 H   0  0  0  0  0  0
  -24.3593  -36.8924   22.2058 H   0  0  0  0  0  0
  -23.7237  -37.6509   23.6657 H   0  0  0  0  0  0
  -26.0986  -31.5324   20.6113 H   0  0  0  0  0  0
  -26.8490  -30.8354   22.0123 H   0  0  0  0  0  0
  -28.0874  -28.9068   21.3007 H   0  0  0  0  0  0
  -26.0897  -26.0664   18.7870 H   0  0  0  0  0  0
  -24.0190  -27.3870   18.8760 H   0  0  0  0  0  0
  -23.7602  -30.6046   19.4075 H   0  0  0  0  0  0
  -22.7598  -29.2548   19.8541 H   0  0  0  0  0  0
  -25.1288  -36.1966   25.0828 H   0  0  0  0  0  0
  -20.9983  -28.3251   24.1411 H   0  0  0  0  0  0
  -20.5712  -26.2275   23.3600 H   0  0  0  0  0  0
  -21.6643  -26.7446   22.1179 H   0  0  0  0  0  0
  -19.6911  -25.6303   21.1231 H   0  0  0  0  0  0
  -19.6698  -27.3214   20.6760 H   0  0  0  0  0  0
  -17.4201  -26.6681   21.4031 H   0  0  0  0  0  0
  -18.0320  -26.0067   22.9023 H   0  0  0  0  0  0
  -19.7929  -30.7284   24.2245 H   0  0  0  0  0  0
  -17.5006  -31.6263   24.5169 H   0  0  0  0  0  0
  -15.5350  -30.2979   23.7669 H   0  0  0  0  0  0
  -15.8672  -28.0832   22.7064 H   0  0  0  0  0  0
  -24.5918  -30.7023   25.7720 H   0  0  0  0  0  0
  -24.8856  -32.2851   26.4820 H   0  0  0  0  0  0
  -25.8025  -30.8884   27.0200 H   0  0  0  0  0  0
  -26.2888  -29.6738   24.1219 H   0  0  0  0  0  0
  -27.4056  -29.7271   25.4664 H   0  0  0  0  0  0
  -27.8753  -30.4282   23.9361 H   0  0  0  0  0  0
  -27.2714  -33.3622   26.2021 H   0  0  0  0  0  0
  -28.3885  -32.6803   25.0288 H   0  0  0  0  0  0
  -28.0705  -31.8408   26.5395 H   0  0  0  0  0  0
  -28.2604  -38.0106   24.7517 H   0  0  0  0  0  0
  -28.1083  -36.2632   24.6288 H   0  0  0  0  0  0
  -27.2301  -37.1449   25.8875 H   0  0  0  0  0  0
  -20.9378  -29.8757   21.6893 H   0  0  0  0  0  0
  -26.0189  -38.2867   24.1395 H   0  0  0  0  0  0
  -32.8658  -19.0937   21.9400 H   0  0  0  0  0  0
  -31.4546  -21.0055   21.4152 H   0  0  0  0  0  0
  -32.1907  -16.8185   21.4698 H   0  0  0  0  0  0
  -26.8677  -22.1272   19.3372 H   0  0  0  0  0  0
  -27.9036  -23.6378   23.2490 H   0  0  0  0  0  0
  -29.4622  -24.0204   23.9282 H   0  0  0  0  0  0
  -29.9758  -25.4200   21.8649 H   0  0  0  0  0  0
  -28.6584  -26.0332   22.8350 H   0  0  0  0  0  0
  -29.4585  -21.8400   22.7544 H   0  0  0  0  0  0
  -30.6475  -22.9461   22.1141 H   0  0  0  0  0  0
  -27.0235  -25.2214   21.4392 H   0  0  0  0  0  0
  -27.1594  -18.8428   20.9622 H   0  0  0  0  0  0
  -27.5203  -17.1903   20.6423 H   0  0  0  0  0  0
  -27.5741  -18.3712   19.3117 H   0  0  0  0  0  0
  -25.3029  -24.5861   20.1500 H   0  0  0  0  0  0
  -24.7491  -22.9981   19.7271 H   0  0  0  0  0  0
  -25.3684  -24.0221   18.4485 H   0  0  0  0  0  0
  -27.8133  -20.8936   20.9823 H   0  0  0  0  0  0
  -28.6163  -20.9981   19.4235 H   0  0  0  0  0  0
  -29.3988  -15.0803   18.2706 H   0  0  0  0  0  0
  -28.2889  -16.2294   18.8300 H   0  0  0  0  0  0
  -30.0151  -18.0732   18.1748 H   0  0  0  0  0  0
  -29.4738  -17.0591   16.8718 H   0  0  0  0  0  0
  -29.8714  -22.7726   20.2190 H   0  0  0  0  0  0
  1 25  1  0  0  0
  1 30  2  0  0  0
  1 88  1  0  0  0
  2  3  1  0  0  0
  2 25  1  0  0  0
  2 91  1  0  0  0
  2 92  1  0  0  0
  3  4  1  0  0  0
  3 93  1  0  0  0
  3 94  1  0  0  0
  4  5  1  0  0  0
  4 95  1  0  0  0
  4 96  1  0  0  0
  5  6  1  0  0  0
  5 26  1  0  0  0
  5 97  1  0  0  0
  6 25  1  0  0  0
  6 98  1  0  0  0
  6 99  1  0  0  0
  7  8  2  0  0  0
  7 26  1  0  0  0
  7 29  1  0  0  0
  8  9  1  0  0  0
  8 22  1  0  0  0
  9 10  1  0  0  0
  9 27  2  0  0  0
 10 11  2  0  0  0
 10 15  1  0  0  0
 11 12  1  0  0  0
 11100  1  0  0  0
 12 13  2  0  0  0
 12101  1  0  0  0
 13 14  1  0  0  0
 13 31  1  0  0  0
 14 15  2  0  0  0
 14102  1  0  0  0
 15103  1  0  0  0
 16 17  2  0  0  0
 16 21  1  0  0  0
 16 31  1  0  0  0
 17 18  1  0  0  0
 17104  1  0  0  0
 18 19  2  0  0  0
 18105  1  0  0  0
 19 20  1  0  0  0
 19 24  1  0  0  0
 20 21  2  0  0  0
 20106  1  0  0  0
 21 23  1  0  0  0
 22 28  1  0  0  0
 22 32  2  0  0  0
 26 27  1  0  0  0
 28107  1  0  0  0
 28108  1  0  0  0
 29109  1  0  0  0
 29110  1  0  0  0
 33 34  1  0  0  0
 33 66  1  0  0  0
 33 70  2  0  0  0
 34 36  1  0  0  0
 34 59  1  0  0  0
 34111  1  0  0  0
 35 44  2  0  0  0
 35 45  1  0  0  0
 35 68  1  0  0  0
 36 56  1  0  0  0
 36112  1  0  0  0
 37 39  1  0  0  0
 37 47  1  0  0  0
 37 66  1  0  0  0
 37113  1  0  0  0
 38 43  2  0  0  0
 38 46  1  0  0  0
 38 47  1  0  0  0
 39 64  1  0  0  0
 39 67  2  0  0  0
 40 52  1  0  0  0
 40 53  2  0  0  0
 40 58  1  0  0  0
 41114  1  0  0  0
 41115  1  0  0  0
 41116  1  0  0  0
 41 48  1  0  0  0
 42 43  1  0  0  0
 42 66  1  0  0  0
 42117  1  0  0  0
 42118  1  0  0  0
 43 44  1  0  0  0
 44119  1  0  0  0
 45 46  2  0  0  0
 45120  1  0  0  0
 46121  1  0  0  0
 47122  1  0  0  0
 47123  1  0  0  0
 48 56  1  0  0  0
 48 65  1  0  0  0
 48124  1  0  0  0
 49 50  1  0  0  0
 49 53  1  0  0  0
 49 64  1  0  0  0
 49125  1  0  0  0
 50 51  1  0  0  0
 50126  1  0  0  0
 50127  1  0  0  0
 51 52  1  0  0  0
 51128  1  0  0  0
 51129  1  0  0  0
 52130  1  0  0  0
 52131  1  0  0  0
 53 54  1  0  0  0
 54 55  2  0  0  0
 54132  1  0  0  0
 55 57  1  0  0  0
 55133  1  0  0  0
 56 69  2  0  0  0
 57 58  2  0  0  0
 57134  1  0  0  0
 58135  1  0  0  0
 59 60  1  0  0  0
 59 61  1  0  0  0
 59 62  1  0  0  0
 60136  1  0  0  0
 60137  1  0  0  0
 60138  1  0  0  0
 61139  1  0  0  0
 61140  1  0  0  0
 61141  1  0  0  0
 62142  1  0  0  0
 62143  1  0  0  0
 62144  1  0  0  0
 63 65  1  0  0  0
 63145  1  0  0  0
 63146  1  0  0  0
 63147  1  0  0  0
 64148  1  0  0  0
 65149  1  0  0  0
 68 82  1  0  0  0
 71 72  2  0  0  0
 71 73  1  0  0  0
 71150  1  0  0  0
 72 74  1  0  0  0
 72151  1  0  0  0
 73 76  2  0  0  0
 73152  1  0  0  0
 74 75  2  0  0  0
 74 85  1  0  0  0
 75 76  1  0  0  0
 75 83  1  0  0  0
 76 88  1  0  0  0
 77 78  2  0  0  0
 77 82  1  0  0  0
 77 89  1  0  0  0
 78 84  1  0  0  0
 78153  1  0  0  0
 79 80  1  0  0  0
 79 81  1  0  0  0
 79154  1  0  0  0
 79155  1  0  0  0
 80 82  1  0  0  0
 80156  1  0  0  0
 80157  1  0  0  0
 81 89  1  0  0  0
 81158  1  0  0  0
 81159  1  0  0  0
 82160  1  0  0  0
 83161  1  0  0  0
 83162  1  0  0  0
 83163  1  0  0  0
 84164  1  0  0  0
 84165  1  0  0  0
 84166  1  0  0  0
 85167  1  0  0  0
 85168  1  0  0  0
 85 89  1  0  0  0
 86 87  1  0  0  0
 86 88  1  0  0  0
 86169  1  0  0  0
 86170  1  0  0  0
 87 90  1  0  0  0
 87171  1  0  0  0
 87172  1  0  0  0
 89173  1  0  0  0
M  CHG  1  89   1
M  ISO  4   1 100  68 101  82 101  88 100
M  END
> <chiral flag>
0

> <version>
0

> <s_m_source_file>
/data/baiqing/PycharmProjects/Reinvent-master-3.2/result/LINK_invent/BTK/process_docking_weight1_custom_product_contain_oxygen_bond_distance_aromatic_linkinvent_7_9_3/rearranged_h_0037.sdf

> <i_m_source_file_index>
54

> <r_mmod_Potential_Energy-OPLS-2005>
403.256805419922

> <r_mmod_Stretch_Energy-OPLS-2005>
147.635787963867

> <r_mmod_Bend_Energy-OPLS-2005>
206.362579345703

> <r_mmod_Torsional_Energy-OPLS-2005>
382.993591308594

> <r_mmod_Improper_Torsional_Energy-OPLS-2005>
16.434606552124

> <r_mmod_Van_der_Waal_Energy-OPLS-2005>
173.689956665039

> <r_mmod_Electrostatic_Energy-OPLS-2005>
-186.377105712891

> <r_mmod_Solvation_Energy-OPLS-2005>
-438.359771728516

> <b_mmod_Minimization_Converged-OPLS-2005>
0

> <r_mmod_RMS_Derivative-OPLS-2005>
2.41409873962402

$$$$
54
                    3D
 Structure written by MMmdl.
170179  0  0  1  0            999 V2000
  -30.6529  -14.7186   20.4506 C   0  0  0  0  0  0
  -30.4179  -12.4341   19.4764 C   0  0  0  0  0  0
  -29.5038  -12.4982   18.2352 C   0  0  0  0  0  0
  -28.0302  -12.3321   18.6492 C   0  0  0  0  0  0
  -27.6394  -13.2366   19.8493 C   0  0  2  0  0  0
  -28.6850  -13.1821   20.9850 C   0  0  0  0  0  0
  -25.2499  -13.8211   20.5713 C   0  0  0  0  0  0
  -24.1798  -13.0443   20.9221 C   0  0  0  0  0  0
  -24.6399  -11.6923   20.8759 C   0  0  0  0  0  0
  -23.9083  -10.4291   21.0411 C   0  0  0  0  0  0
  -24.3633   -9.4204   21.9185 C   0  0  0  0  0  0
  -23.6301   -8.2245   22.0759 C   0  0  0  0  0  0
  -22.4281   -8.0288   21.3552 C   0  0  0  0  0  0
  -21.9921   -9.0261   20.4654 C   0  0  0  0  0  0
  -22.7259  -10.2133   20.3060 C   0  0  0  0  0  0
  -21.6854   -6.0742   22.5281 C   0  0  0  0  0  0
  -21.4015   -6.5645   23.8217 C   0  0  0  0  0  0
  -21.3658   -5.6796   24.9175 C   0  0  0  0  0  0
  -21.6040   -4.3060   24.7222 C   0  0  0  0  0  0
  -21.8819   -3.8152   23.4345 C   0  0  0  0  0  0
  -21.9196   -4.6969   22.3403 C   0  0  0  0  0  0
  -22.7814  -13.5216   21.1867 C   0  0  0  0  0  0
  -22.1660   -4.2156   21.0980 F   0  0  0  0  0  0
  -21.5630   -3.4545   25.7735 F   0  0  0  0  0  0
  -29.9872  -13.5144   20.3963 N   0  0  0  0  0  0
  -26.2933  -12.9430   20.3300 N   0  0  0  0  0  0
  -25.9329  -11.6567   20.5765 N   0  0  0  0  0  0
  -22.0464  -12.8208   22.0425 N   0  0  0  0  0  0
  -25.4169  -15.1937   20.4113 N   0  0  0  0  0  0
  -31.8440  -14.7343   20.1368 O   0  0  0  0  0  0
  -21.6646   -6.8883   21.4244 O   0  0  0  0  0  0
  -22.3496  -14.5518   20.6712 O   0  0  0  0  0  0
  -24.6308  -31.8549   23.1995 C   0  0  0  0  0  0
  -25.9138  -32.4747   23.8328 C   0  0  1  0  0  0
  -27.2226  -27.2705   20.1159 C   0  0  0  0  0  0
  -25.5937  -33.8549   24.2250 N   0  0  0  0  0  0
  -23.4262  -30.4787   21.5432 C   0  0  2  0  0  0
  -24.8698  -28.9262   20.1131 C   0  0  0  0  0  0
  -22.7496  -29.4604   22.4924 C   0  0  0  0  0  0
  -18.0289  -28.1383   22.8490 C   0  0  0  0  0  0
  -24.1489  -36.7277   23.2643 C   0  0  0  0  0  0
  -25.9720  -30.7701   21.3777 C   0  0  0  0  0  0
  -26.0416  -29.3940   20.7178 C   0  0  0  0  0  0
  -27.2162  -28.5783   20.7091 C   0  0  0  0  0  0
  -26.0173  -26.8620   19.4980 C   0  0  0  0  0  0
  -24.8627  -27.6671   19.4960 C   0  0  0  0  0  0
  -23.6421  -29.8128   20.1592 C   0  0  0  0  0  0
  -25.4113  -36.3061   24.0326 C   0  0  1  0  0  0
  -20.5897  -28.3687   23.1278 C   0  0  2  0  0  0
  -20.6773  -26.9401   22.5417 C   0  0  0  0  0  0
  -19.5742  -26.6373   21.5228 C   0  0  0  0  0  0
  -18.1924  -26.7923   22.1634 C   0  0  0  0  0  0
  -19.1547  -28.8852   23.2876 C   0  0  0  0  0  0
  -18.9463  -30.1455   23.8881 C   0  0  0  0  0  0
  -17.6463  -30.6579   24.0568 C   0  0  0  0  0  0
  -25.9049  -34.9436   23.5084 C   0  0  0  0  0  0
  -16.5353  -29.9074   23.6342 C   0  0  0  0  0  0
  -16.7274  -28.6500   23.0348 C   0  0  0  0  0  0
  -26.4506  -31.6576   25.0718 C   0  0  0  0  0  0
  -25.3728  -31.3735   26.1438 C   0  0  0  0  0  0
  -27.0363  -30.2992   24.6214 C   0  0  0  0  0  0
  -27.6049  -32.4330   25.7488 C   0  0  0  0  0  0
  -27.5572  -37.1793   24.8464 C   0  0  0  0  0  0
  -21.4207  -29.3041   22.3676 N   0  0  0  0  0  0
  -26.4281  -37.3767   23.9411 N   0  0  0  0  0  0
  -24.6955  -31.0526   22.0963 N   0  0  0  0  0  0
  -23.4206  -28.8137   23.3011 O   0  0  0  0  0  0
  -28.3538  -26.4239   20.1845 O   0  0  0  0  0  0
  -26.5628  -34.8919   22.4657 O   0  0  0  0  0  0
  -23.5461  -32.1359   23.7302 O   0  0  0  0  0  0
  -31.7106  -17.6779   20.3980 C   0  0  0  0  0  0
  -29.4496  -18.4745   20.6599 C   0  0  0  0  0  0
  -32.1715  -19.0090   20.3848 C   0  0  0  0  0  0
  -29.8784  -19.8719   20.6496 C   0  0  0  0  0  0
  -31.2838  -20.1009   20.5658 C   0  0  0  0  0  0
  -30.3494  -17.3342   20.5643 C   0  0  0  0  0  0
  -28.3480  -23.8137   20.7033 C   0  0  0  0  0  0
  -27.7657  -24.0006   21.9087 C   0  0  0  0  0  0
  -29.7776  -23.5564   18.0595 C   0  0  0  0  0  0
  -29.6809  -24.8993   18.8174 C   0  0  0  0  0  0
  -29.0508  -22.3747   18.7452 C   0  0  0  0  0  0
  -28.4061  -25.0135   19.6639 C   0  0  2  0  0  0
  -33.6664  -19.2288   20.1902 C   0  0  0  0  0  0
  -31.8781  -21.5033   20.7122 C   0  0  0  0  0  0
  -27.6073  -23.0500   23.0769 C   0  0  0  0  0  0
  -28.8712  -21.0970   20.8820 C   0  0  0  0  0  0
  -29.9337  -15.8980   20.6420 N   0  0  0  0  0  0
  -29.0826  -22.4829   20.2234 N   0  3  2  0  0  0
  -31.4634  -12.5224   19.1772 H   0  0  0  0  0  0
  -30.3356  -11.4627   19.9662 H   0  0  0  0  0  0
  -29.7817  -11.7224   17.5205 H   0  0  0  0  0  0
  -29.6392  -13.4516   17.7222 H   0  0  0  0  0  0
  -27.8838  -11.2842   18.9125 H   0  0  0  0  0  0
  -27.3728  -12.5246   17.8008 H   0  0  0  0  0  0
  -27.6297  -14.2565   19.4642 H   0  0  0  0  0  0
  -28.7126  -12.1917   21.4419 H   0  0  0  0  0  0
  -28.4282  -13.8808   21.7826 H   0  0  0  0  0  0
  -25.2772   -9.5682   22.4766 H   0  0  0  0  0  0
  -24.0013   -7.4632   22.7475 H   0  0  0  0  0  0
  -21.0859   -8.8781   19.8948 H   0  0  0  0  0  0
  -22.3722  -10.9676   19.6176 H   0  0  0  0  0  0
  -21.2005   -7.6153   23.9721 H   0  0  0  0  0  0
  -21.1480   -6.0525   25.9078 H   0  0  0  0  0  0
  -22.0599   -2.7617   23.2842 H   0  0  0  0  0  0
  -22.4092  -11.9870   22.4808 H   0  0  0  0  0  0
  -21.1079  -13.1229   22.2623 H   0  0  0  0  0  0
  -24.6469  -15.8444   20.5210 H   0  0  0  0  0  0
  -26.2584  -15.6341   20.0627 H   0  0  0  0  0  0
  -26.7204  -32.5382   23.1070 H   0  0  0  0  0  0
  -25.0108  -33.9683   25.0412 H   0  0  0  0  0  0
  -22.7232  -31.3009   21.3976 H   0  0  0  0  0  0
  -23.3753  -35.9607   23.3301 H   0  0  0  0  0  0
  -24.3582  -36.8900   22.2058 H   0  0  0  0  0  0
  -23.7242  -37.6474   23.6672 H   0  0  0  0  0  0
  -26.1130  -31.5312   20.6090 H   0  0  0  0  0  0
  -26.8497  -30.8146   22.0109 H   0  0  0  0  0  0
  -28.1138  -28.9352   21.1939 H   0  0  0  0  0  0
  -25.9056  -25.9008   19.0269 H   0  0  0  0  0  0
  -23.9618  -27.2976   19.0262 H   0  0  0  0  0  0
  -23.7699  -30.5883   19.4029 H   0  0  0  0  0  0
  -22.7599  -29.2482   19.8523 H   0  0  0  0  0  0
  -25.1306  -36.1900   25.0819 H   0  0  0  0  0  0
  -20.9994  -28.3251   24.1399 H   0  0  0  0  0  0
  -20.5685  -26.2287   23.3620 H   0  0  0  0  0  0
  -21.6630  -26.7425   22.1196 H   0  0  0  0  0  0
  -19.6897  -25.6289   21.1239 H   0  0  0  0  0  0
  -19.6668  -27.3199   20.6774 H   0  0  0  0  0  0
  -17.4196  -26.6687   21.4032 H   0  0  0  0  0  0
  -18.0304  -26.0061   22.9024 H   0  0  0  0  0  0
  -19.7937  -30.7292   24.2220 H   0  0  0  0  0  0
  -17.5009  -31.6258   24.5170 H   0  0  0  0  0  0
  -15.5349  -30.2972   23.7671 H   0  0  0  0  0  0
  -15.8675  -28.0825   22.7054 H   0  0  0  0  0  0
  -24.5907  -30.7076   25.7780 H   0  0  0  0  0  0
  -24.8917  -32.2906   26.4843 H   0  0  0  0  0  0
  -25.8040  -30.8930   27.0226 H   0  0  0  0  0  0
  -26.2952  -29.6724   24.1238 H   0  0  0  0  0  0
  -27.4050  -29.7273   25.4742 H   0  0  0  0  0  0
  -27.8829  -30.4277   23.9465 H   0  0  0  0  0  0
  -27.2649  -33.3650   26.2018 H   0  0  0  0  0  0
  -28.3877  -32.6852   25.0322 H   0  0  0  0  0  0
  -28.0697  -31.8481   26.5436 H   0  0  0  0  0  0
  -28.2587  -38.0096   24.7517 H   0  0  0  0  0  0
  -28.1066  -36.2621   24.6279 H   0  0  0  0  0  0
  -27.2282  -37.1431   25.8867 H   0  0  0  0  0  0
  -20.9384  -29.8768   21.6891 H   0  0  0  0  0  0
  -26.0150  -38.2832   24.1428 H   0  0  0  0  0  0
  -32.4695  -16.9217   20.2988 H   0  0  0  0  0  0
  -28.3941  -18.2742   20.7835 H   0  0  0  0  0  0
  -27.3431  -24.9786   22.0952 H   0  0  0  0  0  0
  -30.8301  -23.3139   17.9071 H   0  0  0  0  0  0
  -29.3638  -23.6740   17.0571 H   0  0  0  0  0  0
  -29.7332  -25.7210   18.1028 H   0  0  0  0  0  0
  -30.5475  -25.0195   19.4693 H   0  0  0  0  0  0
  -29.4975  -21.4388   18.4083 H   0  0  0  0  0  0
  -28.0078  -22.3388   18.4262 H   0  0  0  0  0  0
  -27.5960  -24.8333   18.9659 H   0  0  0  0  0  0
  -34.1625  -18.3286   19.8275 H   0  0  0  0  0  0
  -34.1439  -19.5109   21.1291 H   0  0  0  0  0  0
  -33.8534  -20.0094   19.4519 H   0  0  0  0  0  0
  -32.8976  -21.4822   21.0952 H   0  0  0  0  0  0
  -31.3373  -22.1069   21.4388 H   0  0  0  0  0  0
  -31.9077  -22.0176   19.7517 H   0  0  0  0  0  0
  -27.0719  -22.1459   22.7874 H   0  0  0  0  0  0
  -27.0148  -23.5310   23.8556 H   0  0  0  0  0  0
  -28.5718  -22.7985   23.5181 H   0  0  0  0  0  0
  -28.9341  -21.2255   21.9568 H   0  0  0  0  0  0
  -27.8536  -20.7646   20.6738 H   0  0  0  0  0  0
  -28.9541  -15.7460   20.8296 H   0  0  0  0  0  0
  -30.0603  -22.6323   20.4219 H   0  0  0  0  0  0
  1 25  1  0  0  0
  1 30  2  0  0  0
  1 87  1  0  0  0
  2  3  1  0  0  0
  2 25  1  0  0  0
  2 89  1  0  0  0
  2 90  1  0  0  0
  3  4  1  0  0  0
  3 91  1  0  0  0
  3 92  1  0  0  0
  4  5  1  0  0  0
  4 93  1  0  0  0
  4 94  1  0  0  0
  5  6  1  0  0  0
  5 26  1  0  0  0
  5 95  1  0  0  0
  6 25  1  0  0  0
  6 96  1  0  0  0
  6 97  1  0  0  0
  7  8  2  0  0  0
  7 26  1  0  0  0
  7 29  1  0  0  0
  8  9  1  0  0  0
  8 22  1  0  0  0
  9 10  1  0  0  0
  9 27  2  0  0  0
 10 11  2  0  0  0
 10 15  1  0  0  0
 11 12  1  0  0  0
 11 98  1  0  0  0
 12 13  2  0  0  0
 12 99  1  0  0  0
 13 14  1  0  0  0
 13 31  1  0  0  0
 14 15  2  0  0  0
 14100  1  0  0  0
 15101  1  0  0  0
 16 17  2  0  0  0
 16 21  1  0  0  0
 16 31  1  0  0  0
 17 18  1  0  0  0
 17102  1  0  0  0
 18 19  2  0  0  0
 18103  1  0  0  0
 19 20  1  0  0  0
 19 24  1  0  0  0
 20 21  2  0  0  0
 20104  1  0  0  0
 21 23  1  0  0  0
 22 28  1  0  0  0
 22 32  2  0  0  0
 26 27  1  0  0  0
 28105  1  0  0  0
 28106  1  0  0  0
 29107  1  0  0  0
 29108  1  0  0  0
 33 34  1  0  0  0
 33 66  1  0  0  0
 33 70  2  0  0  0
 34 36  1  0  0  0
 34 59  1  0  0  0
 34109  1  0  0  0
 35 44  2  0  0  0
 35 45  1  0  0  0
 35 68  1  0  0  0
 36 56  1  0  0  0
 36110  1  0  0  0
 37 39  1  0  0  0
 37 47  1  0  0  0
 37 66  1  0  0  0
 37111  1  0  0  0
 38 43  2  0  0  0
 38 46  1  0  0  0
 38 47  1  0  0  0
 39 64  1  0  0  0
 39 67  2  0  0  0
 40 52  1  0  0  0
 40 53  2  0  0  0
 40 58  1  0  0  0
 41112  1  0  0  0
 41113  1  0  0  0
 41114  1  0  0  0
 41 48  1  0  0  0
 42 43  1  0  0  0
 42 66  1  0  0  0
 42115  1  0  0  0
 42116  1  0  0  0
 43 44  1  0  0  0
 44117  1  0  0  0
 45 46  2  0  0  0
 45118  1  0  0  0
 46119  1  0  0  0
 47120  1  0  0  0
 47121  1  0  0  0
 48 56  1  0  0  0
 48 65  1  0  0  0
 48122  1  0  0  0
 49 50  1  0  0  0
 49 53  1  0  0  0
 49 64  1  0  0  0
 49123  1  0  0  0
 50 51  1  0  0  0
 50124  1  0  0  0
 50125  1  0  0  0
 51 52  1  0  0  0
 51126  1  0  0  0
 51127  1  0  0  0
 52128  1  0  0  0
 52129  1  0  0  0
 53 54  1  0  0  0
 54 55  2  0  0  0
 54130  1  0  0  0
 55 57  1  0  0  0
 55131  1  0  0  0
 56 69  2  0  0  0
 57 58  2  0  0  0
 57132  1  0  0  0
 58133  1  0  0  0
 59 60  1  0  0  0
 59 61  1  0  0  0
 59 62  1  0  0  0
 60134  1  0  0  0
 60135  1  0  0  0
 60136  1  0  0  0
 61137  1  0  0  0
 61138  1  0  0  0
 61139  1  0  0  0
 62140  1  0  0  0
 62141  1  0  0  0
 62142  1  0  0  0
 63 65  1  0  0  0
 63143  1  0  0  0
 63144  1  0  0  0
 63145  1  0  0  0
 64146  1  0  0  0
 65147  1  0  0  0
 68 82  1  0  0  0
 71 73  2  0  0  0
 71 76  1  0  0  0
 71148  1  0  0  0
 72 74  1  0  0  0
 72 76  2  0  0  0
 72149  1  0  0  0
 73 75  1  0  0  0
 73 83  1  0  0  0
 74 75  2  0  0  0
 74 86  1  0  0  0
 75 84  1  0  0  0
 76 87  1  0  0  0
 77 78  2  0  0  0
 77 82  1  0  0  0
 77 88  1  0  0  0
 78 85  1  0  0  0
 78150  1  0  0  0
 79 80  1  0  0  0
 79 81  1  0  0  0
 79151  1  0  0  0
 79152  1  0  0  0
 80 82  1  0  0  0
 80153  1  0  0  0
 80154  1  0  0  0
 81 88  1  0  0  0
 81155  1  0  0  0
 81156  1  0  0  0
 82157  1  0  0  0
 83158  1  0  0  0
 83159  1  0  0  0
 83160  1  0  0  0
 84161  1  0  0  0
 84162  1  0  0  0
 84163  1  0  0  0
 85164  1  0  0  0
 85165  1  0  0  0
 85166  1  0  0  0
 86167  1  0  0  0
 86168  1  0  0  0
 86 88  1  0  0  0
 87169  1  0  0  0
 88170  1  0  0  0
M  CHG  1  88   1
M  ISO  4   1 100  68 101  82 101  87 100
M  END
> <chiral flag>
0

> <version>
0

> <s_m_source_file>
/data/baiqing/PycharmProjects/Reinvent-master-3.2/result/LINK_invent/BTK/process_docking_weight1_custom_product_contain_oxygen_bond_distance_aromatic_linkinvent_7_9_3/rearranged_h_0037.sdf

> <i_m_source_file_index>
55

> <r_mmod_Potential_Energy-OPLS-2005>
102.948333740234

> <r_mmod_Stretch_Energy-OPLS-2005>
138.765716552734

> <r_mmod_Bend_Energy-OPLS-2005>
195.647644042969

> <r_mmod_Torsional_Energy-OPLS-2005>
238.404159545898

> <r_mmod_Improper_Torsional_Energy-OPLS-2005>
5.3222599029541

> <r_mmod_Van_der_Waal_Energy-OPLS-2005>
163.986068725586

> <r_mmod_Electrostatic_Energy-OPLS-2005>
-290.578826904297

> <r_mmod_Solvation_Energy-OPLS-2005>
-423.595184326172

> <b_mmod_Minimization_Converged-OPLS-2005>
0

> <r_mmod_RMS_Derivative-OPLS-2005>
1.25006425380707

$$$$
55
                    3D
 Structure written by MMmdl.
175184  0  0  1  0            999 V2000
  -30.4776  -14.7077   20.5815 C   0  0  0  0  0  0
  -30.4556  -12.4669   19.4189 C   0  0  0  0  0  0
  -29.5096  -12.5692   18.1949 C   0  0  0  0  0  0
  -28.0214  -12.3810   18.5858 C   0  0  0  0  0  0
  -27.6341  -13.2015   19.8461 C   0  0  2  0  0  0
  -28.6819  -12.9815   20.9573 C   0  0  0  0  0  0
  -25.2421  -13.8045   20.5423 C   0  0  0  0  0  0
  -24.1735  -13.0385   20.9136 C   0  0  0  0  0  0
  -24.6289  -11.6847   20.8722 C   0  0  0  0  0  0
  -23.8957  -10.4270   21.0441 C   0  0  0  0  0  0
  -24.3573   -9.4195   21.9187 C   0  0  0  0  0  0
  -23.6262   -8.2221   22.0739 C   0  0  0  0  0  0
  -22.4221   -8.0262   21.3551 C   0  0  0  0  0  0
  -21.9865   -9.0233   20.4625 C   0  0  0  0  0  0
  -22.7170  -10.2116   20.3036 C   0  0  0  0  0  0
  -21.6814   -6.0709   22.5273 C   0  0  0  0  0  0
  -21.3987   -6.5592   23.8229 C   0  0  0  0  0  0
  -21.3684   -5.6734   24.9172 C   0  0  0  0  0  0
  -21.6075   -4.3000   24.7236 C   0  0  0  0  0  0
  -21.8805   -3.8113   23.4330 C   0  0  0  0  0  0
  -21.9175   -4.6922   22.3382 C   0  0  0  0  0  0
  -22.7784  -13.5266   21.1845 C   0  0  0  0  0  0
  -22.1598   -4.2116   21.0950 F   0  0  0  0  0  0
  -21.5660   -3.4504   25.7762 F   0  0  0  0  0  0
  -29.9774  -13.4336   20.4328 N   0  0  0  0  0  0
  -26.2844  -12.9189   20.3138 N   0  0  0  0  0  0
  -25.9234  -11.6370   20.5702 N   0  0  0  0  0  0
  -22.0360  -12.8296   22.0360 N   0  0  0  0  0  0
  -25.4000  -15.1745   20.3611 N   0  0  0  0  0  0
  -31.6417  -14.9687   20.2575 O   0  0  0  0  0  0
  -21.6571   -6.8877   21.4259 O   0  0  0  0  0  0
  -22.3562  -14.5684   20.6801 O   0  0  0  0  0  0
  -24.6285  -31.8547   23.1981 C   0  0  0  0  0  0
  -25.9116  -32.4749   23.8322 C   0  0  1  0  0  0
  -27.2331  -27.2466   20.1899 C   0  0  0  0  0  0
  -25.5912  -33.8548   24.2234 N   0  0  0  0  0  0
  -23.4284  -30.4738   21.5385 C   0  0  2  0  0  0
  -24.8898  -28.9152   20.1176 C   0  0  0  0  0  0
  -22.7480  -29.4593   22.4886 C   0  0  0  0  0  0
  -18.0272  -28.1403   22.8479 C   0  0  0  0  0  0
  -24.1483  -36.7259   23.2644 C   0  0  0  0  0  0
  -25.9728  -30.7737   21.3788 C   0  0  0  0  0  0
  -26.0573  -29.3911   20.7286 C   0  0  0  0  0  0
  -27.2345  -28.5734   20.7462 C   0  0  0  0  0  0
  -26.0516  -26.8457   19.5344 C   0  0  0  0  0  0
  -24.8945  -27.6535   19.5017 C   0  0  0  0  0  0
  -23.6566  -29.8035   20.1560 C   0  0  0  0  0  0
  -25.4111  -36.3044   24.0315 C   0  0  1  0  0  0
  -20.5875  -28.3707   23.1277 C   0  0  2  0  0  0
  -20.6765  -26.9427   22.5429 C   0  0  0  0  0  0
  -19.5754  -26.6390   21.5220 C   0  0  0  0  0  0
  -18.1922  -26.7941   22.1616 C   0  0  0  0  0  0
  -19.1528  -28.8866   23.2865 C   0  0  0  0  0  0
  -18.9462  -30.1461   23.8885 C   0  0  0  0  0  0
  -17.6471  -30.6605   24.0559 C   0  0  0  0  0  0
  -25.9062  -34.9423   23.5075 C   0  0  0  0  0  0
  -16.5353  -29.9106   23.6347 C   0  0  0  0  0  0
  -16.7259  -28.6525   23.0354 C   0  0  0  0  0  0
  -26.4489  -31.6570   25.0704 C   0  0  0  0  0  0
  -25.3710  -31.3741   26.1419 C   0  0  0  0  0  0
  -27.0372  -30.2980   24.6237 C   0  0  0  0  0  0
  -27.6018  -32.4328   25.7503 C   0  0  0  0  0  0
  -27.5564  -37.1775   24.8446 C   0  0  0  0  0  0
  -21.4183  -29.3024   22.3629 N   0  0  0  0  0  0
  -26.4254  -37.3769   23.9422 N   0  0  0  0  0  0
  -24.6941  -31.0530   22.0952 N   0  0  0  0  0  0
  -23.4179  -28.8137   23.2986 O   0  0  0  0  0  0
  -28.3169  -26.3318   20.2502 O   0  0  0  0  0  0
  -26.5641  -34.8899   22.4652 O   0  0  0  0  0  0
  -23.5437  -32.1354   23.7286 O   0  0  0  0  0  0
  -27.7019  -18.2676   22.8017 C   0  0  0  0  0  0
  -27.8910  -19.4618   22.0923 C   0  0  0  0  0  0
  -28.3569  -17.0749   22.4614 C   0  0  0  0  0  0
  -28.8635  -19.5565   21.0551 C   0  0  0  0  0  0
  -29.5243  -18.2855   20.6827 C   0  0  0  0  0  0
  -29.2552  -17.0193   21.3598 C   0  0  0  0  0  0
  -29.1559  -23.6247   24.0894 C   0  0  0  0  0  0
  -27.9094  -24.1998   23.3977 C   0  0  0  0  0  0
  -30.3450  -23.3041   23.1671 C   0  0  0  0  0  0
  -28.2270  -25.3373   22.4163 C   0  0  0  0  0  0
  -30.1266  -22.1304   22.2068 C   0  0  0  0  0  0
  -29.0463  -23.6789   20.4435 C   0  0  0  0  0  0
  -28.1299  -24.9755   20.9147 C   0  0  2  0  0  0
  -26.9796  -20.6168   22.4927 C   0  0  0  0  0  0
  -27.9564  -15.8345   23.2565 C   0  0  0  0  0  0
  -30.4402  -18.2360   19.4718 C   0  0  0  0  0  0
  -29.0526  -20.9891   20.3345 C   0  0  0  0  0  0
  -29.4821  -15.6310   20.8791 N   0  0  0  0  0  0
  -29.0502  -22.2898   21.1760 N   0  3  1  0  0  0
  -31.4867  -12.6737   19.1262 H   0  0  0  0  0  0
  -30.4611  -11.4500   19.8141 H   0  0  0  0  0  0
  -29.7986  -11.8530   17.4247 H   0  0  0  0  0  0
  -29.6342  -13.5536   17.7395 H   0  0  0  0  0  0
  -27.8360  -11.3209   18.7561 H   0  0  0  0  0  0
  -27.3881  -12.6642   17.7437 H   0  0  0  0  0  0
  -27.6450  -14.2479   19.5420 H   0  0  0  0  0  0
  -28.7298  -11.9200   21.2086 H   0  0  0  0  0  0
  -28.4119  -13.4827   21.8846 H   0  0  0  0  0  0
  -25.2774   -9.5748   22.4666 H   0  0  0  0  0  0
  -24.0054   -7.4630   22.7428 H   0  0  0  0  0  0
  -21.0830   -8.8744   19.8884 H   0  0  0  0  0  0
  -22.3667  -10.9632   19.6073 H   0  0  0  0  0  0
  -21.1878   -7.6090   23.9735 H   0  0  0  0  0  0
  -21.1560   -6.0433   25.9103 H   0  0  0  0  0  0
  -22.0570   -2.7586   23.2797 H   0  0  0  0  0  0
  -22.3993  -12.0100   22.4983 H   0  0  0  0  0  0
  -21.0940  -13.1360   22.2429 H   0  0  0  0  0  0
  -24.6111  -15.8033   20.4619 H   0  0  0  0  0  0
  -26.2239  -15.6399   20.0013 H   0  0  0  0  0  0
  -26.7181  -32.5433   23.1070 H   0  0  0  0  0  0
  -25.0017  -33.9696   25.0345 H   0  0  0  0  0  0
  -22.7230  -31.2927   21.3875 H   0  0  0  0  0  0
  -23.3761  -35.9574   23.3274 H   0  0  0  0  0  0
  -24.3580  -36.8930   22.2067 H   0  0  0  0  0  0
  -23.7214  -37.6432   23.6708 H   0  0  0  0  0  0
  -26.1105  -31.5412   20.6144 H   0  0  0  0  0  0
  -26.8466  -30.8277   22.0162 H   0  0  0  0  0  0
  -28.1227  -28.9411   21.2397 H   0  0  0  0  0  0
  -26.0137  -25.8748   19.0623 H   0  0  0  0  0  0
  -24.0041  -27.2836   19.0134 H   0  0  0  0  0  0
  -23.7827  -30.5807   19.3997 H   0  0  0  0  0  0
  -22.7769  -29.2357   19.8452 H   0  0  0  0  0  0
  -25.1303  -36.1868   25.0804 H   0  0  0  0  0  0
  -20.9960  -28.3302   24.1401 H   0  0  0  0  0  0
  -20.5679  -26.2311   23.3628 H   0  0  0  0  0  0
  -21.6635  -26.7465   22.1217 H   0  0  0  0  0  0
  -19.6926  -25.6296   21.1264 H   0  0  0  0  0  0
  -19.6712  -27.3180   20.6737 H   0  0  0  0  0  0
  -17.4200  -26.6668   21.4008 H   0  0  0  0  0  0
  -18.0321  -26.0092   22.9024 H   0  0  0  0  0  0
  -19.7943  -30.7262   24.2251 H   0  0  0  0  0  0
  -17.5044  -31.6288   24.5165 H   0  0  0  0  0  0
  -15.5361  -30.3014   23.7703 H   0  0  0  0  0  0
  -15.8639  -28.0858   22.7085 H   0  0  0  0  0  0
  -24.5846  -30.7144   25.7726 H   0  0  0  0  0  0
  -24.8952  -32.2938   26.4836 H   0  0  0  0  0  0
  -25.8005  -30.8891   27.0196 H   0  0  0  0  0  0
  -26.2994  -29.6697   24.1238 H   0  0  0  0  0  0
  -27.4000  -29.7265   25.4793 H   0  0  0  0  0  0
  -27.8880  -30.4214   23.9531 H   0  0  0  0  0  0
  -27.2591  -33.3627   26.2048 H   0  0  0  0  0  0
  -28.3860  -32.6903   25.0372 H   0  0  0  0  0  0
  -28.0653  -31.8486   26.5463 H   0  0  0  0  0  0
  -28.2532  -38.0125   24.7564 H   0  0  0  0  0  0
  -28.1106  -36.2651   24.6177 H   0  0  0  0  0  0
  -27.2291  -37.1300   25.8850 H   0  0  0  0  0  0
  -20.9352  -29.8731   21.6829 H   0  0  0  0  0  0
  -26.0114  -38.2818   24.1510 H   0  0  0  0  0  0
  -26.9750  -18.2516   23.6035 H   0  0  0  0  0  0
  -28.8820  -22.7423   24.6694 H   0  0  0  0  0  0
  -29.4980  -24.3582   24.8198 H   0  0  0  0  0  0
  -27.2494  -24.5807   24.1785 H   0  0  0  0  0  0
  -27.3148  -23.4350   22.9043 H   0  0  0  0  0  0
  -31.1785  -23.0297   23.8170 H   0  0  0  0  0  0
  -30.6976  -24.1825   22.6267 H   0  0  0  0  0  0
  -29.1905  -25.7942   22.6370 H   0  0  0  0  0  0
  -27.5083  -26.1304   22.6216 H   0  0  0  0  0  0
  -29.9438  -21.2395   22.8117 H   0  0  0  0  0  0
  -31.0731  -21.9334   21.7024 H   0  0  0  0  0  0
  -30.0819  -24.0010   20.3532 H   0  0  0  0  0  0
  -28.7325  -23.4729   19.4209 H   0  0  0  0  0  0
  -27.0971  -24.6672   20.7532 H   0  0  0  0  0  0
  -26.0828  -20.2669   23.0026 H   0  0  0  0  0  0
  -26.6215  -21.1768   21.6306 H   0  0  0  0  0  0
  -27.4892  -21.2644   23.2000 H   0  0  0  0  0  0
  -27.5353  -16.1079   24.2255 H   0  0  0  0  0  0
  -28.8009  -15.1717   23.4544 H   0  0  0  0  0  0
  -27.1744  -15.2876   22.7282 H   0  0  0  0  0  0
  -29.8534  -18.2096   18.5546 H   0  0  0  0  0  0
  -31.0734  -17.3527   19.4886 H   0  0  0  0  0  0
  -31.1185  -19.0842   19.4312 H   0  0  0  0  0  0
  -28.2692  -21.0871   19.5804 H   0  0  0  0  0  0
  -29.9855  -20.9697   19.7700 H   0  0  0  0  0  0
  -28.6408  -15.0947   21.0119 H   0  0  0  0  0  0
  -28.1754  -22.2341   21.6765 H   0  0  0  0  0  0
  1 25  1  0  0  0
  1 30  2  0  0  0
  1 88  1  0  0  0
  2  3  1  0  0  0
  2 25  1  0  0  0
  2 90  1  0  0  0
  2 91  1  0  0  0
  3  4  1  0  0  0
  3 92  1  0  0  0
  3 93  1  0  0  0
  4  5  1  0  0  0
  4 94  1  0  0  0
  4 95  1  0  0  0
  5  6  1  0  0  0
  5 26  1  0  0  0
  5 96  1  0  0  0
  6 25  1  0  0  0
  6 97  1  0  0  0
  6 98  1  0  0  0
  7  8  2  0  0  0
  7 26  1  0  0  0
  7 29  1  0  0  0
  8  9  1  0  0  0
  8 22  1  0  0  0
  9 10  1  0  0  0
  9 27  2  0  0  0
 10 11  2  0  0  0
 10 15  1  0  0  0
 11 12  1  0  0  0
 11 99  1  0  0  0
 12 13  2  0  0  0
 12100  1  0  0  0
 13 14  1  0  0  0
 13 31  1  0  0  0
 14 15  2  0  0  0
 14101  1  0  0  0
 15102  1  0  0  0
 16 17  2  0  0  0
 16 21  1  0  0  0
 16 31  1  0  0  0
 17 18  1  0  0  0
 17103  1  0  0  0
 18 19  2  0  0  0
 18104  1  0  0  0
 19 20  1  0  0  0
 19 24  1  0  0  0
 20 21  2  0  0  0
 20105  1  0  0  0
 21 23  1  0  0  0
 22 28  1  0  0  0
 22 32  2  0  0  0
 26 27  1  0  0  0
 28106  1  0  0  0
 28107  1  0  0  0
 29108  1  0  0  0
 29109  1  0  0  0
 33 34  1  0  0  0
 33 66  1  0  0  0
 33 70  2  0  0  0
 34 36  1  0  0  0
 34 59  1  0  0  0
 34110  1  0  0  0
 35 44  2  0  0  0
 35 45  1  0  0  0
 35 68  1  0  0  0
 36 56  1  0  0  0
 36111  1  0  0  0
 37 39  1  0  0  0
 37 47  1  0  0  0
 37 66  1  0  0  0
 37112  1  0  0  0
 38 43  2  0  0  0
 38 46  1  0  0  0
 38 47  1  0  0  0
 39 64  1  0  0  0
 39 67  2  0  0  0
 40 52  1  0  0  0
 40 53  2  0  0  0
 40 58  1  0  0  0
 41113  1  0  0  0
 41114  1  0  0  0
 41115  1  0  0  0
 41 48  1  0  0  0
 42 43  1  0  0  0
 42 66  1  0  0  0
 42116  1  0  0  0
 42117  1  0  0  0
 43 44  1  0  0  0
 44118  1  0  0  0
 45 46  2  0  0  0
 45119  1  0  0  0
 46120  1  0  0  0
 47121  1  0  0  0
 47122  1  0  0  0
 48 56  1  0  0  0
 48 65  1  0  0  0
 48123  1  0  0  0
 49 50  1  0  0  0
 49 53  1  0  0  0
 49 64  1  0  0  0
 49124  1  0  0  0
 50 51  1  0  0  0
 50125  1  0  0  0
 50126  1  0  0  0
 51 52  1  0  0  0
 51127  1  0  0  0
 51128  1  0  0  0
 52129  1  0  0  0
 52130  1  0  0  0
 53 54  1  0  0  0
 54 55  2  0  0  0
 54131  1  0  0  0
 55 57  1  0  0  0
 55132  1  0  0  0
 56 69  2  0  0  0
 57 58  2  0  0  0
 57133  1  0  0  0
 58134  1  0  0  0
 59 60  1  0  0  0
 59 61  1  0  0  0
 59 62  1  0  0  0
 60135  1  0  0  0
 60136  1  0  0  0
 60137  1  0  0  0
 61138  1  0  0  0
 61139  1  0  0  0
 61140  1  0  0  0
 62141  1  0  0  0
 62142  1  0  0  0
 62143  1  0  0  0
 63 65  1  0  0  0
 63144  1  0  0  0
 63145  1  0  0  0
 63146  1  0  0  0
 64147  1  0  0  0
 65148  1  0  0  0
 68 83  1  0  0  0
 71 72  2  0  0  0
 71 73  1  0  0  0
 71149  1  0  0  0
 72 74  1  0  0  0
 72 84  1  0  0  0
 73 76  2  0  0  0
 73 85  1  0  0  0
 74 75  2  0  0  0
 74 87  1  0  0  0
 75 76  1  0  0  0
 75 86  1  0  0  0
 76 88  1  0  0  0
 77 78  1  0  0  0
 77 79  1  0  0  0
 77150  1  0  0  0
 77151  1  0  0  0
 78 80  1  0  0  0
 78152  1  0  0  0
 78153  1  0  0  0
 79 81  1  0  0  0
 79154  1  0  0  0
 79155  1  0  0  0
 80 83  1  0  0  0
 80156  1  0  0  0
 80157  1  0  0  0
 81 89  1  0  0  0
 81158  1  0  0  0
 81159  1  0  0  0
 82 83  1  0  0  0
 82 89  1  0  0  0
 82160  1  0  0  0
 82161  1  0  0  0
 83162  1  0  0  0
 84163  1  0  0  0
 84164  1  0  0  0
 84165  1  0  0  0
 85166  1  0  0  0
 85167  1  0  0  0
 85168  1  0  0  0
 86169  1  0  0  0
 86170  1  0  0  0
 86171  1  0  0  0
 87172  1  0  0  0
 87173  1  0  0  0
 87 89  1  0  0  0
 88174  1  0  0  0
 89175  1  0  0  0
M  CHG  1  89   1
M  ISO  4   1 100  68 101  83 101  88 100
M  END
> <chiral flag>
0

> <version>
0

> <s_m_source_file>
/data/baiqing/PycharmProjects/Reinvent-master-3.2/result/LINK_invent/BTK/process_docking_weight1_custom_product_contain_oxygen_bond_distance_aromatic_linkinvent_7_9_3/rearranged_h_0037.sdf

> <i_m_source_file_index>
56

> <r_mmod_Potential_Energy-OPLS-2005>
247.115188598633

> <r_mmod_Stretch_Energy-OPLS-2005>
160.00048828125

> <r_mmod_Bend_Energy-OPLS-2005>
240.762649536133

> <r_mmod_Torsional_Energy-OPLS-2005>
302.490417480469

> <r_mmod_Improper_Torsional_Energy-OPLS-2005>
10.729510307312

> <r_mmod_Van_der_Waal_Energy-OPLS-2005>
142.655975341797

> <r_mmod_Electrostatic_Energy-OPLS-2005>
-308.001007080078

> <r_mmod_Solvation_Energy-OPLS-2005>
-396.033081054688

> <b_mmod_Minimization_Converged-OPLS-2005>
0

> <r_mmod_RMS_Derivative-OPLS-2005>
6.46949815750122

$$$$
56
                    3D
 Structure written by MMmdl.
162170  0  0  1  0            999 V2000
  -30.7043  -14.4780   20.5947 C   0  0  0  0  0  0
  -30.4213  -12.3234   19.4152 C   0  0  0  0  0  0
  -29.4855  -12.5018   18.2021 C   0  0  0  0  0  0
  -28.0121  -12.3442   18.6253 C   0  0  0  0  0  0
  -27.6559  -13.2010   19.8684 C   0  0  2  0  0  0
  -28.6982  -12.9969   20.9903 C   0  0  0  0  0  0
  -25.2564  -13.8132   20.5626 C   0  0  0  0  0  0
  -24.1820  -13.0428   20.9160 C   0  0  0  0  0  0
  -24.6380  -11.6895   20.8754 C   0  0  0  0  0  0
  -23.9058  -10.4282   21.0428 C   0  0  0  0  0  0
  -24.3612   -9.4194   21.9197 C   0  0  0  0  0  0
  -23.6285   -8.2230   22.0763 C   0  0  0  0  0  0
  -22.4268   -8.0279   21.3547 C   0  0  0  0  0  0
  -21.9909   -9.0252   20.4651 C   0  0  0  0  0  0
  -22.7242  -10.2129   20.3064 C   0  0  0  0  0  0
  -21.6842   -6.0736   22.5280 C   0  0  0  0  0  0
  -21.4010   -6.5646   23.8210 C   0  0  0  0  0  0
  -21.3651   -5.6797   24.9173 C   0  0  0  0  0  0
  -21.6045   -4.3061   24.7222 C   0  0  0  0  0  0
  -21.8816   -3.8153   23.4344 C   0  0  0  0  0  0
  -21.9190   -4.6969   22.3403 C   0  0  0  0  0  0
  -22.7848  -13.5234   21.1833 C   0  0  0  0  0  0
  -22.1657   -4.2162   21.0977 F   0  0  0  0  0  0
  -21.5630   -3.4546   25.7732 F   0  0  0  0  0  0
  -30.0256  -13.3091   20.4342 N   0  0  0  0  0  0
  -26.2995  -12.9293   20.3344 N   0  0  0  0  0  0
  -25.9306  -11.6467   20.5802 N   0  0  0  0  0  0
  -22.0490  -12.8226   22.0389 N   0  0  0  0  0  0
  -25.4273  -15.1827   20.3950 N   0  0  0  0  0  0
  -31.8288  -14.6591   20.1196 O   0  0  0  0  0  0
  -21.6628   -6.8879   21.4241 O   0  0  0  0  0  0
  -22.3534  -14.5545   20.6686 O   0  0  0  0  0  0
  -24.6176  -31.8670   23.2085 C   0  0  0  0  0  0
  -25.9053  -32.4819   23.8392 C   0  0  1  0  0  0
  -27.2324  -27.4165   20.1065 C   0  0  0  0  0  0
  -25.5897  -33.8616   24.2322 N   0  0  0  0  0  0
  -23.4075  -30.4902   21.5499 C   0  0  2  0  0  0
  -24.8559  -28.9562   20.1118 C   0  0  0  0  0  0
  -22.7428  -29.4657   22.4983 C   0  0  0  0  0  0
  -18.0269  -28.1374   22.8501 C   0  0  0  0  0  0
  -24.1486  -36.7302   23.2639 C   0  0  0  0  0  0
  -25.9380  -30.8295   21.3640 C   0  0  0  0  0  0
  -26.0178  -29.4635   20.7082 C   0  0  0  0  0  0
  -27.2128  -28.7035   20.6976 C   0  0  0  0  0  0
  -26.0568  -26.9314   19.4975 C   0  0  0  0  0  0
  -24.8716  -27.6904   19.5005 C   0  0  0  0  0  0
  -23.6171  -29.8233   20.1646 C   0  0  0  0  0  0
  -25.4115  -36.3111   24.0344 C   0  0  1  0  0  0
  -20.5874  -28.3673   23.1319 C   0  0  2  0  0  0
  -20.6768  -26.9413   22.5405 C   0  0  0  0  0  0
  -19.5739  -26.6403   21.5204 C   0  0  0  0  0  0
  -18.1913  -26.7925   22.1618 C   0  0  0  0  0  0
  -19.1523  -28.8835   23.2906 C   0  0  0  0  0  0
  -18.9456  -30.1431   23.8935 C   0  0  0  0  0  0
  -17.6459  -30.6584   24.0575 C   0  0  0  0  0  0
  -25.9052  -34.9476   23.5136 C   0  0  0  0  0  0
  -16.5346  -29.9095   23.6341 C   0  0  0  0  0  0
  -16.7258  -28.6503   23.0372 C   0  0  0  0  0  0
  -26.4473  -31.6599   25.0731 C   0  0  0  0  0  0
  -25.3710  -31.3665   26.1447 C   0  0  0  0  0  0
  -27.0343  -30.3061   24.6098 C   0  0  0  0  0  0
  -27.6047  -32.4313   25.7503 C   0  0  0  0  0  0
  -27.5574  -37.1811   24.8465 C   0  0  0  0  0  0
  -21.4158  -29.3034   22.3724 N   0  0  0  0  0  0
  -26.4288  -37.3805   23.9414 N   0  0  0  0  0  0
  -24.6725  -31.0756   22.0991 N   0  0  0  0  0  0
  -23.4190  -28.8206   23.3039 O   0  0  0  0  0  0
  -28.3664  -26.6282   20.1167 O   0  0  0  0  0  0
  -26.5614  -34.8922   22.4696 O   0  0  0  0  0  0
  -23.5365  -32.1420   23.7473 O   0  0  0  0  0  0
  -32.2141  -18.1906   22.5131 C   0  0  0  0  0  0
  -31.4050  -19.3292   22.3921 C   0  0  0  0  0  0
  -31.7400  -16.9450   22.0805 C   0  0  0  0  0  0
  -30.1178  -19.2541   21.8146 C   0  0  0  0  0  0
  -29.6301  -17.9812   21.3558 C   0  0  0  0  0  0
  -30.4563  -16.8096   21.5012 C   0  0  0  0  0  0
  -30.9065  -21.7587   20.3822 C   0  0  0  0  0  0
  -29.2618  -20.5487   21.8572 C   0  0  0  0  0  0
  -28.9597  -24.1617   20.3165 C   0  0  0  0  0  0
  -28.9102  -22.9435   21.2991 C   0  0  0  0  0  0
  -28.2438  -25.4173   20.9000 C   0  0  0  0  0  0
  -28.2151  -17.9057   20.7603 C   0  0  0  0  0  0
  -30.0064  -15.4814   21.1742 N   0  0  0  0  0  0
  -29.4979  -21.6347   20.8368 N   0  3  1  0  0  0
  -27.3218  -18.0250   21.7425 F   0  0  0  0  0  0
  -28.0304  -18.9021   19.8916 F   0  0  0  0  0  0
  -27.9523  -16.7739   20.1067 F   0  0  0  0  0  0
  -31.4625  -12.4320   19.1073 H   0  0  0  0  0  0
  -30.3360  -11.3148   19.8210 H   0  0  0  0  0  0
  -29.7295  -11.7732   17.4279 H   0  0  0  0  0  0
  -29.6354  -13.4862   17.7565 H   0  0  0  0  0  0
  -27.8459  -11.2886   18.8466 H   0  0  0  0  0  0
  -27.3492  -12.5856   17.7937 H   0  0  0  0  0  0
  -27.6941  -14.2423   19.5521 H   0  0  0  0  0  0
  -28.6830  -11.9623   21.3356 H   0  0  0  0  0  0
  -28.4526  -13.5978   21.8666 H   0  0  0  0  0  0
  -25.2753   -9.5664   22.4782 H   0  0  0  0  0  0
  -23.9991   -7.4614   22.7473 H   0  0  0  0  0  0
  -21.0846   -8.8773   19.8945 H   0  0  0  0  0  0
  -22.3710  -10.9672   19.6176 H   0  0  0  0  0  0
  -21.1997   -7.6153   23.9719 H   0  0  0  0  0  0
  -21.1477   -6.0526   25.9073 H   0  0  0  0  0  0
  -22.0603   -2.7622   23.2835 H   0  0  0  0  0  0
  -22.4103  -11.9884   22.4768 H   0  0  0  0  0  0
  -21.1118  -13.1262   22.2613 H   0  0  0  0  0  0
  -24.6574  -15.8364   20.4747 H   0  0  0  0  0  0
  -26.2880  -15.6236   20.0916 H   0  0  0  0  0  0
  -26.7129  -32.5524   23.1167 H   0  0  0  0  0  0
  -25.0044  -33.9782   25.0460 H   0  0  0  0  0  0
  -22.6973  -31.3080   21.4100 H   0  0  0  0  0  0
  -23.3763  -35.9613   23.3314 H   0  0  0  0  0  0
  -24.3579  -36.8919   22.2048 H   0  0  0  0  0  0
  -23.7212  -37.6504   23.6641 H   0  0  0  0  0  0
  -26.0508  -31.5963   20.5967 H   0  0  0  0  0  0
  -26.8243  -30.8833   21.9843 H   0  0  0  0  0  0
  -28.1085  -29.0892   21.1635 H   0  0  0  0  0  0
  -26.0565  -25.9564   19.0293 H   0  0  0  0  0  0
  -23.9785  -27.2963   19.0354 H   0  0  0  0  0  0
  -23.7194  -30.5989   19.4045 H   0  0  0  0  0  0
  -22.7404  -29.2429   19.8713 H   0  0  0  0  0  0
  -25.1277  -36.1999   25.0837 H   0  0  0  0  0  0
  -20.9956  -28.3225   24.1444 H   0  0  0  0  0  0
  -20.5720  -26.2258   23.3577 H   0  0  0  0  0  0
  -21.6629  -26.7481   22.1151 H   0  0  0  0  0  0
  -19.6921  -25.6337   21.1173 H   0  0  0  0  0  0
  -19.6677  -27.3272   20.6783 H   0  0  0  0  0  0
  -17.4187  -26.6713   21.4001 H   0  0  0  0  0  0
  -18.0297  -26.0044   22.8987 H   0  0  0  0  0  0
  -19.7932  -30.7221   24.2334 H   0  0  0  0  0  0
  -17.5020  -31.6277   24.5152 H   0  0  0  0  0  0
  -15.5347  -30.3005   23.7647 H   0  0  0  0  0  0
  -15.8655  -28.0821   22.7099 H   0  0  0  0  0  0
  -24.5942  -30.6972   25.7742 H   0  0  0  0  0  0
  -24.8822  -32.2786   26.4865 H   0  0  0  0  0  0
  -25.8030  -30.8845   27.0225 H   0  0  0  0  0  0
  -26.2913  -29.6813   24.1126 H   0  0  0  0  0  0
  -27.4136  -29.7301   25.4553 H   0  0  0  0  0  0
  -27.8722  -30.4439   23.9262 H   0  0  0  0  0  0
  -27.2697  -33.3638   26.2054 H   0  0  0  0  0  0
  -28.3869  -32.6825   25.0328 H   0  0  0  0  0  0
  -28.0689  -31.8438   26.5438 H   0  0  0  0  0  0
  -28.2572  -38.0124   24.7535 H   0  0  0  0  0  0
  -28.1080  -36.2650   24.6257 H   0  0  0  0  0  0
  -27.2276  -37.1437   25.8861 H   0  0  0  0  0  0
  -20.9315  -29.8750   21.6941 H   0  0  0  0  0  0
  -26.0187  -38.2889   24.1408 H   0  0  0  0  0  0
  -33.1929  -18.2678   22.9679 H   0  0  0  0  0  0
  -31.7766  -20.2679   22.7798 H   0  0  0  0  0  0
  -32.3741  -16.0815   22.2274 H   0  0  0  0  0  0
  -31.2858  -20.8179   19.9819 H   0  0  0  0  0  0
  -31.5631  -22.0791   21.1908 H   0  0  0  0  0  0
  -31.0014  -22.4819   19.5729 H   0  0  0  0  0  0
  -29.4393  -20.9771   22.8454 H   0  0  0  0  0  0
  -28.1987  -20.3127   21.8740 H   0  0  0  0  0  0
  -28.5019  -23.8949   19.3634 H   0  0  0  0  0  0
  -29.9920  -24.4322   20.0996 H   0  0  0  0  0  0
  -27.8667  -22.7654   21.5676 H   0  0  0  0  0  0
  -29.4065  -23.2367   22.2263 H   0  0  0  0  0  0
  -28.6604  -25.6405   21.8834 H   0  0  0  0  0  0
  -27.1996  -25.1573   21.0807 H   0  0  0  0  0  0
  -29.0275  -15.2873   21.3227 H   0  0  0  0  0  0
  -28.9769  -21.3543   20.0186 H   0  0  0  0  0  0
  1 25  1  0  0  0
  1 30  2  0  0  0
  1 83  1  0  0  0
  2  3  1  0  0  0
  2 25  1  0  0  0
  2 88  1  0  0  0
  2 89  1  0  0  0
  3  4  1  0  0  0
  3 90  1  0  0  0
  3 91  1  0  0  0
  4  5  1  0  0  0
  4 92  1  0  0  0
  4 93  1  0  0  0
  5  6  1  0  0  0
  5 26  1  0  0  0
  5 94  1  0  0  0
  6 25  1  0  0  0
  6 95  1  0  0  0
  6 96  1  0  0  0
  7  8  2  0  0  0
  7 26  1  0  0  0
  7 29  1  0  0  0
  8  9  1  0  0  0
  8 22  1  0  0  0
  9 10  1  0  0  0
  9 27  2  0  0  0
 10 11  2  0  0  0
 10 15  1  0  0  0
 11 12  1  0  0  0
 11 97  1  0  0  0
 12 13  2  0  0  0
 12 98  1  0  0  0
 13 14  1  0  0  0
 13 31  1  0  0  0
 14 15  2  0  0  0
 14 99  1  0  0  0
 15100  1  0  0  0
 16 17  2  0  0  0
 16 21  1  0  0  0
 16 31  1  0  0  0
 17 18  1  0  0  0
 17101  1  0  0  0
 18 19  2  0  0  0
 18102  1  0  0  0
 19 20  1  0  0  0
 19 24  1  0  0  0
 20 21  2  0  0  0
 20103  1  0  0  0
 21 23  1  0  0  0
 22 28  1  0  0  0
 22 32  2  0  0  0
 26 27  1  0  0  0
 28104  1  0  0  0
 28105  1  0  0  0
 29106  1  0  0  0
 29107  1  0  0  0
 33 34  1  0  0  0
 33 66  1  0  0  0
 33 70  2  0  0  0
 34 36  1  0  0  0
 34 59  1  0  0  0
 34108  1  0  0  0
 35 44  2  0  0  0
 35 45  1  0  0  0
 35 68  1  0  0  0
 36 56  1  0  0  0
 36109  1  0  0  0
 37 39  1  0  0  0
 37 47  1  0  0  0
 37 66  1  0  0  0
 37110  1  0  0  0
 38 43  2  0  0  0
 38 46  1  0  0  0
 38 47  1  0  0  0
 39 64  1  0  0  0
 39 67  2  0  0  0
 40 52  1  0  0  0
 40 53  2  0  0  0
 40 58  1  0  0  0
 41111  1  0  0  0
 41112  1  0  0  0
 41113  1  0  0  0
 41 48  1  0  0  0
 42 43  1  0  0  0
 42 66  1  0  0  0
 42114  1  0  0  0
 42115  1  0  0  0
 43 44  1  0  0  0
 44116  1  0  0  0
 45 46  2  0  0  0
 45117  1  0  0  0
 46118  1  0  0  0
 47119  1  0  0  0
 47120  1  0  0  0
 48 56  1  0  0  0
 48 65  1  0  0  0
 48121  1  0  0  0
 49 50  1  0  0  0
 49 53  1  0  0  0
 49 64  1  0  0  0
 49122  1  0  0  0
 50 51  1  0  0  0
 50123  1  0  0  0
 50124  1  0  0  0
 51 52  1  0  0  0
 51125  1  0  0  0
 51126  1  0  0  0
 52127  1  0  0  0
 52128  1  0  0  0
 53 54  1  0  0  0
 54 55  2  0  0  0
 54129  1  0  0  0
 55 57  1  0  0  0
 55130  1  0  0  0
 56 69  2  0  0  0
 57 58  2  0  0  0
 57131  1  0  0  0
 58132  1  0  0  0
 59 60  1  0  0  0
 59 61  1  0  0  0
 59 62  1  0  0  0
 60133  1  0  0  0
 60134  1  0  0  0
 60135  1  0  0  0
 61136  1  0  0  0
 61137  1  0  0  0
 61138  1  0  0  0
 62139  1  0  0  0
 62140  1  0  0  0
 62141  1  0  0  0
 63 65  1  0  0  0
 63142  1  0  0  0
 63143  1  0  0  0
 63144  1  0  0  0
 64145  1  0  0  0
 65146  1  0  0  0
 68 81  1  0  0  0
 71 72  2  0  0  0
 71 73  1  0  0  0
 71147  1  0  0  0
 72 74  1  0  0  0
 72148  1  0  0  0
 73 76  2  0  0  0
 73149  1  0  0  0
 74 75  2  0  0  0
 74 78  1  0  0  0
 75 76  1  0  0  0
 75 82  1  0  0  0
 76 83  1  0  0  0
 77150  1  0  0  0
 77151  1  0  0  0
 77152  1  0  0  0
 77 84  1  0  0  0
 78 84  1  0  0  0
 78153  1  0  0  0
 78154  1  0  0  0
 79 80  1  0  0  0
 79 81  1  0  0  0
 79155  1  0  0  0
 79156  1  0  0  0
 80 84  1  0  0  0
 80157  1  0  0  0
 80158  1  0  0  0
 81159  1  0  0  0
 81160  1  0  0  0
 82 85  1  0  0  0
 82 86  1  0  0  0
 82 87  1  0  0  0
 83161  1  0  0  0
 84162  1  0  0  0
M  CHG  1  84   1
M  ISO  4   1 100  68 101  81 101  83 100
M  END
> <chiral flag>
0

> <version>
0

> <s_m_source_file>
/data/baiqing/PycharmProjects/Reinvent-master-3.2/result/LINK_invent/BTK/process_docking_weight1_custom_product_contain_oxygen_bond_distance_aromatic_linkinvent_7_9_3/rearranged_h_0037.sdf

> <i_m_source_file_index>
57

> <r_mmod_Potential_Energy-OPLS-2005>
-113.749794006348

> <r_mmod_Stretch_Energy-OPLS-2005>
51.7037963867188

> <r_mmod_Bend_Energy-OPLS-2005>
112.395050048828

> <r_mmod_Torsional_Energy-OPLS-2005>
234.72184753418

> <r_mmod_Improper_Torsional_Energy-OPLS-2005>
3.91042113304138

> <r_mmod_Van_der_Waal_Energy-OPLS-2005>
163.056198120117

> <r_mmod_Electrostatic_Energy-OPLS-2005>
-255.324111938477

> <r_mmod_Solvation_Energy-OPLS-2005>
-439.449005126953

> <b_mmod_Minimization_Converged-OPLS-2005>
0

> <r_mmod_RMS_Derivative-OPLS-2005>
2.06172561645508

$$$$
57
                    3D
 Structure written by MMmdl.
164172  0  0  1  0            999 V2000
  -30.7144  -14.4162   20.6166 C   0  0  0  0  0  0
  -30.4200  -12.2974   19.3953 C   0  0  0  0  0  0
  -29.4906  -12.5231   18.1881 C   0  0  0  0  0  0
  -28.0096  -12.3846   18.5985 C   0  0  0  0  0  0
  -27.6645  -13.2041   19.8713 C   0  0  2  0  0  0
  -28.7013  -12.9501   20.9877 C   0  0  0  0  0  0
  -25.2645  -13.8162   20.5703 C   0  0  0  0  0  0
  -24.1852  -13.0435   20.9129 C   0  0  0  0  0  0
  -24.6411  -11.6914   20.8708 C   0  0  0  0  0  0
  -23.9089  -10.4306   21.0417 C   0  0  0  0  0  0
  -24.3653   -9.4220   21.9197 C   0  0  0  0  0  0
  -23.6308   -8.2266   22.0786 C   0  0  0  0  0  0
  -22.4271   -8.0325   21.3600 C   0  0  0  0  0  0
  -21.9922   -9.0288   20.4691 C   0  0  0  0  0  0
  -22.7263  -10.2155   20.3075 C   0  0  0  0  0  0
  -21.6861   -6.0765   22.5282 C   0  0  0  0  0  0
  -21.4026   -6.5671   23.8219 C   0  0  0  0  0  0
  -21.3653   -5.6821   24.9186 C   0  0  0  0  0  0
  -21.6027   -4.3076   24.7231 C   0  0  0  0  0  0
  -21.8812   -3.8175   23.4352 C   0  0  0  0  0  0
  -21.9194   -4.6992   22.3414 C   0  0  0  0  0  0
  -22.7885  -13.5252   21.1787 C   0  0  0  0  0  0
  -22.1656   -4.2184   21.0990 F   0  0  0  0  0  0
  -21.5613   -3.4549   25.7740 F   0  0  0  0  0  0
  -30.0358  -13.2544   20.4403 N   0  0  0  0  0  0
  -26.3035  -12.9306   20.3307 N   0  0  0  0  0  0
  -25.9342  -11.6475   20.5740 N   0  0  0  0  0  0
  -22.0537  -12.8278   22.0384 N   0  0  0  0  0  0
  -25.4399  -15.1889   20.4286 N   0  0  0  0  0  0
  -31.8053  -14.6508   20.0882 O   0  0  0  0  0  0
  -21.6651   -6.8910   21.4254 O   0  0  0  0  0  0
  -22.3571  -14.5561   20.6665 O   0  0  0  0  0  0
  -24.6128  -31.8674   23.2104 C   0  0  0  0  0  0
  -25.9028  -32.4829   23.8423 C   0  0  1  0  0  0
  -27.2427  -27.4463   20.0761 C   0  0  0  0  0  0
  -25.5916  -33.8650   24.2343 N   0  0  0  0  0  0
  -23.3994  -30.4845   21.5558 C   0  0  2  0  0  0
  -24.8452  -28.9548   20.1059 C   0  0  0  0  0  0
  -22.7396  -29.4615   22.5068 C   0  0  0  0  0  0
  -18.0354  -28.1380   22.8486 C   0  0  0  0  0  0
  -24.1477  -36.7319   23.2625 C   0  0  0  0  0  0
  -25.9256  -30.8226   21.3663 C   0  0  0  0  0  0
  -25.9974  -29.4585   20.7159 C   0  0  0  0  0  0
  -27.1913  -28.7075   20.7090 C   0  0  0  0  0  0
  -26.0754  -26.9663   19.4353 C   0  0  0  0  0  0
  -24.8819  -27.7107   19.4538 C   0  0  0  0  0  0
  -23.6040  -29.8200   20.1677 C   0  0  0  0  0  0
  -25.4114  -36.3114   24.0317 C   0  0  1  0  0  0
  -20.5900  -28.3674   23.1498 C   0  0  2  0  0  0
  -20.6860  -26.9416   22.5605 C   0  0  0  0  0  0
  -19.5940  -26.6515   21.5269 C   0  0  0  0  0  0
  -18.2069  -26.7982   22.1545 C   0  0  0  0  0  0
  -19.1559  -28.8844   23.2992 C   0  0  0  0  0  0
  -18.9445  -30.1479   23.8963 C   0  0  0  0  0  0
  -17.6405  -30.6552   24.0583 C   0  0  0  0  0  0
  -25.9073  -34.9475   23.5118 C   0  0  0  0  0  0
  -16.5357  -29.9026   23.6256 C   0  0  0  0  0  0
  -16.7330  -28.6459   23.0314 C   0  0  0  0  0  0
  -26.4457  -31.6605   25.0748 C   0  0  0  0  0  0
  -25.3716  -31.3711   26.1488 C   0  0  0  0  0  0
  -27.0246  -30.3048   24.6084 C   0  0  0  0  0  0
  -27.6074  -32.4306   25.7475 C   0  0  0  0  0  0
  -27.5590  -37.1810   24.8470 C   0  0  0  0  0  0
  -21.4129  -29.3008   22.3836 N   0  0  0  0  0  0
  -26.4314  -37.3794   23.9404 N   0  0  0  0  0  0
  -24.6630  -31.0759   22.1006 N   0  0  0  0  0  0
  -23.4204  -28.8211   23.3130 O   0  0  0  0  0  0
  -28.4378  -26.7545   20.1086 O   0  0  0  0  0  0
  -26.5628  -34.8879   22.4682 O   0  0  0  0  0  0
  -23.5311  -32.1518   23.7451 O   0  0  0  0  0  0
  -29.3426  -18.3306   19.9949 C   0  0  0  0  0  0
  -27.5445  -19.1370   21.9828 C   0  0  0  0  0  0
  -29.4200  -17.7408   21.2762 C   0  0  0  0  0  0
  -27.4838  -19.7512   20.7116 C   0  0  0  0  0  0
  -28.3666  -19.3112   19.6885 C   0  0  0  0  0  0
  -28.4868  -18.1297   22.2631 C   0  0  0  0  0  0
  -28.1635  -18.8030   17.3201 C   0  0  0  0  0  0
  -30.5096  -16.7142   21.5712 C   0  0  0  0  0  0
  -26.4087  -20.8138   20.4902 C   0  0  0  0  0  0
  -27.7579  -24.4318   20.6404 C   0  0  0  0  0  0
  -27.6245  -22.9930   20.0944 C   0  0  0  0  0  0
  -28.4876  -25.3916   19.6752 C   0  0  0  0  0  0
  -28.2727  -19.8095   18.3786 N   0  0  0  0  0  0
  -30.0720  -15.3401   21.3417 N   0  0  0  0  0  0
  -26.7888  -22.1558   20.9910 N   0  3  0  0  0  0
  -28.4728  -17.3877   23.8244 Cl  0  0  0  0  0  0
  -31.4635  -12.4055   19.0930 H   0  0  0  0  0  0
  -30.3212  -11.2776   19.7671 H   0  0  0  0  0  0
  -29.7326  -11.8188   17.3911 H   0  0  0  0  0  0
  -29.6607  -13.5180   17.7700 H   0  0  0  0  0  0
  -27.8087  -11.3262   18.7686 H   0  0  0  0  0  0
  -27.3662  -12.6872   17.7712 H   0  0  0  0  0  0
  -27.7143  -14.2577   19.5917 H   0  0  0  0  0  0
  -28.6698  -11.9070   21.3033 H   0  0  0  0  0  0
  -28.4494  -13.5251   21.8815 H   0  0  0  0  0  0
  -25.2814   -9.5684   22.4758 H   0  0  0  0  0  0
  -24.0016   -7.4674   22.7531 H   0  0  0  0  0  0
  -21.0837   -8.8831   19.9031 H   0  0  0  0  0  0
  -22.3739  -10.9704   19.6187 H   0  0  0  0  0  0
  -21.2032   -7.6182   23.9717 H   0  0  0  0  0  0
  -21.1468   -6.0568   25.9088 H   0  0  0  0  0  0
  -22.0592   -2.7638   23.2833 H   0  0  0  0  0  0
  -22.4074  -11.9909   22.4761 H   0  0  0  0  0  0
  -21.1195  -13.1438   22.2594 H   0  0  0  0  0  0
  -24.6865  -15.8502   20.5791 H   0  0  0  0  0  0
  -26.3198  -15.6329   20.1970 H   0  0  0  0  0  0
  -26.7138  -32.5450   23.1217 H   0  0  0  0  0  0
  -25.0054  -33.9876   25.0480 H   0  0  0  0  0  0
  -22.6857  -31.2987   21.4267 H   0  0  0  0  0  0
  -23.3716  -35.9677   23.3313 H   0  0  0  0  0  0
  -24.3588  -36.8921   22.2042 H   0  0  0  0  0  0
  -23.7237  -37.6547   23.6635 H   0  0  0  0  0  0
  -26.0520  -31.5806   20.5928 H   0  0  0  0  0  0
  -26.8140  -30.8769   21.9812 H   0  0  0  0  0  0
  -28.0727  -29.0986   21.1960 H   0  0  0  0  0  0
  -26.0716  -26.0284   18.8981 H   0  0  0  0  0  0
  -24.0101  -27.3354   18.9359 H   0  0  0  0  0  0
  -23.7052  -30.6052   19.4169 H   0  0  0  0  0  0
  -22.7253  -29.2433   19.8698 H   0  0  0  0  0  0
  -25.1264  -36.2017   25.0816 H   0  0  0  0  0  0
  -20.9982  -28.3217   24.1633 H   0  0  0  0  0  0
  -20.5760  -26.2238   23.3773 H   0  0  0  0  0  0
  -21.6783  -26.7521   22.1450 H   0  0  0  0  0  0
  -19.7204  -25.6497   21.1126 H   0  0  0  0  0  0
  -19.7005  -27.3528   20.6978 H   0  0  0  0  0  0
  -17.4418  -26.6886   21.3849 H   0  0  0  0  0  0
  -18.0391  -26.0058   22.8861 H   0  0  0  0  0  0
  -19.7859  -30.7335   24.2422 H   0  0  0  0  0  0
  -17.4851  -31.6195   24.5230 H   0  0  0  0  0  0
  -15.5327  -30.2862   23.7563 H   0  0  0  0  0  0
  -15.8752  -28.0739   22.6994 H   0  0  0  0  0  0
  -24.5916  -30.7037   25.7822 H   0  0  0  0  0  0
  -24.8836  -32.2841   26.4911 H   0  0  0  0  0  0
  -25.8031  -30.8914   27.0273 H   0  0  0  0  0  0
  -26.2751  -29.6910   24.1068 H   0  0  0  0  0  0
  -27.4004  -29.7189   25.4490 H   0  0  0  0  0  0
  -27.8620  -30.4441   23.9230 H   0  0  0  0  0  0
  -27.2780  -33.3630   26.2077 H   0  0  0  0  0  0
  -28.3834  -32.6846   25.0236 H   0  0  0  0  0  0
  -28.0821  -31.8419   26.5349 H   0  0  0  0  0  0
  -28.2613  -38.0088   24.7488 H   0  0  0  0  0  0
  -28.1057  -36.2628   24.6306 H   0  0  0  0  0  0
  -27.2313  -37.1474   25.8869 H   0  0  0  0  0  0
  -20.9270  -29.8704   21.7041 H   0  0  0  0  0  0
  -26.0180  -38.2878   24.1377 H   0  0  0  0  0  0
  -30.0435  -18.0301   19.2284 H   0  0  0  0  0  0
  -26.8452  -19.4217   22.7567 H   0  0  0  0  0  0
  -27.1973  -18.8908   16.8177 H   0  0  0  0  0  0
  -28.2388  -17.7783   17.6876 H   0  0  0  0  0  0
  -28.9391  -18.9392   16.5640 H   0  0  0  0  0  0
  -30.8432  -16.8050   22.6055 H   0  0  0  0  0  0
  -31.3858  -16.9567   20.9688 H   0  0  0  0  0  0
  -25.5336  -20.5037   21.0598 H   0  0  0  0  0  0
  -26.0784  -20.8542   19.4533 H   0  0  0  0  0  0
  -28.2799  -24.4170   21.5954 H   0  0  0  0  0  0
  -26.7633  -24.8219   20.8516 H   0  0  0  0  0  0
  -28.6121  -22.5431   19.9629 H   0  0  0  0  0  0
  -27.1736  -23.0354   19.1030 H   0  0  0  0  0  0
  -29.5383  -25.1071   19.6422 H   0  0  0  0  0  0
  -28.1294  -25.2932   18.6494 H   0  0  0  0  0  0
  -27.6331  -20.5870   18.2360 H   0  0  0  0  0  0
  -29.1865  -15.0709   21.7409 H   0  0  0  0  0  0
  -27.2436  -22.0523   21.8827 H   0  0  0  0  0  0
  -25.9246  -22.6489   21.1519 H   0  0  0  0  0  0
  1 25  1  0  0  0
  1 30  2  0  0  0
  1 84  1  0  0  0
  2  3  1  0  0  0
  2 25  1  0  0  0
  2 87  1  0  0  0
  2 88  1  0  0  0
  3  4  1  0  0  0
  3 89  1  0  0  0
  3 90  1  0  0  0
  4  5  1  0  0  0
  4 91  1  0  0  0
  4 92  1  0  0  0
  5  6  1  0  0  0
  5 26  1  0  0  0
  5 93  1  0  0  0
  6 25  1  0  0  0
  6 94  1  0  0  0
  6 95  1  0  0  0
  7  8  2  0  0  0
  7 26  1  0  0  0
  7 29  1  0  0  0
  8  9  1  0  0  0
  8 22  1  0  0  0
  9 10  1  0  0  0
  9 27  2  0  0  0
 10 11  2  0  0  0
 10 15  1  0  0  0
 11 12  1  0  0  0
 11 96  1  0  0  0
 12 13  2  0  0  0
 12 97  1  0  0  0
 13 14  1  0  0  0
 13 31  1  0  0  0
 14 15  2  0  0  0
 14 98  1  0  0  0
 15 99  1  0  0  0
 16 17  2  0  0  0
 16 21  1  0  0  0
 16 31  1  0  0  0
 17 18  1  0  0  0
 17100  1  0  0  0
 18 19  2  0  0  0
 18101  1  0  0  0
 19 20  1  0  0  0
 19 24  1  0  0  0
 20 21  2  0  0  0
 20102  1  0  0  0
 21 23  1  0  0  0
 22 28  1  0  0  0
 22 32  2  0  0  0
 26 27  1  0  0  0
 28103  1  0  0  0
 28104  1  0  0  0
 29105  1  0  0  0
 29106  1  0  0  0
 33 34  1  0  0  0
 33 66  1  0  0  0
 33 70  2  0  0  0
 34 36  1  0  0  0
 34 59  1  0  0  0
 34107  1  0  0  0
 35 44  2  0  0  0
 35 45  1  0  0  0
 35 68  1  0  0  0
 36 56  1  0  0  0
 36108  1  0  0  0
 37 39  1  0  0  0
 37 47  1  0  0  0
 37 66  1  0  0  0
 37109  1  0  0  0
 38 43  2  0  0  0
 38 46  1  0  0  0
 38 47  1  0  0  0
 39 64  1  0  0  0
 39 67  2  0  0  0
 40 52  1  0  0  0
 40 53  2  0  0  0
 40 58  1  0  0  0
 41110  1  0  0  0
 41111  1  0  0  0
 41112  1  0  0  0
 41 48  1  0  0  0
 42 43  1  0  0  0
 42 66  1  0  0  0
 42113  1  0  0  0
 42114  1  0  0  0
 43 44  1  0  0  0
 44115  1  0  0  0
 45 46  2  0  0  0
 45116  1  0  0  0
 46117  1  0  0  0
 47118  1  0  0  0
 47119  1  0  0  0
 48 56  1  0  0  0
 48 65  1  0  0  0
 48120  1  0  0  0
 49 50  1  0  0  0
 49 53  1  0  0  0
 49 64  1  0  0  0
 49121  1  0  0  0
 50 51  1  0  0  0
 50122  1  0  0  0
 50123  1  0  0  0
 51 52  1  0  0  0
 51124  1  0  0  0
 51125  1  0  0  0
 52126  1  0  0  0
 52127  1  0  0  0
 53 54  1  0  0  0
 54 55  2  0  0  0
 54128  1  0  0  0
 55 57  1  0  0  0
 55129  1  0  0  0
 56 69  2  0  0  0
 57 58  2  0  0  0
 57130  1  0  0  0
 58131  1  0  0  0
 59 60  1  0  0  0
 59 61  1  0  0  0
 59 62  1  0  0  0
 60132  1  0  0  0
 60133  1  0  0  0
 60134  1  0  0  0
 61135  1  0  0  0
 61136  1  0  0  0
 61137  1  0  0  0
 62138  1  0  0  0
 62139  1  0  0  0
 62140  1  0  0  0
 63 65  1  0  0  0
 63141  1  0  0  0
 63142  1  0  0  0
 63143  1  0  0  0
 64144  1  0  0  0
 65145  1  0  0  0
 68 82  1  0  0  0
 71 73  2  0  0  0
 71 75  1  0  0  0
 71146  1  0  0  0
 72 74  1  0  0  0
 72 76  2  0  0  0
 72147  1  0  0  0
 73 76  1  0  0  0
 73 78  1  0  0  0
 74 75  2  0  0  0
 74 79  1  0  0  0
 75 83  1  0  0  0
 76 86  1  0  0  0
 77 83  1  0  0  0
 77148  1  0  0  0
 77149  1  0  0  0
 77150  1  0  0  0
 78 84  1  0  0  0
 78151  1  0  0  0
 78152  1  0  0  0
 79 85  1  0  0  0
 79153  1  0  0  0
 79154  1  0  0  0
 80 81  1  0  0  0
 80 82  1  0  0  0
 80155  1  0  0  0
 80156  1  0  0  0
 81 85  1  0  0  0
 81157  1  0  0  0
 81158  1  0  0  0
 82159  1  0  0  0
 82160  1  0  0  0
 83161  1  0  0  0
 84162  1  0  0  0
 85163  1  0  0  0
 85164  1  0  0  0
M  CHG  1  85   1
M  ISO  4   1 100  68 101  82 101  84 100
M  END
> <chiral flag>
0

> <version>
0

> <s_m_source_file>
/data/baiqing/PycharmProjects/Reinvent-master-3.2/result/LINK_invent/BTK/process_docking_weight1_custom_product_contain_oxygen_bond_distance_aromatic_linkinvent_7_9_3/rearranged_h_0037.sdf

> <i_m_source_file_index>
58

> <r_mmod_Potential_Energy-OPLS-2005>
-339.070373535156

> <r_mmod_Stretch_Energy-OPLS-2005>
35.2159652709961

> <r_mmod_Bend_Energy-OPLS-2005>
100.513603210449

> <r_mmod_Torsional_Energy-OPLS-2005>
188.472198486328

> <r_mmod_Improper_Torsional_Energy-OPLS-2005>
6.56535816192627

> <r_mmod_Van_der_Waal_Energy-OPLS-2005>
151.774230957031

> <r_mmod_Electrostatic_Energy-OPLS-2005>
-334.487823486328

> <r_mmod_Solvation_Energy-OPLS-2005>
-498.258697509766

> <b_mmod_Minimization_Converged-OPLS-2005>
0

> <r_mmod_RMS_Derivative-OPLS-2005>
6.08047294616699

$$$$
58
                    3D
 Structure written by MMmdl.
161170  0  0  1  0            999 V2000
  -30.5998  -14.6378   20.5085 C   0  0  0  0  0  0
  -30.4455  -12.3929   19.4457 C   0  0  0  0  0  0
  -29.5095  -12.5077   18.2207 C   0  0  0  0  0  0
  -28.0317  -12.3407   18.6323 C   0  0  0  0  0  0
  -27.6538  -13.2071   19.8624 C   0  0  2  0  0  0
  -28.6987  -13.0473   20.9904 C   0  0  0  0  0  0
  -25.2567  -13.8139   20.5659 C   0  0  0  0  0  0
  -24.1834  -13.0425   20.9202 C   0  0  0  0  0  0
  -24.6389  -11.6891   20.8747 C   0  0  0  0  0  0
  -23.9054  -10.4284   21.0412 C   0  0  0  0  0  0
  -24.3609   -9.4200   21.9187 C   0  0  0  0  0  0
  -23.6285   -8.2235   22.0755 C   0  0  0  0  0  0
  -22.4267   -8.0275   21.3545 C   0  0  0  0  0  0
  -21.9902   -9.0249   20.4648 C   0  0  0  0  0  0
  -22.7228  -10.2129   20.3060 C   0  0  0  0  0  0
  -21.6852   -6.0732   22.5278 C   0  0  0  0  0  0
  -21.4011   -6.5638   23.8211 C   0  0  0  0  0  0
  -21.3658   -5.6791   24.9173 C   0  0  0  0  0  0
  -21.6044   -4.3054   24.7225 C   0  0  0  0  0  0
  -21.8819   -3.8145   23.4347 C   0  0  0  0  0  0
  -21.9191   -4.6960   22.3402 C   0  0  0  0  0  0
  -22.7859  -13.5229   21.1858 C   0  0  0  0  0  0
  -22.1660   -4.2146   21.0979 F   0  0  0  0  0  0
  -21.5631   -3.4538   25.7738 F   0  0  0  0  0  0
  -30.0140  -13.4017   20.4314 N   0  0  0  0  0  0
  -26.2985  -12.9301   20.3293 N   0  0  0  0  0  0
  -25.9311  -11.6471   20.5748 N   0  0  0  0  0  0
  -22.0491  -12.8230   22.0413 N   0  0  0  0  0  0
  -25.4278  -15.1850   20.4003 N   0  0  0  0  0  0
  -31.7653  -14.8279   20.1457 O   0  0  0  0  0  0
  -21.6635   -6.8872   21.4238 O   0  0  0  0  0  0
  -22.3554  -14.5536   20.6697 O   0  0  0  0  0  0
  -24.6252  -31.8599   23.2017 C   0  0  0  0  0  0
  -25.9104  -32.4779   23.8345 C   0  0  1  0  0  0
  -27.2311  -27.3214   20.1051 C   0  0  0  0  0  0
  -25.5922  -33.8578   24.2273 N   0  0  0  0  0  0
  -23.4173  -30.4835   21.5449 C   0  0  2  0  0  0
  -24.8603  -28.9338   20.1160 C   0  0  0  0  0  0
  -22.7462  -29.4630   22.4945 C   0  0  0  0  0  0
  -18.0284  -28.1387   22.8493 C   0  0  0  0  0  0
  -24.1489  -36.7292   23.2639 C   0  0  0  0  0  0
  -25.9575  -30.7918   21.3697 C   0  0  0  0  0  0
  -26.0287  -29.4182   20.7131 C   0  0  0  0  0  0
  -27.2106  -28.6236   20.6960 C   0  0  0  0  0  0
  -26.0256  -26.8761   19.5174 C   0  0  0  0  0  0
  -24.8598  -27.6665   19.5144 C   0  0  0  0  0  0
  -23.6298  -29.8153   20.1612 C   0  0  0  0  0  0
  -25.4114  -36.3083   24.0329 C   0  0  1  0  0  0
  -20.5884  -28.3683   23.1294 C   0  0  2  0  0  0
  -20.6775  -26.9409   22.5415 C   0  0  0  0  0  0
  -19.5749  -26.6388   21.5217 C   0  0  0  0  0  0
  -18.1929  -26.7934   22.1628 C   0  0  0  0  0  0
  -19.1536  -28.8852   23.2893 C   0  0  0  0  0  0
  -18.9459  -30.1458   23.8906 C   0  0  0  0  0  0
  -17.6459  -30.6591   24.0565 C   0  0  0  0  0  0
  -25.9048  -34.9453   23.5100 C   0  0  0  0  0  0
  -16.5351  -29.9089   23.6330 C   0  0  0  0  0  0
  -16.7273  -28.6506   23.0353 C   0  0  0  0  0  0
  -26.4490  -31.6591   25.0715 C   0  0  0  0  0  0
  -25.3726  -31.3726   26.1444 C   0  0  0  0  0  0
  -27.0328  -30.3016   24.6162 C   0  0  0  0  0  0
  -27.6051  -32.4322   25.7490 C   0  0  0  0  0  0
  -27.5579  -37.1806   24.8466 C   0  0  0  0  0  0
  -21.4177  -29.3042   22.3689 N   0  0  0  0  0  0
  -26.4293  -37.3777   23.9404 N   0  0  0  0  0  0
  -24.6858  -31.0619   22.0959 N   0  0  0  0  0  0
  -23.4194  -28.8170   23.3019 O   0  0  0  0  0  0
  -28.4177  -26.5704   20.1326 O   0  0  0  0  0  0
  -26.5622  -34.8920   22.4670 O   0  0  0  0  0  0
  -23.5420  -32.1392   23.7354 O   0  0  0  0  0  0
  -28.5814  -17.8447   20.6309 C   0  0  0  0  0  0
  -30.9694  -17.8998   20.8700 C   0  0  0  0  0  0
  -29.6914  -20.0584   20.8412 C   0  0  0  0  0  0
  -29.7955  -17.1152   20.7464 C   0  0  0  0  0  0
  -28.5256  -19.2689   20.6659 C   0  0  0  0  0  0
  -30.9211  -19.3275   20.9335 C   0  0  0  0  0  0
  -29.6508  -22.6708   18.7716 C   0  0  0  0  0  0
  -30.8715  -22.1800   18.4936 C   0  0  0  0  0  0
  -28.8159  -23.4843   17.7761 C   0  0  0  0  0  0
  -28.0041  -24.6497   18.3892 C   0  0  0  0  0  0
  -28.7136  -23.9819   20.7212 C   0  0  0  0  0  0
  -28.6595  -25.1731   19.6781 C   0  0  2  0  0  0
  -29.5959  -21.6125   21.1304 C   0  0  0  0  0  0
  -29.7348  -15.6541   20.8184 N   0  0  0  0  0  0
  -29.0012  -22.5977   20.1307 N   0  3  2  0  0  0
  -26.9848  -20.0431   20.5430 Cl  0  0  0  0  0  0
  -32.4202  -20.1442   21.2125 Cl  0  0  0  0  0  0
  -31.4842  -12.5356   19.1424 H   0  0  0  0  0  0
  -30.3932  -11.3929   19.8796 H   0  0  0  0  0  0
  -29.7753  -11.7591   17.4731 H   0  0  0  0  0  0
  -29.6482  -13.4785   17.7423 H   0  0  0  0  0  0
  -27.8703  -11.2866   18.8615 H   0  0  0  0  0  0
  -27.3762  -12.5712   17.7918 H   0  0  0  0  0  0
  -27.6737  -14.2428   19.5241 H   0  0  0  0  0  0
  -28.7125  -12.0192   21.3552 H   0  0  0  0  0  0
  -28.4419  -13.6622   21.8547 H   0  0  0  0  0  0
  -25.2757   -9.5676   22.4760 H   0  0  0  0  0  0
  -23.9995   -7.4627   22.7475 H   0  0  0  0  0  0
  -21.0833   -8.8768   19.8956 H   0  0  0  0  0  0
  -22.3688  -10.9669   19.6170 H   0  0  0  0  0  0
  -21.2004   -7.6146   23.9712 H   0  0  0  0  0  0
  -21.1481   -6.0523   25.9076 H   0  0  0  0  0  0
  -22.0600   -2.7607   23.2847 H   0  0  0  0  0  0
  -22.4098  -11.9889   22.4806 H   0  0  0  0  0  0
  -21.1112  -13.1266   22.2610 H   0  0  0  0  0  0
  -24.6476  -15.8283   20.4797 H   0  0  0  0  0  0
  -26.2426  -15.6040   19.9737 H   0  0  0  0  0  0
  -26.7171  -32.5445   23.1090 H   0  0  0  0  0  0
  -25.0071  -33.9724   25.0418 H   0  0  0  0  0  0
  -22.7112  -31.3042   21.4017 H   0  0  0  0  0  0
  -23.3751  -35.9626   23.3307 H   0  0  0  0  0  0
  -24.3579  -36.8906   22.2051 H   0  0  0  0  0  0
  -23.7242  -37.6496   23.6658 H   0  0  0  0  0  0
  -26.0880  -31.5547   20.6011 H   0  0  0  0  0  0
  -26.8386  -30.8402   21.9981 H   0  0  0  0  0  0
  -28.1126  -29.0012   21.1570 H   0  0  0  0  0  0
  -25.9277  -25.9121   19.0600 H   0  0  0  0  0  0
  -23.9587  -27.2833   19.0557 H   0  0  0  0  0  0
  -23.7504  -30.5896   19.4027 H   0  0  0  0  0  0
  -22.7491  -29.2455   19.8602 H   0  0  0  0  0  0
  -25.1297  -36.1935   25.0823 H   0  0  0  0  0  0
  -20.9985  -28.3260   24.1410 H   0  0  0  0  0  0
  -20.5678  -26.2292   23.3611 H   0  0  0  0  0  0
  -21.6643  -26.7445   22.1204 H   0  0  0  0  0  0
  -19.6906  -25.6300   21.1244 H   0  0  0  0  0  0
  -19.6688  -27.3202   20.6750 H   0  0  0  0  0  0
  -17.4199  -26.6687   21.4029 H   0  0  0  0  0  0
  -18.0326  -26.0079   22.9025 H   0  0  0  0  0  0
  -19.7935  -30.7276   24.2277 H   0  0  0  0  0  0
  -17.5011  -31.6272   24.5165 H   0  0  0  0  0  0
  -15.5351  -30.2991   23.7651 H   0  0  0  0  0  0
  -15.8675  -28.0827   22.7062 H   0  0  0  0  0  0
  -24.5907  -30.7067   25.7777 H   0  0  0  0  0  0
  -24.8912  -32.2890   26.4866 H   0  0  0  0  0  0
  -25.8055  -30.8912   27.0221 H   0  0  0  0  0  0
  -26.2899  -29.6778   24.1180 H   0  0  0  0  0  0
  -27.4020  -29.7263   25.4662 H   0  0  0  0  0  0
  -27.8770  -30.4302   23.9385 H   0  0  0  0  0  0
  -27.2664  -33.3617   26.2076 H   0  0  0  0  0  0
  -28.3865  -32.6886   25.0325 H   0  0  0  0  0  0
  -28.0718  -31.8442   26.5402 H   0  0  0  0  0  0
  -28.2603  -38.0097   24.7507 H   0  0  0  0  0  0
  -28.1069  -36.2628   24.6303 H   0  0  0  0  0  0
  -27.2297  -37.1467   25.8871 H   0  0  0  0  0  0
  -20.9345  -29.8764   21.6903 H   0  0  0  0  0  0
  -26.0175  -38.2853   24.1399 H   0  0  0  0  0  0
  -27.6494  -17.3068   20.5379 H   0  0  0  0  0  0
  -31.9262  -17.4096   20.9789 H   0  0  0  0  0  0
  -31.2969  -22.3037   17.5081 H   0  0  0  0  0  0
  -31.4796  -21.6604   19.2132 H   0  0  0  0  0  0
  -28.1571  -22.8141   17.2224 H   0  0  0  0  0  0
  -29.5043  -23.8989   17.0380 H   0  0  0  0  0  0
  -27.0135  -24.2578   18.6111 H   0  0  0  0  0  0
  -27.8868  -25.4486   17.6561 H   0  0  0  0  0  0
  -29.4794  -24.2208   21.4596 H   0  0  0  0  0  0
  -27.7717  -23.9313   21.2678 H   0  0  0  0  0  0
  -29.7041  -25.3012   19.3893 H   0  0  0  0  0  0
  -30.5732  -21.9969   21.4154 H   0  0  0  0  0  0
  -29.0034  -21.6977   22.0421 H   0  0  0  0  0  0
  -28.8176  -15.2925   21.0291 H   0  0  0  0  0  0
  -28.0805  -22.2092   19.9717 H   0  0  0  0  0  0
  1 25  1  0  0  0
  1 30  2  0  0  0
  1 84  1  0  0  0
  2  3  1  0  0  0
  2 25  1  0  0  0
  2 88  1  0  0  0
  2 89  1  0  0  0
  3  4  1  0  0  0
  3 90  1  0  0  0
  3 91  1  0  0  0
  4  5  1  0  0  0
  4 92  1  0  0  0
  4 93  1  0  0  0
  5  6  1  0  0  0
  5 26  1  0  0  0
  5 94  1  0  0  0
  6 25  1  0  0  0
  6 95  1  0  0  0
  6 96  1  0  0  0
  7  8  2  0  0  0
  7 26  1  0  0  0
  7 29  1  0  0  0
  8  9  1  0  0  0
  8 22  1  0  0  0
  9 10  1  0  0  0
  9 27  2  0  0  0
 10 11  2  0  0  0
 10 15  1  0  0  0
 11 12  1  0  0  0
 11 97  1  0  0  0
 12 13  2  0  0  0
 12 98  1  0  0  0
 13 14  1  0  0  0
 13 31  1  0  0  0
 14 15  2  0  0  0
 14 99  1  0  0  0
 15100  1  0  0  0
 16 17  2  0  0  0
 16 21  1  0  0  0
 16 31  1  0  0  0
 17 18  1  0  0  0
 17101  1  0  0  0
 18 19  2  0  0  0
 18102  1  0  0  0
 19 20  1  0  0  0
 19 24  1  0  0  0
 20 21  2  0  0  0
 20103  1  0  0  0
 21 23  1  0  0  0
 22 28  1  0  0  0
 22 32  2  0  0  0
 26 27  1  0  0  0
 28104  1  0  0  0
 28105  1  0  0  0
 29106  1  0  0  0
 29107  1  0  0  0
 33 34  1  0  0  0
 33 66  1  0  0  0
 33 70  2  0  0  0
 34 36  1  0  0  0
 34 59  1  0  0  0
 34108  1  0  0  0
 35 44  2  0  0  0
 35 45  1  0  0  0
 35 68  1  0  0  0
 36 56  1  0  0  0
 36109  1  0  0  0
 37 39  1  0  0  0
 37 47  1  0  0  0
 37 66  1  0  0  0
 37110  1  0  0  0
 38 43  2  0  0  0
 38 46  1  0  0  0
 38 47  1  0  0  0
 39 64  1  0  0  0
 39 67  2  0  0  0
 40 52  1  0  0  0
 40 53  2  0  0  0
 40 58  1  0  0  0
 41111  1  0  0  0
 41112  1  0  0  0
 41113  1  0  0  0
 41 48  1  0  0  0
 42 43  1  0  0  0
 42 66  1  0  0  0
 42114  1  0  0  0
 42115  1  0  0  0
 43 44  1  0  0  0
 44116  1  0  0  0
 45 46  2  0  0  0
 45117  1  0  0  0
 46118  1  0  0  0
 47119  1  0  0  0
 47120  1  0  0  0
 48 56  1  0  0  0
 48 65  1  0  0  0
 48121  1  0  0  0
 49 50  1  0  0  0
 49 53  1  0  0  0
 49 64  1  0  0  0
 49122  1  0  0  0
 50 51  1  0  0  0
 50123  1  0  0  0
 50124  1  0  0  0
 51 52  1  0  0  0
 51125  1  0  0  0
 51126  1  0  0  0
 52127  1  0  0  0
 52128  1  0  0  0
 53 54  1  0  0  0
 54 55  2  0  0  0
 54129  1  0  0  0
 55 57  1  0  0  0
 55130  1  0  0  0
 56 69  2  0  0  0
 57 58  2  0  0  0
 57131  1  0  0  0
 58132  1  0  0  0
 59 60  1  0  0  0
 59 61  1  0  0  0
 59 62  1  0  0  0
 60133  1  0  0  0
 60134  1  0  0  0
 60135  1  0  0  0
 61136  1  0  0  0
 61137  1  0  0  0
 61138  1  0  0  0
 62139  1  0  0  0
 62140  1  0  0  0
 62141  1  0  0  0
 63 65  1  0  0  0
 63142  1  0  0  0
 63143  1  0  0  0
 63144  1  0  0  0
 64145  1  0  0  0
 65146  1  0  0  0
 68 82  1  0  0  0
 71 74  2  0  0  0
 71 75  1  0  0  0
 71147  1  0  0  0
 72 74  1  0  0  0
 72 76  2  0  0  0
 72148  1  0  0  0
 73 75  2  0  0  0
 73 76  1  0  0  0
 73 83  1  0  0  0
 74 84  1  0  0  0
 75 86  1  0  0  0
 76 87  1  0  0  0
 77 78  2  0  0  0
 77 79  1  0  0  0
 77 85  1  0  0  0
 78149  1  0  0  0
 78150  1  0  0  0
 79 80  1  0  0  0
 79151  1  0  0  0
 79152  1  0  0  0
 80 82  1  0  0  0
 80153  1  0  0  0
 80154  1  0  0  0
 81 82  1  0  0  0
 81 85  1  0  0  0
 81155  1  0  0  0
 81156  1  0  0  0
 82157  1  0  0  0
 83158  1  0  0  0
 83159  1  0  0  0
 83 85  1  0  0  0
 84160  1  0  0  0
 85161  1  0  0  0
M  CHG  1  85   1
M  ISO  4   1 100  68 101  82 101  84 100
M  END
> <chiral flag>
0

> <version>
0

> <s_m_source_file>
/data/baiqing/PycharmProjects/Reinvent-master-3.2/result/LINK_invent/BTK/process_docking_weight1_custom_product_contain_oxygen_bond_distance_aromatic_linkinvent_7_9_3/rearranged_h_0037.sdf

> <i_m_source_file_index>
59

> <r_mmod_Potential_Energy-OPLS-2005>
-1.20750188827515

> <r_mmod_Stretch_Energy-OPLS-2005>
84.4864120483398

> <r_mmod_Bend_Energy-OPLS-2005>
201.565414428711

> <r_mmod_Torsional_Energy-OPLS-2005>
234.138153076172

> <r_mmod_Improper_Torsional_Energy-OPLS-2005>
6.64124917984009

> <r_mmod_Van_der_Waal_Energy-OPLS-2005>
149.913497924805

> <r_mmod_Electrostatic_Energy-OPLS-2005>
-297.834411621094

> <r_mmod_Solvation_Energy-OPLS-2005>
-423.6796875

> <b_mmod_Minimization_Converged-OPLS-2005>
0

> <r_mmod_RMS_Derivative-OPLS-2005>
0.478789895772934

$$$$
59
                    3D
 Structure written by MMmdl.
164173  0  0  1  0            999 V2000
  -30.6076  -14.7603   20.4660 C   0  0  0  0  0  0
  -30.4427  -12.4480   19.5122 C   0  0  0  0  0  0
  -29.5300  -12.4606   18.2646 C   0  0  0  0  0  0
  -28.0471  -12.3227   18.6626 C   0  0  0  0  0  0
  -27.6491  -13.2296   19.8593 C   0  0  2  0  0  0
  -28.6873  -13.1710   21.0036 C   0  0  0  0  0  0
  -25.2520  -13.8199   20.5680 C   0  0  0  0  0  0
  -24.1805  -13.0459   20.9184 C   0  0  0  0  0  0
  -24.6392  -11.6936   20.8742 C   0  0  0  0  0  0
  -23.9066  -10.4314   21.0399 C   0  0  0  0  0  0
  -24.3618   -9.4226   21.9169 C   0  0  0  0  0  0
  -23.6297   -8.2262   22.0748 C   0  0  0  0  0  0
  -22.4277   -8.0290   21.3542 C   0  0  0  0  0  0
  -21.9909   -9.0262   20.4643 C   0  0  0  0  0  0
  -22.7238  -10.2147   20.3050 C   0  0  0  0  0  0
  -21.6859   -6.0732   22.5269 C   0  0  0  0  0  0
  -21.4023   -6.5636   23.8204 C   0  0  0  0  0  0
  -21.3656   -5.6786   24.9161 C   0  0  0  0  0  0
  -21.6044   -4.3052   24.7215 C   0  0  0  0  0  0
  -21.8824   -3.8145   23.4337 C   0  0  0  0  0  0
  -21.9202   -4.6957   22.3395 C   0  0  0  0  0  0
  -22.7829  -13.5242   21.1848 C   0  0  0  0  0  0
  -22.1668   -4.2143   21.0972 F   0  0  0  0  0  0
  -21.5622   -3.4540   25.7727 F   0  0  0  0  0  0
  -29.9976  -13.5212   20.4370 N   0  0  0  0  0  0
  -26.2969  -12.9411   20.3329 N   0  0  0  0  0  0
  -25.9325  -11.6557   20.5775 N   0  0  0  0  0  0
  -22.0487  -12.8238   22.0406 N   0  0  0  0  0  0
  -25.4223  -15.1928   20.4094 N   0  0  0  0  0  0
  -31.7699  -14.8761   20.0681 O   0  0  0  0  0  0
  -21.6658   -6.8877   21.4229 O   0  0  0  0  0  0
  -22.3512  -14.5537   20.6667 O   0  0  0  0  0  0
  -24.6294  -31.8547   23.1978 C   0  0  0  0  0  0
  -25.9118  -32.4754   23.8324 C   0  0  1  0  0  0
  -27.2156  -27.2548   20.1737 C   0  0  0  0  0  0
  -25.5916  -33.8558   24.2238 N   0  0  0  0  0  0
  -23.4291  -30.4751   21.5384 C   0  0  2  0  0  0
  -24.8804  -28.9195   20.1125 C   0  0  0  0  0  0
  -22.7516  -29.4583   22.4900 C   0  0  0  0  0  0
  -18.0290  -28.1383   22.8486 C   0  0  0  0  0  0
  -24.1474  -36.7265   23.2643 C   0  0  0  0  0  0
  -25.9738  -30.7694   21.3809 C   0  0  0  0  0  0
  -26.0472  -29.3885   20.7311 C   0  0  0  0  0  0
  -27.2198  -28.5687   20.7503 C   0  0  0  0  0  0
  -26.0416  -26.8645   19.4970 C   0  0  0  0  0  0
  -24.8833  -27.6659   19.4791 C   0  0  0  0  0  0
  -23.6508  -29.8045   20.1550 C   0  0  0  0  0  0
  -25.4107  -36.3067   24.0328 C   0  0  1  0  0  0
  -20.5898  -28.3688   23.1268 C   0  0  2  0  0  0
  -20.6772  -26.9403   22.5413 C   0  0  0  0  0  0
  -19.5743  -26.6376   21.5216 C   0  0  0  0  0  0
  -18.1924  -26.7926   22.1633 C   0  0  0  0  0  0
  -19.1545  -28.8856   23.2869 C   0  0  0  0  0  0
  -18.9469  -30.1463   23.8885 C   0  0  0  0  0  0
  -17.6464  -30.6587   24.0560 C   0  0  0  0  0  0
  -25.9046  -34.9445   23.5090 C   0  0  0  0  0  0
  -16.5355  -29.9089   23.6332 C   0  0  0  0  0  0
  -16.7270  -28.6507   23.0349 C   0  0  0  0  0  0
  -26.4483  -31.6595   25.0723 C   0  0  0  0  0  0
  -25.3705  -31.3761   26.1448 C   0  0  0  0  0  0
  -27.0348  -30.3008   24.6245 C   0  0  0  0  0  0
  -27.6029  -32.4346   25.7505 C   0  0  0  0  0  0
  -27.5570  -37.1785   24.8468 C   0  0  0  0  0  0
  -21.4221  -29.3036   22.3667 N   0  0  0  0  0  0
  -26.4273  -37.3776   23.9420 N   0  0  0  0  0  0
  -24.6960  -31.0528   22.0940 N   0  0  0  0  0  0
  -23.4232  -28.8130   23.2994 O   0  0  0  0  0  0
  -28.3030  -26.3536   20.2033 O   0  0  0  0  0  0
  -26.5637  -34.8927   22.4667 O   0  0  0  0  0  0
  -23.5442  -32.1353   23.7264 O   0  0  0  0  0  0
  -29.2432  -19.8114   18.9991 C   0  0  0  0  0  0
  -29.8010  -18.4964   20.9693 C   0  0  0  0  0  0
  -29.5628  -19.8069   20.3650 C   0  0  0  0  0  0
  -29.1566  -18.6139   18.2622 C   0  0  0  0  0  0
  -29.7506  -17.2329   20.2358 C   0  0  0  0  0  0
  -29.4114  -17.3515   18.8570 C   0  0  0  0  0  0
  -27.3915  -22.1440   21.5979 C   0  0  0  0  0  0
  -26.6748  -21.0403   21.3236 C   0  0  0  0  0  0
  -26.8904  -23.3562   22.3700 C   0  0  0  0  0  0
  -26.8357  -24.6224   21.4849 C   0  0  0  0  0  0
  -28.8826  -23.6693   20.2554 C   0  0  0  0  0  0
  -28.2242  -25.0080   20.9036 C   0  0  2  0  0  0
  -28.7745  -18.7049   16.7962 C   0  0  0  0  0  0
  -29.7935  -21.2282   21.0612 C   0  0  0  0  0  0
  -29.8681  -15.8743   20.8515 N   0  0  0  0  0  0
  -28.7873  -22.4057   21.1363 N   0  3  2  0  0  0
  -29.2320  -15.9586   17.8478 Cl  0  0  0  0  0  0
  -31.4843  -12.5688   19.2123 H   0  0  0  0  0  0
  -30.3908  -11.4788   20.0101 H   0  0  0  0  0  0
  -29.8078  -11.6457   17.5946 H   0  0  0  0  0  0
  -29.6916  -13.3708   17.6936 H   0  0  0  0  0  0
  -27.8834  -11.2777   18.9276 H   0  0  0  0  0  0
  -27.4044  -12.5227   17.8047 H   0  0  0  0  0  0
  -27.6435  -14.2497   19.4782 H   0  0  0  0  0  0
  -28.7171  -12.1785   21.4553 H   0  0  0  0  0  0
  -28.4091  -13.8566   21.8058 H   0  0  0  0  0  0
  -25.2766   -9.5712   22.4742 H   0  0  0  0  0  0
  -24.0012   -7.4658   22.7471 H   0  0  0  0  0  0
  -21.0841   -8.8779   19.8954 H   0  0  0  0  0  0
  -22.3687  -10.9679   19.6163 H   0  0  0  0  0  0
  -21.2022   -7.6149   23.9697 H   0  0  0  0  0  0
  -21.1464   -6.0522   25.9061 H   0  0  0  0  0  0
  -22.0608   -2.7609   23.2839 H   0  0  0  0  0  0
  -22.4112  -11.9930   22.4837 H   0  0  0  0  0  0
  -21.1077  -13.1226   22.2570 H   0  0  0  0  0  0
  -24.6443  -15.8396   20.4850 H   0  0  0  0  0  0
  -26.2696  -15.6332   20.0747 H   0  0  0  0  0  0
  -26.7209  -32.5411   23.1094 H   0  0  0  0  0  0
  -25.0065  -33.9695   25.0386 H   0  0  0  0  0  0
  -22.7223  -31.2943   21.3884 H   0  0  0  0  0  0
  -23.3743  -35.9591   23.3314 H   0  0  0  0  0  0
  -24.3551  -36.8875   22.2052 H   0  0  0  0  0  0
  -23.7219  -37.6466   23.6658 H   0  0  0  0  0  0
  -26.1157  -31.5276   20.6098 H   0  0  0  0  0  0
  -26.8500  -30.8205   22.0162 H   0  0  0  0  0  0
  -28.1129  -28.9245   21.2466 H   0  0  0  0  0  0
  -26.0117  -25.9062   18.9991 H   0  0  0  0  0  0
  -23.9968  -27.3054   18.9738 H   0  0  0  0  0  0
  -23.7731  -30.5762   19.3946 H   0  0  0  0  0  0
  -22.7728  -29.2316   19.8509 H   0  0  0  0  0  0
  -25.1287  -36.1910   25.0820 H   0  0  0  0  0  0
  -20.9978  -28.3265   24.1392 H   0  0  0  0  0  0
  -20.5635  -26.2312   23.3626 H   0  0  0  0  0  0
  -21.6644  -26.7394   22.1232 H   0  0  0  0  0  0
  -19.6890  -25.6282   21.1254 H   0  0  0  0  0  0
  -19.6672  -27.3185   20.6746 H   0  0  0  0  0  0
  -17.4190  -26.6661   21.4038 H   0  0  0  0  0  0
  -18.0323  -26.0066   22.9032 H   0  0  0  0  0  0
  -19.7940  -30.7284   24.2240 H   0  0  0  0  0  0
  -17.5015  -31.6260   24.5170 H   0  0  0  0  0  0
  -15.5350  -30.2987   23.7651 H   0  0  0  0  0  0
  -15.8672  -28.0822   22.7057 H   0  0  0  0  0  0
  -24.5887  -30.7097   25.7781 H   0  0  0  0  0  0
  -24.8891  -32.2944   26.4824 H   0  0  0  0  0  0
  -25.8025  -30.8976   27.0252 H   0  0  0  0  0  0
  -26.2963  -29.6758   24.1220 H   0  0  0  0  0  0
  -27.3962  -29.7273   25.4790 H   0  0  0  0  0  0
  -27.8862  -30.4262   23.9556 H   0  0  0  0  0  0
  -27.2622  -33.3653   26.2062 H   0  0  0  0  0  0
  -28.3863  -32.6905   25.0353 H   0  0  0  0  0  0
  -28.0688  -31.8493   26.5445 H   0  0  0  0  0  0
  -28.2593  -38.0077   24.7528 H   0  0  0  0  0  0
  -28.1064  -36.2615   24.6282 H   0  0  0  0  0  0
  -27.2299  -37.1426   25.8874 H   0  0  0  0  0  0
  -20.9409  -29.8775   21.6886 H   0  0  0  0  0  0
  -26.0147  -38.2847   24.1435 H   0  0  0  0  0  0
  -29.0756  -20.7541   18.4964 H   0  0  0  0  0  0
  -30.0561  -18.4633   22.0194 H   0  0  0  0  0  0
  -27.0571  -20.2132   20.7487 H   0  0  0  0  0  0
  -25.6586  -20.9546   21.6824 H   0  0  0  0  0  0
  -27.5344  -23.5236   23.2348 H   0  0  0  0  0  0
  -25.9008  -23.1433   22.7764 H   0  0  0  0  0  0
  -26.4314  -25.4446   22.0774 H   0  0  0  0  0  0
  -26.1232  -24.4367   20.6829 H   0  0  0  0  0  0
  -28.4032  -23.4631   19.2979 H   0  0  0  0  0  0
  -29.9317  -23.8668   20.0361 H   0  0  0  0  0  0
  -28.8357  -25.2064   21.7846 H   0  0  0  0  0  0
  -28.4262  -19.7039   16.5311 H   0  0  0  0  0  0
  -27.9650  -18.0109   16.5706 H   0  0  0  0  0  0
  -29.6324  -18.4606   16.1687 H   0  0  0  0  0  0
  -30.7276  -21.6296   20.6670 H   0  0  0  0  0  0
  -30.0197  -20.9979   22.1017 H   0  0  0  0  0  0
  -29.0746  -15.6294   21.4233 H   0  0  0  0  0  0
  -29.2138  -22.8054   21.9595 H   0  0  0  0  0  0
  1 25  1  0  0  0
  1 30  2  0  0  0
  1 85  1  0  0  0
  2  3  1  0  0  0
  2 25  1  0  0  0
  2 88  1  0  0  0
  2 89  1  0  0  0
  3  4  1  0  0  0
  3 90  1  0  0  0
  3 91  1  0  0  0
  4  5  1  0  0  0
  4 92  1  0  0  0
  4 93  1  0  0  0
  5  6  1  0  0  0
  5 26  1  0  0  0
  5 94  1  0  0  0
  6 25  1  0  0  0
  6 95  1  0  0  0
  6 96  1  0  0  0
  7  8  2  0  0  0
  7 26  1  0  0  0
  7 29  1  0  0  0
  8  9  1  0  0  0
  8 22  1  0  0  0
  9 10  1  0  0  0
  9 27  2  0  0  0
 10 11  2  0  0  0
 10 15  1  0  0  0
 11 12  1  0  0  0
 11 97  1  0  0  0
 12 13  2  0  0  0
 12 98  1  0  0  0
 13 14  1  0  0  0
 13 31  1  0  0  0
 14 15  2  0  0  0
 14 99  1  0  0  0
 15100  1  0  0  0
 16 17  2  0  0  0
 16 21  1  0  0  0
 16 31  1  0  0  0
 17 18  1  0  0  0
 17101  1  0  0  0
 18 19  2  0  0  0
 18102  1  0  0  0
 19 20  1  0  0  0
 19 24  1  0  0  0
 20 21  2  0  0  0
 20103  1  0  0  0
 21 23  1  0  0  0
 22 28  1  0  0  0
 22 32  2  0  0  0
 26 27  1  0  0  0
 28104  1  0  0  0
 28105  1  0  0  0
 29106  1  0  0  0
 29107  1  0  0  0
 33 34  1  0  0  0
 33 66  1  0  0  0
 33 70  2  0  0  0
 34 36  1  0  0  0
 34 59  1  0  0  0
 34108  1  0  0  0
 35 44  2  0  0  0
 35 45  1  0  0  0
 35 68  1  0  0  0
 36 56  1  0  0  0
 36109  1  0  0  0
 37 39  1  0  0  0
 37 47  1  0  0  0
 37 66  1  0  0  0
 37110  1  0  0  0
 38 43  2  0  0  0
 38 46  1  0  0  0
 38 47  1  0  0  0
 39 64  1  0  0  0
 39 67  2  0  0  0
 40 52  1  0  0  0
 40 53  2  0  0  0
 40 58  1  0  0  0
 41111  1  0  0  0
 41112  1  0  0  0
 41113  1  0  0  0
 41 48  1  0  0  0
 42 43  1  0  0  0
 42 66  1  0  0  0
 42114  1  0  0  0
 42115  1  0  0  0
 43 44  1  0  0  0
 44116  1  0  0  0
 45 46  2  0  0  0
 45117  1  0  0  0
 46118  1  0  0  0
 47119  1  0  0  0
 47120  1  0  0  0
 48 56  1  0  0  0
 48 65  1  0  0  0
 48121  1  0  0  0
 49 50  1  0  0  0
 49 53  1  0  0  0
 49 64  1  0  0  0
 49122  1  0  0  0
 50 51  1  0  0  0
 50123  1  0  0  0
 50124  1  0  0  0
 51 52  1  0  0  0
 51125  1  0  0  0
 51126  1  0  0  0
 52127  1  0  0  0
 52128  1  0  0  0
 53 54  1  0  0  0
 54 55  2  0  0  0
 54129  1  0  0  0
 55 57  1  0  0  0
 55130  1  0  0  0
 56 69  2  0  0  0
 57 58  2  0  0  0
 57131  1  0  0  0
 58132  1  0  0  0
 59 60  1  0  0  0
 59 61  1  0  0  0
 59 62  1  0  0  0
 60133  1  0  0  0
 60134  1  0  0  0
 60135  1  0  0  0
 61136  1  0  0  0
 61137  1  0  0  0
 61138  1  0  0  0
 62139  1  0  0  0
 62140  1  0  0  0
 62141  1  0  0  0
 63 65  1  0  0  0
 63142  1  0  0  0
 63143  1  0  0  0
 63144  1  0  0  0
 64145  1  0  0  0
 65146  1  0  0  0
 68 82  1  0  0  0
 71 73  2  0  0  0
 71 74  1  0  0  0
 71147  1  0  0  0
 72 73  1  0  0  0
 72 75  2  0  0  0
 72148  1  0  0  0
 73 84  1  0  0  0
 74 76  2  0  0  0
 74 83  1  0  0  0
 75 76  1  0  0  0
 75 85  1  0  0  0
 76 87  1  0  0  0
 77 78  2  0  0  0
 77 79  1  0  0  0
 77 86  1  0  0  0
 78149  1  0  0  0
 78150  1  0  0  0
 79 80  1  0  0  0
 79151  1  0  0  0
 79152  1  0  0  0
 80 82  1  0  0  0
 80153  1  0  0  0
 80154  1  0  0  0
 81 82  1  0  0  0
 81 86  1  0  0  0
 81155  1  0  0  0
 81156  1  0  0  0
 82157  1  0  0  0
 83158  1  0  0  0
 83159  1  0  0  0
 83160  1  0  0  0
 84161  1  0  0  0
 84162  1  0  0  0
 84 86  1  0  0  0
 85163  1  0  0  0
 86164  1  0  0  0
M  CHG  1  86   1
M  ISO  4   1 100  68 101  82 101  85 100
M  END
> <chiral flag>
0

> <version>
0

> <s_m_source_file>
/data/baiqing/PycharmProjects/Reinvent-master-3.2/result/LINK_invent/BTK/process_docking_weight1_custom_product_contain_oxygen_bond_distance_aromatic_linkinvent_7_9_3/rearranged_h_0037.sdf

> <i_m_source_file_index>
60

> <r_mmod_Potential_Energy-OPLS-2005>
152.96321105957

> <r_mmod_Stretch_Energy-OPLS-2005>
136.772216796875

> <r_mmod_Bend_Energy-OPLS-2005>
219.528610229492

> <r_mmod_Torsional_Energy-OPLS-2005>
288.395141601562

> <r_mmod_Improper_Torsional_Energy-OPLS-2005>
5.19486808776855

> <r_mmod_Van_der_Waal_Energy-OPLS-2005>
139.617874145508

> <r_mmod_Electrostatic_Energy-OPLS-2005>
-284.516082763672

> <r_mmod_Solvation_Energy-OPLS-2005>
-443.513854980469

> <b_mmod_Minimization_Converged-OPLS-2005>
0

> <r_mmod_RMS_Derivative-OPLS-2005>
2.61736178398132

$$$$
60
                    3D
 Structure written by MMmdl.
162170  0  0  1  0            999 V2000
  -30.6742  -14.4749   20.5969 C   0  0  0  0  0  0
  -30.4304  -12.3214   19.4097 C   0  0  0  0  0  0
  -29.4933  -12.5261   18.2008 C   0  0  0  0  0  0
  -28.0156  -12.3767   18.6133 C   0  0  0  0  0  0
  -27.6637  -13.2018   19.8799 C   0  0  2  0  0  0
  -28.7054  -12.9532   20.9945 C   0  0  0  0  0  0
  -25.2598  -13.8131   20.5724 C   0  0  0  0  0  0
  -24.1847  -13.0423   20.9208 C   0  0  0  0  0  0
  -24.6398  -11.6888   20.8733 C   0  0  0  0  0  0
  -23.9060  -10.4287   21.0395 C   0  0  0  0  0  0
  -24.3624   -9.4223   21.9175 C   0  0  0  0  0  0
  -23.6298   -8.2258   22.0760 C   0  0  0  0  0  0
  -22.4274   -8.0283   21.3559 C   0  0  0  0  0  0
  -21.9906   -9.0261   20.4665 C   0  0  0  0  0  0
  -22.7232  -10.2132   20.3055 C   0  0  0  0  0  0
  -21.6851   -6.0738   22.5278 C   0  0  0  0  0  0
  -21.4015   -6.5648   23.8213 C   0  0  0  0  0  0
  -21.3663   -5.6796   24.9170 C   0  0  0  0  0  0
  -21.6050   -4.3056   24.7222 C   0  0  0  0  0  0
  -21.8824   -3.8151   23.4338 C   0  0  0  0  0  0
  -21.9194   -4.6968   22.3397 C   0  0  0  0  0  0
  -22.7866  -13.5240   21.1853 C   0  0  0  0  0  0
  -22.1640   -4.2152   21.0970 F   0  0  0  0  0  0
  -21.5652   -3.4548   25.7744 F   0  0  0  0  0  0
  -30.0383  -13.2797   20.4549 N   0  0  0  0  0  0
  -26.3038  -12.9299   20.3393 N   0  0  0  0  0  0
  -25.9317  -11.6462   20.5760 N   0  0  0  0  0  0
  -22.0474  -12.8247   22.0400 N   0  0  0  0  0  0
  -25.4304  -15.1860   20.4175 N   0  0  0  0  0  0
  -31.7725  -14.7219   20.0877 O   0  0  0  0  0  0
  -21.6638   -6.8882   21.4238 O   0  0  0  0  0  0
  -22.3573  -14.5551   20.6681 O   0  0  0  0  0  0
  -24.6135  -31.8660   23.2054 C   0  0  0  0  0  0
  -25.9028  -32.4810   23.8352 C   0  0  1  0  0  0
  -27.2477  -27.4345   20.0836 C   0  0  0  0  0  0
  -25.5894  -33.8608   24.2285 N   0  0  0  0  0  0
  -23.4018  -30.4867   21.5446 C   0  0  2  0  0  0
  -24.8506  -28.9466   20.1128 C   0  0  0  0  0  0
  -22.7399  -29.4643   22.4958 C   0  0  0  0  0  0
  -18.0277  -28.1378   22.8493 C   0  0  0  0  0  0
  -24.1495  -36.7311   23.2634 C   0  0  0  0  0  0
  -25.9292  -30.8276   21.3600 C   0  0  0  0  0  0
  -26.0060  -29.4595   20.7127 C   0  0  0  0  0  0
  -27.2003  -28.7047   20.7049 C   0  0  0  0  0  0
  -26.0715  -26.9325   19.4817 C   0  0  0  0  0  0
  -24.8773  -27.6811   19.5000 C   0  0  0  0  0  0
  -23.6121  -29.8135   20.1604 C   0  0  0  0  0  0
  -25.4119  -36.3103   24.0322 C   0  0  1  0  0  0
  -20.5867  -28.3660   23.1325 C   0  0  2  0  0  0
  -20.6775  -26.9394   22.5422 C   0  0  0  0  0  0
  -19.5755  -26.6378   21.5224 C   0  0  0  0  0  0
  -18.1930  -26.7923   22.1624 C   0  0  0  0  0  0
  -19.1524  -28.8837   23.2910 C   0  0  0  0  0  0
  -18.9453  -30.1440   23.8919 C   0  0  0  0  0  0
  -17.6460  -30.6585   24.0568 C   0  0  0  0  0  0
  -25.9043  -34.9469   23.5103 C   0  0  0  0  0  0
  -16.5355  -29.9082   23.6327 C   0  0  0  0  0  0
  -16.7266  -28.6500   23.0347 C   0  0  0  0  0  0
  -26.4469  -31.6588   25.0675 C   0  0  0  0  0  0
  -25.3751  -31.3709   26.1430 C   0  0  0  0  0  0
  -27.0292  -30.3029   24.6046 C   0  0  0  0  0  0
  -27.6036  -32.4308   25.7460 C   0  0  0  0  0  0
  -27.5589  -37.1807   24.8465 C   0  0  0  0  0  0
  -21.4128  -29.3020   22.3717 N   0  0  0  0  0  0
  -26.4303  -37.3793   23.9405 N   0  0  0  0  0  0
  -24.6660  -31.0763   22.0950 N   0  0  0  0  0  0
  -23.4178  -28.8213   23.3016 O   0  0  0  0  0  0
  -28.4395  -26.7354   20.1209 O   0  0  0  0  0  0
  -26.5612  -34.8929   22.4668 O   0  0  0  0  0  0
  -23.5331  -32.1409   23.7446 O   0  0  0  0  0  0
  -30.4338  -19.1334   21.4908 C   0  0  0  0  0  0
  -28.9088  -17.2431   20.1019 C   0  0  0  0  0  0
  -30.6630  -17.7512   21.7097 C   0  0  0  0  0  0
  -29.4341  -19.5903   20.5965 C   0  0  0  0  0  0
  -29.8942  -16.7894   21.0066 C   0  0  0  0  0  0
  -28.6768  -18.6213   19.8930 C   0  0  0  0  0  0
  -28.6368  -23.0885   21.9994 C   0  0  0  0  0  0
  -31.7136  -17.3419   22.7291 C   0  0  0  0  0  0
  -28.4900  -23.3933   23.4617 C   0  0  0  0  0  0
  -29.1950  -21.1015   20.4120 C   0  0  0  0  0  0
  -28.4004  -24.2370   19.6885 C   0  0  0  0  0  0
  -28.7086  -25.6740   19.1885 C   0  0  0  0  0  0
  -29.9758  -15.3936   21.2912 N   0  0  0  0  0  0
  -28.4513  -24.1369   21.1553 N   0  0  0  0  0  0
  -28.9361  -21.7991   21.6860 N   0  3  0  0  0  0
  -27.4301  -19.0805   18.7884 Cl  0  0  0  0  0  0
  -31.4704  -12.4484   19.1048 H   0  0  0  0  0  0
  -30.3520  -11.3025   19.7908 H   0  0  0  0  0  0
  -29.7344  -11.8133   17.4111 H   0  0  0  0  0  0
  -29.6550  -13.5188   17.7757 H   0  0  0  0  0  0
  -27.8251  -11.3176   18.7970 H   0  0  0  0  0  0
  -27.3630  -12.6608   17.7863 H   0  0  0  0  0  0
  -27.7114  -14.2547   19.6025 H   0  0  0  0  0  0
  -28.6872  -11.9061   21.3000 H   0  0  0  0  0  0
  -28.4526  -13.5138   21.8945 H   0  0  0  0  0  0
  -25.2790   -9.5716   22.4722 H   0  0  0  0  0  0
  -24.0030   -7.4670   22.7495 H   0  0  0  0  0  0
  -21.0830   -8.8784   19.8981 H   0  0  0  0  0  0
  -22.3702  -10.9665   19.6158 H   0  0  0  0  0  0
  -21.1981   -7.6158   23.9713 H   0  0  0  0  0  0
  -21.1480   -6.0522   25.9077 H   0  0  0  0  0  0
  -22.0600   -2.7611   23.2829 H   0  0  0  0  0  0
  -22.4074  -11.9926   22.4825 H   0  0  0  0  0  0
  -21.1082  -13.1281   22.2557 H   0  0  0  0  0  0
  -24.6612  -15.8378   20.5293 H   0  0  0  0  0  0
  -26.2810  -15.6321   20.1041 H   0  0  0  0  0  0
  -26.7098  -32.5521   23.1115 H   0  0  0  0  0  0
  -25.0061  -33.9774   25.0445 H   0  0  0  0  0  0
  -22.6911  -31.3033   21.4020 H   0  0  0  0  0  0
  -23.3752  -35.9653   23.3312 H   0  0  0  0  0  0
  -24.3597  -36.8915   22.2049 H   0  0  0  0  0  0
  -23.7256  -37.6520   23.6649 H   0  0  0  0  0  0
  -26.0421  -31.5879   20.5862 H   0  0  0  0  0  0
  -26.8179  -30.8842   21.9760 H   0  0  0  0  0  0
  -28.0930  -29.0979   21.1708 H   0  0  0  0  0  0
  -26.0568  -25.9648   19.0030 H   0  0  0  0  0  0
  -23.9853  -27.2773   19.0389 H   0  0  0  0  0  0
  -23.7232  -30.5851   19.3977 H   0  0  0  0  0  0
  -22.7363  -29.2320   19.8664 H   0  0  0  0  0  0
  -25.1307  -36.1962   25.0818 H   0  0  0  0  0  0
  -20.9970  -28.3231   24.1440 H   0  0  0  0  0  0
  -20.5704  -26.2261   23.3601 H   0  0  0  0  0  0
  -21.6650  -26.7452   22.1214 H   0  0  0  0  0  0
  -19.6922  -25.6293   21.1235 H   0  0  0  0  0  0
  -19.6716  -27.3206   20.6772 H   0  0  0  0  0  0
  -17.4214  -26.6683   21.4006 H   0  0  0  0  0  0
  -18.0320  -26.0060   22.9014 H   0  0  0  0  0  0
  -19.7935  -30.7247   24.2302 H   0  0  0  0  0  0
  -17.5019  -31.6273   24.5155 H   0  0  0  0  0  0
  -15.5355  -30.3004   23.7628 H   0  0  0  0  0  0
  -15.8663  -28.0826   22.7051 H   0  0  0  0  0  0
  -24.5925  -30.7043   25.7794 H   0  0  0  0  0  0
  -24.8942  -32.2870   26.4870 H   0  0  0  0  0  0
  -25.8112  -30.8903   27.0194 H   0  0  0  0  0  0
  -26.2812  -29.6790   24.1127 H   0  0  0  0  0  0
  -27.4104  -29.7264   25.4487 H   0  0  0  0  0  0
  -27.8637  -30.4356   23.9150 H   0  0  0  0  0  0
  -27.2638  -33.3598   26.2061 H   0  0  0  0  0  0
  -28.3849  -32.6883   25.0293 H   0  0  0  0  0  0
  -28.0697  -31.8412   26.5367 H   0  0  0  0  0  0
  -28.2609  -38.0103   24.7523 H   0  0  0  0  0  0
  -28.1081  -36.2632   24.6287 H   0  0  0  0  0  0
  -27.2304  -37.1461   25.8868 H   0  0  0  0  0  0
  -20.9269  -29.8732   21.6943 H   0  0  0  0  0  0
  -26.0182  -38.2870   24.1407 H   0  0  0  0  0  0
  -31.0320  -19.8551   22.0308 H   0  0  0  0  0  0
  -28.2977  -16.5299   19.5697 H   0  0  0  0  0  0
  -31.9576  -16.2816   22.6865 H   0  0  0  0  0  0
  -31.3660  -17.5670   23.7372 H   0  0  0  0  0  0
  -32.6381  -17.8944   22.5609 H   0  0  0  0  0  0
  -29.4408  -23.7263   23.8791 H   0  0  0  0  0  0
  -28.1571  -22.5163   24.0190 H   0  0  0  0  0  0
  -27.7542  -24.1811   23.6276 H   0  0  0  0  0  0
  -28.3640  -21.2930   19.7357 H   0  0  0  0  0  0
  -30.0809  -21.5327   19.9454 H   0  0  0  0  0  0
  -29.0999  -23.5415   19.2289 H   0  0  0  0  0  0
  -27.4011  -23.9407   19.3704 H   0  0  0  0  0  0
  -28.2238  -25.8578   18.2303 H   0  0  0  0  0  0
  -29.7758  -25.7258   18.9711 H   0  0  0  0  0  0
  -29.1409  -14.9996   21.6962 H   0  0  0  0  0  0
  -28.2506  -25.0323   21.5845 H   0  0  0  0  0  0
  -28.9880  -21.1648   22.4710 H   0  0  0  0  0  0
  1 25  1  0  0  0
  1 30  2  0  0  0
  1 83  1  0  0  0
  2  3  1  0  0  0
  2 25  1  0  0  0
  2 87  1  0  0  0
  2 88  1  0  0  0
  3  4  1  0  0  0
  3 89  1  0  0  0
  3 90  1  0  0  0
  4  5  1  0  0  0
  4 91  1  0  0  0
  4 92  1  0  0  0
  5  6  1  0  0  0
  5 26  1  0  0  0
  5 93  1  0  0  0
  6 25  1  0  0  0
  6 94  1  0  0  0
  6 95  1  0  0  0
  7  8  2  0  0  0
  7 26  1  0  0  0
  7 29  1  0  0  0
  8  9  1  0  0  0
  8 22  1  0  0  0
  9 10  1  0  0  0
  9 27  2  0  0  0
 10 11  2  0  0  0
 10 15  1  0  0  0
 11 12  1  0  0  0
 11 96  1  0  0  0
 12 13  2  0  0  0
 12 97  1  0  0  0
 13 14  1  0  0  0
 13 31  1  0  0  0
 14 15  2  0  0  0
 14 98  1  0  0  0
 15 99  1  0  0  0
 16 17  2  0  0  0
 16 21  1  0  0  0
 16 31  1  0  0  0
 17 18  1  0  0  0
 17100  1  0  0  0
 18 19  2  0  0  0
 18101  1  0  0  0
 19 20  1  0  0  0
 19 24  1  0  0  0
 20 21  2  0  0  0
 20102  1  0  0  0
 21 23  1  0  0  0
 22 28  1  0  0  0
 22 32  2  0  0  0
 26 27  1  0  0  0
 28103  1  0  0  0
 28104  1  0  0  0
 29105  1  0  0  0
 29106  1  0  0  0
 33 34  1  0  0  0
 33 66  1  0  0  0
 33 70  2  0  0  0
 34 36  1  0  0  0
 34 59  1  0  0  0
 34107  1  0  0  0
 35 44  2  0  0  0
 35 45  1  0  0  0
 35 68  1  0  0  0
 36 56  1  0  0  0
 36108  1  0  0  0
 37 39  1  0  0  0
 37 47  1  0  0  0
 37 66  1  0  0  0
 37109  1  0  0  0
 38 43  2  0  0  0
 38 46  1  0  0  0
 38 47  1  0  0  0
 39 64  1  0  0  0
 39 67  2  0  0  0
 40 52  1  0  0  0
 40 53  2  0  0  0
 40 58  1  0  0  0
 41110  1  0  0  0
 41111  1  0  0  0
 41112  1  0  0  0
 41 48  1  0  0  0
 42 43  1  0  0  0
 42 66  1  0  0  0
 42113  1  0  0  0
 42114  1  0  0  0
 43 44  1  0  0  0
 44115  1  0  0  0
 45 46  2  0  0  0
 45116  1  0  0  0
 46117  1  0  0  0
 47118  1  0  0  0
 47119  1  0  0  0
 48 56  1  0  0  0
 48 65  1  0  0  0
 48120  1  0  0  0
 49 50  1  0  0  0
 49 53  1  0  0  0
 49 64  1  0  0  0
 49121  1  0  0  0
 50 51  1  0  0  0
 50122  1  0  0  0
 50123  1  0  0  0
 51 52  1  0  0  0
 51124  1  0  0  0
 51125  1  0  0  0
 52126  1  0  0  0
 52127  1  0  0  0
 53 54  1  0  0  0
 54 55  2  0  0  0
 54128  1  0  0  0
 55 57  1  0  0  0
 55129  1  0  0  0
 56 69  2  0  0  0
 57 58  2  0  0  0
 57130  1  0  0  0
 58131  1  0  0  0
 59 60  1  0  0  0
 59 61  1  0  0  0
 59 62  1  0  0  0
 60132  1  0  0  0
 60133  1  0  0  0
 60134  1  0  0  0
 61135  1  0  0  0
 61136  1  0  0  0
 61137  1  0  0  0
 62138  1  0  0  0
 62139  1  0  0  0
 62140  1  0  0  0
 63 65  1  0  0  0
 63141  1  0  0  0
 63142  1  0  0  0
 63143  1  0  0  0
 64144  1  0  0  0
 65145  1  0  0  0
 68 82  1  0  0  0
 71 73  2  0  0  0
 71 74  1  0  0  0
 71146  1  0  0  0
 72 75  2  0  0  0
 72 76  1  0  0  0
 72147  1  0  0  0
 73 75  1  0  0  0
 73 78  1  0  0  0
 74 76  2  0  0  0
 74 80  1  0  0  0
 75 83  1  0  0  0
 76 86  1  0  0  0
 77 79  1  0  0  0
 77 84  1  0  0  0
 77 85  2  0  0  0
 78148  1  0  0  0
 78149  1  0  0  0
 78150  1  0  0  0
 79151  1  0  0  0
 79152  1  0  0  0
 79153  1  0  0  0
 80 85  1  0  0  0
 80154  1  0  0  0
 80155  1  0  0  0
 81 82  1  0  0  0
 81 84  1  0  0  0
 81156  1  0  0  0
 81157  1  0  0  0
 82158  1  0  0  0
 82159  1  0  0  0
 83160  1  0  0  0
 84161  1  0  0  0
 85162  1  0  0  0
M  CHG  1  85   1
M  ISO  4   1 100  68 101  82 101  83 100
M  END
> <chiral flag>
0

> <version>
0

> <s_m_source_file>
/data/baiqing/PycharmProjects/Reinvent-master-3.2/result/LINK_invent/BTK/process_docking_weight1_custom_product_contain_oxygen_bond_distance_aromatic_linkinvent_7_9_3/rearranged_h_0037.sdf

> <i_m_source_file_index>
61

> <r_mmod_Potential_Energy-OPLS-2005>
-65.8420486450195

> <r_mmod_Stretch_Energy-OPLS-2005>
39.4585990905762

> <r_mmod_Bend_Energy-OPLS-2005>
127.716239929199

> <r_mmod_Torsional_Energy-OPLS-2005>
252.802215576172

> <r_mmod_Improper_Torsional_Energy-OPLS-2005>
5.24212646484375

> <r_mmod_Van_der_Waal_Energy-OPLS-2005>
144.663711547852

> <r_mmod_Electrostatic_Energy-OPLS-2005>
-238.599304199219

> <r_mmod_Solvation_Energy-OPLS-2005>
-409.857421875

> <b_mmod_Minimization_Converged-OPLS-2005>
0

> <r_mmod_RMS_Derivative-OPLS-2005>
2.45979928970337

$$$$
61
                    3D
 Structure written by MMmdl.
189199  0  0  1  0            999 V2000
  -29.8118  -16.7139   20.6962 C   0  0  0  0  0  0
  -30.2755  -13.9655   19.7071 C   0  0  0  0  0  0
  -29.5967  -13.0976   18.5453 C   0  0  0  0  0  0
  -28.2903  -12.4411   18.9865 C   0  0  0  0  0  0
  -27.5796  -13.4554   19.8914 C   0  0  2  0  0  0
  -28.4514  -14.1529   21.0122 C   0  0  0  0  0  0
  -25.2074  -13.8511   20.5941 C   0  0  0  0  0  0
  -24.1605  -13.0467   20.9292 C   0  0  0  0  0  0
  -24.6524  -11.7048   20.8726 C   0  0  0  0  0  0
  -23.9254  -10.4320   21.0329 C   0  0  0  0  0  0
  -24.3726   -9.4251   21.9161 C   0  0  0  0  0  0
  -23.6358   -8.2311   22.0762 C   0  0  0  0  0  0
  -22.4350   -8.0330   21.3544 C   0  0  0  0  0  0
  -22.0018   -9.0308   20.4639 C   0  0  0  0  0  0
  -22.7392  -10.2158   20.3014 C   0  0  0  0  0  0
  -21.6880   -6.0768   22.5276 C   0  0  0  0  0  0
  -21.4034   -6.5663   23.8211 C   0  0  0  0  0  0
  -21.3662   -5.6811   24.9170 C   0  0  0  0  0  0
  -21.6036   -4.3070   24.7215 C   0  0  0  0  0  0
  -21.8822   -3.8168   23.4334 C   0  0  0  0  0  0
  -21.9204   -4.6991   22.3394 C   0  0  0  0  0  0
  -22.7598  -13.5098   21.1890 C   0  0  0  0  0  0
  -22.1672   -4.2176   21.0971 F   0  0  0  0  0  0
  -21.5618   -3.4548   25.7722 F   0  0  0  0  0  0
  -29.4353  -15.1685   20.4232 N   0  0  0  0  0  0
  -26.2740  -13.0133   20.3611 N   0  0  0  0  0  0
  -25.9549  -11.7051   20.5737 N   0  0  0  0  0  0
  -22.0281  -12.8064   22.0437 N   0  0  0  0  0  0
  -25.3468  -15.2283   20.4390 N   0  0  0  0  0  0
  -31.0580  -16.4835   20.5266 O   0  0  0  0  0  0
  -21.6687   -6.8934   21.4249 O   0  0  0  0  0  0
  -22.3251  -14.5394   20.6738 O   0  0  0  0  0  0
  -25.1918  -31.7404   23.4308 C   0  0  0  0  0  0
  -26.2936  -32.5248   24.0218 C   0  0  1  0  0  0
  -26.1730  -26.6173   19.7111 C   0  0  0  0  0  0
  -25.8118  -33.8892   24.3206 N   0  0  0  0  0  0
  -24.1164  -30.2520   21.9877 C   0  0  2  0  0  0
  -26.3306  -28.9125   18.9284 C   0  0  0  0  0  0
  -23.0836  -29.5208   23.0044 C   0  0  0  0  0  0
  -17.6355  -27.8631   22.8252 C   0  0  0  0  0  0
  -24.1622  -36.7057   23.2424 C   0  0  0  0  0  0
  -27.2571  -29.9455   22.0225 C   0  0  0  0  0  0
  -27.4589  -29.0227   20.1264 C   0  0  0  0  0  0
  -27.4703  -27.5743   19.9321 C   0  0  0  0  0  0
  -25.8788  -26.6213   18.4319 C   0  0  0  0  0  0
  -26.0281  -27.9035   17.9722 C   0  0  0  0  0  0
  -24.7398  -29.1806   19.1406 C   0  0  0  0  0  0
  -25.4212  -36.3019   24.0242 C   0  0  1  0  0  0
  -20.4161  -27.5712   22.8664 C   0  0  2  0  0  0
  -19.9356  -26.3218   22.0266 C   0  0  0  0  0  0
  -18.7153  -25.6750   22.3503 C   0  0  0  0  0  0
  -17.5253  -26.5495   22.1546 C   0  0  0  0  0  0
  -18.8620  -28.3900   23.2384 C   0  0  0  0  0  0
  -18.5559  -29.7354   23.8566 C   0  0  0  0  0  0
  -17.3688  -30.4173   24.0376 C   0  0  0  0  0  0
  -25.9579  -34.9473   23.5188 C   0  0  0  0  0  0
  -16.2439  -29.7830   23.5779 C   0  0  0  0  0  0
  -16.3962  -28.5257   22.9805 C   0  0  0  0  0  0
  -26.6512  -31.7275   25.3148 C   0  0  0  0  0  0
  -25.4720  -31.4764   26.2945 C   0  0  0  0  0  0
  -27.3002  -30.3464   25.0482 C   0  0  0  0  0  0
  -27.7286  -32.5472   26.0206 C   0  0  0  0  0  0
  -27.5618  -37.1877   24.8460 C   0  0  0  0  0  0
  -22.2108  -28.3372   22.6560 N   0  0  0  0  0  0
  -26.4242  -37.3866   23.9504 N   0  0  0  0  0  0
  -25.5704  -30.5656   22.7750 N   0  0  0  0  0  0
  -23.5231  -29.5137   24.1265 O   0  0  0  0  0  0
  -25.0207  -25.9181   20.6019 O   0  0  0  0  0  0
  -26.5504  -34.8830   22.4407 O   0  0  0  0  0  0
  -24.0346  -32.1707   23.7204 O   0  0  0  0  0  0
  -25.7197  -30.6073   20.4757 C   0  0  0  0  0  0
  -24.5326  -31.4711   19.9244 C   0  0  0  0  0  0
  -24.1103  -28.1454   21.0900 C   0  0  0  0  0  0
  -22.8063  -29.3151   20.3182 C   0  0  0  0  0  0
  -25.5474  -28.4690   21.3028 C   0  0  0  0  0  0
  -23.1190  -30.8427   19.8316 C   0  0  0  0  0  0
  -27.5011  -24.9300   21.6025 C   0  0  0  0  0  0
  -30.1857  -22.9544   22.9000 C   0  0  0  0  0  0
  -30.9060  -21.6827   22.3949 C   0  0  0  0  0  0
  -21.9159  -27.3953   24.7610 C   0  0  0  0  0  0
  -28.6651  -22.8040   23.1412 C   0  0  0  0  0  0
  -30.3231  -21.0471   21.1086 C   0  0  0  0  0  0
  -22.5951  -26.0142   23.3597 C   0  0  0  0  0  0
  -20.9850  -29.2544   24.3753 C   0  0  0  0  0  0
  -21.9020  -26.9671   20.3921 C   0  0  0  0  0  0
  -27.8605  -22.6871   21.8216 C   0  0  2  0  0  0
  -28.8769  -20.5350   21.2833 C   0  0  1  0  0  0
  -23.1635  -25.9709   21.3713 C   0  0  1  0  0  0
  -20.5729  -29.8200   22.0674 C   0  0  2  0  0  0
  -24.6881  -27.5439   22.6507 C   0  0  0  0  0  0
  -19.3870  -30.6586   21.4562 C   0  0  0  0  0  0
  -21.5210  -29.1061   19.5512 C   0  0  0  0  0  0
  -26.7663  -26.5943   22.0496 N   0  0  0  0  0  0
  -29.1094  -18.3828   20.9840 N   0  0  0  0  0  0
  -21.0045  -28.5507   20.6685 N   0  3  2  0  0  0
  -28.3578  -25.1291   20.7403 O   0  0  0  0  0  0
  -21.9828  -31.9607   19.1428 Cl  0  0  0  0  0  0
  -31.1537  -14.4234   19.2480 H   0  0  0  0  0  0
  -30.7075  -13.3064   20.4621 H   0  0  0  0  0  0
  -30.2964  -12.3479   18.1772 H   0  0  0  0  0  0
  -29.3884  -13.7605   17.7051 H   0  0  0  0  0  0
  -28.5210  -11.5407   19.5594 H   0  0  0  0  0  0
  -27.6796  -12.1417   18.1360 H   0  0  0  0  0  0
  -27.3491  -14.2595   19.1899 H   0  0  0  0  0  0
  -28.9190  -13.4280   21.6814 H   0  0  0  0  0  0
  -27.7986  -14.7336   21.6678 H   0  0  0  0  0  0
  -25.2836   -9.5738   22.4791 H   0  0  0  0  0  0
  -24.0030   -7.4724   22.7531 H   0  0  0  0  0  0
  -21.0939   -8.8860   19.8948 H   0  0  0  0  0  0
  -22.3850  -10.9705   19.6128 H   0  0  0  0  0  0
  -21.2040   -7.6173   23.9719 H   0  0  0  0  0  0
  -21.1472   -6.0537   25.9068 H   0  0  0  0  0  0
  -22.0591   -2.7633   23.2826 H   0  0  0  0  0  0
  -22.3930  -11.9752   22.4842 H   0  0  0  0  0  0
  -21.0864  -13.1054   22.2588 H   0  0  0  0  0  0
  -24.5676  -15.8680   20.5513 H   0  0  0  0  0  0
  -26.1998  -15.6848   20.1464 H   0  0  0  0  0  0
  -27.1487  -32.5627   23.3453 H   0  0  0  0  0  0
  -25.2911  -34.0055   25.1759 H   0  0  0  0  0  0
  -23.4513  -31.1145   21.9863 H   0  0  0  0  0  0
  -23.4099  -35.9163   23.2804 H   0  0  0  0  0  0
  -24.3861  -36.8922   22.1909 H   0  0  0  0  0  0
  -23.7082  -37.6071   23.6550 H   0  0  0  0  0  0
  -27.9577  -30.7836   22.0440 H   0  0  0  0  0  0
  -27.6966  -29.2132   22.6968 H   0  0  0  0  0  0
  -28.1987  -27.3843   19.1476 H   0  0  0  0  0  0
  -25.1922  -25.9382   17.9534 H   0  0  0  0  0  0
  -25.4881  -28.1354   17.0602 H   0  0  0  0  0  0
  -24.5861  -29.8416   18.2708 H   0  0  0  0  0  0
  -24.0880  -28.3829   18.7338 H   0  0  0  0  0  0
  -25.1263  -36.1844   25.0697 H   0  0  0  0  0  0
  -20.9113  -26.9575   22.2862 H   0  0  0  0  0  0
  -20.5037  -25.3623   21.8457 H   0  0  0  0  0  0
  -19.5780  -26.6211   21.0191 H   0  0  0  0  0  0
  -18.7639  -25.2921   23.3820 H   0  0  0  0  0  0
  -18.5550  -24.7757   21.7310 H   0  0  0  0  0  0
  -17.2550  -26.6961   21.1037 H   0  0  0  0  0  0
  -16.6636  -26.0361   22.6056 H   0  0  0  0  0  0
  -19.2378  -30.5233   24.1420 H   0  0  0  0  0  0
  -17.3308  -31.4043   24.4800 H   0  0  0  0  0  0
  -15.2740  -30.2499   23.6678 H   0  0  0  0  0  0
  -15.4976  -28.0483   22.6146 H   0  0  0  0  0  0
  -24.7448  -30.7602   25.9197 H   0  0  0  0  0  0
  -24.9375  -32.3980   26.5260 H   0  0  0  0  0  0
  -25.8284  -31.0723   27.2411 H   0  0  0  0  0  0
  -26.6221  -29.5693   24.7070 H   0  0  0  0  0  0
  -27.6846  -29.9346   25.9812 H   0  0  0  0  0  0
  -28.1743  -30.4368   24.4071 H   0  0  0  0  0  0
  -27.3443  -33.4969   26.3937 H   0  0  0  0  0  0
  -28.5662  -32.7717   25.3600 H   0  0  0  0  0  0
  -28.1334  -32.0237   26.8877 H   0  0  0  0  0  0
  -28.2335  -38.0454   24.7878 H   0  0  0  0  0  0
  -28.1449  -36.3027   24.5871 H   0  0  0  0  0  0
  -27.2389  -37.0949   25.8844 H   0  0  0  0  0  0
  -22.7123  -27.6482   23.2096 H   0  0  0  0  0  0
  -26.0000  -38.2831   24.1740 H   0  0  0  0  0  0
  -26.6095  -31.2124   20.2985 H   0  0  0  0  0  0
  -24.7230  -32.4711   19.5500 H   0  0  0  0  0  0
  -30.3710  -23.7822   22.2144 H   0  0  0  0  0  0
  -30.6628  -23.2500   23.8374 H   0  0  0  0  0  0
  -30.9435  -20.9421   23.1966 H   0  0  0  0  0  0
  -31.9524  -21.9398   22.2117 H   0  0  0  0  0  0
  -22.7466  -27.6019   25.4331 H   0  0  0  0  0  0
  -21.2345  -26.8546   25.4243 H   0  0  0  0  0  0
  -28.3306  -23.6693   23.7161 H   0  0  0  0  0  0
  -28.4762  -21.9560   23.7983 H   0  0  0  0  0  0
  -30.9796  -20.2310   20.8105 H   0  0  0  0  0  0
  -30.3543  -21.7748   20.2966 H   0  0  0  0  0  0
  -21.8355  -25.2365   23.4174 H   0  0  0  0  0  0
  -23.3556  -25.4490   23.9031 H   0  0  0  0  0  0
  -21.4448  -30.1184   24.8649 H   0  0  0  0  0  0
  -20.2567  -29.1375   25.1749 H   0  0  0  0  0  0
  -21.2371  -26.2546   19.9066 H   0  0  0  0  0  0
  -22.5369  -27.0036   19.4991 H   0  0  0  0  0  0
  -26.8439  -22.3927   22.0819 H   0  0  0  0  0  0
  -28.7995  -20.2506   22.3320 H   0  0  0  0  0  0
  -22.9060  -24.9415   21.1215 H   0  0  0  0  0  0
  -21.2319  -30.6757   21.9327 H   0  0  0  0  0  0
  -24.1878  -27.5154   23.5856 H   0  0  0  0  0  0
  -25.4268  -28.0641   23.3182 H   0  0  0  0  0  0
  -24.7910  -26.4832   22.8320 H   0  0  0  0  0  0
  -18.5353  -30.0195   21.2120 H   0  0  0  0  0  0
  -19.6487  -31.1320   20.5159 H   0  0  0  0  0  0
  -19.0373  -31.4730   22.0884 H   0  0  0  0  0  0
  -21.5836  -28.5157   18.6340 H   0  0  0  0  0  0
  -20.8297  -29.8907   19.2974 H   0  0  0  0  0  0
  -26.4563  -26.4126   22.9918 H   0  0  0  0  0  0
  -30.0935  -18.5603   21.1539 H   0  0  0  0  0  0
  -21.8243  -28.6206   21.2675 H   0  0  0  0  0  0
  1 25  1  0  0  0
  1 30  2  0  0  0
  1 94  1  0  0  0
  2  3  1  0  0  0
  2 25  1  0  0  0
  2 98  1  0  0  0
  2 99  1  0  0  0
  3  4  1  0  0  0
  3100  1  0  0  0
  3101  1  0  0  0
  4  5  1  0  0  0
  4102  1  0  0  0
  4103  1  0  0  0
  5  6  1  0  0  0
  5 26  1  0  0  0
  5104  1  0  0  0
  6 25  1  0  0  0
  6105  1  0  0  0
  6106  1  0  0  0
  7  8  2  0  0  0
  7 26  1  0  0  0
  7 29  1  0  0  0
  8  9  1  0  0  0
  8 22  1  0  0  0
  9 10  1  0  0  0
  9 27  2  0  0  0
 10 11  2  0  0  0
 10 15  1  0  0  0
 11 12  1  0  0  0
 11107  1  0  0  0
 12 13  2  0  0  0
 12108  1  0  0  0
 13 14  1  0  0  0
 13 31  1  0  0  0
 14 15  2  0  0  0
 14109  1  0  0  0
 15110  1  0  0  0
 16 17  2  0  0  0
 16 21  1  0  0  0
 16 31  1  0  0  0
 17 18  1  0  0  0
 17111  1  0  0  0
 18 19  2  0  0  0
 18112  1  0  0  0
 19 20  1  0  0  0
 19 24  1  0  0  0
 20 21  2  0  0  0
 20113  1  0  0  0
 21 23  1  0  0  0
 22 28  1  0  0  0
 22 32  2  0  0  0
 26 27  1  0  0  0
 28114  1  0  0  0
 28115  1  0  0  0
 29116  1  0  0  0
 29117  1  0  0  0
 33 34  1  0  0  0
 33 66  1  0  0  0
 33 70  2  0  0  0
 34 36  1  0  0  0
 34 59  1  0  0  0
 34118  1  0  0  0
 35 44  2  0  0  0
 35 45  1  0  0  0
 35 68  1  0  0  0
 36 56  1  0  0  0
 36119  1  0  0  0
 37 39  1  0  0  0
 37 47  1  0  0  0
 37 66  1  0  0  0
 37120  1  0  0  0
 38 43  2  0  0  0
 38 46  1  0  0  0
 38 47  1  0  0  0
 39 64  1  0  0  0
 39 67  2  0  0  0
 40 52  1  0  0  0
 40 53  2  0  0  0
 40 58  1  0  0  0
 41121  1  0  0  0
 41122  1  0  0  0
 41123  1  0  0  0
 41 48  1  0  0  0
 42 43  1  0  0  0
 42 66  1  0  0  0
 42124  1  0  0  0
 42125  1  0  0  0
 43 44  1  0  0  0
 44126  1  0  0  0
 45 46  2  0  0  0
 45127  1  0  0  0
 46128  1  0  0  0
 47129  1  0  0  0
 47130  1  0  0  0
 48 56  1  0  0  0
 48 65  1  0  0  0
 48131  1  0  0  0
 49 50  1  0  0  0
 49 53  1  0  0  0
 49 64  1  0  0  0
 49132  1  0  0  0
 50 51  1  0  0  0
 50133  1  0  0  0
 50134  1  0  0  0
 51 52  1  0  0  0
 51135  1  0  0  0
 51136  1  0  0  0
 52137  1  0  0  0
 52138  1  0  0  0
 53 54  1  0  0  0
 54 55  2  0  0  0
 54139  1  0  0  0
 55 57  1  0  0  0
 55140  1  0  0  0
 56 69  2  0  0  0
 57 58  2  0  0  0
 57141  1  0  0  0
 58142  1  0  0  0
 59 60  1  0  0  0
 59 61  1  0  0  0
 59 62  1  0  0  0
 60143  1  0  0  0
 60144  1  0  0  0
 60145  1  0  0  0
 61146  1  0  0  0
 61147  1  0  0  0
 61148  1  0  0  0
 62149  1  0  0  0
 62150  1  0  0  0
 62151  1  0  0  0
 63 65  1  0  0  0
 63152  1  0  0  0
 63153  1  0  0  0
 63154  1  0  0  0
 64155  1  0  0  0
 65156  1  0  0  0
 68 88  1  0  0  0
 71 72  2  0  0  0
 71 75  1  0  0  0
 71157  1  0  0  0
 72 76  1  0  0  0
 72158  1  0  0  0
 73 74  1  0  0  0
 73 75  2  0  0  0
 73 90  1  0  0  0
 74 76  2  0  0  0
 74 92  1  0  0  0
 75 93  1  0  0  0
 76 97  1  0  0  0
 77 93  1  0  0  0
 77 96  2  0  0  0
 77 86  1  0  0  0
 78 79  1  0  0  0
 78 81  1  0  0  0
 78159  1  0  0  0
 78160  1  0  0  0
 79 82  1  0  0  0
 79161  1  0  0  0
 79162  1  0  0  0
 80 83  1  0  0  0
 80 84  1  0  0  0
 80163  1  0  0  0
 80164  1  0  0  0
 81 86  1  0  0  0
 81165  1  0  0  0
 81166  1  0  0  0
 82 87  1  0  0  0
 82167  1  0  0  0
 82168  1  0  0  0
 83 88  1  0  0  0
 83169  1  0  0  0
 83170  1  0  0  0
 84 89  1  0  0  0
 84171  1  0  0  0
 84172  1  0  0  0
 85 88  1  0  0  0
 85 95  1  0  0  0
 85173  1  0  0  0
 85174  1  0  0  0
 86 87  1  0  0  0
 86175  1  0  0  0
 87 94  1  0  0  0
 87176  1  0  0  0
 88177  1  0  0  0
 89 91  1  0  0  0
 89 95  1  0  0  0
 89178  1  0  0  0
 90179  1  0  0  0
 90180  1  0  0  0
 90181  1  0  0  0
 91182  1  0  0  0
 91183  1  0  0  0
 91184  1  0  0  0
 92185  1  0  0  0
 92186  1  0  0  0
 92 95  1  0  0  0
 93187  1  0  0  0
 94188  1  0  0  0
 95189  1  0  0  0
M  CHG  1  95   1
M  ISO  4   1 100  68 101  88 101  94 100
M  END
> <chiral flag>
0

> <version>
0

> <s_m_source_file>
/data/baiqing/PycharmProjects/Reinvent-master-3.2/result/LINK_invent/BTK/process_docking_weight1_custom_product_contain_oxygen_bond_distance_aromatic_linkinvent_7_9_3/rearranged_h_0037.sdf

> <i_m_source_file_index>
62

> <r_mmod_Potential_Energy-OPLS-2005>
32570.087890625

> <r_mmod_Stretch_Energy-OPLS-2005>
15451.60546875

> <r_mmod_Bend_Energy-OPLS-2005>
3748.82861328125

> <r_mmod_Torsional_Energy-OPLS-2005>
934.000427246094

> <r_mmod_Improper_Torsional_Energy-OPLS-2005>
124.820487976074

> <r_mmod_Van_der_Waal_Energy-OPLS-2005>
6336.83837890625

> <r_mmod_Electrostatic_Energy-OPLS-2005>
-314.958923339844

> <r_mmod_Solvation_Energy-OPLS-2005>
-416.50634765625

> <b_mmod_Minimization_Converged-OPLS-2005>
0

> <r_mmod_RMS_Derivative-OPLS-2005>
13.2873401641846

$$$$
62
                    3D
 Structure written by MMmdl.
175184  0  0  1  0            999 V2000
  -30.6922  -14.4976   20.5400 C   0  0  0  0  0  0
  -30.4250  -12.3126   19.4341 C   0  0  0  0  0  0
  -29.5001  -12.4937   18.2118 C   0  0  0  0  0  0
  -28.0205  -12.3453   18.6239 C   0  0  0  0  0  0
  -27.6592  -13.1972   19.8707 C   0  0  2  0  0  0
  -28.7034  -13.0076   20.9960 C   0  0  0  0  0  0
  -25.2582  -13.8156   20.5636 C   0  0  0  0  0  0
  -24.1823  -13.0447   20.9121 C   0  0  0  0  0  0
  -24.6372  -11.6911   20.8700 C   0  0  0  0  0  0
  -23.9042  -10.4303   21.0372 C   0  0  0  0  0  0
  -24.3599   -9.4231   21.9156 C   0  0  0  0  0  0
  -23.6283   -8.2270   22.0746 C   0  0  0  0  0  0
  -22.4261   -8.0297   21.3546 C   0  0  0  0  0  0
  -21.9881   -9.0261   20.4648 C   0  0  0  0  0  0
  -22.7208  -10.2140   20.3041 C   0  0  0  0  0  0
  -21.6858   -6.0752   22.5280 C   0  0  0  0  0  0
  -21.4026   -6.5653   23.8216 C   0  0  0  0  0  0
  -21.3647   -5.6793   24.9165 C   0  0  0  0  0  0
  -21.6041   -4.3060   24.7206 C   0  0  0  0  0  0
  -21.8823   -3.8163   23.4322 C   0  0  0  0  0  0
  -21.9192   -4.6985   22.3384 C   0  0  0  0  0  0
  -22.7851  -13.5260   21.1786 C   0  0  0  0  0  0
  -22.1661   -4.2171   21.0961 F   0  0  0  0  0  0
  -21.5593   -3.4543   25.7715 F   0  0  0  0  0  0
  -30.0303  -13.3120   20.4388 N   0  0  0  0  0  0
  -26.3012  -12.9298   20.3345 N   0  0  0  0  0  0
  -25.9299  -11.6477   20.5770 N   0  0  0  0  0  0
  -22.0493  -12.8288   22.0379 N   0  0  0  0  0  0
  -25.4279  -15.1883   20.4051 N   0  0  0  0  0  0
  -31.8313  -14.6614   20.0982 O   0  0  0  0  0  0
  -21.6641   -6.8890   21.4243 O   0  0  0  0  0  0
  -22.3536  -14.5551   20.6601 O   0  0  0  0  0  0
  -24.6169  -31.8656   23.2079 C   0  0  0  0  0  0
  -25.9049  -32.4808   23.8380 C   0  0  1  0  0  0
  -27.2252  -27.4029   20.1187 C   0  0  0  0  0  0
  -25.5899  -33.8613   24.2310 N   0  0  0  0  0  0
  -23.4060  -30.4880   21.5475 C   0  0  2  0  0  0
  -24.8537  -28.9527   20.1084 C   0  0  0  0  0  0
  -22.7429  -29.4639   22.4965 C   0  0  0  0  0  0
  -18.0285  -28.1380   22.8499 C   0  0  0  0  0  0
  -24.1481  -36.7310   23.2638 C   0  0  0  0  0  0
  -25.9370  -30.8237   21.3643 C   0  0  0  0  0  0
  -26.0135  -29.4573   20.7100 C   0  0  0  0  0  0
  -27.2039  -28.6908   20.7088 C   0  0  0  0  0  0
  -26.0596  -26.9332   19.4794 C   0  0  0  0  0  0
  -24.8734  -27.6921   19.4862 C   0  0  0  0  0  0
  -23.6160  -29.8198   20.1612 C   0  0  0  0  0  0
  -25.4106  -36.3107   24.0332 C   0  0  1  0  0  0
  -20.5879  -28.3658   23.1318 C   0  0  2  0  0  0
  -20.6781  -26.9392   22.5419 C   0  0  0  0  0  0
  -19.5751  -26.6382   21.5222 C   0  0  0  0  0  0
  -18.1930  -26.7929   22.1633 C   0  0  0  0  0  0
  -19.1532  -28.8836   23.2906 C   0  0  0  0  0  0
  -18.9459  -30.1450   23.8897 C   0  0  0  0  0  0
  -17.6458  -30.6585   24.0562 C   0  0  0  0  0  0
  -25.9034  -34.9476   23.5121 C   0  0  0  0  0  0
  -16.5355  -29.9082   23.6329 C   0  0  0  0  0  0
  -16.7272  -28.6504   23.0346 C   0  0  0  0  0  0
  -26.4480  -31.6599   25.0719 C   0  0  0  0  0  0
  -25.3742  -31.3716   26.1463 C   0  0  0  0  0  0
  -27.0304  -30.3034   24.6101 C   0  0  0  0  0  0
  -27.6043  -32.4331   25.7485 C   0  0  0  0  0  0
  -27.5579  -37.1811   24.8467 C   0  0  0  0  0  0
  -21.4157  -29.3027   22.3716 N   0  0  0  0  0  0
  -26.4292  -37.3795   23.9409 N   0  0  0  0  0  0
  -24.6714  -31.0740   22.0975 N   0  0  0  0  0  0
  -23.4205  -28.8184   23.3007 O   0  0  0  0  0  0
  -28.3719  -26.6284   20.1708 O   0  0  0  0  0  0
  -26.5599  -34.8938   22.4685 O   0  0  0  0  0  0
  -23.5352  -32.1418   23.7452 O   0  0  0  0  0  0
  -27.3874  -18.2075   18.8099 C   0  0  0  0  0  0
  -28.2969  -17.3869   19.4876 C   0  0  0  0  0  0
  -27.5416  -19.6038   18.8050 C   0  0  0  0  0  0
  -29.3770  -17.9335   20.2044 C   0  0  0  0  0  0
  -29.5532  -19.3583   20.1990 C   0  0  0  0  0  0
  -28.6396  -20.2105   19.4825 C   0  0  0  0  0  0
  -27.1833  -25.0673   21.7983 C   0  0  0  0  0  0
  -27.2359  -23.6490   22.3794 C   0  0  0  0  0  0
  -28.4003  -24.1274   19.7795 C   0  0  0  0  0  0
  -28.3271  -25.3047   20.7909 C   0  0  1  0  0  0
  -27.2645  -22.5295   21.2980 C   0  0  2  0  0  0
  -26.4953  -20.4126   18.0493 C   0  0  0  0  0  0
  -30.7226  -19.9550   20.9787 C   0  0  0  0  0  0
  -26.0186  -20.9602   22.9821 C   0  0  0  0  0  0
  -30.3435  -16.9725   20.9449 C   0  0  0  0  0  0
  -28.8394  -21.7494   19.3367 C   0  0  0  0  0  0
  -27.1978  -21.1483   22.0141 C   0  0  0  0  0  0
  -29.9639  -15.5401   20.9911 N   0  0  0  0  0  0
  -28.4633  -22.7508   20.4086 N   0  3  1  0  0  0
  -31.4717  -12.4050   19.1398 H   0  0  0  0  0  0
  -30.3210  -11.3070   19.8451 H   0  0  0  0  0  0
  -29.7514  -11.7653   17.4392 H   0  0  0  0  0  0
  -29.6603  -13.4762   17.7661 H   0  0  0  0  0  0
  -27.8368  -11.2898   18.8316 H   0  0  0  0  0  0
  -27.3680  -12.6046   17.7888 H   0  0  0  0  0  0
  -27.6906  -14.2338   19.5492 H   0  0  0  0  0  0
  -28.6835  -11.9763   21.3534 H   0  0  0  0  0  0
  -28.4684  -13.6243   21.8646 H   0  0  0  0  0  0
  -25.2737   -9.5712   22.4735 H   0  0  0  0  0  0
  -24.0016   -7.4667   22.7457 H   0  0  0  0  0  0
  -21.0818   -8.8766   19.8947 H   0  0  0  0  0  0
  -22.3660  -10.9677   19.6156 H   0  0  0  0  0  0
  -21.2045   -7.6167   23.9731 H   0  0  0  0  0  0
  -21.1448   -6.0505   25.9068 H   0  0  0  0  0  0
  -22.0614   -2.7632   23.2798 H   0  0  0  0  0  0
  -22.4102  -11.9948   22.4760 H   0  0  0  0  0  0
  -21.1105  -13.1308   22.2579 H   0  0  0  0  0  0
  -24.6555  -15.8374   20.5079 H   0  0  0  0  0  0
  -26.2817  -15.6399   20.1059 H   0  0  0  0  0  0
  -26.7119  -32.5511   23.1144 H   0  0  0  0  0  0
  -25.0090  -33.9776   25.0479 H   0  0  0  0  0  0
  -22.6956  -31.3049   21.4060 H   0  0  0  0  0  0
  -23.3752  -35.9637   23.3314 H   0  0  0  0  0  0
  -24.3571  -36.8909   22.2050 H   0  0  0  0  0  0
  -23.7237  -37.6518   23.6648 H   0  0  0  0  0  0
  -26.0550  -31.5884   20.5952 H   0  0  0  0  0  0
  -26.8239  -30.8756   21.9842 H   0  0  0  0  0  0
  -28.0959  -29.0711   21.1865 H   0  0  0  0  0  0
  -26.0525  -25.9656   18.9990 H   0  0  0  0  0  0
  -23.9845  -27.2999   19.0114 H   0  0  0  0  0  0
  -23.7260  -30.5949   19.4030 H   0  0  0  0  0  0
  -22.7397  -29.2394   19.8637 H   0  0  0  0  0  0
  -25.1290  -36.1969   25.0827 H   0  0  0  0  0  0
  -20.9969  -28.3227   24.1438 H   0  0  0  0  0  0
  -20.5689  -26.2263   23.3610 H   0  0  0  0  0  0
  -21.6652  -26.7444   22.1199 H   0  0  0  0  0  0
  -19.6906  -25.6295   21.1240 H   0  0  0  0  0  0
  -19.6691  -27.3203   20.6761 H   0  0  0  0  0  0
  -17.4208  -26.6688   21.4030 H   0  0  0  0  0  0
  -18.0317  -26.0067   22.9019 H   0  0  0  0  0  0
  -19.7932  -30.7276   24.2254 H   0  0  0  0  0  0
  -17.5012  -31.6259   24.5171 H   0  0  0  0  0  0
  -15.5353  -30.2980   23.7646 H   0  0  0  0  0  0
  -15.8683  -28.0822   22.7048 H   0  0  0  0  0  0
  -24.5911  -30.7062   25.7817 H   0  0  0  0  0  0
  -24.8943  -32.2875   26.4917 H   0  0  0  0  0  0
  -25.8092  -30.8893   27.0220 H   0  0  0  0  0  0
  -26.2846  -29.6805   24.1145 H   0  0  0  0  0  0
  -27.4060  -29.7263   25.4562 H   0  0  0  0  0  0
  -27.8692  -30.4357   23.9262 H   0  0  0  0  0  0
  -27.2646  -33.3620   26.2085 H   0  0  0  0  0  0
  -28.3847  -32.6909   25.0312 H   0  0  0  0  0  0
  -28.0721  -31.8448   26.5388 H   0  0  0  0  0  0
  -28.2607  -38.0101   24.7518 H   0  0  0  0  0  0
  -28.1065  -36.2636   24.6289 H   0  0  0  0  0  0
  -27.2295  -37.1457   25.8869 H   0  0  0  0  0  0
  -20.9310  -29.8751   21.6950 H   0  0  0  0  0  0
  -26.0179  -38.2871   24.1418 H   0  0  0  0  0  0
  -26.5647  -17.7482   18.2787 H   0  0  0  0  0  0
  -28.1487  -16.3224   19.4359 H   0  0  0  0  0  0
  -27.2381  -25.7983   22.6061 H   0  0  0  0  0  0
  -26.2067  -25.1883   21.3362 H   0  0  0  0  0  0
  -26.3587  -23.5470   23.0164 H   0  0  0  0  0  0
  -28.0997  -23.5549   23.0402 H   0  0  0  0  0  0
  -29.2786  -24.2785   19.1511 H   0  0  0  0  0  0
  -27.5364  -24.1729   19.1151 H   0  0  0  0  0  0
  -29.2505  -25.2619   21.3691 H   0  0  0  0  0  0
  -26.3716  -22.6228   20.6771 H   0  0  0  0  0  0
  -26.9244  -20.8909   17.1693 H   0  0  0  0  0  0
  -26.0486  -21.1764   18.6860 H   0  0  0  0  0  0
  -25.6837  -19.7758   17.6979 H   0  0  0  0  0  0
  -31.6005  -19.3118   20.9469 H   0  0  0  0  0  0
  -30.4508  -20.0857   22.0266 H   0  0  0  0  0  0
  -31.0562  -20.9142   20.5924 H   0  0  0  0  0  0
  -25.9273  -19.9117   23.2685 H   0  0  0  0  0  0
  -25.0771  -21.2531   22.5160 H   0  0  0  0  0  0
  -26.1370  -21.5282   23.9043 H   0  0  0  0  0  0
  -30.4512  -17.3117   21.9753 H   0  0  0  0  0  0
  -31.3268  -17.0797   20.4823 H   0  0  0  0  0  0
  -28.3465  -22.0648   18.4206 H   0  0  0  0  0  0
  -29.8855  -21.9198   19.0864 H   0  0  0  0  0  0
  -28.1343  -20.9318   22.5297 H   0  0  0  0  0  0
  -27.0385  -20.3549   21.2942 H   0  0  0  0  0  0
  -29.0436  -15.3229   21.3385 H   0  0  0  0  0  0
  -29.2550  -22.7504   21.0358 H   0  0  0  0  0  0
  1 25  1  0  0  0
  1 30  2  0  0  0
  1 88  1  0  0  0
  2  3  1  0  0  0
  2 25  1  0  0  0
  2 90  1  0  0  0
  2 91  1  0  0  0
  3  4  1  0  0  0
  3 92  1  0  0  0
  3 93  1  0  0  0
  4  5  1  0  0  0
  4 94  1  0  0  0
  4 95  1  0  0  0
  5  6  1  0  0  0
  5 26  1  0  0  0
  5 96  1  0  0  0
  6 25  1  0  0  0
  6 97  1  0  0  0
  6 98  1  0  0  0
  7  8  2  0  0  0
  7 26  1  0  0  0
  7 29  1  0  0  0
  8  9  1  0  0  0
  8 22  1  0  0  0
  9 10  1  0  0  0
  9 27  2  0  0  0
 10 11  2  0  0  0
 10 15  1  0  0  0
 11 12  1  0  0  0
 11 99  1  0  0  0
 12 13  2  0  0  0
 12100  1  0  0  0
 13 14  1  0  0  0
 13 31  1  0  0  0
 14 15  2  0  0  0
 14101  1  0  0  0
 15102  1  0  0  0
 16 17  2  0  0  0
 16 21  1  0  0  0
 16 31  1  0  0  0
 17 18  1  0  0  0
 17103  1  0  0  0
 18 19  2  0  0  0
 18104  1  0  0  0
 19 20  1  0  0  0
 19 24  1  0  0  0
 20 21  2  0  0  0
 20105  1  0  0  0
 21 23  1  0  0  0
 22 28  1  0  0  0
 22 32  2  0  0  0
 26 27  1  0  0  0
 28106  1  0  0  0
 28107  1  0  0  0
 29108  1  0  0  0
 29109  1  0  0  0
 33 34  1  0  0  0
 33 66  1  0  0  0
 33 70  2  0  0  0
 34 36  1  0  0  0
 34 59  1  0  0  0
 34110  1  0  0  0
 35 44  2  0  0  0
 35 45  1  0  0  0
 35 68  1  0  0  0
 36 56  1  0  0  0
 36111  1  0  0  0
 37 39  1  0  0  0
 37 47  1  0  0  0
 37 66  1  0  0  0
 37112  1  0  0  0
 38 43  2  0  0  0
 38 46  1  0  0  0
 38 47  1  0  0  0
 39 64  1  0  0  0
 39 67  2  0  0  0
 40 52  1  0  0  0
 40 53  2  0  0  0
 40 58  1  0  0  0
 41113  1  0  0  0
 41114  1  0  0  0
 41115  1  0  0  0
 41 48  1  0  0  0
 42 43  1  0  0  0
 42 66  1  0  0  0
 42116  1  0  0  0
 42117  1  0  0  0
 43 44  1  0  0  0
 44118  1  0  0  0
 45 46  2  0  0  0
 45119  1  0  0  0
 46120  1  0  0  0
 47121  1  0  0  0
 47122  1  0  0  0
 48 56  1  0  0  0
 48 65  1  0  0  0
 48123  1  0  0  0
 49 50  1  0  0  0
 49 53  1  0  0  0
 49 64  1  0  0  0
 49124  1  0  0  0
 50 51  1  0  0  0
 50125  1  0  0  0
 50126  1  0  0  0
 51 52  1  0  0  0
 51127  1  0  0  0
 51128  1  0  0  0
 52129  1  0  0  0
 52130  1  0  0  0
 53 54  1  0  0  0
 54 55  2  0  0  0
 54131  1  0  0  0
 55 57  1  0  0  0
 55132  1  0  0  0
 56 69  2  0  0  0
 57 58  2  0  0  0
 57133  1  0  0  0
 58134  1  0  0  0
 59 60  1  0  0  0
 59 61  1  0  0  0
 59 62  1  0  0  0
 60135  1  0  0  0
 60136  1  0  0  0
 60137  1  0  0  0
 61138  1  0  0  0
 61139  1  0  0  0
 61140  1  0  0  0
 62141  1  0  0  0
 62142  1  0  0  0
 62143  1  0  0  0
 63 65  1  0  0  0
 63144  1  0  0  0
 63145  1  0  0  0
 63146  1  0  0  0
 64147  1  0  0  0
 65148  1  0  0  0
 68 80  1  0  0  0
 71 72  2  0  0  0
 71 73  1  0  0  0
 71149  1  0  0  0
 72 74  1  0  0  0
 72150  1  0  0  0
 73 76  2  0  0  0
 73 82  1  0  0  0
 74 75  2  0  0  0
 74 85  1  0  0  0
 75 76  1  0  0  0
 75 83  1  0  0  0
 76 86  1  0  0  0
 77 78  1  0  0  0
 77 80  1  0  0  0
 77151  1  0  0  0
 77152  1  0  0  0
 78 81  1  0  0  0
 78153  1  0  0  0
 78154  1  0  0  0
 79 80  1  0  0  0
 79 89  1  0  0  0
 79155  1  0  0  0
 79156  1  0  0  0
 80157  1  0  0  0
 81 87  1  0  0  0
 81 89  1  0  0  0
 81158  1  0  0  0
 82159  1  0  0  0
 82160  1  0  0  0
 82161  1  0  0  0
 83162  1  0  0  0
 83163  1  0  0  0
 83164  1  0  0  0
 84 87  1  0  0  0
 84165  1  0  0  0
 84166  1  0  0  0
 84167  1  0  0  0
 85 88  1  0  0  0
 85168  1  0  0  0
 85169  1  0  0  0
 86170  1  0  0  0
 86171  1  0  0  0
 86 89  1  0  0  0
 87172  1  0  0  0
 87173  1  0  0  0
 88174  1  0  0  0
 89175  1  0  0  0
M  CHG  1  89   1
M  ISO  4   1 100  68 101  80 101  88 100
M  END
> <chiral flag>
0

> <version>
0

> <s_m_source_file>
/data/baiqing/PycharmProjects/Reinvent-master-3.2/result/LINK_invent/BTK/process_docking_weight1_custom_product_contain_oxygen_bond_distance_aromatic_linkinvent_7_9_3/rearranged_h_0037.sdf

> <i_m_source_file_index>
63

> <r_mmod_Potential_Energy-OPLS-2005>
-64.9055252075195

> <r_mmod_Stretch_Energy-OPLS-2005>
60.1397972106934

> <r_mmod_Bend_Energy-OPLS-2005>
147.608673095703

> <r_mmod_Torsional_Energy-OPLS-2005>
242.026824951172

> <r_mmod_Improper_Torsional_Energy-OPLS-2005>
4.00778007507324

> <r_mmod_Van_der_Waal_Energy-OPLS-2005>
166.640884399414

> <r_mmod_Electrostatic_Energy-OPLS-2005>
-297.020812988281

> <r_mmod_Solvation_Energy-OPLS-2005>
-407.468688964844

> <b_mmod_Minimization_Converged-OPLS-2005>
0

> <r_mmod_RMS_Derivative-OPLS-2005>
2.27998423576355

$$$$
63
                    3D
 Structure written by MMmdl.
162171  0  0  1  0            999 V2000
  -30.7771  -14.3750   20.6640 C   0  0  0  0  0  0
  -30.4161  -12.2845   19.4087 C   0  0  0  0  0  0
  -29.4887  -12.5171   18.2029 C   0  0  0  0  0  0
  -28.0138  -12.3793   18.6183 C   0  0  0  0  0  0
  -27.6675  -13.2078   19.8836 C   0  0  2  0  0  0
  -28.7077  -12.9662   21.0025 C   0  0  0  0  0  0
  -25.2551  -13.8131   20.5647 C   0  0  0  0  0  0
  -24.1815  -13.0410   20.9130 C   0  0  0  0  0  0
  -24.6374  -11.6885   20.8697 C   0  0  0  0  0  0
  -23.9033  -10.4281   21.0371 C   0  0  0  0  0  0
  -24.3583   -9.4214   21.9164 C   0  0  0  0  0  0
  -23.6253   -8.2256   22.0757 C   0  0  0  0  0  0
  -22.4248   -8.0279   21.3547 C   0  0  0  0  0  0
  -21.9864   -9.0250   20.4646 C   0  0  0  0  0  0
  -22.7207  -10.2119   20.3037 C   0  0  0  0  0  0
  -21.6853   -6.0708   22.5274 C   0  0  0  0  0  0
  -21.4021   -6.5613   23.8209 C   0  0  0  0  0  0
  -21.3658   -5.6762   24.9166 C   0  0  0  0  0  0
  -21.6046   -4.3032   24.7226 C   0  0  0  0  0  0
  -21.8822   -3.8116   23.4349 C   0  0  0  0  0  0
  -21.9199   -4.6934   22.3401 C   0  0  0  0  0  0
  -22.7842  -13.5248   21.1798 C   0  0  0  0  0  0
  -22.1671   -4.2115   21.0980 F   0  0  0  0  0  0
  -21.5615   -3.4521   25.7742 F   0  0  0  0  0  0
  -30.0550  -13.2409   20.4653 N   0  0  0  0  0  0
  -26.3045  -12.9329   20.3402 N   0  0  0  0  0  0
  -25.9324  -11.6483   20.5768 N   0  0  0  0  0  0
  -22.0449  -12.8289   22.0361 N   0  0  0  0  0  0
  -25.4158  -15.1844   20.4086 N   0  0  0  0  0  0
  -31.7844  -14.6536   20.0093 O   0  0  0  0  0  0
  -21.6631   -6.8866   21.4241 O   0  0  0  0  0  0
  -22.3545  -14.5565   20.6671 O   0  0  0  0  0  0
  -24.6111  -31.8708   23.2105 C   0  0  0  0  0  0
  -25.9001  -32.4848   23.8405 C   0  0  1  0  0  0
  -27.2487  -27.4750   20.0999 C   0  0  0  0  0  0
  -25.5862  -33.8648   24.2343 N   0  0  0  0  0  0
  -23.3987  -30.4887   21.5506 C   0  0  2  0  0  0
  -24.8475  -28.9509   20.1230 C   0  0  0  0  0  0
  -22.7395  -29.4659   22.5035 C   0  0  0  0  0  0
  -18.0253  -28.1387   22.8505 C   0  0  0  0  0  0
  -24.1472  -36.7322   23.2642 C   0  0  0  0  0  0
  -25.9196  -30.8509   21.3527 C   0  0  0  0  0  0
  -26.0018  -29.4824   20.7117 C   0  0  0  0  0  0
  -27.2058  -28.7514   20.6940 C   0  0  0  0  0  0
  -26.0797  -26.9394   19.5183 C   0  0  0  0  0  0
  -24.8784  -27.6767   19.5251 C   0  0  0  0  0  0
  -23.6069  -29.8129   20.1677 C   0  0  0  0  0  0
  -25.4087  -36.3130   24.0348 C   0  0  1  0  0  0
  -20.5846  -28.3658   23.1340 C   0  0  2  0  0  0
  -20.6746  -26.9407   22.5427 C   0  0  0  0  0  0
  -19.5717  -26.6391   21.5229 C   0  0  0  0  0  0
  -18.1893  -26.7939   22.1628 C   0  0  0  0  0  0
  -19.1508  -28.8837   23.2920 C   0  0  0  0  0  0
  -18.9445  -30.1442   23.8944 C   0  0  0  0  0  0
  -17.6453  -30.6588   24.0574 C   0  0  0  0  0  0
  -25.9016  -34.9494   23.5144 C   0  0  0  0  0  0
  -16.5346  -29.9108   23.6323 C   0  0  0  0  0  0
  -16.7244  -28.6519   23.0361 C   0  0  0  0  0  0
  -26.4440  -31.6628   25.0724 C   0  0  0  0  0  0
  -25.3727  -31.3736   26.1494 C   0  0  0  0  0  0
  -27.0254  -30.3083   24.6053 C   0  0  0  0  0  0
  -27.6033  -32.4334   25.7473 C   0  0  0  0  0  0
  -27.5567  -37.1809   24.8458 C   0  0  0  0  0  0
  -21.4131  -29.3028   22.3766 N   0  0  0  0  0  0
  -26.4277  -37.3807   23.9408 N   0  0  0  0  0  0
  -24.6614  -31.0831   22.0986 N   0  0  0  0  0  0
  -23.4180  -28.8222   23.3073 O   0  0  0  0  0  0
  -28.4538  -26.8220   20.0466 O   0  0  0  0  0  0
  -26.5598  -34.8942   22.4720 O   0  0  0  0  0  0
  -23.5307  -32.1441   23.7514 O   0  0  0  0  0  0
  -31.1261  -19.3167   21.9284 C   0  0  0  0  0  0
  -32.1584  -18.3984   22.1948 C   0  0  0  0  0  0
  -29.8336  -18.8643   21.5822 C   0  0  0  0  0  0
  -30.6341  -16.5450   21.7523 C   0  0  0  0  0  0
  -31.9193  -17.0149   22.1222 C   0  0  0  0  0  0
  -29.5911  -17.4695   21.5040 C   0  0  0  0  0  0
  -30.7110  -24.5866   21.4195 C   0  0  0  0  0  0
  -29.6568  -25.4120   21.5319 C   0  0  0  0  0  0
  -28.7182  -22.2374   20.4679 C   0  0  0  0  0  0
  -30.8659  -23.6048   20.2756 C   0  0  0  0  0  0
  -28.7232  -24.5510   19.3097 C   0  0  0  0  0  0
  -28.5156  -25.4862   20.5276 C   0  0  2  0  0  0
  -29.5079  -23.2531   19.6191 C   0  0  2  0  0  0
  -28.7355  -19.8920   21.3117 C   0  0  0  0  0  0
  -30.3423  -15.1597   21.6572 N   0  0  0  0  0  0
  -29.2237  -21.0006   20.5000 N   0  0  0  0  0  0
  -27.6894  -22.5496   21.0696 O   0  0  0  0  0  0
  -33.2079  -15.9353   22.5320 Cl  0  0  0  0  0  0
  -28.0242  -16.8678   21.0884 Cl  0  0  0  0  0  0
  -31.4613  -12.3708   19.1044 H   0  0  0  0  0  0
  -30.3025  -11.2679   19.7882 H   0  0  0  0  0  0
  -29.7202  -11.8071   17.4081 H   0  0  0  0  0  0
  -29.6644  -13.5112   17.7878 H   0  0  0  0  0  0
  -27.8232  -11.3215   18.8046 H   0  0  0  0  0  0
  -27.3622  -12.6664   17.7927 H   0  0  0  0  0  0
  -27.7200  -14.2599   19.6015 H   0  0  0  0  0  0
  -28.6646  -11.9310   21.3421 H   0  0  0  0  0  0
  -28.4536  -13.5652   21.8771 H   0  0  0  0  0  0
  -25.2729   -9.5700   22.4726 H   0  0  0  0  0  0
  -23.9958   -7.4665   22.7502 H   0  0  0  0  0  0
  -21.0778   -8.8779   19.8972 H   0  0  0  0  0  0
  -22.3667  -10.9645   19.6126 H   0  0  0  0  0  0
  -21.2020   -7.6119   23.9713 H   0  0  0  0  0  0
  -21.1466   -6.0484   25.9068 H   0  0  0  0  0  0
  -22.0595   -2.7576   23.2876 H   0  0  0  0  0  0
  -22.4025  -11.9963   22.4804 H   0  0  0  0  0  0
  -21.1090  -13.1391   22.2532 H   0  0  0  0  0  0
  -24.6545  -15.8368   20.5621 H   0  0  0  0  0  0
  -26.3026  -15.6437   20.2314 H   0  0  0  0  0  0
  -26.7097  -32.5589   23.1207 H   0  0  0  0  0  0
  -25.0007  -33.9809   25.0484 H   0  0  0  0  0  0
  -22.6855  -31.3028   21.4076 H   0  0  0  0  0  0
  -23.3731  -35.9657   23.3335 H   0  0  0  0  0  0
  -24.3570  -36.8903   22.2050 H   0  0  0  0  0  0
  -23.7228  -37.6537   23.6639 H   0  0  0  0  0  0
  -26.0118  -31.6092   20.5732 H   0  0  0  0  0  0
  -26.8143  -30.9215   21.9603 H   0  0  0  0  0  0
  -28.1044  -29.1648   21.1320 H   0  0  0  0  0  0
  -26.1015  -25.9704   19.0417 H   0  0  0  0  0  0
  -23.9919  -27.2621   19.0650 H   0  0  0  0  0  0
  -23.7150  -30.5830   19.4026 H   0  0  0  0  0  0
  -22.7327  -29.2272   19.8764 H   0  0  0  0  0  0
  -25.1259  -36.2012   25.0840 H   0  0  0  0  0  0
  -20.9916  -28.3218   24.1468 H   0  0  0  0  0  0
  -20.5642  -26.2274   23.3609 H   0  0  0  0  0  0
  -21.6624  -26.7451   22.1224 H   0  0  0  0  0  0
  -19.6875  -25.6309   21.1243 H   0  0  0  0  0  0
  -19.6644  -27.3227   20.6777 H   0  0  0  0  0  0
  -17.4161  -26.6704   21.4031 H   0  0  0  0  0  0
  -18.0272  -26.0068   22.9005 H   0  0  0  0  0  0
  -19.7924  -30.7247   24.2347 H   0  0  0  0  0  0
  -17.5009  -31.6278   24.5162 H   0  0  0  0  0  0
  -15.5346  -30.3037   23.7609 H   0  0  0  0  0  0
  -15.8637  -28.0842   22.7082 H   0  0  0  0  0  0
  -24.5859  -30.7127   25.7840 H   0  0  0  0  0  0
  -24.8973  -32.2905   26.4990 H   0  0  0  0  0  0
  -25.8089  -30.8866   27.0222 H   0  0  0  0  0  0
  -26.2775  -29.6878   24.1105 H   0  0  0  0  0  0
  -27.4047  -29.7286   25.4474 H   0  0  0  0  0  0
  -27.8596  -30.4426   23.9165 H   0  0  0  0  0  0
  -27.2659  -33.3613   26.2100 H   0  0  0  0  0  0
  -28.3807  -32.6927   25.0275 H   0  0  0  0  0  0
  -28.0742  -31.8438   26.5346 H   0  0  0  0  0  0
  -28.2609  -38.0085   24.7505 H   0  0  0  0  0  0
  -28.1040  -36.2627   24.6283 H   0  0  0  0  0  0
  -27.2296  -37.1466   25.8864 H   0  0  0  0  0  0
  -20.9294  -29.8783   21.7020 H   0  0  0  0  0  0
  -26.0182  -38.2888   24.1409 H   0  0  0  0  0  0
  -31.3324  -20.3750   22.0024 H   0  0  0  0  0  0
  -33.1403  -18.7588   22.4672 H   0  0  0  0  0  0
  -31.5070  -24.6177   22.1511 H   0  0  0  0  0  0
  -29.5996  -26.0949   22.3681 H   0  0  0  0  0  0
  -31.3621  -22.7081   20.6506 H   0  0  0  0  0  0
  -31.5442  -24.0415   19.5417 H   0  0  0  0  0  0
  -29.2780  -25.0935   18.5431 H   0  0  0  0  0  0
  -27.7604  -24.3133   18.8572 H   0  0  0  0  0  0
  -27.6052  -25.2140   21.0658 H   0  0  0  0  0  0
  -29.7104  -22.7601   18.6666 H   0  0  0  0  0  0
  -28.3767  -20.2583   22.2770 H   0  0  0  0  0  0
  -27.8737  -19.4594   20.8037 H   0  0  0  0  0  0
  -29.4852  -14.8556   22.0894 H   0  0  0  0  0  0
  -30.0521  -20.8284   19.9476 H   0  0  0  0  0  0
  1 25  1  0  0  0
  1 30  2  0  0  0
  1 85  1  0  0  0
  2  3  1  0  0  0
  2 25  1  0  0  0
  2 90  1  0  0  0
  2 91  1  0  0  0
  3  4  1  0  0  0
  3 92  1  0  0  0
  3 93  1  0  0  0
  4  5  1  0  0  0
  4 94  1  0  0  0
  4 95  1  0  0  0
  5  6  1  0  0  0
  5 26  1  0  0  0
  5 96  1  0  0  0
  6 25  1  0  0  0
  6 97  1  0  0  0
  6 98  1  0  0  0
  7  8  2  0  0  0
  7 26  1  0  0  0
  7 29  1  0  0  0
  8  9  1  0  0  0
  8 22  1  0  0  0
  9 10  1  0  0  0
  9 27  2  0  0  0
 10 11  2  0  0  0
 10 15  1  0  0  0
 11 12  1  0  0  0
 11 99  1  0  0  0
 12 13  2  0  0  0
 12100  1  0  0  0
 13 14  1  0  0  0
 13 31  1  0  0  0
 14 15  2  0  0  0
 14101  1  0  0  0
 15102  1  0  0  0
 16 17  2  0  0  0
 16 21  1  0  0  0
 16 31  1  0  0  0
 17 18  1  0  0  0
 17103  1  0  0  0
 18 19  2  0  0  0
 18104  1  0  0  0
 19 20  1  0  0  0
 19 24  1  0  0  0
 20 21  2  0  0  0
 20105  1  0  0  0
 21 23  1  0  0  0
 22 28  1  0  0  0
 22 32  2  0  0  0
 26 27  1  0  0  0
 28106  1  0  0  0
 28107  1  0  0  0
 29108  1  0  0  0
 29109  1  0  0  0
 33 34  1  0  0  0
 33 66  1  0  0  0
 33 70  2  0  0  0
 34 36  1  0  0  0
 34 59  1  0  0  0
 34110  1  0  0  0
 35 44  2  0  0  0
 35 45  1  0  0  0
 35 68  1  0  0  0
 36 56  1  0  0  0
 36111  1  0  0  0
 37 39  1  0  0  0
 37 47  1  0  0  0
 37 66  1  0  0  0
 37112  1  0  0  0
 38 43  2  0  0  0
 38 46  1  0  0  0
 38 47  1  0  0  0
 39 64  1  0  0  0
 39 67  2  0  0  0
 40 52  1  0  0  0
 40 53  2  0  0  0
 40 58  1  0  0  0
 41113  1  0  0  0
 41114  1  0  0  0
 41115  1  0  0  0
 41 48  1  0  0  0
 42 43  1  0  0  0
 42 66  1  0  0  0
 42116  1  0  0  0
 42117  1  0  0  0
 43 44  1  0  0  0
 44118  1  0  0  0
 45 46  2  0  0  0
 45119  1  0  0  0
 46120  1  0  0  0
 47121  1  0  0  0
 47122  1  0  0  0
 48 56  1  0  0  0
 48 65  1  0  0  0
 48123  1  0  0  0
 49 50  1  0  0  0
 49 53  1  0  0  0
 49 64  1  0  0  0
 49124  1  0  0  0
 50 51  1  0  0  0
 50125  1  0  0  0
 50126  1  0  0  0
 51 52  1  0  0  0
 51127  1  0  0  0
 51128  1  0  0  0
 52129  1  0  0  0
 52130  1  0  0  0
 53 54  1  0  0  0
 54 55  2  0  0  0
 54131  1  0  0  0
 55 57  1  0  0  0
 55132  1  0  0  0
 56 69  2  0  0  0
 57 58  2  0  0  0
 57133  1  0  0  0
 58134  1  0  0  0
 59 60  1  0  0  0
 59 61  1  0  0  0
 59 62  1  0  0  0
 60135  1  0  0  0
 60136  1  0  0  0
 60137  1  0  0  0
 61138  1  0  0  0
 61139  1  0  0  0
 61140  1  0  0  0
 62141  1  0  0  0
 62142  1  0  0  0
 62143  1  0  0  0
 63 65  1  0  0  0
 63144  1  0  0  0
 63145  1  0  0  0
 63146  1  0  0  0
 64147  1  0  0  0
 65148  1  0  0  0
 68 82  1  0  0  0
 71 72  2  0  0  0
 71 73  1  0  0  0
 71149  1  0  0  0
 72 75  1  0  0  0
 72150  1  0  0  0
 73 76  2  0  0  0
 73 84  1  0  0  0
 74 75  2  0  0  0
 74 76  1  0  0  0
 74 85  1  0  0  0
 75 88  1  0  0  0
 76 89  1  0  0  0
 77 78  2  0  0  0
 77 80  1  0  0  0
 77151  1  0  0  0
 78 82  1  0  0  0
 78152  1  0  0  0
 79 86  1  0  0  0
 79 87  2  0  0  0
 79 83  1  0  0  0
 80 83  1  0  0  0
 80153  1  0  0  0
 80154  1  0  0  0
 81 82  1  0  0  0
 81 83  1  0  0  0
 81155  1  0  0  0
 81156  1  0  0  0
 82157  1  0  0  0
 83158  1  0  0  0
 84 86  1  0  0  0
 84159  1  0  0  0
 84160  1  0  0  0
 85161  1  0  0  0
 86162  1  0  0  0
M  ISO  4   1 100  68 101  82 101  85 100
M  END
> <chiral flag>
0

> <version>
0

> <s_m_source_file>
/data/baiqing/PycharmProjects/Reinvent-master-3.2/result/LINK_invent/BTK/process_docking_weight1_custom_product_contain_oxygen_bond_distance_aromatic_linkinvent_7_9_3/rearranged_h_0037.sdf

> <i_m_source_file_index>
64

> <r_mmod_Potential_Energy-OPLS-2005>
-200.451614379883

> <r_mmod_Stretch_Energy-OPLS-2005>
33.926197052002

> <r_mmod_Bend_Energy-OPLS-2005>
93.8691864013672

> <r_mmod_Torsional_Energy-OPLS-2005>
248.092071533203

> <r_mmod_Improper_Torsional_Energy-OPLS-2005>
3.84380078315735

> <r_mmod_Van_der_Waal_Energy-OPLS-2005>
163.808074951172

> <r_mmod_Electrostatic_Energy-OPLS-2005>
-526.337341308594

> <r_mmod_Solvation_Energy-OPLS-2005>
-225.240249633789

> <b_mmod_Minimization_Converged-OPLS-2005>
0

> <r_mmod_RMS_Derivative-OPLS-2005>
2.50530624389648

$$$$
64
                    3D
 Structure written by MMmdl.
170179  0  0  1  0            999 V2000
  -29.9218  -15.1595   20.6763 C   0  0  0  0  0  0
  -30.3917  -12.8081   19.6140 C   0  0  0  0  0  0
  -29.5273  -12.6274   18.3326 C   0  0  0  0  0  0
  -28.0521  -12.3286   18.6730 C   0  0  0  0  0  0
  -27.5649  -13.2074   19.8503 C   0  0  2  0  0  0
  -28.5154  -13.1408   21.0449 C   0  0  0  0  0  0
  -25.2134  -13.8085   20.5575 C   0  0  0  0  0  0
  -24.1488  -13.0354   20.9242 C   0  0  0  0  0  0
  -24.6055  -11.6829   20.8729 C   0  0  0  0  0  0
  -23.8819  -10.4227   21.0434 C   0  0  0  0  0  0
  -24.3473   -9.4169   21.9182 C   0  0  0  0  0  0
  -23.6225   -8.2163   22.0729 C   0  0  0  0  0  0
  -22.4211   -8.0185   21.3517 C   0  0  0  0  0  0
  -21.9781   -9.0126   20.4623 C   0  0  0  0  0  0
  -22.7026  -10.2043   20.3060 C   0  0  0  0  0  0
  -21.6833   -6.0674   22.5272 C   0  0  0  0  0  0
  -21.4001   -6.5601   23.8198 C   0  0  0  0  0  0
  -21.3665   -5.6772   24.9175 C   0  0  0  0  0  0
  -21.6048   -4.3031   24.7233 C   0  0  0  0  0  0
  -21.8827   -3.8103   23.4361 C   0  0  0  0  0  0
  -21.9192   -4.6908   22.3410 C   0  0  0  0  0  0
  -22.7585  -13.5181   21.1988 C   0  0  0  0  0  0
  -22.1663   -4.2096   21.0988 F   0  0  0  0  0  0
  -21.5644   -3.4533   25.7755 F   0  0  0  0  0  0
  -29.7075  -13.7774   20.5503 N   0  0  0  0  0  0
  -26.2311  -12.9144   20.2921 N   0  0  0  0  0  0
  -25.8879  -11.6332   20.5503 N   0  0  0  0  0  0
  -22.0306  -12.8144   22.0595 N   0  0  0  0  0  0
  -25.3973  -15.1797   20.4017 N   0  0  0  0  0  0
  -31.0920  -15.4629   20.3353 O   0  0  0  0  0  0
  -21.6612   -6.8775   21.4214 O   0  0  0  0  0  0
  -22.3286  -14.5494   20.6856 O   0  0  0  0  0  0
  -24.6721  -31.9632   23.2298 C   0  0  0  0  0  0
  -25.9661  -32.5138   23.8673 C   0  0  1  0  0  0
  -26.5664  -27.1992   20.1880 C   0  0  0  0  0  0
  -25.6549  -33.8882   24.2670 N   0  0  0  0  0  0
  -23.4538  -30.6600   21.5879 C   0  0  2  0  0  0
  -24.8129  -29.2113   19.9416 C   0  0  0  0  0  0
  -22.9792  -29.6300   22.6323 C   0  0  0  0  0  0
  -18.4126  -27.7470   22.5440 C   0  0  0  0  0  0
  -24.1530  -36.7351   23.2602 C   0  0  0  0  0  0
  -25.9921  -30.7998   21.4464 C   0  0  0  0  0  0
  -25.9226  -29.4532   20.7480 C   0  0  0  0  0  0
  -26.8614  -28.4102   20.8894 C   0  0  0  0  0  0
  -25.9554  -27.2925   18.9721 C   0  0  0  0  0  0
  -24.8856  -28.1884   18.9712 C   0  0  0  0  0  0
  -23.6360  -30.1527   20.1247 C   0  0  0  0  0  0
  -25.4149  -36.3234   24.0352 C   0  0  1  0  0  0
  -21.1438  -28.2287   23.4621 C   0  0  2  0  0  0
  -22.0466  -26.6870   22.7454 C   0  0  0  0  0  0
  -20.5116  -25.3957   21.3264 C   0  0  0  0  0  0
  -18.6909  -26.2918   21.5251 C   0  0  0  0  0  0
  -19.4645  -28.5440   23.3068 C   0  0  0  0  0  0
  -19.0676  -29.7947   23.9151 C   0  0  0  0  0  0
  -17.7514  -30.2967   23.9502 C   0  0  0  0  0  0
  -25.9192  -34.9651   23.5183 C   0  0  0  0  0  0
  -16.7397  -29.5107   23.3851 C   0  0  0  0  0  0
  -17.0707  -28.2909   22.7113 C   0  0  0  0  0  0
  -26.4655  -31.6651   25.0975 C   0  0  0  0  0  0
  -25.3729  -31.3768   26.1532 C   0  0  0  0  0  0
  -27.0413  -30.3046   24.6432 C   0  0  0  0  0  0
  -27.6222  -32.4206   25.7893 C   0  0  0  0  0  0
  -27.5614  -37.1916   24.8478 C   0  0  0  0  0  0
  -21.6924  -29.4479   22.8366 N   0  0  0  0  0  0
  -26.4307  -37.3935   23.9442 N   0  0  0  0  0  0
  -24.7255  -31.2061   22.1052 N   0  0  0  0  0  0
  -23.7850  -29.0178   23.3351 O   0  0  0  0  0  0
  -25.7362  -26.1978   20.7056 O   0  0  0  0  0  0
  -26.5492  -34.9026   22.4597 O   0  0  0  0  0  0
  -23.5931  -32.2503   23.7713 O   0  0  0  0  0  0
  -24.8057  -19.7996   22.7054 C   0  0  0  0  0  0
  -25.8409  -21.2536   21.3163 C   0  0  0  0  0  0
  -24.6743  -21.1832   22.1964 C   0  0  0  0  0  0
  -26.9890  -18.8146   21.5251 C   0  0  0  0  0  0
  -25.8304  -18.7320   22.4228 C   0  0  0  0  0  0
  -26.8781  -20.2043   21.0301 C   0  0  0  0  0  0
  -21.2880  -24.4449   23.6167 C   0  0  0  0  0  0
  -21.1422  -23.8333   24.8093 C   0  0  0  0  0  0
  -20.1000  -25.9537   23.4368 C   0  0  0  0  0  0
  -20.7309  -27.5841   21.1868 C   0  0  0  0  0  0
  -22.4391  -27.0610   20.3342 C   0  0  0  0  0  0
  -23.4855  -24.6023   21.3530 C   0  0  0  0  0  0
  -24.0303  -26.1682   20.9668 C   0  0  1  0  0  0
  -22.0666  -22.8393   25.4880 C   0  0  0  0  0  0
  -28.3567  -17.7135   21.1364 C   0  0  0  0  0  0
  -23.2656  -22.2666   22.4715 C   0  0  0  0  0  0
  -28.7836  -16.0796   21.0582 N   0  0  0  0  0  0
  -22.8499  -23.9106   22.6721 N   0  3  2  0  0  0
  -25.6243  -17.2461   23.2779 Cl  0  0  0  0  0  0
  -28.1364  -20.7259   19.9678 Cl  0  0  0  0  0  0
  -31.3814  -13.1732   19.3412 H   0  0  0  0  0  0
  -30.5550  -11.8521   20.1147 H   0  0  0  0  0  0
  -29.9402  -11.8483   17.6922 H   0  0  0  0  0  0
  -29.5691  -13.5540   17.7559 H   0  0  0  0  0  0
  -27.9574  -11.2730   18.9306 H   0  0  0  0  0  0
  -27.4241  -12.4924   17.7958 H   0  0  0  0  0  0
  -27.5436  -14.2236   19.4577 H   0  0  0  0  0  0
  -28.6904  -12.1127   21.3640 H   0  0  0  0  0  0
  -28.1048  -13.6634   21.9117 H   0  0  0  0  0  0
  -25.2621   -9.5697   22.4742 H   0  0  0  0  0  0
  -23.9973   -7.4555   22.7425 H   0  0  0  0  0  0
  -21.0721   -8.8573   19.8945 H   0  0  0  0  0  0
  -22.3425  -10.9568   19.6184 H   0  0  0  0  0  0
  -21.1982   -7.6112   23.9673 H   0  0  0  0  0  0
  -21.1499   -6.0520   25.9074 H   0  0  0  0  0  0
  -22.0610   -2.7565   23.2878 H   0  0  0  0  0  0
  -22.3983  -11.9800   22.4922 H   0  0  0  0  0  0
  -21.0950  -13.1148   22.2938 H   0  0  0  0  0  0
  -24.6287  -15.8268   20.5308 H   0  0  0  0  0  0
  -26.1799  -15.5944   19.9150 H   0  0  0  0  0  0
  -26.7752  -32.5607   23.1408 H   0  0  0  0  0  0
  -25.0915  -34.0036   25.0970 H   0  0  0  0  0  0
  -22.7074  -31.4576   21.5456 H   0  0  0  0  0  0
  -23.3838  -35.9634   23.3251 H   0  0  0  0  0  0
  -24.3654  -36.8962   22.2020 H   0  0  0  0  0  0
  -23.7216  -37.6543   23.6584 H   0  0  0  0  0  0
  -26.2340  -31.5540   20.6947 H   0  0  0  0  0  0
  -26.8504  -30.7550   22.1036 H   0  0  0  0  0  0
  -27.6126  -28.4469   21.6672 H   0  0  0  0  0  0
  -25.8752  -26.4380   18.3120 H   0  0  0  0  0  0
  -24.1223  -28.0954   18.2109 H   0  0  0  0  0  0
  -23.8872  -31.0221   19.5165 H   0  0  0  0  0  0
  -22.6837  -29.8565   19.6942 H   0  0  0  0  0  0
  -25.1283  -36.2109   25.0839 H   0  0  0  0  0  0
  -21.3840  -28.2932   24.5279 H   0  0  0  0  0  0
  -22.6274  -26.2633   23.5668 H   0  0  0  0  0  0
  -22.8111  -27.2785   22.4576 H   0  0  0  0  0  0
  -20.3702  -24.3266   21.4912 H   0  0  0  0  0  0
  -20.7396  -25.2979   20.2687 H   0  0  0  0  0  0
  -18.3140  -26.5432   20.5325 H   0  0  0  0  0  0
  -17.9562  -25.5420   21.8219 H   0  0  0  0  0  0
  -19.8240  -30.3859   24.4111 H   0  0  0  0  0  0
  -17.5223  -31.2356   24.4328 H   0  0  0  0  0  0
  -15.7106  -29.8418   23.4221 H   0  0  0  0  0  0
  -16.2594  -27.7525   22.2407 H   0  0  0  0  0  0
  -24.5883  -30.7228   25.7680 H   0  0  0  0  0  0
  -24.8938  -32.2924   26.5029 H   0  0  0  0  0  0
  -25.7907  -30.8785   27.0287 H   0  0  0  0  0  0
  -26.3030  -29.6953   24.1207 H   0  0  0  0  0  0
  -27.3777  -29.7151   25.4964 H   0  0  0  0  0  0
  -27.9091  -30.4255   23.9938 H   0  0  0  0  0  0
  -27.2913  -33.3524   26.2491 H   0  0  0  0  0  0
  -28.4158  -32.6705   25.0834 H   0  0  0  0  0  0
  -28.0722  -31.8230   26.5831 H   0  0  0  0  0  0
  -28.2611  -38.0238   24.7573 H   0  0  0  0  0  0
  -28.1146  -36.2781   24.6237 H   0  0  0  0  0  0
  -27.2339  -37.1471   25.8882 H   0  0  0  0  0  0
  -21.0325  -30.0245   22.3365 H   0  0  0  0  0  0
  -26.0197  -38.3011   24.1466 H   0  0  0  0  0  0
  -24.0210  -19.4892   23.3814 H   0  0  0  0  0  0
  -25.9728  -22.1882   20.7902 H   0  0  0  0  0  0
  -20.2898  -24.1153   25.4107 H   0  0  0  0  0  0
  -20.1286  -26.4004   24.4353 H   0  0  0  0  0  0
  -19.1291  -25.4706   23.5749 H   0  0  0  0  0  0
  -20.4779  -28.6410   21.1073 H   0  0  0  0  0  0
  -20.1618  -27.4720   20.2578 H   0  0  0  0  0  0
  -22.6596  -27.9133   19.7612 H   0  0  0  0  0  0
  -22.1879  -26.4363   19.4804 H   0  0  0  0  0  0
  -24.4010  -24.0289   21.2076 H   0  0  0  0  0  0
  -22.8575  -24.2789   20.5220 H   0  0  0  0  0  0
  -24.4019  -26.5718   21.9022 H   0  0  0  0  0  0
  -23.0974  -22.9127   25.1448 H   0  0  0  0  0  0
  -21.7144  -21.8138   25.3721 H   0  0  0  0  0  0
  -22.1060  -23.0599   26.5541 H   0  0  0  0  0  0
  -29.1902  -18.1504   21.6857 H   0  0  0  0  0  0
  -28.5523  -17.9893   20.1038 H   0  0  0  0  0  0
  -22.7980  -21.7639   23.3075 H   0  0  0  0  0  0
  -22.6141  -21.9768   21.6463 H   0  0  0  0  0  0
  -27.9880  -15.5175   21.3253 H   0  0  0  0  0  0
  -23.5718  -24.1585   23.3344 H   0  0  0  0  0  0
  1 25  1  0  0  0
  1 30  2  0  0  0
  1 87  1  0  0  0
  2  3  1  0  0  0
  2 25  1  0  0  0
  2 91  1  0  0  0
  2 92  1  0  0  0
  3  4  1  0  0  0
  3 93  1  0  0  0
  3 94  1  0  0  0
  4  5  1  0  0  0
  4 95  1  0  0  0
  4 96  1  0  0  0
  5  6  1  0  0  0
  5 26  1  0  0  0
  5 97  1  0  0  0
  6 25  1  0  0  0
  6 98  1  0  0  0
  6 99  1  0  0  0
  7  8  2  0  0  0
  7 26  1  0  0  0
  7 29  1  0  0  0
  8  9  1  0  0  0
  8 22  1  0  0  0
  9 10  1  0  0  0
  9 27  2  0  0  0
 10 11  2  0  0  0
 10 15  1  0  0  0
 11 12  1  0  0  0
 11100  1  0  0  0
 12 13  2  0  0  0
 12101  1  0  0  0
 13 14  1  0  0  0
 13 31  1  0  0  0
 14 15  2  0  0  0
 14102  1  0  0  0
 15103  1  0  0  0
 16 17  2  0  0  0
 16 21  1  0  0  0
 16 31  1  0  0  0
 17 18  1  0  0  0
 17104  1  0  0  0
 18 19  2  0  0  0
 18105  1  0  0  0
 19 20  1  0  0  0
 19 24  1  0  0  0
 20 21  2  0  0  0
 20106  1  0  0  0
 21 23  1  0  0  0
 22 28  1  0  0  0
 22 32  2  0  0  0
 26 27  1  0  0  0
 28107  1  0  0  0
 28108  1  0  0  0
 29109  1  0  0  0
 29110  1  0  0  0
 33 34  1  0  0  0
 33 66  1  0  0  0
 33 70  2  0  0  0
 34 36  1  0  0  0
 34 59  1  0  0  0
 34111  1  0  0  0
 35 44  2  0  0  0
 35 45  1  0  0  0
 35 68  1  0  0  0
 36 56  1  0  0  0
 36112  1  0  0  0
 37 39  1  0  0  0
 37 47  1  0  0  0
 37 66  1  0  0  0
 37113  1  0  0  0
 38 43  2  0  0  0
 38 46  1  0  0  0
 38 47  1  0  0  0
 39 64  1  0  0  0
 39 67  2  0  0  0
 40 52  1  0  0  0
 40 53  2  0  0  0
 40 58  1  0  0  0
 41114  1  0  0  0
 41115  1  0  0  0
 41116  1  0  0  0
 41 48  1  0  0  0
 42 43  1  0  0  0
 42 66  1  0  0  0
 42117  1  0  0  0
 42118  1  0  0  0
 43 44  1  0  0  0
 44119  1  0  0  0
 45 46  2  0  0  0
 45120  1  0  0  0
 46121  1  0  0  0
 47122  1  0  0  0
 47123  1  0  0  0
 48 56  1  0  0  0
 48 65  1  0  0  0
 48124  1  0  0  0
 49 50  1  0  0  0
 49 53  1  0  0  0
 49 64  1  0  0  0
 49125  1  0  0  0
 50 51  1  0  0  0
 50126  1  0  0  0
 50127  1  0  0  0
 51 52  1  0  0  0
 51128  1  0  0  0
 51129  1  0  0  0
 52130  1  0  0  0
 52131  1  0  0  0
 53 54  1  0  0  0
 54 55  2  0  0  0
 54132  1  0  0  0
 55 57  1  0  0  0
 55133  1  0  0  0
 56 69  2  0  0  0
 57 58  2  0  0  0
 57134  1  0  0  0
 58135  1  0  0  0
 59 60  1  0  0  0
 59 61  1  0  0  0
 59 62  1  0  0  0
 60136  1  0  0  0
 60137  1  0  0  0
 60138  1  0  0  0
 61139  1  0  0  0
 61140  1  0  0  0
 61141  1  0  0  0
 62142  1  0  0  0
 62143  1  0  0  0
 62144  1  0  0  0
 63 65  1  0  0  0
 63145  1  0  0  0
 63146  1  0  0  0
 63147  1  0  0  0
 64148  1  0  0  0
 65149  1  0  0  0
 68 83  1  0  0  0
 71 73  2  0  0  0
 71 75  1  0  0  0
 71150  1  0  0  0
 72 73  1  0  0  0
 72 76  2  0  0  0
 72151  1  0  0  0
 73 86  1  0  0  0
 74 75  2  0  0  0
 74 76  1  0  0  0
 74 85  1  0  0  0
 75 89  1  0  0  0
 76 90  1  0  0  0
 77 78  2  0  0  0
 77 79  1  0  0  0
 77 88  1  0  0  0
 78 84  1  0  0  0
 78152  1  0  0  0
 79 80  1  0  0  0
 79153  1  0  0  0
 79154  1  0  0  0
 80 81  1  0  0  0
 80155  1  0  0  0
 80156  1  0  0  0
 81 83  1  0  0  0
 81157  1  0  0  0
 81158  1  0  0  0
 82 83  1  0  0  0
 82 88  1  0  0  0
 82159  1  0  0  0
 82160  1  0  0  0
 83161  1  0  0  0
 84162  1  0  0  0
 84163  1  0  0  0
 84164  1  0  0  0
 85 87  1  0  0  0
 85165  1  0  0  0
 85166  1  0  0  0
 86167  1  0  0  0
 86168  1  0  0  0
 86 88  1  0  0  0
 87169  1  0  0  0
 88170  1  0  0  0
M  CHG  1  88   1
M  ISO  4   1 100  68 101  83 101  87 100
M  END
> <chiral flag>
0

> <version>
0

> <s_m_source_file>
/data/baiqing/PycharmProjects/Reinvent-master-3.2/result/LINK_invent/BTK/process_docking_weight1_custom_product_contain_oxygen_bond_distance_aromatic_linkinvent_7_9_3/rearranged_h_0037.sdf

> <i_m_source_file_index>
65

> <r_mmod_Potential_Energy-OPLS-2005>
10467.6748046875

> <r_mmod_Stretch_Energy-OPLS-2005>
5249.14013671875

> <r_mmod_Bend_Energy-OPLS-2005>
1169.138671875

> <r_mmod_Torsional_Energy-OPLS-2005>
480.659820556641

> <r_mmod_Improper_Torsional_Energy-OPLS-2005>
31.5975646972656

> <r_mmod_Van_der_Waal_Energy-OPLS-2005>
2098.00341796875

> <r_mmod_Electrostatic_Energy-OPLS-2005>
-305.219940185547

> <r_mmod_Solvation_Energy-OPLS-2005>
-411.478851318359

> <b_mmod_Minimization_Converged-OPLS-2005>
0

> <r_mmod_RMS_Derivative-OPLS-2005>
6.80580615997314

$$$$
65
                    3D
 Structure written by MMmdl.
166175  0  0  1  0            999 V2000
  -30.7037  -14.5153   20.5564 C   0  0  0  0  0  0
  -30.4225  -12.3278   19.4391 C   0  0  0  0  0  0
  -29.4974  -12.4889   18.2154 C   0  0  0  0  0  0
  -28.0194  -12.3484   18.6305 C   0  0  0  0  0  0
  -27.6576  -13.2120   19.8688 C   0  0  2  0  0  0
  -28.7004  -13.0357   20.9961 C   0  0  0  0  0  0
  -25.2585  -13.8179   20.5710 C   0  0  0  0  0  0
  -24.1835  -13.0449   20.9190 C   0  0  0  0  0  0
  -24.6390  -11.6912   20.8745 C   0  0  0  0  0  0
  -23.9052  -10.4300   21.0411 C   0  0  0  0  0  0
  -24.3606   -9.4219   21.9187 C   0  0  0  0  0  0
  -23.6292   -8.2250   22.0755 C   0  0  0  0  0  0
  -22.4277   -8.0286   21.3540 C   0  0  0  0  0  0
  -21.9905   -9.0256   20.4640 C   0  0  0  0  0  0
  -22.7229  -10.2139   20.3053 C   0  0  0  0  0  0
  -21.6845   -6.0743   22.5281 C   0  0  0  0  0  0
  -21.4005   -6.5641   23.8217 C   0  0  0  0  0  0
  -21.3658   -5.6790   24.9176 C   0  0  0  0  0  0
  -21.6049   -4.3056   24.7220 C   0  0  0  0  0  0
  -21.8819   -3.8150   23.4340 C   0  0  0  0  0  0
  -21.9186   -4.6971   22.3400 C   0  0  0  0  0  0
  -22.7860  -13.5252   21.1843 C   0  0  0  0  0  0
  -22.1654   -4.2157   21.0977 F   0  0  0  0  0  0
  -21.5633   -3.4539   25.7729 F   0  0  0  0  0  0
  -30.0254  -13.3386   20.4345 N   0  0  0  0  0  0
  -26.3007  -12.9350   20.3354 N   0  0  0  0  0  0
  -25.9318  -11.6508   20.5781 N   0  0  0  0  0  0
  -22.0482  -12.8244   22.0389 N   0  0  0  0  0  0
  -25.4310  -15.1902   20.4135 N   0  0  0  0  0  0
  -31.8450  -14.6600   20.1118 O   0  0  0  0  0  0
  -21.6639   -6.8888   21.4244 O   0  0  0  0  0  0
  -22.3552  -14.5560   20.6688 O   0  0  0  0  0  0
  -24.6185  -31.8638   23.2073 C   0  0  0  0  0  0
  -25.9058  -32.4800   23.8377 C   0  0  1  0  0  0
  -27.2277  -27.3912   20.1028 C   0  0  0  0  0  0
  -25.5909  -33.8602   24.2316 N   0  0  0  0  0  0
  -23.4068  -30.4896   21.5477 C   0  0  2  0  0  0
  -24.8522  -28.9552   20.1100 C   0  0  0  0  0  0
  -22.7418  -29.4648   22.4956 C   0  0  0  0  0  0
  -18.0263  -28.1384   22.8482 C   0  0  0  0  0  0
  -24.1484  -36.7314   23.2638 C   0  0  0  0  0  0
  -25.9394  -30.8200   21.3623 C   0  0  0  0  0  0
  -26.0158  -29.4514   20.7097 C   0  0  0  0  0  0
  -27.2060  -28.6789   20.6999 C   0  0  0  0  0  0
  -26.0430  -26.9300   19.4797 C   0  0  0  0  0  0
  -24.8639  -27.6971   19.4880 C   0  0  0  0  0  0
  -23.6165  -29.8259   20.1610 C   0  0  0  0  0  0
  -25.4103  -36.3103   24.0334 C   0  0  1  0  0  0
  -20.5857  -28.3667   23.1303 C   0  0  2  0  0  0
  -20.6756  -26.9398   22.5409 C   0  0  0  0  0  0
  -19.5738  -26.6388   21.5199 C   0  0  0  0  0  0
  -18.1915  -26.7926   22.1610 C   0  0  0  0  0  0
  -19.1515  -28.8838   23.2891 C   0  0  0  0  0  0
  -18.9442  -30.1441   23.8909 C   0  0  0  0  0  0
  -17.6447  -30.6584   24.0565 C   0  0  0  0  0  0
  -25.9034  -34.9468   23.5121 C   0  0  0  0  0  0
  -16.5340  -29.9088   23.6326 C   0  0  0  0  0  0
  -16.7250  -28.6508   23.0339 C   0  0  0  0  0  0
  -26.4492  -31.6567   25.0694 C   0  0  0  0  0  0
  -25.3779  -31.3634   26.1447 C   0  0  0  0  0  0
  -27.0305  -30.3015   24.6034 C   0  0  0  0  0  0
  -27.6079  -32.4274   25.7455 C   0  0  0  0  0  0
  -27.5570  -37.1803   24.8466 C   0  0  0  0  0  0
  -21.4135  -29.3051   22.3713 N   0  0  0  0  0  0
  -26.4287  -37.3789   23.9404 N   0  0  0  0  0  0
  -24.6739  -31.0719   22.0984 N   0  0  0  0  0  0
  -23.4177  -28.8165   23.2989 O   0  0  0  0  0  0
  -28.3788  -26.6130   20.1538 O   0  0  0  0  0  0
  -26.5592  -34.8928   22.4682 O   0  0  0  0  0  0
  -23.5373  -32.1400   23.7457 O   0  0  0  0  0  0
  -28.8961  -17.7679   19.4219 C   0  0  0  0  0  0
  -28.1331  -18.7577   18.7845 C   0  0  0  0  0  0
  -29.6563  -18.0751   20.5664 C   0  0  0  0  0  0
  -29.6549  -19.4232   21.0620 C   0  0  0  0  0  0
  -28.1079  -20.0800   19.2694 C   0  0  0  0  0  0
  -28.8712  -20.4439   20.4139 C   0  0  0  0  0  0
  -30.8017  -17.2546   22.6859 C   0  0  0  0  0  0
  -31.4097  -18.6512   22.8175 C   0  0  0  0  0  0
  -30.5105  -16.9571   21.2115 C   0  0  1  0  0  0
  -30.4498  -19.7521   22.3352 C   0  0  0  0  0  0
  -27.2249  -21.0813   18.5374 C   0  0  0  0  0  0
  -28.7676  -21.9057   20.9485 C   0  0  0  0  0  0
  -29.4356  -24.3568   20.5461 C   0  0  0  0  0  0
  -28.2441  -25.1772   19.9639 C   0  0  0  0  0  0
  -30.0143  -15.5652   21.0605 N   0  0  0  0  0  0
  -29.5071  -22.9118   20.1303 N   0  3  0  0  0  0
  -31.1814  -20.8535   22.1621 F   0  0  0  0  0  0
  -29.5710  -19.9704   23.3145 F   0  0  0  0  0  0
  -31.4676  -12.4199   19.1380 H   0  0  0  0  0  0
  -30.3264  -11.3270   19.8642 H   0  0  0  0  0  0
  -29.7441  -11.7415   17.4597 H   0  0  0  0  0  0
  -29.6609  -13.4621   17.7503 H   0  0  0  0  0  0
  -27.8409  -11.2956   18.8525 H   0  0  0  0  0  0
  -27.3655  -12.5944   17.7934 H   0  0  0  0  0  0
  -27.6906  -14.2526   19.5448 H   0  0  0  0  0  0
  -28.6864  -12.0114   21.3737 H   0  0  0  0  0  0
  -28.4617  -13.6680   21.8526 H   0  0  0  0  0  0
  -25.2745   -9.5703   22.4764 H   0  0  0  0  0  0
  -24.0002   -7.4638   22.7467 H   0  0  0  0  0  0
  -21.0843   -8.8765   19.8938 H   0  0  0  0  0  0
  -22.3683  -10.9676   19.6164 H   0  0  0  0  0  0
  -21.1994   -7.6146   23.9722 H   0  0  0  0  0  0
  -21.1483   -6.0517   25.9075 H   0  0  0  0  0  0
  -22.0600   -2.7611   23.2830 H   0  0  0  0  0  0
  -22.4061  -11.9895   22.4787 H   0  0  0  0  0  0
  -21.1096  -13.1281   22.2569 H   0  0  0  0  0  0
  -24.6706  -15.8490   20.5383 H   0  0  0  0  0  0
  -26.2870  -15.6308   20.1008 H   0  0  0  0  0  0
  -26.7114  -32.5488   23.1124 H   0  0  0  0  0  0
  -25.0065  -33.9768   25.0466 H   0  0  0  0  0  0
  -22.6983  -31.3085   21.4085 H   0  0  0  0  0  0
  -23.3747  -35.9646   23.3306 H   0  0  0  0  0  0
  -24.3598  -36.8930   22.2055 H   0  0  0  0  0  0
  -23.7234  -37.6524   23.6644 H   0  0  0  0  0  0
  -26.0494  -31.5813   20.5884 H   0  0  0  0  0  0
  -26.8307  -30.8793   21.9752 H   0  0  0  0  0  0
  -28.1011  -29.0593   21.1715 H   0  0  0  0  0  0
  -26.0013  -25.9737   18.9803 H   0  0  0  0  0  0
  -23.9711  -27.3146   19.0126 H   0  0  0  0  0  0
  -23.7284  -30.6026   19.4038 H   0  0  0  0  0  0
  -22.7386  -29.2509   19.8610 H   0  0  0  0  0  0
  -25.1280  -36.1974   25.0827 H   0  0  0  0  0  0
  -20.9945  -28.3217   24.1424 H   0  0  0  0  0  0
  -20.5636  -26.2268   23.3594 H   0  0  0  0  0  0
  -21.6622  -26.7424   22.1207 H   0  0  0  0  0  0
  -19.6898  -25.6303   21.1207 H   0  0  0  0  0  0
  -19.6684  -27.3216   20.6744 H   0  0  0  0  0  0
  -17.4180  -26.6667   21.4018 H   0  0  0  0  0  0
  -18.0332  -26.0072   22.9013 H   0  0  0  0  0  0
  -19.7921  -30.7245   24.2302 H   0  0  0  0  0  0
  -17.5007  -31.6266   24.5159 H   0  0  0  0  0  0
  -15.5342  -30.2998   23.7658 H   0  0  0  0  0  0
  -15.8647  -28.0837   22.7053 H   0  0  0  0  0  0
  -24.5989  -30.6931   25.7788 H   0  0  0  0  0  0
  -24.8921  -32.2765   26.4884 H   0  0  0  0  0  0
  -25.8183  -30.8821   27.0189 H   0  0  0  0  0  0
  -26.2805  -29.6771   24.1154 H   0  0  0  0  0  0
  -27.4179  -29.7246   25.4439 H   0  0  0  0  0  0
  -27.8609  -30.4350   23.9103 H   0  0  0  0  0  0
  -27.2711  -33.3577   26.2033 H   0  0  0  0  0  0
  -28.3894  -32.6812   25.0282 H   0  0  0  0  0  0
  -28.0729  -31.8377   26.5361 H   0  0  0  0  0  0
  -28.2592  -38.0092   24.7514 H   0  0  0  0  0  0
  -28.1063  -36.2631   24.6296 H   0  0  0  0  0  0
  -27.2291  -37.1460   25.8869 H   0  0  0  0  0  0
  -20.9282  -29.8822   21.6985 H   0  0  0  0  0  0
  -26.0179  -38.2865   24.1426 H   0  0  0  0  0  0
  -28.8972  -16.7666   19.0136 H   0  0  0  0  0  0
  -27.5550  -18.4860   17.9113 H   0  0  0  0  0  0
  -29.8856  -17.1932   23.2741 H   0  0  0  0  0  0
  -31.4912  -16.5157   23.0942 H   0  0  0  0  0  0
  -32.3233  -18.6851   22.2221 H   0  0  0  0  0  0
  -31.7152  -18.8454   23.8464 H   0  0  0  0  0  0
  -31.4633  -17.0320   20.6839 H   0  0  0  0  0  0
  -26.7269  -20.6234   17.6820 H   0  0  0  0  0  0
  -27.8089  -21.9168   18.1535 H   0  0  0  0  0  0
  -26.4416  -21.4661   19.1913 H   0  0  0  0  0  0
  -29.0960  -21.9791   21.9827 H   0  0  0  0  0  0
  -27.7161  -22.1881   20.9837 H   0  0  0  0  0  0
  -29.4576  -24.4412   21.6328 H   0  0  0  0  0  0
  -30.3538  -24.8266   20.1931 H   0  0  0  0  0  0
  -27.3277  -24.8114   20.4312 H   0  0  0  0  0  0
  -28.1602  -24.9850   18.8940 H   0  0  0  0  0  0
  -29.0705  -15.3818   21.3657 H   0  0  0  0  0  0
  -29.2326  -22.8211   19.1659 H   0  0  0  0  0  0
  -30.4769  -22.6392   20.1733 H   0  0  0  0  0  0
  1 25  1  0  0  0
  1 30  2  0  0  0
  1 85  1  0  0  0
  2  3  1  0  0  0
  2 25  1  0  0  0
  2 89  1  0  0  0
  2 90  1  0  0  0
  3  4  1  0  0  0
  3 91  1  0  0  0
  3 92  1  0  0  0
  4  5  1  0  0  0
  4 93  1  0  0  0
  4 94  1  0  0  0
  5  6  1  0  0  0
  5 26  1  0  0  0
  5 95  1  0  0  0
  6 25  1  0  0  0
  6 96  1  0  0  0
  6 97  1  0  0  0
  7  8  2  0  0  0
  7 26  1  0  0  0
  7 29  1  0  0  0
  8  9  1  0  0  0
  8 22  1  0  0  0
  9 10  1  0  0  0
  9 27  2  0  0  0
 10 11  2  0  0  0
 10 15  1  0  0  0
 11 12  1  0  0  0
 11 98  1  0  0  0
 12 13  2  0  0  0
 12 99  1  0  0  0
 13 14  1  0  0  0
 13 31  1  0  0  0
 14 15  2  0  0  0
 14100  1  0  0  0
 15101  1  0  0  0
 16 17  2  0  0  0
 16 21  1  0  0  0
 16 31  1  0  0  0
 17 18  1  0  0  0
 17102  1  0  0  0
 18 19  2  0  0  0
 18103  1  0  0  0
 19 20  1  0  0  0
 19 24  1  0  0  0
 20 21  2  0  0  0
 20104  1  0  0  0
 21 23  1  0  0  0
 22 28  1  0  0  0
 22 32  2  0  0  0
 26 27  1  0  0  0
 28105  1  0  0  0
 28106  1  0  0  0
 29107  1  0  0  0
 29108  1  0  0  0
 33 34  1  0  0  0
 33 66  1  0  0  0
 33 70  2  0  0  0
 34 36  1  0  0  0
 34 59  1  0  0  0
 34109  1  0  0  0
 35 44  2  0  0  0
 35 45  1  0  0  0
 35 68  1  0  0  0
 36 56  1  0  0  0
 36110  1  0  0  0
 37 39  1  0  0  0
 37 47  1  0  0  0
 37 66  1  0  0  0
 37111  1  0  0  0
 38 43  2  0  0  0
 38 46  1  0  0  0
 38 47  1  0  0  0
 39 64  1  0  0  0
 39 67  2  0  0  0
 40 52  1  0  0  0
 40 53  2  0  0  0
 40 58  1  0  0  0
 41112  1  0  0  0
 41113  1  0  0  0
 41114  1  0  0  0
 41 48  1  0  0  0
 42 43  1  0  0  0
 42 66  1  0  0  0
 42115  1  0  0  0
 42116  1  0  0  0
 43 44  1  0  0  0
 44117  1  0  0  0
 45 46  2  0  0  0
 45118  1  0  0  0
 46119  1  0  0  0
 47120  1  0  0  0
 47121  1  0  0  0
 48 56  1  0  0  0
 48 65  1  0  0  0
 48122  1  0  0  0
 49 50  1  0  0  0
 49 53  1  0  0  0
 49 64  1  0  0  0
 49123  1  0  0  0
 50 51  1  0  0  0
 50124  1  0  0  0
 50125  1  0  0  0
 51 52  1  0  0  0
 51126  1  0  0  0
 51127  1  0  0  0
 52128  1  0  0  0
 52129  1  0  0  0
 53 54  1  0  0  0
 54 55  2  0  0  0
 54130  1  0  0  0
 55 57  1  0  0  0
 55131  1  0  0  0
 56 69  2  0  0  0
 57 58  2  0  0  0
 57132  1  0  0  0
 58133  1  0  0  0
 59 60  1  0  0  0
 59 61  1  0  0  0
 59 62  1  0  0  0
 60134  1  0  0  0
 60135  1  0  0  0
 60136  1  0  0  0
 61137  1  0  0  0
 61138  1  0  0  0
 61139  1  0  0  0
 62140  1  0  0  0
 62141  1  0  0  0
 62142  1  0  0  0
 63 65  1  0  0  0
 63143  1  0  0  0
 63144  1  0  0  0
 63145  1  0  0  0
 64146  1  0  0  0
 65147  1  0  0  0
 68 84  1  0  0  0
 71 72  2  0  0  0
 71 73  1  0  0  0
 71148  1  0  0  0
 72 75  1  0  0  0
 72149  1  0  0  0
 73 74  2  0  0  0
 73 79  1  0  0  0
 74 76  1  0  0  0
 74 80  1  0  0  0
 75 76  2  0  0  0
 75 81  1  0  0  0
 76 82  1  0  0  0
 77 78  1  0  0  0
 77 79  1  0  0  0
 77150  1  0  0  0
 77151  1  0  0  0
 78 80  1  0  0  0
 78152  1  0  0  0
 78153  1  0  0  0
 79 85  1  0  0  0
 79154  1  0  0  0
 80 87  1  0  0  0
 80 88  1  0  0  0
 81155  1  0  0  0
 81156  1  0  0  0
 81157  1  0  0  0
 82 86  1  0  0  0
 82158  1  0  0  0
 82159  1  0  0  0
 83 84  1  0  0  0
 83 86  1  0  0  0
 83160  1  0  0  0
 83161  1  0  0  0
 84162  1  0  0  0
 84163  1  0  0  0
 85164  1  0  0  0
 86165  1  0  0  0
 86166  1  0  0  0
M  CHG  1  86   1
M  ISO  4   1 100  68 101  84 101  85 100
M  END
> <chiral flag>
0

> <version>
0

> <s_m_source_file>
/data/baiqing/PycharmProjects/Reinvent-master-3.2/result/LINK_invent/BTK/process_docking_weight1_custom_product_contain_oxygen_bond_distance_aromatic_linkinvent_7_9_3/rearranged_h_0037.sdf

> <i_m_source_file_index>
66

> <r_mmod_Potential_Energy-OPLS-2005>
-253.860305786133

> <r_mmod_Stretch_Energy-OPLS-2005>
54.5111465454102

> <r_mmod_Bend_Energy-OPLS-2005>
109.063125610352

> <r_mmod_Torsional_Energy-OPLS-2005>
195.541885375977

> <r_mmod_Improper_Torsional_Energy-OPLS-2005>
3.18420553207397

> <r_mmod_Van_der_Waal_Energy-OPLS-2005>
156.075653076172

> <r_mmod_Electrostatic_Energy-OPLS-2005>
-367.749816894531

> <r_mmod_Solvation_Energy-OPLS-2005>
-425.700439453125

> <b_mmod_Minimization_Converged-OPLS-2005>
0

> <r_mmod_RMS_Derivative-OPLS-2005>
1.71209931373596

$$$$
66
                    3D
 Structure written by MMmdl.
173182  0  0  1  0            999 V2000
  -30.7246  -14.4819   20.5755 C   0  0  0  0  0  0
  -30.4186  -12.3183   19.4310 C   0  0  0  0  0  0
  -29.4939  -12.5100   18.2115 C   0  0  0  0  0  0
  -28.0156  -12.3773   18.6232 C   0  0  0  0  0  0
  -27.6603  -13.2185   19.8775 C   0  0  2  0  0  0
  -28.7041  -13.0244   21.0009 C   0  0  0  0  0  0
  -25.2555  -13.8180   20.5682 C   0  0  0  0  0  0
  -24.1838  -13.0439   20.9180 C   0  0  0  0  0  0
  -24.6414  -11.6907   20.8741 C   0  0  0  0  0  0
  -23.9068  -10.4305   21.0410 C   0  0  0  0  0  0
  -24.3622   -9.4203   21.9177 C   0  0  0  0  0  0
  -23.6306   -8.2231   22.0737 C   0  0  0  0  0  0
  -22.4272   -8.0281   21.3548 C   0  0  0  0  0  0
  -21.9919   -9.0245   20.4629 C   0  0  0  0  0  0
  -22.7243  -10.2129   20.3047 C   0  0  0  0  0  0
  -21.6858   -6.0724   22.5277 C   0  0  0  0  0  0
  -21.4018   -6.5637   23.8203 C   0  0  0  0  0  0
  -21.3652   -5.6793   24.9170 C   0  0  0  0  0  0
  -21.6052   -4.3060   24.7234 C   0  0  0  0  0  0
  -21.8815   -3.8142   23.4362 C   0  0  0  0  0  0
  -21.9195   -4.6953   22.3410 C   0  0  0  0  0  0
  -22.7847  -13.5203   21.1868 C   0  0  0  0  0  0
  -22.1659   -4.2133   21.0986 F   0  0  0  0  0  0
  -21.5629   -3.4545   25.7744 F   0  0  0  0  0  0
  -30.0340  -13.3140   20.4441 N   0  0  0  0  0  0
  -26.3030  -12.9396   20.3405 N   0  0  0  0  0  0
  -25.9350  -11.6541   20.5777 N   0  0  0  0  0  0
  -22.0522  -12.8180   22.0424 N   0  0  0  0  0  0
  -25.4242  -15.1915   20.4046 N   0  0  0  0  0  0
  -31.8478  -14.6419   20.0930 O   0  0  0  0  0  0
  -21.6644   -6.8873   21.4232 O   0  0  0  0  0  0
  -22.3502  -14.5499   20.6708 O   0  0  0  0  0  0
  -24.6161  -31.8732   23.2112 C   0  0  0  0  0  0
  -25.9068  -32.4844   23.8409 C   0  0  1  0  0  0
  -27.2349  -27.4487   20.0924 C   0  0  0  0  0  0
  -25.5963  -33.8649   24.2359 N   0  0  0  0  0  0
  -23.4026  -30.4942   21.5556 C   0  0  2  0  0  0
  -24.8499  -28.9600   20.1135 C   0  0  0  0  0  0
  -22.7393  -29.4713   22.5040 C   0  0  0  0  0  0
  -18.0282  -28.1372   22.8583 C   0  0  0  0  0  0
  -24.1482  -36.7283   23.2612 C   0  0  0  0  0  0
  -25.9296  -30.8382   21.3610 C   0  0  0  0  0  0
  -26.0088  -29.4733   20.7090 C   0  0  0  0  0  0
  -27.2090  -28.7254   20.6963 C   0  0  0  0  0  0
  -26.0627  -26.9493   19.4813 C   0  0  0  0  0  0
  -24.8714  -27.6983   19.4967 C   0  0  0  0  0  0
  -23.6094  -29.8242   20.1709 C   0  0  0  0  0  0
  -25.4093  -36.3123   24.0345 C   0  0  1  0  0  0
  -20.5891  -28.3672   23.1310 C   0  0  2  0  0  0
  -20.6790  -26.9424   22.5331 C   0  0  0  0  0  0
  -19.5690  -26.6414   21.5214 C   0  0  0  0  0  0
  -18.1945  -26.7871   22.1798 C   0  0  0  0  0  0
  -19.1537  -28.8829   23.2942 C   0  0  0  0  0  0
  -18.9449  -30.1455   23.8927 C   0  0  0  0  0  0
  -17.6455  -30.6607   24.0572 C   0  0  0  0  0  0
  -25.9034  -34.9500   23.5132 C   0  0  0  0  0  0
  -16.5350  -29.9104   23.6355 C   0  0  0  0  0  0
  -16.7272  -28.6487   23.0453 C   0  0  0  0  0  0
  -26.4484  -31.6590   25.0741 C   0  0  0  0  0  0
  -25.3717  -31.3666   26.1432 C   0  0  0  0  0  0
  -27.0315  -30.3019   24.6100 C   0  0  0  0  0  0
  -27.6055  -32.4276   25.7576 C   0  0  0  0  0  0
  -27.5587  -37.1788   24.8464 C   0  0  0  0  0  0
  -21.4124  -29.3042   22.3697 N   0  0  0  0  0  0
  -26.4283  -37.3783   23.9422 N   0  0  0  0  0  0
  -24.6686  -31.0833   22.1007 N   0  0  0  0  0  0
  -23.4170  -28.8263   23.3082 O   0  0  0  0  0  0
  -28.3687  -26.6683   20.1306 O   0  0  0  0  0  0
  -26.5537  -34.8918   22.4647 O   0  0  0  0  0  0
  -23.5354  -32.1499   23.7490 O   0  0  0  0  0  0
  -27.2963  -18.7610   21.9479 C   0  0  0  0  0  0
  -28.2432  -17.7375   21.7686 C   0  0  0  0  0  0
  -27.6614  -20.1071   21.7725 C   0  0  0  0  0  0
  -29.5698  -18.0422   21.3969 C   0  0  0  0  0  0
  -28.9846  -20.4669   21.4358 C   0  0  0  0  0  0
  -29.9401  -19.4179   21.2402 C   0  0  0  0  0  0
  -28.1050  -23.4956   22.7930 C   0  0  0  0  0  0
  -26.9643  -23.1539   23.4364 C   0  0  0  0  0  0
  -29.1236  -24.5594   23.2242 C   0  0  0  0  0  0
  -29.1688  -25.7667   22.2517 C   0  0  0  0  0  0
  -28.6242  -24.1866   20.4215 C   0  0  0  0  0  0
  -28.2494  -25.5545   21.0367 C   0  0  1  0  0  0
  -31.3634  -19.7920   20.8282 C   0  0  0  0  0  0
  -25.2337  -24.5321   24.6882 C   0  0  0  0  0  0
  -30.5872  -16.9020   21.1717 C   0  0  0  0  0  0
  -29.4021  -21.9522   21.2371 C   0  0  0  0  0  0
  -26.4817  -23.6420   24.7935 C   0  0  0  0  0  0
  -30.0697  -15.5180   21.1384 N   0  0  0  0  0  0
  -28.3735  -23.0395   21.3734 N   0  3  1  0  0  0
  -31.4620  -12.4094   19.1267 H   0  0  0  0  0  0
  -30.3153  -11.3115   19.8378 H   0  0  0  0  0  0
  -29.7323  -11.7763   17.4399 H   0  0  0  0  0  0
  -29.6702  -13.4905   17.7661 H   0  0  0  0  0  0
  -27.8228  -11.3226   18.8205 H   0  0  0  0  0  0
  -27.3663  -12.6534   17.7941 H   0  0  0  0  0  0
  -27.6987  -14.2656   19.5757 H   0  0  0  0  0  0
  -28.6770  -11.9980   21.3726 H   0  0  0  0  0  0
  -28.4677  -13.6495   21.8629 H   0  0  0  0  0  0
  -25.2775   -9.5672   22.4741 H   0  0  0  0  0  0
  -24.0009   -7.4625   22.7465 H   0  0  0  0  0  0
  -21.0839   -8.8781   19.8947 H   0  0  0  0  0  0
  -22.3714  -10.9669   19.6155 H   0  0  0  0  0  0
  -21.2014   -7.6149   23.9703 H   0  0  0  0  0  0
  -21.1470   -6.0529   25.9068 H   0  0  0  0  0  0
  -22.0603   -2.7606   23.2870 H   0  0  0  0  0  0
  -22.4175  -11.9844   22.4803 H   0  0  0  0  0  0
  -21.1121  -13.1140   22.2639 H   0  0  0  0  0  0
  -24.6484  -15.8387   20.4886 H   0  0  0  0  0  0
  -26.2627  -15.6267   20.0436 H   0  0  0  0  0  0
  -26.7169  -32.5532   23.1195 H   0  0  0  0  0  0
  -25.0228  -33.9858   25.0579 H   0  0  0  0  0  0
  -22.6950  -31.3128   21.4181 H   0  0  0  0  0  0
  -23.3780  -35.9555   23.3286 H   0  0  0  0  0  0
  -24.3607  -36.8873   22.2005 H   0  0  0  0  0  0
  -23.7195  -37.6483   23.6622 H   0  0  0  0  0  0
  -26.0371  -31.6017   20.5908 H   0  0  0  0  0  0
  -26.8202  -30.8983   21.9724 H   0  0  0  0  0  0
  -28.1023  -29.1081   21.1709 H   0  0  0  0  0  0
  -26.0644  -25.9772   19.0065 H   0  0  0  0  0  0
  -23.9780  -27.3040   19.0294 H   0  0  0  0  0  0
  -23.7112  -30.5959   19.4098 H   0  0  0  0  0  0
  -22.7321  -29.2465   19.8780 H   0  0  0  0  0  0
  -25.1265  -36.2007   25.0827 H   0  0  0  0  0  0
  -21.0019  -28.3167   24.1399 H   0  0  0  0  0  0
  -20.5858  -26.2194   23.3452 H   0  0  0  0  0  0
  -21.6623  -26.7595   22.0983 H   0  0  0  0  0  0
  -19.6827  -25.6348   21.1169 H   0  0  0  0  0  0
  -19.6458  -27.3242   20.6746 H   0  0  0  0  0  0
  -17.4082  -26.6505   21.4343 H   0  0  0  0  0  0
  -18.0577  -26.0069   22.9308 H   0  0  0  0  0  0
  -19.7936  -30.7333   24.2173 H   0  0  0  0  0  0
  -17.5049  -31.6371   24.5039 H   0  0  0  0  0  0
  -15.5365  -30.3062   23.7683 H   0  0  0  0  0  0
  -15.8666  -28.0792   22.7231 H   0  0  0  0  0  0
  -24.5735  -30.7290   25.7606 H   0  0  0  0  0  0
  -24.9156  -32.2805   26.5209 H   0  0  0  0  0  0
  -25.7937  -30.8479   27.0033 H   0  0  0  0  0  0
  -26.2845  -29.6770   24.1214 H   0  0  0  0  0  0
  -27.4127  -29.7268   25.4561 H   0  0  0  0  0  0
  -27.8632  -30.4341   23.9167 H   0  0  0  0  0  0
  -27.2713  -33.3602   26.2159 H   0  0  0  0  0  0
  -28.3947  -32.6771   25.0481 H   0  0  0  0  0  0
  -28.0683  -31.8375   26.5502 H   0  0  0  0  0  0
  -28.2605  -38.0095   24.7507 H   0  0  0  0  0  0
  -28.1070  -36.2618   24.6256 H   0  0  0  0  0  0
  -27.2338  -37.1356   25.8881 H   0  0  0  0  0  0
  -20.9283  -29.8649   21.6785 H   0  0  0  0  0  0
  -26.0202  -38.2891   24.1373 H   0  0  0  0  0  0
  -26.2786  -18.5071   22.2123 H   0  0  0  0  0  0
  -27.9199  -16.7165   21.9106 H   0  0  0  0  0  0
  -26.8882  -20.8424   21.8915 H   0  0  0  0  0  0
  -26.2617  -22.4843   22.9661 H   0  0  0  0  0  0
  -30.1082  -24.0981   23.3063 H   0  0  0  0  0  0
  -28.9103  -24.9275   24.2250 H   0  0  0  0  0  0
  -30.1931  -25.9168   21.9143 H   0  0  0  0  0  0
  -28.9000  -26.6877   22.7679 H   0  0  0  0  0  0
  -29.6823  -24.2241   20.1504 H   0  0  0  0  0  0
  -28.0692  -24.0243   19.4975 H   0  0  0  0  0  0
  -27.2171  -25.4889   21.3945 H   0  0  0  0  0  0
  -32.0899  -18.9934   20.9657 H   0  0  0  0  0  0
  -31.7398  -20.6326   21.4149 H   0  0  0  0  0  0
  -31.3798  -20.0757   19.7754 H   0  0  0  0  0  0
  -25.4863  -25.4953   24.2368 H   0  0  0  0  0  0
  -24.8057  -24.7298   25.6725 H   0  0  0  0  0  0
  -24.4489  -24.0737   24.0807 H   0  0  0  0  0  0
  -31.3465  -16.9641   21.9539 H   0  0  0  0  0  0
  -31.0974  -17.0987   20.2258 H   0  0  0  0  0  0
  -29.8072  -22.0043   20.2275 H   0  0  0  0  0  0
  -30.2274  -22.1830   21.9100 H   0  0  0  0  0  0
  -27.2552  -24.1772   25.3372 H   0  0  0  0  0  0
  -26.2496  -22.7667   25.3988 H   0  0  0  0  0  0
  -29.1517  -15.3482   21.5159 H   0  0  0  0  0  0
  -27.5217  -22.6222   21.0265 H   0  0  0  0  0  0
  1 25  1  0  0  0
  1 30  2  0  0  0
  1 88  1  0  0  0
  2  3  1  0  0  0
  2 25  1  0  0  0
  2 90  1  0  0  0
  2 91  1  0  0  0
  3  4  1  0  0  0
  3 92  1  0  0  0
  3 93  1  0  0  0
  4  5  1  0  0  0
  4 94  1  0  0  0
  4 95  1  0  0  0
  5  6  1  0  0  0
  5 26  1  0  0  0
  5 96  1  0  0  0
  6 25  1  0  0  0
  6 97  1  0  0  0
  6 98  1  0  0  0
  7  8  2  0  0  0
  7 26  1  0  0  0
  7 29  1  0  0  0
  8  9  1  0  0  0
  8 22  1  0  0  0
  9 10  1  0  0  0
  9 27  2  0  0  0
 10 11  2  0  0  0
 10 15  1  0  0  0
 11 12  1  0  0  0
 11 99  1  0  0  0
 12 13  2  0  0  0
 12100  1  0  0  0
 13 14  1  0  0  0
 13 31  1  0  0  0
 14 15  2  0  0  0
 14101  1  0  0  0
 15102  1  0  0  0
 16 17  2  0  0  0
 16 21  1  0  0  0
 16 31  1  0  0  0
 17 18  1  0  0  0
 17103  1  0  0  0
 18 19  2  0  0  0
 18104  1  0  0  0
 19 20  1  0  0  0
 19 24  1  0  0  0
 20 21  2  0  0  0
 20105  1  0  0  0
 21 23  1  0  0  0
 22 28  1  0  0  0
 22 32  2  0  0  0
 26 27  1  0  0  0
 28106  1  0  0  0
 28107  1  0  0  0
 29108  1  0  0  0
 29109  1  0  0  0
 33 34  1  0  0  0
 33 66  1  0  0  0
 33 70  2  0  0  0
 34 36  1  0  0  0
 34 59  1  0  0  0
 34110  1  0  0  0
 35 44  2  0  0  0
 35 45  1  0  0  0
 35 68  1  0  0  0
 36 56  1  0  0  0
 36111  1  0  0  0
 37 39  1  0  0  0
 37 47  1  0  0  0
 37 66  1  0  0  0
 37112  1  0  0  0
 38 43  2  0  0  0
 38 46  1  0  0  0
 38 47  1  0  0  0
 39 64  1  0  0  0
 39 67  2  0  0  0
 40 52  1  0  0  0
 40 53  2  0  0  0
 40 58  1  0  0  0
 41113  1  0  0  0
 41114  1  0  0  0
 41115  1  0  0  0
 41 48  1  0  0  0
 42 43  1  0  0  0
 42 66  1  0  0  0
 42116  1  0  0  0
 42117  1  0  0  0
 43 44  1  0  0  0
 44118  1  0  0  0
 45 46  2  0  0  0
 45119  1  0  0  0
 46120  1  0  0  0
 47121  1  0  0  0
 47122  1  0  0  0
 48 56  1  0  0  0
 48 65  1  0  0  0
 48123  1  0  0  0
 49 50  1  0  0  0
 49 53  1  0  0  0
 49 64  1  0  0  0
 49124  1  0  0  0
 50 51  1  0  0  0
 50125  1  0  0  0
 50126  1  0  0  0
 51 52  1  0  0  0
 51127  1  0  0  0
 51128  1  0  0  0
 52129  1  0  0  0
 52130  1  0  0  0
 53 54  1  0  0  0
 54 55  2  0  0  0
 54131  1  0  0  0
 55 57  1  0  0  0
 55132  1  0  0  0
 56 69  2  0  0  0
 57 58  2  0  0  0
 57133  1  0  0  0
 58134  1  0  0  0
 59 60  1  0  0  0
 59 61  1  0  0  0
 59 62  1  0  0  0
 60135  1  0  0  0
 60136  1  0  0  0
 60137  1  0  0  0
 61138  1  0  0  0
 61139  1  0  0  0
 61140  1  0  0  0
 62141  1  0  0  0
 62142  1  0  0  0
 62143  1  0  0  0
 63 65  1  0  0  0
 63144  1  0  0  0
 63145  1  0  0  0
 63146  1  0  0  0
 64147  1  0  0  0
 65148  1  0  0  0
 68 82  1  0  0  0
 71 72  2  0  0  0
 71 73  1  0  0  0
 71149  1  0  0  0
 72 74  1  0  0  0
 72150  1  0  0  0
 73 75  2  0  0  0
 73151  1  0  0  0
 74 76  2  0  0  0
 74 85  1  0  0  0
 75 76  1  0  0  0
 75 86  1  0  0  0
 76 83  1  0  0  0
 77 78  2  0  0  0
 77 79  1  0  0  0
 77 89  1  0  0  0
 78 87  1  0  0  0
 78152  1  0  0  0
 79 80  1  0  0  0
 79153  1  0  0  0
 79154  1  0  0  0
 80 82  1  0  0  0
 80155  1  0  0  0
 80156  1  0  0  0
 81 82  1  0  0  0
 81 89  1  0  0  0
 81157  1  0  0  0
 81158  1  0  0  0
 82159  1  0  0  0
 83160  1  0  0  0
 83161  1  0  0  0
 83162  1  0  0  0
 84 87  1  0  0  0
 84163  1  0  0  0
 84164  1  0  0  0
 84165  1  0  0  0
 85 88  1  0  0  0
 85166  1  0  0  0
 85167  1  0  0  0
 86168  1  0  0  0
 86169  1  0  0  0
 86 89  1  0  0  0
 87170  1  0  0  0
 87171  1  0  0  0
 88172  1  0  0  0
 89173  1  0  0  0
M  CHG  1  89   1
M  ISO  4   1 100  68 101  82 101  88 100
M  END
> <chiral flag>
0

> <version>
0

> <s_m_source_file>
/data/baiqing/PycharmProjects/Reinvent-master-3.2/result/LINK_invent/BTK/process_docking_weight1_custom_product_contain_oxygen_bond_distance_aromatic_linkinvent_7_9_3/rearranged_h_0037.sdf

> <i_m_source_file_index>
67

> <r_mmod_Potential_Energy-OPLS-2005>
-120.44962310791

> <r_mmod_Stretch_Energy-OPLS-2005>
51.1371879577637

> <r_mmod_Bend_Energy-OPLS-2005>
109.659645080566

> <r_mmod_Torsional_Energy-OPLS-2005>
255.640518188477

> <r_mmod_Improper_Torsional_Energy-OPLS-2005>
3.72289729118347

> <r_mmod_Van_der_Waal_Energy-OPLS-2005>
168.129272460938

> <r_mmod_Electrostatic_Energy-OPLS-2005>
-310.466064453125

> <r_mmod_Solvation_Energy-OPLS-2005>
-412.538818359375

> <b_mmod_Minimization_Converged-OPLS-2005>
0

> <r_mmod_RMS_Derivative-OPLS-2005>
4.79165935516357

$$$$
67
                    3D
 Structure written by MMmdl.
173182  0  0  1  0            999 V2000
  -30.6144  -14.6577   20.4612 C   0  0  0  0  0  0
  -30.4469  -12.3976   19.4417 C   0  0  0  0  0  0
  -29.5071  -12.5016   18.2197 C   0  0  0  0  0  0
  -28.0312  -12.3314   18.6385 C   0  0  0  0  0  0
  -27.6516  -13.2015   19.8647 C   0  0  2  0  0  0
  -28.7079  -13.0772   20.9876 C   0  0  0  0  0  0
  -25.2510  -13.8037   20.5806 C   0  0  0  0  0  0
  -24.1787  -13.0318   20.9257 C   0  0  0  0  0  0
  -24.6381  -11.6817   20.8765 C   0  0  0  0  0  0
  -23.9054  -10.4229   21.0409 C   0  0  0  0  0  0
  -24.3605   -9.4158   21.9192 C   0  0  0  0  0  0
  -23.6273   -8.2208   22.0763 C   0  0  0  0  0  0
  -22.4256   -8.0263   21.3547 C   0  0  0  0  0  0
  -21.9890   -9.0234   20.4647 C   0  0  0  0  0  0
  -22.7231  -10.2099   20.3050 C   0  0  0  0  0  0
  -21.6843   -6.0723   22.5277 C   0  0  0  0  0  0
  -21.4016   -6.5630   23.8211 C   0  0  0  0  0  0
  -21.3659   -5.6785   24.9173 C   0  0  0  0  0  0
  -21.6039   -4.3047   24.7223 C   0  0  0  0  0  0
  -21.8822   -3.8139   23.4345 C   0  0  0  0  0  0
  -21.9189   -4.6954   22.3400 C   0  0  0  0  0  0
  -22.7816  -13.5149   21.1886 C   0  0  0  0  0  0
  -22.1660   -4.2143   21.0977 F   0  0  0  0  0  0
  -21.5622   -3.4532   25.7736 F   0  0  0  0  0  0
  -30.0199  -13.4230   20.4104 N   0  0  0  0  0  0
  -26.2970  -12.9250   20.3363 N   0  0  0  0  0  0
  -25.9306  -11.6410   20.5770 N   0  0  0  0  0  0
  -22.0438  -12.8171   22.0445 N   0  0  0  0  0  0
  -25.3994  -15.1749   20.4372 N   0  0  0  0  0  0
  -31.7961  -14.8266   20.1493 O   0  0  0  0  0  0
  -21.6619   -6.8864   21.4241 O   0  0  0  0  0  0
  -22.3522  -14.5460   20.6716 O   0  0  0  0  0  0
  -24.6246  -31.8604   23.2030 C   0  0  0  0  0  0
  -25.9098  -32.4783   23.8361 C   0  0  1  0  0  0
  -27.2370  -27.3351   20.1020 C   0  0  0  0  0  0
  -25.5915  -33.8583   24.2284 N   0  0  0  0  0  0
  -23.4179  -30.4836   21.5450 C   0  0  2  0  0  0
  -24.8661  -28.9402   20.1088 C   0  0  0  0  0  0
  -22.7473  -29.4621   22.4938 C   0  0  0  0  0  0
  -18.0281  -28.1391   22.8484 C   0  0  0  0  0  0
  -24.1483  -36.7292   23.2638 C   0  0  0  0  0  0
  -25.9574  -30.7927   21.3747 C   0  0  0  0  0  0
  -26.0308  -29.4204   20.7184 C   0  0  0  0  0  0
  -27.2121  -28.6250   20.7140 C   0  0  0  0  0  0
  -26.0475  -26.9059   19.4649 C   0  0  0  0  0  0
  -24.8758  -27.6871   19.4776 C   0  0  0  0  0  0
  -23.6327  -29.8192   20.1593 C   0  0  0  0  0  0
  -25.4106  -36.3083   24.0329 C   0  0  1  0  0  0
  -20.5881  -28.3690   23.1287 C   0  0  2  0  0  0
  -20.6769  -26.9412   22.5414 C   0  0  0  0  0  0
  -19.5744  -26.6388   21.5216 C   0  0  0  0  0  0
  -18.1925  -26.7933   22.1627 C   0  0  0  0  0  0
  -19.1533  -28.8856   23.2884 C   0  0  0  0  0  0
  -18.9460  -30.1454   23.8908 C   0  0  0  0  0  0
  -17.6461  -30.6588   24.0568 C   0  0  0  0  0  0
  -25.9045  -34.9453   23.5110 C   0  0  0  0  0  0
  -16.5353  -29.9092   23.6322 C   0  0  0  0  0  0
  -16.7270  -28.6510   23.0344 C   0  0  0  0  0  0
  -26.4485  -31.6589   25.0729 C   0  0  0  0  0  0
  -25.3722  -31.3724   26.1461 C   0  0  0  0  0  0
  -27.0323  -30.3016   24.6173 C   0  0  0  0  0  0
  -27.6051  -32.4320   25.7496 C   0  0  0  0  0  0
  -27.5573  -37.1796   24.8460 C   0  0  0  0  0  0
  -21.4184  -29.3042   22.3685 N   0  0  0  0  0  0
  -26.4283  -37.3776   23.9410 N   0  0  0  0  0  0
  -24.6851  -31.0625   22.0981 N   0  0  0  0  0  0
  -23.4199  -28.8155   23.3010 O   0  0  0  0  0  0
  -28.3865  -26.5310   20.1785 O   0  0  0  0  0  0
  -26.5623  -34.8918   22.4681 O   0  0  0  0  0  0
  -23.5414  -32.1402   23.7365 O   0  0  0  0  0  0
  -30.8049  -18.0018   20.9933 C   0  0  0  0  0  0
  -30.6483  -19.4276   21.0131 C   0  0  0  0  0  0
  -29.4414  -20.0730   20.5776 C   0  0  0  0  0  0
  -28.4437  -19.2037   20.0312 C   0  0  0  0  0  0
  -29.7968  -17.1470   20.4849 C   0  0  0  0  0  0
  -28.6679  -17.7944   19.9219 C   0  0  0  0  0  0
  -29.3948  -24.1828   20.3289 C   0  0  0  0  0  0
  -30.1262  -24.5506   21.3979 C   0  0  0  0  0  0
  -28.8713  -24.4978   17.0535 C   0  0  0  0  0  0
  -29.5870  -23.1791   17.3498 C   0  0  0  0  0  0
  -29.0551  -25.5517   18.1483 C   0  0  0  0  0  0
  -28.9246  -22.3981   18.4934 C   0  0  0  0  0  0
  -28.4862  -25.2000   19.5420 C   0  0  2  0  0  0
  -31.7888  -20.2439   21.5989 C   0  0  0  0  0  0
  -26.0166  -19.4706   20.7408 C   0  0  0  0  0  0
  -27.0575  -19.7299   19.6431 C   0  0  0  0  0  0
  -29.1538  -21.6152   20.8564 C   0  0  0  0  0  0
  -29.7427  -15.6927   20.6483 N   0  0  0  0  0  0
  -29.4864  -22.6997   19.8358 N   0  3  2  0  0  0
  -27.5271  -16.8220   19.0648 Cl  0  0  0  0  0  0
  -31.4855  -12.5323   19.1343 H   0  0  0  0  0  0
  -30.3919  -11.4043   19.8894 H   0  0  0  0  0  0
  -29.7720  -11.7507   17.4740 H   0  0  0  0  0  0
  -29.6410  -13.4700   17.7351 H   0  0  0  0  0  0
  -27.8740  -11.2780   18.8727 H   0  0  0  0  0  0
  -27.3736  -12.5583   17.7990 H   0  0  0  0  0  0
  -27.6573  -14.2256   19.5095 H   0  0  0  0  0  0
  -28.7287  -12.0606   21.3835 H   0  0  0  0  0  0
  -28.4605  -13.7215   21.8328 H   0  0  0  0  0  0
  -25.2747   -9.5635   22.4769 H   0  0  0  0  0  0
  -23.9969   -7.4594   22.7486 H   0  0  0  0  0  0
  -21.0818   -8.8761   19.8954 H   0  0  0  0  0  0
  -22.3703  -10.9643   19.6161 H   0  0  0  0  0  0
  -21.2022   -7.6140   23.9713 H   0  0  0  0  0  0
  -21.1476   -6.0516   25.9075 H   0  0  0  0  0  0
  -22.0604   -2.7603   23.2844 H   0  0  0  0  0  0
  -22.4030  -11.9830   22.4844 H   0  0  0  0  0  0
  -21.1063  -13.1224   22.2633 H   0  0  0  0  0  0
  -24.6072  -15.7990   20.5304 H   0  0  0  0  0  0
  -26.2030  -15.6269   20.0148 H   0  0  0  0  0  0
  -26.7171  -32.5456   23.1114 H   0  0  0  0  0  0
  -25.0048  -33.9731   25.0421 H   0  0  0  0  0  0
  -22.7111  -31.3037   21.4036 H   0  0  0  0  0  0
  -23.3746  -35.9623   23.3299 H   0  0  0  0  0  0
  -24.3578  -36.8919   22.2054 H   0  0  0  0  0  0
  -23.7241  -37.6493   23.6666 H   0  0  0  0  0  0
  -26.0884  -31.5550   20.6053 H   0  0  0  0  0  0
  -26.8385  -30.8431   22.0025 H   0  0  0  0  0  0
  -28.1042  -28.9883   21.2050 H   0  0  0  0  0  0
  -25.9780  -25.9599   18.9527 H   0  0  0  0  0  0
  -23.9835  -27.3158   18.9925 H   0  0  0  0  0  0
  -23.7521  -30.5973   19.4045 H   0  0  0  0  0  0
  -22.7529  -29.2494   19.8549 H   0  0  0  0  0  0
  -25.1286  -36.1935   25.0822 H   0  0  0  0  0  0
  -20.9977  -28.3269   24.1406 H   0  0  0  0  0  0
  -20.5667  -26.2302   23.3615 H   0  0  0  0  0  0
  -21.6640  -26.7439   22.1211 H   0  0  0  0  0  0
  -19.6902  -25.6300   21.1241 H   0  0  0  0  0  0
  -19.6678  -27.3200   20.6747 H   0  0  0  0  0  0
  -17.4193  -26.6679   21.4032 H   0  0  0  0  0  0
  -18.0322  -26.0078   22.9027 H   0  0  0  0  0  0
  -19.7939  -30.7263   24.2292 H   0  0  0  0  0  0
  -17.5017  -31.6269   24.5171 H   0  0  0  0  0  0
  -15.5354  -30.3004   23.7633 H   0  0  0  0  0  0
  -15.8670  -28.0833   22.7054 H   0  0  0  0  0  0
  -24.5898  -30.7069   25.7795 H   0  0  0  0  0  0
  -24.8908  -32.2888   26.4886 H   0  0  0  0  0  0
  -25.8051  -30.8908   27.0239 H   0  0  0  0  0  0
  -26.2890  -29.6777   24.1196 H   0  0  0  0  0  0
  -27.4028  -29.7262   25.4668 H   0  0  0  0  0  0
  -27.8757  -30.4309   23.9385 H   0  0  0  0  0  0
  -27.2668  -33.3623   26.2069 H   0  0  0  0  0  0
  -28.3858  -32.6875   25.0318 H   0  0  0  0  0  0
  -28.0719  -31.8448   26.5415 H   0  0  0  0  0  0
  -28.2585  -38.0098   24.7521 H   0  0  0  0  0  0
  -28.1078  -36.2635   24.6267 H   0  0  0  0  0  0
  -27.2299  -37.1423   25.8864 H   0  0  0  0  0  0
  -20.9363  -29.8787   21.6914 H   0  0  0  0  0  0
  -26.0165  -38.2848   24.1423 H   0  0  0  0  0  0
  -31.6940  -17.5576   21.4185 H   0  0  0  0  0  0
  -30.1010  -25.5678   21.7609 H   0  0  0  0  0  0
  -30.7700  -23.8643   21.9282 H   0  0  0  0  0  0
  -27.8087  -24.3235   16.8759 H   0  0  0  0  0  0
  -29.2596  -24.9021   16.1173 H   0  0  0  0  0  0
  -30.6518  -23.3339   17.5296 H   0  0  0  0  0  0
  -29.5293  -22.5693   16.4468 H   0  0  0  0  0  0
  -28.5632  -26.4561   17.7874 H   0  0  0  0  0  0
  -30.1093  -25.8171   18.2412 H   0  0  0  0  0  0
  -29.0840  -21.3423   18.2763 H   0  0  0  0  0  0
  -27.8466  -22.5549   18.4822 H   0  0  0  0  0  0
  -27.5132  -24.7210   19.4674 H   0  0  0  0  0  0
  -32.7089  -19.6597   21.6479 H   0  0  0  0  0  0
  -31.5494  -20.5687   22.6117 H   0  0  0  0  0  0
  -32.0010  -21.1228   20.9908 H   0  0  0  0  0  0
  -25.0424  -19.8637   20.4500 H   0  0  0  0  0  0
  -26.3004  -19.9503   21.6779 H   0  0  0  0  0  0
  -25.8935  -18.4054   20.9371 H   0  0  0  0  0  0
  -26.7300  -19.2856   18.7029 H   0  0  0  0  0  0
  -27.0591  -20.7913   19.4391 H   0  0  0  0  0  0
  -29.6709  -21.8618   21.7819 H   0  0  0  0  0  0
  -28.1068  -21.7364   21.1323 H   0  0  0  0  0  0
  -28.7982  -15.3508   20.7367 H   0  0  0  0  0  0
  -30.4702  -22.5379   19.6832 H   0  0  0  0  0  0
  1 25  1  0  0  0
  1 30  2  0  0  0
  1 88  1  0  0  0
  2  3  1  0  0  0
  2 25  1  0  0  0
  2 91  1  0  0  0
  2 92  1  0  0  0
  3  4  1  0  0  0
  3 93  1  0  0  0
  3 94  1  0  0  0
  4  5  1  0  0  0
  4 95  1  0  0  0
  4 96  1  0  0  0
  5  6  1  0  0  0
  5 26  1  0  0  0
  5 97  1  0  0  0
  6 25  1  0  0  0
  6 98  1  0  0  0
  6 99  1  0  0  0
  7  8  2  0  0  0
  7 26  1  0  0  0
  7 29  1  0  0  0
  8  9  1  0  0  0
  8 22  1  0  0  0
  9 10  1  0  0  0
  9 27  2  0  0  0
 10 11  2  0  0  0
 10 15  1  0  0  0
 11 12  1  0  0  0
 11100  1  0  0  0
 12 13  2  0  0  0
 12101  1  0  0  0
 13 14  1  0  0  0
 13 31  1  0  0  0
 14 15  2  0  0  0
 14102  1  0  0  0
 15103  1  0  0  0
 16 17  2  0  0  0
 16 21  1  0  0  0
 16 31  1  0  0  0
 17 18  1  0  0  0
 17104  1  0  0  0
 18 19  2  0  0  0
 18105  1  0  0  0
 19 20  1  0  0  0
 19 24  1  0  0  0
 20 21  2  0  0  0
 20106  1  0  0  0
 21 23  1  0  0  0
 22 28  1  0  0  0
 22 32  2  0  0  0
 26 27  1  0  0  0
 28107  1  0  0  0
 28108  1  0  0  0
 29109  1  0  0  0
 29110  1  0  0  0
 33 34  1  0  0  0
 33 66  1  0  0  0
 33 70  2  0  0  0
 34 36  1  0  0  0
 34 59  1  0  0  0
 34111  1  0  0  0
 35 44  2  0  0  0
 35 45  1  0  0  0
 35 68  1  0  0  0
 36 56  1  0  0  0
 36112  1  0  0  0
 37 39  1  0  0  0
 37 47  1  0  0  0
 37 66  1  0  0  0
 37113  1  0  0  0
 38 43  2  0  0  0
 38 46  1  0  0  0
 38 47  1  0  0  0
 39 64  1  0  0  0
 39 67  2  0  0  0
 40 52  1  0  0  0
 40 53  2  0  0  0
 40 58  1  0  0  0
 41114  1  0  0  0
 41115  1  0  0  0
 41116  1  0  0  0
 41 48  1  0  0  0
 42 43  1  0  0  0
 42 66  1  0  0  0
 42117  1  0  0  0
 42118  1  0  0  0
 43 44  1  0  0  0
 44119  1  0  0  0
 45 46  2  0  0  0
 45120  1  0  0  0
 46121  1  0  0  0
 47122  1  0  0  0
 47123  1  0  0  0
 48 56  1  0  0  0
 48 65  1  0  0  0
 48124  1  0  0  0
 49 50  1  0  0  0
 49 53  1  0  0  0
 49 64  1  0  0  0
 49125  1  0  0  0
 50 51  1  0  0  0
 50126  1  0  0  0
 50127  1  0  0  0
 51 52  1  0  0  0
 51128  1  0  0  0
 51129  1  0  0  0
 52130  1  0  0  0
 52131  1  0  0  0
 53 54  1  0  0  0
 54 55  2  0  0  0
 54132  1  0  0  0
 55 57  1  0  0  0
 55133  1  0  0  0
 56 69  2  0  0  0
 57 58  2  0  0  0
 57134  1  0  0  0
 58135  1  0  0  0
 59 60  1  0  0  0
 59 61  1  0  0  0
 59 62  1  0  0  0
 60136  1  0  0  0
 60137  1  0  0  0
 60138  1  0  0  0
 61139  1  0  0  0
 61140  1  0  0  0
 61141  1  0  0  0
 62142  1  0  0  0
 62143  1  0  0  0
 62144  1  0  0  0
 63 65  1  0  0  0
 63145  1  0  0  0
 63146  1  0  0  0
 63147  1  0  0  0
 64148  1  0  0  0
 65149  1  0  0  0
 68 83  1  0  0  0
 71 72  2  0  0  0
 71 75  1  0  0  0
 71150  1  0  0  0
 72 73  1  0  0  0
 72 84  1  0  0  0
 73 74  2  0  0  0
 73 87  1  0  0  0
 74 76  1  0  0  0
 74 86  1  0  0  0
 75 76  2  0  0  0
 75 88  1  0  0  0
 76 90  1  0  0  0
 77 78  2  0  0  0
 77 83  1  0  0  0
 77 89  1  0  0  0
 78151  1  0  0  0
 78152  1  0  0  0
 79 80  1  0  0  0
 79 81  1  0  0  0
 79153  1  0  0  0
 79154  1  0  0  0
 80 82  1  0  0  0
 80155  1  0  0  0
 80156  1  0  0  0
 81 83  1  0  0  0
 81157  1  0  0  0
 81158  1  0  0  0
 82 89  1  0  0  0
 82159  1  0  0  0
 82160  1  0  0  0
 83161  1  0  0  0
 84162  1  0  0  0
 84163  1  0  0  0
 84164  1  0  0  0
 85 86  1  0  0  0
 85165  1  0  0  0
 85166  1  0  0  0
 85167  1  0  0  0
 86168  1  0  0  0
 86169  1  0  0  0
 87170  1  0  0  0
 87171  1  0  0  0
 87 89  1  0  0  0
 88172  1  0  0  0
 89173  1  0  0  0
M  CHG  1  89   1
M  ISO  4   1 100  68 101  83 101  88 100
M  END
> <chiral flag>
0

> <version>
0

> <s_m_source_file>
/data/baiqing/PycharmProjects/Reinvent-master-3.2/result/LINK_invent/BTK/process_docking_weight1_custom_product_contain_oxygen_bond_distance_aromatic_linkinvent_7_9_3/rearranged_h_0037.sdf

> <i_m_source_file_index>
68

> <r_mmod_Potential_Energy-OPLS-2005>
21.4824867248535

> <r_mmod_Stretch_Energy-OPLS-2005>
91.8790969848633

> <r_mmod_Bend_Energy-OPLS-2005>
175.070785522461

> <r_mmod_Torsional_Energy-OPLS-2005>
245.796585083008

> <r_mmod_Improper_Torsional_Energy-OPLS-2005>
8.26517963409424

> <r_mmod_Van_der_Waal_Energy-OPLS-2005>
153.731826782227

> <r_mmod_Electrostatic_Energy-OPLS-2005>
-282.837524414062

> <r_mmod_Solvation_Energy-OPLS-2005>
-420.223236083984

> <b_mmod_Minimization_Converged-OPLS-2005>
0

> <r_mmod_RMS_Derivative-OPLS-2005>
1.01925456523895

$$$$
68
                    3D
 Structure written by MMmdl.
169178  0  0  1  0            999 V2000
  -30.7898  -14.4517   20.5166 C   0  0  0  0  0  0
  -30.4010  -12.2841   19.4545 C   0  0  0  0  0  0
  -29.4974  -12.4533   18.2241 C   0  0  0  0  0  0
  -28.0187  -12.3389   18.6324 C   0  0  0  0  0  0
  -27.6540  -13.2205   19.8616 C   0  0  2  0  0  0
  -28.6990  -13.0825   20.9924 C   0  0  0  0  0  0
  -25.2555  -13.8207   20.5665 C   0  0  0  0  0  0
  -24.1857  -13.0499   20.9147 C   0  0  0  0  0  0
  -24.6434  -11.6920   20.8709 C   0  0  0  0  0  0
  -23.9091  -10.4338   21.0371 C   0  0  0  0  0  0
  -24.3637   -9.4227   21.9173 C   0  0  0  0  0  0
  -23.6301   -8.2261   22.0760 C   0  0  0  0  0  0
  -22.4294   -8.0303   21.3546 C   0  0  0  0  0  0
  -21.9916   -9.0271   20.4647 C   0  0  0  0  0  0
  -22.7237  -10.2151   20.3031 C   0  0  0  0  0  0
  -21.6841   -6.0748   22.5300 C   0  0  0  0  0  0
  -21.3987   -6.5637   23.8234 C   0  0  0  0  0  0
  -21.3677   -5.6787   24.9205 C   0  0  0  0  0  0
  -21.6018   -4.3050   24.7235 C   0  0  0  0  0  0
  -21.8822   -3.8146   23.4370 C   0  0  0  0  0  0
  -21.9182   -4.6975   22.3415 C   0  0  0  0  0  0
  -22.7852  -13.5193   21.1860 C   0  0  0  0  0  0
  -22.1652   -4.2154   21.0994 F   0  0  0  0  0  0
  -21.5659   -3.4535   25.7755 F   0  0  0  0  0  0
  -30.0255  -13.3345   20.4158 N   0  0  0  0  0  0
  -26.3007  -12.9412   20.3279 N   0  0  0  0  0  0
  -25.9346  -11.6562   20.5723 N   0  0  0  0  0  0
  -22.0489  -12.8205   22.0415 N   0  0  0  0  0  0
  -25.4236  -15.1954   20.4134 N   0  0  0  0  0  0
  -31.9366  -14.4917   20.0767 O   0  0  0  0  0  0
  -21.6647   -6.8906   21.4267 O   0  0  0  0  0  0
  -22.3505  -14.5534   20.6717 O   0  0  0  0  0  0
  -24.6100  -31.8751   23.2381 C   0  0  0  0  0  0
  -25.9059  -32.4823   23.8603 C   0  0  1  0  0  0
  -27.1500  -27.4271   20.0492 C   0  0  0  0  0  0
  -25.5934  -33.8636   24.2469 N   0  0  0  0  0  0
  -23.3860  -30.5231   21.5758 C   0  0  2  0  0  0
  -24.8266  -29.0438   20.1071 C   0  0  0  0  0  0
  -22.7317  -29.4802   22.5038 C   0  0  0  0  0  0
  -18.0516  -28.1431   22.8552 C   0  0  0  0  0  0
  -24.1552  -36.7329   23.2631 C   0  0  0  0  0  0
  -25.9385  -30.8214   21.4282 C   0  0  0  0  0  0
  -25.9940  -29.4680   20.7593 C   0  0  0  0  0  0
  -27.1538  -28.6372   20.7869 C   0  0  0  0  0  0
  -26.0659  -27.2287   19.1761 C   0  0  0  0  0  0
  -24.8553  -27.8986   19.3167 C   0  0  0  0  0  0
  -23.5876  -29.8954   20.1816 C   0  0  0  0  0  0
  -25.4121  -36.3126   24.0373 C   0  0  1  0  0  0
  -20.5948  -28.3894   23.1849 C   0  0  2  0  0  0
  -20.6921  -26.9560   22.6172 C   0  0  0  0  0  0
  -19.6459  -26.7176   21.5287 C   0  0  0  0  0  0
  -18.2489  -26.8113   22.1400 C   0  0  0  0  0  0
  -19.1616  -28.9027   23.3213 C   0  0  0  0  0  0
  -18.9434  -30.1587   23.9362 C   0  0  0  0  0  0
  -17.6370  -30.6658   24.0731 C   0  0  0  0  0  0
  -25.8983  -34.9436   23.5166 C   0  0  0  0  0  0
  -16.5386  -29.9022   23.6390 C   0  0  0  0  0  0
  -16.7441  -28.6368   23.0549 C   0  0  0  0  0  0
  -26.4490  -31.6605   25.0902 C   0  0  0  0  0  0
  -25.3832  -31.3638   26.1683 C   0  0  0  0  0  0
  -27.0303  -30.3020   24.6390 C   0  0  0  0  0  0
  -27.6068  -32.4381   25.7602 C   0  0  0  0  0  0
  -27.5615  -37.1770   24.8441 C   0  0  0  0  0  0
  -21.4020  -29.3277   22.4049 N   0  0  0  0  0  0
  -26.4325  -37.3767   23.9380 N   0  0  0  0  0  0
  -24.6618  -31.0864   22.1353 N   0  0  0  0  0  0
  -23.4191  -28.8110   23.2813 O   0  0  0  0  0  0
  -28.1324  -26.4550   20.1419 O   0  0  0  0  0  0
  -26.5517  -34.8843   22.4717 O   0  0  0  0  0  0
  -23.5281  -32.1588   23.7714 O   0  0  0  0  0  0
  -29.4488  -18.8047   20.5779 C   0  0  0  0  0  0
  -30.4350  -20.0899   22.8537 C   0  0  0  0  0  0
  -30.3989  -18.1435   21.3585 C   0  0  0  0  0  0
  -29.4922  -20.7963   22.0579 C   0  0  0  0  0  0
  -30.8990  -18.7932   22.5109 C   0  0  0  0  0  0
  -29.0255  -20.1005   20.8998 C   0  0  0  0  0  0
  -25.8714  -23.1216   19.9360 C   0  0  0  0  0  0
  -26.2482  -24.5784   19.8958 C   0  0  0  0  0  0
  -25.5738  -22.5061   21.3229 C   0  0  0  0  0  0
  -28.2099  -24.4609   21.6124 C   0  0  0  0  0  0
  -27.7212  -25.0241   20.2587 C   0  0  1  0  0  0
  -26.6864  -22.5844   22.3964 C   0  0  2  0  0  0
  -26.2362  -23.3969   23.6402 C   0  0  0  0  0  0
  -30.9923  -16.8534   20.8009 C   0  0  0  0  0  0
  -29.1668  -22.2707   22.4475 C   0  0  0  0  0  0
  -30.2234  -15.5977   20.9438 N   0  0  0  0  0  0
  -28.0071  -22.9718   21.8026 N   0  3  2  0  0  0
  -32.1122  -18.0475   23.4865 Cl  0  0  0  0  0  0
  -28.0084  -20.7604   19.7119 Cl  0  0  0  0  0  0
  -31.4502  -12.3121   19.1557 H   0  0  0  0  0  0
  -30.2531  -11.3082   19.9191 H   0  0  0  0  0  0
  -29.7388  -11.6943   17.4782 H   0  0  0  0  0  0
  -29.6888  -13.4180   17.7565 H   0  0  0  0  0  0
  -27.8281  -11.2899   18.8528 H   0  0  0  0  0  0
  -27.3757  -12.5809   17.7849 H   0  0  0  0  0  0
  -27.6770  -14.2551   19.5127 H   0  0  0  0  0  0
  -28.6761  -12.0799   21.4182 H   0  0  0  0  0  0
  -28.4752  -13.7701   21.8113 H   0  0  0  0  0  0
  -25.2797   -9.5689   22.4765 H   0  0  0  0  0  0
  -24.0008   -7.4634   22.7448 H   0  0  0  0  0  0
  -21.0865   -8.8762   19.8945 H   0  0  0  0  0  0
  -22.3684  -10.9690   19.6152 H   0  0  0  0  0  0
  -21.1963   -7.6143   23.9727 H   0  0  0  0  0  0
  -21.1495   -6.0533   25.9099 H   0  0  0  0  0  0
  -22.0581   -2.7604   23.2859 H   0  0  0  0  0  0
  -22.4134  -11.9860   22.4825 H   0  0  0  0  0  0
  -21.1106  -13.1191   22.2661 H   0  0  0  0  0  0
  -24.6440  -15.8377   20.4914 H   0  0  0  0  0  0
  -26.2754  -15.6382   20.0934 H   0  0  0  0  0  0
  -26.7140  -32.5508   23.1382 H   0  0  0  0  0  0
  -25.0204  -33.9894   25.0681 H   0  0  0  0  0  0
  -22.6574  -31.3380   21.4608 H   0  0  0  0  0  0
  -23.3809  -35.9684   23.3278 H   0  0  0  0  0  0
  -24.3743  -36.8915   22.2053 H   0  0  0  0  0  0
  -23.7316  -37.6516   23.6654 H   0  0  0  0  0  0
  -26.0704  -31.5901   20.6718 H   0  0  0  0  0  0
  -26.8204  -30.8552   22.0563 H   0  0  0  0  0  0
  -28.0108  -28.8853   21.3972 H   0  0  0  0  0  0
  -26.1210  -26.5458   18.3545 H   0  0  0  0  0  0
  -23.9972  -27.6174   18.7199 H   0  0  0  0  0  0
  -23.6752  -30.6931   19.4445 H   0  0  0  0  0  0
  -22.7118  -29.3228   19.8884 H   0  0  0  0  0  0
  -25.1302  -36.2004   25.0884 H   0  0  0  0  0  0
  -21.0025  -28.3626   24.1985 H   0  0  0  0  0  0
  -21.7076  -26.7206   22.2800 H   0  0  0  0  0  0
  -20.5104  -26.2457   23.4306 H   0  0  0  0  0  0
  -19.8036  -25.7506   21.0533 H   0  0  0  0  0  0
  -19.7752  -27.4773   20.7531 H   0  0  0  0  0  0
  -18.1150  -25.9987   22.8604 H   0  0  0  0  0  0
  -17.5123  -26.6629   21.3569 H   0  0  0  0  0  0
  -19.7733  -30.7428   24.3132 H   0  0  0  0  0  0
  -17.4784  -31.6346   24.5302 H   0  0  0  0  0  0
  -15.5335  -30.2886   23.7506 H   0  0  0  0  0  0
  -15.8955  -28.0437   22.7474 H   0  0  0  0  0  0
  -24.6075  -30.6855   25.8115 H   0  0  0  0  0  0
  -24.8913  -32.2669   26.5267 H   0  0  0  0  0  0
  -25.8279  -30.8807   27.0376 H   0  0  0  0  0  0
  -26.2848  -29.6783   24.1414 H   0  0  0  0  0  0
  -27.3866  -29.7291   25.4944 H   0  0  0  0  0  0
  -27.8837  -30.4248   23.9746 H   0  0  0  0  0  0
  -27.2721  -33.3736   26.2152 H   0  0  0  0  0  0
  -28.3859  -32.6859   25.0376 H   0  0  0  0  0  0
  -28.0808  -31.8543   26.5501 H   0  0  0  0  0  0
  -28.2511  -38.0163   24.7512 H   0  0  0  0  0  0
  -28.1224  -36.2631   24.6260 H   0  0  0  0  0  0
  -27.2328  -37.1402   25.8849 H   0  0  0  0  0  0
  -20.8939  -29.9162   21.7587 H   0  0  0  0  0  0
  -26.0219  -38.2857   24.1365 H   0  0  0  0  0  0
  -29.1248  -18.3589   19.6520 H   0  0  0  0  0  0
  -30.8701  -20.5640   23.7179 H   0  0  0  0  0  0
  -26.6515  -22.6513   19.3718 H   0  0  0  0  0  0
  -24.9968  -22.9739   19.3032 H   0  0  0  0  0  0
  -25.4470  -25.1536   20.3568 H   0  0  0  0  0  0
  -26.1794  -24.6919   18.8139 H   0  0  0  0  0  0
  -25.3540  -21.4527   21.1747 H   0  0  0  0  0  0
  -24.6400  -22.9288   21.7126 H   0  0  0  0  0  0
  -27.7917  -25.0515   22.4291 H   0  0  0  0  0  0
  -29.2724  -24.6985   21.6278 H   0  0  0  0  0  0
  -28.3346  -24.5050   19.5191 H   0  0  0  0  0  0
  -26.8003  -21.5611   22.7578 H   0  0  0  0  0  0
  -25.8645  -24.3893   23.3816 H   0  0  0  0  0  0
  -27.0433  -23.5132   24.3644 H   0  0  0  0  0  0
  -25.4242  -22.8806   24.1639 H   0  0  0  0  0  0
  -32.0117  -16.7427   21.1634 H   0  0  0  0  0  0
  -31.1026  -17.0084   19.7224 H   0  0  0  0  0  0
  -30.0862  -22.8240   22.2598 H   0  0  0  0  0  0
  -29.0006  -22.3309   23.5257 H   0  0  0  0  0  0
  -29.2499  -15.6280   21.2061 H   0  0  0  0  0  0
  -27.9933  -22.5581   20.8778 H   0  0  0  0  0  0
  1 25  1  0  0  0
  1 30  2  0  0  0
  1 86  1  0  0  0
  2  3  1  0  0  0
  2 25  1  0  0  0
  2 90  1  0  0  0
  2 91  1  0  0  0
  3  4  1  0  0  0
  3 92  1  0  0  0
  3 93  1  0  0  0
  4  5  1  0  0  0
  4 94  1  0  0  0
  4 95  1  0  0  0
  5  6  1  0  0  0
  5 26  1  0  0  0
  5 96  1  0  0  0
  6 25  1  0  0  0
  6 97  1  0  0  0
  6 98  1  0  0  0
  7  8  2  0  0  0
  7 26  1  0  0  0
  7 29  1  0  0  0
  8  9  1  0  0  0
  8 22  1  0  0  0
  9 10  1  0  0  0
  9 27  2  0  0  0
 10 11  2  0  0  0
 10 15  1  0  0  0
 11 12  1  0  0  0
 11 99  1  0  0  0
 12 13  2  0  0  0
 12100  1  0  0  0
 13 14  1  0  0  0
 13 31  1  0  0  0
 14 15  2  0  0  0
 14101  1  0  0  0
 15102  1  0  0  0
 16 17  2  0  0  0
 16 21  1  0  0  0
 16 31  1  0  0  0
 17 18  1  0  0  0
 17103  1  0  0  0
 18 19  2  0  0  0
 18104  1  0  0  0
 19 20  1  0  0  0
 19 24  1  0  0  0
 20 21  2  0  0  0
 20105  1  0  0  0
 21 23  1  0  0  0
 22 28  1  0  0  0
 22 32  2  0  0  0
 26 27  1  0  0  0
 28106  1  0  0  0
 28107  1  0  0  0
 29108  1  0  0  0
 29109  1  0  0  0
 33 34  1  0  0  0
 33 66  1  0  0  0
 33 70  2  0  0  0
 34 36  1  0  0  0
 34 59  1  0  0  0
 34110  1  0  0  0
 35 44  2  0  0  0
 35 45  1  0  0  0
 35 68  1  0  0  0
 36 56  1  0  0  0
 36111  1  0  0  0
 37 39  1  0  0  0
 37 47  1  0  0  0
 37 66  1  0  0  0
 37112  1  0  0  0
 38 43  2  0  0  0
 38 46  1  0  0  0
 38 47  1  0  0  0
 39 64  1  0  0  0
 39 67  2  0  0  0
 40 52  1  0  0  0
 40 53  2  0  0  0
 40 58  1  0  0  0
 41113  1  0  0  0
 41114  1  0  0  0
 41115  1  0  0  0
 41 48  1  0  0  0
 42 43  1  0  0  0
 42 66  1  0  0  0
 42116  1  0  0  0
 42117  1  0  0  0
 43 44  1  0  0  0
 44118  1  0  0  0
 45 46  2  0  0  0
 45119  1  0  0  0
 46120  1  0  0  0
 47121  1  0  0  0
 47122  1  0  0  0
 48 56  1  0  0  0
 48 65  1  0  0  0
 48123  1  0  0  0
 49 50  1  0  0  0
 49 53  1  0  0  0
 49 64  1  0  0  0
 49124  1  0  0  0
 50 51  1  0  0  0
 50125  1  0  0  0
 50126  1  0  0  0
 51 52  1  0  0  0
 51127  1  0  0  0
 51128  1  0  0  0
 52129  1  0  0  0
 52130  1  0  0  0
 53 54  1  0  0  0
 54 55  2  0  0  0
 54131  1  0  0  0
 55 57  1  0  0  0
 55132  1  0  0  0
 56 69  2  0  0  0
 57 58  2  0  0  0
 57133  1  0  0  0
 58134  1  0  0  0
 59 60  1  0  0  0
 59 61  1  0  0  0
 59 62  1  0  0  0
 60135  1  0  0  0
 60136  1  0  0  0
 60137  1  0  0  0
 61138  1  0  0  0
 61139  1  0  0  0
 61140  1  0  0  0
 62141  1  0  0  0
 62142  1  0  0  0
 62143  1  0  0  0
 63 65  1  0  0  0
 63144  1  0  0  0
 63145  1  0  0  0
 63146  1  0  0  0
 64147  1  0  0  0
 65148  1  0  0  0
 68 81  1  0  0  0
 71 73  2  0  0  0
 71 76  1  0  0  0
 71149  1  0  0  0
 72 74  1  0  0  0
 72 75  2  0  0  0
 72150  1  0  0  0
 73 75  1  0  0  0
 73 84  1  0  0  0
 74 76  2  0  0  0
 74 85  1  0  0  0
 75 88  1  0  0  0
 76 89  1  0  0  0
 77 78  1  0  0  0
 77 79  1  0  0  0
 77151  1  0  0  0
 77152  1  0  0  0
 78 81  1  0  0  0
 78153  1  0  0  0
 78154  1  0  0  0
 79 82  1  0  0  0
 79155  1  0  0  0
 79156  1  0  0  0
 80 81  1  0  0  0
 80 87  1  0  0  0
 80157  1  0  0  0
 80158  1  0  0  0
 81159  1  0  0  0
 82 83  1  0  0  0
 82 87  1  0  0  0
 82160  1  0  0  0
 83161  1  0  0  0
 83162  1  0  0  0
 83163  1  0  0  0
 84 86  1  0  0  0
 84164  1  0  0  0
 84165  1  0  0  0
 85166  1  0  0  0
 85167  1  0  0  0
 85 87  1  0  0  0
 86168  1  0  0  0
 87169  1  0  0  0
M  CHG  1  87   1
M  ISO  4   1 100  68 101  81 101  86 100
M  END
> <chiral flag>
0

> <version>
0

> <s_m_source_file>
/data/baiqing/PycharmProjects/Reinvent-master-3.2/result/LINK_invent/BTK/process_docking_weight1_custom_product_contain_oxygen_bond_distance_aromatic_linkinvent_7_9_3/rearranged_h_0037.sdf

> <i_m_source_file_index>
69

> <r_mmod_Potential_Energy-OPLS-2005>
126.532203674316

> <r_mmod_Stretch_Energy-OPLS-2005>
61.7153625488281

> <r_mmod_Bend_Energy-OPLS-2005>
187.275177001953

> <r_mmod_Torsional_Energy-OPLS-2005>
312.296661376953

> <r_mmod_Improper_Torsional_Energy-OPLS-2005>
6.09557008743286

> <r_mmod_Van_der_Waal_Energy-OPLS-2005>
217.050079345703

> <r_mmod_Electrostatic_Energy-OPLS-2005>
-322.006713867188

> <r_mmod_Solvation_Energy-OPLS-2005>
-410.073822021484

> <b_mmod_Minimization_Converged-OPLS-2005>
0

> <r_mmod_RMS_Derivative-OPLS-2005>
13.760217666626

$$$$
69
                    3D
 Structure written by MMmdl.
167176  0  0  1  0            999 V2000
  -30.6547  -14.7078   20.4906 C   0  0  0  0  0  0
  -30.4270  -12.4376   19.4720 C   0  0  0  0  0  0
  -29.5081  -12.5090   18.2340 C   0  0  0  0  0  0
  -28.0341  -12.3363   18.6473 C   0  0  0  0  0  0
  -27.6444  -13.2328   19.8538 C   0  0  2  0  0  0
  -28.6901  -13.1629   20.9893 C   0  0  0  0  0  0
  -25.2514  -13.8195   20.5686 C   0  0  0  0  0  0
  -24.1812  -13.0445   20.9222 C   0  0  0  0  0  0
  -24.6403  -11.6922   20.8755 C   0  0  0  0  0  0
  -23.9083  -10.4295   21.0409 C   0  0  0  0  0  0
  -24.3624   -9.4210   21.9187 C   0  0  0  0  0  0
  -23.6299   -8.2246   22.0754 C   0  0  0  0  0  0
  -22.4284   -8.0280   21.3541 C   0  0  0  0  0  0
  -21.9920   -9.0257   20.4646 C   0  0  0  0  0  0
  -22.7253  -10.2136   20.3057 C   0  0  0  0  0  0
  -21.6855   -6.0739   22.5281 C   0  0  0  0  0  0
  -21.4013   -6.5639   23.8214 C   0  0  0  0  0  0
  -21.3660   -5.6790   24.9175 C   0  0  0  0  0  0
  -21.6043   -4.3055   24.7227 C   0  0  0  0  0  0
  -21.8820   -3.8149   23.4348 C   0  0  0  0  0  0
  -21.9195   -4.6965   22.3404 C   0  0  0  0  0  0
  -22.7830  -13.5226   21.1872 C   0  0  0  0  0  0
  -22.1663   -4.2148   21.0983 F   0  0  0  0  0  0
  -21.5631   -3.4539   25.7743 F   0  0  0  0  0  0
  -29.9953  -13.5015   20.4089 N   0  0  0  0  0  0
  -26.2950  -12.9410   20.3300 N   0  0  0  0  0  0
  -25.9336  -11.6549   20.5773 N   0  0  0  0  0  0
  -22.0470  -12.8209   22.0415 N   0  0  0  0  0  0
  -25.4184  -15.1912   20.4032 N   0  0  0  0  0  0
  -31.8327  -14.7672   20.1327 O   0  0  0  0  0  0
  -21.6641   -6.8881   21.4242 O   0  0  0  0  0  0
  -22.3521  -14.5538   20.6725 O   0  0  0  0  0  0
  -24.6306  -31.8560   23.1994 C   0  0  0  0  0  0
  -25.9143  -32.4744   23.8323 C   0  0  1  0  0  0
  -27.2127  -27.2619   20.1287 C   0  0  0  0  0  0
  -25.5965  -33.8547   24.2263 N   0  0  0  0  0  0
  -23.4262  -30.4805   21.5426 C   0  0  2  0  0  0
  -24.8728  -28.9339   20.1053 C   0  0  0  0  0  0
  -22.7495  -29.4611   22.4914 C   0  0  0  0  0  0
  -18.0301  -28.1378   22.8490 C   0  0  0  0  0  0
  -24.1502  -36.7269   23.2633 C   0  0  0  0  0  0
  -25.9724  -30.7671   21.3825 C   0  0  0  0  0  0
  -26.0424  -29.3909   20.7242 C   0  0  0  0  0  0
  -27.2118  -28.5651   20.7316 C   0  0  0  0  0  0
  -26.0284  -26.8926   19.4477 C   0  0  0  0  0  0
  -24.8717  -27.6930   19.4545 C   0  0  0  0  0  0
  -23.6420  -29.8169   20.1574 C   0  0  0  0  0  0
  -25.4121  -36.3047   24.0329 C   0  0  1  0  0  0
  -20.5897  -28.3692   23.1271 C   0  0  2  0  0  0
  -20.6793  -26.9413   22.5408 C   0  0  0  0  0  0
  -19.5768  -26.6377   21.5213 C   0  0  0  0  0  0
  -18.1945  -26.7930   22.1610 C   0  0  0  0  0  0
  -19.1549  -28.8856   23.2876 C   0  0  0  0  0  0
  -18.9463  -30.1463   23.8889 C   0  0  0  0  0  0
  -17.6457  -30.6583   24.0560 C   0  0  0  0  0  0
  -25.9060  -34.9422   23.5085 C   0  0  0  0  0  0
  -16.5354  -29.9072   23.6335 C   0  0  0  0  0  0
  -16.7283  -28.6490   23.0357 C   0  0  0  0  0  0
  -26.4523  -31.6552   25.0701 C   0  0  0  0  0  0
  -25.3744  -31.3685   26.1410 C   0  0  0  0  0  0
  -27.0379  -30.2971   24.6175 C   0  0  0  0  0  0
  -27.6096  -32.4280   25.7466 C   0  0  0  0  0  0
  -27.5587  -37.1780   24.8457 C   0  0  0  0  0  0
  -21.4205  -29.3041   22.3661 N   0  0  0  0  0  0
  -26.4286  -37.3756   23.9422 N   0  0  0  0  0  0
  -24.6951  -31.0535   22.0967 N   0  0  0  0  0  0
  -23.4205  -28.8146   23.3001 O   0  0  0  0  0  0
  -28.2988  -26.3575   20.2306 O   0  0  0  0  0  0
  -26.5616  -34.8904   22.4644 O   0  0  0  0  0  0
  -23.5462  -32.1385   23.7289 O   0  0  0  0  0  0
  -31.6979  -17.5996   21.0691 C   0  0  0  0  0  0
  -29.8753  -19.8352   21.0160 C   0  0  0  0  0  0
  -29.4314  -18.4434   20.8354 C   0  0  0  0  0  0
  -31.2653  -20.0149   21.2864 C   0  0  0  0  0  0
  -30.3365  -17.2935   20.8624 C   0  0  0  0  0  0
  -32.1519  -18.9117   21.2752 C   0  0  0  0  0  0
  -28.7412  -23.8289   20.9426 C   0  0  0  0  0  0
  -29.1602  -24.1310   22.1837 C   0  0  0  0  0  0
  -29.8402  -23.7759   18.4072 C   0  0  0  0  0  0
  -28.5123  -24.5652   18.4936 C   0  0  0  0  0  0
  -29.7892  -22.3895   19.1099 C   0  0  0  0  0  0
  -28.1072  -24.8868   19.9531 C   0  0  2  0  0  0
  -27.9427  -18.1673   20.6700 C   0  0  0  0  0  0
  -31.8630  -21.3651   21.6785 C   0  0  0  0  0  0
  -28.8864  -21.0993   21.1617 C   0  0  0  0  0  0
  -29.9232  -15.8604   20.7615 N   0  0  0  0  0  0
  -28.9170  -22.3966   20.3135 N   0  3  1  0  0  0
  -33.8429  -19.1324   21.5714 Cl  0  0  0  0  0  0
  -31.4704  -12.5425   19.1689 H   0  0  0  0  0  0
  -30.3554  -11.4595   19.9506 H   0  0  0  0  0  0
  -29.7867  -11.7407   17.5113 H   0  0  0  0  0  0
  -29.6390  -13.4679   17.7304 H   0  0  0  0  0  0
  -27.8874  -11.2865   18.9043 H   0  0  0  0  0  0
  -27.3771  -12.5364   17.8000 H   0  0  0  0  0  0
  -27.6425  -14.2560   19.4784 H   0  0  0  0  0  0
  -28.7183  -12.1660   21.4314 H   0  0  0  0  0  0
  -28.4300  -13.8465   21.7992 H   0  0  0  0  0  0
  -25.2766   -9.5685   22.4763 H   0  0  0  0  0  0
  -24.0010   -7.4636   22.7467 H   0  0  0  0  0  0
  -21.0860   -8.8776   19.8945 H   0  0  0  0  0  0
  -22.3717  -10.9673   19.6163 H   0  0  0  0  0  0
  -21.1996   -7.6144   23.9719 H   0  0  0  0  0  0
  -21.1482   -6.0520   25.9079 H   0  0  0  0  0  0
  -22.0597   -2.7611   23.2854 H   0  0  0  0  0  0
  -22.4088  -11.9866   22.4789 H   0  0  0  0  0  0
  -21.1079  -13.1219   22.2604 H   0  0  0  0  0  0
  -24.6401  -15.8361   20.4882 H   0  0  0  0  0  0
  -26.2426  -15.6166   20.0015 H   0  0  0  0  0  0
  -26.7209  -32.5405   23.1061 H   0  0  0  0  0  0
  -25.0192  -33.9693   25.0456 H   0  0  0  0  0  0
  -22.7227  -31.3035   21.3976 H   0  0  0  0  0  0
  -23.3780  -35.9585   23.3256 H   0  0  0  0  0  0
  -24.3606  -36.8912   22.2053 H   0  0  0  0  0  0
  -23.7241  -37.6455   23.6680 H   0  0  0  0  0  0
  -26.1146  -31.5274   20.6131 H   0  0  0  0  0  0
  -26.8504  -30.8118   22.0147 H   0  0  0  0  0  0
  -28.0999  -28.9021   21.2479 H   0  0  0  0  0  0
  -25.9546  -25.9629   18.9055 H   0  0  0  0  0  0
  -23.9814  -27.3469   18.9478 H   0  0  0  0  0  0
  -23.7591  -30.5931   19.4004 H   0  0  0  0  0  0
  -22.7623  -29.2443   19.8563 H   0  0  0  0  0  0
  -25.1298  -36.1887   25.0821 H   0  0  0  0  0  0
  -20.9994  -28.3270   24.1383 H   0  0  0  0  0  0
  -20.5707  -26.2294   23.3604 H   0  0  0  0  0  0
  -21.6659  -26.7445   22.1186 H   0  0  0  0  0  0
  -19.6935  -25.6287   21.1243 H   0  0  0  0  0  0
  -19.6713  -27.3189   20.6749 H   0  0  0  0  0  0
  -17.4219  -26.6697   21.4007 H   0  0  0  0  0  0
  -18.0331  -26.0066   22.8991 H   0  0  0  0  0  0
  -19.7937  -30.7298   24.2237 H   0  0  0  0  0  0
  -17.5005  -31.6265   24.5154 H   0  0  0  0  0  0
  -15.5356  -30.2956   23.7683 H   0  0  0  0  0  0
  -15.8680  -28.0805   22.7073 H   0  0  0  0  0  0
  -24.5975  -30.6969   25.7730 H   0  0  0  0  0  0
  -24.8878  -32.2840   26.4790 H   0  0  0  0  0  0
  -25.8065  -30.8906   27.0209 H   0  0  0  0  0  0
  -26.2962  -29.6705   24.1209 H   0  0  0  0  0  0
  -27.4082  -29.7236   25.4685 H   0  0  0  0  0  0
  -27.8828  -30.4250   23.9403 H   0  0  0  0  0  0
  -27.2745  -33.3616   26.1998 H   0  0  0  0  0  0
  -28.3934  -32.6763   25.0294 H   0  0  0  0  0  0
  -28.0733  -31.8414   26.5404 H   0  0  0  0  0  0
  -28.2550  -38.0127   24.7560 H   0  0  0  0  0  0
  -28.1131  -36.2657   24.6206 H   0  0  0  0  0  0
  -27.2307  -37.1317   25.8853 H   0  0  0  0  0  0
  -20.9384  -29.8751   21.6858 H   0  0  0  0  0  0
  -26.0152  -38.2821   24.1441 H   0  0  0  0  0  0
  -32.4432  -16.8235   21.1277 H   0  0  0  0  0  0
  -29.0451  -25.1363   22.5633 H   0  0  0  0  0  0
  -29.6119  -23.4119   22.8479 H   0  0  0  0  0  0
  -30.6283  -24.3810   18.8594 H   0  0  0  0  0  0
  -30.1358  -23.6433   17.3659 H   0  0  0  0  0  0
  -27.7215  -23.9842   18.0161 H   0  0  0  0  0  0
  -28.5881  -25.4873   17.9173 H   0  0  0  0  0  0
  -30.8049  -22.0897   19.3565 H   0  0  0  0  0  0
  -29.4093  -21.6322   18.4242 H   0  0  0  0  0  0
  -27.0514  -24.6494   20.0715 H   0  0  0  0  0  0
  -27.5735  -18.5977   19.7387 H   0  0  0  0  0  0
  -27.3762  -18.5879   21.5016 H   0  0  0  0  0  0
  -27.7102  -17.1046   20.6512 H   0  0  0  0  0  0
  -31.1487  -22.1735   21.7689 H   0  0  0  0  0  0
  -32.6156  -21.6736   20.9521 H   0  0  0  0  0  0
  -32.3552  -21.2838   22.6483 H   0  0  0  0  0  0
  -28.9136  -21.3737   22.2153 H   0  0  0  0  0  0
  -27.8683  -20.7444   21.0325 H   0  0  0  0  0  0
  -28.9408  -15.6854   20.9006 H   0  0  0  0  0  0
  -28.0305  -22.2528   19.8541 H   0  0  0  0  0  0
  1 25  1  0  0  0
  1 30  2  0  0  0
  1 86  1  0  0  0
  2  3  1  0  0  0
  2 25  1  0  0  0
  2 89  1  0  0  0
  2 90  1  0  0  0
  3  4  1  0  0  0
  3 91  1  0  0  0
  3 92  1  0  0  0
  4  5  1  0  0  0
  4 93  1  0  0  0
  4 94  1  0  0  0
  5  6  1  0  0  0
  5 26  1  0  0  0
  5 95  1  0  0  0
  6 25  1  0  0  0
  6 96  1  0  0  0
  6 97  1  0  0  0
  7  8  2  0  0  0
  7 26  1  0  0  0
  7 29  1  0  0  0
  8  9  1  0  0  0
  8 22  1  0  0  0
  9 10  1  0  0  0
  9 27  2  0  0  0
 10 11  2  0  0  0
 10 15  1  0  0  0
 11 12  1  0  0  0
 11 98  1  0  0  0
 12 13  2  0  0  0
 12 99  1  0  0  0
 13 14  1  0  0  0
 13 31  1  0  0  0
 14 15  2  0  0  0
 14100  1  0  0  0
 15101  1  0  0  0
 16 17  2  0  0  0
 16 21  1  0  0  0
 16 31  1  0  0  0
 17 18  1  0  0  0
 17102  1  0  0  0
 18 19  2  0  0  0
 18103  1  0  0  0
 19 20  1  0  0  0
 19 24  1  0  0  0
 20 21  2  0  0  0
 20104  1  0  0  0
 21 23  1  0  0  0
 22 28  1  0  0  0
 22 32  2  0  0  0
 26 27  1  0  0  0
 28105  1  0  0  0
 28106  1  0  0  0
 29107  1  0  0  0
 29108  1  0  0  0
 33 34  1  0  0  0
 33 66  1  0  0  0
 33 70  2  0  0  0
 34 36  1  0  0  0
 34 59  1  0  0  0
 34109  1  0  0  0
 35 44  2  0  0  0
 35 45  1  0  0  0
 35 68  1  0  0  0
 36 56  1  0  0  0
 36110  1  0  0  0
 37 39  1  0  0  0
 37 47  1  0  0  0
 37 66  1  0  0  0
 37111  1  0  0  0
 38 43  2  0  0  0
 38 46  1  0  0  0
 38 47  1  0  0  0
 39 64  1  0  0  0
 39 67  2  0  0  0
 40 52  1  0  0  0
 40 53  2  0  0  0
 40 58  1  0  0  0
 41112  1  0  0  0
 41113  1  0  0  0
 41114  1  0  0  0
 41 48  1  0  0  0
 42 43  1  0  0  0
 42 66  1  0  0  0
 42115  1  0  0  0
 42116  1  0  0  0
 43 44  1  0  0  0
 44117  1  0  0  0
 45 46  2  0  0  0
 45118  1  0  0  0
 46119  1  0  0  0
 47120  1  0  0  0
 47121  1  0  0  0
 48 56  1  0  0  0
 48 65  1  0  0  0
 48122  1  0  0  0
 49 50  1  0  0  0
 49 53  1  0  0  0
 49 64  1  0  0  0
 49123  1  0  0  0
 50 51  1  0  0  0
 50124  1  0  0  0
 50125  1  0  0  0
 51 52  1  0  0  0
 51126  1  0  0  0
 51127  1  0  0  0
 52128  1  0  0  0
 52129  1  0  0  0
 53 54  1  0  0  0
 54 55  2  0  0  0
 54130  1  0  0  0
 55 57  1  0  0  0
 55131  1  0  0  0
 56 69  2  0  0  0
 57 58  2  0  0  0
 57132  1  0  0  0
 58133  1  0  0  0
 59 60  1  0  0  0
 59 61  1  0  0  0
 59 62  1  0  0  0
 60134  1  0  0  0
 60135  1  0  0  0
 60136  1  0  0  0
 61137  1  0  0  0
 61138  1  0  0  0
 61139  1  0  0  0
 62140  1  0  0  0
 62141  1  0  0  0
 62142  1  0  0  0
 63 65  1  0  0  0
 63143  1  0  0  0
 63144  1  0  0  0
 63145  1  0  0  0
 64146  1  0  0  0
 65147  1  0  0  0
 68 82  1  0  0  0
 71 75  2  0  0  0
 71 76  1  0  0  0
 71148  1  0  0  0
 72 73  2  0  0  0
 72 74  1  0  0  0
 72 85  1  0  0  0
 73 75  1  0  0  0
 73 83  1  0  0  0
 74 76  2  0  0  0
 74 84  1  0  0  0
 75 86  1  0  0  0
 76 88  1  0  0  0
 77 78  2  0  0  0
 77 82  1  0  0  0
 77 87  1  0  0  0
 78149  1  0  0  0
 78150  1  0  0  0
 79 80  1  0  0  0
 79 81  1  0  0  0
 79151  1  0  0  0
 79152  1  0  0  0
 80 82  1  0  0  0
 80153  1  0  0  0
 80154  1  0  0  0
 81 87  1  0  0  0
 81155  1  0  0  0
 81156  1  0  0  0
 82157  1  0  0  0
 83158  1  0  0  0
 83159  1  0  0  0
 83160  1  0  0  0
 84161  1  0  0  0
 84162  1  0  0  0
 84163  1  0  0  0
 85164  1  0  0  0
 85165  1  0  0  0
 85 87  1  0  0  0
 86166  1  0  0  0
 87167  1  0  0  0
M  CHG  1  87   1
M  ISO  4   1 100  68 101  82 101  86 100
M  END
> <chiral flag>
0

> <version>
0

> <s_m_source_file>
/data/baiqing/PycharmProjects/Reinvent-master-3.2/result/LINK_invent/BTK/process_docking_weight1_custom_product_contain_oxygen_bond_distance_aromatic_linkinvent_7_9_3/rearranged_h_0037.sdf

> <i_m_source_file_index>
70

> <r_mmod_Potential_Energy-OPLS-2005>
101.580368041992

> <r_mmod_Stretch_Energy-OPLS-2005>
140.068664550781

> <r_mmod_Bend_Energy-OPLS-2005>
194.44303894043

> <r_mmod_Torsional_Energy-OPLS-2005>
244.055068969727

> <r_mmod_Improper_Torsional_Energy-OPLS-2005>
6.59545564651489

> <r_mmod_Van_der_Waal_Energy-OPLS-2005>
161.560470581055

> <r_mmod_Electrostatic_Energy-OPLS-2005>
-274.887176513672

> <r_mmod_Solvation_Energy-OPLS-2005>
-449.419403076172

> <b_mmod_Minimization_Converged-OPLS-2005>
0

> <r_mmod_RMS_Derivative-OPLS-2005>
1.76014029979706

$$$$
70
                    3D
 Structure written by MMmdl.
176185  0  0  1  0            999 V2000
  -30.6723  -14.5826   20.4528 C   0  0  0  0  0  0
  -30.4336  -12.3437   19.4494 C   0  0  0  0  0  0
  -29.4963  -12.4256   18.2229 C   0  0  0  0  0  0
  -28.0173  -12.3208   18.6386 C   0  0  0  0  0  0
  -27.6505  -13.2152   19.8522 C   0  0  2  0  0  0
  -28.6992  -13.0916   20.9802 C   0  0  0  0  0  0
  -25.2544  -13.8184   20.5674 C   0  0  0  0  0  0
  -24.1805  -13.0449   20.9207 C   0  0  0  0  0  0
  -24.6379  -11.6921   20.8771 C   0  0  0  0  0  0
  -23.9055  -10.4296   21.0439 C   0  0  0  0  0  0
  -24.3617   -9.4200   21.9209 C   0  0  0  0  0  0
  -23.6289   -8.2232   22.0760 C   0  0  0  0  0  0
  -22.4272   -8.0276   21.3540 C   0  0  0  0  0  0
  -21.9910   -9.0265   20.4658 C   0  0  0  0  0  0
  -22.7233  -10.2145   20.3080 C   0  0  0  0  0  0
  -21.6837   -6.0745   22.5279 C   0  0  0  0  0  0
  -21.4010   -6.5644   23.8220 C   0  0  0  0  0  0
  -21.3652   -5.6782   24.9169 C   0  0  0  0  0  0
  -21.6038   -4.3049   24.7218 C   0  0  0  0  0  0
  -21.8809   -3.8149   23.4331 C   0  0  0  0  0  0
  -21.9176   -4.6976   22.3392 C   0  0  0  0  0  0
  -22.7819  -13.5250   21.1827 C   0  0  0  0  0  0
  -22.1639   -4.2168   21.0970 F   0  0  0  0  0  0
  -21.5634   -3.4526   25.7728 F   0  0  0  0  0  0
  -30.0169  -13.3864   20.4032 N   0  0  0  0  0  0
  -26.2977  -12.9378   20.3317 N   0  0  0  0  0  0
  -25.9317  -11.6538   20.5810 N   0  0  0  0  0  0
  -22.0407  -12.8300   22.0384 N   0  0  0  0  0  0
  -25.4267  -15.1907   20.4058 N   0  0  0  0  0  0
  -31.8835  -14.6618   20.2360 O   0  0  0  0  0  0
  -21.6616   -6.8889   21.4240 O   0  0  0  0  0  0
  -22.3523  -14.5534   20.6620 O   0  0  0  0  0  0
  -24.6199  -31.8665   23.2097 C   0  0  0  0  0  0
  -25.9064  -32.4823   23.8414 C   0  0  1  0  0  0
  -27.2321  -27.3718   20.1246 C   0  0  0  0  0  0
  -25.5894  -33.8621   24.2327 N   0  0  0  0  0  0
  -23.4141  -30.4891   21.5508 C   0  0  2  0  0  0
  -24.8648  -28.9451   20.1314 C   0  0  0  0  0  0
  -22.7448  -29.4647   22.4970 C   0  0  0  0  0  0
  -18.0276  -28.1383   22.8498 C   0  0  0  0  0  0
  -24.1479  -36.7321   23.2642 C   0  0  0  0  0  0
  -25.9514  -30.8067   21.3821 C   0  0  0  0  0  0
  -26.0291  -29.4301   20.7465 C   0  0  0  0  0  0
  -27.2179  -28.6481   20.7514 C   0  0  0  0  0  0
  -26.0528  -26.9260   19.4949 C   0  0  0  0  0  0
  -24.8732  -27.6885   19.5087 C   0  0  0  0  0  0
  -23.6336  -29.8243   20.1672 C   0  0  0  0  0  0
  -25.4100  -36.3114   24.0342 C   0  0  1  0  0  0
  -20.5877  -28.3683   23.1303 C   0  0  2  0  0  0
  -20.6766  -26.9410   22.5420 C   0  0  0  0  0  0
  -19.5740  -26.6390   21.5218 C   0  0  0  0  0  0
  -18.1918  -26.7926   22.1625 C   0  0  0  0  0  0
  -19.1528  -28.8847   23.2897 C   0  0  0  0  0  0
  -18.9450  -30.1448   23.8916 C   0  0  0  0  0  0
  -17.6453  -30.6592   24.0567 C   0  0  0  0  0  0
  -25.9031  -34.9478   23.5132 C   0  0  0  0  0  0
  -16.5349  -29.9099   23.6321 C   0  0  0  0  0  0
  -16.7265  -28.6512   23.0354 C   0  0  0  0  0  0
  -26.4475  -31.6618   25.0766 C   0  0  0  0  0  0
  -25.3717  -31.3766   26.1506 C   0  0  0  0  0  0
  -27.0307  -30.3038   24.6196 C   0  0  0  0  0  0
  -27.6048  -32.4349   25.7513 C   0  0  0  0  0  0
  -27.5577  -37.1810   24.8455 C   0  0  0  0  0  0
  -21.4163  -29.3052   22.3706 N   0  0  0  0  0  0
  -26.4283  -37.3800   23.9411 N   0  0  0  0  0  0
  -24.6797  -31.0701   22.1048 N   0  0  0  0  0  0
  -23.4187  -28.8179   23.3029 O   0  0  0  0  0  0
  -28.3493  -26.5694   19.9513 O   0  0  0  0  0  0
  -26.5603  -34.8932   22.4700 O   0  0  0  0  0  0
  -23.5368  -32.1451   23.7432 O   0  0  0  0  0  0
  -30.4276  -19.6796   18.8329 C   0  0  0  0  0  0
  -31.0598  -18.5603   18.2390 C   0  0  0  0  0  0
  -29.6611  -19.5254   20.0254 C   0  0  0  0  0  0
  -30.7978  -17.2517   18.7110 C   0  0  0  0  0  0
  -29.5654  -18.2024   20.6036 C   0  0  0  0  0  0
  -30.1213  -17.0422   19.9506 C   0  0  0  0  0  0
  -28.7642  -23.3805   20.4663 C   0  0  0  0  0  0
  -27.9976  -23.4814   19.3635 C   0  0  0  0  0  0
  -29.8875  -22.7662   23.0936 C   0  0  0  0  0  0
  -29.6932  -24.2449   22.7733 C   0  0  0  0  0  0
  -30.5084  -22.0813   21.8773 C   0  0  0  0  0  0
  -28.7907  -24.5191   21.5456 C   0  0  1  0  0  0
  -30.5435  -21.0261   18.1163 C   0  0  0  0  0  0
  -32.0037  -18.7554   17.0457 C   0  0  0  0  0  0
  -31.1764  -16.1000   17.7810 C   0  0  0  0  0  0
  -28.8109  -18.0242   21.9208 C   0  0  0  0  0  0
  -28.8562  -20.7543   20.5991 C   0  0  0  0  0  0
  -29.0826  -26.0026   21.0547 C   0  0  0  0  0  0
  -29.8846  -15.6984   20.4891 N   0  0  0  0  0  0
  -29.5774  -22.0799   20.7247 N   0  3  2  0  0  0
  -31.4729  -12.4574   19.1341 H   0  0  0  0  0  0
  -30.3702  -11.3618   19.9229 H   0  0  0  0  0  0
  -29.7419  -11.6234   17.5266 H   0  0  0  0  0  0
  -29.6507  -13.3473   17.6691 H   0  0  0  0  0  0
  -27.8281  -11.2761   18.8857 H   0  0  0  0  0  0
  -27.3681  -12.5485   17.7913 H   0  0  0  0  0  0
  -27.6676  -14.2429   19.4904 H   0  0  0  0  0  0
  -28.6927  -12.0853   21.4045 H   0  0  0  0  0  0
  -28.4699  -13.7702   21.8022 H   0  0  0  0  0  0
  -25.2766   -9.5666   22.4784 H   0  0  0  0  0  0
  -23.9985   -7.4619   22.7486 H   0  0  0  0  0  0
  -21.0824   -8.8802   19.8985 H   0  0  0  0  0  0
  -22.3690  -10.9701   19.6200 H   0  0  0  0  0  0
  -21.2013   -7.6153   23.9735 H   0  0  0  0  0  0
  -21.1486   -6.0508   25.9078 H   0  0  0  0  0  0
  -22.0601   -2.7617   23.2810 H   0  0  0  0  0  0
  -22.3946  -12.0002   22.4915 H   0  0  0  0  0  0
  -21.1030  -13.1421   22.2501 H   0  0  0  0  0  0
  -24.6592  -15.8455   20.5150 H   0  0  0  0  0  0
  -26.2694  -15.6250   20.0534 H   0  0  0  0  0  0
  -26.7134  -32.5533   23.1172 H   0  0  0  0  0  0
  -25.0005  -33.9776   25.0442 H   0  0  0  0  0  0
  -22.7063  -31.3086   21.4080 H   0  0  0  0  0  0
  -23.3739  -35.9650   23.3294 H   0  0  0  0  0  0
  -24.3573  -36.8949   22.2057 H   0  0  0  0  0  0
  -23.7224  -37.6522   23.6663 H   0  0  0  0  0  0
  -26.0723  -31.5597   20.6029 H   0  0  0  0  0  0
  -26.8363  -30.8660   22.0033 H   0  0  0  0  0  0
  -28.1205  -29.0292   21.2075 H   0  0  0  0  0  0
  -26.0411  -25.9815   18.9733 H   0  0  0  0  0  0
  -23.9846  -27.3102   19.0218 H   0  0  0  0  0  0
  -23.7607  -30.6014   19.4127 H   0  0  0  0  0  0
  -22.7541  -29.2551   19.8601 H   0  0  0  0  0  0
  -25.1266  -36.1984   25.0834 H   0  0  0  0  0  0
  -20.9965  -28.3251   24.1421 H   0  0  0  0  0  0
  -20.5669  -26.2284   23.3613 H   0  0  0  0  0  0
  -21.6632  -26.7451   22.1209 H   0  0  0  0  0  0
  -19.6896  -25.6305   21.1237 H   0  0  0  0  0  0
  -19.6674  -27.3209   20.6758 H   0  0  0  0  0  0
  -17.4189  -26.6694   21.4025 H   0  0  0  0  0  0
  -18.0306  -26.0070   22.9020 H   0  0  0  0  0  0
  -19.7931  -30.7253   24.2300 H   0  0  0  0  0  0
  -17.5017  -31.6268   24.5171 H   0  0  0  0  0  0
  -15.5353  -30.3009   23.7628 H   0  0  0  0  0  0
  -15.8666  -28.0838   22.7058 H   0  0  0  0  0  0
  -24.5854  -30.7154   25.7848 H   0  0  0  0  0  0
  -24.8952  -32.2944   26.4965 H   0  0  0  0  0  0
  -25.8044  -30.8918   27.0265 H   0  0  0  0  0  0
  -26.2879  -29.6810   24.1196 H   0  0  0  0  0  0
  -27.3980  -29.7282   25.4703 H   0  0  0  0  0  0
  -27.8764  -30.4334   23.9435 H   0  0  0  0  0  0
  -27.2670  -33.3655   26.2084 H   0  0  0  0  0  0
  -28.3848  -32.6899   25.0327 H   0  0  0  0  0  0
  -28.0721  -31.8479   26.5426 H   0  0  0  0  0  0
  -28.2592  -38.0112   24.7508 H   0  0  0  0  0  0
  -28.1073  -36.2641   24.6256 H   0  0  0  0  0  0
  -27.2302  -37.1445   25.8862 H   0  0  0  0  0  0
  -20.9327  -29.8790   21.6947 H   0  0  0  0  0  0
  -26.0173  -38.2878   24.1421 H   0  0  0  0  0  0
  -27.4038  -24.3643   19.2015 H   0  0  0  0  0  0
  -27.9083  -22.7121   18.6138 H   0  0  0  0  0  0
  -28.9446  -22.2966   23.3775 H   0  0  0  0  0  0
  -30.5535  -22.6644   23.9519 H   0  0  0  0  0  0
  -30.6789  -24.6855   22.6094 H   0  0  0  0  0  0
  -29.2878  -24.7602   23.6464 H   0  0  0  0  0  0
  -30.8174  -21.0634   22.1260 H   0  0  0  0  0  0
  -31.4206  -22.6026   21.5817 H   0  0  0  0  0  0
  -27.7681  -24.5264   21.9225 H   0  0  0  0  0  0
  -30.7060  -20.9192   17.0453 H   0  0  0  0  0  0
  -31.3663  -21.6227   18.5143 H   0  0  0  0  0  0
  -29.6220  -21.5910   18.1596 H   0  0  0  0  0  0
  -32.5669  -19.6851   17.1208 H   0  0  0  0  0  0
  -31.4533  -18.7612   16.1043 H   0  0  0  0  0  0
  -32.7659  -17.9776   16.9908 H   0  0  0  0  0  0
  -32.1995  -15.7660   17.9474 H   0  0  0  0  0  0
  -31.0799  -16.3765   16.7311 H   0  0  0  0  0  0
  -30.4959  -15.2661   17.8978 H   0  0  0  0  0  0
  -29.2319  -18.6799   22.6831 H   0  0  0  0  0  0
  -28.8644  -17.0165   22.3303 H   0  0  0  0  0  0
  -27.7526  -18.2596   21.8003 H   0  0  0  0  0  0
  -28.4077  -20.5321   21.5652 H   0  0  0  0  0  0
  -28.0050  -20.8658   19.9298 H   0  0  0  0  0  0
  -30.1236  -26.0338   20.7310 H   0  0  0  0  0  0
  -29.0301  -26.6878   21.9015 H   0  0  0  0  0  0
  -28.9562  -15.5389   20.8435 H   0  0  0  0  0  0
  -30.2111  -22.0045   19.9426 H   0  0  0  0  0  0
  1 25  1  0  0  0
  1 30  2  0  0  0
  1 89  1  0  0  0
  2  3  1  0  0  0
  2 25  1  0  0  0
  2 91  1  0  0  0
  2 92  1  0  0  0
  3  4  1  0  0  0
  3 93  1  0  0  0
  3 94  1  0  0  0
  4  5  1  0  0  0
  4 95  1  0  0  0
  4 96  1  0  0  0
  5  6  1  0  0  0
  5 26  1  0  0  0
  5 97  1  0  0  0
  6 25  1  0  0  0
  6 98  1  0  0  0
  6 99  1  0  0  0
  7  8  2  0  0  0
  7 26  1  0  0  0
  7 29  1  0  0  0
  8  9  1  0  0  0
  8 22  1  0  0  0
  9 10  1  0  0  0
  9 27  2  0  0  0
 10 11  2  0  0  0
 10 15  1  0  0  0
 11 12  1  0  0  0
 11100  1  0  0  0
 12 13  2  0  0  0
 12101  1  0  0  0
 13 14  1  0  0  0
 13 31  1  0  0  0
 14 15  2  0  0  0
 14102  1  0  0  0
 15103  1  0  0  0
 16 17  2  0  0  0
 16 21  1  0  0  0
 16 31  1  0  0  0
 17 18  1  0  0  0
 17104  1  0  0  0
 18 19  2  0  0  0
 18105  1  0  0  0
 19 20  1  0  0  0
 19 24  1  0  0  0
 20 21  2  0  0  0
 20106  1  0  0  0
 21 23  1  0  0  0
 22 28  1  0  0  0
 22 32  2  0  0  0
 26 27  1  0  0  0
 28107  1  0  0  0
 28108  1  0  0  0
 29109  1  0  0  0
 29110  1  0  0  0
 33 34  1  0  0  0
 33 66  1  0  0  0
 33 70  2  0  0  0
 34 36  1  0  0  0
 34 59  1  0  0  0
 34111  1  0  0  0
 35 44  2  0  0  0
 35 45  1  0  0  0
 35 68  1  0  0  0
 36 56  1  0  0  0
 36112  1  0  0  0
 37 39  1  0  0  0
 37 47  1  0  0  0
 37 66  1  0  0  0
 37113  1  0  0  0
 38 43  2  0  0  0
 38 46  1  0  0  0
 38 47  1  0  0  0
 39 64  1  0  0  0
 39 67  2  0  0  0
 40 52  1  0  0  0
 40 53  2  0  0  0
 40 58  1  0  0  0
 41114  1  0  0  0
 41115  1  0  0  0
 41116  1  0  0  0
 41 48  1  0  0  0
 42 43  1  0  0  0
 42 66  1  0  0  0
 42117  1  0  0  0
 42118  1  0  0  0
 43 44  1  0  0  0
 44119  1  0  0  0
 45 46  2  0  0  0
 45120  1  0  0  0
 46121  1  0  0  0
 47122  1  0  0  0
 47123  1  0  0  0
 48 56  1  0  0  0
 48 65  1  0  0  0
 48124  1  0  0  0
 49 50  1  0  0  0
 49 53  1  0  0  0
 49 64  1  0  0  0
 49125  1  0  0  0
 50 51  1  0  0  0
 50126  1  0  0  0
 50127  1  0  0  0
 51 52  1  0  0  0
 51128  1  0  0  0
 51129  1  0  0  0
 52130  1  0  0  0
 52131  1  0  0  0
 53 54  1  0  0  0
 54 55  2  0  0  0
 54132  1  0  0  0
 55 57  1  0  0  0
 55133  1  0  0  0
 56 69  2  0  0  0
 57 58  2  0  0  0
 57134  1  0  0  0
 58135  1  0  0  0
 59 60  1  0  0  0
 59 61  1  0  0  0
 59 62  1  0  0  0
 60136  1  0  0  0
 60137  1  0  0  0
 60138  1  0  0  0
 61139  1  0  0  0
 61140  1  0  0  0
 61141  1  0  0  0
 62142  1  0  0  0
 62143  1  0  0  0
 62144  1  0  0  0
 63 65  1  0  0  0
 63145  1  0  0  0
 63146  1  0  0  0
 63147  1  0  0  0
 64148  1  0  0  0
 65149  1  0  0  0
 68 88  1  0  0  0
 71 72  2  0  0  0
 71 73  1  0  0  0
 71 83  1  0  0  0
 72 74  1  0  0  0
 72 84  1  0  0  0
 73 75  2  0  0  0
 73 87  1  0  0  0
 74 76  2  0  0  0
 74 85  1  0  0  0
 75 76  1  0  0  0
 75 86  1  0  0  0
 76 89  1  0  0  0
 77 78  2  0  0  0
 77 82  1  0  0  0
 77 90  1  0  0  0
 78150  1  0  0  0
 78151  1  0  0  0
 79 80  1  0  0  0
 79 81  1  0  0  0
 79152  1  0  0  0
 79153  1  0  0  0
 80 82  1  0  0  0
 80154  1  0  0  0
 80155  1  0  0  0
 81 90  1  0  0  0
 81156  1  0  0  0
 81157  1  0  0  0
 82 88  1  0  0  0
 82158  1  0  0  0
 83159  1  0  0  0
 83160  1  0  0  0
 83161  1  0  0  0
 84162  1  0  0  0
 84163  1  0  0  0
 84164  1  0  0  0
 85165  1  0  0  0
 85166  1  0  0  0
 85167  1  0  0  0
 86168  1  0  0  0
 86169  1  0  0  0
 86170  1  0  0  0
 87171  1  0  0  0
 87172  1  0  0  0
 87 90  1  0  0  0
 88173  1  0  0  0
 88174  1  0  0  0
 89175  1  0  0  0
 90176  1  0  0  0
M  CHG  1  90   1
M  ISO  4   1 100  68 101  88 101  89 100
M  END
> <chiral flag>
0

> <version>
0

> <s_m_source_file>
/data/baiqing/PycharmProjects/Reinvent-master-3.2/result/LINK_invent/BTK/process_docking_weight1_custom_product_contain_oxygen_bond_distance_aromatic_linkinvent_7_9_3/rearranged_h_0037.sdf

> <i_m_source_file_index>
71

> <r_mmod_Potential_Energy-OPLS-2005>
23.6537590026855

> <r_mmod_Stretch_Energy-OPLS-2005>
81.6966094970703

> <r_mmod_Bend_Energy-OPLS-2005>
167.93994140625

> <r_mmod_Torsional_Energy-OPLS-2005>
291.860961914062

> <r_mmod_Improper_Torsional_Energy-OPLS-2005>
7.74787473678589

> <r_mmod_Van_der_Waal_Energy-OPLS-2005>
176.994766235352

> <r_mmod_Electrostatic_Energy-OPLS-2005>
-320.251434326172

> <r_mmod_Solvation_Energy-OPLS-2005>
-420.138031005859

> <b_mmod_Minimization_Converged-OPLS-2005>
0

> <r_mmod_RMS_Derivative-OPLS-2005>
2.94348192214966

$$$$
71
                    3D
 Structure written by MMmdl.
164173  0  0  1  0            999 V2000
  -30.6109  -14.7494   20.4683 C   0  0  0  0  0  0
  -30.4319  -12.4621   19.4681 C   0  0  0  0  0  0
  -29.5072  -12.5088   18.2319 C   0  0  0  0  0  0
  -28.0343  -12.3299   18.6484 C   0  0  0  0  0  0
  -27.6396  -13.2312   19.8489 C   0  0  2  0  0  0
  -28.6851  -13.1693   20.9831 C   0  0  0  0  0  0
  -25.2503  -13.8192   20.5697 C   0  0  0  0  0  0
  -24.1798  -13.0436   20.9214 C   0  0  0  0  0  0
  -24.6393  -11.6916   20.8757 C   0  0  0  0  0  0
  -23.9070  -10.4290   21.0411 C   0  0  0  0  0  0
  -24.3623   -9.4205   21.9187 C   0  0  0  0  0  0
  -23.6295   -8.2240   22.0753 C   0  0  0  0  0  0
  -22.4277   -8.0278   21.3544 C   0  0  0  0  0  0
  -21.9916   -9.0254   20.4645 C   0  0  0  0  0  0
  -22.7245  -10.2131   20.3055 C   0  0  0  0  0  0
  -21.6853   -6.0737   22.5278 C   0  0  0  0  0  0
  -21.4014   -6.5640   23.8211 C   0  0  0  0  0  0
  -21.3659   -5.6794   24.9174 C   0  0  0  0  0  0
  -21.6043   -4.3057   24.7224 C   0  0  0  0  0  0
  -21.8820   -3.8148   23.4346 C   0  0  0  0  0  0
  -21.9192   -4.6964   22.3403 C   0  0  0  0  0  0
  -22.7821  -13.5221   21.1874 C   0  0  0  0  0  0
  -22.1662   -4.2151   21.0980 F   0  0  0  0  0  0
  -21.5628   -3.4539   25.7735 F   0  0  0  0  0  0
  -29.9820  -13.5258   20.3958 N   0  0  0  0  0  0
  -26.2928  -12.9399   20.3280 N   0  0  0  0  0  0
  -25.9320  -11.6543   20.5760 N   0  0  0  0  0  0
  -22.0470  -12.8201   22.0425 N   0  0  0  0  0  0
  -25.4185  -15.1916   20.4097 N   0  0  0  0  0  0
  -31.8063  -14.8302   20.1711 O   0  0  0  0  0  0
  -21.6640   -6.8878   21.4239 O   0  0  0  0  0  0
  -22.3506  -14.5532   20.6727 O   0  0  0  0  0  0
  -24.6314  -31.8549   23.1970 C   0  0  0  0  0  0
  -25.9135  -32.4756   23.8325 C   0  0  1  0  0  0
  -27.2192  -27.2608   20.1428 C   0  0  0  0  0  0
  -25.5943  -33.8559   24.2255 N   0  0  0  0  0  0
  -23.4282  -30.4759   21.5411 C   0  0  2  0  0  0
  -24.8767  -28.9182   20.1143 C   0  0  0  0  0  0
  -22.7499  -29.4604   22.4921 C   0  0  0  0  0  0
  -18.0290  -28.1387   22.8489 C   0  0  0  0  0  0
  -24.1485  -36.7270   23.2640 C   0  0  0  0  0  0
  -25.9732  -30.7691   21.3753 C   0  0  0  0  0  0
  -26.0481  -29.3891   20.7226 C   0  0  0  0  0  0
  -27.2258  -28.5743   20.7221 C   0  0  0  0  0  0
  -26.0294  -26.8551   19.5051 C   0  0  0  0  0  0
  -24.8721  -27.6590   19.4933 C   0  0  0  0  0  0
  -23.6467  -29.8054   20.1590 C   0  0  0  0  0  0
  -25.4112  -36.3066   24.0329 C   0  0  1  0  0  0
  -20.5895  -28.3700   23.1267 C   0  0  2  0  0  0
  -20.6782  -26.9418   22.5409 C   0  0  0  0  0  0
  -19.5755  -26.6382   21.5219 C   0  0  0  0  0  0
  -18.1932  -26.7934   22.1622 C   0  0  0  0  0  0
  -19.1542  -28.8863   23.2874 C   0  0  0  0  0  0
  -18.9471  -30.1465   23.8888 C   0  0  0  0  0  0
  -17.6470  -30.6593   24.0569 C   0  0  0  0  0  0
  -25.9057  -34.9440   23.5089 C   0  0  0  0  0  0
  -16.5357  -29.9092   23.6342 C   0  0  0  0  0  0
  -16.7275  -28.6506   23.0363 C   0  0  0  0  0  0
  -26.4508  -31.6579   25.0712 C   0  0  0  0  0  0
  -25.3730  -31.3726   26.1432 C   0  0  0  0  0  0
  -27.0369  -30.3003   24.6187 C   0  0  0  0  0  0
  -27.6057  -32.4325   25.7486 C   0  0  0  0  0  0
  -27.5576  -37.1782   24.8464 C   0  0  0  0  0  0
  -21.4206  -29.3049   22.3659 N   0  0  0  0  0  0
  -26.4278  -37.3773   23.9425 N   0  0  0  0  0  0
  -24.6968  -31.0513   22.0949 N   0  0  0  0  0  0
  -23.4198  -28.8148   23.3026 O   0  0  0  0  0  0
  -28.3068  -26.3613   20.1508 O   0  0  0  0  0  0
  -26.5625  -34.8921   22.4657 O   0  0  0  0  0  0
  -23.5461  -32.1366   23.7265 O   0  0  0  0  0  0
  -29.3455  -18.4610   20.3790 C   0  0  0  0  0  0
  -31.4575  -17.6875   21.2608 C   0  0  0  0  0  0
  -29.7428  -19.8633   20.4728 C   0  0  0  0  0  0
  -31.8915  -19.0298   21.3822 C   0  0  0  0  0  0
  -31.0670  -20.1076   20.9355 C   0  0  0  0  0  0
  -30.2000  -17.3356   20.7308 C   0  0  0  0  0  0
  -28.6307  -23.6977   19.9591 C   0  0  0  0  0  0
  -28.8959  -23.6275   22.8334 C   0  0  0  0  0  0
  -28.7105  -25.0150   22.1699 C   0  0  0  0  0  0
  -28.3311  -22.4314   22.0284 C   0  0  0  0  0  0
  -28.1046  -24.9926   20.7525 C   0  0  1  0  0  0
  -31.6286  -21.5265   20.9031 C   0  0  0  0  0  0
  -28.8204  -21.0707   19.9501 C   0  0  0  0  0  0
  -33.2820  -19.2748   21.9815 C   0  0  0  0  0  0
  -28.6991  -22.4608   20.6068 N   0  0  0  0  0  0
  -29.8286  -15.8929   20.6295 N   0  0  0  0  0  0
  -28.9125  -23.8146   18.7628 O   0  0  0  0  0  0
  -33.7411  -18.2002   22.6260 F   0  0  0  0  0  0
  -34.1498  -19.5681   21.0127 F   0  0  0  0  0  0
  -33.2599  -20.2732   22.8656 F   0  0  0  0  0  0
  -31.4720  -12.5911   19.1631 H   0  0  0  0  0  0
  -30.3818  -11.4859   19.9531 H   0  0  0  0  0  0
  -29.7898  -11.7341   17.5179 H   0  0  0  0  0  0
  -29.6305  -13.4623   17.7152 H   0  0  0  0  0  0
  -27.8934  -11.2815   18.9137 H   0  0  0  0  0  0
  -27.3747  -12.5189   17.8009 H   0  0  0  0  0  0
  -27.6316  -14.2518   19.4657 H   0  0  0  0  0  0
  -28.7245  -12.1719   21.4240 H   0  0  0  0  0  0
  -28.4205  -13.8512   21.7930 H   0  0  0  0  0  0
  -25.2769   -9.5680   22.4767 H   0  0  0  0  0  0
  -24.0002   -7.4631   22.7473 H   0  0  0  0  0  0
  -21.0848   -8.8777   19.8948 H   0  0  0  0  0  0
  -22.3709  -10.9676   19.6166 H   0  0  0  0  0  0
  -21.2006   -7.6148   23.9717 H   0  0  0  0  0  0
  -21.1478   -6.0523   25.9077 H   0  0  0  0  0  0
  -22.0598   -2.7610   23.2844 H   0  0  0  0  0  0
  -22.4088  -11.9856   22.4800 H   0  0  0  0  0  0
  -21.1090  -13.1218   22.2643 H   0  0  0  0  0  0
  -24.6471  -15.8418   20.5136 H   0  0  0  0  0  0
  -26.2568  -15.6309   20.0533 H   0  0  0  0  0  0
  -26.7204  -32.5408   23.1068 H   0  0  0  0  0  0
  -25.0132  -33.9703   25.0431 H   0  0  0  0  0  0
  -22.7257  -31.2987   21.3927 H   0  0  0  0  0  0
  -23.3762  -35.9587   23.3287 H   0  0  0  0  0  0
  -24.3584  -36.8906   22.2059 H   0  0  0  0  0  0
  -23.7217  -37.6457   23.6673 H   0  0  0  0  0  0
  -26.1088  -31.5273   20.6028 H   0  0  0  0  0  0
  -26.8516  -30.8218   22.0063 H   0  0  0  0  0  0
  -28.1252  -28.9308   21.2049 H   0  0  0  0  0  0
  -25.9874  -25.8890   19.0225 H   0  0  0  0  0  0
  -23.9769  -27.2936   19.0091 H   0  0  0  0  0  0
  -23.7713  -30.5798   19.4016 H   0  0  0  0  0  0
  -22.7652  -29.2379   19.8537 H   0  0  0  0  0  0
  -25.1293  -36.1903   25.0821 H   0  0  0  0  0  0
  -20.9986  -28.3276   24.1386 H   0  0  0  0  0  0
  -20.5699  -26.2312   23.3618 H   0  0  0  0  0  0
  -21.6647  -26.7457   22.1186 H   0  0  0  0  0  0
  -19.6925  -25.6292   21.1251 H   0  0  0  0  0  0
  -19.6687  -27.3194   20.6750 H   0  0  0  0  0  0
  -17.4207  -26.6694   21.4019 H   0  0  0  0  0  0
  -18.0321  -26.0070   22.9010 H   0  0  0  0  0  0
  -19.7951  -30.7291   24.2237 H   0  0  0  0  0  0
  -17.5028  -31.6276   24.5170 H   0  0  0  0  0  0
  -15.5361  -30.3000   23.7673 H   0  0  0  0  0  0
  -15.8671  -28.0830   22.7084 H   0  0  0  0  0  0
  -24.5921  -30.7059   25.7758 H   0  0  0  0  0  0
  -24.8911  -32.2898   26.4825 H   0  0  0  0  0  0
  -25.8051  -30.8929   27.0224 H   0  0  0  0  0  0
  -26.2957  -29.6736   24.1216 H   0  0  0  0  0  0
  -27.4078  -29.7272   25.4693 H   0  0  0  0  0  0
  -27.8818  -30.4297   23.9420 H   0  0  0  0  0  0
  -27.2663  -33.3642   26.2021 H   0  0  0  0  0  0
  -28.3886  -32.6853   25.0326 H   0  0  0  0  0  0
  -28.0702  -31.8479   26.5434 H   0  0  0  0  0  0
  -28.2564  -38.0107   24.7551 H   0  0  0  0  0  0
  -28.1096  -36.2639   24.6232 H   0  0  0  0  0  0
  -27.2304  -37.1351   25.8868 H   0  0  0  0  0  0
  -20.9392  -29.8766   21.6859 H   0  0  0  0  0  0
  -26.0148  -38.2837   24.1459 H   0  0  0  0  0  0
  -28.3606  -18.2439   19.9887 H   0  0  0  0  0  0
  -32.1251  -16.9051   21.5872 H   0  0  0  0  0  0
  -28.4503  -23.6369   23.8292 H   0  0  0  0  0  0
  -29.9604  -23.4663   23.0027 H   0  0  0  0  0  0
  -29.6782  -25.5167   22.1320 H   0  0  0  0  0  0
  -28.0838  -25.6396   22.8080 H   0  0  0  0  0  0
  -27.2419  -22.4231   22.0973 H   0  0  0  0  0  0
  -28.6677  -21.5012   22.4868 H   0  0  0  0  0  0
  -27.0358  -24.8140   20.8719 H   0  0  0  0  0  0
  -31.2768  -22.0761   20.0316 H   0  0  0  0  0  0
  -32.7138  -21.5475   20.8257 H   0  0  0  0  0  0
  -31.3471  -22.0719   21.8020 H   0  0  0  0  0  0
  -27.8032  -20.6823   19.8907 H   0  0  0  0  0  0
  -29.1102  -21.2236   18.9099 H   0  0  0  0  0  0
  -28.8391  -15.7021   20.6645 H   0  0  0  0  0  0
  1 25  1  0  0  0
  1 30  2  0  0  0
  1 86  1  0  0  0
  2  3  1  0  0  0
  2 25  1  0  0  0
  2 91  1  0  0  0
  2 92  1  0  0  0
  3  4  1  0  0  0
  3 93  1  0  0  0
  3 94  1  0  0  0
  4  5  1  0  0  0
  4 95  1  0  0  0
  4 96  1  0  0  0
  5  6  1  0  0  0
  5 26  1  0  0  0
  5 97  1  0  0  0
  6 25  1  0  0  0
  6 98  1  0  0  0
  6 99  1  0  0  0
  7  8  2  0  0  0
  7 26  1  0  0  0
  7 29  1  0  0  0
  8  9  1  0  0  0
  8 22  1  0  0  0
  9 10  1  0  0  0
  9 27  2  0  0  0
 10 11  2  0  0  0
 10 15  1  0  0  0
 11 12  1  0  0  0
 11100  1  0  0  0
 12 13  2  0  0  0
 12101  1  0  0  0
 13 14  1  0  0  0
 13 31  1  0  0  0
 14 15  2  0  0  0
 14102  1  0  0  0
 15103  1  0  0  0
 16 17  2  0  0  0
 16 21  1  0  0  0
 16 31  1  0  0  0
 17 18  1  0  0  0
 17104  1  0  0  0
 18 19  2  0  0  0
 18105  1  0  0  0
 19 20  1  0  0  0
 19 24  1  0  0  0
 20 21  2  0  0  0
 20106  1  0  0  0
 21 23  1  0  0  0
 22 28  1  0  0  0
 22 32  2  0  0  0
 26 27  1  0  0  0
 28107  1  0  0  0
 28108  1  0  0  0
 29109  1  0  0  0
 29110  1  0  0  0
 33 34  1  0  0  0
 33 66  1  0  0  0
 33 70  2  0  0  0
 34 36  1  0  0  0
 34 59  1  0  0  0
 34111  1  0  0  0
 35 44  2  0  0  0
 35 45  1  0  0  0
 35 68  1  0  0  0
 36 56  1  0  0  0
 36112  1  0  0  0
 37 39  1  0  0  0
 37 47  1  0  0  0
 37 66  1  0  0  0
 37113  1  0  0  0
 38 43  2  0  0  0
 38 46  1  0  0  0
 38 47  1  0  0  0
 39 64  1  0  0  0
 39 67  2  0  0  0
 40 52  1  0  0  0
 40 53  2  0  0  0
 40 58  1  0  0  0
 41114  1  0  0  0
 41115  1  0  0  0
 41116  1  0  0  0
 41 48  1  0  0  0
 42 43  1  0  0  0
 42 66  1  0  0  0
 42117  1  0  0  0
 42118  1  0  0  0
 43 44  1  0  0  0
 44119  1  0  0  0
 45 46  2  0  0  0
 45120  1  0  0  0
 46121  1  0  0  0
 47122  1  0  0  0
 47123  1  0  0  0
 48 56  1  0  0  0
 48 65  1  0  0  0
 48124  1  0  0  0
 49 50  1  0  0  0
 49 53  1  0  0  0
 49 64  1  0  0  0
 49125  1  0  0  0
 50 51  1  0  0  0
 50126  1  0  0  0
 50127  1  0  0  0
 51 52  1  0  0  0
 51128  1  0  0  0
 51129  1  0  0  0
 52130  1  0  0  0
 52131  1  0  0  0
 53 54  1  0  0  0
 54 55  2  0  0  0
 54132  1  0  0  0
 55 57  1  0  0  0
 55133  1  0  0  0
 56 69  2  0  0  0
 57 58  2  0  0  0
 57134  1  0  0  0
 58135  1  0  0  0
 59 60  1  0  0  0
 59 61  1  0  0  0
 59 62  1  0  0  0
 60136  1  0  0  0
 60137  1  0  0  0
 60138  1  0  0  0
 61139  1  0  0  0
 61140  1  0  0  0
 61141  1  0  0  0
 62142  1  0  0  0
 62143  1  0  0  0
 62144  1  0  0  0
 63 65  1  0  0  0
 63145  1  0  0  0
 63146  1  0  0  0
 63147  1  0  0  0
 64148  1  0  0  0
 65149  1  0  0  0
 68 81  1  0  0  0
 71 73  2  0  0  0
 71 76  1  0  0  0
 71150  1  0  0  0
 72 74  1  0  0  0
 72 76  2  0  0  0
 72151  1  0  0  0
 73 75  1  0  0  0
 73 83  1  0  0  0
 74 75  2  0  0  0
 74 84  1  0  0  0
 75 82  1  0  0  0
 76 86  1  0  0  0
 77 81  1  0  0  0
 77 85  1  0  0  0
 77 87  2  0  0  0
 78 79  1  0  0  0
 78 80  1  0  0  0
 78152  1  0  0  0
 78153  1  0  0  0
 79 81  1  0  0  0
 79154  1  0  0  0
 79155  1  0  0  0
 80 85  1  0  0  0
 80156  1  0  0  0
 80157  1  0  0  0
 81158  1  0  0  0
 82159  1  0  0  0
 82160  1  0  0  0
 82161  1  0  0  0
 83 85  1  0  0  0
 83162  1  0  0  0
 83163  1  0  0  0
 84 88  1  0  0  0
 84 89  1  0  0  0
 84 90  1  0  0  0
 86164  1  0  0  0
M  ISO  4   1 100  68 101  81 101  86 100
M  END
> <chiral flag>
0

> <version>
0

> <s_m_source_file>
/data/baiqing/PycharmProjects/Reinvent-master-3.2/result/LINK_invent/BTK/process_docking_weight1_custom_product_contain_oxygen_bond_distance_aromatic_linkinvent_7_9_3/rearranged_h_0037.sdf

> <i_m_source_file_index>
72

> <r_mmod_Potential_Energy-OPLS-2005>
291.488220214844

> <r_mmod_Stretch_Energy-OPLS-2005>
136.299118041992

> <r_mmod_Bend_Energy-OPLS-2005>
162.975952148438

> <r_mmod_Torsional_Energy-OPLS-2005>
272.586822509766

> <r_mmod_Improper_Torsional_Energy-OPLS-2005>
6.96295213699341

> <r_mmod_Van_der_Waal_Energy-OPLS-2005>
151.889175415039

> <r_mmod_Electrostatic_Energy-OPLS-2005>
-299.060211181641

> <r_mmod_Solvation_Energy-OPLS-2005>
-226.429595947266

> <b_mmod_Minimization_Converged-OPLS-2005>
0

> <r_mmod_RMS_Derivative-OPLS-2005>
0.954501152038574

$$$$
72
                    3D
 Structure written by MMmdl.
161170  0  0  1  0            999 V2000
  -30.6152  -14.6316   20.5252 C   0  0  0  0  0  0
  -30.4437  -12.3935   19.4526 C   0  0  0  0  0  0
  -29.5097  -12.4954   18.2265 C   0  0  0  0  0  0
  -28.0340  -12.3314   18.6427 C   0  0  0  0  0  0
  -27.6544  -13.2080   19.8653 C   0  0  2  0  0  0
  -28.6964  -13.0530   20.9957 C   0  0  0  0  0  0
  -25.2569  -13.8150   20.5680 C   0  0  0  0  0  0
  -24.1822  -13.0431   20.9193 C   0  0  0  0  0  0
  -24.6382  -11.6900   20.8759 C   0  0  0  0  0  0
  -23.9049  -10.4287   21.0425 C   0  0  0  0  0  0
  -24.3603   -9.4205   21.9201 C   0  0  0  0  0  0
  -23.6277   -8.2242   22.0764 C   0  0  0  0  0  0
  -22.4264   -8.0281   21.3545 C   0  0  0  0  0  0
  -21.9892   -9.0263   20.4660 C   0  0  0  0  0  0
  -22.7220  -10.2143   20.3077 C   0  0  0  0  0  0
  -21.6857   -6.0734   22.5280 C   0  0  0  0  0  0
  -21.4010   -6.5636   23.8212 C   0  0  0  0  0  0
  -21.3654   -5.6789   24.9173 C   0  0  0  0  0  0
  -21.6045   -4.3053   24.7227 C   0  0  0  0  0  0
  -21.8814   -3.8143   23.4349 C   0  0  0  0  0  0
  -21.9185   -4.6959   22.3402 C   0  0  0  0  0  0
  -22.7851  -13.5247   21.1842 C   0  0  0  0  0  0
  -22.1657   -4.2147   21.0984 F   0  0  0  0  0  0
  -21.5627   -3.4536   25.7737 F   0  0  0  0  0  0
  -30.0112  -13.4061   20.4359 N   0  0  0  0  0  0
  -26.2983  -12.9311   20.3310 N   0  0  0  0  0  0
  -25.9308  -11.6483   20.5770 N   0  0  0  0  0  0
  -22.0480  -12.8275   22.0417 N   0  0  0  0  0  0
  -25.4296  -15.1866   20.4080 N   0  0  0  0  0  0
  -31.7659  -14.8015   20.1140 O   0  0  0  0  0  0
  -21.6633   -6.8880   21.4244 O   0  0  0  0  0  0
  -22.3547  -14.5551   20.6674 O   0  0  0  0  0  0
  -24.6257  -31.8601   23.2044 C   0  0  0  0  0  0
  -25.9105  -32.4783   23.8364 C   0  0  1  0  0  0
  -27.2209  -27.3135   20.1227 C   0  0  0  0  0  0
  -25.5915  -33.8583   24.2285 N   0  0  0  0  0  0
  -23.4196  -30.4859   21.5457 C   0  0  2  0  0  0
  -24.8659  -28.9457   20.1098 C   0  0  0  0  0  0
  -22.7471  -29.4627   22.4923 C   0  0  0  0  0  0
  -18.0281  -28.1403   22.8485 C   0  0  0  0  0  0
  -24.1485  -36.7289   23.2639 C   0  0  0  0  0  0
  -25.9614  -30.7898   21.3773 C   0  0  0  0  0  0
  -26.0338  -29.4173   20.7204 C   0  0  0  0  0  0
  -27.2119  -28.6113   20.7224 C   0  0  0  0  0  0
  -26.0329  -26.9116   19.4631 C   0  0  0  0  0  0
  -24.8674  -27.6972   19.4724 C   0  0  0  0  0  0
  -23.6349  -29.8253   20.1590 C   0  0  0  0  0  0
  -25.4110  -36.3086   24.0328 C   0  0  1  0  0  0
  -20.5886  -28.3698   23.1281 C   0  0  2  0  0  0
  -20.6762  -26.9418   22.5418 C   0  0  0  0  0  0
  -19.5742  -26.6391   21.5217 C   0  0  0  0  0  0
  -18.1922  -26.7945   22.1626 C   0  0  0  0  0  0
  -19.1538  -28.8867   23.2876 C   0  0  0  0  0  0
  -18.9463  -30.1466   23.8901 C   0  0  0  0  0  0
  -17.6463  -30.6601   24.0571 C   0  0  0  0  0  0
  -25.9042  -34.9456   23.5108 C   0  0  0  0  0  0
  -16.5352  -29.9102   23.6339 C   0  0  0  0  0  0
  -16.7269  -28.6521   23.0356 C   0  0  0  0  0  0
  -26.4489  -31.6600   25.0738 C   0  0  0  0  0  0
  -25.3718  -31.3759   26.1462 C   0  0  0  0  0  0
  -27.0313  -30.3011   24.6204 C   0  0  0  0  0  0
  -27.6043  -32.4336   25.7516 C   0  0  0  0  0  0
  -27.5568  -37.1808   24.8469 C   0  0  0  0  0  0
  -21.4186  -29.3049   22.3666 N   0  0  0  0  0  0
  -26.4289  -37.3775   23.9399 N   0  0  0  0  0  0
  -24.6877  -31.0624   22.0980 N   0  0  0  0  0  0
  -23.4191  -28.8146   23.2982 O   0  0  0  0  0  0
  -28.3331  -26.4550   20.2170 O   0  0  0  0  0  0
  -26.5615  -34.8921   22.4676 O   0  0  0  0  0  0
  -23.5421  -32.1397   23.7367 O   0  0  0  0  0  0
  -28.6869  -19.2913   20.5569 C   0  0  0  0  0  0
  -28.7544  -17.8657   20.4915 C   0  0  0  0  0  0
  -30.9207  -19.3204   21.4311 C   0  0  0  0  0  0
  -29.7758  -20.0660   21.0315 C   0  0  0  0  0  0
  -30.9927  -17.8932   21.3825 C   0  0  0  0  0  0
  -29.8989  -17.1205   20.8937 C   0  0  0  0  0  0
  -28.9305  -23.9753   20.8208 C   0  0  0  0  0  0
  -28.2931  -23.2916   18.0687 C   0  0  0  0  0  0
  -28.5503  -24.7601   18.4268 C   0  0  0  0  0  0
  -29.0923  -22.3203   18.9639 C   0  0  0  0  0  0
  -28.1777  -25.0100   19.8919 C   0  0  2  0  0  0
  -32.2335  -17.2215   21.9435 C   0  0  0  0  0  0
  -29.7200  -21.6223   21.3147 C   0  0  0  0  0  0
  -29.1291  -22.6686   20.3962 N   0  0  0  0  0  0
  -29.7996  -15.6586   20.9315 N   0  0  0  0  0  0
  -29.2648  -24.3422   21.9527 O   0  0  0  0  0  0
  -31.4823  -12.5309   19.1462 H   0  0  0  0  0  0
  -30.3929  -11.3975   19.8949 H   0  0  0  0  0  0
  -29.7762  -11.7327   17.4927 H   0  0  0  0  0  0
  -29.6497  -13.4583   17.7318 H   0  0  0  0  0  0
  -27.8812  -11.2799   18.8889 H   0  0  0  0  0  0
  -27.3750  -12.5429   17.7999 H   0  0  0  0  0  0
  -27.6786  -14.2426   19.5227 H   0  0  0  0  0  0
  -28.7116  -12.0262   21.3650 H   0  0  0  0  0  0
  -28.4371  -13.6723   21.8555 H   0  0  0  0  0  0
  -25.2755   -9.5682   22.4763 H   0  0  0  0  0  0
  -23.9990   -7.4634   22.7481 H   0  0  0  0  0  0
  -21.0813   -8.8786   19.8977 H   0  0  0  0  0  0
  -22.3679  -10.9684   19.6180 H   0  0  0  0  0  0
  -21.2013   -7.6146   23.9716 H   0  0  0  0  0  0
  -21.1478   -6.0522   25.9075 H   0  0  0  0  0  0
  -22.0597   -2.7608   23.2852 H   0  0  0  0  0  0
  -22.4067  -11.9951   22.4843 H   0  0  0  0  0  0
  -21.1110  -13.1342   22.2624 H   0  0  0  0  0  0
  -24.6605  -15.8387   20.5126 H   0  0  0  0  0  0
  -26.2668  -15.6196   20.0426 H   0  0  0  0  0  0
  -26.7171  -32.5453   23.1108 H   0  0  0  0  0  0
  -25.0062  -33.9735   25.0431 H   0  0  0  0  0  0
  -22.7127  -31.3055   21.4041 H   0  0  0  0  0  0
  -23.3737  -35.9637   23.3347 H   0  0  0  0  0  0
  -24.3562  -36.8855   22.2041 H   0  0  0  0  0  0
  -23.7259  -37.6508   23.6642 H   0  0  0  0  0  0
  -26.0971  -31.5514   20.6077 H   0  0  0  0  0  0
  -26.8401  -30.8370   22.0086 H   0  0  0  0  0  0
  -28.1038  -28.9644   21.2222 H   0  0  0  0  0  0
  -25.9606  -25.9739   18.9349 H   0  0  0  0  0  0
  -23.9747  -27.3363   18.9793 H   0  0  0  0  0  0
  -23.7543  -30.6038   19.4036 H   0  0  0  0  0  0
  -22.7559  -29.2544   19.8551 H   0  0  0  0  0  0
  -25.1301  -36.1936   25.0823 H   0  0  0  0  0  0
  -20.9983  -28.3280   24.1398 H   0  0  0  0  0  0
  -20.5657  -26.2309   23.3618 H   0  0  0  0  0  0
  -21.6629  -26.7435   22.1222 H   0  0  0  0  0  0
  -19.6897  -25.6299   21.1250 H   0  0  0  0  0  0
  -19.6693  -27.3197   20.6744 H   0  0  0  0  0  0
  -17.4189  -26.6693   21.4031 H   0  0  0  0  0  0
  -18.0327  -26.0101   22.9039 H   0  0  0  0  0  0
  -19.7936  -30.7281   24.2278 H   0  0  0  0  0  0
  -17.5020  -31.6285   24.5164 H   0  0  0  0  0  0
  -15.5355  -30.3005   23.7674 H   0  0  0  0  0  0
  -15.8665  -28.0842   22.7074 H   0  0  0  0  0  0
  -24.5925  -30.7056   25.7821 H   0  0  0  0  0  0
  -24.8872  -32.2928   26.4826 H   0  0  0  0  0  0
  -25.8037  -30.9010   27.0278 H   0  0  0  0  0  0
  -26.2891  -29.6787   24.1188 H   0  0  0  0  0  0
  -27.3941  -29.7246   25.4725 H   0  0  0  0  0  0
  -27.8809  -30.4278   23.9488 H   0  0  0  0  0  0
  -27.2650  -33.3646   26.2077 H   0  0  0  0  0  0
  -28.3877  -32.6862   25.0361 H   0  0  0  0  0  0
  -28.0694  -31.8470   26.5449 H   0  0  0  0  0  0
  -28.2617  -38.0068   24.7456 H   0  0  0  0  0  0
  -28.1025  -36.2591   24.6381 H   0  0  0  0  0  0
  -27.2282  -37.1570   25.8872 H   0  0  0  0  0  0
  -20.9361  -29.8764   21.6879 H   0  0  0  0  0  0
  -26.0169  -38.2856   24.1367 H   0  0  0  0  0  0
  -27.7646  -19.7837   20.2796 H   0  0  0  0  0  0
  -27.8799  -17.3337   20.1481 H   0  0  0  0  0  0
  -31.7591  -19.8613   21.8483 H   0  0  0  0  0  0
  -28.5420  -23.1155   17.0217 H   0  0  0  0  0  0
  -27.2265  -23.0802   18.1622 H   0  0  0  0  0  0
  -27.9719  -25.4089   17.7699 H   0  0  0  0  0  0
  -29.5988  -25.0140   18.2605 H   0  0  0  0  0  0
  -30.1248  -22.2777   18.6168 H   0  0  0  0  0  0
  -28.6836  -21.3221   18.8235 H   0  0  0  0  0  0
  -27.1461  -24.7039   20.0543 H   0  0  0  0  0  0
  -31.9679  -16.3959   22.6036 H   0  0  0  0  0  0
  -32.8446  -17.9200   22.5166 H   0  0  0  0  0  0
  -32.8495  -16.8366   21.1316 H   0  0  0  0  0  0
  -30.7427  -21.9460   21.5144 H   0  0  0  0  0  0
  -29.2111  -21.7197   22.2753 H   0  0  0  0  0  0
  -28.8735  -15.3217   21.1442 H   0  0  0  0  0  0
  1 25  1  0  0  0
  1 30  2  0  0  0
  1 85  1  0  0  0
  2  3  1  0  0  0
  2 25  1  0  0  0
  2 87  1  0  0  0
  2 88  1  0  0  0
  3  4  1  0  0  0
  3 89  1  0  0  0
  3 90  1  0  0  0
  4  5  1  0  0  0
  4 91  1  0  0  0
  4 92  1  0  0  0
  5  6  1  0  0  0
  5 26  1  0  0  0
  5 93  1  0  0  0
  6 25  1  0  0  0
  6 94  1  0  0  0
  6 95  1  0  0  0
  7  8  2  0  0  0
  7 26  1  0  0  0
  7 29  1  0  0  0
  8  9  1  0  0  0
  8 22  1  0  0  0
  9 10  1  0  0  0
  9 27  2  0  0  0
 10 11  2  0  0  0
 10 15  1  0  0  0
 11 12  1  0  0  0
 11 96  1  0  0  0
 12 13  2  0  0  0
 12 97  1  0  0  0
 13 14  1  0  0  0
 13 31  1  0  0  0
 14 15  2  0  0  0
 14 98  1  0  0  0
 15 99  1  0  0  0
 16 17  2  0  0  0
 16 21  1  0  0  0
 16 31  1  0  0  0
 17 18  1  0  0  0
 17100  1  0  0  0
 18 19  2  0  0  0
 18101  1  0  0  0
 19 20  1  0  0  0
 19 24  1  0  0  0
 20 21  2  0  0  0
 20102  1  0  0  0
 21 23  1  0  0  0
 22 28  1  0  0  0
 22 32  2  0  0  0
 26 27  1  0  0  0
 28103  1  0  0  0
 28104  1  0  0  0
 29105  1  0  0  0
 29106  1  0  0  0
 33 34  1  0  0  0
 33 66  1  0  0  0
 33 70  2  0  0  0
 34 36  1  0  0  0
 34 59  1  0  0  0
 34107  1  0  0  0
 35 44  2  0  0  0
 35 45  1  0  0  0
 35 68  1  0  0  0
 36 56  1  0  0  0
 36108  1  0  0  0
 37 39  1  0  0  0
 37 47  1  0  0  0
 37 66  1  0  0  0
 37109  1  0  0  0
 38 43  2  0  0  0
 38 46  1  0  0  0
 38 47  1  0  0  0
 39 64  1  0  0  0
 39 67  2  0  0  0
 40 52  1  0  0  0
 40 53  2  0  0  0
 40 58  1  0  0  0
 41110  1  0  0  0
 41111  1  0  0  0
 41112  1  0  0  0
 41 48  1  0  0  0
 42 43  1  0  0  0
 42 66  1  0  0  0
 42113  1  0  0  0
 42114  1  0  0  0
 43 44  1  0  0  0
 44115  1  0  0  0
 45 46  2  0  0  0
 45116  1  0  0  0
 46117  1  0  0  0
 47118  1  0  0  0
 47119  1  0  0  0
 48 56  1  0  0  0
 48 65  1  0  0  0
 48120  1  0  0  0
 49 50  1  0  0  0
 49 53  1  0  0  0
 49 64  1  0  0  0
 49121  1  0  0  0
 50 51  1  0  0  0
 50122  1  0  0  0
 50123  1  0  0  0
 51 52  1  0  0  0
 51124  1  0  0  0
 51125  1  0  0  0
 52126  1  0  0  0
 52127  1  0  0  0
 53 54  1  0  0  0
 54 55  2  0  0  0
 54128  1  0  0  0
 55 57  1  0  0  0
 55129  1  0  0  0
 56 69  2  0  0  0
 57 58  2  0  0  0
 57130  1  0  0  0
 58131  1  0  0  0
 59 60  1  0  0  0
 59 61  1  0  0  0
 59 62  1  0  0  0
 60132  1  0  0  0
 60133  1  0  0  0
 60134  1  0  0  0
 61135  1  0  0  0
 61136  1  0  0  0
 61137  1  0  0  0
 62138  1  0  0  0
 62139  1  0  0  0
 62140  1  0  0  0
 63 65  1  0  0  0
 63141  1  0  0  0
 63142  1  0  0  0
 63143  1  0  0  0
 64144  1  0  0  0
 65145  1  0  0  0
 68 81  1  0  0  0
 71 72  2  0  0  0
 71 74  1  0  0  0
 71146  1  0  0  0
 72 76  1  0  0  0
 72147  1  0  0  0
 73 74  2  0  0  0
 73 75  1  0  0  0
 73148  1  0  0  0
 74 83  1  0  0  0
 75 76  2  0  0  0
 75 82  1  0  0  0
 76 85  1  0  0  0
 77 81  1  0  0  0
 77 84  1  0  0  0
 77 86  2  0  0  0
 78 79  1  0  0  0
 78 80  1  0  0  0
 78149  1  0  0  0
 78150  1  0  0  0
 79 81  1  0  0  0
 79151  1  0  0  0
 79152  1  0  0  0
 80 84  1  0  0  0
 80153  1  0  0  0
 80154  1  0  0  0
 81155  1  0  0  0
 82156  1  0  0  0
 82157  1  0  0  0
 82158  1  0  0  0
 83 84  1  0  0  0
 83159  1  0  0  0
 83160  1  0  0  0
 85161  1  0  0  0
M  ISO  4   1 100  68 101  81 101  85 100
M  END
> <chiral flag>
0

> <version>
0

> <s_m_source_file>
/data/baiqing/PycharmProjects/Reinvent-master-3.2/result/LINK_invent/BTK/process_docking_weight1_custom_product_contain_oxygen_bond_distance_aromatic_linkinvent_7_9_3/rearranged_h_0037.sdf

> <i_m_source_file_index>
73

> <r_mmod_Potential_Energy-OPLS-2005>
117.557327270508

> <r_mmod_Stretch_Energy-OPLS-2005>
86.92041015625

> <r_mmod_Bend_Energy-OPLS-2005>
156.34733581543

> <r_mmod_Torsional_Energy-OPLS-2005>
244.77294921875

> <r_mmod_Improper_Torsional_Energy-OPLS-2005>
7.10629320144653

> <r_mmod_Van_der_Waal_Energy-OPLS-2005>
157.878189086914

> <r_mmod_Electrostatic_Energy-OPLS-2005>
-351.009368896484

> <r_mmod_Solvation_Energy-OPLS-2005>
-235.037734985352

> <b_mmod_Minimization_Converged-OPLS-2005>
0

> <r_mmod_RMS_Derivative-OPLS-2005>
2.23557615280151

$$$$
73
                    3D
 Structure written by MMmdl.
156164  0  0  1  0            999 V2000
  -30.6284  -14.6262   20.5053 C   0  0  0  0  0  0
  -30.4405  -12.3873   19.4444 C   0  0  0  0  0  0
  -29.5063  -12.5098   18.2199 C   0  0  0  0  0  0
  -28.0293  -12.3465   18.6320 C   0  0  0  0  0  0
  -27.6542  -13.2123   19.8636 C   0  0  2  0  0  0
  -28.7011  -13.0605   20.9907 C   0  0  0  0  0  0
  -25.2559  -13.8153   20.5683 C   0  0  0  0  0  0
  -24.1823  -13.0418   20.9175 C   0  0  0  0  0  0
  -24.6396  -11.6889   20.8725 C   0  0  0  0  0  0
  -23.9064  -10.4276   21.0402 C   0  0  0  0  0  0
  -24.3616   -9.4188   21.9183 C   0  0  0  0  0  0
  -23.6280   -8.2232   22.0756 C   0  0  0  0  0  0
  -22.4265   -8.0276   21.3548 C   0  0  0  0  0  0
  -21.9900   -9.0249   20.4650 C   0  0  0  0  0  0
  -22.7236  -10.2123   20.3055 C   0  0  0  0  0  0
  -21.6848   -6.0723   22.5279 C   0  0  0  0  0  0
  -21.4011   -6.5627   23.8214 C   0  0  0  0  0  0
  -21.3660   -5.6782   24.9176 C   0  0  0  0  0  0
  -21.6050   -4.3045   24.7227 C   0  0  0  0  0  0
  -21.8818   -3.8136   23.4350 C   0  0  0  0  0  0
  -21.9186   -4.6951   22.3403 C   0  0  0  0  0  0
  -22.7848  -13.5221   21.1839 C   0  0  0  0  0  0
  -22.1657   -4.2134   21.0980 F   0  0  0  0  0  0
  -21.5629   -3.4530   25.7743 F   0  0  0  0  0  0
  -30.0177  -13.4023   20.4281 N   0  0  0  0  0  0
  -26.2992  -12.9336   20.3321 N   0  0  0  0  0  0
  -25.9324  -11.6492   20.5744 N   0  0  0  0  0  0
  -22.0487  -12.8228   22.0403 N   0  0  0  0  0  0
  -25.4244  -15.1879   20.4138 N   0  0  0  0  0  0
  -31.7909  -14.7957   20.1267 O   0  0  0  0  0  0
  -21.6629   -6.8872   21.4245 O   0  0  0  0  0  0
  -22.3536  -14.5524   20.6678 O   0  0  0  0  0  0
  -24.6264  -31.8606   23.2027 C   0  0  0  0  0  0
  -25.9115  -32.4779   23.8355 C   0  0  1  0  0  0
  -27.2242  -27.3263   20.1105 C   0  0  0  0  0  0
  -25.5931  -33.8578   24.2282 N   0  0  0  0  0  0
  -23.4191  -30.4855   21.5458 C   0  0  2  0  0  0
  -24.8643  -28.9448   20.1094 C   0  0  0  0  0  0
  -22.7476  -29.4632   22.4935 C   0  0  0  0  0  0
  -18.0284  -28.1388   22.8481 C   0  0  0  0  0  0
  -24.1488  -36.7298   23.2639 C   0  0  0  0  0  0
  -25.9603  -30.7943   21.3721 C   0  0  0  0  0  0
  -26.0340  -29.4231   20.7127 C   0  0  0  0  0  0
  -27.2174  -28.6270   20.7013 C   0  0  0  0  0  0
  -26.0277  -26.9009   19.4846 C   0  0  0  0  0  0
  -24.8637  -27.6900   19.4847 C   0  0  0  0  0  0
  -23.6319  -29.8234   20.1600 C   0  0  0  0  0  0
  -25.4111  -36.3083   24.0329 C   0  0  1  0  0  0
  -20.5886  -28.3690   23.1283 C   0  0  2  0  0  0
  -20.6772  -26.9413   22.5408 C   0  0  0  0  0  0
  -19.5751  -26.6388   21.5206 C   0  0  0  0  0  0
  -18.1930  -26.7932   22.1619 C   0  0  0  0  0  0
  -19.1536  -28.8856   23.2878 C   0  0  0  0  0  0
  -18.9460  -30.1455   23.8898 C   0  0  0  0  0  0
  -17.6459  -30.6587   24.0565 C   0  0  0  0  0  0
  -25.9048  -34.9450   23.5105 C   0  0  0  0  0  0
  -16.5351  -29.9087   23.6326 C   0  0  0  0  0  0
  -16.7271  -28.6506   23.0345 C   0  0  0  0  0  0
  -26.4503  -31.6586   25.0722 C   0  0  0  0  0  0
  -25.3746  -31.3718   26.1456 C   0  0  0  0  0  0
  -27.0344  -30.3012   24.6169 C   0  0  0  0  0  0
  -27.6065  -32.4321   25.7492 C   0  0  0  0  0  0
  -27.5579  -37.1802   24.8463 C   0  0  0  0  0  0
  -21.4188  -29.3045   22.3679 N   0  0  0  0  0  0
  -26.4291  -37.3775   23.9408 N   0  0  0  0  0  0
  -24.6877  -31.0631   22.0969 N   0  0  0  0  0  0
  -23.4201  -28.8164   23.3007 O   0  0  0  0  0  0
  -28.3479  -26.4850   20.1544 O   0  0  0  0  0  0
  -26.5612  -34.8920   22.4668 O   0  0  0  0  0  0
  -23.5433  -32.1402   23.7359 O   0  0  0  0  0  0
  -29.3031  -19.2165   19.5140 C   0  0  0  0  0  0
  -30.6383  -17.9226   21.5997 C   0  0  0  0  0  0
  -29.2741  -17.7916   19.6160 C   0  0  0  0  0  0
  -29.9931  -20.0375   20.4441 C   0  0  0  0  0  0
  -29.9600  -17.1061   20.6595 C   0  0  0  0  0  0
  -30.6580  -19.3461   21.5011 C   0  0  0  0  0  0
  -28.4942  -17.0077   18.5754 C   0  0  0  0  0  0
  -30.1624  -21.5879   20.2020 C   0  0  0  0  0  0
  -29.3361  -24.0319   20.3161 C   0  0  0  0  0  0
  -28.1176  -25.0228   20.0979 C   0  0  0  0  0  0
  -29.8146  -15.6675   20.8563 N   0  0  0  0  0  0
  -29.0064  -22.5428   20.3976 N   0  3  0  0  0  0
  -31.5379  -20.2186   22.7067 Cl  0  0  0  0  0  0
  -31.4808  -12.5153   19.1400 H   0  0  0  0  0  0
  -30.3779  -11.3891   19.8797 H   0  0  0  0  0  0
  -29.7677  -11.7642   17.4677 H   0  0  0  0  0  0
  -29.6468  -13.4826   17.7460 H   0  0  0  0  0  0
  -27.8644  -11.2921   18.8568 H   0  0  0  0  0  0
  -27.3763  -12.5830   17.7912 H   0  0  0  0  0  0
  -27.6715  -14.2474   19.5252 H   0  0  0  0  0  0
  -28.7100  -12.0363   21.3667 H   0  0  0  0  0  0
  -28.4493  -13.6872   21.8473 H   0  0  0  0  0  0
  -25.2768   -9.5642   22.4745 H   0  0  0  0  0  0
  -23.9978   -7.4617   22.7476 H   0  0  0  0  0  0
  -21.0828   -8.8781   19.8955 H   0  0  0  0  0  0
  -22.3715  -10.9660   19.6153 H   0  0  0  0  0  0
  -21.2009   -7.6137   23.9716 H   0  0  0  0  0  0
  -21.1486   -6.0512   25.9080 H   0  0  0  0  0  0
  -22.0597   -2.7595   23.2861 H   0  0  0  0  0  0
  -22.4097  -11.9892   22.4804 H   0  0  0  0  0  0
  -21.1110  -13.1268   22.2610 H   0  0  0  0  0  0
  -24.6557  -15.8388   20.5335 H   0  0  0  0  0  0
  -26.2747  -15.6348   20.1000 H   0  0  0  0  0  0
  -26.7185  -32.5453   23.1108 H   0  0  0  0  0  0
  -25.0080  -33.9723   25.0428 H   0  0  0  0  0  0
  -22.7128  -31.3060   21.4049 H   0  0  0  0  0  0
  -23.3743  -35.9638   23.3303 H   0  0  0  0  0  0
  -24.3580  -36.8916   22.2053 H   0  0  0  0  0  0
  -23.7249  -37.6505   23.6658 H   0  0  0  0  0  0
  -26.0924  -31.5590   20.6052 H   0  0  0  0  0  0
  -26.8411  -30.8413   22.0012 H   0  0  0  0  0  0
  -28.1156  -28.9920   21.1791 H   0  0  0  0  0  0
  -25.9533  -25.9474   18.9858 H   0  0  0  0  0  0
  -23.9692  -27.3219   19.0005 H   0  0  0  0  0  0
  -23.7482  -30.6015   19.4047 H   0  0  0  0  0  0
  -22.7523  -29.2524   19.8577 H   0  0  0  0  0  0
  -25.1290  -36.1936   25.0821 H   0  0  0  0  0  0
  -20.9974  -28.3260   24.1406 H   0  0  0  0  0  0
  -20.5662  -26.2298   23.3604 H   0  0  0  0  0  0
  -21.6643  -26.7437   22.1210 H   0  0  0  0  0  0
  -19.6913  -25.6298   21.1235 H   0  0  0  0  0  0
  -19.6693  -27.3197   20.6735 H   0  0  0  0  0  0
  -17.4196  -26.6669   21.4025 H   0  0  0  0  0  0
  -18.0338  -26.0077   22.9020 H   0  0  0  0  0  0
  -19.7933  -30.7271   24.2272 H   0  0  0  0  0  0
  -17.5012  -31.6265   24.5169 H   0  0  0  0  0  0
  -15.5351  -30.2990   23.7653 H   0  0  0  0  0  0
  -15.8669  -28.0829   22.7059 H   0  0  0  0  0  0
  -24.5919  -30.7067   25.7790 H   0  0  0  0  0  0
  -24.8944  -32.2881   26.4897 H   0  0  0  0  0  0
  -25.8086  -30.8889   27.0220 H   0  0  0  0  0  0
  -26.2911  -29.6758   24.1210 H   0  0  0  0  0  0
  -27.4064  -29.7272   25.4667 H   0  0  0  0  0  0
  -27.8772  -30.4300   23.9375 H   0  0  0  0  0  0
  -27.2672  -33.3613   26.2081 H   0  0  0  0  0  0
  -28.3867  -32.6893   25.0316 H   0  0  0  0  0  0
  -28.0742  -31.8440   26.5399 H   0  0  0  0  0  0
  -28.2596  -38.0099   24.7501 H   0  0  0  0  0  0
  -28.1075  -36.2629   24.6294 H   0  0  0  0  0  0
  -27.2299  -37.1455   25.8868 H   0  0  0  0  0  0
  -20.9360  -29.8785   21.6910 H   0  0  0  0  0  0
  -26.0172  -38.2853   24.1403 H   0  0  0  0  0  0
  -28.8004  -19.6916   18.6831 H   0  0  0  0  0  0
  -31.1466  -17.4557   22.4310 H   0  0  0  0  0  0
  -28.2974  -17.6136   17.6905 H   0  0  0  0  0  0
  -27.5349  -16.6899   18.9816 H   0  0  0  0  0  0
  -29.0455  -16.1244   18.2521 H   0  0  0  0  0  0
  -30.5001  -21.7040   19.1716 H   0  0  0  0  0  0
  -30.9934  -21.9564   20.8007 H   0  0  0  0  0  0
  -29.8604  -24.3111   21.2306 H   0  0  0  0  0  0
  -30.0438  -24.1908   19.5019 H   0  0  0  0  0  0
  -27.3492  -24.7783   20.8330 H   0  0  0  0  0  0
  -27.7061  -24.7759   19.1195 H   0  0  0  0  0  0
  -28.8828  -15.3659   21.0946 H   0  0  0  0  0  0
  -28.5912  -22.3536   21.2963 H   0  0  0  0  0  0
  -28.3157  -22.3158   19.6999 H   0  0  0  0  0  0
  1 25  1  0  0  0
  1 30  2  0  0  0
  1 81  1  0  0  0
  2  3  1  0  0  0
  2 25  1  0  0  0
  2 84  1  0  0  0
  2 85  1  0  0  0
  3  4  1  0  0  0
  3 86  1  0  0  0
  3 87  1  0  0  0
  4  5  1  0  0  0
  4 88  1  0  0  0
  4 89  1  0  0  0
  5  6  1  0  0  0
  5 26  1  0  0  0
  5 90  1  0  0  0
  6 25  1  0  0  0
  6 91  1  0  0  0
  6 92  1  0  0  0
  7  8  2  0  0  0
  7 26  1  0  0  0
  7 29  1  0  0  0
  8  9  1  0  0  0
  8 22  1  0  0  0
  9 10  1  0  0  0
  9 27  2  0  0  0
 10 11  2  0  0  0
 10 15  1  0  0  0
 11 12  1  0  0  0
 11 93  1  0  0  0
 12 13  2  0  0  0
 12 94  1  0  0  0
 13 14  1  0  0  0
 13 31  1  0  0  0
 14 15  2  0  0  0
 14 95  1  0  0  0
 15 96  1  0  0  0
 16 17  2  0  0  0
 16 21  1  0  0  0
 16 31  1  0  0  0
 17 18  1  0  0  0
 17 97  1  0  0  0
 18 19  2  0  0  0
 18 98  1  0  0  0
 19 20  1  0  0  0
 19 24  1  0  0  0
 20 21  2  0  0  0
 20 99  1  0  0  0
 21 23  1  0  0  0
 22 28  1  0  0  0
 22 32  2  0  0  0
 26 27  1  0  0  0
 28100  1  0  0  0
 28101  1  0  0  0
 29102  1  0  0  0
 29103  1  0  0  0
 33 34  1  0  0  0
 33 66  1  0  0  0
 33 70  2  0  0  0
 34 36  1  0  0  0
 34 59  1  0  0  0
 34104  1  0  0  0
 35 44  2  0  0  0
 35 45  1  0  0  0
 35 68  1  0  0  0
 36 56  1  0  0  0
 36105  1  0  0  0
 37 39  1  0  0  0
 37 47  1  0  0  0
 37 66  1  0  0  0
 37106  1  0  0  0
 38 43  2  0  0  0
 38 46  1  0  0  0
 38 47  1  0  0  0
 39 64  1  0  0  0
 39 67  2  0  0  0
 40 52  1  0  0  0
 40 53  2  0  0  0
 40 58  1  0  0  0
 41107  1  0  0  0
 41108  1  0  0  0
 41109  1  0  0  0
 41 48  1  0  0  0
 42 43  1  0  0  0
 42 66  1  0  0  0
 42110  1  0  0  0
 42111  1  0  0  0
 43 44  1  0  0  0
 44112  1  0  0  0
 45 46  2  0  0  0
 45113  1  0  0  0
 46114  1  0  0  0
 47115  1  0  0  0
 47116  1  0  0  0
 48 56  1  0  0  0
 48 65  1  0  0  0
 48117  1  0  0  0
 49 50  1  0  0  0
 49 53  1  0  0  0
 49 64  1  0  0  0
 49118  1  0  0  0
 50 51  1  0  0  0
 50119  1  0  0  0
 50120  1  0  0  0
 51 52  1  0  0  0
 51121  1  0  0  0
 51122  1  0  0  0
 52123  1  0  0  0
 52124  1  0  0  0
 53 54  1  0  0  0
 54 55  2  0  0  0
 54125  1  0  0  0
 55 57  1  0  0  0
 55126  1  0  0  0
 56 69  2  0  0  0
 57 58  2  0  0  0
 57127  1  0  0  0
 58128  1  0  0  0
 59 60  1  0  0  0
 59 61  1  0  0  0
 59 62  1  0  0  0
 60129  1  0  0  0
 60130  1  0  0  0
 60131  1  0  0  0
 61132  1  0  0  0
 61133  1  0  0  0
 61134  1  0  0  0
 62135  1  0  0  0
 62136  1  0  0  0
 62137  1  0  0  0
 63 65  1  0  0  0
 63138  1  0  0  0
 63139  1  0  0  0
 63140  1  0  0  0
 64141  1  0  0  0
 65142  1  0  0  0
 68 80  1  0  0  0
 71 73  2  0  0  0
 71 74  1  0  0  0
 71143  1  0  0  0
 72 75  2  0  0  0
 72 76  1  0  0  0
 72144  1  0  0  0
 73 75  1  0  0  0
 73 77  1  0  0  0
 74 76  2  0  0  0
 74 78  1  0  0  0
 75 81  1  0  0  0
 76 83  1  0  0  0
 77145  1  0  0  0
 77146  1  0  0  0
 77147  1  0  0  0
 78 82  1  0  0  0
 78148  1  0  0  0
 78149  1  0  0  0
 79 80  1  0  0  0
 79 82  1  0  0  0
 79150  1  0  0  0
 79151  1  0  0  0
 80152  1  0  0  0
 80153  1  0  0  0
 81154  1  0  0  0
 82155  1  0  0  0
 82156  1  0  0  0
M  CHG  1  82   1
M  ISO  4   1 100  68 101  80 101  81 100
M  END
> <chiral flag>
0

> <version>
0

> <s_m_source_file>
/data/baiqing/PycharmProjects/Reinvent-master-3.2/result/LINK_invent/BTK/process_docking_weight1_custom_product_contain_oxygen_bond_distance_aromatic_linkinvent_7_9_3/rearranged_h_0037.sdf

> <i_m_source_file_index>
74

> <r_mmod_Potential_Energy-OPLS-2005>
-135.164184570312

> <r_mmod_Stretch_Energy-OPLS-2005>
75.1016235351562

> <r_mmod_Bend_Energy-OPLS-2005>
126.764350891113

> <r_mmod_Torsional_Energy-OPLS-2005>
233.653747558594

> <r_mmod_Improper_Torsional_Energy-OPLS-2005>
5.93656492233276

> <r_mmod_Van_der_Waal_Energy-OPLS-2005>
139.219604492188

> <r_mmod_Electrostatic_Energy-OPLS-2005>
-290.225952148438

> <r_mmod_Solvation_Energy-OPLS-2005>
-470.257629394531

> <b_mmod_Minimization_Converged-OPLS-2005>
0

> <r_mmod_RMS_Derivative-OPLS-2005>
1.03966426849365

$$$$
74
                    3D
 Structure written by MMmdl.
167176  0  0  1  0            999 V2000
  -30.6606  -14.5538   20.4636 C   0  0  0  0  0  0
  -30.4115  -12.3166   19.4618 C   0  0  0  0  0  0
  -29.4823  -12.4442   18.2342 C   0  0  0  0  0  0
  -28.0128  -12.2903   18.6630 C   0  0  0  0  0  0
  -27.6448  -13.2042   19.8631 C   0  0  2  0  0  0
  -28.6858  -13.0780   20.9975 C   0  0  0  0  0  0
  -25.2531  -13.8194   20.5742 C   0  0  0  0  0  0
  -24.1786  -13.0452   20.9212 C   0  0  0  0  0  0
  -24.6361  -11.6928   20.8827 C   0  0  0  0  0  0
  -23.9071  -10.4283   21.0519 C   0  0  0  0  0  0
  -24.3639   -9.4155   21.9258 C   0  0  0  0  0  0
  -23.6301   -8.2205   22.0816 C   0  0  0  0  0  0
  -22.4289   -8.0289   21.3592 C   0  0  0  0  0  0
  -21.9942   -9.0257   20.4674 C   0  0  0  0  0  0
  -22.7288  -10.2122   20.3098 C   0  0  0  0  0  0
  -21.6828   -6.0742   22.5288 C   0  0  0  0  0  0
  -21.4004   -6.5648   23.8220 C   0  0  0  0  0  0
  -21.3669   -5.6795   24.9191 C   0  0  0  0  0  0
  -21.6054   -4.3073   24.7222 C   0  0  0  0  0  0
  -21.8823   -3.8152   23.4335 C   0  0  0  0  0  0
  -21.9186   -4.6964   22.3395 C   0  0  0  0  0  0
  -22.7811  -13.5230   21.1849 C   0  0  0  0  0  0
  -22.1669   -4.2150   21.0981 F   0  0  0  0  0  0
  -21.5611   -3.4566   25.7740 F   0  0  0  0  0  0
  -30.0119  -13.3566   20.4259 N   0  0  0  0  0  0
  -26.2937  -12.9360   20.3393 N   0  0  0  0  0  0
  -25.9274  -11.6529   20.5869 N   0  0  0  0  0  0
  -22.0441  -12.8204   22.0381 N   0  0  0  0  0  0
  -25.4247  -15.1911   20.4150 N   0  0  0  0  0  0
  -31.8621  -14.6540   20.2077 O   0  0  0  0  0  0
  -21.6649   -6.8888   21.4264 O   0  0  0  0  0  0
  -22.3509  -14.5525   20.6688 O   0  0  0  0  0  0
  -24.6172  -31.8691   23.2128 C   0  0  0  0  0  0
  -25.9055  -32.4833   23.8425 C   0  0  1  0  0  0
  -27.2227  -27.4062   20.0805 C   0  0  0  0  0  0
  -25.5906  -33.8630   24.2341 N   0  0  0  0  0  0
  -23.4032  -30.4975   21.5541 C   0  0  2  0  0  0
  -24.8468  -28.9667   20.1124 C   0  0  0  0  0  0
  -22.7429  -29.4675   22.4990 C   0  0  0  0  0  0
  -18.0263  -28.1373   22.8509 C   0  0  0  0  0  0
  -24.1462  -36.7296   23.2647 C   0  0  0  0  0  0
  -25.9399  -30.8237   21.3739 C   0  0  0  0  0  0
  -26.0115  -29.4583   20.7161 C   0  0  0  0  0  0
  -27.1999  -28.6811   20.7029 C   0  0  0  0  0  0
  -26.0333  -26.9489   19.4688 C   0  0  0  0  0  0
  -24.8549  -27.7109   19.4885 C   0  0  0  0  0  0
  -23.6132  -29.8405   20.1655 C   0  0  0  0  0  0
  -25.4099  -36.3121   24.0340 C   0  0  1  0  0  0
  -20.5862  -28.3677   23.1316 C   0  0  2  0  0  0
  -20.6753  -26.9420   22.5413 C   0  0  0  0  0  0
  -19.5724  -26.6396   21.5217 C   0  0  0  0  0  0
  -18.1902  -26.7919   22.1631 C   0  0  0  0  0  0
  -19.1517  -28.8833   23.2906 C   0  0  0  0  0  0
  -18.9450  -30.1448   23.8911 C   0  0  0  0  0  0
  -17.6454  -30.6587   24.0582 C   0  0  0  0  0  0
  -25.9054  -34.9486   23.5145 C   0  0  0  0  0  0
  -16.5345  -29.9108   23.6311 C   0  0  0  0  0  0
  -16.7254  -28.6517   23.0363 C   0  0  0  0  0  0
  -26.4478  -31.6601   25.0741 C   0  0  0  0  0  0
  -25.3735  -31.3666   26.1469 C   0  0  0  0  0  0
  -27.0352  -30.3057   24.6123 C   0  0  0  0  0  0
  -27.6023  -32.4338   25.7533 C   0  0  0  0  0  0
  -27.5567  -37.1817   24.8471 C   0  0  0  0  0  0
  -21.4154  -29.3054   22.3731 N   0  0  0  0  0  0
  -26.4274  -37.3823   23.9430 N   0  0  0  0  0  0
  -24.6709  -31.0779   22.1047 N   0  0  0  0  0  0
  -23.4191  -28.8204   23.3023 O   0  0  0  0  0  0
  -28.3835  -26.6422   20.1019 O   0  0  0  0  0  0
  -26.5628  -34.8946   22.4717 O   0  0  0  0  0  0
  -23.5350  -32.1472   23.7503 O   0  0  0  0  0  0
  -30.9697  -18.6132   18.4698 C   0  0  0  0  0  0
  -30.7080  -17.2865   18.8444 C   0  0  0  0  0  0
  -29.5184  -18.1241   20.8187 C   0  0  0  0  0  0
  -29.7526  -19.4839   20.3969 C   0  0  0  0  0  0
  -30.0585  -17.0069   20.0872 C   0  0  0  0  0  0
  -30.5392  -19.6975   19.2412 C   0  0  0  0  0  0
  -28.6712  -23.1139   20.5592 C   0  0  0  0  0  0
  -26.3852  -22.1574   19.0505 C   0  0  0  0  0  0
  -27.0782  -23.4361   18.5849 C   0  0  0  0  0  0
  -27.4455  -21.1677   19.5413 C   0  0  0  0  0  0
  -27.7800  -24.1330   19.7692 C   0  0  2  0  0  0
  -31.1061  -16.2336   17.8205 C   0  0  0  0  0  0
  -28.6843  -17.8660   22.0713 C   0  0  0  0  0  0
  -29.2398  -20.7281   21.1851 C   0  0  0  0  0  0
  -28.4897  -25.4518   19.2789 C   0  0  0  0  0  0
  -28.4598  -21.7594   20.4331 N   0  0  0  0  0  0
  -29.8562  -15.6490   20.5652 N   0  0  0  0  0  0
  -29.5307  -23.5661   21.3208 O   0  0  0  0  0  0
  -30.9958  -21.2785   18.7036 Cl  0  0  0  0  0  0
  -31.4557  -12.3964   19.1588 H   0  0  0  0  0  0
  -30.3011  -11.3320   19.9209 H   0  0  0  0  0  0
  -29.7303  -11.6896   17.4898 H   0  0  0  0  0  0
  -29.6124  -13.4049   17.7422 H   0  0  0  0  0  0
  -27.8758  -11.2483   18.9542 H   0  0  0  0  0  0
  -27.3401  -12.4531   17.8222 H   0  0  0  0  0  0
  -27.6615  -14.2290   19.4956 H   0  0  0  0  0  0
  -28.6596  -12.0722   21.4230 H   0  0  0  0  0  0
  -28.4535  -13.7610   21.8151 H   0  0  0  0  0  0
  -25.2794   -9.5583   22.4817 H   0  0  0  0  0  0
  -23.9968   -7.4592   22.7542 H   0  0  0  0  0  0
  -21.0879   -8.8810   19.8950 H   0  0  0  0  0  0
  -22.3830  -10.9684   19.6184 H   0  0  0  0  0  0
  -21.2007   -7.6163   23.9714 H   0  0  0  0  0  0
  -21.1507   -6.0557   25.9097 H   0  0  0  0  0  0
  -22.0584   -2.7609   23.2858 H   0  0  0  0  0  0
  -22.4103  -11.9853   22.4720 H   0  0  0  0  0  0
  -21.1053  -13.1214   22.2616 H   0  0  0  0  0  0
  -24.6498  -15.8405   20.4919 H   0  0  0  0  0  0
  -26.2696  -15.6224   20.0641 H   0  0  0  0  0  0
  -26.7116  -32.5538   23.1187 H   0  0  0  0  0  0
  -24.9997  -33.9804   25.0435 H   0  0  0  0  0  0
  -22.6920  -31.3143   21.4203 H   0  0  0  0  0  0
  -23.3758  -35.9589   23.3290 H   0  0  0  0  0  0
  -24.3543  -36.8945   22.2063 H   0  0  0  0  0  0
  -23.7160  -37.6470   23.6677 H   0  0  0  0  0  0
  -26.0571  -31.5903   20.6062 H   0  0  0  0  0  0
  -26.8258  -30.8753   21.9934 H   0  0  0  0  0  0
  -28.0998  -29.0573   21.1715 H   0  0  0  0  0  0
  -25.9803  -25.9959   18.9756 H   0  0  0  0  0  0
  -23.9603  -27.3282   19.0169 H   0  0  0  0  0  0
  -23.7343  -30.6230   19.4166 H   0  0  0  0  0  0
  -22.7309  -29.2745   19.8568 H   0  0  0  0  0  0
  -25.1259  -36.2000   25.0832 H   0  0  0  0  0  0
  -20.9953  -28.3242   24.1436 H   0  0  0  0  0  0
  -20.5673  -26.2298   23.3612 H   0  0  0  0  0  0
  -21.6625  -26.7468   22.1203 H   0  0  0  0  0  0
  -19.6908  -25.6319   21.1215 H   0  0  0  0  0  0
  -19.6628  -27.3232   20.6766 H   0  0  0  0  0  0
  -17.4182  -26.6691   21.4026 H   0  0  0  0  0  0
  -18.0298  -26.0029   22.8997 H   0  0  0  0  0  0
  -19.7932  -30.7260   24.2291 H   0  0  0  0  0  0
  -17.5018  -31.6266   24.5201 H   0  0  0  0  0  0
  -15.5363  -30.3047   23.7599 H   0  0  0  0  0  0
  -15.8646  -28.0852   22.7075 H   0  0  0  0  0  0
  -24.5896  -30.7050   25.7771 H   0  0  0  0  0  0
  -24.8935  -32.2802   26.4984 H   0  0  0  0  0  0
  -25.8067  -30.8761   27.0197 H   0  0  0  0  0  0
  -26.2929  -29.6808   24.1141 H   0  0  0  0  0  0
  -27.4113  -29.7294   25.4592 H   0  0  0  0  0  0
  -27.8757  -30.4415   23.9309 H   0  0  0  0  0  0
  -27.2622  -33.3653   26.2084 H   0  0  0  0  0  0
  -28.3861  -32.6889   25.0379 H   0  0  0  0  0  0
  -28.0660  -31.8473   26.5484 H   0  0  0  0  0  0
  -28.2572  -38.0129   24.7574 H   0  0  0  0  0  0
  -28.1069  -36.2667   24.6229 H   0  0  0  0  0  0
  -27.2284  -37.1404   25.8871 H   0  0  0  0  0  0
  -20.9320  -29.8820   21.6982 H   0  0  0  0  0  0
  -26.0153  -38.2890   24.1458 H   0  0  0  0  0  0
  -31.5066  -18.8156   17.5526 H   0  0  0  0  0  0
  -25.8122  -21.7164   18.2343 H   0  0  0  0  0  0
  -25.6732  -22.3834   19.8463 H   0  0  0  0  0  0
  -26.3472  -24.0858   18.1078 H   0  0  0  0  0  0
  -27.8092  -23.1988   17.8111 H   0  0  0  0  0  0
  -27.9596  -20.7504   18.6745 H   0  0  0  0  0  0
  -26.9550  -20.3303   20.0416 H   0  0  0  0  0  0
  -27.0048  -24.4333   20.4726 H   0  0  0  0  0  0
  -32.1456  -15.9304   17.9418 H   0  0  0  0  0  0
  -30.9899  -16.6245   16.8081 H   0  0  0  0  0  0
  -30.4693  -15.3590   17.8723 H   0  0  0  0  0  0
  -29.2326  -18.1811   22.9575 H   0  0  0  0  0  0
  -28.3987  -16.8241   22.2067 H   0  0  0  0  0  0
  -27.7471  -18.4187   22.0338 H   0  0  0  0  0  0
  -30.1261  -21.1797   21.6319 H   0  0  0  0  0  0
  -28.6274  -20.4386   22.0356 H   0  0  0  0  0  0
  -28.1427  -25.7092   18.2766 H   0  0  0  0  0  0
  -29.5526  -25.2569   19.1337 H   0  0  0  0  0  0
  -28.9485  -15.4590   20.9615 H   0  0  0  0  0  0
  1 25  1  0  0  0
  1 30  2  0  0  0
  1 87  1  0  0  0
  2  3  1  0  0  0
  2 25  1  0  0  0
  2 90  1  0  0  0
  2 91  1  0  0  0
  3  4  1  0  0  0
  3 92  1  0  0  0
  3 93  1  0  0  0
  4  5  1  0  0  0
  4 94  1  0  0  0
  4 95  1  0  0  0
  5  6  1  0  0  0
  5 26  1  0  0  0
  5 96  1  0  0  0
  6 25  1  0  0  0
  6 97  1  0  0  0
  6 98  1  0  0  0
  7  8  2  0  0  0
  7 26  1  0  0  0
  7 29  1  0  0  0
  8  9  1  0  0  0
  8 22  1  0  0  0
  9 10  1  0  0  0
  9 27  2  0  0  0
 10 11  2  0  0  0
 10 15  1  0  0  0
 11 12  1  0  0  0
 11 99  1  0  0  0
 12 13  2  0  0  0
 12100  1  0  0  0
 13 14  1  0  0  0
 13 31  1  0  0  0
 14 15  2  0  0  0
 14101  1  0  0  0
 15102  1  0  0  0
 16 17  2  0  0  0
 16 21  1  0  0  0
 16 31  1  0  0  0
 17 18  1  0  0  0
 17103  1  0  0  0
 18 19  2  0  0  0
 18104  1  0  0  0
 19 20  1  0  0  0
 19 24  1  0  0  0
 20 21  2  0  0  0
 20105  1  0  0  0
 21 23  1  0  0  0
 22 28  1  0  0  0
 22 32  2  0  0  0
 26 27  1  0  0  0
 28106  1  0  0  0
 28107  1  0  0  0
 29108  1  0  0  0
 29109  1  0  0  0
 33 34  1  0  0  0
 33 66  1  0  0  0
 33 70  2  0  0  0
 34 36  1  0  0  0
 34 59  1  0  0  0
 34110  1  0  0  0
 35 44  2  0  0  0
 35 45  1  0  0  0
 35 68  1  0  0  0
 36 56  1  0  0  0
 36111  1  0  0  0
 37 39  1  0  0  0
 37 47  1  0  0  0
 37 66  1  0  0  0
 37112  1  0  0  0
 38 43  2  0  0  0
 38 46  1  0  0  0
 38 47  1  0  0  0
 39 64  1  0  0  0
 39 67  2  0  0  0
 40 52  1  0  0  0
 40 53  2  0  0  0
 40 58  1  0  0  0
 41113  1  0  0  0
 41114  1  0  0  0
 41115  1  0  0  0
 41 48  1  0  0  0
 42 43  1  0  0  0
 42 66  1  0  0  0
 42116  1  0  0  0
 42117  1  0  0  0
 43 44  1  0  0  0
 44118  1  0  0  0
 45 46  2  0  0  0
 45119  1  0  0  0
 46120  1  0  0  0
 47121  1  0  0  0
 47122  1  0  0  0
 48 56  1  0  0  0
 48 65  1  0  0  0
 48123  1  0  0  0
 49 50  1  0  0  0
 49 53  1  0  0  0
 49 64  1  0  0  0
 49124  1  0  0  0
 50 51  1  0  0  0
 50125  1  0  0  0
 50126  1  0  0  0
 51 52  1  0  0  0
 51127  1  0  0  0
 51128  1  0  0  0
 52129  1  0  0  0
 52130  1  0  0  0
 53 54  1  0  0  0
 54 55  2  0  0  0
 54131  1  0  0  0
 55 57  1  0  0  0
 55132  1  0  0  0
 56 69  2  0  0  0
 57 58  2  0  0  0
 57133  1  0  0  0
 58134  1  0  0  0
 59 60  1  0  0  0
 59 61  1  0  0  0
 59 62  1  0  0  0
 60135  1  0  0  0
 60136  1  0  0  0
 60137  1  0  0  0
 61138  1  0  0  0
 61139  1  0  0  0
 61140  1  0  0  0
 62141  1  0  0  0
 62142  1  0  0  0
 62143  1  0  0  0
 63 65  1  0  0  0
 63144  1  0  0  0
 63145  1  0  0  0
 63146  1  0  0  0
 64147  1  0  0  0
 65148  1  0  0  0
 68 85  1  0  0  0
 71 72  2  0  0  0
 71 76  1  0  0  0
 71149  1  0  0  0
 72 75  1  0  0  0
 72 82  1  0  0  0
 73 74  1  0  0  0
 73 75  2  0  0  0
 73 83  1  0  0  0
 74 76  2  0  0  0
 74 84  1  0  0  0
 75 87  1  0  0  0
 76 89  1  0  0  0
 77 81  1  0  0  0
 77 86  1  0  0  0
 77 88  2  0  0  0
 78 79  1  0  0  0
 78 80  1  0  0  0
 78150  1  0  0  0
 78151  1  0  0  0
 79 81  1  0  0  0
 79152  1  0  0  0
 79153  1  0  0  0
 80 86  1  0  0  0
 80154  1  0  0  0
 80155  1  0  0  0
 81 85  1  0  0  0
 81156  1  0  0  0
 82157  1  0  0  0
 82158  1  0  0  0
 82159  1  0  0  0
 83160  1  0  0  0
 83161  1  0  0  0
 83162  1  0  0  0
 84 86  1  0  0  0
 84163  1  0  0  0
 84164  1  0  0  0
 85165  1  0  0  0
 85166  1  0  0  0
 87167  1  0  0  0
M  ISO  4   1 100  68 101  85 101  87 100
M  END
> <chiral flag>
0

> <version>
0

> <s_m_source_file>
/data/baiqing/PycharmProjects/Reinvent-master-3.2/result/LINK_invent/BTK/process_docking_weight1_custom_product_contain_oxygen_bond_distance_aromatic_linkinvent_7_9_3/rearranged_h_0037.sdf

> <i_m_source_file_index>
75

> <r_mmod_Potential_Energy-OPLS-2005>
40.7258186340332

> <r_mmod_Stretch_Energy-OPLS-2005>
64.741096496582

> <r_mmod_Bend_Energy-OPLS-2005>
128.394943237305

> <r_mmod_Torsional_Energy-OPLS-2005>
249.662734985352

> <r_mmod_Improper_Torsional_Energy-OPLS-2005>
6.07355260848999

> <r_mmod_Van_der_Waal_Energy-OPLS-2005>
173.897094726562

> <r_mmod_Electrostatic_Energy-OPLS-2005>
-382.154571533203

> <r_mmod_Solvation_Energy-OPLS-2005>
-229.877319335938

> <b_mmod_Minimization_Converged-OPLS-2005>
0

> <r_mmod_RMS_Derivative-OPLS-2005>
4.42413187026978

$$$$
75
                    3D
 Structure written by MMmdl.
158166  0  0  1  0            999 V2000
  -30.6977  -14.4730   20.5154 C   0  0  0  0  0  0
  -30.4167  -12.2875   19.4400 C   0  0  0  0  0  0
  -29.4988  -12.4848   18.2155 C   0  0  0  0  0  0
  -28.0174  -12.3544   18.6224 C   0  0  0  0  0  0
  -27.6584  -13.2066   19.8701 C   0  0  2  0  0  0
  -28.6992  -13.0129   20.9981 C   0  0  0  0  0  0
  -25.2576  -13.8166   20.5683 C   0  0  0  0  0  0
  -24.1828  -13.0439   20.9184 C   0  0  0  0  0  0
  -24.6375  -11.6904   20.8726 C   0  0  0  0  0  0
  -23.9040  -10.4293   21.0405 C   0  0  0  0  0  0
  -24.3601   -9.4207   21.9180 C   0  0  0  0  0  0
  -23.6285   -8.2242   22.0750 C   0  0  0  0  0  0
  -22.4267   -8.0277   21.3543 C   0  0  0  0  0  0
  -21.9894   -9.0250   20.4644 C   0  0  0  0  0  0
  -22.7213  -10.2132   20.3053 C   0  0  0  0  0  0
  -21.6853   -6.0726   22.5274 C   0  0  0  0  0  0
  -21.4017   -6.5631   23.8204 C   0  0  0  0  0  0
  -21.3664   -5.6786   24.9169 C   0  0  0  0  0  0
  -21.6051   -4.3051   24.7217 C   0  0  0  0  0  0
  -21.8820   -3.8139   23.4338 C   0  0  0  0  0  0
  -21.9198   -4.6957   22.3395 C   0  0  0  0  0  0
  -22.7845  -13.5239   21.1837 C   0  0  0  0  0  0
  -22.1663   -4.2141   21.0970 F   0  0  0  0  0  0
  -21.5628   -3.4530   25.7729 F   0  0  0  0  0  0
  -30.0323  -13.2913   20.4429 N   0  0  0  0  0  0
  -26.3001  -12.9332   20.3344 N   0  0  0  0  0  0
  -25.9303  -11.6491   20.5754 N   0  0  0  0  0  0
  -22.0488  -12.8253   22.0406 N   0  0  0  0  0  0
  -25.4287  -15.1885   20.4090 N   0  0  0  0  0  0
  -31.8535  -14.6154   20.1087 O   0  0  0  0  0  0
  -21.6636   -6.8873   21.4237 O   0  0  0  0  0  0
  -22.3539  -14.5548   20.6678 O   0  0  0  0  0  0
  -24.6118  -31.8689   23.2097 C   0  0  0  0  0  0
  -25.9017  -32.4826   23.8393 C   0  0  1  0  0  0
  -27.2360  -27.4508   20.1015 C   0  0  0  0  0  0
  -25.5884  -33.8624   24.2329 N   0  0  0  0  0  0
  -23.4005  -30.4905   21.5491 C   0  0  2  0  0  0
  -24.8493  -28.9552   20.1151 C   0  0  0  0  0  0
  -22.7403  -29.4651   22.4994 C   0  0  0  0  0  0
  -18.0274  -28.1375   22.8492 C   0  0  0  0  0  0
  -24.1483  -36.7322   23.2639 C   0  0  0  0  0  0
  -25.9259  -30.8399   21.3581 C   0  0  0  0  0  0
  -26.0068  -29.4735   20.7100 C   0  0  0  0  0  0
  -27.2069  -28.7295   20.6973 C   0  0  0  0  0  0
  -26.0666  -26.9381   19.5047 C   0  0  0  0  0  0
  -24.8736  -27.6870   19.5068 C   0  0  0  0  0  0
  -23.6092  -29.8193   20.1639 C   0  0  0  0  0  0
  -25.4101  -36.3122   24.0344 C   0  0  1  0  0  0
  -20.5854  -28.3660   23.1333 C   0  0  2  0  0  0
  -20.6760  -26.9394   22.5435 C   0  0  0  0  0  0
  -19.5756  -26.6379   21.5212 C   0  0  0  0  0  0
  -18.1930  -26.7924   22.1621 C   0  0  0  0  0  0
  -19.1517  -28.8838   23.2909 C   0  0  0  0  0  0
  -18.9439  -30.1440   23.8920 C   0  0  0  0  0  0
  -17.6441  -30.6583   24.0567 C   0  0  0  0  0  0
  -25.9025  -34.9482   23.5138 C   0  0  0  0  0  0
  -16.5336  -29.9082   23.6318 C   0  0  0  0  0  0
  -16.7260  -28.6499   23.0342 C   0  0  0  0  0  0
  -26.4464  -31.6591   25.0702 C   0  0  0  0  0  0
  -25.3740  -31.3695   26.1458 C   0  0  0  0  0  0
  -27.0278  -30.3038   24.6045 C   0  0  0  0  0  0
  -27.6056  -32.4292   25.7458 C   0  0  0  0  0  0
  -27.5584  -37.1819   24.8471 C   0  0  0  0  0  0
  -21.4129  -29.3031   22.3739 N   0  0  0  0  0  0
  -26.4298  -37.3797   23.9411 N   0  0  0  0  0  0
  -24.6644  -31.0797   22.0986 N   0  0  0  0  0  0
  -23.4177  -28.8204   23.3043 O   0  0  0  0  0  0
  -28.3922  -26.7081   20.0960 O   0  0  0  0  0  0
  -26.5587  -34.8935   22.4697 O   0  0  0  0  0  0
  -23.5317  -32.1424   23.7506 O   0  0  0  0  0  0
  -28.7869  -19.1222   22.9874 C   0  0  0  0  0  0
  -29.2605  -17.9964   22.2918 C   0  0  0  0  0  0
  -28.6911  -20.3672   22.3413 C   0  0  0  0  0  0
  -29.6517  -18.1024   20.9397 C   0  0  0  0  0  0
  -29.5657  -19.3713   20.2875 C   0  0  0  0  0  0
  -29.0730  -20.5106   20.9876 C   0  0  0  0  0  0
  -29.9915  -19.5166   18.8258 C   0  0  0  0  0  0
  -30.2073  -16.8725   20.2073 C   0  0  0  0  0  0
  -28.6564  -24.2452   20.1399 C   0  0  0  0  0  0
  -28.6405  -22.9913   21.0453 C   0  0  0  0  0  0
  -28.3452  -25.5382   20.9242 C   0  0  0  0  0  0
  -28.9699  -21.7555   20.3304 N   0  0  0  0  0  0
  -29.9326  -15.5469   20.7859 N   0  0  0  0  0  0
  -31.4646  -12.3668   19.1455 H   0  0  0  0  0  0
  -30.2986  -11.2847   19.8527 H   0  0  0  0  0  0
  -29.7385  -11.7508   17.4449 H   0  0  0  0  0  0
  -29.6758  -13.4658   17.7719 H   0  0  0  0  0  0
  -27.8284  -11.2999   18.8295 H   0  0  0  0  0  0
  -27.3697  -12.6187   17.7849 H   0  0  0  0  0  0
  -27.6932  -14.2485   19.5532 H   0  0  0  0  0  0
  -28.6662  -11.9900   21.3766 H   0  0  0  0  0  0
  -28.4738  -13.6525   21.8526 H   0  0  0  0  0  0
  -25.2747   -9.5691   22.4738 H   0  0  0  0  0  0
  -23.9998   -7.4638   22.7471 H   0  0  0  0  0  0
  -21.0822   -8.8769   19.8951 H   0  0  0  0  0  0
  -22.3677  -10.9667   19.6156 H   0  0  0  0  0  0
  -21.2008   -7.6136   23.9709 H   0  0  0  0  0  0
  -21.1487   -6.0509   25.9074 H   0  0  0  0  0  0
  -22.0598   -2.7598   23.2835 H   0  0  0  0  0  0
  -22.4102  -11.9924   22.4814 H   0  0  0  0  0  0
  -21.1102  -13.1288   22.2591 H   0  0  0  0  0  0
  -24.6595  -15.8410   20.5174 H   0  0  0  0  0  0
  -26.2782  -15.6308   20.0805 H   0  0  0  0  0  0
  -26.7093  -32.5560   23.1172 H   0  0  0  0  0  0
  -25.0049  -33.9784   25.0486 H   0  0  0  0  0  0
  -22.6867  -31.3053   21.4099 H   0  0  0  0  0  0
  -23.3737  -35.9666   23.3309 H   0  0  0  0  0  0
  -24.3581  -36.8910   22.2052 H   0  0  0  0  0  0
  -23.7236  -37.6539   23.6628 H   0  0  0  0  0  0
  -26.0289  -31.6021   20.5849 H   0  0  0  0  0  0
  -26.8165  -30.8996   21.9711 H   0  0  0  0  0  0
  -28.1028  -29.1258   21.1540 H   0  0  0  0  0  0
  -26.0810  -25.9629   19.0392 H   0  0  0  0  0  0
  -23.9857  -27.2804   19.0428 H   0  0  0  0  0  0
  -23.7167  -30.5915   19.4011 H   0  0  0  0  0  0
  -22.7352  -29.2351   19.8707 H   0  0  0  0  0  0
  -25.1274  -36.2003   25.0837 H   0  0  0  0  0  0
  -20.9947  -28.3227   24.1455 H   0  0  0  0  0  0
  -20.5649  -26.2276   23.3625 H   0  0  0  0  0  0
  -21.6642  -26.7438   22.1251 H   0  0  0  0  0  0
  -19.6907  -25.6292   21.1240 H   0  0  0  0  0  0
  -19.6697  -27.3196   20.6749 H   0  0  0  0  0  0
  -17.4210  -26.6686   21.4010 H   0  0  0  0  0  0
  -18.0321  -26.0051   22.9003 H   0  0  0  0  0  0
  -19.7915  -30.7247   24.2300 H   0  0  0  0  0  0
  -17.4996  -31.6262   24.5178 H   0  0  0  0  0  0
  -15.5339  -30.2992   23.7622 H   0  0  0  0  0  0
  -15.8662  -28.0822   22.7031 H   0  0  0  0  0  0
  -24.5923  -30.7026   25.7806 H   0  0  0  0  0  0
  -24.8916  -32.2847   26.4908 H   0  0  0  0  0  0
  -25.8098  -30.8879   27.0219 H   0  0  0  0  0  0
  -26.2799  -29.6819   24.1108 H   0  0  0  0  0  0
  -27.4077  -29.7262   25.4485 H   0  0  0  0  0  0
  -27.8626  -30.4371   23.9152 H   0  0  0  0  0  0
  -27.2689  -33.3583   26.2079 H   0  0  0  0  0  0
  -28.3841  -32.6860   25.0255 H   0  0  0  0  0  0
  -28.0747  -31.8376   26.5338 H   0  0  0  0  0  0
  -28.2630  -38.0092   24.7501 H   0  0  0  0  0  0
  -28.1053  -36.2631   24.6310 H   0  0  0  0  0  0
  -27.2310  -37.1481   25.8877 H   0  0  0  0  0  0
  -20.9278  -29.8787   21.6995 H   0  0  0  0  0  0
  -26.0198  -38.2888   24.1385 H   0  0  0  0  0  0
  -28.4959  -19.0312   24.0244 H   0  0  0  0  0  0
  -29.3362  -17.0538   22.8152 H   0  0  0  0  0  0
  -28.3189  -21.2050   22.9118 H   0  0  0  0  0  0
  -30.7664  -18.8067   18.5404 H   0  0  0  0  0  0
  -30.4087  -20.5006   18.6148 H   0  0  0  0  0  0
  -29.1321  -19.3618   18.1726 H   0  0  0  0  0  0
  -31.2822  -17.0302   20.0993 H   0  0  0  0  0  0
  -29.7964  -16.8432   19.1962 H   0  0  0  0  0  0
  -27.9289  -24.1296   19.3357 H   0  0  0  0  0  0
  -29.6338  -24.3473   19.6660 H   0  0  0  0  0  0
  -27.6505  -22.8901   21.4937 H   0  0  0  0  0  0
  -29.3459  -23.1297   21.8667 H   0  0  0  0  0  0
  -29.0838  -25.6690   21.7158 H   0  0  0  0  0  0
  -27.3838  -25.4322   21.4318 H   0  0  0  0  0  0
  -29.2686  -21.8217   19.3615 H   0  0  0  0  0  0
  -28.9933  -15.3689   21.1043 H   0  0  0  0  0  0
  1 25  1  0  0  0
  1 30  2  0  0  0
  1 83  1  0  0  0
  2  3  1  0  0  0
  2 25  1  0  0  0
  2 84  1  0  0  0
  2 85  1  0  0  0
  3  4  1  0  0  0
  3 86  1  0  0  0
  3 87  1  0  0  0
  4  5  1  0  0  0
  4 88  1  0  0  0
  4 89  1  0  0  0
  5  6  1  0  0  0
  5 26  1  0  0  0
  5 90  1  0  0  0
  6 25  1  0  0  0
  6 91  1  0  0  0
  6 92  1  0  0  0
  7  8  2  0  0  0
  7 26  1  0  0  0
  7 29  1  0  0  0
  8  9  1  0  0  0
  8 22  1  0  0  0
  9 10  1  0  0  0
  9 27  2  0  0  0
 10 11  2  0  0  0
 10 15  1  0  0  0
 11 12  1  0  0  0
 11 93  1  0  0  0
 12 13  2  0  0  0
 12 94  1  0  0  0
 13 14  1  0  0  0
 13 31  1  0  0  0
 14 15  2  0  0  0
 14 95  1  0  0  0
 15 96  1  0  0  0
 16 17  2  0  0  0
 16 21  1  0  0  0
 16 31  1  0  0  0
 17 18  1  0  0  0
 17 97  1  0  0  0
 18 19  2  0  0  0
 18 98  1  0  0  0
 19 20  1  0  0  0
 19 24  1  0  0  0
 20 21  2  0  0  0
 20 99  1  0  0  0
 21 23  1  0  0  0
 22 28  1  0  0  0
 22 32  2  0  0  0
 26 27  1  0  0  0
 28100  1  0  0  0
 28101  1  0  0  0
 29102  1  0  0  0
 29103  1  0  0  0
 33 34  1  0  0  0
 33 66  1  0  0  0
 33 70  2  0  0  0
 34 36  1  0  0  0
 34 59  1  0  0  0
 34104  1  0  0  0
 35 44  2  0  0  0
 35 45  1  0  0  0
 35 68  1  0  0  0
 36 56  1  0  0  0
 36105  1  0  0  0
 37 39  1  0  0  0
 37 47  1  0  0  0
 37 66  1  0  0  0
 37106  1  0  0  0
 38 43  2  0  0  0
 38 46  1  0  0  0
 38 47  1  0  0  0
 39 64  1  0  0  0
 39 67  2  0  0  0
 40 52  1  0  0  0
 40 53  2  0  0  0
 40 58  1  0  0  0
 41107  1  0  0  0
 41108  1  0  0  0
 41109  1  0  0  0
 41 48  1  0  0  0
 42 43  1  0  0  0
 42 66  1  0  0  0
 42110  1  0  0  0
 42111  1  0  0  0
 43 44  1  0  0  0
 44112  1  0  0  0
 45 46  2  0  0  0
 45113  1  0  0  0
 46114  1  0  0  0
 47115  1  0  0  0
 47116  1  0  0  0
 48 56  1  0  0  0
 48 65  1  0  0  0
 48117  1  0  0  0
 49 50  1  0  0  0
 49 53  1  0  0  0
 49 64  1  0  0  0
 49118  1  0  0  0
 50 51  1  0  0  0
 50119  1  0  0  0
 50120  1  0  0  0
 51 52  1  0  0  0
 51121  1  0  0  0
 51122  1  0  0  0
 52123  1  0  0  0
 52124  1  0  0  0
 53 54  1  0  0  0
 54 55  2  0  0  0
 54125  1  0  0  0
 55 57  1  0  0  0
 55126  1  0  0  0
 56 69  2  0  0  0
 57 58  2  0  0  0
 57127  1  0  0  0
 58128  1  0  0  0
 59 60  1  0  0  0
 59 61  1  0  0  0
 59 62  1  0  0  0
 60129  1  0  0  0
 60130  1  0  0  0
 60131  1  0  0  0
 61132  1  0  0  0
 61133  1  0  0  0
 61134  1  0  0  0
 62135  1  0  0  0
 62136  1  0  0  0
 62137  1  0  0  0
 63 65  1  0  0  0
 63138  1  0  0  0
 63139  1  0  0  0
 63140  1  0  0  0
 64141  1  0  0  0
 65142  1  0  0  0
 68 81  1  0  0  0
 71 72  2  0  0  0
 71 73  1  0  0  0
 71143  1  0  0  0
 72 74  1  0  0  0
 72144  1  0  0  0
 73 76  2  0  0  0
 73145  1  0  0  0
 74 75  2  0  0  0
 74 78  1  0  0  0
 75 76  1  0  0  0
 75 77  1  0  0  0
 76 82  1  0  0  0
 77146  1  0  0  0
 77147  1  0  0  0
 77148  1  0  0  0
 78 83  1  0  0  0
 78149  1  0  0  0
 78150  1  0  0  0
 79 80  1  0  0  0
 79 81  1  0  0  0
 79151  1  0  0  0
 79152  1  0  0  0
 80 82  1  0  0  0
 80153  1  0  0  0
 80154  1  0  0  0
 81155  1  0  0  0
 81156  1  0  0  0
 82157  1  0  0  0
 83158  1  0  0  0
M  ISO  4   1 100  68 101  81 101  83 100
M  END
> <chiral flag>
0

> <version>
0

> <s_m_source_file>
/data/baiqing/PycharmProjects/Reinvent-master-3.2/result/LINK_invent/BTK/process_docking_weight1_custom_product_contain_oxygen_bond_distance_aromatic_linkinvent_7_9_3/rearranged_h_0037.sdf

> <i_m_source_file_index>
76

> <r_mmod_Potential_Energy-OPLS-2005>
-116.131713867188

> <r_mmod_Stretch_Energy-OPLS-2005>
37.4052238464355

> <r_mmod_Bend_Energy-OPLS-2005>
98.4757766723633

> <r_mmod_Torsional_Energy-OPLS-2005>
218.375106811523

> <r_mmod_Improper_Torsional_Energy-OPLS-2005>
8.4139289855957

> <r_mmod_Van_der_Waal_Energy-OPLS-2005>
161.025695800781

> <r_mmod_Electrostatic_Energy-OPLS-2005>
-441.113189697266

> <r_mmod_Solvation_Energy-OPLS-2005>
-212.847747802734

> <b_mmod_Minimization_Converged-OPLS-2005>
0

> <r_mmod_RMS_Derivative-OPLS-2005>
1.65800774097443

$$$$
76
                    3D
 Structure written by MMmdl.
169178  0  0  1  0            999 V2000
  -30.5865  -14.6720   20.5122 C   0  0  0  0  0  0
  -30.4464  -12.4181   19.4455 C   0  0  0  0  0  0
  -29.5063  -12.5281   18.2226 C   0  0  0  0  0  0
  -28.0342  -12.3480   18.6390 C   0  0  0  0  0  0
  -27.6553  -13.2114   19.8712 C   0  0  2  0  0  0
  -28.7028  -13.0512   20.9963 C   0  0  0  0  0  0
  -25.2554  -13.8156   20.5667 C   0  0  0  0  0  0
  -24.1812  -13.0433   20.9152 C   0  0  0  0  0  0
  -24.6383  -11.6899   20.8741 C   0  0  0  0  0  0
  -23.9055  -10.4287   21.0413 C   0  0  0  0  0  0
  -24.3611   -9.4202   21.9176 C   0  0  0  0  0  0
  -23.6290   -8.2232   22.0755 C   0  0  0  0  0  0
  -22.4266   -8.0273   21.3552 C   0  0  0  0  0  0
  -21.9908   -9.0244   20.4639 C   0  0  0  0  0  0
  -22.7236  -10.2126   20.3052 C   0  0  0  0  0  0
  -21.6861   -6.0716   22.5276 C   0  0  0  0  0  0
  -21.4013   -6.5617   23.8209 C   0  0  0  0  0  0
  -21.3664   -5.6775   24.9169 C   0  0  0  0  0  0
  -21.6052   -4.3034   24.7221 C   0  0  0  0  0  0
  -21.8821   -3.8121   23.4348 C   0  0  0  0  0  0
  -21.9188   -4.6942   22.3399 C   0  0  0  0  0  0
  -22.7835  -13.5221   21.1827 C   0  0  0  0  0  0
  -22.1654   -4.2119   21.0977 F   0  0  0  0  0  0
  -21.5644   -3.4527   25.7736 F   0  0  0  0  0  0
  -30.0118  -13.4262   20.4338 N   0  0  0  0  0  0
  -26.2998  -12.9326   20.3365 N   0  0  0  0  0  0
  -25.9314  -11.6493   20.5780 N   0  0  0  0  0  0
  -22.0481  -12.8237   22.0407 N   0  0  0  0  0  0
  -25.4253  -15.1878   20.4053 N   0  0  0  0  0  0
  -31.7443  -14.8637   20.1302 O   0  0  0  0  0  0
  -21.6636   -6.8870   21.4240 O   0  0  0  0  0  0
  -22.3526  -14.5532   20.6683 O   0  0  0  0  0  0
  -24.6257  -31.8596   23.2012 C   0  0  0  0  0  0
  -25.9097  -32.4783   23.8361 C   0  0  1  0  0  0
  -27.2312  -27.3050   20.1391 C   0  0  0  0  0  0
  -25.5909  -33.8583   24.2292 N   0  0  0  0  0  0
  -23.4232  -30.4793   21.5438 C   0  0  2  0  0  0
  -24.8737  -28.9219   20.1242 C   0  0  0  0  0  0
  -22.7479  -29.4620   22.4944 C   0  0  0  0  0  0
  -18.0294  -28.1386   22.8489 C   0  0  0  0  0  0
  -24.1492  -36.7297   23.2643 C   0  0  0  0  0  0
  -25.9642  -30.7819   21.3785 C   0  0  0  0  0  0
  -26.0393  -29.4003   20.7377 C   0  0  0  0  0  0
  -27.2227  -28.6022   20.7386 C   0  0  0  0  0  0
  -26.0521  -26.8825   19.4949 C   0  0  0  0  0  0
  -24.8802  -27.6649   19.4969 C   0  0  0  0  0  0
  -23.6440  -29.8076   20.1624 C   0  0  0  0  0  0
  -25.4118  -36.3096   24.0339 C   0  0  1  0  0  0
  -20.5892  -28.3698   23.1286 C   0  0  2  0  0  0
  -20.6790  -26.9421   22.5419 C   0  0  0  0  0  0
  -19.5764  -26.6389   21.5223 C   0  0  0  0  0  0
  -18.1940  -26.7933   22.1620 C   0  0  0  0  0  0
  -19.1544  -28.8857   23.2883 C   0  0  0  0  0  0
  -18.9457  -30.1459   23.8898 C   0  0  0  0  0  0
  -17.6455  -30.6584   24.0560 C   0  0  0  0  0  0
  -25.9048  -34.9461   23.5121 C   0  0  0  0  0  0
  -16.5350  -29.9086   23.6318 C   0  0  0  0  0  0
  -16.7282  -28.6507   23.0343 C   0  0  0  0  0  0
  -26.4475  -31.6580   25.0725 C   0  0  0  0  0  0
  -25.3706  -31.3698   26.1449 C   0  0  0  0  0  0
  -27.0307  -30.3006   24.6156 C   0  0  0  0  0  0
  -27.6041  -32.4306   25.7492 C   0  0  0  0  0  0
  -27.5591  -37.1807   24.8462 C   0  0  0  0  0  0
  -21.4194  -29.3041   22.3672 N   0  0  0  0  0  0
  -26.4300  -37.3790   23.9406 N   0  0  0  0  0  0
  -24.6899  -31.0593   22.0974 N   0  0  0  0  0  0
  -23.4193  -28.8163   23.3037 O   0  0  0  0  0  0
  -28.3660  -26.4926   20.0229 O   0  0  0  0  0  0
  -26.5627  -34.8924   22.4692 O   0  0  0  0  0  0
  -23.5412  -32.1399   23.7313 O   0  0  0  0  0  0
  -28.5720  -19.0998   22.0324 C   0  0  0  0  0  0
  -29.9394  -19.4904   20.1131 C   0  0  0  0  0  0
  -29.0951  -20.0478   21.1188 C   0  0  0  0  0  0
  -28.8292  -17.7032   21.9636 C   0  0  0  0  0  0
  -29.6676  -17.1357   20.9621 C   0  0  0  0  0  0
  -30.2177  -18.0771   20.0276 C   0  0  0  0  0  0
  -28.0318  -23.9318   20.6452 C   0  0  0  0  0  0
  -26.6974  -23.7778   20.7018 C   0  0  0  0  0  0
  -30.1845  -25.2539   20.9906 C   0  0  0  0  0  0
  -30.2609  -22.9239   20.0265 C   0  0  0  0  0  0
  -28.6481  -25.3619   20.9366 C   0  0  1  0  0  0
  -30.6932  -24.3943   19.8145 C   0  0  2  0  0  0
  -28.1527  -16.8062   22.9922 C   0  0  0  0  0  0
  -32.6511  -23.9971   18.3213 C   0  0  0  0  0  0
  -28.6947  -21.5616   21.3841 C   0  0  0  0  0  0
  -28.8853  -22.7758   20.5098 N   0  0  0  0  0  0
  -29.7326  -15.6611   20.9351 N   0  0  0  0  0  0
  -32.1591  -24.5034   19.6216 N   0  3  0  0  0  0
  -31.1945  -17.5463   18.7066 Cl  0  0  0  0  0  0
  -31.4836  -12.5663   19.1387 H   0  0  0  0  0  0
  -30.3966  -11.4177   19.8789 H   0  0  0  0  0  0
  -29.7785  -11.7915   17.4656 H   0  0  0  0  0  0
  -29.6266  -13.5064   17.7529 H   0  0  0  0  0  0
  -27.8827  -11.2929   18.8696 H   0  0  0  0  0  0
  -27.3742  -12.5733   17.8005 H   0  0  0  0  0  0
  -27.6761  -14.2486   19.5373 H   0  0  0  0  0  0
  -28.7280  -12.0190   21.3502 H   0  0  0  0  0  0
  -28.4409  -13.6475   21.8706 H   0  0  0  0  0  0
  -25.2771   -9.5670   22.4729 H   0  0  0  0  0  0
  -23.9987   -7.4632   22.7500 H   0  0  0  0  0  0
  -21.0838   -8.8778   19.8946 H   0  0  0  0  0  0
  -22.3714  -10.9661   19.6142 H   0  0  0  0  0  0
  -21.2006   -7.6129   23.9698 H   0  0  0  0  0  0
  -21.1495   -6.0511   25.9078 H   0  0  0  0  0  0
  -22.0605   -2.7580   23.2860 H   0  0  0  0  0  0
  -22.4097  -11.9886   22.4783 H   0  0  0  0  0  0
  -21.1091  -13.1270   22.2592 H   0  0  0  0  0  0
  -24.6487  -15.8347   20.4836 H   0  0  0  0  0  0
  -26.2763  -15.6340   20.0905 H   0  0  0  0  0  0
  -26.7161  -32.5457   23.1110 H   0  0  0  0  0  0
  -25.0028  -33.9729   25.0421 H   0  0  0  0  0  0
  -22.7179  -31.2996   21.3950 H   0  0  0  0  0  0
  -23.3766  -35.9614   23.3291 H   0  0  0  0  0  0
  -24.3590  -36.8928   22.2057 H   0  0  0  0  0  0
  -23.7217  -37.6489   23.6666 H   0  0  0  0  0  0
  -26.0915  -31.5344   20.5997 H   0  0  0  0  0  0
  -26.8469  -30.8422   22.0033 H   0  0  0  0  0  0
  -28.1262  -28.9752   21.1998 H   0  0  0  0  0  0
  -26.0434  -25.9343   18.9765 H   0  0  0  0  0  0
  -23.9937  -27.2973   18.9993 H   0  0  0  0  0  0
  -23.7720  -30.5820   19.4055 H   0  0  0  0  0  0
  -22.7643  -29.2398   19.8549 H   0  0  0  0  0  0
  -25.1291  -36.1966   25.0833 H   0  0  0  0  0  0
  -20.9985  -28.3280   24.1406 H   0  0  0  0  0  0
  -20.5717  -26.2301   23.3614 H   0  0  0  0  0  0
  -21.6655  -26.7464   22.1189 H   0  0  0  0  0  0
  -19.6927  -25.6303   21.1246 H   0  0  0  0  0  0
  -19.6706  -27.3206   20.6756 H   0  0  0  0  0  0
  -17.4220  -26.6700   21.4011 H   0  0  0  0  0  0
  -18.0320  -26.0070   22.9006 H   0  0  0  0  0  0
  -19.7929  -30.7281   24.2269 H   0  0  0  0  0  0
  -17.5003  -31.6262   24.5159 H   0  0  0  0  0  0
  -15.5349  -30.2980   23.7633 H   0  0  0  0  0  0
  -15.8691  -28.0825   22.7041 H   0  0  0  0  0  0
  -24.5890  -30.7045   25.7766 H   0  0  0  0  0  0
  -24.8884  -32.2846   26.4895 H   0  0  0  0  0  0
  -25.8034  -30.8856   27.0210 H   0  0  0  0  0  0
  -26.2870  -29.6777   24.1171 H   0  0  0  0  0  0
  -27.3995  -29.7242   25.4649 H   0  0  0  0  0  0
  -27.8748  -30.4302   23.9382 H   0  0  0  0  0  0
  -27.2658  -33.3590   26.2099 H   0  0  0  0  0  0
  -28.3830  -32.6881   25.0308 H   0  0  0  0  0  0
  -28.0728  -31.8407   26.5377 H   0  0  0  0  0  0
  -28.2596  -38.0120   24.7531 H   0  0  0  0  0  0
  -28.1103  -36.2648   24.6261 H   0  0  0  0  0  0
  -27.2312  -37.1425   25.8868 H   0  0  0  0  0  0
  -20.9384  -29.8745   21.6858 H   0  0  0  0  0  0
  -26.0190  -38.2869   24.1408 H   0  0  0  0  0  0
  -27.9300  -19.4642   22.8237 H   0  0  0  0  0  0
  -30.3790  -20.1389   19.3714 H   0  0  0  0  0  0
  -26.0461  -24.6166   20.9026 H   0  0  0  0  0  0
  -26.2186  -22.8190   20.5674 H   0  0  0  0  0  0
  -30.4840  -24.7906   21.9323 H   0  0  0  0  0  0
  -30.6252  -26.2508   20.9830 H   0  0  0  0  0  0
  -30.9364  -22.4461   20.7387 H   0  0  0  0  0  0
  -30.3608  -22.3792   19.0873 H   0  0  0  0  0  0
  -28.3009  -25.6641   21.9256 H   0  0  0  0  0  0
  -30.2203  -24.7751   18.9072 H   0  0  0  0  0  0
  -27.5987  -17.3865   23.7316 H   0  0  0  0  0  0
  -28.8881  -16.2057   23.5304 H   0  0  0  0  0  0
  -27.4428  -16.1347   22.5075 H   0  0  0  0  0  0
  -33.7279  -24.1468   18.2357 H   0  0  0  0  0  0
  -32.1759  -24.5255   17.4936 H   0  0  0  0  0  0
  -32.4571  -22.9308   18.2014 H   0  0  0  0  0  0
  -29.1883  -21.8162   22.3233 H   0  0  0  0  0  0
  -27.6402  -21.5236   21.6539 H   0  0  0  0  0  0
  -28.9047  -15.2432   21.3257 H   0  0  0  0  0  0
  -32.6433  -24.0242   20.3640 H   0  0  0  0  0  0
  -32.4167  -25.4759   19.6738 H   0  0  0  0  0  0
  1 25  1  0  0  0
  1 30  2  0  0  0
  1 87  1  0  0  0
  2  3  1  0  0  0
  2 25  1  0  0  0
  2 90  1  0  0  0
  2 91  1  0  0  0
  3  4  1  0  0  0
  3 92  1  0  0  0
  3 93  1  0  0  0
  4  5  1  0  0  0
  4 94  1  0  0  0
  4 95  1  0  0  0
  5  6  1  0  0  0
  5 26  1  0  0  0
  5 96  1  0  0  0
  6 25  1  0  0  0
  6 97  1  0  0  0
  6 98  1  0  0  0
  7  8  2  0  0  0
  7 26  1  0  0  0
  7 29  1  0  0  0
  8  9  1  0  0  0
  8 22  1  0  0  0
  9 10  1  0  0  0
  9 27  2  0  0  0
 10 11  2  0  0  0
 10 15  1  0  0  0
 11 12  1  0  0  0
 11 99  1  0  0  0
 12 13  2  0  0  0
 12100  1  0  0  0
 13 14  1  0  0  0
 13 31  1  0  0  0
 14 15  2  0  0  0
 14101  1  0  0  0
 15102  1  0  0  0
 16 17  2  0  0  0
 16 21  1  0  0  0
 16 31  1  0  0  0
 17 18  1  0  0  0
 17103  1  0  0  0
 18 19  2  0  0  0
 18104  1  0  0  0
 19 20  1  0  0  0
 19 24  1  0  0  0
 20 21  2  0  0  0
 20105  1  0  0  0
 21 23  1  0  0  0
 22 28  1  0  0  0
 22 32  2  0  0  0
 26 27  1  0  0  0
 28106  1  0  0  0
 28107  1  0  0  0
 29108  1  0  0  0
 29109  1  0  0  0
 33 34  1  0  0  0
 33 66  1  0  0  0
 33 70  2  0  0  0
 34 36  1  0  0  0
 34 59  1  0  0  0
 34110  1  0  0  0
 35 44  2  0  0  0
 35 45  1  0  0  0
 35 68  1  0  0  0
 36 56  1  0  0  0
 36111  1  0  0  0
 37 39  1  0  0  0
 37 47  1  0  0  0
 37 66  1  0  0  0
 37112  1  0  0  0
 38 43  2  0  0  0
 38 46  1  0  0  0
 38 47  1  0  0  0
 39 64  1  0  0  0
 39 67  2  0  0  0
 40 52  1  0  0  0
 40 53  2  0  0  0
 40 58  1  0  0  0
 41113  1  0  0  0
 41114  1  0  0  0
 41115  1  0  0  0
 41 48  1  0  0  0
 42 43  1  0  0  0
 42 66  1  0  0  0
 42116  1  0  0  0
 42117  1  0  0  0
 43 44  1  0  0  0
 44118  1  0  0  0
 45 46  2  0  0  0
 45119  1  0  0  0
 46120  1  0  0  0
 47121  1  0  0  0
 47122  1  0  0  0
 48 56  1  0  0  0
 48 65  1  0  0  0
 48123  1  0  0  0
 49 50  1  0  0  0
 49 53  1  0  0  0
 49 64  1  0  0  0
 49124  1  0  0  0
 50 51  1  0  0  0
 50125  1  0  0  0
 50126  1  0  0  0
 51 52  1  0  0  0
 51127  1  0  0  0
 51128  1  0  0  0
 52129  1  0  0  0
 52130  1  0  0  0
 53 54  1  0  0  0
 54 55  2  0  0  0
 54131  1  0  0  0
 55 57  1  0  0  0
 55132  1  0  0  0
 56 69  2  0  0  0
 57 58  2  0  0  0
 57133  1  0  0  0
 58134  1  0  0  0
 59 60  1  0  0  0
 59 61  1  0  0  0
 59 62  1  0  0  0
 60135  1  0  0  0
 60136  1  0  0  0
 60137  1  0  0  0
 61138  1  0  0  0
 61139  1  0  0  0
 61140  1  0  0  0
 62141  1  0  0  0
 62142  1  0  0  0
 62143  1  0  0  0
 63 65  1  0  0  0
 63144  1  0  0  0
 63145  1  0  0  0
 63146  1  0  0  0
 64147  1  0  0  0
 65148  1  0  0  0
 68 81  1  0  0  0
 71 73  2  0  0  0
 71 74  1  0  0  0
 71149  1  0  0  0
 72 73  1  0  0  0
 72 76  2  0  0  0
 72150  1  0  0  0
 73 85  1  0  0  0
 74 75  2  0  0  0
 74 83  1  0  0  0
 75 76  1  0  0  0
 75 87  1  0  0  0
 76 89  1  0  0  0
 77 78  2  0  0  0
 77 81  1  0  0  0
 77 86  1  0  0  0
 78151  1  0  0  0
 78152  1  0  0  0
 79 81  1  0  0  0
 79 82  1  0  0  0
 79153  1  0  0  0
 79154  1  0  0  0
 80 82  1  0  0  0
 80 86  1  0  0  0
 80155  1  0  0  0
 80156  1  0  0  0
 81157  1  0  0  0
 82 88  1  0  0  0
 82158  1  0  0  0
 83159  1  0  0  0
 83160  1  0  0  0
 83161  1  0  0  0
 84 88  1  0  0  0
 84162  1  0  0  0
 84163  1  0  0  0
 84164  1  0  0  0
 85 86  1  0  0  0
 85165  1  0  0  0
 85166  1  0  0  0
 87167  1  0  0  0
 88168  1  0  0  0
 88169  1  0  0  0
M  CHG  1  88   1
M  ISO  4   1 100  68 101  81 101  87 100
M  END
> <chiral flag>
0

> <version>
0

> <s_m_source_file>
/data/baiqing/PycharmProjects/Reinvent-master-3.2/result/LINK_invent/BTK/process_docking_weight1_custom_product_contain_oxygen_bond_distance_aromatic_linkinvent_7_9_3/rearranged_h_0037.sdf

> <i_m_source_file_index>
77

> <r_mmod_Potential_Energy-OPLS-2005>
-51.6361045837402

> <r_mmod_Stretch_Energy-OPLS-2005>
96.0262603759766

> <r_mmod_Bend_Energy-OPLS-2005>
206.543807983398

> <r_mmod_Torsional_Energy-OPLS-2005>
267.190124511719

> <r_mmod_Improper_Torsional_Energy-OPLS-2005>
6.17331886291504

> <r_mmod_Van_der_Waal_Energy-OPLS-2005>
142.921813964844

> <r_mmod_Electrostatic_Energy-OPLS-2005>
-346.131744384766

> <r_mmod_Solvation_Energy-OPLS-2005>
-476.790649414062

> <b_mmod_Minimization_Converged-OPLS-2005>
0

> <r_mmod_RMS_Derivative-OPLS-2005>
2.37476420402527

$$$$
77
                    3D
 Structure written by MMmdl.
162171  0  0  1  0            999 V2000
  -30.6417  -14.6581   20.4901 C   0  0  0  0  0  0
  -30.4265  -12.4076   19.4508 C   0  0  0  0  0  0
  -29.5004  -12.4987   18.2199 C   0  0  0  0  0  0
  -28.0255  -12.3360   18.6370 C   0  0  0  0  0  0
  -27.6438  -13.2239   19.8521 C   0  0  2  0  0  0
  -28.6895  -13.1196   20.9824 C   0  0  0  0  0  0
  -25.2521  -13.8185   20.5688 C   0  0  0  0  0  0
  -24.1804  -13.0439   20.9200 C   0  0  0  0  0  0
  -24.6386  -11.6914   20.8744 C   0  0  0  0  0  0
  -23.9062  -10.4293   21.0406 C   0  0  0  0  0  0
  -24.3616   -9.4208   21.9183 C   0  0  0  0  0  0
  -23.6293   -8.2242   22.0754 C   0  0  0  0  0  0
  -22.4274   -8.0280   21.3544 C   0  0  0  0  0  0
  -21.9910   -9.0253   20.4646 C   0  0  0  0  0  0
  -22.7237  -10.2132   20.3055 C   0  0  0  0  0  0
  -21.6853   -6.0734   22.5279 C   0  0  0  0  0  0
  -21.4014   -6.5639   23.8211 C   0  0  0  0  0  0
  -21.3659   -5.6792   24.9174 C   0  0  0  0  0  0
  -21.6044   -4.3055   24.7225 C   0  0  0  0  0  0
  -21.8820   -3.8146   23.4346 C   0  0  0  0  0  0
  -21.9193   -4.6962   22.3402 C   0  0  0  0  0  0
  -22.7827  -13.5225   21.1863 C   0  0  0  0  0  0
  -22.1662   -4.2148   21.0980 F   0  0  0  0  0  0
  -21.5629   -3.4538   25.7738 F   0  0  0  0  0  0
  -29.9949  -13.4535   20.3999 N   0  0  0  0  0  0
  -26.2943  -12.9380   20.3288 N   0  0  0  0  0  0
  -25.9313  -11.6528   20.5753 N   0  0  0  0  0  0
  -22.0477  -12.8212   22.0419 N   0  0  0  0  0  0
  -25.4215  -15.1907   20.4110 N   0  0  0  0  0  0
  -31.8286  -14.7588   20.1698 O   0  0  0  0  0  0
  -21.6640   -6.8876   21.4240 O   0  0  0  0  0  0
  -22.3508  -14.5530   20.6712 O   0  0  0  0  0  0
  -24.6262  -31.8578   23.1989 C   0  0  0  0  0  0
  -25.9107  -32.4765   23.8323 C   0  0  1  0  0  0
  -27.2305  -27.3142   20.1067 C   0  0  0  0  0  0
  -25.5924  -33.8565   24.2258 N   0  0  0  0  0  0
  -23.4190  -30.4794   21.5422 C   0  0  2  0  0  0
  -24.8625  -28.9254   20.1121 C   0  0  0  0  0  0
  -22.7467  -29.4616   22.4938 C   0  0  0  0  0  0
  -18.0285  -28.1383   22.8487 C   0  0  0  0  0  0
  -24.1488  -36.7284   23.2641 C   0  0  0  0  0  0
  -25.9583  -30.7883   21.3651 C   0  0  0  0  0  0
  -26.0308  -29.4142   20.7069 C   0  0  0  0  0  0
  -27.2136  -28.6203   20.6897 C   0  0  0  0  0  0
  -26.0242  -26.8539   19.5373 C   0  0  0  0  0  0
  -24.8602  -27.6501   19.5220 C   0  0  0  0  0  0
  -23.6312  -29.8075   20.1592 C   0  0  0  0  0  0
  -25.4115  -36.3075   24.0328 C   0  0  1  0  0  0
  -20.5883  -28.3683   23.1288 C   0  0  2  0  0  0
  -20.6771  -26.9407   22.5415 C   0  0  0  0  0  0
  -19.5751  -26.6383   21.5213 C   0  0  0  0  0  0
  -18.1928  -26.7929   22.1620 C   0  0  0  0  0  0
  -19.1537  -28.8850   23.2884 C   0  0  0  0  0  0
  -18.9461  -30.1453   23.8898 C   0  0  0  0  0  0
  -17.6462  -30.6586   24.0564 C   0  0  0  0  0  0
  -25.9052  -34.9445   23.5096 C   0  0  0  0  0  0
  -16.5352  -29.9086   23.6330 C   0  0  0  0  0  0
  -16.7273  -28.6504   23.0350 C   0  0  0  0  0  0
  -26.4492  -31.6582   25.0701 C   0  0  0  0  0  0
  -25.3727  -31.3726   26.1432 C   0  0  0  0  0  0
  -27.0333  -30.3008   24.6152 C   0  0  0  0  0  0
  -27.6050  -32.4318   25.7475 C   0  0  0  0  0  0
  -27.5577  -37.1799   24.8468 C   0  0  0  0  0  0
  -21.4181  -29.3036   22.3682 N   0  0  0  0  0  0
  -26.4291  -37.3771   23.9409 N   0  0  0  0  0  0
  -24.6870  -31.0589   22.0928 N   0  0  0  0  0  0
  -23.4193  -28.8165   23.3025 O   0  0  0  0  0  0
  -28.3980  -26.5375   20.1574 O   0  0  0  0  0  0
  -26.5624  -34.8919   22.4664 O   0  0  0  0  0  0
  -23.5428  -32.1373   23.7326 O   0  0  0  0  0  0
  -30.7034  -19.3461   19.8130 C   0  0  0  0  0  0
  -28.3086  -20.4792   20.6799 C   0  0  0  0  0  0
  -30.3794  -20.6941   19.4755 C   0  0  0  0  0  0
  -29.8637  -18.5185   20.6000 C   0  0  0  0  0  0
  -29.1599  -21.3084   19.8959 C   0  0  0  0  0  0
  -28.6456  -19.1266   21.0258 C   0  0  0  0  0  0
  -28.9704  -23.9440   17.3427 C   0  0  0  0  0  0
  -28.3777  -25.2035   17.9971 C   0  0  0  0  0  0
  -28.4475  -22.6602   18.0097 C   0  0  0  0  0  0
  -28.2881  -23.8075   20.2089 C   0  0  0  0  0  0
  -28.6408  -25.2171   19.5217 C   0  0  2  0  0  0
  -31.4017  -21.4781   18.6653 C   0  0  0  0  0  0
  -30.4279  -17.1412   21.1400 C   0  0  0  0  0  0
  -28.8048  -22.6295   19.4282 N   0  0  0  0  0  0
  -29.8961  -15.7763   20.7786 N   0  0  0  0  0  0
  -27.5528  -18.2311   22.0198 Cl  0  0  0  0  0  0
  -31.4682  -12.5247   19.1469 H   0  0  0  0  0  0
  -30.3588  -11.4225   19.9149 H   0  0  0  0  0  0
  -29.7684  -11.7353   17.4883 H   0  0  0  0  0  0
  -29.6386  -13.4607   17.7237 H   0  0  0  0  0  0
  -27.8698  -11.2855   18.8852 H   0  0  0  0  0  0
  -27.3681  -12.5477   17.7930 H   0  0  0  0  0  0
  -27.6501  -14.2524   19.4906 H   0  0  0  0  0  0
  -28.7085  -12.1127   21.4017 H   0  0  0  0  0  0
  -28.4378  -13.7874   21.8079 H   0  0  0  0  0  0
  -25.2762   -9.5685   22.4757 H   0  0  0  0  0  0
  -24.0003   -7.4633   22.7471 H   0  0  0  0  0  0
  -21.0842   -8.8769   19.8950 H   0  0  0  0  0  0
  -22.3694  -10.9670   19.6163 H   0  0  0  0  0  0
  -21.2005   -7.6147   23.9714 H   0  0  0  0  0  0
  -21.1481   -6.0523   25.9077 H   0  0  0  0  0  0
  -22.0599   -2.7608   23.2847 H   0  0  0  0  0  0
  -22.4100  -11.9875   22.4804 H   0  0  0  0  0  0
  -21.1092  -13.1230   22.2627 H   0  0  0  0  0  0
  -24.6576  -15.8449   20.5390 H   0  0  0  0  0  0
  -26.2734  -15.6376   20.0988 H   0  0  0  0  0  0
  -26.7172  -32.5425   23.1066 H   0  0  0  0  0  0
  -25.0081  -33.9705   25.0410 H   0  0  0  0  0  0
  -22.7132  -31.3000   21.3970 H   0  0  0  0  0  0
  -23.3751  -35.9616   23.3313 H   0  0  0  0  0  0
  -24.3574  -36.8892   22.2052 H   0  0  0  0  0  0
  -23.7240  -37.6488   23.6657 H   0  0  0  0  0  0
  -26.0879  -31.5519   20.5969 H   0  0  0  0  0  0
  -26.8393  -30.8372   21.9936 H   0  0  0  0  0  0
  -28.1160  -28.9980   21.1496 H   0  0  0  0  0  0
  -25.9411  -25.8558   19.1416 H   0  0  0  0  0  0
  -23.9543  -27.2575   19.0809 H   0  0  0  0  0  0
  -23.7502  -30.5805   19.3992 H   0  0  0  0  0  0
  -22.7503  -29.2364   19.8604 H   0  0  0  0  0  0
  -25.1299  -36.1923   25.0821 H   0  0  0  0  0  0
  -20.9977  -28.3255   24.1409 H   0  0  0  0  0  0
  -20.5663  -26.2294   23.3614 H   0  0  0  0  0  0
  -21.6641  -26.7431   22.1215 H   0  0  0  0  0  0
  -19.6914  -25.6295   21.1239 H   0  0  0  0  0  0
  -19.6693  -27.3195   20.6746 H   0  0  0  0  0  0
  -17.4202  -26.6678   21.4019 H   0  0  0  0  0  0
  -18.0325  -26.0068   22.9012 H   0  0  0  0  0  0
  -19.7938  -30.7268   24.2264 H   0  0  0  0  0  0
  -17.5019  -31.6267   24.5165 H   0  0  0  0  0  0
  -15.5353  -30.2989   23.7657 H   0  0  0  0  0  0
  -15.8671  -28.0827   22.7061 H   0  0  0  0  0  0
  -24.5917  -30.7052   25.7772 H   0  0  0  0  0  0
  -24.8900  -32.2891   26.4834 H   0  0  0  0  0  0
  -25.8057  -30.8934   27.0221 H   0  0  0  0  0  0
  -26.2902  -29.6758   24.1184 H   0  0  0  0  0  0
  -27.4045  -29.7265   25.4651 H   0  0  0  0  0  0
  -27.8764  -30.4299   23.9360 H   0  0  0  0  0  0
  -27.2664  -33.3625   26.2041 H   0  0  0  0  0  0
  -28.3870  -32.6863   25.0309 H   0  0  0  0  0  0
  -28.0707  -31.8448   26.5401 H   0  0  0  0  0  0
  -28.2605  -38.0086   24.7500 H   0  0  0  0  0  0
  -28.1060  -36.2616   24.6311 H   0  0  0  0  0  0
  -27.2294  -37.1470   25.8871 H   0  0  0  0  0  0
  -20.9359  -29.8754   21.6889 H   0  0  0  0  0  0
  -26.0171  -38.2847   24.1405 H   0  0  0  0  0  0
  -31.6569  -18.9498   19.4930 H   0  0  0  0  0  0
  -27.3628  -20.8757   21.0178 H   0  0  0  0  0  0
  -30.0595  -23.9739   17.3962 H   0  0  0  0  0  0
  -28.7194  -23.9329   16.2812 H   0  0  0  0  0  0
  -27.3184  -25.2240   17.7616 H   0  0  0  0  0  0
  -28.8120  -26.0922   17.5386 H   0  0  0  0  0  0
  -28.8340  -21.7877   17.4804 H   0  0  0  0  0  0
  -27.3613  -22.6080   17.9154 H   0  0  0  0  0  0
  -27.2072  -23.7130   20.3198 H   0  0  0  0  0  0
  -28.7069  -23.7768   21.2155 H   0  0  0  0  0  0
  -29.7305  -25.2130   19.5772 H   0  0  0  0  0  0
  -32.3971  -21.0428   18.7546 H   0  0  0  0  0  0
  -31.4681  -22.5100   19.0113 H   0  0  0  0  0  0
  -31.1332  -21.4844   17.6094 H   0  0  0  0  0  0
  -30.3590  -17.2009   22.2268 H   0  0  0  0  0  0
  -31.5022  -17.1482   20.9502 H   0  0  0  0  0  0
  -28.9127  -15.6241   20.9403 H   0  0  0  0  0  0
  1 25  1  0  0  0
  1 30  2  0  0  0
  1 85  1  0  0  0
  2  3  1  0  0  0
  2 25  1  0  0  0
  2 87  1  0  0  0
  2 88  1  0  0  0
  3  4  1  0  0  0
  3 89  1  0  0  0
  3 90  1  0  0  0
  4  5  1  0  0  0
  4 91  1  0  0  0
  4 92  1  0  0  0
  5  6  1  0  0  0
  5 26  1  0  0  0
  5 93  1  0  0  0
  6 25  1  0  0  0
  6 94  1  0  0  0
  6 95  1  0  0  0
  7  8  2  0  0  0
  7 26  1  0  0  0
  7 29  1  0  0  0
  8  9  1  0  0  0
  8 22  1  0  0  0
  9 10  1  0  0  0
  9 27  2  0  0  0
 10 11  2  0  0  0
 10 15  1  0  0  0
 11 12  1  0  0  0
 11 96  1  0  0  0
 12 13  2  0  0  0
 12 97  1  0  0  0
 13 14  1  0  0  0
 13 31  1  0  0  0
 14 15  2  0  0  0
 14 98  1  0  0  0
 15 99  1  0  0  0
 16 17  2  0  0  0
 16 21  1  0  0  0
 16 31  1  0  0  0
 17 18  1  0  0  0
 17100  1  0  0  0
 18 19  2  0  0  0
 18101  1  0  0  0
 19 20  1  0  0  0
 19 24  1  0  0  0
 20 21  2  0  0  0
 20102  1  0  0  0
 21 23  1  0  0  0
 22 28  1  0  0  0
 22 32  2  0  0  0
 26 27  1  0  0  0
 28103  1  0  0  0
 28104  1  0  0  0
 29105  1  0  0  0
 29106  1  0  0  0
 33 34  1  0  0  0
 33 66  1  0  0  0
 33 70  2  0  0  0
 34 36  1  0  0  0
 34 59  1  0  0  0
 34107  1  0  0  0
 35 44  2  0  0  0
 35 45  1  0  0  0
 35 68  1  0  0  0
 36 56  1  0  0  0
 36108  1  0  0  0
 37 39  1  0  0  0
 37 47  1  0  0  0
 37 66  1  0  0  0
 37109  1  0  0  0
 38 43  2  0  0  0
 38 46  1  0  0  0
 38 47  1  0  0  0
 39 64  1  0  0  0
 39 67  2  0  0  0
 40 52  1  0  0  0
 40 53  2  0  0  0
 40 58  1  0  0  0
 41110  1  0  0  0
 41111  1  0  0  0
 41112  1  0  0  0
 41 48  1  0  0  0
 42 43  1  0  0  0
 42 66  1  0  0  0
 42113  1  0  0  0
 42114  1  0  0  0
 43 44  1  0  0  0
 44115  1  0  0  0
 45 46  2  0  0  0
 45116  1  0  0  0
 46117  1  0  0  0
 47118  1  0  0  0
 47119  1  0  0  0
 48 56  1  0  0  0
 48 65  1  0  0  0
 48120  1  0  0  0
 49 50  1  0  0  0
 49 53  1  0  0  0
 49 64  1  0  0  0
 49121  1  0  0  0
 50 51  1  0  0  0
 50122  1  0  0  0
 50123  1  0  0  0
 51 52  1  0  0  0
 51124  1  0  0  0
 51125  1  0  0  0
 52126  1  0  0  0
 52127  1  0  0  0
 53 54  1  0  0  0
 54 55  2  0  0  0
 54128  1  0  0  0
 55 57  1  0  0  0
 55129  1  0  0  0
 56 69  2  0  0  0
 57 58  2  0  0  0
 57130  1  0  0  0
 58131  1  0  0  0
 59 60  1  0  0  0
 59 61  1  0  0  0
 59 62  1  0  0  0
 60132  1  0  0  0
 60133  1  0  0  0
 60134  1  0  0  0
 61135  1  0  0  0
 61136  1  0  0  0
 61137  1  0  0  0
 62138  1  0  0  0
 62139  1  0  0  0
 62140  1  0  0  0
 63 65  1  0  0  0
 63141  1  0  0  0
 63142  1  0  0  0
 63143  1  0  0  0
 64144  1  0  0  0
 65145  1  0  0  0
 68 81  1  0  0  0
 71 73  2  0  0  0
 71 74  1  0  0  0
 71146  1  0  0  0
 72 75  2  0  0  0
 72 76  1  0  0  0
 72147  1  0  0  0
 73 75  1  0  0  0
 73 82  1  0  0  0
 74 76  2  0  0  0
 74 83  1  0  0  0
 75 84  1  0  0  0
 76 86  1  0  0  0
 77 78  1  0  0  0
 77 79  1  0  0  0
 77148  1  0  0  0
 77149  1  0  0  0
 78 81  1  0  0  0
 78150  1  0  0  0
 78151  1  0  0  0
 79 84  1  0  0  0
 79152  1  0  0  0
 79153  1  0  0  0
 80 81  1  0  0  0
 80 84  1  0  0  0
 80154  1  0  0  0
 80155  1  0  0  0
 81156  1  0  0  0
 82157  1  0  0  0
 82158  1  0  0  0
 82159  1  0  0  0
 83 85  1  0  0  0
 83160  1  0  0  0
 83161  1  0  0  0
 85162  1  0  0  0
M  ISO  4   1 100  68 101  81 101  85 100
M  END
> <chiral flag>
0

> <version>
0

> <s_m_source_file>
/data/baiqing/PycharmProjects/Reinvent-master-3.2/result/LINK_invent/BTK/process_docking_weight1_custom_product_contain_oxygen_bond_distance_aromatic_linkinvent_7_9_3/rearranged_h_0037.sdf

> <i_m_source_file_index>
78

> <r_mmod_Potential_Energy-OPLS-2005>
117.122329711914

> <r_mmod_Stretch_Energy-OPLS-2005>
87.4594421386719

> <r_mmod_Bend_Energy-OPLS-2005>
198.554595947266

> <r_mmod_Torsional_Energy-OPLS-2005>
246.864364624023

> <r_mmod_Improper_Torsional_Energy-OPLS-2005>
7.05210256576538

> <r_mmod_Van_der_Waal_Energy-OPLS-2005>
142.356369018555

> <r_mmod_Electrostatic_Energy-OPLS-2005>
-410.614044189453

> <r_mmod_Solvation_Energy-OPLS-2005>
-206.111679077148

> <b_mmod_Minimization_Converged-OPLS-2005>
0

> <r_mmod_RMS_Derivative-OPLS-2005>
0.292243838310242

$$$$
78
                    3D
 Structure written by MMmdl.
158166  0  0  1  0            999 V2000
  -30.5994  -14.7251   20.4714 C   0  0  0  0  0  0
  -30.4330  -12.4479   19.4595 C   0  0  0  0  0  0
  -29.5087  -12.5161   18.2250 C   0  0  0  0  0  0
  -28.0343  -12.3356   18.6381 C   0  0  0  0  0  0
  -27.6420  -13.2269   19.8470 C   0  0  2  0  0  0
  -28.6855  -13.1398   20.9806 C   0  0  0  0  0  0
  -25.2528  -13.8186   20.5678 C   0  0  0  0  0  0
  -24.1823  -13.0436   20.9212 C   0  0  0  0  0  0
  -24.6404  -11.6910   20.8743 C   0  0  0  0  0  0
  -23.9079  -10.4286   21.0401 C   0  0  0  0  0  0
  -24.3630   -9.4205   21.9180 C   0  0  0  0  0  0
  -23.6301   -8.2244   22.0754 C   0  0  0  0  0  0
  -22.4281   -8.0280   21.3545 C   0  0  0  0  0  0
  -21.9920   -9.0253   20.4646 C   0  0  0  0  0  0
  -22.7251  -10.2128   20.3051 C   0  0  0  0  0  0
  -21.6849   -6.0743   22.5279 C   0  0  0  0  0  0
  -21.4018   -6.5646   23.8215 C   0  0  0  0  0  0
  -21.3664   -5.6795   24.9176 C   0  0  0  0  0  0
  -21.6037   -4.3058   24.7224 C   0  0  0  0  0  0
  -21.8822   -3.8153   23.4347 C   0  0  0  0  0  0
  -21.9197   -4.6972   22.3402 C   0  0  0  0  0  0
  -22.7849  -13.5227   21.1874 C   0  0  0  0  0  0
  -22.1661   -4.2160   21.0981 F   0  0  0  0  0  0
  -21.5624   -3.4543   25.7739 F   0  0  0  0  0  0
  -29.9865  -13.4973   20.4018 N   0  0  0  0  0  0
  -26.2939  -12.9381   20.3241 N   0  0  0  0  0  0
  -25.9324  -11.6529   20.5727 N   0  0  0  0  0  0
  -22.0489  -12.8209   22.0420 N   0  0  0  0  0  0
  -25.4222  -15.1911   20.4095 N   0  0  0  0  0  0
  -31.7898  -14.8441   20.1658 O   0  0  0  0  0  0
  -21.6637   -6.8882   21.4239 O   0  0  0  0  0  0
  -22.3531  -14.5533   20.6720 O   0  0  0  0  0  0
  -24.6309  -31.8537   23.1975 C   0  0  0  0  0  0
  -25.9127  -32.4751   23.8327 C   0  0  1  0  0  0
  -27.2216  -27.2722   20.1372 C   0  0  0  0  0  0
  -25.5929  -33.8557   24.2262 N   0  0  0  0  0  0
  -23.4269  -30.4749   21.5404 C   0  0  2  0  0  0
  -24.8730  -28.9137   20.1137 C   0  0  0  0  0  0
  -22.7495  -29.4596   22.4918 C   0  0  0  0  0  0
  -18.0290  -28.1393   22.8482 C   0  0  0  0  0  0
  -24.1484  -36.7274   23.2642 C   0  0  0  0  0  0
  -25.9701  -30.7713   21.3729 C   0  0  0  0  0  0
  -26.0420  -29.3925   20.7187 C   0  0  0  0  0  0
  -27.2218  -28.5850   20.7128 C   0  0  0  0  0  0
  -26.0345  -26.8499   19.5067 C   0  0  0  0  0  0
  -24.8726  -27.6507   19.4960 C   0  0  0  0  0  0
  -23.6443  -29.8019   20.1581 C   0  0  0  0  0  0
  -25.4112  -36.3073   24.0334 C   0  0  1  0  0  0
  -20.5892  -28.3692   23.1278 C   0  0  2  0  0  0
  -20.6779  -26.9409   22.5414 C   0  0  0  0  0  0
  -19.5758  -26.6379   21.5218 C   0  0  0  0  0  0
  -18.1934  -26.7935   22.1615 C   0  0  0  0  0  0
  -19.1543  -28.8865   23.2868 C   0  0  0  0  0  0
  -18.9461  -30.1469   23.8882 C   0  0  0  0  0  0
  -17.6459  -30.6587   24.0573 C   0  0  0  0  0  0
  -25.9050  -34.9443   23.5100 C   0  0  0  0  0  0
  -16.5352  -29.9082   23.6342 C   0  0  0  0  0  0
  -16.7273  -28.6503   23.0352 C   0  0  0  0  0  0
  -26.4499  -31.6584   25.0722 C   0  0  0  0  0  0
  -25.3721  -31.3730   26.1440 C   0  0  0  0  0  0
  -27.0359  -30.3011   24.6207 C   0  0  0  0  0  0
  -27.6060  -32.4325   25.7481 C   0  0  0  0  0  0
  -27.5575  -37.1789   24.8465 C   0  0  0  0  0  0
  -21.4201  -29.3035   22.3668 N   0  0  0  0  0  0
  -26.4285  -37.3778   23.9412 N   0  0  0  0  0  0
  -24.6951  -31.0514   22.0938 N   0  0  0  0  0  0
  -23.4199  -28.8140   23.3018 O   0  0  0  0  0  0
  -28.3445  -26.4207   20.1447 O   0  0  0  0  0  0
  -26.5615  -34.8920   22.4669 O   0  0  0  0  0  0
  -23.5459  -32.1341   23.7279 O   0  0  0  0  0  0
  -28.2780  -19.3816   18.0602 C   0  0  0  0  0  0
  -28.2516  -20.7110   18.5381 C   0  0  0  0  0  0
  -29.4241  -18.5151   20.0493 C   0  0  0  0  0  0
  -28.7974  -21.0262   19.8182 C   0  0  0  0  0  0
  -28.8467  -18.3103   18.7726 C   0  0  0  0  0  0
  -29.3803  -19.8939   20.5420 C   0  0  0  0  0  0
  -27.6173  -21.7331   17.6044 C   0  0  0  0  0  0
  -27.2400  -24.8531   21.7899 C   0  0  0  0  0  0
  -30.1707  -17.3168   20.8130 C   0  0  0  0  0  0
  -28.3885  -23.7128   19.7654 C   0  0  0  0  0  0
  -28.3217  -25.0235   20.7081 C   0  0  1  0  0  0
  -28.7775  -22.3731   20.3824 N   0  0  0  0  0  0
  -29.8043  -15.8339   20.7027 N   0  0  0  0  0  0
  -28.8363  -16.7691   17.9870 Cl  0  0  0  0  0  0
  -30.0838  -20.2341   22.0874 Cl  0  0  0  0  0  0
  -31.4724  -12.5818   19.1571 H   0  0  0  0  0  0
  -30.3783  -11.4644   19.9283 H   0  0  0  0  0  0
  -29.7928  -11.7537   17.4991 H   0  0  0  0  0  0
  -29.6337  -13.4769   17.7218 H   0  0  0  0  0  0
  -27.8910  -11.2847   18.8931 H   0  0  0  0  0  0
  -27.3761  -12.5355   17.7913 H   0  0  0  0  0  0
  -27.6407  -14.2521   19.4760 H   0  0  0  0  0  0
  -28.7182  -12.1335   21.4014 H   0  0  0  0  0  0
  -28.4212  -13.8065   21.8022 H   0  0  0  0  0  0
  -25.2772   -9.5689   22.4760 H   0  0  0  0  0  0
  -24.0015   -7.4636   22.7471 H   0  0  0  0  0  0
  -21.0854   -8.8771   19.8948 H   0  0  0  0  0  0
  -22.3707  -10.9673   19.6168 H   0  0  0  0  0  0
  -21.2004   -7.6155   23.9727 H   0  0  0  0  0  0
  -21.1483   -6.0523   25.9082 H   0  0  0  0  0  0
  -22.0597   -2.7617   23.2843 H   0  0  0  0  0  0
  -22.4108  -11.9864   22.4801 H   0  0  0  0  0  0
  -21.1104  -13.1231   22.2618 H   0  0  0  0  0  0
  -24.6472  -15.8381   20.5057 H   0  0  0  0  0  0
  -26.2529  -15.6254   20.0297 H   0  0  0  0  0  0
  -26.7197  -32.5392   23.1068 H   0  0  0  0  0  0
  -25.0136  -33.9708   25.0450 H   0  0  0  0  0  0
  -22.7234  -31.2968   21.3924 H   0  0  0  0  0  0
  -23.3760  -35.9592   23.3297 H   0  0  0  0  0  0
  -24.3572  -36.8897   22.2056 H   0  0  0  0  0  0
  -23.7213  -37.6468   23.6661 H   0  0  0  0  0  0
  -26.1087  -31.5304   20.6021 H   0  0  0  0  0  0
  -26.8496  -30.8206   22.0031 H   0  0  0  0  0  0
  -28.1234  -28.9503   21.1833 H   0  0  0  0  0  0
  -26.0017  -25.8798   19.0317 H   0  0  0  0  0  0
  -23.9770  -27.2805   19.0162 H   0  0  0  0  0  0
  -23.7673  -30.5749   19.3991 H   0  0  0  0  0  0
  -22.7626  -29.2340   19.8556 H   0  0  0  0  0  0
  -25.1294  -36.1927   25.0830 H   0  0  0  0  0  0
  -20.9985  -28.3265   24.1399 H   0  0  0  0  0  0
  -20.5700  -26.2294   23.3612 H   0  0  0  0  0  0
  -21.6643  -26.7451   22.1196 H   0  0  0  0  0  0
  -19.6915  -25.6286   21.1253 H   0  0  0  0  0  0
  -19.6699  -27.3189   20.6753 H   0  0  0  0  0  0
  -17.4209  -26.6692   21.4012 H   0  0  0  0  0  0
  -18.0315  -26.0084   22.9018 H   0  0  0  0  0  0
  -19.7935  -30.7299   24.2225 H   0  0  0  0  0  0
  -17.5008  -31.6263   24.5172 H   0  0  0  0  0  0
  -15.5349  -30.2977   23.7676 H   0  0  0  0  0  0
  -15.8668  -28.0825   22.7063 H   0  0  0  0  0  0
  -24.5901  -30.7082   25.7750 H   0  0  0  0  0  0
  -24.8914  -32.2908   26.4848 H   0  0  0  0  0  0
  -25.8037  -30.8902   27.0221 H   0  0  0  0  0  0
  -26.2952  -29.6731   24.1251 H   0  0  0  0  0  0
  -27.4078  -29.7300   25.4724 H   0  0  0  0  0  0
  -27.8806  -30.4298   23.9436 H   0  0  0  0  0  0
  -27.2688  -33.3643   26.2033 H   0  0  0  0  0  0
  -28.3877  -32.6854   25.0302 H   0  0  0  0  0  0
  -28.0724  -31.8464   26.5407 H   0  0  0  0  0  0
  -28.2595  -38.0088   24.7538 H   0  0  0  0  0  0
  -28.1071  -36.2624   24.6265 H   0  0  0  0  0  0
  -27.2294  -37.1412   25.8869 H   0  0  0  0  0  0
  -20.9383  -29.8729   21.6852 H   0  0  0  0  0  0
  -26.0160  -38.2850   24.1434 H   0  0  0  0  0  0
  -27.8568  -19.1632   17.0888 H   0  0  0  0  0  0
  -27.3738  -21.2937   16.6367 H   0  0  0  0  0  0
  -28.2979  -22.5563   17.3944 H   0  0  0  0  0  0
  -26.6832  -22.1128   18.0169 H   0  0  0  0  0  0
  -27.4022  -23.9373   22.3586 H   0  0  0  0  0  0
  -26.2439  -24.7862   21.3539 H   0  0  0  0  0  0
  -27.2453  -25.6829   22.4968 H   0  0  0  0  0  0
  -30.1133  -17.5313   21.8795 H   0  0  0  0  0  0
  -31.2283  -17.4177   20.5663 H   0  0  0  0  0  0
  -29.1005  -23.9207   18.9658 H   0  0  0  0  0  0
  -27.4081  -23.6298   19.3022 H   0  0  0  0  0  0
  -29.2670  -25.0031   21.2508 H   0  0  0  0  0  0
  -29.1958  -22.4407   21.3059 H   0  0  0  0  0  0
  -28.8354  -15.6201   20.8802 H   0  0  0  0  0  0
  1 25  1  0  0  0
  1 30  2  0  0  0
  1 83  1  0  0  0
  2  3  1  0  0  0
  2 25  1  0  0  0
  2 86  1  0  0  0
  2 87  1  0  0  0
  3  4  1  0  0  0
  3 88  1  0  0  0
  3 89  1  0  0  0
  4  5  1  0  0  0
  4 90  1  0  0  0
  4 91  1  0  0  0
  5  6  1  0  0  0
  5 26  1  0  0  0
  5 92  1  0  0  0
  6 25  1  0  0  0
  6 93  1  0  0  0
  6 94  1  0  0  0
  7  8  2  0  0  0
  7 26  1  0  0  0
  7 29  1  0  0  0
  8  9  1  0  0  0
  8 22  1  0  0  0
  9 10  1  0  0  0
  9 27  2  0  0  0
 10 11  2  0  0  0
 10 15  1  0  0  0
 11 12  1  0  0  0
 11 95  1  0  0  0
 12 13  2  0  0  0
 12 96  1  0  0  0
 13 14  1  0  0  0
 13 31  1  0  0  0
 14 15  2  0  0  0
 14 97  1  0  0  0
 15 98  1  0  0  0
 16 17  2  0  0  0
 16 21  1  0  0  0
 16 31  1  0  0  0
 17 18  1  0  0  0
 17 99  1  0  0  0
 18 19  2  0  0  0
 18100  1  0  0  0
 19 20  1  0  0  0
 19 24  1  0  0  0
 20 21  2  0  0  0
 20101  1  0  0  0
 21 23  1  0  0  0
 22 28  1  0  0  0
 22 32  2  0  0  0
 26 27  1  0  0  0
 28102  1  0  0  0
 28103  1  0  0  0
 29104  1  0  0  0
 29105  1  0  0  0
 33 34  1  0  0  0
 33 66  1  0  0  0
 33 70  2  0  0  0
 34 36  1  0  0  0
 34 59  1  0  0  0
 34106  1  0  0  0
 35 44  2  0  0  0
 35 45  1  0  0  0
 35 68  1  0  0  0
 36 56  1  0  0  0
 36107  1  0  0  0
 37 39  1  0  0  0
 37 47  1  0  0  0
 37 66  1  0  0  0
 37108  1  0  0  0
 38 43  2  0  0  0
 38 46  1  0  0  0
 38 47  1  0  0  0
 39 64  1  0  0  0
 39 67  2  0  0  0
 40 52  1  0  0  0
 40 53  2  0  0  0
 40 58  1  0  0  0
 41109  1  0  0  0
 41110  1  0  0  0
 41111  1  0  0  0
 41 48  1  0  0  0
 42 43  1  0  0  0
 42 66  1  0  0  0
 42112  1  0  0  0
 42113  1  0  0  0
 43 44  1  0  0  0
 44114  1  0  0  0
 45 46  2  0  0  0
 45115  1  0  0  0
 46116  1  0  0  0
 47117  1  0  0  0
 47118  1  0  0  0
 48 56  1  0  0  0
 48 65  1  0  0  0
 48119  1  0  0  0
 49 50  1  0  0  0
 49 53  1  0  0  0
 49 64  1  0  0  0
 49120  1  0  0  0
 50 51  1  0  0  0
 50121  1  0  0  0
 50122  1  0  0  0
 51 52  1  0  0  0
 51123  1  0  0  0
 51124  1  0  0  0
 52125  1  0  0  0
 52126  1  0  0  0
 53 54  1  0  0  0
 54 55  2  0  0  0
 54127  1  0  0  0
 55 57  1  0  0  0
 55128  1  0  0  0
 56 69  2  0  0  0
 57 58  2  0  0  0
 57129  1  0  0  0
 58130  1  0  0  0
 59 60  1  0  0  0
 59 61  1  0  0  0
 59 62  1  0  0  0
 60131  1  0  0  0
 60132  1  0  0  0
 60133  1  0  0  0
 61134  1  0  0  0
 61135  1  0  0  0
 61136  1  0  0  0
 62137  1  0  0  0
 62138  1  0  0  0
 62139  1  0  0  0
 63 65  1  0  0  0
 63140  1  0  0  0
 63141  1  0  0  0
 63142  1  0  0  0
 64143  1  0  0  0
 65144  1  0  0  0
 68 81  1  0  0  0
 71 72  2  0  0  0
 71 75  1  0  0  0
 71145  1  0  0  0
 72 74  1  0  0  0
 72 77  1  0  0  0
 73 75  2  0  0  0
 73 76  1  0  0  0
 73 79  1  0  0  0
 74 76  2  0  0  0
 74 82  1  0  0  0
 75 84  1  0  0  0
 76 85  1  0  0  0
 77146  1  0  0  0
 77147  1  0  0  0
 77148  1  0  0  0
 78149  1  0  0  0
 78150  1  0  0  0
 78151  1  0  0  0
 78 81  1  0  0  0
 79 83  1  0  0  0
 79152  1  0  0  0
 79153  1  0  0  0
 80 81  1  0  0  0
 80 82  1  0  0  0
 80154  1  0  0  0
 80155  1  0  0  0
 81156  1  0  0  0
 82157  1  0  0  0
 83158  1  0  0  0
M  ISO  4   1 100  68 101  81 101  83 100
M  END
> <chiral flag>
0

> <version>
0

> <s_m_source_file>
/data/baiqing/PycharmProjects/Reinvent-master-3.2/result/LINK_invent/BTK/process_docking_weight1_custom_product_contain_oxygen_bond_distance_aromatic_linkinvent_7_9_3/rearranged_h_0037.sdf

> <i_m_source_file_index>
79

> <r_mmod_Potential_Energy-OPLS-2005>
136.712478637695

> <r_mmod_Stretch_Energy-OPLS-2005>
125.748390197754

> <r_mmod_Bend_Energy-OPLS-2005>
195.203643798828

> <r_mmod_Torsional_Energy-OPLS-2005>
213.542984008789

> <r_mmod_Improper_Torsional_Energy-OPLS-2005>
4.73542356491089

> <r_mmod_Van_der_Waal_Energy-OPLS-2005>
141.249755859375

> <r_mmod_Electrostatic_Energy-OPLS-2005>
-413.231170654297

> <r_mmod_Solvation_Energy-OPLS-2005>
-205.587036132812

> <b_mmod_Minimization_Converged-OPLS-2005>
0

> <r_mmod_RMS_Derivative-OPLS-2005>
1.4920711517334

$$$$
79
                    3D
 Structure written by MMmdl.
160168  0  0  1  0            999 V2000
  -30.7602  -14.4444   20.6224 C   0  0  0  0  0  0
  -30.4175  -12.3061   19.4305 C   0  0  0  0  0  0
  -29.4937  -12.5163   18.2148 C   0  0  0  0  0  0
  -28.0178  -12.3735   18.6291 C   0  0  0  0  0  0
  -27.6665  -13.2152   19.8856 C   0  0  2  0  0  0
  -28.7099  -13.0014   21.0090 C   0  0  0  0  0  0
  -25.2509  -13.8123   20.5573 C   0  0  0  0  0  0
  -24.1804  -13.0394   20.9141 C   0  0  0  0  0  0
  -24.6412  -11.6886   20.8754 C   0  0  0  0  0  0
  -23.9080  -10.4273   21.0412 C   0  0  0  0  0  0
  -24.3623   -9.4189   21.9192 C   0  0  0  0  0  0
  -23.6293   -8.2230   22.0759 C   0  0  0  0  0  0
  -22.4280   -8.0271   21.3545 C   0  0  0  0  0  0
  -21.9918   -9.0244   20.4648 C   0  0  0  0  0  0
  -22.7254  -10.2120   20.3056 C   0  0  0  0  0  0
  -21.6846   -6.0735   22.5282 C   0  0  0  0  0  0
  -21.4009   -6.5637   23.8211 C   0  0  0  0  0  0
  -21.3660   -5.6789   24.9173 C   0  0  0  0  0  0
  -21.6044   -4.3052   24.7223 C   0  0  0  0  0  0
  -21.8819   -3.8148   23.4341 C   0  0  0  0  0  0
  -21.9194   -4.6966   22.3403 C   0  0  0  0  0  0
  -22.7826  -13.5185   21.1818 C   0  0  0  0  0  0
  -22.1661   -4.2151   21.0980 F   0  0  0  0  0  0
  -21.5631   -3.4537   25.7737 F   0  0  0  0  0  0
  -30.0529  -13.2881   20.4681 N   0  0  0  0  0  0
  -26.3048  -12.9360   20.3445 N   0  0  0  0  0  0
  -25.9362  -11.6510   20.5852 N   0  0  0  0  0  0
  -22.0488  -12.8187   22.0405 N   0  0  0  0  0  0
  -25.4030  -15.1807   20.3771 N   0  0  0  0  0  0
  -31.7859  -14.6669   19.9803 O   0  0  0  0  0  0
  -21.6636   -6.8877   21.4244 O   0  0  0  0  0  0
  -22.3496  -14.5497   20.6690 O   0  0  0  0  0  0
  -24.6135  -31.8681   23.2086 C   0  0  0  0  0  0
  -25.9033  -32.4817   23.8384 C   0  0  1  0  0  0
  -27.2412  -27.4359   20.0960 C   0  0  0  0  0  0
  -25.5912  -33.8612   24.2326 N   0  0  0  0  0  0
  -23.4025  -30.4894   21.5497 C   0  0  2  0  0  0
  -24.8524  -28.9546   20.1166 C   0  0  0  0  0  0
  -22.7410  -29.4640   22.4992 C   0  0  0  0  0  0
  -18.0279  -28.1356   22.8483 C   0  0  0  0  0  0
  -24.1496  -36.7298   23.2642 C   0  0  0  0  0  0
  -25.9319  -30.8336   21.3627 C   0  0  0  0  0  0
  -26.0114  -29.4672   20.7117 C   0  0  0  0  0  0
  -27.2106  -28.7164   20.6955 C   0  0  0  0  0  0
  -26.0645  -26.9393   19.4933 C   0  0  0  0  0  0
  -24.8729  -27.6895   19.5047 C   0  0  0  0  0  0
  -23.6128  -29.8205   20.1656 C   0  0  0  0  0  0
  -25.4112  -36.3099   24.0348 C   0  0  1  0  0  0
  -20.5864  -28.3638   23.1325 C   0  0  2  0  0  0
  -20.6763  -26.9378   22.5420 C   0  0  0  0  0  0
  -19.5748  -26.6373   21.5208 C   0  0  0  0  0  0
  -18.1925  -26.7904   22.1614 C   0  0  0  0  0  0
  -19.1527  -28.8818   23.2897 C   0  0  0  0  0  0
  -18.9460  -30.1427   23.8904 C   0  0  0  0  0  0
  -17.6465  -30.6570   24.0556 C   0  0  0  0  0  0
  -25.9041  -34.9466   23.5127 C   0  0  0  0  0  0
  -16.5351  -29.9069   23.6324 C   0  0  0  0  0  0
  -16.7266  -28.6486   23.0337 C   0  0  0  0  0  0
  -26.4467  -31.6593   25.0707 C   0  0  0  0  0  0
  -25.3723  -31.3713   26.1451 C   0  0  0  0  0  0
  -27.0301  -30.3049   24.6057 C   0  0  0  0  0  0
  -27.6051  -32.4309   25.7464 C   0  0  0  0  0  0
  -27.5581  -37.1799   24.8470 C   0  0  0  0  0  0
  -21.4139  -29.3017   22.3744 N   0  0  0  0  0  0
  -26.4297  -37.3781   23.9412 N   0  0  0  0  0  0
  -24.6672  -31.0778   22.0990 N   0  0  0  0  0  0
  -23.4187  -28.8172   23.3018 O   0  0  0  0  0  0
  -28.4046  -26.6944   20.0742 O   0  0  0  0  0  0
  -26.5591  -34.8923   22.4678 O   0  0  0  0  0  0
  -23.5331  -32.1444   23.7485 O   0  0  0  0  0  0
  -31.6918  -18.8593   21.5699 C   0  0  0  0  0  0
  -30.5113  -19.6217   21.7095 C   0  0  0  0  0  0
  -29.2680  -18.9377   21.7638 C   0  0  0  0  0  0
  -30.4267  -16.7529   21.5369 C   0  0  0  0  0  0
  -31.6684  -17.4477   21.5194 C   0  0  0  0  0  0
  -29.2411  -17.5163   21.6886 C   0  0  0  0  0  0
  -30.0862  -24.5332   19.1416 C   0  0  0  0  0  0
  -29.4380  -24.4357   20.3171 C   0  0  0  0  0  0
  -27.9786  -19.7335   21.9631 C   0  0  0  0  0  0
  -30.6228  -21.1334   21.9868 C   0  0  0  0  0  0
  -29.7773  -23.3829   21.3838 C   0  0  0  0  0  0
  -28.3140  -25.4042   20.7047 C   0  0  0  0  0  0
  -30.2753  -15.3215   21.5200 N   0  0  0  0  0  0
  -30.2165  -22.0470   20.8852 N   0  3  0  0  0  0
  -33.1999  -16.6453   21.5811 Cl  0  0  0  0  0  0
  -27.7457  -16.6636   21.8568 Cl  0  0  0  0  0  0
  -31.4640  -12.3809   19.1294 H   0  0  0  0  0  0
  -30.3015  -11.2953   19.8243 H   0  0  0  0  0  0
  -29.7315  -11.7922   17.4341 H   0  0  0  0  0  0
  -29.6649  -13.5031   17.7818 H   0  0  0  0  0  0
  -27.8338  -11.3175   18.8292 H   0  0  0  0  0  0
  -27.3648  -12.6433   17.7984 H   0  0  0  0  0  0
  -27.7094  -14.2638   19.5908 H   0  0  0  0  0  0
  -28.6790  -11.9694   21.3609 H   0  0  0  0  0  0
  -28.4595  -13.6096   21.8785 H   0  0  0  0  0  0
  -25.2760   -9.5658   22.4774 H   0  0  0  0  0  0
  -23.9996   -7.4615   22.7471 H   0  0  0  0  0  0
  -21.0852   -8.8764   19.8940 H   0  0  0  0  0  0
  -22.3717  -10.9661   19.6164 H   0  0  0  0  0  0
  -21.1994   -7.6143   23.9717 H   0  0  0  0  0  0
  -21.1482   -6.0518   25.9077 H   0  0  0  0  0  0
  -22.0602   -2.7610   23.2842 H   0  0  0  0  0  0
  -22.4109  -11.9838   22.4776 H   0  0  0  0  0  0
  -21.1111  -13.1210   22.2631 H   0  0  0  0  0  0
  -24.6404  -15.8326   20.5178 H   0  0  0  0  0  0
  -26.2879  -15.6406   20.2051 H   0  0  0  0  0  0
  -26.7088  -32.5538   23.1134 H   0  0  0  0  0  0
  -25.0094  -33.9783   25.0493 H   0  0  0  0  0  0
  -22.6902  -31.3046   21.4087 H   0  0  0  0  0  0
  -23.3764  -35.9625   23.3316 H   0  0  0  0  0  0
  -24.3597  -36.8890   22.2053 H   0  0  0  0  0  0
  -23.7239  -37.6507   23.6641 H   0  0  0  0  0  0
  -26.0428  -31.5999   20.5940 H   0  0  0  0  0  0
  -26.8198  -30.8880   21.9807 H   0  0  0  0  0  0
  -28.1076  -29.1107   21.1520 H   0  0  0  0  0  0
  -26.0674  -25.9770   19.0019 H   0  0  0  0  0  0
  -23.9831  -27.2902   19.0365 H   0  0  0  0  0  0
  -23.7156  -30.5943   19.4042 H   0  0  0  0  0  0
  -22.7388  -29.2377   19.8708 H   0  0  0  0  0  0
  -25.1280  -36.1972   25.0843 H   0  0  0  0  0  0
  -20.9955  -28.3181   24.1446 H   0  0  0  0  0  0
  -20.5666  -26.2234   23.3587 H   0  0  0  0  0  0
  -21.6630  -26.7400   22.1209 H   0  0  0  0  0  0
  -19.6911  -25.6294   21.1208 H   0  0  0  0  0  0
  -19.6698  -27.3199   20.6752 H   0  0  0  0  0  0
  -17.4196  -26.6666   21.4018 H   0  0  0  0  0  0
  -18.0320  -26.0032   22.9001 H   0  0  0  0  0  0
  -19.7941  -30.7240   24.2272 H   0  0  0  0  0  0
  -17.5021  -31.6255   24.5143 H   0  0  0  0  0  0
  -15.5353  -30.2970   23.7656 H   0  0  0  0  0  0
  -15.8664  -28.0817   22.7036 H   0  0  0  0  0  0
  -24.5889  -30.7073   25.7788 H   0  0  0  0  0  0
  -24.8925  -32.2883   26.4893 H   0  0  0  0  0  0
  -25.8061  -30.8880   27.0215 H   0  0  0  0  0  0
  -26.2842  -29.6814   24.1118 H   0  0  0  0  0  0
  -27.4120  -29.7278   25.4490 H   0  0  0  0  0  0
  -27.8649  -30.4408   23.9174 H   0  0  0  0  0  0
  -27.2680  -33.3614   26.2049 H   0  0  0  0  0  0
  -28.3852  -32.6853   25.0275 H   0  0  0  0  0  0
  -28.0715  -31.8416   26.5372 H   0  0  0  0  0  0
  -28.2591  -38.0098   24.7512 H   0  0  0  0  0  0
  -28.1083  -36.2629   24.6301 H   0  0  0  0  0  0
  -27.2305  -37.1453   25.8875 H   0  0  0  0  0  0
  -20.9298  -29.8759   21.6985 H   0  0  0  0  0  0
  -26.0196  -38.2866   24.1407 H   0  0  0  0  0  0
  -32.6525  -19.3550   21.5814 H   0  0  0  0  0  0
  -30.8926  -23.8692   18.8655 H   0  0  0  0  0  0
  -29.8174  -25.2971   18.4248 H   0  0  0  0  0  0
  -27.9480  -20.1666   22.9630 H   0  0  0  0  0  0
  -27.0739  -19.1414   21.8427 H   0  0  0  0  0  0
  -27.9043  -20.5438   21.2387 H   0  0  0  0  0  0
  -31.6466  -21.3811   22.2719 H   0  0  0  0  0  0
  -30.0295  -21.3439   22.8777 H   0  0  0  0  0  0
  -28.8894  -23.2281   21.9995 H   0  0  0  0  0  0
  -30.5405  -23.8043   22.0415 H   0  0  0  0  0  0
  -28.3539  -25.5724   21.7817 H   0  0  0  0  0  0
  -27.3686  -24.8980   20.5093 H   0  0  0  0  0  0
  -29.4286  -14.9976   21.9627 H   0  0  0  0  0  0
  -29.4658  -21.6275   20.3637 H   0  0  0  0  0  0
  -31.0030  -22.1517   20.2654 H   0  0  0  0  0  0
  1 25  1  0  0  0
  1 30  2  0  0  0
  1 83  1  0  0  0
  2  3  1  0  0  0
  2 25  1  0  0  0
  2 87  1  0  0  0
  2 88  1  0  0  0
  3  4  1  0  0  0
  3 89  1  0  0  0
  3 90  1  0  0  0
  4  5  1  0  0  0
  4 91  1  0  0  0
  4 92  1  0  0  0
  5  6  1  0  0  0
  5 26  1  0  0  0
  5 93  1  0  0  0
  6 25  1  0  0  0
  6 94  1  0  0  0
  6 95  1  0  0  0
  7  8  2  0  0  0
  7 26  1  0  0  0
  7 29  1  0  0  0
  8  9  1  0  0  0
  8 22  1  0  0  0
  9 10  1  0  0  0
  9 27  2  0  0  0
 10 11  2  0  0  0
 10 15  1  0  0  0
 11 12  1  0  0  0
 11 96  1  0  0  0
 12 13  2  0  0  0
 12 97  1  0  0  0
 13 14  1  0  0  0
 13 31  1  0  0  0
 14 15  2  0  0  0
 14 98  1  0  0  0
 15 99  1  0  0  0
 16 17  2  0  0  0
 16 21  1  0  0  0
 16 31  1  0  0  0
 17 18  1  0  0  0
 17100  1  0  0  0
 18 19  2  0  0  0
 18101  1  0  0  0
 19 20  1  0  0  0
 19 24  1  0  0  0
 20 21  2  0  0  0
 20102  1  0  0  0
 21 23  1  0  0  0
 22 28  1  0  0  0
 22 32  2  0  0  0
 26 27  1  0  0  0
 28103  1  0  0  0
 28104  1  0  0  0
 29105  1  0  0  0
 29106  1  0  0  0
 33 34  1  0  0  0
 33 66  1  0  0  0
 33 70  2  0  0  0
 34 36  1  0  0  0
 34 59  1  0  0  0
 34107  1  0  0  0
 35 44  2  0  0  0
 35 45  1  0  0  0
 35 68  1  0  0  0
 36 56  1  0  0  0
 36108  1  0  0  0
 37 39  1  0  0  0
 37 47  1  0  0  0
 37 66  1  0  0  0
 37109  1  0  0  0
 38 43  2  0  0  0
 38 46  1  0  0  0
 38 47  1  0  0  0
 39 64  1  0  0  0
 39 67  2  0  0  0
 40 52  1  0  0  0
 40 53  2  0  0  0
 40 58  1  0  0  0
 41110  1  0  0  0
 41111  1  0  0  0
 41112  1  0  0  0
 41 48  1  0  0  0
 42 43  1  0  0  0
 42 66  1  0  0  0
 42113  1  0  0  0
 42114  1  0  0  0
 43 44  1  0  0  0
 44115  1  0  0  0
 45 46  2  0  0  0
 45116  1  0  0  0
 46117  1  0  0  0
 47118  1  0  0  0
 47119  1  0  0  0
 48 56  1  0  0  0
 48 65  1  0  0  0
 48120  1  0  0  0
 49 50  1  0  0  0
 49 53  1  0  0  0
 49 64  1  0  0  0
 49121  1  0  0  0
 50 51  1  0  0  0
 50122  1  0  0  0
 50123  1  0  0  0
 51 52  1  0  0  0
 51124  1  0  0  0
 51125  1  0  0  0
 52126  1  0  0  0
 52127  1  0  0  0
 53 54  1  0  0  0
 54 55  2  0  0  0
 54128  1  0  0  0
 55 57  1  0  0  0
 55129  1  0  0  0
 56 69  2  0  0  0
 57 58  2  0  0  0
 57130  1  0  0  0
 58131  1  0  0  0
 59 60  1  0  0  0
 59 61  1  0  0  0
 59 62  1  0  0  0
 60132  1  0  0  0
 60133  1  0  0  0
 60134  1  0  0  0
 61135  1  0  0  0
 61136  1  0  0  0
 61137  1  0  0  0
 62138  1  0  0  0
 62139  1  0  0  0
 62140  1  0  0  0
 63 65  1  0  0  0
 63141  1  0  0  0
 63142  1  0  0  0
 63143  1  0  0  0
 64144  1  0  0  0
 65145  1  0  0  0
 68 82  1  0  0  0
 71 72  2  0  0  0
 71 75  1  0  0  0
 71146  1  0  0  0
 72 73  1  0  0  0
 72 80  1  0  0  0
 73 76  2  0  0  0
 73 79  1  0  0  0
 74 75  2  0  0  0
 74 76  1  0  0  0
 74 83  1  0  0  0
 75 85  1  0  0  0
 76 86  1  0  0  0
 77 78  2  0  0  0
 77147  1  0  0  0
 77148  1  0  0  0
 78 81  1  0  0  0
 78 82  1  0  0  0
 79149  1  0  0  0
 79150  1  0  0  0
 79151  1  0  0  0
 80 84  1  0  0  0
 80152  1  0  0  0
 80153  1  0  0  0
 81 84  1  0  0  0
 81154  1  0  0  0
 81155  1  0  0  0
 82156  1  0  0  0
 82157  1  0  0  0
 83158  1  0  0  0
 84159  1  0  0  0
 84160  1  0  0  0
M  CHG  1  84   1
M  ISO  4   1 100  68 101  82 101  83 100
M  END
> <chiral flag>
0

> <version>
0

> <s_m_source_file>
/data/baiqing/PycharmProjects/Reinvent-master-3.2/result/LINK_invent/BTK/process_docking_weight1_custom_product_contain_oxygen_bond_distance_aromatic_linkinvent_7_9_3/rearranged_h_0037.sdf

> <i_m_source_file_index>
80

> <r_mmod_Potential_Energy-OPLS-2005>
-267.424438476562

> <r_mmod_Stretch_Energy-OPLS-2005>
42.6743125915527

> <r_mmod_Bend_Energy-OPLS-2005>
106.750595092773

> <r_mmod_Torsional_Energy-OPLS-2005>
239.99137878418

> <r_mmod_Improper_Torsional_Energy-OPLS-2005>
5.38674640655518

> <r_mmod_Van_der_Waal_Energy-OPLS-2005>
160.494766235352

> <r_mmod_Electrostatic_Energy-OPLS-2005>
-351.255126953125

> <r_mmod_Solvation_Energy-OPLS-2005>
-482.214691162109

> <b_mmod_Minimization_Converged-OPLS-2005>
0

> <r_mmod_RMS_Derivative-OPLS-2005>
1.67502403259277

$$$$
80
                    3D
 Structure written by MMmdl.
178187  0  0  1  0            999 V2000
  -30.7244  -14.4684   20.4979 C   0  0  0  0  0  0
  -30.4166  -12.2857   19.4319 C   0  0  0  0  0  0
  -29.4975  -12.4800   18.2094 C   0  0  0  0  0  0
  -28.0175  -12.3563   18.6243 C   0  0  0  0  0  0
  -27.6603  -13.2165   19.8684 C   0  0  2  0  0  0
  -28.7071  -13.0391   20.9922 C   0  0  0  0  0  0
  -25.2583  -13.8187   20.5632 C   0  0  0  0  0  0
  -24.1843  -13.0453   20.9195 C   0  0  0  0  0  0
  -24.6414  -11.6927   20.8778 C   0  0  0  0  0  0
  -23.9070  -10.4307   21.0456 C   0  0  0  0  0  0
  -24.3609   -9.4207   21.9227 C   0  0  0  0  0  0
  -23.6279   -8.2245   22.0780 C   0  0  0  0  0  0
  -22.4275   -8.0299   21.3577 C   0  0  0  0  0  0
  -21.9909   -9.0274   20.4682 C   0  0  0  0  0  0
  -22.7243  -10.2151   20.3100 C   0  0  0  0  0  0
  -21.6845   -6.0742   22.5285 C   0  0  0  0  0  0
  -21.4019   -6.5642   23.8208 C   0  0  0  0  0  0
  -21.3652   -5.6803   24.9178 C   0  0  0  0  0  0
  -21.6048   -4.3066   24.7238 C   0  0  0  0  0  0
  -21.8815   -3.8150   23.4360 C   0  0  0  0  0  0
  -21.9180   -4.6964   22.3405 C   0  0  0  0  0  0
  -22.7880  -13.5278   21.1845 C   0  0  0  0  0  0
  -22.1654   -4.2147   21.0982 F   0  0  0  0  0  0
  -21.5629   -3.4539   25.7743 F   0  0  0  0  0  0
  -30.0388  -13.2998   20.4221 N   0  0  0  0  0  0
  -26.3042  -12.9380   20.3377 N   0  0  0  0  0  0
  -25.9357  -11.6547   20.5850 N   0  0  0  0  0  0
  -22.0456  -12.8296   22.0375 N   0  0  0  0  0  0
  -25.4269  -15.1891   20.3943 N   0  0  0  0  0  0
  -31.8918  -14.5939   20.1189 O   0  0  0  0  0  0
  -21.6641   -6.8907   21.4261 O   0  0  0  0  0  0
  -22.3572  -14.5578   20.6676 O   0  0  0  0  0  0
  -24.6145  -31.8683   23.2178 C   0  0  0  0  0  0
  -25.9077  -32.4853   23.8363 C   0  0  1  0  0  0
  -27.2140  -27.4485   20.0832 C   0  0  0  0  0  0
  -25.5931  -33.8630   24.2319 N   0  0  0  0  0  0
  -23.3966  -30.5002   21.5589 C   0  0  2  0  0  0
  -24.8389  -28.9779   20.1130 C   0  0  0  0  0  0
  -22.7441  -29.4654   22.5048 C   0  0  0  0  0  0
  -18.0333  -28.1367   22.8452 C   0  0  0  0  0  0
  -24.1498  -36.7337   23.2624 C   0  0  0  0  0  0
  -25.9287  -30.8395   21.3743 C   0  0  0  0  0  0
  -26.0010  -29.4755   20.7209 C   0  0  0  0  0  0
  -27.1919  -28.7109   20.7174 C   0  0  0  0  0  0
  -26.0486  -26.9962   19.4271 C   0  0  0  0  0  0
  -24.8550  -27.7352   19.4675 C   0  0  0  0  0  0
  -23.6007  -29.8436   20.1679 C   0  0  0  0  0  0
  -25.4121  -36.3133   24.0351 C   0  0  1  0  0  0
  -20.5926  -28.3600   23.1332 C   0  0  2  0  0  0
  -20.6901  -26.9406   22.5263 C   0  0  0  0  0  0
  -19.5873  -26.6541   21.5058 C   0  0  0  0  0  0
  -18.2026  -26.7990   22.1435 C   0  0  0  0  0  0
  -19.1587  -28.8780   23.2908 C   0  0  0  0  0  0
  -18.9559  -30.1345   23.8974 C   0  0  0  0  0  0
  -17.6591  -30.6549   24.0609 C   0  0  0  0  0  0
  -25.9041  -34.9500   23.5133 C   0  0  0  0  0  0
  -16.5451  -29.9079   23.6364 C   0  0  0  0  0  0
  -16.7312  -28.6503   23.0369 C   0  0  0  0  0  0
  -26.4474  -31.6603   25.0676 C   0  0  0  0  0  0
  -25.3747  -31.3698   26.1432 C   0  0  0  0  0  0
  -27.0271  -30.3062   24.6031 C   0  0  0  0  0  0
  -27.6073  -32.4248   25.7449 C   0  0  0  0  0  0
  -27.5604  -37.1831   24.8461 C   0  0  0  0  0  0
  -21.4160  -29.3064   22.3862 N   0  0  0  0  0  0
  -26.4304  -37.3840   23.9417 N   0  0  0  0  0  0
  -24.6648  -31.0800   22.1082 N   0  0  0  0  0  0
  -23.4288  -28.8162   23.2989 O   0  0  0  0  0  0
  -28.3644  -26.6916   20.0417 O   0  0  0  0  0  0
  -26.5572  -34.8948   22.4672 O   0  0  0  0  0  0
  -23.5354  -32.1353   23.7664 O   0  0  0  0  0  0
  -28.7423  -18.1129   21.8687 C   0  0  0  0  0  0
  -28.9004  -18.7779   19.5516 C   0  0  0  0  0  0
  -29.3334  -17.9580   20.6108 C   0  0  0  0  0  0
  -27.7345  -19.0702   22.0918 C   0  0  0  0  0  0
  -27.8722  -19.7407   19.7312 C   0  0  0  0  0  0
  -27.2820  -19.9167   21.0324 C   0  0  0  0  0  0
  -24.9773  -20.6207   16.1101 C   0  0  0  0  0  0
  -24.4792  -19.3522   16.7991 C   0  0  0  0  0  0
  -26.5023  -20.4791   16.1850 C   0  0  0  0  0  0
  -25.5438  -19.0616   17.8638 C   0  0  0  0  0  0
  -27.1433  -19.1127   23.4988 C   0  0  0  0  0  0
  -30.4233  -16.9148   20.4194 C   0  0  0  0  0  0
  -27.4706  -20.5367   18.4779 C   0  0  0  0  0  0
  -26.1019  -20.8800   21.3298 C   0  0  0  0  0  0
  -27.2699  -24.4896   20.6129 C   0  0  0  0  0  0
  -27.3972  -23.0821   21.2408 C   0  0  0  0  0  0
  -28.4086  -25.5103   20.8652 C   0  0  0  0  0  0
  -29.9849  -15.5549   20.7519 N   0  0  0  0  0  0
  -26.7994  -19.7245   17.4292 N   0  3  0  0  0  0
  -26.1831  -22.2957   20.9071 N   0  3  0  0  0  0
  -31.4654  -12.3583   19.1386 H   0  0  0  0  0  0
  -30.2937  -11.2885   19.8518 H   0  0  0  0  0  0
  -29.7318  -11.7368   17.4450 H   0  0  0  0  0  0
  -29.6790  -13.4555   17.7580 H   0  0  0  0  0  0
  -27.8309  -11.3054   18.8419 H   0  0  0  0  0  0
  -27.3687  -12.6144   17.7842 H   0  0  0  0  0  0
  -27.6907  -14.2599   19.5486 H   0  0  0  0  0  0
  -28.6715  -12.0258   21.3926 H   0  0  0  0  0  0
  -28.4943  -13.7065   21.8303 H   0  0  0  0  0  0
  -25.2754   -9.5663   22.4814 H   0  0  0  0  0  0
  -23.9975   -7.4642   22.7499 H   0  0  0  0  0  0
  -21.0846   -8.8818   19.8982 H   0  0  0  0  0  0
  -22.3726  -10.9706   19.6211 H   0  0  0  0  0  0
  -21.2029   -7.6146   23.9713 H   0  0  0  0  0  0
  -21.1469   -6.0533   25.9074 H   0  0  0  0  0  0
  -22.0589   -2.7605   23.2853 H   0  0  0  0  0  0
  -22.4015  -11.9942   22.4797 H   0  0  0  0  0  0
  -21.1101  -13.1422   22.2613 H   0  0  0  0  0  0
  -24.6515  -15.8368   20.4751 H   0  0  0  0  0  0
  -26.2790  -15.6241   20.0647 H   0  0  0  0  0  0
  -26.7180  -32.5589   23.1136 H   0  0  0  0  0  0
  -25.0073  -33.9737   25.0477 H   0  0  0  0  0  0
  -22.6816  -31.3176   21.4288 H   0  0  0  0  0  0
  -23.3786  -35.9641   23.3307 H   0  0  0  0  0  0
  -24.3578  -36.8921   22.2027 H   0  0  0  0  0  0
  -23.7238  -37.6558   23.6582 H   0  0  0  0  0  0
  -26.0324  -31.6145   20.6118 H   0  0  0  0  0  0
  -26.8215  -30.8882   21.9845 H   0  0  0  0  0  0
  -28.0897  -29.0778   21.1983 H   0  0  0  0  0  0
  -26.0502  -26.0782   18.8615 H   0  0  0  0  0  0
  -23.9690  -27.3673   18.9687 H   0  0  0  0  0  0
  -23.7149  -30.6199   19.4104 H   0  0  0  0  0  0
  -22.7170  -29.2744   19.8686 H   0  0  0  0  0  0
  -25.1314  -36.1976   25.0844 H   0  0  0  0  0  0
  -20.9999  -28.3033   24.1450 H   0  0  0  0  0  0
  -20.5954  -26.2084   23.3317 H   0  0  0  0  0  0
  -21.6757  -26.7651   22.0935 H   0  0  0  0  0  0
  -19.7050  -25.6542   21.0883 H   0  0  0  0  0  0
  -19.6893  -27.3530   20.6762 H   0  0  0  0  0  0
  -17.4407  -26.6878   21.3705 H   0  0  0  0  0  0
  -18.0393  -26.0032   22.8692 H   0  0  0  0  0  0
  -19.8085  -30.7037   24.2429 H   0  0  0  0  0  0
  -17.5214  -31.6209   24.5250 H   0  0  0  0  0  0
  -15.5476  -30.3018   23.7733 H   0  0  0  0  0  0
  -15.8685  -28.0864   22.7094 H   0  0  0  0  0  0
  -24.5954  -30.6992   25.7821 H   0  0  0  0  0  0
  -24.8880  -32.2818   26.4846 H   0  0  0  0  0  0
  -25.8132  -30.8911   27.0193 H   0  0  0  0  0  0
  -26.2772  -29.6878   24.1081 H   0  0  0  0  0  0
  -27.4028  -29.7257   25.4462 H   0  0  0  0  0  0
  -27.8621  -30.4416   23.9173 H   0  0  0  0  0  0
  -27.2718  -33.3515   26.2097 H   0  0  0  0  0  0
  -28.3870  -32.6816   25.0284 H   0  0  0  0  0  0
  -28.0721  -31.8266   26.5288 H   0  0  0  0  0  0
  -28.2646  -38.0110   24.7525 H   0  0  0  0  0  0
  -28.1071  -36.2645   24.6274 H   0  0  0  0  0  0
  -27.2271  -37.1493   25.8844 H   0  0  0  0  0  0
  -20.9293  -29.8847   21.7194 H   0  0  0  0  0  0
  -26.0235  -38.2942   24.1382 H   0  0  0  0  0  0
  -29.0742  -17.4714   22.6723 H   0  0  0  0  0  0
  -29.3580  -18.6451   18.5792 H   0  0  0  0  0  0
  -24.6596  -21.5127   16.6592 H   0  0  0  0  0  0
  -24.6031  -20.7191   15.0901 H   0  0  0  0  0  0
  -24.4288  -18.5265   16.0885 H   0  0  0  0  0  0
  -23.4849  -19.4712   17.2313 H   0  0  0  0  0  0
  -27.0141  -21.4421   16.1128 H   0  0  0  0  0  0
  -26.8569  -19.8730   15.3482 H   0  0  0  0  0  0
  -25.6964  -17.9881   17.9876 H   0  0  0  0  0  0
  -25.2059  -19.4533   18.8224 H   0  0  0  0  0  0
  -27.6249  -18.3839   24.1537 H   0  0  0  0  0  0
  -26.0782  -18.8713   23.4898 H   0  0  0  0  0  0
  -27.2829  -20.0940   23.9574 H   0  0  0  0  0  0
  -31.2743  -17.1813   21.0517 H   0  0  0  0  0  0
  -30.7845  -16.9420   19.3884 H   0  0  0  0  0  0
  -28.3820  -20.9653   18.0568 H   0  0  0  0  0  0
  -26.8356  -21.3851   18.7056 H   0  0  0  0  0  0
  -25.8980  -20.9373   22.3960 H   0  0  0  0  0  0
  -25.2002  -20.4411   20.8996 H   0  0  0  0  0  0
  -26.3431  -24.9309   20.9800 H   0  0  0  0  0  0
  -27.1685  -24.3642   19.5340 H   0  0  0  0  0  0
  -27.5042  -23.1405   22.3253 H   0  0  0  0  0  0
  -28.2792  -22.5736   20.8490 H   0  0  0  0  0  0
  -28.4255  -25.8155   21.9113 H   0  0  0  0  0  0
  -29.3666  -25.0226   20.6778 H   0  0  0  0  0  0
  -29.0134  -15.4190   20.9850 H   0  0  0  0  0  0
  -27.4505  -18.9987   17.1655 H   0  0  0  0  0  0
  -25.4021  -22.7522   21.3530 H   0  0  0  0  0  0
  -26.0126  -22.3463   19.9190 H   0  0  0  0  0  0
  1 25  1  0  0  0
  1 30  2  0  0  0
  1 88  1  0  0  0
  2  3  1  0  0  0
  2 25  1  0  0  0
  2 91  1  0  0  0
  2 92  1  0  0  0
  3  4  1  0  0  0
  3 93  1  0  0  0
  3 94  1  0  0  0
  4  5  1  0  0  0
  4 95  1  0  0  0
  4 96  1  0  0  0
  5  6  1  0  0  0
  5 26  1  0  0  0
  5 97  1  0  0  0
  6 25  1  0  0  0
  6 98  1  0  0  0
  6 99  1  0  0  0
  7  8  2  0  0  0
  7 26  1  0  0  0
  7 29  1  0  0  0
  8  9  1  0  0  0
  8 22  1  0  0  0
  9 10  1  0  0  0
  9 27  2  0  0  0
 10 11  2  0  0  0
 10 15  1  0  0  0
 11 12  1  0  0  0
 11100  1  0  0  0
 12 13  2  0  0  0
 12101  1  0  0  0
 13 14  1  0  0  0
 13 31  1  0  0  0
 14 15  2  0  0  0
 14102  1  0  0  0
 15103  1  0  0  0
 16 17  2  0  0  0
 16 21  1  0  0  0
 16 31  1  0  0  0
 17 18  1  0  0  0
 17104  1  0  0  0
 18 19  2  0  0  0
 18105  1  0  0  0
 19 20  1  0  0  0
 19 24  1  0  0  0
 20 21  2  0  0  0
 20106  1  0  0  0
 21 23  1  0  0  0
 22 28  1  0  0  0
 22 32  2  0  0  0
 26 27  1  0  0  0
 28107  1  0  0  0
 28108  1  0  0  0
 29109  1  0  0  0
 29110  1  0  0  0
 33 34  1  0  0  0
 33 66  1  0  0  0
 33 70  2  0  0  0
 34 36  1  0  0  0
 34 59  1  0  0  0
 34111  1  0  0  0
 35 44  2  0  0  0
 35 45  1  0  0  0
 35 68  1  0  0  0
 36 56  1  0  0  0
 36112  1  0  0  0
 37 39  1  0  0  0
 37 47  1  0  0  0
 37 66  1  0  0  0
 37113  1  0  0  0
 38 43  2  0  0  0
 38 46  1  0  0  0
 38 47  1  0  0  0
 39 64  1  0  0  0
 39 67  2  0  0  0
 40 52  1  0  0  0
 40 53  2  0  0  0
 40 58  1  0  0  0
 41114  1  0  0  0
 41115  1  0  0  0
 41116  1  0  0  0
 41 48  1  0  0  0
 42 43  1  0  0  0
 42 66  1  0  0  0
 42117  1  0  0  0
 42118  1  0  0  0
 43 44  1  0  0  0
 44119  1  0  0  0
 45 46  2  0  0  0
 45120  1  0  0  0
 46121  1  0  0  0
 47122  1  0  0  0
 47123  1  0  0  0
 48 56  1  0  0  0
 48 65  1  0  0  0
 48124  1  0  0  0
 49 50  1  0  0  0
 49 53  1  0  0  0
 49 64  1  0  0  0
 49125  1  0  0  0
 50 51  1  0  0  0
 50126  1  0  0  0
 50127  1  0  0  0
 51 52  1  0  0  0
 51128  1  0  0  0
 51129  1  0  0  0
 52130  1  0  0  0
 52131  1  0  0  0
 53 54  1  0  0  0
 54 55  2  0  0  0
 54132  1  0  0  0
 55 57  1  0  0  0
 55133  1  0  0  0
 56 69  2  0  0  0
 57 58  2  0  0  0
 57134  1  0  0  0
 58135  1  0  0  0
 59 60  1  0  0  0
 59 61  1  0  0  0
 59 62  1  0  0  0
 60136  1  0  0  0
 60137  1  0  0  0
 60138  1  0  0  0
 61139  1  0  0  0
 61140  1  0  0  0
 61141  1  0  0  0
 62142  1  0  0  0
 62143  1  0  0  0
 62144  1  0  0  0
 63 65  1  0  0  0
 63145  1  0  0  0
 63146  1  0  0  0
 63147  1  0  0  0
 64148  1  0  0  0
 65149  1  0  0  0
 68 87  1  0  0  0
 71 73  2  0  0  0
 71 74  1  0  0  0
 71150  1  0  0  0
 72 73  1  0  0  0
 72 75  2  0  0  0
 72151  1  0  0  0
 73 82  1  0  0  0
 74 76  2  0  0  0
 74 81  1  0  0  0
 75 76  1  0  0  0
 75 83  1  0  0  0
 76 84  1  0  0  0
 77 78  1  0  0  0
 77 79  1  0  0  0
 77152  1  0  0  0
 77153  1  0  0  0
 78 80  1  0  0  0
 78154  1  0  0  0
 78155  1  0  0  0
 79 89  1  0  0  0
 79156  1  0  0  0
 79157  1  0  0  0
 80 89  1  0  0  0
 80158  1  0  0  0
 80159  1  0  0  0
 81160  1  0  0  0
 81161  1  0  0  0
 81162  1  0  0  0
 82 88  1  0  0  0
 82163  1  0  0  0
 82164  1  0  0  0
 83165  1  0  0  0
 83166  1  0  0  0
 83 89  1  0  0  0
 84 90  1  0  0  0
 84167  1  0  0  0
 84168  1  0  0  0
 85 86  1  0  0  0
 85 87  1  0  0  0
 85169  1  0  0  0
 85170  1  0  0  0
 86 90  1  0  0  0
 86171  1  0  0  0
 86172  1  0  0  0
 87173  1  0  0  0
 87174  1  0  0  0
 88175  1  0  0  0
 89176  1  0  0  0
 90177  1  0  0  0
 90178  1  0  0  0
M  CHG  2  89   1  90   1
M  ISO  4   1 100  68 101  87 101  88 100
M  END
> <chiral flag>
0

> <version>
0

> <s_m_source_file>
/data/baiqing/PycharmProjects/Reinvent-master-3.2/result/LINK_invent/BTK/process_docking_weight1_custom_product_contain_oxygen_bond_distance_aromatic_linkinvent_7_9_3/rearranged_h_0037.sdf

> <i_m_source_file_index>
81

> <r_mmod_Potential_Energy-OPLS-2005>
-288.211883544922

> <r_mmod_Stretch_Energy-OPLS-2005>
42.0944976806641

> <r_mmod_Bend_Energy-OPLS-2005>
137.168014526367

> <r_mmod_Torsional_Energy-OPLS-2005>
284.570098876953

> <r_mmod_Improper_Torsional_Energy-OPLS-2005>
7.25596714019775

> <r_mmod_Van_der_Waal_Energy-OPLS-2005>
150.93408203125

> <r_mmod_Electrostatic_Energy-OPLS-2005>
54.5950012207031

> <r_mmod_Solvation_Energy-OPLS-2005>
-982.655456542969

> <b_mmod_Minimization_Converged-OPLS-2005>
0

> <r_mmod_RMS_Derivative-OPLS-2005>
5.7663745880127

$$$$
81
                    3D
 Structure written by MMmdl.
162170  0  0  1  0            999 V2000
  -30.5839  -14.6697   20.5234 C   0  0  0  0  0  0
  -30.4452  -12.4162   19.4549 C   0  0  0  0  0  0
  -29.5146  -12.5247   18.2243 C   0  0  0  0  0  0
  -28.0346  -12.3552   18.6261 C   0  0  0  0  0  0
  -27.6536  -13.2124   19.8628 C   0  0  2  0  0  0
  -28.6952  -13.0478   20.9931 C   0  0  0  0  0  0
  -25.2518  -13.8112   20.5592 C   0  0  0  0  0  0
  -24.1817  -13.0405   20.9230 C   0  0  0  0  0  0
  -24.6389  -11.6886   20.8754 C   0  0  0  0  0  0
  -23.9046  -10.4287   21.0400 C   0  0  0  0  0  0
  -24.3614   -9.4207   21.9167 C   0  0  0  0  0  0
  -23.6291   -8.2237   22.0731 C   0  0  0  0  0  0
  -22.4271   -8.0279   21.3528 C   0  0  0  0  0  0
  -21.9908   -9.0255   20.4629 C   0  0  0  0  0  0
  -22.7233  -10.2134   20.3039 C   0  0  0  0  0  0
  -21.6853   -6.0742   22.5289 C   0  0  0  0  0  0
  -21.4012   -6.5638   23.8228 C   0  0  0  0  0  0
  -21.3658   -5.6782   24.9182 C   0  0  0  0  0  0
  -21.6043   -4.3045   24.7225 C   0  0  0  0  0  0
  -21.8816   -3.8147   23.4345 C   0  0  0  0  0  0
  -21.9190   -4.6970   22.3407 C   0  0  0  0  0  0
  -22.7849  -13.5226   21.1900 C   0  0  0  0  0  0
  -22.1659   -4.2160   21.0981 F   0  0  0  0  0  0
  -21.5629   -3.4525   25.7737 F   0  0  0  0  0  0
  -30.0089  -13.4234   20.4446 N   0  0  0  0  0  0
  -26.2963  -12.9310   20.3240 N   0  0  0  0  0  0
  -25.9305  -11.6480   20.5730 N   0  0  0  0  0  0
  -22.0467  -12.8222   22.0452 N   0  0  0  0  0  0
  -25.4095  -15.1812   20.3789 N   0  0  0  0  0  0
  -31.7265  -14.8679   20.0984 O   0  0  0  0  0  0
  -21.6632   -6.8881   21.4245 O   0  0  0  0  0  0
  -22.3562  -14.5550   20.6769 O   0  0  0  0  0  0
  -24.6232  -31.8607   23.1994 C   0  0  0  0  0  0
  -25.9087  -32.4784   23.8330 C   0  0  1  0  0  0
  -27.2265  -27.3210   20.1288 C   0  0  0  0  0  0
  -25.5909  -33.8586   24.2260 N   0  0  0  0  0  0
  -23.4164  -30.4812   21.5419 C   0  0  2  0  0  0
  -24.8623  -28.9242   20.1160 C   0  0  0  0  0  0
  -22.7448  -29.4636   22.4936 C   0  0  0  0  0  0
  -18.0293  -28.1375   22.8482 C   0  0  0  0  0  0
  -24.1482  -36.7304   23.2642 C   0  0  0  0  0  0
  -25.9526  -30.7944   21.3641 C   0  0  0  0  0  0
  -26.0286  -29.4171   20.7138 C   0  0  0  0  0  0
  -27.2148  -28.6292   20.7021 C   0  0  0  0  0  0
  -26.0399  -26.8672   19.5189 C   0  0  0  0  0  0
  -24.8685  -27.6548   19.5102 C   0  0  0  0  0  0
  -23.6287  -29.8049   20.1605 C   0  0  0  0  0  0
  -25.4119  -36.3096   24.0320 C   0  0  1  0  0  0
  -20.5883  -28.3689   23.1280 C   0  0  2  0  0  0
  -20.6779  -26.9415   22.5410 C   0  0  0  0  0  0
  -19.5763  -26.6375   21.5205 C   0  0  0  0  0  0
  -18.1940  -26.7925   22.1607 C   0  0  0  0  0  0
  -19.1542  -28.8847   23.2875 C   0  0  0  0  0  0
  -18.9473  -30.1449   23.8891 C   0  0  0  0  0  0
  -17.6476  -30.6586   24.0558 C   0  0  0  0  0  0
  -25.9053  -34.9459   23.5096 C   0  0  0  0  0  0
  -16.5365  -29.9081   23.6332 C   0  0  0  0  0  0
  -16.7281  -28.6490   23.0364 C   0  0  0  0  0  0
  -26.4476  -31.6604   25.0709 C   0  0  0  0  0  0
  -25.3705  -31.3742   26.1429 C   0  0  0  0  0  0
  -27.0325  -30.3033   24.6162 C   0  0  0  0  0  0
  -27.6035  -32.4336   25.7489 C   0  0  0  0  0  0
  -27.5583  -37.1810   24.8467 C   0  0  0  0  0  0
  -21.4165  -29.3038   22.3660 N   0  0  0  0  0  0
  -26.4301  -37.3788   23.9400 N   0  0  0  0  0  0
  -24.6831  -31.0621   22.0931 N   0  0  0  0  0  0
  -23.4175  -28.8201   23.3035 O   0  0  0  0  0  0
  -28.3785  -26.5254   20.1155 O   0  0  0  0  0  0
  -26.5621  -34.8924   22.4663 O   0  0  0  0  0  0
  -23.5399  -32.1403   23.7333 O   0  0  0  0  0  0
  -30.1362  -19.5447   20.7709 C   0  0  0  0  0  0
  -28.2397  -17.5303   20.5732 C   0  0  0  0  0  0
  -28.7787  -19.9655   20.6210 C   0  0  0  0  0  0
  -30.5359  -18.1573   20.8468 C   0  0  0  0  0  0
  -27.8395  -18.8932   20.4696 C   0  0  0  0  0  0
  -29.5742  -17.0997   20.7669 C   0  0  0  0  0  0
  -28.3083  -21.4249   20.7229 C   0  0  0  0  0  0
  -32.0029  -17.8410   21.0765 C   0  0  0  0  0  0
  -26.3566  -19.1384   20.1978 C   0  0  0  0  0  0
  -27.6625  -25.1037   22.0123 C   0  0  0  0  0  0
  -28.1060  -23.8802   19.7604 C   0  0  0  0  0  0
  -28.4202  -25.1483   20.6766 C   0  0  1  0  0  0
  -27.2952  -21.6644   21.5520 N   0  0  0  0  0  0
  -29.7600  -15.6575   21.0094 N   0  0  0  0  0  0
  -28.7717  -22.5236   20.0456 N   0  3  0  0  0  0
  -31.4856  -12.5589   19.1587 H   0  0  0  0  0  0
  -30.3936  -11.4160   19.8885 H   0  0  0  0  0  0
  -29.7896  -11.7780   17.4789 H   0  0  0  0  0  0
  -29.6518  -13.4942   17.7429 H   0  0  0  0  0  0
  -27.8678  -11.2993   18.8423 H   0  0  0  0  0  0
  -27.3854  -12.5974   17.7835 H   0  0  0  0  0  0
  -27.6759  -14.2521   19.5375 H   0  0  0  0  0  0
  -28.7193  -12.0126   21.3377 H   0  0  0  0  0  0
  -28.4240  -13.6376   21.8701 H   0  0  0  0  0  0
  -25.2761   -9.5689   22.4727 H   0  0  0  0  0  0
  -24.0015   -7.4622   22.7436 H   0  0  0  0  0  0
  -21.0837   -8.8762   19.8932 H   0  0  0  0  0  0
  -22.3684  -10.9664   19.6137 H   0  0  0  0  0  0
  -21.1997   -7.6142   23.9750 H   0  0  0  0  0  0
  -21.1483   -6.0491   25.9092 H   0  0  0  0  0  0
  -22.0599   -2.7611   23.2827 H   0  0  0  0  0  0
  -22.4062  -11.9867   22.4830 H   0  0  0  0  0  0
  -21.1068  -13.1228   22.2637 H   0  0  0  0  0  0
  -24.5919  -15.7808   20.4074 H   0  0  0  0  0  0
  -26.1456  -15.5529   19.7947 H   0  0  0  0  0  0
  -26.7147  -32.5455   23.1081 H   0  0  0  0  0  0
  -25.0093  -33.9724   25.0429 H   0  0  0  0  0  0
  -22.7109  -31.3014   21.3942 H   0  0  0  0  0  0
  -23.3749  -35.9633   23.3316 H   0  0  0  0  0  0
  -24.3580  -36.8919   22.2057 H   0  0  0  0  0  0
  -23.7221  -37.6501   23.6664 H   0  0  0  0  0  0
  -26.0781  -31.5548   20.5921 H   0  0  0  0  0  0
  -26.8346  -30.8500   21.9904 H   0  0  0  0  0  0
  -28.1176  -29.0095   21.1579 H   0  0  0  0  0  0
  -26.0164  -25.8963   19.0473 H   0  0  0  0  0  0
  -23.9722  -27.2738   19.0396 H   0  0  0  0  0  0
  -23.7397  -30.5735   19.3948 H   0  0  0  0  0  0
  -22.7489  -29.2278   19.8701 H   0  0  0  0  0  0
  -25.1296  -36.1970   25.0812 H   0  0  0  0  0  0
  -20.9988  -28.3274   24.1396 H   0  0  0  0  0  0
  -20.5679  -26.2302   23.3612 H   0  0  0  0  0  0
  -21.6651  -26.7446   22.1210 H   0  0  0  0  0  0
  -19.6932  -25.6280   21.1255 H   0  0  0  0  0  0
  -19.6704  -27.3159   20.6718 H   0  0  0  0  0  0
  -17.4216  -26.6677   21.4002 H   0  0  0  0  0  0
  -18.0333  -26.0062   22.8996 H   0  0  0  0  0  0
  -19.7953  -30.7258   24.2256 H   0  0  0  0  0  0
  -17.5041  -31.6271   24.5152 H   0  0  0  0  0  0
  -15.5370  -30.2987   23.7666 H   0  0  0  0  0  0
  -15.8674  -28.0804   22.7108 H   0  0  0  0  0  0
  -24.5877  -30.7095   25.7752 H   0  0  0  0  0  0
  -24.8898  -32.2908   26.4858 H   0  0  0  0  0  0
  -25.8017  -30.8919   27.0212 H   0  0  0  0  0  0
  -26.2900  -29.6783   24.1187 H   0  0  0  0  0  0
  -27.4023  -29.7291   25.4669 H   0  0  0  0  0  0
  -27.8763  -30.4325   23.9378 H   0  0  0  0  0  0
  -27.2657  -33.3642   26.2065 H   0  0  0  0  0  0
  -28.3869  -32.6893   25.0338 H   0  0  0  0  0  0
  -28.0685  -31.8465   26.5420 H   0  0  0  0  0  0
  -28.2610  -38.0099   24.7522 H   0  0  0  0  0  0
  -28.1060  -36.2630   24.6288 H   0  0  0  0  0  0
  -27.2297  -37.1463   25.8868 H   0  0  0  0  0  0
  -20.9340  -29.8755   21.6863 H   0  0  0  0  0  0
  -26.0190  -38.2868   24.1396 H   0  0  0  0  0  0
  -30.8905  -20.3111   20.8854 H   0  0  0  0  0  0
  -27.4680  -16.7807   20.5261 H   0  0  0  0  0  0
  -32.5547  -18.7192   21.4113 H   0  0  0  0  0  0
  -32.4632  -17.4883   20.1540 H   0  0  0  0  0  0
  -32.1243  -17.0680   21.8351 H   0  0  0  0  0  0
  -26.1973  -20.0234   19.5820 H   0  0  0  0  0  0
  -25.7989  -19.2546   21.1268 H   0  0  0  0  0  0
  -25.9150  -18.3036   19.6530 H   0  0  0  0  0  0
  -27.8607  -24.1771   22.5474 H   0  0  0  0  0  0
  -26.5856  -25.1819   21.8648 H   0  0  0  0  0  0
  -27.9681  -25.9246   22.6611 H   0  0  0  0  0  0
  -28.4233  -24.1508   18.7532 H   0  0  0  0  0  0
  -27.0268  -23.7429   19.6797 H   0  0  0  0  0  0
  -29.4712  -25.0363   20.9420 H   0  0  0  0  0  0
  -26.9285  -22.5846   21.7115 H   0  0  0  0  0  0
  -26.9421  -20.9032   22.1110 H   0  0  0  0  0  0
  -28.9189  -15.2254   21.3565 H   0  0  0  0  0  0
  -29.6022  -22.3541   19.4891 H   0  0  0  0  0  0
  1 25  1  0  0  0
  1 30  2  0  0  0
  1 84  1  0  0  0
  2  3  1  0  0  0
  2 25  1  0  0  0
  2 86  1  0  0  0
  2 87  1  0  0  0
  3  4  1  0  0  0
  3 88  1  0  0  0
  3 89  1  0  0  0
  4  5  1  0  0  0
  4 90  1  0  0  0
  4 91  1  0  0  0
  5  6  1  0  0  0
  5 26  1  0  0  0
  5 92  1  0  0  0
  6 25  1  0  0  0
  6 93  1  0  0  0
  6 94  1  0  0  0
  7  8  2  0  0  0
  7 26  1  0  0  0
  7 29  1  0  0  0
  8  9  1  0  0  0
  8 22  1  0  0  0
  9 10  1  0  0  0
  9 27  2  0  0  0
 10 11  2  0  0  0
 10 15  1  0  0  0
 11 12  1  0  0  0
 11 95  1  0  0  0
 12 13  2  0  0  0
 12 96  1  0  0  0
 13 14  1  0  0  0
 13 31  1  0  0  0
 14 15  2  0  0  0
 14 97  1  0  0  0
 15 98  1  0  0  0
 16 17  2  0  0  0
 16 21  1  0  0  0
 16 31  1  0  0  0
 17 18  1  0  0  0
 17 99  1  0  0  0
 18 19  2  0  0  0
 18100  1  0  0  0
 19 20  1  0  0  0
 19 24  1  0  0  0
 20 21  2  0  0  0
 20101  1  0  0  0
 21 23  1  0  0  0
 22 28  1  0  0  0
 22 32  2  0  0  0
 26 27  1  0  0  0
 28102  1  0  0  0
 28103  1  0  0  0
 29104  1  0  0  0
 29105  1  0  0  0
 33 34  1  0  0  0
 33 66  1  0  0  0
 33 70  2  0  0  0
 34 36  1  0  0  0
 34 59  1  0  0  0
 34106  1  0  0  0
 35 44  2  0  0  0
 35 45  1  0  0  0
 35 68  1  0  0  0
 36 56  1  0  0  0
 36107  1  0  0  0
 37 39  1  0  0  0
 37 47  1  0  0  0
 37 66  1  0  0  0
 37108  1  0  0  0
 38 43  2  0  0  0
 38 46  1  0  0  0
 38 47  1  0  0  0
 39 64  1  0  0  0
 39 67  2  0  0  0
 40 52  1  0  0  0
 40 53  2  0  0  0
 40 58  1  0  0  0
 41109  1  0  0  0
 41110  1  0  0  0
 41111  1  0  0  0
 41 48  1  0  0  0
 42 43  1  0  0  0
 42 66  1  0  0  0
 42112  1  0  0  0
 42113  1  0  0  0
 43 44  1  0  0  0
 44114  1  0  0  0
 45 46  2  0  0  0
 45115  1  0  0  0
 46116  1  0  0  0
 47117  1  0  0  0
 47118  1  0  0  0
 48 56  1  0  0  0
 48 65  1  0  0  0
 48119  1  0  0  0
 49 50  1  0  0  0
 49 53  1  0  0  0
 49 64  1  0  0  0
 49120  1  0  0  0
 50 51  1  0  0  0
 50121  1  0  0  0
 50122  1  0  0  0
 51 52  1  0  0  0
 51123  1  0  0  0
 51124  1  0  0  0
 52125  1  0  0  0
 52126  1  0  0  0
 53 54  1  0  0  0
 54 55  2  0  0  0
 54127  1  0  0  0
 55 57  1  0  0  0
 55128  1  0  0  0
 56 69  2  0  0  0
 57 58  2  0  0  0
 57129  1  0  0  0
 58130  1  0  0  0
 59 60  1  0  0  0
 59 61  1  0  0  0
 59 62  1  0  0  0
 60131  1  0  0  0
 60132  1  0  0  0
 60133  1  0  0  0
 61134  1  0  0  0
 61135  1  0  0  0
 61136  1  0  0  0
 62137  1  0  0  0
 62138  1  0  0  0
 62139  1  0  0  0
 63 65  1  0  0  0
 63140  1  0  0  0
 63141  1  0  0  0
 63142  1  0  0  0
 64143  1  0  0  0
 65144  1  0  0  0
 68 82  1  0  0  0
 71 73  2  0  0  0
 71 74  1  0  0  0
 71145  1  0  0  0
 72 75  2  0  0  0
 72 76  1  0  0  0
 72146  1  0  0  0
 73 75  1  0  0  0
 73 77  1  0  0  0
 74 76  2  0  0  0
 74 78  1  0  0  0
 75 79  1  0  0  0
 76 84  1  0  0  0
 77 83  1  0  0  0
 77 85  2  0  0  0
 78147  1  0  0  0
 78148  1  0  0  0
 78149  1  0  0  0
 79150  1  0  0  0
 79151  1  0  0  0
 79152  1  0  0  0
 80153  1  0  0  0
 80154  1  0  0  0
 80155  1  0  0  0
 80 82  1  0  0  0
 81 82  1  0  0  0
 81 85  1  0  0  0
 81156  1  0  0  0
 81157  1  0  0  0
 82158  1  0  0  0
 83159  1  0  0  0
 83160  1  0  0  0
 84161  1  0  0  0
 85162  1  0  0  0
M  CHG  1  85   1
M  ISO  4   1 100  68 101  82 101  84 100
M  END
> <chiral flag>
0

> <version>
0

> <s_m_source_file>
/data/baiqing/PycharmProjects/Reinvent-master-3.2/result/LINK_invent/BTK/process_docking_weight1_custom_product_contain_oxygen_bond_distance_aromatic_linkinvent_7_9_3/rearranged_h_0037.sdf

> <i_m_source_file_index>
82

> <r_mmod_Potential_Energy-OPLS-2005>
-85.4819717407227

> <r_mmod_Stretch_Energy-OPLS-2005>
93.4666976928711

> <r_mmod_Bend_Energy-OPLS-2005>
178.991149902344

> <r_mmod_Torsional_Energy-OPLS-2005>
260.954132080078

> <r_mmod_Improper_Torsional_Energy-OPLS-2005>
7.96366691589355

> <r_mmod_Van_der_Waal_Energy-OPLS-2005>
136.81706237793

> <r_mmod_Electrostatic_Energy-OPLS-2005>
-415.47998046875

> <r_mmod_Solvation_Energy-OPLS-2005>
-397.720703125

> <b_mmod_Minimization_Converged-OPLS-2005>
0

> <r_mmod_RMS_Derivative-OPLS-2005>
2.0393271446228

$$$$
82
                    3D
 Structure written by MMmdl.
165173  0  0  1  0            999 V2000
  -30.7795  -14.3631   20.6731 C   0  0  0  0  0  0
  -30.4090  -12.2867   19.3962 C   0  0  0  0  0  0
  -29.4801  -12.5177   18.1912 C   0  0  0  0  0  0
  -28.0061  -12.3728   18.6116 C   0  0  0  0  0  0
  -27.6629  -13.2050   19.8749 C   0  0  2  0  0  0
  -28.7010  -12.9625   20.9922 C   0  0  0  0  0  0
  -25.2600  -13.8169   20.5685 C   0  0  0  0  0  0
  -24.1842  -13.0445   20.9177 C   0  0  0  0  0  0
  -24.6387  -11.6910   20.8733 C   0  0  0  0  0  0
  -23.9062  -10.4295   21.0405 C   0  0  0  0  0  0
  -24.3615   -9.4212   21.9185 C   0  0  0  0  0  0
  -23.6293   -8.2245   22.0757 C   0  0  0  0  0  0
  -22.4279   -8.0286   21.3545 C   0  0  0  0  0  0
  -21.9910   -9.0259   20.4648 C   0  0  0  0  0  0
  -22.7237  -10.2136   20.3055 C   0  0  0  0  0  0
  -21.6851   -6.0741   22.5280 C   0  0  0  0  0  0
  -21.4010   -6.5646   23.8214 C   0  0  0  0  0  0
  -21.3658   -5.6798   24.9180 C   0  0  0  0  0  0
  -21.6039   -4.3058   24.7228 C   0  0  0  0  0  0
  -21.8820   -3.8153   23.4350 C   0  0  0  0  0  0
  -21.9192   -4.6970   22.3406 C   0  0  0  0  0  0
  -22.7867  -13.5246   21.1840 C   0  0  0  0  0  0
  -22.1662   -4.2161   21.0982 F   0  0  0  0  0  0
  -21.5630   -3.4537   25.7737 F   0  0  0  0  0  0
  -30.0408  -13.2461   20.4487 N   0  0  0  0  0  0
  -26.3031  -12.9329   20.3368 N   0  0  0  0  0  0
  -25.9312  -11.6490   20.5765 N   0  0  0  0  0  0
  -22.0494  -12.8235   22.0389 N   0  0  0  0  0  0
  -25.4320  -15.1884   20.4105 N   0  0  0  0  0  0
  -31.8285  -14.5989   20.0694 O   0  0  0  0  0  0
  -21.6634   -6.8888   21.4245 O   0  0  0  0  0  0
  -22.3558  -14.5557   20.6702 O   0  0  0  0  0  0
  -24.6095  -31.8712   23.2113 C   0  0  0  0  0  0
  -25.8996  -32.4843   23.8395 C   0  0  1  0  0  0
  -27.2343  -27.4694   20.0879 C   0  0  0  0  0  0
  -25.5870  -33.8636   24.2338 N   0  0  0  0  0  0
  -23.3979  -30.4908   21.5509 C   0  0  2  0  0  0
  -24.8463  -28.9581   20.1168 C   0  0  0  0  0  0
  -22.7398  -29.4660   22.5016 C   0  0  0  0  0  0
  -18.0269  -28.1371   22.8486 C   0  0  0  0  0  0
  -24.1494  -36.7331   23.2643 C   0  0  0  0  0  0
  -25.9216  -30.8455   21.3602 C   0  0  0  0  0  0
  -26.0018  -29.4787   20.7157 C   0  0  0  0  0  0
  -27.2014  -28.7360   20.7063 C   0  0  0  0  0  0
  -26.0716  -26.9531   19.4862 C   0  0  0  0  0  0
  -24.8730  -27.6918   19.5047 C   0  0  0  0  0  0
  -23.6054  -29.8205   20.1661 C   0  0  0  0  0  0
  -25.4109  -36.3126   24.0340 C   0  0  1  0  0  0
  -20.5857  -28.3646   23.1335 C   0  0  2  0  0  0
  -20.6760  -26.9392   22.5420 C   0  0  0  0  0  0
  -19.5742  -26.6392   21.5212 C   0  0  0  0  0  0
  -18.1919  -26.7919   22.1624 C   0  0  0  0  0  0
  -19.1517  -28.8826   23.2907 C   0  0  0  0  0  0
  -18.9450  -30.1435   23.8913 C   0  0  0  0  0  0
  -17.6449  -30.6577   24.0559 C   0  0  0  0  0  0
  -25.9026  -34.9484   23.5149 C   0  0  0  0  0  0
  -16.5341  -29.9077   23.6325 C   0  0  0  0  0  0
  -16.7260  -28.6501   23.0334 C   0  0  0  0  0  0
  -26.4443  -31.6600   25.0701 C   0  0  0  0  0  0
  -25.3720  -31.3659   26.1452 C   0  0  0  0  0  0
  -27.0273  -30.3058   24.6013 C   0  0  0  0  0  0
  -27.6043  -32.4304   25.7450 C   0  0  0  0  0  0
  -27.5586  -37.1810   24.8461 C   0  0  0  0  0  0
  -21.4131  -29.3015   22.3754 N   0  0  0  0  0  0
  -26.4302  -37.3797   23.9400 N   0  0  0  0  0  0
  -24.6606  -31.0828   22.1008 N   0  0  0  0  0  0
  -23.4186  -28.8210   23.3044 O   0  0  0  0  0  0
  -28.3937  -26.7441   20.0477 O   0  0  0  0  0  0
  -26.5600  -34.8930   22.4712 O   0  0  0  0  0  0
  -23.5290  -32.1442   23.7521 O   0  0  0  0  0  0
  -31.6377  -17.8168   20.3392 C   0  0  0  0  0  0
  -30.9568  -17.6365   21.5579 C   0  0  0  0  0  0
  -30.2736  -18.7406   22.1400 C   0  0  0  0  0  0
  -30.4173  -20.0424   21.5679 C   0  0  0  0  0  0
  -31.1468  -20.2037   20.3515 C   0  0  0  0  0  0
  -31.7066  -19.0703   19.7193 C   0  0  0  0  0  0
  -29.4356  -18.5374   23.4014 C   0  0  0  0  0  0
  -31.3561  -21.5771   19.7113 C   0  0  0  0  0  0
  -31.0860  -16.2719   22.2442 C   0  0  0  0  0  0
  -29.8928  -21.2890   22.3011 C   0  0  0  0  0  0
  -28.4312  -24.4276   20.7777 C   0  0  0  0  0  0
  -28.7773  -23.4739   21.9380 C   0  0  0  0  0  0
  -28.5889  -25.9039   21.1801 C   0  0  0  0  0  0
  -30.3258  -15.1819   21.6314 N   0  0  0  0  0  0
  -28.9189  -22.0638   21.5026 N   0  3  0  0  0  0
  -32.5345  -19.1793   18.2050 Cl  0  0  0  0  0  0
  -31.4522  -12.3745   19.0878 H   0  0  0  0  0  0
  -30.3006  -11.2678   19.7699 H   0  0  0  0  0  0
  -29.7115  -11.8108   17.3924 H   0  0  0  0  0  0
  -29.6508  -13.5132   17.7786 H   0  0  0  0  0  0
  -27.8167  -11.3157   18.8022 H   0  0  0  0  0  0
  -27.3504  -12.6532   17.7873 H   0  0  0  0  0  0
  -27.7175  -14.2563   19.5916 H   0  0  0  0  0  0
  -28.6631  -11.9236   21.3239 H   0  0  0  0  0  0
  -28.4526  -13.5539   21.8736 H   0  0  0  0  0  0
  -25.2758   -9.5688   22.4762 H   0  0  0  0  0  0
  -24.0002   -7.4636   22.7470 H   0  0  0  0  0  0
  -21.0846   -8.8779   19.8947 H   0  0  0  0  0  0
  -22.3702  -10.9678   19.6167 H   0  0  0  0  0  0
  -21.1999   -7.6150   23.9729 H   0  0  0  0  0  0
  -21.1476   -6.0519   25.9084 H   0  0  0  0  0  0
  -22.0600   -2.7613   23.2843 H   0  0  0  0  0  0
  -22.4090  -11.9889   22.4773 H   0  0  0  0  0  0
  -21.1110  -13.1268   22.2582 H   0  0  0  0  0  0
  -24.6686  -15.8473   20.5237 H   0  0  0  0  0  0
  -26.2950  -15.6267   20.1104 H   0  0  0  0  0  0
  -26.7068  -32.5584   23.1170 H   0  0  0  0  0  0
  -24.9968  -33.9792   25.0445 H   0  0  0  0  0  0
  -22.6846  -31.3055   21.4114 H   0  0  0  0  0  0
  -23.3746  -35.9679   23.3316 H   0  0  0  0  0  0
  -24.3575  -36.8942   22.2058 H   0  0  0  0  0  0
  -23.7264  -37.6547   23.6645 H   0  0  0  0  0  0
  -26.0186  -31.6066   20.5850 H   0  0  0  0  0  0
  -26.8150  -30.9082   21.9690 H   0  0  0  0  0  0
  -28.0988  -29.1297   21.1637 H   0  0  0  0  0  0
  -26.0958  -25.9852   19.0057 H   0  0  0  0  0  0
  -23.9834  -27.2875   19.0419 H   0  0  0  0  0  0
  -23.7076  -30.5928   19.4028 H   0  0  0  0  0  0
  -22.7311  -29.2350   19.8762 H   0  0  0  0  0  0
  -25.1282  -36.1998   25.0834 H   0  0  0  0  0  0
  -20.9938  -28.3207   24.1457 H   0  0  0  0  0  0
  -20.5693  -26.2249   23.3594 H   0  0  0  0  0  0
  -21.6625  -26.7462   22.1192 H   0  0  0  0  0  0
  -19.6908  -25.6317   21.1215 H   0  0  0  0  0  0
  -19.6679  -27.3230   20.6766 H   0  0  0  0  0  0
  -17.4193  -26.6681   21.4021 H   0  0  0  0  0  0
  -18.0300  -26.0061   22.9018 H   0  0  0  0  0  0
  -19.7930  -30.7242   24.2301 H   0  0  0  0  0  0
  -17.5008  -31.6259   24.5154 H   0  0  0  0  0  0
  -15.5341  -30.2972   23.7654 H   0  0  0  0  0  0
  -15.8664  -28.0832   22.7025 H   0  0  0  0  0  0
  -24.5897  -30.7004   25.7759 H   0  0  0  0  0  0
  -24.8882  -32.2800   26.4921 H   0  0  0  0  0  0
  -25.8080  -30.8803   27.0197 H   0  0  0  0  0  0
  -26.2781  -29.6803   24.1133 H   0  0  0  0  0  0
  -27.4162  -29.7289   25.4414 H   0  0  0  0  0  0
  -27.8567  -30.4409   23.9057 H   0  0  0  0  0  0
  -27.2686  -33.3601   26.2048 H   0  0  0  0  0  0
  -28.3827  -32.6864   25.0248 H   0  0  0  0  0  0
  -28.0731  -31.8408   26.5335 H   0  0  0  0  0  0
  -28.2602  -38.0109   24.7505 H   0  0  0  0  0  0
  -28.1092  -36.2639   24.6301 H   0  0  0  0  0  0
  -27.2292  -37.1467   25.8862 H   0  0  0  0  0  0
  -20.9303  -29.8744   21.6974 H   0  0  0  0  0  0
  -26.0207  -38.2892   24.1383 H   0  0  0  0  0  0
  -32.1524  -16.9923   19.8720 H   0  0  0  0  0  0
  -29.0822  -17.5140   23.5121 H   0  0  0  0  0  0
  -28.5250  -19.1344   23.3771 H   0  0  0  0  0  0
  -30.0087  -18.8039   24.2903 H   0  0  0  0  0  0
  -31.4827  -22.3723   20.4455 H   0  0  0  0  0  0
  -30.5178  -21.8259   19.0614 H   0  0  0  0  0  0
  -32.2613  -21.6132   19.1083 H   0  0  0  0  0  0
  -30.8405  -16.3182   23.3034 H   0  0  0  0  0  0
  -32.1461  -16.0086   22.2468 H   0  0  0  0  0  0
  -30.7689  -21.8963   22.5319 H   0  0  0  0  0  0
  -29.4554  -21.0801   23.2747 H   0  0  0  0  0  0
  -27.4152  -24.2471   20.4241 H   0  0  0  0  0  0
  -29.0953  -24.2332   19.9338 H   0  0  0  0  0  0
  -28.0263  -23.5403   22.7270 H   0  0  0  0  0  0
  -29.7129  -23.8160   22.3818 H   0  0  0  0  0  0
  -29.5976  -26.0851   21.5521 H   0  0  0  0  0  0
  -27.9103  -26.1448   22.0027 H   0  0  0  0  0  0
  -29.4539  -14.9271   22.0696 H   0  0  0  0  0  0
  -28.0246  -21.6005   21.5220 H   0  0  0  0  0  0
  -29.2491  -22.0467   20.5528 H   0  0  0  0  0  0
  1 25  1  0  0  0
  1 30  2  0  0  0
  1 84  1  0  0  0
  2  3  1  0  0  0
  2 25  1  0  0  0
  2 87  1  0  0  0
  2 88  1  0  0  0
  3  4  1  0  0  0
  3 89  1  0  0  0
  3 90  1  0  0  0
  4  5  1  0  0  0
  4 91  1  0  0  0
  4 92  1  0  0  0
  5  6  1  0  0  0
  5 26  1  0  0  0
  5 93  1  0  0  0
  6 25  1  0  0  0
  6 94  1  0  0  0
  6 95  1  0  0  0
  7  8  2  0  0  0
  7 26  1  0  0  0
  7 29  1  0  0  0
  8  9  1  0  0  0
  8 22  1  0  0  0
  9 10  1  0  0  0
  9 27  2  0  0  0
 10 11  2  0  0  0
 10 15  1  0  0  0
 11 12  1  0  0  0
 11 96  1  0  0  0
 12 13  2  0  0  0
 12 97  1  0  0  0
 13 14  1  0  0  0
 13 31  1  0  0  0
 14 15  2  0  0  0
 14 98  1  0  0  0
 15 99  1  0  0  0
 16 17  2  0  0  0
 16 21  1  0  0  0
 16 31  1  0  0  0
 17 18  1  0  0  0
 17100  1  0  0  0
 18 19  2  0  0  0
 18101  1  0  0  0
 19 20  1  0  0  0
 19 24  1  0  0  0
 20 21  2  0  0  0
 20102  1  0  0  0
 21 23  1  0  0  0
 22 28  1  0  0  0
 22 32  2  0  0  0
 26 27  1  0  0  0
 28103  1  0  0  0
 28104  1  0  0  0
 29105  1  0  0  0
 29106  1  0  0  0
 33 34  1  0  0  0
 33 66  1  0  0  0
 33 70  2  0  0  0
 34 36  1  0  0  0
 34 59  1  0  0  0
 34107  1  0  0  0
 35 44  2  0  0  0
 35 45  1  0  0  0
 35 68  1  0  0  0
 36 56  1  0  0  0
 36108  1  0  0  0
 37 39  1  0  0  0
 37 47  1  0  0  0
 37 66  1  0  0  0
 37109  1  0  0  0
 38 43  2  0  0  0
 38 46  1  0  0  0
 38 47  1  0  0  0
 39 64  1  0  0  0
 39 67  2  0  0  0
 40 52  1  0  0  0
 40 53  2  0  0  0
 40 58  1  0  0  0
 41110  1  0  0  0
 41111  1  0  0  0
 41112  1  0  0  0
 41 48  1  0  0  0
 42 43  1  0  0  0
 42 66  1  0  0  0
 42113  1  0  0  0
 42114  1  0  0  0
 43 44  1  0  0  0
 44115  1  0  0  0
 45 46  2  0  0  0
 45116  1  0  0  0
 46117  1  0  0  0
 47118  1  0  0  0
 47119  1  0  0  0
 48 56  1  0  0  0
 48 65  1  0  0  0
 48120  1  0  0  0
 49 50  1  0  0  0
 49 53  1  0  0  0
 49 64  1  0  0  0
 49121  1  0  0  0
 50 51  1  0  0  0
 50122  1  0  0  0
 50123  1  0  0  0
 51 52  1  0  0  0
 51124  1  0  0  0
 51125  1  0  0  0
 52126  1  0  0  0
 52127  1  0  0  0
 53 54  1  0  0  0
 54 55  2  0  0  0
 54128  1  0  0  0
 55 57  1  0  0  0
 55129  1  0  0  0
 56 69  2  0  0  0
 57 58  2  0  0  0
 57130  1  0  0  0
 58131  1  0  0  0
 59 60  1  0  0  0
 59 61  1  0  0  0
 59 62  1  0  0  0
 60132  1  0  0  0
 60133  1  0  0  0
 60134  1  0  0  0
 61135  1  0  0  0
 61136  1  0  0  0
 61137  1  0  0  0
 62138  1  0  0  0
 62139  1  0  0  0
 62140  1  0  0  0
 63 65  1  0  0  0
 63141  1  0  0  0
 63142  1  0  0  0
 63143  1  0  0  0
 64144  1  0  0  0
 65145  1  0  0  0
 68 83  1  0  0  0
 71 72  2  0  0  0
 71 76  1  0  0  0
 71146  1  0  0  0
 72 73  1  0  0  0
 72 79  1  0  0  0
 73 74  2  0  0  0
 73 77  1  0  0  0
 74 75  1  0  0  0
 74 80  1  0  0  0
 75 76  2  0  0  0
 75 78  1  0  0  0
 76 86  1  0  0  0
 77147  1  0  0  0
 77148  1  0  0  0
 77149  1  0  0  0
 78150  1  0  0  0
 78151  1  0  0  0
 78152  1  0  0  0
 79 84  1  0  0  0
 79153  1  0  0  0
 79154  1  0  0  0
 80 85  1  0  0  0
 80155  1  0  0  0
 80156  1  0  0  0
 81 82  1  0  0  0
 81 83  1  0  0  0
 81157  1  0  0  0
 81158  1  0  0  0
 82 85  1  0  0  0
 82159  1  0  0  0
 82160  1  0  0  0
 83161  1  0  0  0
 83162  1  0  0  0
 84163  1  0  0  0
 85164  1  0  0  0
 85165  1  0  0  0
M  CHG  1  85   1
M  ISO  4   1 100  68 101  83 101  84 100
M  END
> <chiral flag>
0

> <version>
0

> <s_m_source_file>
/data/baiqing/PycharmProjects/Reinvent-master-3.2/result/LINK_invent/BTK/process_docking_weight1_custom_product_contain_oxygen_bond_distance_aromatic_linkinvent_7_9_3/rearranged_h_0037.sdf

> <i_m_source_file_index>
83

> <r_mmod_Potential_Energy-OPLS-2005>
-290.827514648438

> <r_mmod_Stretch_Energy-OPLS-2005>
36.4434471130371

> <r_mmod_Bend_Energy-OPLS-2005>
92.5548858642578

> <r_mmod_Torsional_Energy-OPLS-2005>
226.463027954102

> <r_mmod_Improper_Torsional_Energy-OPLS-2005>
2.56813621520996

> <r_mmod_Van_der_Waal_Energy-OPLS-2005>
166.048385620117

> <r_mmod_Electrostatic_Energy-OPLS-2005>
-351.029602050781

> <r_mmod_Solvation_Energy-OPLS-2005>
-470.9013671875

> <b_mmod_Minimization_Converged-OPLS-2005>
0

> <r_mmod_RMS_Derivative-OPLS-2005>
2.07231473922729

$$$$
83
                    3D
 Structure written by MMmdl.
165173  0  0  1  0            999 V2000
  -30.7436  -14.3806   20.6446 C   0  0  0  0  0  0
  -30.4171  -12.2805   19.3982 C   0  0  0  0  0  0
  -29.4855  -12.5141   18.1932 C   0  0  0  0  0  0
  -28.0089  -12.3781   18.6109 C   0  0  0  0  0  0
  -27.6668  -13.2020   19.8804 C   0  0  2  0  0  0
  -28.7040  -12.9390   20.9940 C   0  0  0  0  0  0
  -25.2628  -13.8168   20.5710 C   0  0  0  0  0  0
  -24.1854  -13.0439   20.9163 C   0  0  0  0  0  0
  -24.6390  -11.6913   20.8713 C   0  0  0  0  0  0
  -23.9048  -10.4302   21.0388 C   0  0  0  0  0  0
  -24.3601   -9.4229   21.9179 C   0  0  0  0  0  0
  -23.6286   -8.2258   22.0755 C   0  0  0  0  0  0
  -22.4270   -8.0280   21.3541 C   0  0  0  0  0  0
  -21.9893   -9.0253   20.4651 C   0  0  0  0  0  0
  -22.7212  -10.2140   20.3054 C   0  0  0  0  0  0
  -21.6863   -6.0725   22.5278 C   0  0  0  0  0  0
  -21.4011   -6.5626   23.8207 C   0  0  0  0  0  0
  -21.3662   -5.6785   24.9173 C   0  0  0  0  0  0
  -21.6047   -4.3047   24.7233 C   0  0  0  0  0  0
  -21.8819   -3.8134   23.4353 C   0  0  0  0  0  0
  -21.9192   -4.6949   22.3403 C   0  0  0  0  0  0
  -22.7885  -13.5256   21.1825 C   0  0  0  0  0  0
  -22.1666   -4.2128   21.0985 F   0  0  0  0  0  0
  -21.5632   -3.4538   25.7751 F   0  0  0  0  0  0
  -30.0449  -13.2328   20.4535 N   0  0  0  0  0  0
  -26.3048  -12.9325   20.3379 N   0  0  0  0  0  0
  -25.9316  -11.6483   20.5735 N   0  0  0  0  0  0
  -22.0511  -12.8251   22.0382 N   0  0  0  0  0  0
  -25.4411  -15.1884   20.4230 N   0  0  0  0  0  0
  -31.7961  -14.6400   20.0550 O   0  0  0  0  0  0
  -21.6641   -6.8870   21.4238 O   0  0  0  0  0  0
  -22.3586  -14.5565   20.6690 O   0  0  0  0  0  0
  -24.6138  -31.8679   23.2124 C   0  0  0  0  0  0
  -25.9040  -32.4822   23.8400 C   0  0  1  0  0  0
  -27.2381  -27.4551   20.0700 C   0  0  0  0  0  0
  -25.5894  -33.8619   24.2339 N   0  0  0  0  0  0
  -23.3990  -30.4934   21.5516 C   0  0  2  0  0  0
  -24.8432  -28.9631   20.1157 C   0  0  0  0  0  0
  -22.7387  -29.4657   22.4998 C   0  0  0  0  0  0
  -18.0268  -28.1369   22.8478 C   0  0  0  0  0  0
  -24.1492  -36.7328   23.2637 C   0  0  0  0  0  0
  -25.9286  -30.8384   21.3626 C   0  0  0  0  0  0
  -26.0027  -29.4727   20.7123 C   0  0  0  0  0  0
  -27.1984  -28.7221   20.6934 C   0  0  0  0  0  0
  -26.0528  -26.9552   19.4775 C   0  0  0  0  0  0
  -24.8616  -27.7014   19.5016 C   0  0  0  0  0  0
  -23.6032  -29.8253   20.1660 C   0  0  0  0  0  0
  -25.4101  -36.3126   24.0352 C   0  0  1  0  0  0
  -20.5854  -28.3635   23.1332 C   0  0  2  0  0  0
  -20.6760  -26.9397   22.5352 C   0  0  0  0  0  0
  -19.5767  -26.6440   21.5118 C   0  0  0  0  0  0
  -18.1935  -26.7955   22.1515 C   0  0  0  0  0  0
  -19.1514  -28.8805   23.2927 C   0  0  0  0  0  0
  -18.9427  -30.1399   23.8955 C   0  0  0  0  0  0
  -17.6434  -30.6558   24.0576 C   0  0  0  0  0  0
  -25.9017  -34.9476   23.5138 C   0  0  0  0  0  0
  -16.5333  -29.9056   23.6332 C   0  0  0  0  0  0
  -16.7253  -28.6474   23.0345 C   0  0  0  0  0  0
  -26.4458  -31.6601   25.0725 C   0  0  0  0  0  0
  -25.3742  -31.3693   26.1492 C   0  0  0  0  0  0
  -27.0277  -30.3060   24.6062 C   0  0  0  0  0  0
  -27.6049  -32.4286   25.7479 C   0  0  0  0  0  0
  -27.5579  -37.1813   24.8458 C   0  0  0  0  0  0
  -21.4120  -29.3044   22.3774 N   0  0  0  0  0  0
  -26.4299  -37.3795   23.9398 N   0  0  0  0  0  0
  -24.6661  -31.0795   22.1011 N   0  0  0  0  0  0
  -23.4179  -28.8166   23.2996 O   0  0  0  0  0  0
  -28.4403  -26.7739   20.0632 O   0  0  0  0  0  0
  -26.5572  -34.8932   22.4693 O   0  0  0  0  0  0
  -23.5322  -32.1420   23.7526 O   0  0  0  0  0  0
  -29.8600  -18.3390   20.1202 C   0  0  0  0  0  0
  -27.5604  -18.9018   21.6080 C   0  0  0  0  0  0
  -28.9684  -19.3315   19.6601 C   0  0  0  0  0  0
  -28.4429  -17.8984   22.0566 C   0  0  0  0  0  0
  -29.6230  -17.6334   21.3190 C   0  0  0  0  0  0
  -27.8141  -19.6384   20.4290 C   0  0  0  0  0  0
  -29.3085  -20.0271   18.3480 C   0  0  0  0  0  0
  -28.0869  -17.1234   23.3176 C   0  0  0  0  0  0
  -30.6460  -16.5977   21.7711 C   0  0  0  0  0  0
  -26.8206  -20.7331   20.0461 C   0  0  0  0  0  0
  -27.9443  -24.3963   20.4162 C   0  0  0  0  0  0
  -27.8072  -23.0158   19.7447 C   0  0  0  0  0  0
  -28.5172  -25.4731   19.4716 C   0  0  0  0  0  0
  -30.1903  -15.2392   21.5064 N   0  0  0  0  0  0
  -27.1827  -22.0302   20.6533 N   0  3  0  0  0  0
  -31.4623  -12.3738   19.0968 H   0  0  0  0  0  0
  -30.3108  -11.2585   19.7646 H   0  0  0  0  0  0
  -29.7119  -11.8043   17.3958 H   0  0  0  0  0  0
  -29.6614  -13.5065   17.7759 H   0  0  0  0  0  0
  -27.8107  -11.3205   18.7884 H   0  0  0  0  0  0
  -27.3589  -12.6708   17.7865 H   0  0  0  0  0  0
  -27.7257  -14.2561   19.6078 H   0  0  0  0  0  0
  -28.6639  -11.8929   21.3024 H   0  0  0  0  0  0
  -28.4547  -13.5075   21.8909 H   0  0  0  0  0  0
  -25.2746   -9.5696   22.4754 H   0  0  0  0  0  0
  -23.9992   -7.4650   22.7473 H   0  0  0  0  0  0
  -21.0825   -8.8762   19.8972 H   0  0  0  0  0  0
  -22.3662  -10.9670   19.6161 H   0  0  0  0  0  0
  -21.2005   -7.6135   23.9697 H   0  0  0  0  0  0
  -21.1486   -6.0525   25.9071 H   0  0  0  0  0  0
  -22.0597   -2.7595   23.2868 H   0  0  0  0  0  0
  -22.4129  -11.9924   22.4775 H   0  0  0  0  0  0
  -21.1126  -13.1289   22.2583 H   0  0  0  0  0  0
  -24.6869  -15.8518   20.5630 H   0  0  0  0  0  0
  -26.3193  -15.6304   20.1775 H   0  0  0  0  0  0
  -26.7113  -32.5532   23.1162 H   0  0  0  0  0  0
  -25.0071  -33.9743   25.0506 H   0  0  0  0  0  0
  -22.6895  -31.3123   21.4139 H   0  0  0  0  0  0
  -23.3743  -35.9672   23.3312 H   0  0  0  0  0  0
  -24.3596  -36.8917   22.2047 H   0  0  0  0  0  0
  -23.7255  -37.6550   23.6629 H   0  0  0  0  0  0
  -26.0353  -31.6038   20.5915 H   0  0  0  0  0  0
  -26.8202  -30.8920   21.9762 H   0  0  0  0  0  0
  -28.0975  -29.1115   21.1517 H   0  0  0  0  0  0
  -26.0193  -25.9962   18.9841 H   0  0  0  0  0  0
  -23.9699  -27.3024   19.0388 H   0  0  0  0  0  0
  -23.7032  -30.5996   19.4053 H   0  0  0  0  0  0
  -22.7293  -29.2386   19.8748 H   0  0  0  0  0  0
  -25.1272  -36.2006   25.0850 H   0  0  0  0  0  0
  -20.9926  -28.3150   24.1459 H   0  0  0  0  0  0
  -20.5674  -26.2211   23.3484 H   0  0  0  0  0  0
  -21.6624  -26.7451   22.1136 H   0  0  0  0  0  0
  -19.6931  -25.6403   21.1038 H   0  0  0  0  0  0
  -19.6735  -27.3349   20.6737 H   0  0  0  0  0  0
  -17.4215  -26.6731   21.3897 H   0  0  0  0  0  0
  -18.0329  -26.0056   22.8857 H   0  0  0  0  0  0
  -19.7908  -30.7180   24.2372 H   0  0  0  0  0  0
  -17.4983  -31.6228   24.5199 H   0  0  0  0  0  0
  -15.5330  -30.2965   23.7603 H   0  0  0  0  0  0
  -15.8663  -28.0796   22.7011 H   0  0  0  0  0  0
  -24.5908  -30.7033   25.7859 H   0  0  0  0  0  0
  -24.8925  -32.2830   26.4980 H   0  0  0  0  0  0
  -25.8112  -30.8856   27.0236 H   0  0  0  0  0  0
  -26.2805  -29.6837   24.1123 H   0  0  0  0  0  0
  -27.4088  -29.7278   25.4488 H   0  0  0  0  0  0
  -27.8626  -30.4413   23.9183 H   0  0  0  0  0  0
  -27.2698  -33.3564   26.2123 H   0  0  0  0  0  0
  -28.3837  -32.6860   25.0291 H   0  0  0  0  0  0
  -28.0751  -31.8362   26.5337 H   0  0  0  0  0  0
  -28.2603  -38.0105   24.7495 H   0  0  0  0  0  0
  -28.1070  -36.2629   24.6299 H   0  0  0  0  0  0
  -27.2295  -37.1498   25.8864 H   0  0  0  0  0  0
  -20.9256  -29.8806   21.7052 H   0  0  0  0  0  0
  -26.0207  -38.2889   24.1377 H   0  0  0  0  0  0
  -30.7447  -18.1119   19.5417 H   0  0  0  0  0  0
  -26.6664  -19.1068   22.1834 H   0  0  0  0  0  0
  -29.7471  -19.3129   17.6487 H   0  0  0  0  0  0
  -30.0419  -20.8176   18.5117 H   0  0  0  0  0  0
  -28.4468  -20.4591   17.8439 H   0  0  0  0  0  0
  -27.3574  -17.6675   23.9182 H   0  0  0  0  0  0
  -28.9521  -16.9422   23.9546 H   0  0  0  0  0  0
  -27.6465  -16.1602   23.0567 H   0  0  0  0  0  0
  -30.8440  -16.7117   22.8361 H   0  0  0  0  0  0
  -31.6066  -16.7993   21.2921 H   0  0  0  0  0  0
  -25.8440  -20.4559   20.4430 H   0  0  0  0  0  0
  -26.6608  -20.8060   18.9713 H   0  0  0  0  0  0
  -28.5846  -24.3183   21.2950 H   0  0  0  0  0  0
  -26.9701  -24.7120   20.7883 H   0  0  0  0  0  0
  -28.7859  -22.6558   19.4276 H   0  0  0  0  0  0
  -27.1964  -23.1098   18.8451 H   0  0  0  0  0  0
  -29.5694  -25.2544   19.2833 H   0  0  0  0  0  0
  -28.0485  -25.4536   18.4864 H   0  0  0  0  0  0
  -29.3409  -14.9420   21.9589 H   0  0  0  0  0  0
  -27.7910  -21.8468   21.4338 H   0  0  0  0  0  0
  -26.3346  -22.4322   21.0189 H   0  0  0  0  0  0
  1 25  1  0  0  0
  1 30  2  0  0  0
  1 84  1  0  0  0
  2  3  1  0  0  0
  2 25  1  0  0  0
  2 86  1  0  0  0
  2 87  1  0  0  0
  3  4  1  0  0  0
  3 88  1  0  0  0
  3 89  1  0  0  0
  4  5  1  0  0  0
  4 90  1  0  0  0
  4 91  1  0  0  0
  5  6  1  0  0  0
  5 26  1  0  0  0
  5 92  1  0  0  0
  6 25  1  0  0  0
  6 93  1  0  0  0
  6 94  1  0  0  0
  7  8  2  0  0  0
  7 26  1  0  0  0
  7 29  1  0  0  0
  8  9  1  0  0  0
  8 22  1  0  0  0
  9 10  1  0  0  0
  9 27  2  0  0  0
 10 11  2  0  0  0
 10 15  1  0  0  0
 11 12  1  0  0  0
 11 95  1  0  0  0
 12 13  2  0  0  0
 12 96  1  0  0  0
 13 14  1  0  0  0
 13 31  1  0  0  0
 14 15  2  0  0  0
 14 97  1  0  0  0
 15 98  1  0  0  0
 16 17  2  0  0  0
 16 21  1  0  0  0
 16 31  1  0  0  0
 17 18  1  0  0  0
 17 99  1  0  0  0
 18 19  2  0  0  0
 18100  1  0  0  0
 19 20  1  0  0  0
 19 24  1  0  0  0
 20 21  2  0  0  0
 20101  1  0  0  0
 21 23  1  0  0  0
 22 28  1  0  0  0
 22 32  2  0  0  0
 26 27  1  0  0  0
 28102  1  0  0  0
 28103  1  0  0  0
 29104  1  0  0  0
 29105  1  0  0  0
 33 34  1  0  0  0
 33 66  1  0  0  0
 33 70  2  0  0  0
 34 36  1  0  0  0
 34 59  1  0  0  0
 34106  1  0  0  0
 35 44  2  0  0  0
 35 45  1  0  0  0
 35 68  1  0  0  0
 36 56  1  0  0  0
 36107  1  0  0  0
 37 39  1  0  0  0
 37 47  1  0  0  0
 37 66  1  0  0  0
 37108  1  0  0  0
 38 43  2  0  0  0
 38 46  1  0  0  0
 38 47  1  0  0  0
 39 64  1  0  0  0
 39 67  2  0  0  0
 40 52  1  0  0  0
 40 53  2  0  0  0
 40 58  1  0  0  0
 41109  1  0  0  0
 41110  1  0  0  0
 41111  1  0  0  0
 41 48  1  0  0  0
 42 43  1  0  0  0
 42 66  1  0  0  0
 42112  1  0  0  0
 42113  1  0  0  0
 43 44  1  0  0  0
 44114  1  0  0  0
 45 46  2  0  0  0
 45115  1  0  0  0
 46116  1  0  0  0
 47117  1  0  0  0
 47118  1  0  0  0
 48 56  1  0  0  0
 48 65  1  0  0  0
 48119  1  0  0  0
 49 50  1  0  0  0
 49 53  1  0  0  0
 49 64  1  0  0  0
 49120  1  0  0  0
 50 51  1  0  0  0
 50121  1  0  0  0
 50122  1  0  0  0
 51 52  1  0  0  0
 51123  1  0  0  0
 51124  1  0  0  0
 52125  1  0  0  0
 52126  1  0  0  0
 53 54  1  0  0  0
 54 55  2  0  0  0
 54127  1  0  0  0
 55 57  1  0  0  0
 55128  1  0  0  0
 56 69  2  0  0  0
 57 58  2  0  0  0
 57129  1  0  0  0
 58130  1  0  0  0
 59 60  1  0  0  0
 59 61  1  0  0  0
 59 62  1  0  0  0
 60131  1  0  0  0
 60132  1  0  0  0
 60133  1  0  0  0
 61134  1  0  0  0
 61135  1  0  0  0
 61136  1  0  0  0
 62137  1  0  0  0
 62138  1  0  0  0
 62139  1  0  0  0
 63 65  1  0  0  0
 63140  1  0  0  0
 63141  1  0  0  0
 63142  1  0  0  0
 64143  1  0  0  0
 65144  1  0  0  0
 68 83  1  0  0  0
 71 73  2  0  0  0
 71 75  1  0  0  0
 71145  1  0  0  0
 72 74  1  0  0  0
 72 76  2  0  0  0
 72146  1  0  0  0
 73 76  1  0  0  0
 73 77  1  0  0  0
 74 75  2  0  0  0
 74 78  1  0  0  0
 75 79  1  0  0  0
 76 80  1  0  0  0
 77147  1  0  0  0
 77148  1  0  0  0
 77149  1  0  0  0
 78150  1  0  0  0
 78151  1  0  0  0
 78152  1  0  0  0
 79 84  1  0  0  0
 79153  1  0  0  0
 79154  1  0  0  0
 80 85  1  0  0  0
 80155  1  0  0  0
 80156  1  0  0  0
 81 82  1  0  0  0
 81 83  1  0  0  0
 81157  1  0  0  0
 81158  1  0  0  0
 82 85  1  0  0  0
 82159  1  0  0  0
 82160  1  0  0  0
 83161  1  0  0  0
 83162  1  0  0  0
 84163  1  0  0  0
 85164  1  0  0  0
 85165  1  0  0  0
M  CHG  1  85   1
M  ISO  4   1 100  68 101  83 101  84 100
M  END
> <chiral flag>
0

> <version>
0

> <s_m_source_file>
/data/baiqing/PycharmProjects/Reinvent-master-3.2/result/LINK_invent/BTK/process_docking_weight1_custom_product_contain_oxygen_bond_distance_aromatic_linkinvent_7_9_3/rearranged_h_0037.sdf

> <i_m_source_file_index>
84

> <r_mmod_Potential_Energy-OPLS-2005>
-344.270294189453

> <r_mmod_Stretch_Energy-OPLS-2005>
34.1895332336426

> <r_mmod_Bend_Energy-OPLS-2005>
98.5621643066406

> <r_mmod_Torsional_Energy-OPLS-2005>
183.572326660156

> <r_mmod_Improper_Torsional_Energy-OPLS-2005>
1.80572783946991

> <r_mmod_Van_der_Waal_Energy-OPLS-2005>
152.616607666016

> <r_mmod_Electrostatic_Energy-OPLS-2005>
-361.562133789062

> <r_mmod_Solvation_Energy-OPLS-2005>
-461.323120117188

> <b_mmod_Minimization_Converged-OPLS-2005>
0

> <r_mmod_RMS_Derivative-OPLS-2005>
2.58421421051025

$$$$
84
                    3D
 Structure written by MMmdl.
169178  0  0  1  0            999 V2000
  -30.7177  -14.5600   20.5615 C   0  0  0  0  0  0
  -30.4264  -12.3682   19.4351 C   0  0  0  0  0  0
  -29.4945  -12.5130   18.2127 C   0  0  0  0  0  0
  -28.0201  -12.3705   18.6330 C   0  0  0  0  0  0
  -27.6579  -13.2292   19.8746 C   0  0  2  0  0  0
  -28.7073  -13.0777   20.9995 C   0  0  0  0  0  0
  -25.2553  -13.8268   20.5728 C   0  0  0  0  0  0
  -24.1813  -13.0482   20.9238 C   0  0  0  0  0  0
  -24.6393  -11.6961   20.8771 C   0  0  0  0  0  0
  -23.9065  -10.4315   21.0394 C   0  0  0  0  0  0
  -24.3623   -9.4214   21.9162 C   0  0  0  0  0  0
  -23.6298   -8.2259   22.0734 C   0  0  0  0  0  0
  -22.4283   -8.0259   21.3532 C   0  0  0  0  0  0
  -21.9896   -9.0246   20.4658 C   0  0  0  0  0  0
  -22.7231  -10.2119   20.3044 C   0  0  0  0  0  0
  -21.6869   -6.0694   22.5264 C   0  0  0  0  0  0
  -21.4023   -6.5608   23.8184 C   0  0  0  0  0  0
  -21.3691   -5.6776   24.9171 C   0  0  0  0  0  0
  -21.6050   -4.3035   24.7221 C   0  0  0  0  0  0
  -21.8845   -3.8113   23.4357 C   0  0  0  0  0  0
  -21.9217   -4.6929   22.3402 C   0  0  0  0  0  0
  -22.7838  -13.5229   21.1894 C   0  0  0  0  0  0
  -22.1675   -4.2111   21.0975 F   0  0  0  0  0  0
  -21.5635   -3.4500   25.7737 F   0  0  0  0  0  0
  -30.0283  -13.3878   20.4272 N   0  0  0  0  0  0
  -26.2996  -12.9457   20.3401 N   0  0  0  0  0  0
  -25.9330  -11.6596   20.5816 N   0  0  0  0  0  0
  -22.0470  -12.8191   22.0440 N   0  0  0  0  0  0
  -25.4283  -15.1994   20.4164 N   0  0  0  0  0  0
  -31.8407  -14.7165   20.0779 O   0  0  0  0  0  0
  -21.6685   -6.8830   21.4215 O   0  0  0  0  0  0
  -22.3499  -14.5521   20.6739 O   0  0  0  0  0  0
  -24.6241  -31.8656   23.2060 C   0  0  0  0  0  0
  -25.9100  -32.4842   23.8378 C   0  0  1  0  0  0
  -27.2389  -27.3691   20.1270 C   0  0  0  0  0  0
  -25.5934  -33.8638   24.2307 N   0  0  0  0  0  0
  -23.4179  -30.4922   21.5483 C   0  0  2  0  0  0
  -24.8661  -28.9406   20.1299 C   0  0  0  0  0  0
  -22.7469  -29.4696   22.4956 C   0  0  0  0  0  0
  -18.0300  -28.1439   22.8525 C   0  0  0  0  0  0
  -24.1466  -36.7270   23.2649 C   0  0  0  0  0  0
  -25.9562  -30.8056   21.3767 C   0  0  0  0  0  0
  -26.0323  -29.4282   20.7394 C   0  0  0  0  0  0
  -27.2231  -28.6497   20.7424 C   0  0  0  0  0  0
  -26.0585  -26.9172   19.5042 C   0  0  0  0  0  0
  -24.8774  -27.6827   19.5098 C   0  0  0  0  0  0
  -23.6330  -29.8221   20.1650 C   0  0  0  0  0  0
  -25.4110  -36.3117   24.0346 C   0  0  1  0  0  0
  -20.5901  -28.3728   23.1304 C   0  0  2  0  0  0
  -20.6799  -26.9447   22.5437 C   0  0  0  0  0  0
  -19.5758  -26.6421   21.5257 C   0  0  0  0  0  0
  -18.1933  -26.7995   22.1644 C   0  0  0  0  0  0
  -19.1557  -28.8894   23.2924 C   0  0  0  0  0  0
  -18.9496  -30.1498   23.8933 C   0  0  0  0  0  0
  -17.6501  -30.6642   24.0600 C   0  0  0  0  0  0
  -25.9053  -34.9495   23.5128 C   0  0  0  0  0  0
  -16.5382  -29.9156   23.6361 C   0  0  0  0  0  0
  -16.7291  -28.6572   23.0380 C   0  0  0  0  0  0
  -26.4479  -31.6655   25.0728 C   0  0  0  0  0  0
  -25.3693  -31.3831   26.1437 C   0  0  0  0  0  0
  -27.0295  -30.3083   24.6161 C   0  0  0  0  0  0
  -27.6051  -32.4389   25.7502 C   0  0  0  0  0  0
  -27.5582  -37.1806   24.8476 C   0  0  0  0  0  0
  -21.4189  -29.3059   22.3666 N   0  0  0  0  0  0
  -26.4283  -37.3823   23.9434 N   0  0  0  0  0  0
  -24.6851  -31.0724   22.1002 N   0  0  0  0  0  0
  -23.4207  -28.8219   23.3019 O   0  0  0  0  0  0
  -28.3561  -26.5672   19.9346 O   0  0  0  0  0  0
  -26.5623  -34.8977   22.4685 O   0  0  0  0  0  0
  -23.5413  -32.1412   23.7414 O   0  0  0  0  0  0
  -29.2676  -20.0335   22.5024 C   0  0  0  0  0  0
  -29.9400  -20.9998   21.7092 C   0  0  0  0  0  0
  -30.5072  -20.5152   20.4817 C   0  0  0  0  0  0
  -30.3632  -19.1209   20.1025 C   0  0  0  0  0  0
  -29.6756  -18.1788   20.9346 C   0  0  0  0  0  0
  -29.1451  -18.6703   22.1483 C   0  0  0  0  0  0
  -31.5857  -25.9397   21.6793 C   0  0  0  0  0  0
  -30.5761  -26.3873   20.6168 C   0  0  0  0  0  0
  -31.1264  -24.7003   22.4867 C   0  0  0  0  0  0
  -29.0648  -24.4203   21.1255 C   0  0  0  0  0  0
  -29.1436  -26.0086   21.0082 C   0  0  2  0  0  0
  -31.2979  -21.4455   19.5587 C   0  0  0  0  0  0
  -30.9265  -18.5954   18.7754 C   0  0  0  0  0  0
  -29.3963  -16.6925   20.5024 C   0  0  0  0  0  0
  -30.1157  -22.4126   22.3992 C   0  0  0  0  0  0
  -30.1151  -15.5945   21.1989 N   0  0  0  0  0  0
  -30.3076  -23.7391   21.6760 N   0  3  2  0  0  0
  -28.3285  -17.6119   23.2448 Cl  0  0  0  0  0  0
  -31.4726  -12.4618   19.1306 H   0  0  0  0  0  0
  -30.3303  -11.3662   19.8547 H   0  0  0  0  0  0
  -29.7291  -11.7650   17.4549 H   0  0  0  0  0  0
  -29.6590  -13.4824   17.7442 H   0  0  0  0  0  0
  -27.8561  -11.3196   18.8571 H   0  0  0  0  0  0
  -27.3572  -12.6089   17.7989 H   0  0  0  0  0  0
  -27.6843  -14.2698   19.5537 H   0  0  0  0  0  0
  -28.6991  -12.0626   21.3991 H   0  0  0  0  0  0
  -28.4657  -13.7325   21.8390 H   0  0  0  0  0  0
  -25.2734   -9.5705   22.4775 H   0  0  0  0  0  0
  -24.0039   -7.4652   22.7421 H   0  0  0  0  0  0
  -21.0833   -8.8729   19.8964 H   0  0  0  0  0  0
  -22.3651  -10.9658   19.6172 H   0  0  0  0  0  0
  -21.1991   -7.6120   23.9667 H   0  0  0  0  0  0
  -21.1502   -6.0514   25.9073 H   0  0  0  0  0  0
  -22.0605   -2.7573   23.2866 H   0  0  0  0  0  0
  -22.4089  -11.9873   22.4852 H   0  0  0  0  0  0
  -21.1079  -13.1170   22.2663 H   0  0  0  0  0  0
  -24.6712  -15.8584   20.5559 H   0  0  0  0  0  0
  -26.2852  -15.6394   20.1015 H   0  0  0  0  0  0
  -26.7171  -32.5542   23.1144 H   0  0  0  0  0  0
  -25.0108  -33.9784   25.0479 H   0  0  0  0  0  0
  -22.7109  -31.3122   21.4057 H   0  0  0  0  0  0
  -23.3757  -35.9566   23.3339 H   0  0  0  0  0  0
  -24.3541  -36.8830   22.2043 H   0  0  0  0  0  0
  -23.7159  -37.6479   23.6609 H   0  0  0  0  0  0
  -26.0937  -31.5629   20.6016 H   0  0  0  0  0  0
  -26.8354  -30.8548   22.0070 H   0  0  0  0  0  0
  -28.1277  -29.0407   21.1862 H   0  0  0  0  0  0
  -26.0572  -25.9645   18.9943 H   0  0  0  0  0  0
  -23.9910  -27.3031   19.0201 H   0  0  0  0  0  0
  -23.7523  -30.5922   19.4015 H   0  0  0  0  0  0
  -22.7549  -29.2488   19.8651 H   0  0  0  0  0  0
  -25.1301  -36.1981   25.0841 H   0  0  0  0  0  0
  -21.0047  -28.3314   24.1410 H   0  0  0  0  0  0
  -20.5755  -26.2339   23.3639 H   0  0  0  0  0  0
  -21.6673  -26.7512   22.1202 H   0  0  0  0  0  0
  -19.6919  -25.6335   21.1282 H   0  0  0  0  0  0
  -19.6707  -27.3250   20.6790 H   0  0  0  0  0  0
  -17.4230  -26.6792   21.4010 H   0  0  0  0  0  0
  -18.0273  -26.0144   22.9027 H   0  0  0  0  0  0
  -19.7971  -30.7312   24.2300 H   0  0  0  0  0  0
  -17.5066  -31.6324   24.5191 H   0  0  0  0  0  0
  -15.5398  -30.3079   23.7687 H   0  0  0  0  0  0
  -15.8677  -28.0908   22.7084 H   0  0  0  0  0  0
  -24.5890  -30.7157   25.7793 H   0  0  0  0  0  0
  -24.8856  -32.3005   26.4804 H   0  0  0  0  0  0
  -25.8003  -30.9084   27.0251 H   0  0  0  0  0  0
  -26.2862  -29.6893   24.1134 H   0  0  0  0  0  0
  -27.3944  -29.7305   25.4669 H   0  0  0  0  0  0
  -27.8761  -30.4412   23.9418 H   0  0  0  0  0  0
  -27.2678  -33.3709   26.2066 H   0  0  0  0  0  0
  -28.3872  -32.6926   25.0331 H   0  0  0  0  0  0
  -28.0672  -31.8500   26.5426 H   0  0  0  0  0  0
  -28.2660  -38.0064   24.7582 H   0  0  0  0  0  0
  -28.1032  -36.2622   24.6252 H   0  0  0  0  0  0
  -27.2315  -37.1411   25.8885 H   0  0  0  0  0  0
  -20.9348  -29.8743   21.6857 H   0  0  0  0  0  0
  -26.0164  -38.2909   24.1448 H   0  0  0  0  0  0
  -28.8672  -20.3217   23.4644 H   0  0  0  0  0  0
  -31.7653  -26.7690   22.3685 H   0  0  0  0  0  0
  -32.5472  -25.7581   21.1961 H   0  0  0  0  0  0
  -30.6781  -27.4541   20.4118 H   0  0  0  0  0  0
  -30.8087  -25.8879   19.6760 H   0  0  0  0  0  0
  -30.5416  -25.0470   23.3406 H   0  0  0  0  0  0
  -32.0115  -24.2190   22.9080 H   0  0  0  0  0  0
  -28.8904  -23.9913   20.1393 H   0  0  0  0  0  0
  -28.2036  -24.1608   21.7367 H   0  0  0  0  0  0
  -28.8756  -26.4813   21.9550 H   0  0  0  0  0  0
  -32.3676  -21.2312   19.6177 H   0  0  0  0  0  0
  -31.1493  -22.5078   19.7314 H   0  0  0  0  0  0
  -30.9983  -21.3049   18.5231 H   0  0  0  0  0  0
  -30.1008  -18.4020   18.0880 H   0  0  0  0  0  0
  -31.4603  -17.6517   18.9125 H   0  0  0  0  0  0
  -31.6265  -19.2537   18.2677 H   0  0  0  0  0  0
  -29.5291  -16.5768   19.4296 H   0  0  0  0  0  0
  -28.3296  -16.5025   20.6417 H   0  0  0  0  0  0
  -30.9741  -22.2581   23.0561 H   0  0  0  0  0  0
  -29.2860  -22.5578   23.0976 H   0  0  0  0  0  0
  -30.7366  -15.9967   21.8853 H   0  0  0  0  0  0
  -30.9052  -23.5206   20.8953 H   0  0  0  0  0  0
  1 25  1  0  0  0
  1 30  2  0  0  0
  1 86  1  0  0  0
  2  3  1  0  0  0
  2 25  1  0  0  0
  2 89  1  0  0  0
  2 90  1  0  0  0
  3  4  1  0  0  0
  3 91  1  0  0  0
  3 92  1  0  0  0
  4  5  1  0  0  0
  4 93  1  0  0  0
  4 94  1  0  0  0
  5  6  1  0  0  0
  5 26  1  0  0  0
  5 95  1  0  0  0
  6 25  1  0  0  0
  6 96  1  0  0  0
  6 97  1  0  0  0
  7  8  2  0  0  0
  7 26  1  0  0  0
  7 29  1  0  0  0
  8  9  1  0  0  0
  8 22  1  0  0  0
  9 10  1  0  0  0
  9 27  2  0  0  0
 10 11  2  0  0  0
 10 15  1  0  0  0
 11 12  1  0  0  0
 11 98  1  0  0  0
 12 13  2  0  0  0
 12 99  1  0  0  0
 13 14  1  0  0  0
 13 31  1  0  0  0
 14 15  2  0  0  0
 14100  1  0  0  0
 15101  1  0  0  0
 16 17  2  0  0  0
 16 21  1  0  0  0
 16 31  1  0  0  0
 17 18  1  0  0  0
 17102  1  0  0  0
 18 19  2  0  0  0
 18103  1  0  0  0
 19 20  1  0  0  0
 19 24  1  0  0  0
 20 21  2  0  0  0
 20104  1  0  0  0
 21 23  1  0  0  0
 22 28  1  0  0  0
 22 32  2  0  0  0
 26 27  1  0  0  0
 28105  1  0  0  0
 28106  1  0  0  0
 29107  1  0  0  0
 29108  1  0  0  0
 33 34  1  0  0  0
 33 66  1  0  0  0
 33 70  2  0  0  0
 34 36  1  0  0  0
 34 59  1  0  0  0
 34109  1  0  0  0
 35 44  2  0  0  0
 35 45  1  0  0  0
 35 68  1  0  0  0
 36 56  1  0  0  0
 36110  1  0  0  0
 37 39  1  0  0  0
 37 47  1  0  0  0
 37 66  1  0  0  0
 37111  1  0  0  0
 38 43  2  0  0  0
 38 46  1  0  0  0
 38 47  1  0  0  0
 39 64  1  0  0  0
 39 67  2  0  0  0
 40 52  1  0  0  0
 40 53  2  0  0  0
 40 58  1  0  0  0
 41112  1  0  0  0
 41113  1  0  0  0
 41114  1  0  0  0
 41 48  1  0  0  0
 42 43  1  0  0  0
 42 66  1  0  0  0
 42115  1  0  0  0
 42116  1  0  0  0
 43 44  1  0  0  0
 44117  1  0  0  0
 45 46  2  0  0  0
 45118  1  0  0  0
 46119  1  0  0  0
 47120  1  0  0  0
 47121  1  0  0  0
 48 56  1  0  0  0
 48 65  1  0  0  0
 48122  1  0  0  0
 49 50  1  0  0  0
 49 53  1  0  0  0
 49 64  1  0  0  0
 49123  1  0  0  0
 50 51  1  0  0  0
 50124  1  0  0  0
 50125  1  0  0  0
 51 52  1  0  0  0
 51126  1  0  0  0
 51127  1  0  0  0
 52128  1  0  0  0
 52129  1  0  0  0
 53 54  1  0  0  0
 54 55  2  0  0  0
 54130  1  0  0  0
 55 57  1  0  0  0
 55131  1  0  0  0
 56 69  2  0  0  0
 57 58  2  0  0  0
 57132  1  0  0  0
 58133  1  0  0  0
 59 60  1  0  0  0
 59 61  1  0  0  0
 59 62  1  0  0  0
 60134  1  0  0  0
 60135  1  0  0  0
 60136  1  0  0  0
 61137  1  0  0  0
 61138  1  0  0  0
 61139  1  0  0  0
 62140  1  0  0  0
 62141  1  0  0  0
 62142  1  0  0  0
 63 65  1  0  0  0
 63143  1  0  0  0
 63144  1  0  0  0
 63145  1  0  0  0
 64146  1  0  0  0
 65147  1  0  0  0
 68 81  1  0  0  0
 71 72  2  0  0  0
 71 76  1  0  0  0
 71148  1  0  0  0
 72 73  1  0  0  0
 72 85  1  0  0  0
 73 74  2  0  0  0
 73 82  1  0  0  0
 74 75  1  0  0  0
 74 83  1  0  0  0
 75 76  2  0  0  0
 75 84  1  0  0  0
 76 88  1  0  0  0
 77 78  1  0  0  0
 77 79  1  0  0  0
 77149  1  0  0  0
 77150  1  0  0  0
 78 81  1  0  0  0
 78151  1  0  0  0
 78152  1  0  0  0
 79 87  1  0  0  0
 79153  1  0  0  0
 79154  1  0  0  0
 80 81  1  0  0  0
 80 87  1  0  0  0
 80155  1  0  0  0
 80156  1  0  0  0
 81157  1  0  0  0
 82158  1  0  0  0
 82159  1  0  0  0
 82160  1  0  0  0
 83161  1  0  0  0
 83162  1  0  0  0
 83163  1  0  0  0
 84 86  1  0  0  0
 84164  1  0  0  0
 84165  1  0  0  0
 85166  1  0  0  0
 85167  1  0  0  0
 85 87  1  0  0  0
 86168  1  0  0  0
 87169  1  0  0  0
M  CHG  1  87   1
M  ISO  4   1 100  68 101  81 101  86 100
M  END
> <chiral flag>
0

> <version>
0

> <s_m_source_file>
/data/baiqing/PycharmProjects/Reinvent-master-3.2/result/LINK_invent/BTK/process_docking_weight1_custom_product_contain_oxygen_bond_distance_aromatic_linkinvent_7_9_3/rearranged_h_0037.sdf

> <i_m_source_file_index>
85

> <r_mmod_Potential_Energy-OPLS-2005>
74.3521041870117

> <r_mmod_Stretch_Energy-OPLS-2005>
77.0242309570312

> <r_mmod_Bend_Energy-OPLS-2005>
180.742614746094

> <r_mmod_Torsional_Energy-OPLS-2005>
342.251861572266

> <r_mmod_Improper_Torsional_Energy-OPLS-2005>
8.17658710479736

> <r_mmod_Van_der_Waal_Energy-OPLS-2005>
149.787643432617

> <r_mmod_Electrostatic_Energy-OPLS-2005>
-287.918670654297

> <r_mmod_Solvation_Energy-OPLS-2005>
-423.556488037109

> <b_mmod_Minimization_Converged-OPLS-2005>
0

> <r_mmod_RMS_Derivative-OPLS-2005>
6.48822832107544

$$$$
85
                    3D
 Structure written by MMmdl.
178187  0  0  1  0            999 V2000
  -30.4873  -14.6557   19.8695 C   0  0  0  0  0  0
  -30.8040  -12.2917   19.4696 C   0  0  0  0  0  0
  -29.8877  -12.0725   18.2623 C   0  0  0  0  0  0
  -28.4787  -11.8309   18.8144 C   0  0  0  0  0  0
  -28.1113  -12.9159   19.8963 C   0  0  2  0  0  0
  -29.0921  -13.0033   21.0168 C   0  0  0  0  0  0
  -25.0848  -14.3167   20.2798 C   0  0  0  0  0  0
  -23.9179  -13.7224   21.0856 C   0  0  0  0  0  0
  -23.8421  -12.7211   20.2768 C   0  0  0  0  0  0
  -23.5570  -11.4069   20.9419 C   0  0  0  0  0  0
  -23.9479  -11.1515   22.5355 C   0  0  0  0  0  0
  -23.8086   -9.6689   23.1615 C   0  0  0  0  0  0
  -22.9068   -8.1335   21.5843 C   0  0  0  0  0  0
  -22.6434   -8.8091   20.1508 C   0  0  0  0  0  0
  -22.9442  -10.3446   19.9085 C   0  0  0  0  0  0
  -21.6529   -5.9859   22.5340 C   0  0  0  0  0  0
  -20.9421   -6.1786   23.7634 C   0  0  0  0  0  0
  -21.1037   -5.3767   24.8821 C   0  0  0  0  0  0
  -21.6345   -4.1156   24.6889 C   0  0  0  0  0  0
  -22.0183   -3.7206   23.3917 C   0  0  0  0  0  0
  -22.0236   -4.6469   22.3214 C   0  0  0  0  0  0
  -22.4795  -14.0894   21.3543 C   0  0  0  0  0  0
  -22.3559   -4.2356   21.0783 F   0  0  0  0  0  0
  -21.6603   -3.2673   25.7361 F   0  0  0  0  0  0
  -30.2517  -13.3880   20.2691 N   0  0  0  0  0  0
  -26.6461  -14.1403   20.1599 N   0  0  0  0  0  0
  -24.7605  -13.8639   20.2613 N   0  0  0  0  0  0
  -21.8307  -13.3417   22.2466 N   0  0  0  0  0  0
  -26.8681  -14.6754   20.2056 N   0  0  0  0  0  0
  -31.6478  -15.0610   19.9552 O   0  0  0  0  0  0
  -21.9995   -6.9774   21.5770 O   0  0  0  0  0  0
  -21.9465  -14.9361   20.6656 O   0  0  0  0  0  0
  -24.7205  -31.7458   23.1273 C   0  0  0  0  0  0
  -25.9640  -32.4153   23.7887 C   0  0  1  0  0  0
  -26.6465  -25.9858   20.4584 C   0  0  0  0  0  0
  -25.6066  -33.8039   24.1690 N   0  0  0  0  0  0
  -23.5386  -30.3644   21.4944 C   0  0  2  0  0  0
  -24.9062  -28.5952   20.1169 C   0  0  0  0  0  0
  -22.7798  -29.4089   22.4572 C   0  0  0  0  0  0
  -18.0322  -28.1429   22.8425 C   0  0  0  0  0  0
  -24.1495  -36.7008   23.2660 C   0  0  0  0  0  0
  -26.1183  -30.2261   21.5067 C   0  0  0  0  0  0
  -26.0633  -28.7279   20.8824 C   0  0  0  0  0  0
  -26.9338  -27.4570   21.0064 C   0  0  0  0  0  0
  -25.6354  -26.2595   19.4999 C   0  0  0  0  0  0
  -24.7940  -27.4120   19.3715 C   0  0  0  0  0  0
  -23.8012  -29.6748   20.1220 C   0  0  0  0  0  0
  -25.4178  -36.2728   24.0237 C   0  0  1  0  0  0
  -20.5947  -28.3782   23.1086 C   0  0  2  0  0  0
  -20.6773  -26.9418   22.5416 C   0  0  0  0  0  0
  -19.5765  -26.6342   21.5219 C   0  0  0  0  0  0
  -18.1939  -26.7953   22.1603 C   0  0  0  0  0  0
  -19.1588  -28.8943   23.2724 C   0  0  0  0  0  0
  -18.9508  -30.1521   23.8787 C   0  0  0  0  0  0
  -17.6496  -30.6608   24.0545 C   0  0  0  0  0  0
  -25.9205  -34.9130   23.4834 C   0  0  0  0  0  0
  -16.5380  -29.9083   23.6360 C   0  0  0  0  0  0
  -16.7307  -28.6504   23.0377 C   0  0  0  0  0  0
  -26.4670  -31.6447   25.0734 C   0  0  0  0  0  0
  -25.3592  -31.3929   26.1242 C   0  0  0  0  0  0
  -27.0702  -30.2725   24.7120 C   0  0  0  0  0  0
  -27.6035  -32.4448   25.7532 C   0  0  0  0  0  0
  -27.5553  -37.1662   24.8464 C   0  0  0  0  0  0
  -21.4426  -29.2957   22.3337 N   0  0  0  0  0  0
  -26.4251  -37.3556   23.9413 N   0  0  0  0  0  0
  -24.8282  -30.8350   22.0875 N   0  0  0  0  0  0
  -23.4103  -28.7720   23.3044 O   0  0  0  0  0  0
  -27.0986  -24.3530   20.6324 O   0  0  0  0  0  0
  -26.5900  -34.8797   22.4495 O   0  0  0  0  0  0
  -23.6172  -32.0900   23.5918 O   0  0  0  0  0  0
  -26.0367  -14.3785   22.3346 C   0  0  0  0  0  0
  -26.1167  -12.2622   21.1622 C   0  0  0  0  0  0
  -25.9225  -12.4562   18.9089 C   0  0  0  0  0  0
  -25.8401  -14.4009   18.0419 C   0  0  0  0  0  0
  -25.5948  -16.1933   19.0718 C   0  0  0  0  0  0
  -25.7682  -16.4229   21.1220 C   0  0  0  0  0  0
  -25.0854   -7.7990   22.4620 C   0  0  0  0  0  0
  -26.2161   -7.0919   22.3370 C   0  0  0  0  0  0
  -23.6188   -7.4393   23.7499 C   0  0  0  0  0  0
  -21.8151   -8.6669   23.6161 C   0  0  0  0  0  0
  -21.9552  -10.0087   22.1003 C   0  0  0  0  0  0
  -25.5425  -11.2714   18.0234 C   0  0  0  0  0  0
  -25.4882  -17.4900   18.2961 C   0  0  0  0  0  0
  -26.0614  -10.4844   21.3294 C   0  0  0  0  0  0
  -26.5124  -20.0850   20.7893 C   0  0  0  0  0  0
  -28.6829  -15.4029   17.8688 C   0  0  0  0  0  0
  -26.3930  -22.4075   20.8647 C   0  0  0  0  0  0
  -27.2184  -14.7425   17.2295 C   0  0  0  0  0  0
  -25.9830  -18.2340   21.3701 N   0  0  0  0  0  0
  -29.4465  -15.3877   19.2597 N   0  0  0  0  0  0
  -24.7306   -9.3659   21.2509 N   0  3  2  0  0  0
  -27.6339  -13.3886   16.1491 Cl  0  0  0  0  0  0
  -26.7506  -15.9257   15.9720 Cl  0  0  0  0  0  0
  -31.8213  -12.5179   19.1389 H   0  0  0  0  0  0
  -30.8775  -11.3858   20.0741 H   0  0  0  0  0  0
  -30.2235  -11.2065   17.6912 H   0  0  0  0  0  0
  -29.9416  -12.9201   17.5779 H   0  0  0  0  0  0
  -28.4639  -10.8538   19.2938 H   0  0  0  0  0  0
  -27.9123  -11.6936   17.9174 H   0  0  0  0  0  0
  -28.3769  -13.4337   19.0195 H   0  0  0  0  0  0
  -29.2092  -12.0458   21.5231 H   0  0  0  0  0  0
  -28.8376  -13.7553   21.7629 H   0  0  0  0  0  0
  -24.3230  -11.9631   23.1540 H   0  0  0  0  0  0
  -23.9837   -9.6399   24.2350 H   0  0  0  0  0  0
  -22.1599   -8.2336   19.3709 H   0  0  0  0  0  0
  -22.7003  -10.7167   18.9233 H   0  0  0  0  0  0
  -20.1975   -6.9178   23.9831 H   0  0  0  0  0  0
  -20.6480   -5.6282   25.8289 H   0  0  0  0  0  0
  -22.3399   -2.7074   23.2170 H   0  0  0  0  0  0
  -22.3378  -12.6960   22.8324 H   0  0  0  0  0  0
  -20.8551  -13.5327   22.4340 H   0  0  0  0  0  0
  -27.1798  -14.6131   21.1638 H   0  0  0  0  0  0
  -26.9701  -15.6199   19.8631 H   0  0  0  0  0  0
  -26.7717  -32.4415   23.0558 H   0  0  0  0  0  0
  -25.0029  -33.9029   24.9720 H   0  0  0  0  0  0
  -22.8905  -31.2233   21.3063 H   0  0  0  0  0  0
  -23.3817  -35.9270   23.3214 H   0  0  0  0  0  0
  -24.3537  -36.8818   22.2093 H   0  0  0  0  0  0
  -23.7191  -37.6108   23.6857 H   0  0  0  0  0  0
  -26.4273  -30.8907   20.6983 H   0  0  0  0  0  0
  -26.9489  -30.2623   22.1957 H   0  0  0  0  0  0
  -27.7667  -27.5436   21.6917 H   0  0  0  0  0  0
  -25.3355  -25.4134   18.8973 H   0  0  0  0  0  0
  -23.9562  -27.3264   18.6933 H   0  0  0  0  0  0
  -24.0820  -30.4344   19.3927 H   0  0  0  0  0  0
  -22.8736  -29.2430   19.7452 H   0  0  0  0  0  0
  -25.1404  -36.1419   25.0722 H   0  0  0  0  0  0
  -21.0023  -28.3453   24.1216 H   0  0  0  0  0  0
  -20.5617  -26.2415   23.3697 H   0  0  0  0  0  0
  -21.6634  -26.7331   22.1245 H   0  0  0  0  0  0
  -19.6922  -25.6220   21.1318 H   0  0  0  0  0  0
  -19.6739  -27.3092   20.6700 H   0  0  0  0  0  0
  -17.4217  -26.6681   21.3999 H   0  0  0  0  0  0
  -18.0322  -26.0125   22.9027 H   0  0  0  0  0  0
  -19.7998  -30.7356   24.2105 H   0  0  0  0  0  0
  -17.5065  -31.6295   24.5160 H   0  0  0  0  0  0
  -15.5382  -30.2972   23.7776 H   0  0  0  0  0  0
  -15.8691  -28.0820   22.7156 H   0  0  0  0  0  0
  -24.5820  -30.7243   25.7510 H   0  0  0  0  0  0
  -24.8734  -32.3199   26.4299 H   0  0  0  0  0  0
  -25.7620  -30.9306   27.0261 H   0  0  0  0  0  0
  -26.3450  -29.6051   24.2453 H   0  0  0  0  0  0
  -27.4165  -29.7547   25.6076 H   0  0  0  0  0  0
  -27.9453  -30.3699   24.0691 H   0  0  0  0  0  0
  -27.2536  -33.3896   26.1708 H   0  0  0  0  0  0
  -28.4020  -32.6777   25.0470 H   0  0  0  0  0  0
  -28.0519  -31.8870   26.5765 H   0  0  0  0  0  0
  -28.2493  -38.0029   24.7563 H   0  0  0  0  0  0
  -28.1127  -36.2552   24.6240 H   0  0  0  0  0  0
  -27.2265  -37.1211   25.8861 H   0  0  0  0  0  0
  -20.9780  -29.8601   21.6357 H   0  0  0  0  0  0
  -26.0027  -38.2571   24.1474 H   0  0  0  0  0  0
  -26.1284  -14.4012   23.4107 H   0  0  0  0  0  0
  -26.4246   -6.2447   22.9692 H   0  0  0  0  0  0
  -26.9544   -7.3602   21.5985 H   0  0  0  0  0  0
  -24.0557   -7.6467   24.7306 H   0  0  0  0  0  0
  -23.5318   -6.3684   23.8965 H   0  0  0  0  0  0
  -21.5916   -9.1629   24.5663 H   0  0  0  0  0  0
  -20.8662   -8.4143   23.1733 H   0  0  0  0  0  0
  -21.6543  -10.9476   22.5705 H   0  0  0  0  0  0
  -21.0651   -9.8622   21.4669 H   0  0  0  0  0  0
  -24.4752  -11.3142   17.8229 H   0  0  0  0  0  0
  -25.7767  -10.3136   18.4810 H   0  0  0  0  0  0
  -26.0161  -11.3223   17.0450 H   0  0  0  0  0  0
  -26.4794  -17.8920   18.0868 H   0  0  0  0  0  0
  -24.9345  -18.2347   18.8676 H   0  0  0  0  0  0
  -24.9496  -17.3421   17.3602 H   0  0  0  0  0  0
  -26.5326  -10.2946   22.2938 H   0  0  0  0  0  0
  -26.7826  -10.0947   20.6161 H   0  0  0  0  0  0
  -27.5576  -19.9922   21.0883 H   0  0  0  0  0  0
  -26.5469  -19.9262   19.7101 H   0  0  0  0  0  0
  -28.4861  -16.4741   17.8285 H   0  0  0  0  0  0
  -29.4499  -15.2721   17.1051 H   0  0  0  0  0  0
  -26.0265  -22.5279   21.8857 H   0  0  0  0  0  0
  -25.4995  -22.5355   20.2504 H   0  0  0  0  0  0
  -26.0514  -18.3128   22.3850 H   0  0  0  0  0  0
  -29.5851  -16.3529   19.5124 H   0  0  0  0  0  0
  -24.6525  -10.0620   21.9852 H   0  0  0  0  0  0
  1 25  1  0  0  0
  1 30  2  0  0  0
  1 90  1  0  0  0
  2  3  1  0  0  0
  2 25  1  0  0  0
  2 94  1  0  0  0
  2 95  1  0  0  0
  3  4  1  0  0  0
  3 96  1  0  0  0
  3 97  1  0  0  0
  4  5  1  0  0  0
  4 98  1  0  0  0
  4 99  1  0  0  0
  5  6  1  0  0  0
  5 26  1  0  0  0
  5100  1  0  0  0
  6 25  1  0  0  0
  6101  1  0  0  0
  6102  1  0  0  0
  7  8  2  0  0  0
  7 26  1  0  0  0
  7 29  1  0  0  0
  8  9  1  0  0  0
  8 22  1  0  0  0
  9 10  1  0  0  0
  9 27  2  0  0  0
 10 11  2  0  0  0
 10 15  1  0  0  0
 11 12  1  0  0  0
 11103  1  0  0  0
 12 13  2  0  0  0
 12104  1  0  0  0
 13 14  1  0  0  0
 13 31  1  0  0  0
 14 15  2  0  0  0
 14105  1  0  0  0
 15106  1  0  0  0
 16 17  2  0  0  0
 16 21  1  0  0  0
 16 31  1  0  0  0
 17 18  1  0  0  0
 17107  1  0  0  0
 18 19  2  0  0  0
 18108  1  0  0  0
 19 20  1  0  0  0
 19 24  1  0  0  0
 20 21  2  0  0  0
 20109  1  0  0  0
 21 23  1  0  0  0
 22 28  1  0  0  0
 22 32  2  0  0  0
 26 27  1  0  0  0
 28110  1  0  0  0
 28111  1  0  0  0
 29112  1  0  0  0
 29113  1  0  0  0
 33 34  1  0  0  0
 33 66  1  0  0  0
 33 70  2  0  0  0
 34 36  1  0  0  0
 34 59  1  0  0  0
 34114  1  0  0  0
 35 44  2  0  0  0
 35 45  1  0  0  0
 35 68  1  0  0  0
 36 56  1  0  0  0
 36115  1  0  0  0
 37 39  1  0  0  0
 37 47  1  0  0  0
 37 66  1  0  0  0
 37116  1  0  0  0
 38 43  2  0  0  0
 38 46  1  0  0  0
 38 47  1  0  0  0
 39 64  1  0  0  0
 39 67  2  0  0  0
 40 52  1  0  0  0
 40 53  2  0  0  0
 40 58  1  0  0  0
 41117  1  0  0  0
 41118  1  0  0  0
 41119  1  0  0  0
 41 48  1  0  0  0
 42 43  1  0  0  0
 42 66  1  0  0  0
 42120  1  0  0  0
 42121  1  0  0  0
 43 44  1  0  0  0
 44122  1  0  0  0
 45 46  2  0  0  0
 45123  1  0  0  0
 46124  1  0  0  0
 47125  1  0  0  0
 47126  1  0  0  0
 48 56  1  0  0  0
 48 65  1  0  0  0
 48127  1  0  0  0
 49 50  1  0  0  0
 49 53  1  0  0  0
 49 64  1  0  0  0
 49128  1  0  0  0
 50 51  1  0  0  0
 50129  1  0  0  0
 50130  1  0  0  0
 51 52  1  0  0  0
 51131  1  0  0  0
 51132  1  0  0  0
 52133  1  0  0  0
 52134  1  0  0  0
 53 54  1  0  0  0
 54 55  2  0  0  0
 54135  1  0  0  0
 55 57  1  0  0  0
 55136  1  0  0  0
 56 69  2  0  0  0
 57 58  2  0  0  0
 57137  1  0  0  0
 58138  1  0  0  0
 59 60  1  0  0  0
 59 61  1  0  0  0
 59 62  1  0  0  0
 60139  1  0  0  0
 60140  1  0  0  0
 60141  1  0  0  0
 61142  1  0  0  0
 61143  1  0  0  0
 61144  1  0  0  0
 62145  1  0  0  0
 62146  1  0  0  0
 62147  1  0  0  0
 63 65  1  0  0  0
 63148  1  0  0  0
 63149  1  0  0  0
 63150  1  0  0  0
 64151  1  0  0  0
 65152  1  0  0  0
 68 87  1  0  0  0
 71 72  2  0  0  0
 71 76  1  0  0  0
 71153  1  0  0  0
 72 73  1  0  0  0
 72 84  1  0  0  0
 73 74  2  0  0  0
 73 82  1  0  0  0
 74 75  1  0  0  0
 74 88  1  0  0  0
 75 76  2  0  0  0
 75 83  1  0  0  0
 76 89  1  0  0  0
 77 78  2  0  0  0
 77 79  1  0  0  0
 77 91  1  0  0  0
 78154  1  0  0  0
 78155  1  0  0  0
 79 80  1  0  0  0
 79156  1  0  0  0
 79157  1  0  0  0
 80 81  1  0  0  0
 80158  1  0  0  0
 80159  1  0  0  0
 81 91  1  0  0  0
 81160  1  0  0  0
 81161  1  0  0  0
 82162  1  0  0  0
 82163  1  0  0  0
 82164  1  0  0  0
 83165  1  0  0  0
 83166  1  0  0  0
 83167  1  0  0  0
 84168  1  0  0  0
 84169  1  0  0  0
 84 91  1  0  0  0
 85 87  1  0  0  0
 85 89  1  0  0  0
 85170  1  0  0  0
 85171  1  0  0  0
 86 88  1  0  0  0
 86 90  1  0  0  0
 86172  1  0  0  0
 86173  1  0  0  0
 87174  1  0  0  0
 87175  1  0  0  0
 88 92  1  0  0  0
 88 93  1  0  0  0
 89176  1  0  0  0
 90177  1  0  0  0
 91178  1  0  0  0
M  CHG  1  91   1
M  ISO  4   1 100  68 101  87 101  90 100
M  END
> <chiral flag>
0

> <version>
0

> <s_m_source_file>
/data/baiqing/PycharmProjects/Reinvent-master-3.2/result/LINK_invent/BTK/process_docking_weight1_custom_product_contain_oxygen_bond_distance_aromatic_linkinvent_7_9_3/rearranged_h_0037.sdf

> <i_m_source_file_index>
86

> <r_mmod_Potential_Energy-OPLS-2005>
36250.03125

> <r_mmod_Stretch_Energy-OPLS-2005>
19858.072265625

> <r_mmod_Bend_Energy-OPLS-2005>
4264.81494140625

> <r_mmod_Torsional_Energy-OPLS-2005>
830.150085449219

> <r_mmod_Improper_Torsional_Energy-OPLS-2005>
144.282104492188

> <r_mmod_Van_der_Waal_Energy-OPLS-2005>
7785.70703125

> <r_mmod_Electrostatic_Energy-OPLS-2005>
-363.834197998047

> <r_mmod_Solvation_Energy-OPLS-2005>
-454.707458496094

> <b_mmod_Minimization_Converged-OPLS-2005>
0

> <r_mmod_RMS_Derivative-OPLS-2005>
6.78103590011597

$$$$
86
                    3D
 Structure written by MMmdl.
159167  0  0  1  0            999 V2000
  -30.7705  -14.3361   20.7162 C   0  0  0  0  0  0
  -30.4195  -12.2900   19.3792 C   0  0  0  0  0  0
  -29.4833  -12.5415   18.1833 C   0  0  0  0  0  0
  -28.0077  -12.3921   18.5984 C   0  0  0  0  0  0
  -27.6677  -13.2006   19.8772 C   0  0  2  0  0  0
  -28.7036  -12.9171   20.9860 C   0  0  0  0  0  0
  -25.2622  -13.8161   20.5689 C   0  0  0  0  0  0
  -24.1853  -13.0440   20.9163 C   0  0  0  0  0  0
  -24.6391  -11.6902   20.8698 C   0  0  0  0  0  0
  -23.9053  -10.4293   21.0395 C   0  0  0  0  0  0
  -24.3605   -9.4213   21.9176 C   0  0  0  0  0  0
  -23.6287   -8.2242   22.0750 C   0  0  0  0  0  0
  -22.4267   -8.0278   21.3542 C   0  0  0  0  0  0
  -21.9896   -9.0254   20.4648 C   0  0  0  0  0  0
  -22.7223  -10.2136   20.3052 C   0  0  0  0  0  0
  -21.6853   -6.0735   22.5281 C   0  0  0  0  0  0
  -21.4014   -6.5637   23.8214 C   0  0  0  0  0  0
  -21.3666   -5.6790   24.9177 C   0  0  0  0  0  0
  -21.6044   -4.3051   24.7223 C   0  0  0  0  0  0
  -21.8821   -3.8139   23.4347 C   0  0  0  0  0  0
  -21.9193   -4.6961   22.3404 C   0  0  0  0  0  0
  -22.7871  -13.5244   21.1831 C   0  0  0  0  0  0
  -22.1660   -4.2145   21.0980 F   0  0  0  0  0  0
  -21.5632   -3.4536   25.7736 F   0  0  0  0  0  0
  -30.0512  -13.2145   20.4604 N   0  0  0  0  0  0
  -26.3044  -12.9320   20.3345 N   0  0  0  0  0  0
  -25.9310  -11.6483   20.5701 N   0  0  0  0  0  0
  -22.0501  -12.8255   22.0398 N   0  0  0  0  0  0
  -25.4376  -15.1878   20.4162 N   0  0  0  0  0  0
  -31.7702  -14.6701   20.0720 O   0  0  0  0  0  0
  -21.6638   -6.8871   21.4240 O   0  0  0  0  0  0
  -22.3559  -14.5554   20.6694 O   0  0  0  0  0  0
  -24.6140  -31.8698   23.2118 C   0  0  0  0  0  0
  -25.9039  -32.4834   23.8401 C   0  0  1  0  0  0
  -27.2302  -27.4467   20.0880 C   0  0  0  0  0  0
  -25.5906  -33.8628   24.2341 N   0  0  0  0  0  0
  -23.4007  -30.4950   21.5534 C   0  0  2  0  0  0
  -24.8447  -28.9681   20.1142 C   0  0  0  0  0  0
  -22.7402  -29.4674   22.5001 C   0  0  0  0  0  0
  -18.0276  -28.1361   22.8491 C   0  0  0  0  0  0
  -24.1491  -36.7317   23.2639 C   0  0  0  0  0  0
  -25.9293  -30.8399   21.3640 C   0  0  0  0  0  0
  -26.0065  -29.4773   20.7069 C   0  0  0  0  0  0
  -27.2041  -28.7259   20.6885 C   0  0  0  0  0  0
  -26.0491  -26.9579   19.4811 C   0  0  0  0  0  0
  -24.8612  -27.7076   19.4966 C   0  0  0  0  0  0
  -23.6082  -29.8329   20.1662 C   0  0  0  0  0  0
  -25.4106  -36.3110   24.0339 C   0  0  1  0  0  0
  -20.5862  -28.3648   23.1327 C   0  0  2  0  0  0
  -20.6763  -26.9383   22.5428 C   0  0  0  0  0  0
  -19.5734  -26.6351   21.5228 C   0  0  0  0  0  0
  -18.1922  -26.7900   22.1640 C   0  0  0  0  0  0
  -19.1527  -28.8823   23.2901 C   0  0  0  0  0  0
  -18.9452  -30.1445   23.8896 C   0  0  0  0  0  0
  -17.6455  -30.6579   24.0556 C   0  0  0  0  0  0
  -25.9031  -34.9483   23.5132 C   0  0  0  0  0  0
  -16.5345  -29.9075   23.6320 C   0  0  0  0  0  0
  -16.7266  -28.6492   23.0344 C   0  0  0  0  0  0
  -26.4470  -31.6601   25.0716 C   0  0  0  0  0  0
  -25.3740  -31.3689   26.1464 C   0  0  0  0  0  0
  -27.0295  -30.3045   24.6083 C   0  0  0  0  0  0
  -27.6056  -32.4309   25.7469 C   0  0  0  0  0  0
  -27.5575  -37.1820   24.8466 C   0  0  0  0  0  0
  -21.4135  -29.3028   22.3743 N   0  0  0  0  0  0
  -26.4294  -37.3788   23.9403 N   0  0  0  0  0  0
  -24.6658  -31.0817   22.1013 N   0  0  0  0  0  0
  -23.4189  -28.8206   23.3018 O   0  0  0  0  0  0
  -28.3902  -26.6983   20.1045 O   0  0  0  0  0  0
  -26.5586  -34.8930   22.4690 O   0  0  0  0  0  0
  -23.5340  -32.1439   23.7537 O   0  0  0  0  0  0
  -29.5199  -17.6727   20.7659 C   0  0  0  0  0  0
  -29.3895  -19.7715   22.6199 C   0  0  0  0  0  0
  -30.1752  -17.5323   22.0104 C   0  0  0  0  0  0
  -28.7044  -19.8924   21.3908 C   0  0  0  0  0  0
  -30.1229  -18.6083   22.9317 C   0  0  0  0  0  0
  -28.7910  -18.8361   20.4536 C   0  0  0  0  0  0
  -30.9340  -16.2445   22.3393 C   0  0  0  0  0  0
  -27.8232  -21.1139   21.1325 C   0  0  0  0  0  0
  -29.5147  -24.5320   20.5898 C   0  0  0  0  0  0
  -29.3242  -23.1286   21.2214 C   0  0  0  0  0  0
  -28.1981  -25.3165   20.4383 C   0  0  0  0  0  0
  -30.3395  -15.0359   21.7715 N   0  0  0  0  0  0
  -28.4891  -22.2166   20.3991 N   0  3  0  0  0  0
  -30.9316  -18.5281   24.4584 Cl  0  0  0  0  0  0
  -28.0016  -18.9259   18.9189 Cl  0  0  0  0  0  0
  -31.4612  -12.4039   19.0728 H   0  0  0  0  0  0
  -30.3220  -11.2589   19.7250 H   0  0  0  0  0  0
  -29.7126  -11.8508   17.3712 H   0  0  0  0  0  0
  -29.6549  -13.5448   17.7888 H   0  0  0  0  0  0
  -27.8148  -11.3319   18.7691 H   0  0  0  0  0  0
  -27.3536  -12.6920   17.7788 H   0  0  0  0  0  0
  -27.7326  -14.2580   19.6191 H   0  0  0  0  0  0
  -28.6589  -11.8666   21.2781 H   0  0  0  0  0  0
  -28.4415  -13.4717   21.8867 H   0  0  0  0  0  0
  -25.2758   -9.5690   22.4742 H   0  0  0  0  0  0
  -24.0006   -7.4637   22.7471 H   0  0  0  0  0  0
  -21.0822   -8.8774   19.8960 H   0  0  0  0  0  0
  -22.3681  -10.9674   19.6156 H   0  0  0  0  0  0
  -21.2003   -7.6144   23.9716 H   0  0  0  0  0  0
  -21.1488   -6.0519   25.9084 H   0  0  0  0  0  0
  -22.0592   -2.7599   23.2849 H   0  0  0  0  0  0
  -22.4103  -11.9921   22.4816 H   0  0  0  0  0  0
  -21.1121  -13.1302   22.2590 H   0  0  0  0  0  0
  -24.6776  -15.8490   20.5344 H   0  0  0  0  0  0
  -26.3015  -15.6257   20.1225 H   0  0  0  0  0  0
  -26.7107  -32.5552   23.1168 H   0  0  0  0  0  0
  -25.0059  -33.9780   25.0486 H   0  0  0  0  0  0
  -22.6876  -31.3104   21.4181 H   0  0  0  0  0  0
  -23.3734  -35.9669   23.3330 H   0  0  0  0  0  0
  -24.3576  -36.8893   22.2044 H   0  0  0  0  0  0
  -23.7276  -37.6548   23.6626 H   0  0  0  0  0  0
  -26.0408  -31.6101   20.5993 H   0  0  0  0  0  0
  -26.8158  -30.8903   21.9838 H   0  0  0  0  0  0
  -28.1003  -29.1192   21.1476 H   0  0  0  0  0  0
  -26.0248  -26.0031   18.9772 H   0  0  0  0  0  0
  -23.9715  -27.3147   19.0257 H   0  0  0  0  0  0
  -23.7157  -30.6114   19.4095 H   0  0  0  0  0  0
  -22.7304  -29.2556   19.8696 H   0  0  0  0  0  0
  -25.1291  -36.1975   25.0832 H   0  0  0  0  0  0
  -20.9947  -28.3226   24.1456 H   0  0  0  0  0  0
  -20.5637  -26.2278   23.3626 H   0  0  0  0  0  0
  -21.6652  -26.7411   22.1263 H   0  0  0  0  0  0
  -19.6865  -25.6255   21.1271 H   0  0  0  0  0  0
  -19.6677  -27.3149   20.6740 H   0  0  0  0  0  0
  -17.4173  -26.6592   21.4071 H   0  0  0  0  0  0
  -18.0332  -26.0062   22.9075 H   0  0  0  0  0  0
  -19.7921  -30.7271   24.2259 H   0  0  0  0  0  0
  -17.5007  -31.6258   24.5150 H   0  0  0  0  0  0
  -15.5340  -30.2974   23.7639 H   0  0  0  0  0  0
  -15.8673  -28.0803   22.7051 H   0  0  0  0  0  0
  -24.5908  -30.7046   25.7800 H   0  0  0  0  0  0
  -24.8925  -32.2830   26.4938 H   0  0  0  0  0  0
  -25.8089  -30.8840   27.0214 H   0  0  0  0  0  0
  -26.2837  -29.6803   24.1153 H   0  0  0  0  0  0
  -27.4085  -29.7288   25.4539 H   0  0  0  0  0  0
  -27.8662  -30.4355   23.9219 H   0  0  0  0  0  0
  -27.2678  -33.3598   26.2079 H   0  0  0  0  0  0
  -28.3834  -32.6885   25.0265 H   0  0  0  0  0  0
  -28.0753  -31.8410   26.5351 H   0  0  0  0  0  0
  -28.2624  -38.0087   24.7473 H   0  0  0  0  0  0
  -28.1051  -36.2625   24.6349 H   0  0  0  0  0  0
  -27.2292  -37.1528   25.8871 H   0  0  0  0  0  0
  -20.9283  -29.8771   21.6993 H   0  0  0  0  0  0
  -26.0193  -38.2879   24.1376 H   0  0  0  0  0  0
  -29.5598  -16.8814   20.0325 H   0  0  0  0  0  0
  -29.3334  -20.5657   23.3507 H   0  0  0  0  0  0
  -30.9518  -16.0856   23.4179 H   0  0  0  0  0  0
  -31.9751  -16.3545   22.0334 H   0  0  0  0  0  0
  -27.4158  -21.4790   22.0763 H   0  0  0  0  0  0
  -26.9502  -20.8027   20.5590 H   0  0  0  0  0  0
  -30.0143  -24.4506   19.6246 H   0  0  0  0  0  0
  -30.1887  -25.1028   21.2299 H   0  0  0  0  0  0
  -28.8818  -23.2519   22.2118 H   0  0  0  0  0  0
  -30.2957  -22.6591   21.3793 H   0  0  0  0  0  0
  -27.6338  -25.2595   21.3719 H   0  0  0  0  0  0
  -27.6094  -24.8127   19.6731 H   0  0  0  0  0  0
  -29.5401  -14.6560   22.2564 H   0  0  0  0  0  0
  -27.7393  -22.7579   20.0033 H   0  0  0  0  0  0
  -29.0219  -21.8450   19.6296 H   0  0  0  0  0  0
  1 25  1  0  0  0
  1 30  2  0  0  0
  1 82  1  0  0  0
  2  3  1  0  0  0
  2 25  1  0  0  0
  2 86  1  0  0  0
  2 87  1  0  0  0
  3  4  1  0  0  0
  3 88  1  0  0  0
  3 89  1  0  0  0
  4  5  1  0  0  0
  4 90  1  0  0  0
  4 91  1  0  0  0
  5  6  1  0  0  0
  5 26  1  0  0  0
  5 92  1  0  0  0
  6 25  1  0  0  0
  6 93  1  0  0  0
  6 94  1  0  0  0
  7  8  2  0  0  0
  7 26  1  0  0  0
  7 29  1  0  0  0
  8  9  1  0  0  0
  8 22  1  0  0  0
  9 10  1  0  0  0
  9 27  2  0  0  0
 10 11  2  0  0  0
 10 15  1  0  0  0
 11 12  1  0  0  0
 11 95  1  0  0  0
 12 13  2  0  0  0
 12 96  1  0  0  0
 13 14  1  0  0  0
 13 31  1  0  0  0
 14 15  2  0  0  0
 14 97  1  0  0  0
 15 98  1  0  0  0
 16 17  2  0  0  0
 16 21  1  0  0  0
 16 31  1  0  0  0
 17 18  1  0  0  0
 17 99  1  0  0  0
 18 19  2  0  0  0
 18100  1  0  0  0
 19 20  1  0  0  0
 19 24  1  0  0  0
 20 21  2  0  0  0
 20101  1  0  0  0
 21 23  1  0  0  0
 22 28  1  0  0  0
 22 32  2  0  0  0
 26 27  1  0  0  0
 28102  1  0  0  0
 28103  1  0  0  0
 29104  1  0  0  0
 29105  1  0  0  0
 33 34  1  0  0  0
 33 66  1  0  0  0
 33 70  2  0  0  0
 34 36  1  0  0  0
 34 59  1  0  0  0
 34106  1  0  0  0
 35 44  2  0  0  0
 35 45  1  0  0  0
 35 68  1  0  0  0
 36 56  1  0  0  0
 36107  1  0  0  0
 37 39  1  0  0  0
 37 47  1  0  0  0
 37 66  1  0  0  0
 37108  1  0  0  0
 38 43  2  0  0  0
 38 46  1  0  0  0
 38 47  1  0  0  0
 39 64  1  0  0  0
 39 67  2  0  0  0
 40 52  1  0  0  0
 40 53  2  0  0  0
 40 58  1  0  0  0
 41109  1  0  0  0
 41110  1  0  0  0
 41111  1  0  0  0
 41 48  1  0  0  0
 42 43  1  0  0  0
 42 66  1  0  0  0
 42112  1  0  0  0
 42113  1  0  0  0
 43 44  1  0  0  0
 44114  1  0  0  0
 45 46  2  0  0  0
 45115  1  0  0  0
 46116  1  0  0  0
 47117  1  0  0  0
 47118  1  0  0  0
 48 56  1  0  0  0
 48 65  1  0  0  0
 48119  1  0  0  0
 49 50  1  0  0  0
 49 53  1  0  0  0
 49 64  1  0  0  0
 49120  1  0  0  0
 50 51  1  0  0  0
 50121  1  0  0  0
 50122  1  0  0  0
 51 52  1  0  0  0
 51123  1  0  0  0
 51124  1  0  0  0
 52125  1  0  0  0
 52126  1  0  0  0
 53 54  1  0  0  0
 54 55  2  0  0  0
 54127  1  0  0  0
 55 57  1  0  0  0
 55128  1  0  0  0
 56 69  2  0  0  0
 57 58  2  0  0  0
 57129  1  0  0  0
 58130  1  0  0  0
 59 60  1  0  0  0
 59 61  1  0  0  0
 59 62  1  0  0  0
 60131  1  0  0  0
 60132  1  0  0  0
 60133  1  0  0  0
 61134  1  0  0  0
 61135  1  0  0  0
 61136  1  0  0  0
 62137  1  0  0  0
 62138  1  0  0  0
 62139  1  0  0  0
 63 65  1  0  0  0
 63140  1  0  0  0
 63141  1  0  0  0
 63142  1  0  0  0
 64143  1  0  0  0
 65144  1  0  0  0
 68 81  1  0  0  0
 71 73  2  0  0  0
 71 76  1  0  0  0
 71145  1  0  0  0
 72 74  1  0  0  0
 72 75  2  0  0  0
 72146  1  0  0  0
 73 75  1  0  0  0
 73 77  1  0  0  0
 74 76  2  0  0  0
 74 78  1  0  0  0
 75 84  1  0  0  0
 76 85  1  0  0  0
 77 82  1  0  0  0
 77147  1  0  0  0
 77148  1  0  0  0
 78 83  1  0  0  0
 78149  1  0  0  0
 78150  1  0  0  0
 79 80  1  0  0  0
 79 81  1  0  0  0
 79151  1  0  0  0
 79152  1  0  0  0
 80 83  1  0  0  0
 80153  1  0  0  0
 80154  1  0  0  0
 81155  1  0  0  0
 81156  1  0  0  0
 82157  1  0  0  0
 83158  1  0  0  0
 83159  1  0  0  0
M  CHG  1  83   1
M  ISO  4   1 100  68 101  81 101  82 100
M  END
> <chiral flag>
0

> <version>
0

> <s_m_source_file>
/data/baiqing/PycharmProjects/Reinvent-master-3.2/result/LINK_invent/BTK/process_docking_weight1_custom_product_contain_oxygen_bond_distance_aromatic_linkinvent_7_9_3/rearranged_h_0037.sdf

> <i_m_source_file_index>
87

> <r_mmod_Potential_Energy-OPLS-2005>
-338.915008544922

> <r_mmod_Stretch_Energy-OPLS-2005>
34.2291793823242

> <r_mmod_Bend_Energy-OPLS-2005>
90.0460586547852

> <r_mmod_Torsional_Energy-OPLS-2005>
202.370178222656

> <r_mmod_Improper_Torsional_Energy-OPLS-2005>
1.98848819732666

> <r_mmod_Van_der_Waal_Energy-OPLS-2005>
153.71711730957

> <r_mmod_Electrostatic_Energy-OPLS-2005>
-348.312255859375

> <r_mmod_Solvation_Energy-OPLS-2005>
-481.584930419922

> <b_mmod_Minimization_Converged-OPLS-2005>
0

> <r_mmod_RMS_Derivative-OPLS-2005>
1.85295510292053

$$$$
87
                    3D
 Structure written by MMmdl.
173182  0  0  1  0            999 V2000
  -30.6067  -14.6277   20.4552 C   0  0  0  0  0  0
  -30.4353  -12.3689   19.4607 C   0  0  0  0  0  0
  -29.5080  -12.5071   18.2332 C   0  0  0  0  0  0
  -28.0264  -12.3604   18.6398 C   0  0  0  0  0  0
  -27.6578  -13.2015   19.8929 C   0  0  2  0  0  0
  -28.7093  -13.0451   21.0138 C   0  0  0  0  0  0
  -25.2620  -13.8115   20.5765 C   0  0  0  0  0  0
  -24.1821  -13.0428   20.9107 C   0  0  0  0  0  0
  -24.6374  -11.6889   20.8723 C   0  0  0  0  0  0
  -23.9047  -10.4294   21.0420 C   0  0  0  0  0  0
  -24.3591   -9.4215   21.9205 C   0  0  0  0  0  0
  -23.6237   -8.2265   22.0781 C   0  0  0  0  0  0
  -22.4221   -8.0330   21.3572 C   0  0  0  0  0  0
  -21.9883   -9.0301   20.4669 C   0  0  0  0  0  0
  -22.7221  -10.2164   20.3073 C   0  0  0  0  0  0
  -21.6861   -6.0758   22.5266 C   0  0  0  0  0  0
  -21.4045   -6.5652   23.8207 C   0  0  0  0  0  0
  -21.3642   -5.6802   24.9159 C   0  0  0  0  0  0
  -21.6032   -4.3059   24.7219 C   0  0  0  0  0  0
  -21.8811   -3.8167   23.4337 C   0  0  0  0  0  0
  -21.9191   -4.6974   22.3392 C   0  0  0  0  0  0
  -22.7864  -13.5281   21.1757 C   0  0  0  0  0  0
  -22.1652   -4.2164   21.0961 F   0  0  0  0  0  0
  -21.5608   -3.4540   25.7729 F   0  0  0  0  0  0
  -30.0197  -13.3903   20.4409 N   0  0  0  0  0  0
  -26.3035  -12.9255   20.3528 N   0  0  0  0  0  0
  -25.9308  -11.6437   20.5857 N   0  0  0  0  0  0
  -22.0514  -12.8297   22.0337 N   0  0  0  0  0  0
  -25.4438  -15.1836   20.4294 N   0  0  0  0  0  0
  -31.7480  -14.8069   20.0190 O   0  0  0  0  0  0
  -21.6626   -6.8907   21.4239 O   0  0  0  0  0  0
  -22.3574  -14.5600   20.6613 O   0  0  0  0  0  0
  -24.6197  -31.8634   23.2030 C   0  0  0  0  0  0
  -25.9072  -32.4795   23.8361 C   0  0  1  0  0  0
  -27.2483  -27.3935   20.1068 C   0  0  0  0  0  0
  -25.5905  -33.8601   24.2295 N   0  0  0  0  0  0
  -23.4121  -30.4824   21.5405 C   0  0  2  0  0  0
  -24.8663  -28.9434   20.0971 C   0  0  0  0  0  0
  -22.7441  -29.4639   22.4932 C   0  0  0  0  0  0
  -18.0288  -28.1385   22.8510 C   0  0  0  0  0  0
  -24.1485  -36.7303   23.2637 C   0  0  0  0  0  0
  -25.9407  -30.8170   21.3614 C   0  0  0  0  0  0
  -26.0200  -29.4469   20.7073 C   0  0  0  0  0  0
  -27.2067  -28.6734   20.7192 C   0  0  0  0  0  0
  -26.0847  -26.9166   19.4725 C   0  0  0  0  0  0
  -24.8957  -27.6800   19.4739 C   0  0  0  0  0  0
  -23.6250  -29.8106   20.1541 C   0  0  0  0  0  0
  -25.4110  -36.3093   24.0327 C   0  0  1  0  0  0
  -20.5881  -28.3700   23.1286 C   0  0  2  0  0  0
  -20.6765  -26.9418   22.5424 C   0  0  0  0  0  0
  -19.5733  -26.6390   21.5229 C   0  0  0  0  0  0
  -18.1916  -26.7935   22.1631 C   0  0  0  0  0  0
  -19.1542  -28.8861   23.2897 C   0  0  0  0  0  0
  -18.9468  -30.1457   23.8922 C   0  0  0  0  0  0
  -17.6470  -30.6589   24.0577 C   0  0  0  0  0  0
  -25.9048  -34.9460   23.5117 C   0  0  0  0  0  0
  -16.5362  -29.9099   23.6322 C   0  0  0  0  0  0
  -16.7280  -28.6507   23.0368 C   0  0  0  0  0  0
  -26.4485  -31.6589   25.0708 C   0  0  0  0  0  0
  -25.3740  -31.3689   26.1450 C   0  0  0  0  0  0
  -27.0345  -30.3042   24.6106 C   0  0  0  0  0  0
  -27.6046  -32.4323   25.7479 C   0  0  0  0  0  0
  -27.5583  -37.1793   24.8460 C   0  0  0  0  0  0
  -21.4163  -29.3045   22.3670 N   0  0  0  0  0  0
  -26.4293  -37.3785   23.9410 N   0  0  0  0  0  0
  -24.6750  -31.0700   22.0936 N   0  0  0  0  0  0
  -23.4185  -28.8203   23.3019 O   0  0  0  0  0  0
  -28.3591  -26.5851   20.2864 O   0  0  0  0  0  0
  -26.5621  -34.8915   22.4686 O   0  0  0  0  0  0
  -23.5374  -32.1409   23.7397 O   0  0  0  0  0  0
  -29.6167  -18.2011   20.6989 C   0  0  0  0  0  0
  -28.6300  -16.7719   19.0159 C   0  0  0  0  0  0
  -28.9140  -19.3449   20.1804 C   0  0  0  0  0  0
  -27.8563  -17.8569   18.5340 C   0  0  0  0  0  0
  -27.8909  -19.1051   19.2227 C   0  0  0  0  0  0
  -29.4272  -16.8811   20.1776 C   0  0  0  0  0  0
  -28.9642  -23.2408   20.0680 C   0  0  0  0  0  0
  -28.6336  -23.1012   16.7438 C   0  0  0  0  0  0
  -29.1710  -21.7228   17.1896 C   0  0  0  0  0  0
  -27.9353  -23.9308   17.8378 C   0  0  0  0  0  0
  -30.0313  -21.6524   18.4803 C   0  0  0  0  0  0
  -28.9340  -24.3323   18.9408 C   0  0  1  0  0  0
  -26.7563  -20.1211   19.0334 C   0  0  0  0  0  0
  -25.5005  -17.4779   17.5110 C   0  0  0  0  0  0
  -29.2035  -20.7936   20.7148 C   0  0  0  0  0  0
  -29.0092  -25.8960   19.2056 C   0  0  0  0  0  0
  -27.0064  -17.6600   17.2658 C   0  0  0  0  0  0
  -29.3169  -21.9466   19.7425 N   0  0  0  0  0  0
  -29.8361  -15.6699   20.8868 N   0  0  0  0  0  0
  -28.6115  -23.5515   21.2092 O   0  0  0  0  0  0
  -27.4150  -16.5796   16.5992 F   0  0  0  0  0  0
  -27.1888  -18.6948   16.4461 F   0  0  0  0  0  0
  -31.4783  -12.4810   19.1617 H   0  0  0  0  0  0
  -30.3584  -11.3708   19.8946 H   0  0  0  0  0  0
  -29.7629  -11.7613   17.4809 H   0  0  0  0  0  0
  -29.6691  -13.4799   17.7655 H   0  0  0  0  0  0
  -27.8382  -11.3043   18.8379 H   0  0  0  0  0  0
  -27.3804  -12.6325   17.8039 H   0  0  0  0  0  0
  -27.6676  -14.2410   19.5884 H   0  0  0  0  0  0
  -28.7242  -12.0168   21.3794 H   0  0  0  0  0  0
  -28.4658  -13.6628   21.8796 H   0  0  0  0  0  0
  -25.2760   -9.5658   22.4766 H   0  0  0  0  0  0
  -23.9937   -7.4643   22.7490 H   0  0  0  0  0  0
  -21.0839   -8.8848   19.8941 H   0  0  0  0  0  0
  -22.3732  -10.9719   19.6164 H   0  0  0  0  0  0
  -21.2081   -7.6169   23.9716 H   0  0  0  0  0  0
  -21.1457   -6.0538   25.9055 H   0  0  0  0  0  0
  -22.0605   -2.7629   23.2840 H   0  0  0  0  0  0
  -22.4107  -11.9889   22.4614 H   0  0  0  0  0  0
  -21.1200  -13.1424   22.2694 H   0  0  0  0  0  0
  -24.6913  -15.8500   20.5601 H   0  0  0  0  0  0
  -26.3310  -15.6217   20.2187 H   0  0  0  0  0  0
  -26.7147  -32.5512   23.1126 H   0  0  0  0  0  0
  -25.0047  -33.9762   25.0438 H   0  0  0  0  0  0
  -22.7015  -31.2987   21.3953 H   0  0  0  0  0  0
  -23.3750  -35.9634   23.3290 H   0  0  0  0  0  0
  -24.3578  -36.8957   22.2056 H   0  0  0  0  0  0
  -23.7231  -37.6494   23.6674 H   0  0  0  0  0  0
  -26.0554  -31.5796   20.5896 H   0  0  0  0  0  0
  -26.8264  -30.8742   21.9831 H   0  0  0  0  0  0
  -28.0859  -29.0476   21.2259 H   0  0  0  0  0  0
  -26.0797  -25.9331   19.0291 H   0  0  0  0  0  0
  -24.0085  -27.2814   19.0035 H   0  0  0  0  0  0
  -23.7262  -30.5866   19.3937 H   0  0  0  0  0  0
  -22.7508  -29.2274   19.8609 H   0  0  0  0  0  0
  -25.1281  -36.1956   25.0819 H   0  0  0  0  0  0
  -20.9984  -28.3294   24.1402 H   0  0  0  0  0  0
  -20.5696  -26.2308   23.3635 H   0  0  0  0  0  0
  -21.6631  -26.7456   22.1200 H   0  0  0  0  0  0
  -19.6889  -25.6307   21.1253 H   0  0  0  0  0  0
  -19.6664  -27.3219   20.6775 H   0  0  0  0  0  0
  -17.4187  -26.6740   21.4022 H   0  0  0  0  0  0
  -18.0280  -26.0070   22.9010 H   0  0  0  0  0  0
  -19.7932  -30.7280   24.2301 H   0  0  0  0  0  0
  -17.5013  -31.6273   24.5170 H   0  0  0  0  0  0
  -15.5366  -30.3024   23.7602 H   0  0  0  0  0  0
  -15.8675  -28.0836   22.7078 H   0  0  0  0  0  0
  -24.5909  -30.7052   25.7761 H   0  0  0  0  0  0
  -24.8939  -32.2848   26.4911 H   0  0  0  0  0  0
  -25.8087  -30.8832   27.0202 H   0  0  0  0  0  0
  -26.2907  -29.6775   24.1176 H   0  0  0  0  0  0
  -27.4136  -29.7305   25.4575 H   0  0  0  0  0  0
  -27.8721  -30.4365   23.9253 H   0  0  0  0  0  0
  -27.2653  -33.3622   26.2058 H   0  0  0  0  0  0
  -28.3859  -32.6902   25.0310 H   0  0  0  0  0  0
  -28.0712  -31.8454   26.5406 H   0  0  0  0  0  0
  -28.2563  -38.0120   24.7558 H   0  0  0  0  0  0
  -28.1111  -36.2658   24.6228 H   0  0  0  0  0  0
  -27.2304  -37.1395   25.8860 H   0  0  0  0  0  0
  -20.9325  -29.8786   21.6907 H   0  0  0  0  0  0
  -26.0175  -38.2856   24.1444 H   0  0  0  0  0  0
  -30.2809  -18.3329   21.5416 H   0  0  0  0  0  0
  -28.5432  -15.8199   18.5169 H   0  0  0  0  0  0
  -27.9377  -22.9501   15.9166 H   0  0  0  0  0  0
  -29.4525  -23.6876   16.3207 H   0  0  0  0  0  0
  -29.7770  -21.3312   16.3709 H   0  0  0  0  0  0
  -28.3455  -21.0256   17.2508 H   0  0  0  0  0  0
  -27.0953  -23.3726   18.2531 H   0  0  0  0  0  0
  -27.4943  -24.8179   17.3814 H   0  0  0  0  0  0
  -30.8997  -22.3058   18.3884 H   0  0  0  0  0  0
  -30.4712  -20.6567   18.5410 H   0  0  0  0  0  0
  -29.9166  -24.2258   18.4847 H   0  0  0  0  0  0
  -26.9685  -21.1155   19.4115 H   0  0  0  0  0  0
  -25.8880  -19.7815   19.5992 H   0  0  0  0  0  0
  -26.4350  -20.2471   18.0032 H   0  0  0  0  0  0
  -25.2995  -16.5585   18.0572 H   0  0  0  0  0  0
  -24.9641  -17.4199   16.5629 H   0  0  0  0  0  0
  -25.0598  -18.2982   18.0717 H   0  0  0  0  0  0
  -30.1356  -20.7706   21.2800 H   0  0  0  0  0  0
  -28.4251  -21.0143   21.4468 H   0  0  0  0  0  0
  -28.7867  -26.4297   18.2793 H   0  0  0  0  0  0
  -30.0634  -26.1249   19.3732 H   0  0  0  0  0  0
  -29.1118  -15.3317   21.5025 H   0  0  0  0  0  0
  1 25  1  0  0  0
  1 30  2  0  0  0
  1 89  1  0  0  0
  2  3  1  0  0  0
  2 25  1  0  0  0
  2 93  1  0  0  0
  2 94  1  0  0  0
  3  4  1  0  0  0
  3 95  1  0  0  0
  3 96  1  0  0  0
  4  5  1  0  0  0
  4 97  1  0  0  0
  4 98  1  0  0  0
  5  6  1  0  0  0
  5 26  1  0  0  0
  5 99  1  0  0  0
  6 25  1  0  0  0
  6100  1  0  0  0
  6101  1  0  0  0
  7  8  2  0  0  0
  7 26  1  0  0  0
  7 29  1  0  0  0
  8  9  1  0  0  0
  8 22  1  0  0  0
  9 10  1  0  0  0
  9 27  2  0  0  0
 10 11  2  0  0  0
 10 15  1  0  0  0
 11 12  1  0  0  0
 11102  1  0  0  0
 12 13  2  0  0  0
 12103  1  0  0  0
 13 14  1  0  0  0
 13 31  1  0  0  0
 14 15  2  0  0  0
 14104  1  0  0  0
 15105  1  0  0  0
 16 17  2  0  0  0
 16 21  1  0  0  0
 16 31  1  0  0  0
 17 18  1  0  0  0
 17106  1  0  0  0
 18 19  2  0  0  0
 18107  1  0  0  0
 19 20  1  0  0  0
 19 24  1  0  0  0
 20 21  2  0  0  0
 20108  1  0  0  0
 21 23  1  0  0  0
 22 28  1  0  0  0
 22 32  2  0  0  0
 26 27  1  0  0  0
 28109  1  0  0  0
 28110  1  0  0  0
 29111  1  0  0  0
 29112  1  0  0  0
 33 34  1  0  0  0
 33 66  1  0  0  0
 33 70  2  0  0  0
 34 36  1  0  0  0
 34 59  1  0  0  0
 34113  1  0  0  0
 35 44  2  0  0  0
 35 45  1  0  0  0
 35 68  1  0  0  0
 36 56  1  0  0  0
 36114  1  0  0  0
 37 39  1  0  0  0
 37 47  1  0  0  0
 37 66  1  0  0  0
 37115  1  0  0  0
 38 43  2  0  0  0
 38 46  1  0  0  0
 38 47  1  0  0  0
 39 64  1  0  0  0
 39 67  2  0  0  0
 40 52  1  0  0  0
 40 53  2  0  0  0
 40 58  1  0  0  0
 41116  1  0  0  0
 41117  1  0  0  0
 41118  1  0  0  0
 41 48  1  0  0  0
 42 43  1  0  0  0
 42 66  1  0  0  0
 42119  1  0  0  0
 42120  1  0  0  0
 43 44  1  0  0  0
 44121  1  0  0  0
 45 46  2  0  0  0
 45122  1  0  0  0
 46123  1  0  0  0
 47124  1  0  0  0
 47125  1  0  0  0
 48 56  1  0  0  0
 48 65  1  0  0  0
 48126  1  0  0  0
 49 50  1  0  0  0
 49 53  1  0  0  0
 49 64  1  0  0  0
 49127  1  0  0  0
 50 51  1  0  0  0
 50128  1  0  0  0
 50129  1  0  0  0
 51 52  1  0  0  0
 51130  1  0  0  0
 51131  1  0  0  0
 52132  1  0  0  0
 52133  1  0  0  0
 53 54  1  0  0  0
 54 55  2  0  0  0
 54134  1  0  0  0
 55 57  1  0  0  0
 55135  1  0  0  0
 56 69  2  0  0  0
 57 58  2  0  0  0
 57136  1  0  0  0
 58137  1  0  0  0
 59 60  1  0  0  0
 59 61  1  0  0  0
 59 62  1  0  0  0
 60138  1  0  0  0
 60139  1  0  0  0
 60140  1  0  0  0
 61141  1  0  0  0
 61142  1  0  0  0
 61143  1  0  0  0
 62144  1  0  0  0
 62145  1  0  0  0
 62146  1  0  0  0
 63 65  1  0  0  0
 63147  1  0  0  0
 63148  1  0  0  0
 63149  1  0  0  0
 64150  1  0  0  0
 65151  1  0  0  0
 68 86  1  0  0  0
 71 73  2  0  0  0
 71 76  1  0  0  0
 71152  1  0  0  0
 72 74  1  0  0  0
 72 76  2  0  0  0
 72153  1  0  0  0
 73 75  1  0  0  0
 73 85  1  0  0  0
 74 75  2  0  0  0
 74 87  1  0  0  0
 75 83  1  0  0  0
 76 89  1  0  0  0
 77 82  1  0  0  0
 77 88  1  0  0  0
 77 90  2  0  0  0
 78 79  1  0  0  0
 78 80  1  0  0  0
 78154  1  0  0  0
 78155  1  0  0  0
 79 81  1  0  0  0
 79156  1  0  0  0
 79157  1  0  0  0
 80 82  1  0  0  0
 80158  1  0  0  0
 80159  1  0  0  0
 81 88  1  0  0  0
 81160  1  0  0  0
 81161  1  0  0  0
 82 86  1  0  0  0
 82162  1  0  0  0
 83163  1  0  0  0
 83164  1  0  0  0
 83165  1  0  0  0
 84166  1  0  0  0
 84167  1  0  0  0
 84168  1  0  0  0
 84 87  1  0  0  0
 85 88  1  0  0  0
 85169  1  0  0  0
 85170  1  0  0  0
 86171  1  0  0  0
 86172  1  0  0  0
 87 91  1  0  0  0
 87 92  1  0  0  0
 89173  1  0  0  0
M  ISO  4   1 100  68 101  86 101  89 100
M  END
> <chiral flag>
0

> <version>
0

> <s_m_source_file>
/data/baiqing/PycharmProjects/Reinvent-master-3.2/result/LINK_invent/BTK/process_docking_weight1_custom_product_contain_oxygen_bond_distance_aromatic_linkinvent_7_9_3/rearranged_h_0037.sdf

> <i_m_source_file_index>
88

> <r_mmod_Potential_Energy-OPLS-2005>
208.376235961914

> <r_mmod_Stretch_Energy-OPLS-2005>
75.208251953125

> <r_mmod_Bend_Energy-OPLS-2005>
179.897644042969

> <r_mmod_Torsional_Energy-OPLS-2005>
356.126373291016

> <r_mmod_Improper_Torsional_Energy-OPLS-2005>
8.26131153106689

> <r_mmod_Van_der_Waal_Energy-OPLS-2005>
151.745483398438

> <r_mmod_Electrostatic_Energy-OPLS-2005>
-375.617767333984

> <r_mmod_Solvation_Energy-OPLS-2005>
-229.871826171875

> <b_mmod_Minimization_Converged-OPLS-2005>
0

> <r_mmod_RMS_Derivative-OPLS-2005>
3.16893649101257

$$$$
88
                    3D
 Structure written by MMmdl.
164172  0  0  1  0            999 V2000
  -30.6195  -14.7676   20.4001 C   0  0  0  0  0  0
  -30.4285  -12.4566   19.4745 C   0  0  0  0  0  0
  -29.5080  -12.5120   18.2382 C   0  0  0  0  0  0
  -28.0351  -12.3377   18.6511 C   0  0  0  0  0  0
  -27.6485  -13.2358   19.8568 C   0  0  2  0  0  0
  -28.7014  -13.1852   20.9893 C   0  0  0  0  0  0
  -25.2576  -13.8226   20.5712 C   0  0  0  0  0  0
  -24.1867  -13.0483   20.9238 C   0  0  0  0  0  0
  -24.6479  -11.6962   20.8796 C   0  0  0  0  0  0
  -23.9153  -10.4352   21.0419 C   0  0  0  0  0  0
  -24.3685   -9.4230   21.9166 C   0  0  0  0  0  0
  -23.6350   -8.2265   22.0730 C   0  0  0  0  0  0
  -22.4320   -8.0330   21.3530 C   0  0  0  0  0  0
  -21.9987   -9.0314   20.4611 C   0  0  0  0  0  0
  -22.7342  -10.2193   20.3038 C   0  0  0  0  0  0
  -21.6870   -6.0773   22.5272 C   0  0  0  0  0  0
  -21.4012   -6.5648   23.8214 C   0  0  0  0  0  0
  -21.3680   -5.6781   24.9162 C   0  0  0  0  0  0
  -21.6061   -4.3049   24.7179 C   0  0  0  0  0  0
  -21.8828   -3.8166   23.4288 C   0  0  0  0  0  0
  -21.9196   -4.7006   22.3365 C   0  0  0  0  0  0
  -22.7877  -13.5258   21.1863 C   0  0  0  0  0  0
  -22.1653   -4.2197   21.0932 F   0  0  0  0  0  0
  -21.5663   -3.4518   25.7685 F   0  0  0  0  0  0
  -30.0011  -13.5332   20.4013 N   0  0  0  0  0  0
  -26.3022  -12.9431   20.3365 N   0  0  0  0  0  0
  -25.9398  -11.6579   20.5825 N   0  0  0  0  0  0
  -22.0532  -12.8238   22.0408 N   0  0  0  0  0  0
  -25.4280  -15.1947   20.4092 N   0  0  0  0  0  0
  -31.7934  -14.8560   20.0351 O   0  0  0  0  0  0
  -21.6658   -6.8929   21.4230 O   0  0  0  0  0  0
  -22.3544  -14.5555   20.6704 O   0  0  0  0  0  0
  -24.6374  -31.8493   23.1983 C   0  0  0  0  0  0
  -25.9201  -32.4698   23.8315 C   0  0  1  0  0  0
  -27.2244  -27.2464   20.1264 C   0  0  0  0  0  0
  -25.5978  -33.8509   24.2250 N   0  0  0  0  0  0
  -23.4324  -30.4729   21.5399 C   0  0  2  0  0  0
  -24.8833  -28.9183   20.1040 C   0  0  0  0  0  0
  -22.7492  -29.4607   22.4907 C   0  0  0  0  0  0
  -18.0280  -28.1444   22.8431 C   0  0  0  0  0  0
  -24.1484  -36.7268   23.2636 C   0  0  0  0  0  0
  -25.9806  -30.7592   21.3781 C   0  0  0  0  0  0
  -26.0553  -29.3818   20.7161 C   0  0  0  0  0  0
  -27.2327  -28.5588   20.7158 C   0  0  0  0  0  0
  -26.0334  -26.8585   19.4765 C   0  0  0  0  0  0
  -24.8786  -27.6663   19.4662 C   0  0  0  0  0  0
  -23.6495  -29.8040   20.1562 C   0  0  0  0  0  0
  -25.4106  -36.3037   24.0329 C   0  0  1  0  0  0
  -20.5882  -28.3755   23.1240 C   0  0  2  0  0  0
  -20.6779  -26.9460   22.5404 C   0  0  0  0  0  0
  -19.5775  -26.6412   21.5193 C   0  0  0  0  0  0
  -18.1951  -26.7979   22.1595 C   0  0  0  0  0  0
  -19.1533  -28.8907   23.2820 C   0  0  0  0  0  0
  -18.9474  -30.1524   23.8823 C   0  0  0  0  0  0
  -17.6471  -30.6608   24.0569 C   0  0  0  0  0  0
  -25.9066  -34.9408   23.5076 C   0  0  0  0  0  0
  -16.5355  -29.9113   23.6366 C   0  0  0  0  0  0
  -16.7268  -28.6566   23.0307 C   0  0  0  0  0  0
  -26.4566  -31.6537   25.0717 C   0  0  0  0  0  0
  -25.3785  -31.3693   26.1432 C   0  0  0  0  0  0
  -27.0427  -30.2922   24.6283 C   0  0  0  0  0  0
  -27.6098  -32.4306   25.7496 C   0  0  0  0  0  0
  -27.5572  -37.1778   24.8459 C   0  0  0  0  0  0
  -21.4206  -29.3085   22.3625 N   0  0  0  0  0  0
  -26.4278  -37.3737   23.9415 N   0  0  0  0  0  0
  -24.7029  -31.0429   22.0964 N   0  0  0  0  0  0
  -23.4156  -28.8104   23.3020 O   0  0  0  0  0  0
  -28.2690  -26.2784   20.1792 O   0  0  0  0  0  0
  -26.5613  -34.8885   22.4641 O   0  0  0  0  0  0
  -23.5543  -32.1346   23.7280 O   0  0  0  0  0  0
  -29.2526  -19.8960   20.0804 C   0  0  0  0  0  0
  -31.4257  -20.3190   21.7046 C   0  0  0  0  0  0
  -29.4576  -21.2900   20.5301 C   0  0  0  0  0  0
  -30.0717  -18.7291   20.4260 C   0  0  0  0  0  0
  -30.6092  -21.4311   21.3703 C   0  0  0  0  0  0
  -31.1855  -19.0037   21.2502 C   0  0  0  0  0  0
  -28.4569  -22.5013   20.2411 C   0  0  0  0  0  0
  -28.0151  -24.9780   20.6841 C   0  0  0  0  0  0
  -31.0309  -22.7571   21.9856 C   0  0  0  0  0  0
  -32.1810  -17.9148   21.6274 C   0  0  0  0  0  0
  -27.7129  -23.9736   23.8397 C   0  0  0  0  0  0
  -29.9027  -17.2534   19.7937 C   0  0  0  0  0  0
  -26.6731  -24.0311   22.7085 C   0  0  0  0  0  0
  -28.8015  -23.8646   20.2939 N   0  0  0  0  0  0
  -29.8452  -15.9142   20.5557 N   0  0  0  0  0  0
  -27.0552  -24.9882   21.6549 N   0  3  0  0  0  0
  -26.9158  -22.1211   19.7023 S   0  0  0  0  0  0
  -31.4686  -12.5612   19.1652 H   0  0  0  0  0  0
  -30.3593  -11.4821   19.9563 H   0  0  0  0  0  0
  -29.7857  -11.7368   17.5224 H   0  0  0  0  0  0
  -29.6348  -13.4640   17.7240 H   0  0  0  0  0  0
  -27.8828  -11.2882   18.9043 H   0  0  0  0  0  0
  -27.3803  -12.5402   17.8031 H   0  0  0  0  0  0
  -27.6389  -14.2548   19.4705 H   0  0  0  0  0  0
  -28.7445  -12.1913   21.4392 H   0  0  0  0  0  0
  -28.4499  -13.8799   21.7922 H   0  0  0  0  0  0
  -25.2847   -9.5690   22.4737 H   0  0  0  0  0  0
  -24.0075   -7.4649   22.7435 H   0  0  0  0  0  0
  -21.0943   -8.8843   19.8898 H   0  0  0  0  0  0
  -22.3818  -10.9730   19.6141 H   0  0  0  0  0  0
  -21.1952   -7.6150   23.9731 H   0  0  0  0  0  0
  -21.1520   -6.0489   25.9075 H   0  0  0  0  0  0
  -22.0584   -2.7635   23.2753 H   0  0  0  0  0  0
  -22.4152  -11.9910   22.4804 H   0  0  0  0  0  0
  -21.1115  -13.1187   22.2539 H   0  0  0  0  0  0
  -24.6694  -15.8573   20.5299 H   0  0  0  0  0  0
  -26.2791  -15.6349   20.0819 H   0  0  0  0  0  0
  -26.7256  -32.5320   23.1040 H   0  0  0  0  0  0
  -25.0105  -33.9625   25.0389 H   0  0  0  0  0  0
  -22.7346  -31.3006   21.3922 H   0  0  0  0  0  0
  -23.3739  -35.9602   23.3273 H   0  0  0  0  0  0
  -24.3563  -36.8925   22.2049 H   0  0  0  0  0  0
  -23.7262  -37.6469   23.6690 H   0  0  0  0  0  0
  -26.1209  -31.5232   20.6114 H   0  0  0  0  0  0
  -26.8579  -30.8002   22.0122 H   0  0  0  0  0  0
  -28.1282  -28.9050   21.2111 H   0  0  0  0  0  0
  -25.9816  -25.8899   18.9963 H   0  0  0  0  0  0
  -23.9857  -27.3139   18.9664 H   0  0  0  0  0  0
  -23.7543  -30.5788   19.3969 H   0  0  0  0  0  0
  -22.7706  -29.2300   19.8610 H   0  0  0  0  0  0
  -25.1298  -36.1834   25.0825 H   0  0  0  0  0  0
  -20.9955  -28.3356   24.1368 H   0  0  0  0  0  0
  -20.5689  -26.2354   23.3617 H   0  0  0  0  0  0
  -21.6655  -26.7508   22.1192 H   0  0  0  0  0  0
  -19.6951  -25.6315   21.1257 H   0  0  0  0  0  0
  -19.6744  -27.3190   20.6696 H   0  0  0  0  0  0
  -17.4219  -26.6672   21.4010 H   0  0  0  0  0  0
  -18.0372  -26.0158   22.9031 H   0  0  0  0  0  0
  -19.7951  -30.7376   24.2129 H   0  0  0  0  0  0
  -17.5030  -31.6270   24.5222 H   0  0  0  0  0  0
  -15.5370  -30.2991   23.7790 H   0  0  0  0  0  0
  -15.8651  -28.0927   22.7002 H   0  0  0  0  0  0
  -24.5986  -30.7000   25.7782 H   0  0  0  0  0  0
  -24.8952  -32.2853   26.4836 H   0  0  0  0  0  0
  -25.8120  -30.8899   27.0220 H   0  0  0  0  0  0
  -26.3038  -29.6596   24.1336 H   0  0  0  0  0  0
  -27.4073  -29.7258   25.4877 H   0  0  0  0  0  0
  -27.8938  -30.4130   23.9564 H   0  0  0  0  0  0
  -27.2681  -33.3613   26.2030 H   0  0  0  0  0  0
  -28.3927  -32.6849   25.0340 H   0  0  0  0  0  0
  -28.0734  -31.8448   26.5443 H   0  0  0  0  0  0
  -28.2571  -38.0089   24.7504 H   0  0  0  0  0  0
  -28.1082  -36.2623   24.6277 H   0  0  0  0  0  0
  -27.2276  -37.1401   25.8853 H   0  0  0  0  0  0
  -20.9424  -29.8741   21.6755 H   0  0  0  0  0  0
  -26.0135  -38.2797   24.1433 H   0  0  0  0  0  0
  -28.4181  -19.6970   19.4215 H   0  0  0  0  0  0
  -32.2847  -20.4815   22.3443 H   0  0  0  0  0  0
  -31.8501  -22.6305   22.6947 H   0  0  0  0  0  0
  -30.2082  -23.1910   22.5462 H   0  0  0  0  0  0
  -31.3733  -23.4654   21.2298 H   0  0  0  0  0  0
  -33.0666  -18.3270   22.1135 H   0  0  0  0  0  0
  -32.5268  -17.3784   20.7415 H   0  0  0  0  0  0
  -31.7339  -17.1972   22.3152 H   0  0  0  0  0  0
  -27.3364  -24.4702   24.7371 H   0  0  0  0  0  0
  -28.6484  -24.4633   23.5754 H   0  0  0  0  0  0
  -27.9429  -22.9393   24.0956 H   0  0  0  0  0  0
  -30.7089  -17.1607   19.0642 H   0  0  0  0  0  0
  -29.0022  -17.2719   19.1784 H   0  0  0  0  0  0
  -25.7180  -24.3632   23.1183 H   0  0  0  0  0  0
  -26.4739  -23.0382   22.3194 H   0  0  0  0  0  0
  -29.7543  -24.1445   20.1231 H   0  0  0  0  0  0
  -28.9329  -15.7191   20.9374 H   0  0  0  0  0  0
  -26.5997  -25.8850   21.7641 H   0  0  0  0  0  0
  1 25  1  0  0  0
  1 30  2  0  0  0
  1 85  1  0  0  0
  2  3  1  0  0  0
  2 25  1  0  0  0
  2 88  1  0  0  0
  2 89  1  0  0  0
  3  4  1  0  0  0
  3 90  1  0  0  0
  3 91  1  0  0  0
  4  5  1  0  0  0
  4 92  1  0  0  0
  4 93  1  0  0  0
  5  6  1  0  0  0
  5 26  1  0  0  0
  5 94  1  0  0  0
  6 25  1  0  0  0
  6 95  1  0  0  0
  6 96  1  0  0  0
  7  8  2  0  0  0
  7 26  1  0  0  0
  7 29  1  0  0  0
  8  9  1  0  0  0
  8 22  1  0  0  0
  9 10  1  0  0  0
  9 27  2  0  0  0
 10 11  2  0  0  0
 10 15  1  0  0  0
 11 12  1  0  0  0
 11 97  1  0  0  0
 12 13  2  0  0  0
 12 98  1  0  0  0
 13 14  1  0  0  0
 13 31  1  0  0  0
 14 15  2  0  0  0
 14 99  1  0  0  0
 15100  1  0  0  0
 16 17  2  0  0  0
 16 21  1  0  0  0
 16 31  1  0  0  0
 17 18  1  0  0  0
 17101  1  0  0  0
 18 19  2  0  0  0
 18102  1  0  0  0
 19 20  1  0  0  0
 19 24  1  0  0  0
 20 21  2  0  0  0
 20103  1  0  0  0
 21 23  1  0  0  0
 22 28  1  0  0  0
 22 32  2  0  0  0
 26 27  1  0  0  0
 28104  1  0  0  0
 28105  1  0  0  0
 29106  1  0  0  0
 29107  1  0  0  0
 33 34  1  0  0  0
 33 66  1  0  0  0
 33 70  2  0  0  0
 34 36  1  0  0  0
 34 59  1  0  0  0
 34108  1  0  0  0
 35 44  2  0  0  0
 35 45  1  0  0  0
 35 68  1  0  0  0
 36 56  1  0  0  0
 36109  1  0  0  0
 37 39  1  0  0  0
 37 47  1  0  0  0
 37 66  1  0  0  0
 37110  1  0  0  0
 38 43  2  0  0  0
 38 46  1  0  0  0
 38 47  1  0  0  0
 39 64  1  0  0  0
 39 67  2  0  0  0
 40 52  1  0  0  0
 40 53  2  0  0  0
 40 58  1  0  0  0
 41111  1  0  0  0
 41112  1  0  0  0
 41113  1  0  0  0
 41 48  1  0  0  0
 42 43  1  0  0  0
 42 66  1  0  0  0
 42114  1  0  0  0
 42115  1  0  0  0
 43 44  1  0  0  0
 44116  1  0  0  0
 45 46  2  0  0  0
 45117  1  0  0  0
 46118  1  0  0  0
 47119  1  0  0  0
 47120  1  0  0  0
 48 56  1  0  0  0
 48 65  1  0  0  0
 48121  1  0  0  0
 49 50  1  0  0  0
 49 53  1  0  0  0
 49 64  1  0  0  0
 49122  1  0  0  0
 50 51  1  0  0  0
 50123  1  0  0  0
 50124  1  0  0  0
 51 52  1  0  0  0
 51125  1  0  0  0
 51126  1  0  0  0
 52127  1  0  0  0
 52128  1  0  0  0
 53 54  1  0  0  0
 54 55  2  0  0  0
 54129  1  0  0  0
 55 57  1  0  0  0
 55130  1  0  0  0
 56 69  2  0  0  0
 57 58  2  0  0  0
 57131  1  0  0  0
 58132  1  0  0  0
 59 60  1  0  0  0
 59 61  1  0  0  0
 59 62  1  0  0  0
 60133  1  0  0  0
 60134  1  0  0  0
 60135  1  0  0  0
 61136  1  0  0  0
 61137  1  0  0  0
 61138  1  0  0  0
 62139  1  0  0  0
 62140  1  0  0  0
 62141  1  0  0  0
 63 65  1  0  0  0
 63142  1  0  0  0
 63143  1  0  0  0
 63144  1  0  0  0
 64145  1  0  0  0
 65146  1  0  0  0
 68 78  1  0  0  0
 71 73  2  0  0  0
 71 74  1  0  0  0
 71147  1  0  0  0
 72 75  2  0  0  0
 72 76  1  0  0  0
 72148  1  0  0  0
 73 75  1  0  0  0
 73 77  1  0  0  0
 74 76  2  0  0  0
 74 82  1  0  0  0
 75 79  1  0  0  0
 76 80  1  0  0  0
 77 84  1  0  0  0
 77 87  2  0  0  0
 78 84  1  0  0  0
 78 86  2  0  0  0
 79149  1  0  0  0
 79150  1  0  0  0
 79151  1  0  0  0
 80152  1  0  0  0
 80153  1  0  0  0
 80154  1  0  0  0
 81 83  1  0  0  0
 81155  1  0  0  0
 81156  1  0  0  0
 81157  1  0  0  0
 82 85  1  0  0  0
 82158  1  0  0  0
 82159  1  0  0  0
 83 86  1  0  0  0
 83160  1  0  0  0
 83161  1  0  0  0
 84162  1  0  0  0
 85163  1  0  0  0
 86164  1  0  0  0
M  CHG  1  86   1
M  ISO  4   1 100  68 101  78 101  85 100
M  END
> <chiral flag>
0

> <version>
0

> <s_m_source_file>
/data/baiqing/PycharmProjects/Reinvent-master-3.2/result/LINK_invent/BTK/process_docking_weight1_custom_product_contain_oxygen_bond_distance_aromatic_linkinvent_7_9_3/rearranged_h_0037.sdf

> <i_m_source_file_index>
89

> <r_mmod_Potential_Energy-OPLS-2005>
152.405349731445

> <r_mmod_Stretch_Energy-OPLS-2005>
164.025085449219

> <r_mmod_Bend_Energy-OPLS-2005>
204.85188293457

> <r_mmod_Torsional_Energy-OPLS-2005>
289.489166259766

> <r_mmod_Improper_Torsional_Energy-OPLS-2005>
11.6526794433594

> <r_mmod_Van_der_Waal_Energy-OPLS-2005>
148.523895263672

> <r_mmod_Electrostatic_Energy-OPLS-2005>
-340.268707275391

> <r_mmod_Solvation_Energy-OPLS-2005>
-428.001922607422

> <b_mmod_Minimization_Converged-OPLS-2005>
0

> <r_mmod_RMS_Derivative-OPLS-2005>
4.61213111877441

$$$$
89
                    3D
 Structure written by MMmdl.
164173  0  0  1  0            999 V2000
  -30.6002  -14.7579   20.4620 C   0  0  0  0  0  0
  -30.4393  -12.4631   19.4673 C   0  0  0  0  0  0
  -29.5121  -12.5007   18.2337 C   0  0  0  0  0  0
  -28.0387  -12.3228   18.6504 C   0  0  0  0  0  0
  -27.6413  -13.2268   19.8469 C   0  0  2  0  0  0
  -28.6890  -13.1713   20.9796 C   0  0  0  0  0  0
  -25.2491  -13.8208   20.5666 C   0  0  0  0  0  0
  -24.1765  -13.0455   20.9193 C   0  0  0  0  0  0
  -24.6347  -11.6933   20.8771 C   0  0  0  0  0  0
  -23.9021  -10.4306   21.0445 C   0  0  0  0  0  0
  -24.3571   -9.4223   21.9219 C   0  0  0  0  0  0
  -23.6242   -8.2255   22.0793 C   0  0  0  0  0  0
  -22.4232   -8.0287   21.3570 C   0  0  0  0  0  0
  -21.9875   -9.0262   20.4672 C   0  0  0  0  0  0
  -22.7206  -10.2146   20.3088 C   0  0  0  0  0  0
  -21.6847   -6.0723   22.5270 C   0  0  0  0  0  0
  -21.4020   -6.5623   23.8202 C   0  0  0  0  0  0
  -21.3676   -5.6782   24.9167 C   0  0  0  0  0  0
  -21.6053   -4.3041   24.7215 C   0  0  0  0  0  0
  -21.8812   -3.8130   23.4334 C   0  0  0  0  0  0
  -21.9174   -4.6950   22.3394 C   0  0  0  0  0  0
  -22.7796  -13.5279   21.1817 C   0  0  0  0  0  0
  -22.1643   -4.2135   21.0974 F   0  0  0  0  0  0
  -21.5639   -3.4526   25.7725 F   0  0  0  0  0  0
  -29.9850  -13.5283   20.3878 N   0  0  0  0  0  0
  -26.2923  -12.9392   20.3280 N   0  0  0  0  0  0
  -25.9286  -11.6549   20.5794 N   0  0  0  0  0  0
  -22.0361  -12.8348   22.0378 N   0  0  0  0  0  0
  -25.4147  -15.1925   20.4040 N   0  0  0  0  0  0
  -31.8075  -14.8610   20.2220 O   0  0  0  0  0  0
  -21.6624   -6.8873   21.4236 O   0  0  0  0  0  0
  -22.3525  -14.5571   20.6635 O   0  0  0  0  0  0
  -24.6336  -31.8568   23.1967 C   0  0  0  0  0  0
  -25.9164  -32.4766   23.8323 C   0  0  1  0  0  0
  -27.2221  -27.2774   20.1290 C   0  0  0  0  0  0
  -25.5954  -33.8560   24.2259 N   0  0  0  0  0  0
  -23.4266  -30.4775   21.5415 C   0  0  2  0  0  0
  -24.8702  -28.9147   20.1165 C   0  0  0  0  0  0
  -22.7485  -29.4623   22.4944 C   0  0  0  0  0  0
  -18.0321  -28.1368   22.8469 C   0  0  0  0  0  0
  -24.1487  -36.7261   23.2630 C   0  0  0  0  0  0
  -25.9685  -30.7751   21.3692 C   0  0  0  0  0  0
  -26.0407  -29.3944   20.7182 C   0  0  0  0  0  0
  -27.2213  -28.5884   20.7082 C   0  0  0  0  0  0
  -26.0332  -26.8534   19.5057 C   0  0  0  0  0  0
  -24.8714  -27.6532   19.4982 C   0  0  0  0  0  0
  -23.6417  -29.8032   20.1598 C   0  0  0  0  0  0
  -25.4116  -36.3066   24.0324 C   0  0  1  0  0  0
  -20.5913  -28.3709   23.1306 C   0  0  2  0  0  0
  -20.6824  -26.9425   22.5467 C   0  0  0  0  0  0
  -19.5831  -26.6402   21.5242 C   0  0  0  0  0  0
  -18.1985  -26.7914   22.1615 C   0  0  0  0  0  0
  -19.1558  -28.8844   23.2886 C   0  0  0  0  0  0
  -18.9464  -30.1431   23.8927 C   0  0  0  0  0  0
  -17.6473  -30.6576   24.0559 C   0  0  0  0  0  0
  -25.9062  -34.9444   23.5090 C   0  0  0  0  0  0
  -16.5373  -29.9068   23.6298 C   0  0  0  0  0  0
  -16.7310  -28.6491   23.0318 C   0  0  0  0  0  0
  -26.4520  -31.6588   25.0705 C   0  0  0  0  0  0
  -25.3742  -31.3768   26.1434 C   0  0  0  0  0  0
  -27.0363  -30.3008   24.6173 C   0  0  0  0  0  0
  -27.6072  -32.4329   25.7489 C   0  0  0  0  0  0
  -27.5579  -37.1791   24.8463 C   0  0  0  0  0  0
  -21.4187  -29.3072   22.3687 N   0  0  0  0  0  0
  -26.4284  -37.3773   23.9426 N   0  0  0  0  0  0
  -24.6951  -31.0555   22.0925 N   0  0  0  0  0  0
  -23.4179  -28.8160   23.3041 O   0  0  0  0  0  0
  -28.3521  -26.4361   20.1134 O   0  0  0  0  0  0
  -26.5616  -34.8916   22.4654 O   0  0  0  0  0  0
  -23.5485  -32.1408   23.7267 O   0  0  0  0  0  0
  -30.5493  -20.0118   21.7157 C   0  0  0  0  0  0
  -30.8463  -17.5850   21.9600 C   0  0  0  0  0  0
  -29.7407  -19.8586   20.5693 C   0  0  0  0  0  0
  -29.4844  -18.4798   20.1389 C   0  0  0  0  0  0
  -30.0519  -17.3129   20.8237 C   0  0  0  0  0  0
  -31.0839  -18.9033   22.4002 C   0  0  0  0  0  0
  -27.7102  -22.1588   21.5814 C   0  0  0  0  0  0
  -27.0870  -21.0153   21.9097 C   0  0  0  0  0  0
  -27.6096  -23.4345   22.4194 C   0  0  0  0  0  0
  -27.2366  -24.6984   21.6254 C   0  0  0  0  0  0
  -28.5735  -23.7471   19.6763 C   0  0  0  0  0  0
  -28.3503  -25.0198   20.6304 C   0  0  1  0  0  0
  -28.6324  -18.2571   18.9006 C   0  0  0  0  0  0
  -29.3973  -21.2211   19.7855 C   0  0  0  0  0  0
  -29.7808  -15.8827   20.5044 N   0  0  0  0  0  0
  -28.4010  -22.3139   20.2474 N   0  3  1  0  0  0
  -32.0650  -19.1745   23.7942 Cl  0  0  0  0  0  0
  -31.4766  -12.6017   19.1616 H   0  0  0  0  0  0
  -30.3963  -11.4901   19.9596 H   0  0  0  0  0  0
  -29.7952  -11.7253   17.5206 H   0  0  0  0  0  0
  -29.6317  -13.4545   17.7161 H   0  0  0  0  0  0
  -27.8976  -11.2762   18.9198 H   0  0  0  0  0  0
  -27.3786  -12.5149   17.8038 H   0  0  0  0  0  0
  -27.6337  -14.2440   19.4557 H   0  0  0  0  0  0
  -28.7248  -12.1787   21.4330 H   0  0  0  0  0  0
  -28.4225  -13.8628   21.7793 H   0  0  0  0  0  0
  -25.2700   -9.5697   22.4827 H   0  0  0  0  0  0
  -23.9930   -7.4660   22.7542 H   0  0  0  0  0  0
  -21.0799   -8.8775   19.8986 H   0  0  0  0  0  0
  -22.3642  -10.9685   19.6211 H   0  0  0  0  0  0
  -21.2032   -7.6134   23.9696 H   0  0  0  0  0  0
  -21.1510   -6.0519   25.9068 H   0  0  0  0  0  0
  -22.0568   -2.7585   23.2838 H   0  0  0  0  0  0
  -22.3854  -12.0022   22.4881 H   0  0  0  0  0  0
  -21.1018  -13.1539   22.2519 H   0  0  0  0  0  0
  -24.6398  -15.8417   20.4933 H   0  0  0  0  0  0
  -26.2504  -15.6265   20.0391 H   0  0  0  0  0  0
  -26.7234  -32.5415   23.1062 H   0  0  0  0  0  0
  -25.0166  -33.9702   25.0449 H   0  0  0  0  0  0
  -22.7254  -31.3011   21.3931 H   0  0  0  0  0  0
  -23.3754  -35.9586   23.3289 H   0  0  0  0  0  0
  -24.3569  -36.8900   22.2047 H   0  0  0  0  0  0
  -23.7232  -37.6452   23.6663 H   0  0  0  0  0  0
  -26.0990  -31.5316   20.5931 H   0  0  0  0  0  0
  -26.8464  -30.8268   22.0025 H   0  0  0  0  0  0
  -28.1239  -28.9568   21.1738 H   0  0  0  0  0  0
  -26.0001  -25.8856   19.0249 H   0  0  0  0  0  0
  -23.9756  -27.2831   19.0188 H   0  0  0  0  0  0
  -23.7657  -30.5745   19.3988 H   0  0  0  0  0  0
  -22.7589  -29.2339   19.8610 H   0  0  0  0  0  0
  -25.1295  -36.1907   25.0813 H   0  0  0  0  0  0
  -20.9973  -28.3340   24.1443 H   0  0  0  0  0  0
  -20.5703  -26.2327   23.3694 H   0  0  0  0  0  0
  -21.6701  -26.7422   22.1317 H   0  0  0  0  0  0
  -19.7056  -25.6333   21.1263 H   0  0  0  0  0  0
  -19.6823  -27.3264   20.6816 H   0  0  0  0  0  0
  -17.4290  -26.6649   21.3992 H   0  0  0  0  0  0
  -18.0329  -26.0016   22.8956 H   0  0  0  0  0  0
  -19.7938  -30.7204   24.2350 H   0  0  0  0  0  0
  -17.5021  -31.6240   24.5182 H   0  0  0  0  0  0
  -15.5377  -30.2967   23.7624 H   0  0  0  0  0  0
  -15.8699  -28.0817   22.7031 H   0  0  0  0  0  0
  -24.5895  -30.7128   25.7780 H   0  0  0  0  0  0
  -24.8946  -32.2952   26.4838 H   0  0  0  0  0  0
  -25.8040  -30.8976   27.0239 H   0  0  0  0  0  0
  -26.2952  -29.6768   24.1159 H   0  0  0  0  0  0
  -27.4016  -29.7254   25.4692 H   0  0  0  0  0  0
  -27.8834  -30.4279   23.9419 H   0  0  0  0  0  0
  -27.2670  -33.3636   26.2051 H   0  0  0  0  0  0
  -28.3883  -32.6906   25.0313 H   0  0  0  0  0  0
  -28.0731  -31.8472   26.5435 H   0  0  0  0  0  0
  -28.2584  -38.0100   24.7518 H   0  0  0  0  0  0
  -28.1081  -36.2634   24.6266 H   0  0  0  0  0  0
  -27.2289  -37.1400   25.8858 H   0  0  0  0  0  0
  -20.9319  -29.8845   21.6969 H   0  0  0  0  0  0
  -26.0154  -38.2834   24.1454 H   0  0  0  0  0  0
  -30.8031  -21.0035   22.0647 H   0  0  0  0  0  0
  -31.2755  -16.7736   22.5289 H   0  0  0  0  0  0
  -26.5342  -20.9392   22.8347 H   0  0  0  0  0  0
  -27.0998  -20.1418   21.2748 H   0  0  0  0  0  0
  -28.5481  -23.5778   22.9555 H   0  0  0  0  0  0
  -26.8477  -23.2809   23.1865 H   0  0  0  0  0  0
  -27.0970  -25.5307   22.3189 H   0  0  0  0  0  0
  -26.2844  -24.5593   21.1146 H   0  0  0  0  0  0
  -29.5559  -23.8364   19.2153 H   0  0  0  0  0  0
  -27.8643  -23.8281   18.8520 H   0  0  0  0  0  0
  -29.2543  -25.0429   21.2426 H   0  0  0  0  0  0
  -27.7042  -18.8295   18.9530 H   0  0  0  0  0  0
  -28.3555  -17.2108   18.7726 H   0  0  0  0  0  0
  -29.1803  -18.5642   18.0087 H   0  0  0  0  0  0
  -29.1380  -20.9764   18.7561 H   0  0  0  0  0  0
  -30.3579  -21.7291   19.6933 H   0  0  0  0  0  0
  -28.8039  -15.6627   20.3874 H   0  0  0  0  0  0
  -27.6627  -22.0295   19.6203 H   0  0  0  0  0  0
  1 25  1  0  0  0
  1 30  2  0  0  0
  1 85  1  0  0  0
  2  3  1  0  0  0
  2 25  1  0  0  0
  2 88  1  0  0  0
  2 89  1  0  0  0
  3  4  1  0  0  0
  3 90  1  0  0  0
  3 91  1  0  0  0
  4  5  1  0  0  0
  4 92  1  0  0  0
  4 93  1  0  0  0
  5  6  1  0  0  0
  5 26  1  0  0  0
  5 94  1  0  0  0
  6 25  1  0  0  0
  6 95  1  0  0  0
  6 96  1  0  0  0
  7  8  2  0  0  0
  7 26  1  0  0  0
  7 29  1  0  0  0
  8  9  1  0  0  0
  8 22  1  0  0  0
  9 10  1  0  0  0
  9 27  2  0  0  0
 10 11  2  0  0  0
 10 15  1  0  0  0
 11 12  1  0  0  0
 11 97  1  0  0  0
 12 13  2  0  0  0
 12 98  1  0  0  0
 13 14  1  0  0  0
 13 31  1  0  0  0
 14 15  2  0  0  0
 14 99  1  0  0  0
 15100  1  0  0  0
 16 17  2  0  0  0
 16 21  1  0  0  0
 16 31  1  0  0  0
 17 18  1  0  0  0
 17101  1  0  0  0
 18 19  2  0  0  0
 18102  1  0  0  0
 19 20  1  0  0  0
 19 24  1  0  0  0
 20 21  2  0  0  0
 20103  1  0  0  0
 21 23  1  0  0  0
 22 28  1  0  0  0
 22 32  2  0  0  0
 26 27  1  0  0  0
 28104  1  0  0  0
 28105  1  0  0  0
 29106  1  0  0  0
 29107  1  0  0  0
 33 34  1  0  0  0
 33 66  1  0  0  0
 33 70  2  0  0  0
 34 36  1  0  0  0
 34 59  1  0  0  0
 34108  1  0  0  0
 35 44  2  0  0  0
 35 45  1  0  0  0
 35 68  1  0  0  0
 36 56  1  0  0  0
 36109  1  0  0  0
 37 39  1  0  0  0
 37 47  1  0  0  0
 37 66  1  0  0  0
 37110  1  0  0  0
 38 43  2  0  0  0
 38 46  1  0  0  0
 38 47  1  0  0  0
 39 64  1  0  0  0
 39 67  2  0  0  0
 40 52  1  0  0  0
 40 53  2  0  0  0
 40 58  1  0  0  0
 41111  1  0  0  0
 41112  1  0  0  0
 41113  1  0  0  0
 41 48  1  0  0  0
 42 43  1  0  0  0
 42 66  1  0  0  0
 42114  1  0  0  0
 42115  1  0  0  0
 43 44  1  0  0  0
 44116  1  0  0  0
 45 46  2  0  0  0
 45117  1  0  0  0
 46118  1  0  0  0
 47119  1  0  0  0
 47120  1  0  0  0
 48 56  1  0  0  0
 48 65  1  0  0  0
 48121  1  0  0  0
 49 50  1  0  0  0
 49 53  1  0  0  0
 49 64  1  0  0  0
 49122  1  0  0  0
 50 51  1  0  0  0
 50123  1  0  0  0
 50124  1  0  0  0
 51 52  1  0  0  0
 51125  1  0  0  0
 51126  1  0  0  0
 52127  1  0  0  0
 52128  1  0  0  0
 53 54  1  0  0  0
 54 55  2  0  0  0
 54129  1  0  0  0
 55 57  1  0  0  0
 55130  1  0  0  0
 56 69  2  0  0  0
 57 58  2  0  0  0
 57131  1  0  0  0
 58132  1  0  0  0
 59 60  1  0  0  0
 59 61  1  0  0  0
 59 62  1  0  0  0
 60133  1  0  0  0
 60134  1  0  0  0
 60135  1  0  0  0
 61136  1  0  0  0
 61137  1  0  0  0
 61138  1  0  0  0
 62139  1  0  0  0
 62140  1  0  0  0
 62141  1  0  0  0
 63 65  1  0  0  0
 63142  1  0  0  0
 63143  1  0  0  0
 63144  1  0  0  0
 64145  1  0  0  0
 65146  1  0  0  0
 68 82  1  0  0  0
 71 73  2  0  0  0
 71 76  1  0  0  0
 71147  1  0  0  0
 72 75  1  0  0  0
 72 76  2  0  0  0
 72148  1  0  0  0
 73 74  1  0  0  0
 73 84  1  0  0  0
 74 75  2  0  0  0
 74 83  1  0  0  0
 75 85  1  0  0  0
 76 87  1  0  0  0
 77 78  2  0  0  0
 77 79  1  0  0  0
 77 86  1  0  0  0
 78149  1  0  0  0
 78150  1  0  0  0
 79 80  1  0  0  0
 79151  1  0  0  0
 79152  1  0  0  0
 80 82  1  0  0  0
 80153  1  0  0  0
 80154  1  0  0  0
 81 82  1  0  0  0
 81 86  1  0  0  0
 81155  1  0  0  0
 81156  1  0  0  0
 82157  1  0  0  0
 83158  1  0  0  0
 83159  1  0  0  0
 83160  1  0  0  0
 84161  1  0  0  0
 84162  1  0  0  0
 84 86  1  0  0  0
 85163  1  0  0  0
 86164  1  0  0  0
M  CHG  1  86   1
M  ISO  4   1 100  68 101  82 101  85 100
M  END
> <chiral flag>
0

> <version>
0

> <s_m_source_file>
/data/baiqing/PycharmProjects/Reinvent-master-3.2/result/LINK_invent/BTK/process_docking_weight1_custom_product_contain_oxygen_bond_distance_aromatic_linkinvent_7_9_3/rearranged_h_0037.sdf

> <i_m_source_file_index>
90

> <r_mmod_Potential_Energy-OPLS-2005>
144.505645751953

> <r_mmod_Stretch_Energy-OPLS-2005>
131.248306274414

> <r_mmod_Bend_Energy-OPLS-2005>
223.054336547852

> <r_mmod_Torsional_Energy-OPLS-2005>
279.193206787109

> <r_mmod_Improper_Torsional_Energy-OPLS-2005>
9.05458831787109

> <r_mmod_Van_der_Waal_Energy-OPLS-2005>
129.17594909668

> <r_mmod_Electrostatic_Energy-OPLS-2005>
-263.399169921875

> <r_mmod_Solvation_Energy-OPLS-2005>
-446.373077392578

> <b_mmod_Minimization_Converged-OPLS-2005>
0

> <r_mmod_RMS_Derivative-OPLS-2005>
3.73693585395813

$$$$
90
                    3D
 Structure written by MMmdl.
167176  0  0  1  0            999 V2000
  -30.6556  -14.7094   20.4883 C   0  0  0  0  0  0
  -30.4260  -12.4381   19.4736 C   0  0  0  0  0  0
  -29.5076  -12.5088   18.2353 C   0  0  0  0  0  0
  -28.0337  -12.3364   18.6478 C   0  0  0  0  0  0
  -27.6441  -13.2336   19.8541 C   0  0  2  0  0  0
  -28.6899  -13.1651   20.9900 C   0  0  0  0  0  0
  -25.2516  -13.8198   20.5689 C   0  0  0  0  0  0
  -24.1815  -13.0442   20.9219 C   0  0  0  0  0  0
  -24.6407  -11.6919   20.8758 C   0  0  0  0  0  0
  -23.9086  -10.4295   21.0410 C   0  0  0  0  0  0
  -24.3629   -9.4207   21.9191 C   0  0  0  0  0  0
  -23.6301   -8.2244   22.0756 C   0  0  0  0  0  0
  -22.4285   -8.0283   21.3539 C   0  0  0  0  0  0
  -21.9921   -9.0260   20.4644 C   0  0  0  0  0  0
  -22.7255  -10.2137   20.3056 C   0  0  0  0  0  0
  -21.6856   -6.0743   22.5278 C   0  0  0  0  0  0
  -21.4014   -6.5642   23.8215 C   0  0  0  0  0  0
  -21.3661   -5.6795   24.9175 C   0  0  0  0  0  0
  -21.6041   -4.3058   24.7226 C   0  0  0  0  0  0
  -21.8821   -3.8148   23.4348 C   0  0  0  0  0  0
  -21.9197   -4.6968   22.3404 C   0  0  0  0  0  0
  -22.7834  -13.5227   21.1866 C   0  0  0  0  0  0
  -22.1661   -4.2154   21.0984 F   0  0  0  0  0  0
  -21.5633   -3.4541   25.7741 F   0  0  0  0  0  0
  -29.9953  -13.5039   20.4094 N   0  0  0  0  0  0
  -26.2952  -12.9410   20.3301 N   0  0  0  0  0  0
  -25.9340  -11.6549   20.5774 N   0  0  0  0  0  0
  -22.0472  -12.8210   22.0410 N   0  0  0  0  0  0
  -25.4189  -15.1914   20.4041 N   0  0  0  0  0  0
  -31.8335  -14.7660   20.1276 O   0  0  0  0  0  0
  -21.6640   -6.8879   21.4239 O   0  0  0  0  0  0
  -22.3523  -14.5540   20.6726 O   0  0  0  0  0  0
  -24.6309  -31.8561   23.1996 C   0  0  0  0  0  0
  -25.9150  -32.4747   23.8332 C   0  0  1  0  0  0
  -27.2117  -27.2622   20.1301 C   0  0  0  0  0  0
  -25.5970  -33.8551   24.2270 N   0  0  0  0  0  0
  -23.4261  -30.4801   21.5437 C   0  0  2  0  0  0
  -24.8722  -28.9346   20.1051 C   0  0  0  0  0  0
  -22.7496  -29.4605   22.4922 C   0  0  0  0  0  0
  -18.0297  -28.1379   22.8489 C   0  0  0  0  0  0
  -24.1504  -36.7268   23.2637 C   0  0  0  0  0  0
  -25.9720  -30.7691   21.3813 C   0  0  0  0  0  0
  -26.0425  -29.3926   20.7229 C   0  0  0  0  0  0
  -27.2121  -28.5667   20.7307 C   0  0  0  0  0  0
  -26.0270  -26.8919   19.4515 C   0  0  0  0  0  0
  -24.8707  -27.6927   19.4576 C   0  0  0  0  0  0
  -23.6416  -29.8176   20.1577 C   0  0  0  0  0  0
  -25.4120  -36.3048   24.0331 C   0  0  1  0  0  0
  -20.5896  -28.3692   23.1275 C   0  0  2  0  0  0
  -20.6790  -26.9413   22.5409 C   0  0  0  0  0  0
  -19.5765  -26.6377   21.5215 C   0  0  0  0  0  0
  -18.1941  -26.7930   22.1611 C   0  0  0  0  0  0
  -19.1548  -28.8858   23.2877 C   0  0  0  0  0  0
  -18.9463  -30.1465   23.8886 C   0  0  0  0  0  0
  -17.6460  -30.6583   24.0559 C   0  0  0  0  0  0
  -25.9066  -34.9427   23.5089 C   0  0  0  0  0  0
  -16.5351  -29.9071   23.6338 C   0  0  0  0  0  0
  -16.7281  -28.6492   23.0356 C   0  0  0  0  0  0
  -26.4520  -31.6559   25.0711 C   0  0  0  0  0  0
  -25.3744  -31.3684   26.1423 C   0  0  0  0  0  0
  -27.0376  -30.2981   24.6183 C   0  0  0  0  0  0
  -27.6093  -32.4280   25.7469 C   0  0  0  0  0  0
  -27.5577  -37.1783   24.8459 C   0  0  0  0  0  0
  -21.4205  -29.3040   22.3670 N   0  0  0  0  0  0
  -26.4283  -37.3757   23.9415 N   0  0  0  0  0  0
  -24.6951  -31.0535   22.0972 N   0  0  0  0  0  0
  -23.4211  -28.8149   23.3010 O   0  0  0  0  0  0
  -28.2989  -26.3588   20.2306 O   0  0  0  0  0  0
  -26.5618  -34.8906   22.4644 O   0  0  0  0  0  0
  -23.5460  -32.1383   23.7296 O   0  0  0  0  0  0
  -31.7080  -17.6040   21.0398 C   0  0  0  0  0  0
  -29.8865  -19.8391   21.0046 C   0  0  0  0  0  0
  -29.4403  -18.4476   20.8329 C   0  0  0  0  0  0
  -31.2799  -20.0194   21.2561 C   0  0  0  0  0  0
  -30.3435  -17.2974   20.8516 C   0  0  0  0  0  0
  -32.1652  -18.9158   21.2364 C   0  0  0  0  0  0
  -28.7524  -23.8321   20.9372 C   0  0  0  0  0  0
  -29.1879  -24.1374   22.1725 C   0  0  0  0  0  0
  -29.8269  -23.7782   18.3898 C   0  0  0  0  0  0
  -28.4993  -24.5664   18.4898 C   0  0  0  0  0  0
  -29.7845  -22.3934   19.0958 C   0  0  0  0  0  0
  -28.1077  -24.8881   19.9530 C   0  0  2  0  0  0
  -27.9501  -18.1727   20.6825 C   0  0  0  0  0  0
  -31.8840  -21.3685   21.6392 C   0  0  0  0  0  0
  -28.9015  -21.1051   21.1603 C   0  0  0  0  0  0
  -29.9282  -15.8641   20.7583 N   0  0  0  0  0  0
  -28.9231  -22.4000   20.3080 N   0  3  2  0  0  0
  -33.8598  -19.1387   21.5103 Cl  0  0  0  0  0  0
  -31.4696  -12.5414   19.1712 H   0  0  0  0  0  0
  -30.3557  -11.4604   19.9529 H   0  0  0  0  0  0
  -29.7865  -11.7402   17.5131 H   0  0  0  0  0  0
  -29.6388  -13.4673   17.7308 H   0  0  0  0  0  0
  -27.8880  -11.2869   18.9054 H   0  0  0  0  0  0
  -27.3766  -12.5348   17.8004 H   0  0  0  0  0  0
  -27.6404  -14.2562   19.4768 H   0  0  0  0  0  0
  -28.7177  -12.1687   21.4340 H   0  0  0  0  0  0
  -28.4304  -13.8500   21.7984 H   0  0  0  0  0  0
  -25.2771   -9.5688   22.4769 H   0  0  0  0  0  0
  -24.0017   -7.4637   22.7469 H   0  0  0  0  0  0
  -21.0859   -8.8777   19.8943 H   0  0  0  0  0  0
  -22.3717  -10.9678   19.6165 H   0  0  0  0  0  0
  -21.1993   -7.6149   23.9722 H   0  0  0  0  0  0
  -21.1482   -6.0522   25.9083 H   0  0  0  0  0  0
  -22.0596   -2.7609   23.2849 H   0  0  0  0  0  0
  -22.4095  -11.9869   22.4785 H   0  0  0  0  0  0
  -21.1085  -13.1221   22.2604 H   0  0  0  0  0  0
  -24.6415  -15.8370   20.4909 H   0  0  0  0  0  0
  -26.2453  -15.6169   20.0062 H   0  0  0  0  0  0
  -26.7217  -32.5397   23.1074 H   0  0  0  0  0  0
  -25.0188  -33.9708   25.0455 H   0  0  0  0  0  0
  -22.7223  -31.3022   21.3988 H   0  0  0  0  0  0
  -23.3777  -35.9591   23.3266 H   0  0  0  0  0  0
  -24.3604  -36.8904   22.2054 H   0  0  0  0  0  0
  -23.7249  -37.6458   23.6677 H   0  0  0  0  0  0
  -26.1137  -31.5304   20.6131 H   0  0  0  0  0  0
  -26.8495  -30.8143   22.0139 H   0  0  0  0  0  0
  -28.1009  -28.9053   21.2444 H   0  0  0  0  0  0
  -25.9529  -25.9618   18.9097 H   0  0  0  0  0  0
  -23.9802  -27.3432   18.9533 H   0  0  0  0  0  0
  -23.7580  -30.5945   19.4011 H   0  0  0  0  0  0
  -22.7616  -29.2459   19.8571 H   0  0  0  0  0  0
  -25.1300  -36.1879   25.0823 H   0  0  0  0  0  0
  -20.9987  -28.3261   24.1393 H   0  0  0  0  0  0
  -20.5700  -26.2297   23.3610 H   0  0  0  0  0  0
  -21.6659  -26.7452   22.1188 H   0  0  0  0  0  0
  -19.6932  -25.6286   21.1247 H   0  0  0  0  0  0
  -19.6704  -27.3192   20.6749 H   0  0  0  0  0  0
  -17.4216  -26.6696   21.4002 H   0  0  0  0  0  0
  -18.0326  -26.0063   22.8990 H   0  0  0  0  0  0
  -19.7938  -30.7295   24.2237 H   0  0  0  0  0  0
  -17.5005  -31.6264   24.5151 H   0  0  0  0  0  0
  -15.5353  -30.2953   23.7687 H   0  0  0  0  0  0
  -15.8676  -28.0804   22.7073 H   0  0  0  0  0  0
  -24.5979  -30.6966   25.7741 H   0  0  0  0  0  0
  -24.8876  -32.2837   26.4802 H   0  0  0  0  0  0
  -25.8067  -30.8904   27.0223 H   0  0  0  0  0  0
  -26.2967  -29.6714   24.1214 H   0  0  0  0  0  0
  -27.4078  -29.7241   25.4687 H   0  0  0  0  0  0
  -27.8829  -30.4260   23.9420 H   0  0  0  0  0  0
  -27.2756  -33.3621   26.2002 H   0  0  0  0  0  0
  -28.3932  -32.6757   25.0297 H   0  0  0  0  0  0
  -28.0741  -31.8420   26.5406 H   0  0  0  0  0  0
  -28.2559  -38.0115   24.7546 H   0  0  0  0  0  0
  -28.1107  -36.2645   24.6230 H   0  0  0  0  0  0
  -27.2307  -37.1350   25.8864 H   0  0  0  0  0  0
  -20.9391  -29.8748   21.6862 H   0  0  0  0  0  0
  -26.0146  -38.2822   24.1424 H   0  0  0  0  0  0
  -32.4560  -16.8293   21.0898 H   0  0  0  0  0  0
  -29.0780  -25.1435   22.5526 H   0  0  0  0  0  0
  -29.6498  -23.4201   22.8321 H   0  0  0  0  0  0
  -30.6193  -24.3859   18.8306 H   0  0  0  0  0  0
  -30.1067  -23.6418   17.3447 H   0  0  0  0  0  0
  -27.7048  -23.9866   18.0165 H   0  0  0  0  0  0
  -28.5716  -25.4889   17.9139 H   0  0  0  0  0  0
  -30.8038  -22.0970   19.3335 H   0  0  0  0  0  0
  -29.3993  -21.6351   18.4126 H   0  0  0  0  0  0
  -27.0534  -24.6523   20.0833 H   0  0  0  0  0  0
  -27.5727  -18.6054   19.7559 H   0  0  0  0  0  0
  -27.3950  -18.5942   21.5204 H   0  0  0  0  0  0
  -27.7137  -17.1106   20.6646 H   0  0  0  0  0  0
  -31.1766  -22.1837   21.7200 H   0  0  0  0  0  0
  -32.6405  -21.6657   20.9126 H   0  0  0  0  0  0
  -32.3717  -21.2914   22.6116 H   0  0  0  0  0  0
  -28.9448  -21.3840   22.2121 H   0  0  0  0  0  0
  -27.8799  -20.7528   21.0459 H   0  0  0  0  0  0
  -28.9452  -15.6915   20.9006 H   0  0  0  0  0  0
  -28.0328  -22.2548   19.8572 H   0  0  0  0  0  0
  1 25  1  0  0  0
  1 30  2  0  0  0
  1 86  1  0  0  0
  2  3  1  0  0  0
  2 25  1  0  0  0
  2 89  1  0  0  0
  2 90  1  0  0  0
  3  4  1  0  0  0
  3 91  1  0  0  0
  3 92  1  0  0  0
  4  5  1  0  0  0
  4 93  1  0  0  0
  4 94  1  0  0  0
  5  6  1  0  0  0
  5 26  1  0  0  0
  5 95  1  0  0  0
  6 25  1  0  0  0
  6 96  1  0  0  0
  6 97  1  0  0  0
  7  8  2  0  0  0
  7 26  1  0  0  0
  7 29  1  0  0  0
  8  9  1  0  0  0
  8 22  1  0  0  0
  9 10  1  0  0  0
  9 27  2  0  0  0
 10 11  2  0  0  0
 10 15  1  0  0  0
 11 12  1  0  0  0
 11 98  1  0  0  0
 12 13  2  0  0  0
 12 99  1  0  0  0
 13 14  1  0  0  0
 13 31  1  0  0  0
 14 15  2  0  0  0
 14100  1  0  0  0
 15101  1  0  0  0
 16 17  2  0  0  0
 16 21  1  0  0  0
 16 31  1  0  0  0
 17 18  1  0  0  0
 17102  1  0  0  0
 18 19  2  0  0  0
 18103  1  0  0  0
 19 20  1  0  0  0
 19 24  1  0  0  0
 20 21  2  0  0  0
 20104  1  0  0  0
 21 23  1  0  0  0
 22 28  1  0  0  0
 22 32  2  0  0  0
 26 27  1  0  0  0
 28105  1  0  0  0
 28106  1  0  0  0
 29107  1  0  0  0
 29108  1  0  0  0
 33 34  1  0  0  0
 33 66  1  0  0  0
 33 70  2  0  0  0
 34 36  1  0  0  0
 34 59  1  0  0  0
 34109  1  0  0  0
 35 44  2  0  0  0
 35 45  1  0  0  0
 35 68  1  0  0  0
 36 56  1  0  0  0
 36110  1  0  0  0
 37 39  1  0  0  0
 37 47  1  0  0  0
 37 66  1  0  0  0
 37111  1  0  0  0
 38 43  2  0  0  0
 38 46  1  0  0  0
 38 47  1  0  0  0
 39 64  1  0  0  0
 39 67  2  0  0  0
 40 52  1  0  0  0
 40 53  2  0  0  0
 40 58  1  0  0  0
 41112  1  0  0  0
 41113  1  0  0  0
 41114  1  0  0  0
 41 48  1  0  0  0
 42 43  1  0  0  0
 42 66  1  0  0  0
 42115  1  0  0  0
 42116  1  0  0  0
 43 44  1  0  0  0
 44117  1  0  0  0
 45 46  2  0  0  0
 45118  1  0  0  0
 46119  1  0  0  0
 47120  1  0  0  0
 47121  1  0  0  0
 48 56  1  0  0  0
 48 65  1  0  0  0
 48122  1  0  0  0
 49 50  1  0  0  0
 49 53  1  0  0  0
 49 64  1  0  0  0
 49123  1  0  0  0
 50 51  1  0  0  0
 50124  1  0  0  0
 50125  1  0  0  0
 51 52  1  0  0  0
 51126  1  0  0  0
 51127  1  0  0  0
 52128  1  0  0  0
 52129  1  0  0  0
 53 54  1  0  0  0
 54 55  2  0  0  0
 54130  1  0  0  0
 55 57  1  0  0  0
 55131  1  0  0  0
 56 69  2  0  0  0
 57 58  2  0  0  0
 57132  1  0  0  0
 58133  1  0  0  0
 59 60  1  0  0  0
 59 61  1  0  0  0
 59 62  1  0  0  0
 60134  1  0  0  0
 60135  1  0  0  0
 60136  1  0  0  0
 61137  1  0  0  0
 61138  1  0  0  0
 61139  1  0  0  0
 62140  1  0  0  0
 62141  1  0  0  0
 62142  1  0  0  0
 63 65  1  0  0  0
 63143  1  0  0  0
 63144  1  0  0  0
 63145  1  0  0  0
 64146  1  0  0  0
 65147  1  0  0  0
 68 82  1  0  0  0
 71 75  2  0  0  0
 71 76  1  0  0  0
 71148  1  0  0  0
 72 73  2  0  0  0
 72 74  1  0  0  0
 72 85  1  0  0  0
 73 75  1  0  0  0
 73 83  1  0  0  0
 74 76  2  0  0  0
 74 84  1  0  0  0
 75 86  1  0  0  0
 76 88  1  0  0  0
 77 78  2  0  0  0
 77 82  1  0  0  0
 77 87  1  0  0  0
 78149  1  0  0  0
 78150  1  0  0  0
 79 80  1  0  0  0
 79 81  1  0  0  0
 79151  1  0  0  0
 79152  1  0  0  0
 80 82  1  0  0  0
 80153  1  0  0  0
 80154  1  0  0  0
 81 87  1  0  0  0
 81155  1  0  0  0
 81156  1  0  0  0
 82157  1  0  0  0
 83158  1  0  0  0
 83159  1  0  0  0
 83160  1  0  0  0
 84161  1  0  0  0
 84162  1  0  0  0
 84163  1  0  0  0
 85164  1  0  0  0
 85165  1  0  0  0
 85 87  1  0  0  0
 86166  1  0  0  0
 87167  1  0  0  0
M  CHG  1  87   1
M  ISO  4   1 100  68 101  82 101  86 100
M  END
> <chiral flag>
0

> <version>
0

> <s_m_source_file>
/data/baiqing/PycharmProjects/Reinvent-master-3.2/result/LINK_invent/BTK/process_docking_weight1_custom_product_contain_oxygen_bond_distance_aromatic_linkinvent_7_9_3/rearranged_h_0037.sdf

> <i_m_source_file_index>
91

> <r_mmod_Potential_Energy-OPLS-2005>
101.322677612305

> <r_mmod_Stretch_Energy-OPLS-2005>
139.443710327148

> <r_mmod_Bend_Energy-OPLS-2005>
194.958389282227

> <r_mmod_Torsional_Energy-OPLS-2005>
243.799057006836

> <r_mmod_Improper_Torsional_Energy-OPLS-2005>
6.56882619857788

> <r_mmod_Van_der_Waal_Energy-OPLS-2005>
161.734939575195

> <r_mmod_Electrostatic_Energy-OPLS-2005>
-274.878448486328

> <r_mmod_Solvation_Energy-OPLS-2005>
-449.486022949219

> <b_mmod_Minimization_Converged-OPLS-2005>
0

> <r_mmod_RMS_Derivative-OPLS-2005>
1.66379141807556

$$$$
91
                    3D
 Structure written by MMmdl.
185194  0  0  1  0            999 V2000
  -29.0547  -16.1960   20.4094 C   0  0  0  0  0  0
  -30.1012  -13.6640   19.5808 C   0  0  0  0  0  0
  -29.4695  -12.8220   18.4136 C   0  0  0  0  0  0
  -28.1174  -12.2371   18.8373 C   0  0  0  0  0  0
  -27.4303  -13.2400   19.7761 C   0  0  2  0  0  0
  -28.2735  -13.7006   20.9514 C   0  0  0  0  0  0
  -25.1617  -13.7894   20.5764 C   0  0  0  0  0  0
  -24.1103  -13.0150   20.9370 C   0  0  0  0  0  0
  -24.5802  -11.6663   20.8834 C   0  0  0  0  0  0
  -23.8681  -10.4098   21.0508 C   0  0  0  0  0  0
  -24.3402   -9.4076   21.9241 C   0  0  0  0  0  0
  -23.6164   -8.2082   22.0756 C   0  0  0  0  0  0
  -22.4159   -8.0119   21.3530 C   0  0  0  0  0  0
  -21.9710   -9.0043   20.4638 C   0  0  0  0  0  0
  -22.6934  -10.1950   20.3083 C   0  0  0  0  0  0
  -21.6794   -6.0649   22.5289 C   0  0  0  0  0  0
  -21.3970   -6.5587   23.8210 C   0  0  0  0  0  0
  -21.3644   -5.6760   24.9186 C   0  0  0  0  0  0
  -21.6048   -4.3022   24.7254 C   0  0  0  0  0  0
  -21.8826   -3.8095   23.4383 C   0  0  0  0  0  0
  -21.9176   -4.6892   22.3428 C   0  0  0  0  0  0
  -22.7261  -13.5045   21.2085 C   0  0  0  0  0  0
  -22.1660   -4.2086   21.1006 F   0  0  0  0  0  0
  -21.5639   -3.4521   25.7776 F   0  0  0  0  0  0
  -29.0871  -14.6811   20.2733 N   0  0  0  0  0  0
  -26.1603  -12.8951   20.2743 N   0  0  0  0  0  0
  -25.8570  -11.6161   20.5471 N   0  0  0  0  0  0
  -21.9956  -12.8068   22.0672 N   0  0  0  0  0  0
  -25.3479  -15.1632   20.4559 N   0  0  0  0  0  0
  -30.3381  -16.2799   20.3069 O   0  0  0  0  0  0
  -21.6547   -6.8736   21.4231 O   0  0  0  0  0  0
  -22.3072  -14.5410   20.6946 O   0  0  0  0  0  0
  -24.7603  -31.9838   23.1245 C   0  0  0  0  0  0
  -26.0171  -32.5311   23.8357 C   0  0  1  0  0  0
  -26.9515  -27.3499   20.5552 C   0  0  0  0  0  0
  -25.6759  -33.8938   24.2514 N   0  0  0  0  0  0
  -23.6493  -30.6782   21.3221 C   0  0  2  0  0  0
  -25.0069  -29.1441   19.8956 C   0  0  0  0  0  0
  -23.3184  -29.4857   22.1586 C   0  0  0  0  0  0
  -18.3298  -27.4903   22.6271 C   0  0  0  0  0  0
  -24.1518  -36.7383   23.2591 C   0  0  0  0  0  0
  -26.1175  -30.9575   21.2730 C   0  0  0  0  0  0
  -26.1391  -29.5889   20.5980 C   0  0  0  0  0  0
  -27.2084  -28.7087   20.7993 C   0  0  0  0  0  0
  -26.0113  -26.9639   19.5835 C   0  0  0  0  0  0
  -24.9537  -27.8555   19.3260 C   0  0  0  0  0  0
  -23.8617  -30.1119   19.8989 C   0  0  0  0  0  0
  -25.4143  -36.3266   24.0321 C   0  0  1  0  0  0
  -21.4040  -27.9111   22.4552 C   0  0  2  0  0  0
  -22.0577  -25.8350   22.9856 C   0  0  0  0  0  0
  -20.1691  -24.7069   22.9815 C   0  0  0  0  0  0
  -18.5675  -25.7736   22.5208 C   0  0  0  0  0  0
  -19.4657  -28.4565   22.7967 C   0  0  0  0  0  0
  -18.8619  -29.5164   23.7005 C   0  0  0  0  0  0
  -17.5802  -30.0673   23.8030 C   0  0  0  0  0  0
  -25.9249  -34.9744   23.5083 C   0  0  0  0  0  0
  -16.5819  -29.2945   23.2651 C   0  0  0  0  0  0
  -16.9617  -28.0049   22.7868 C   0  0  0  0  0  0
  -26.4790  -31.6772   25.0778 C   0  0  0  0  0  0
  -25.3674  -31.3883   26.1154 C   0  0  0  0  0  0
  -27.0507  -30.3223   24.6161 C   0  0  0  0  0  0
  -27.6278  -32.4207   25.7944 C   0  0  0  0  0  0
  -27.5613  -37.1910   24.8457 C   0  0  0  0  0  0
  -22.3072  -28.7437   21.7335 N   0  0  0  0  0  0
  -26.4268  -37.3993   23.9495 N   0  0  0  0  0  0
  -24.8486  -31.2725   21.9504 N   0  0  0  0  0  0
  -23.8882  -29.2637   23.2127 O   0  0  0  0  0  0
  -26.7917  -26.6361   21.7295 O   0  0  0  0  0  0
  -26.5510  -34.9215   22.4466 O   0  0  0  0  0  0
  -23.6902  -32.2362   23.6878 O   0  0  0  0  0  0
  -23.5467  -20.4057   19.8209 C   0  0  0  0  0  0
  -25.2644  -18.3765   19.6767 C   0  0  0  0  0  0
  -24.2332  -21.3870   20.5992 C   0  0  0  0  0  0
  -25.6991  -20.3977   20.8487 C   0  0  0  0  0  0
  -26.3936  -18.8069   20.4442 C   0  0  0  0  0  0
  -24.0089  -19.0812   19.4156 C   0  0  0  0  0  0
  -20.3563  -26.7215   24.0978 C   0  0  0  0  0  0
  -19.4528  -26.3332   25.0791 C   0  0  0  0  0  0
  -23.2410  -23.1873   20.9063 C   0  0  0  0  0  0
  -20.3520  -30.4132   21.4512 C   0  0  0  0  0  0
  -20.1866  -29.0770   20.2774 C   0  0  0  0  0  0
  -21.0573  -30.6299   23.1000 C   0  0  0  0  0  0
  -20.0862  -27.3121   20.2400 C   0  0  0  0  0  0
  -21.4962  -29.5464   24.5231 C   0  0  0  0  0  0
  -20.6838  -26.0687   21.2966 C   0  0  2  0  0  0
  -21.6517  -27.8003   24.8687 C   0  0  2  0  0  0
  -26.7037  -21.1574   21.6868 C   0  0  0  0  0  0
  -19.3885  -26.7557   26.5388 C   0  0  0  0  0  0
  -24.5562  -26.6825   24.0411 C   0  0  0  0  0  0
  -25.5085  -27.1163   22.6172 C   0  0  0  0  0  0
  -24.2185  -23.9262   21.4098 N   0  0  0  0  0  0
  -27.9536  -17.5744   20.5803 N   0  0  0  0  0  0
  -21.8363  -24.2847   20.8333 N   0  3  0  0  0  0
  -23.3202  -27.4659   24.8969 N   0  3  0  0  0  0
  -22.8776  -18.2013   18.4516 Cl  0  0  0  0  0  0
  -30.9304  -14.2240   19.1477 H   0  0  0  0  0  0
  -30.5765  -13.0094   20.3145 H   0  0  0  0  0  0
  -30.1487  -12.0375   18.0770 H   0  0  0  0  0  0
  -29.3099  -13.4779   17.5570 H   0  0  0  0  0  0
  -28.2884  -11.3024   19.3713 H   0  0  0  0  0  0
  -27.4957  -11.9986   17.9735 H   0  0  0  0  0  0
  -27.2126  -14.0771   19.1061 H   0  0  0  0  0  0
  -28.7923  -12.8874   21.4623 H   0  0  0  0  0  0
  -27.6860  -14.2155   21.7135 H   0  0  0  0  0  0
  -25.2551   -9.5625   22.4798 H   0  0  0  0  0  0
  -23.9909   -7.4474   22.7453 H   0  0  0  0  0  0
  -21.0648   -8.8505   19.8952 H   0  0  0  0  0  0
  -22.3374  -10.9495   19.6205 H   0  0  0  0  0  0
  -21.1943   -7.6096   23.9689 H   0  0  0  0  0  0
  -21.1466   -6.0504   25.9084 H   0  0  0  0  0  0
  -22.0630   -2.7560   23.2897 H   0  0  0  0  0  0
  -22.3565  -11.9694   22.5002 H   0  0  0  0  0  0
  -21.0603  -13.1120   22.2958 H   0  0  0  0  0  0
  -24.6074  -15.8115   20.6960 H   0  0  0  0  0  0
  -26.2240  -15.6081   20.2234 H   0  0  0  0  0  0
  -26.8625  -32.6088   23.1566 H   0  0  0  0  0  0
  -25.1098  -33.9931   25.0808 H   0  0  0  0  0  0
  -22.8819  -31.4396   21.2528 H   0  0  0  0  0  0
  -23.3866  -35.9620   23.3152 H   0  0  0  0  0  0
  -24.3636  -36.9121   22.2027 H   0  0  0  0  0  0
  -23.7138  -37.6501   23.6665 H   0  0  0  0  0  0
  -26.3043  -31.7228   20.5193 H   0  0  0  0  0  0
  -26.9760  -30.9754   21.9338 H   0  0  0  0  0  0
  -27.9781  -28.9857   21.5068 H   0  0  0  0  0  0
  -25.8603  -25.9196   19.3479 H   0  0  0  0  0  0
  -24.0845  -27.5231   18.7723 H   0  0  0  0  0  0
  -24.1082  -30.9313   19.2234 H   0  0  0  0  0  0
  -22.9851  -29.6525   19.4604 H   0  0  0  0  0  0
  -25.1284  -36.2054   25.0790 H   0  0  0  0  0  0
  -22.3149  -27.7328   22.9043 H   0  0  0  0  0  0
  -22.3878  -25.5302   23.9753 H   0  0  0  0  0  0
  -22.9130  -25.5931   22.3894 H   0  0  0  0  0  0
  -20.0575  -24.2198   23.9537 H   0  0  0  0  0  0
  -20.1584  -23.7856   22.4018 H   0  0  0  0  0  0
  -18.2652  -25.5006   21.5094 H   0  0  0  0  0  0
  -17.7317  -25.3308   23.0619 H   0  0  0  0  0  0
  -19.3118  -30.1133   24.4486 H   0  0  0  0  0  0
  -17.3612  -30.9482   24.3906 H   0  0  0  0  0  0
  -15.5431  -29.5793   23.3600 H   0  0  0  0  0  0
  -16.1542  -27.3168   22.5809 H   0  0  0  0  0  0
  -24.5815  -30.7535   25.7074 H   0  0  0  0  0  0
  -24.8966  -32.3062   26.4683 H   0  0  0  0  0  0
  -25.7638  -30.8725   26.9906 H   0  0  0  0  0  0
  -26.2884  -29.7351   24.1182 H   0  0  0  0  0  0
  -27.4075  -29.7296   25.4594 H   0  0  0  0  0  0
  -27.8929  -30.4430   23.9342 H   0  0  0  0  0  0
  -27.2934  -33.3517   26.2535 H   0  0  0  0  0  0
  -28.4341  -32.6690   25.1029 H   0  0  0  0  0  0
  -28.0598  -31.8147   26.5919 H   0  0  0  0  0  0
  -28.2517  -38.0325   24.7721 H   0  0  0  0  0  0
  -28.1238  -36.2886   24.6011 H   0  0  0  0  0  0
  -27.2377  -37.1221   25.8858 H   0  0  0  0  0  0
  -21.9091  -29.0604   20.8606 H   0  0  0  0  0  0
  -26.0137  -38.3021   24.1671 H   0  0  0  0  0  0
  -22.5592  -20.6898   19.4836 H   0  0  0  0  0  0
  -25.3456  -17.4094   19.2106 H   0  0  0  0  0  0
  -18.6537  -25.6403   24.8902 H   0  0  0  0  0  0
  -19.3299  -30.7809   21.5459 H   0  0  0  0  0  0
  -20.7584  -31.2342   20.8615 H   0  0  0  0  0  0
  -20.9202  -29.2983   19.5079 H   0  0  0  0  0  0
  -19.2745  -29.3599   19.7506 H   0  0  0  0  0  0
  -20.4427  -31.4284   23.5204 H   0  0  0  0  0  0
  -21.8170  -31.3569   22.9826 H   0  0  0  0  0  0
  -20.4312  -27.0341   19.2422 H   0  0  0  0  0  0
  -19.0183  -27.1201   20.1479 H   0  0  0  0  0  0
  -20.9530  -29.9046   25.3961 H   0  0  0  0  0  0
  -22.4295  -29.9787   24.8753 H   0  0  0  0  0  0
  -21.6284  -26.4221   20.8543 H   0  0  0  0  0  0
  -21.5019  -27.7687   25.9417 H   0  0  0  0  0  0
  -26.3291  -22.1386   21.9747 H   0  0  0  0  0  0
  -27.6325  -21.2952   21.1324 H   0  0  0  0  0  0
  -26.9279  -20.6006   22.5971 H   0  0  0  0  0  0
  -19.3851  -27.8416   26.6387 H   0  0  0  0  0  0
  -20.2167  -26.3312   27.1064 H   0  0  0  0  0  0
  -18.4663  -26.3911   26.9919 H   0  0  0  0  0  0
  -25.3317  -26.7489   24.8014 H   0  0  0  0  0  0
  -24.4102  -25.6059   24.0302 H   0  0  0  0  0  0
  -25.8718  -28.0966   22.8816 H   0  0  0  0  0  0
  -24.7315  -27.2240   21.8702 H   0  0  0  0  0  0
  -25.1221  -23.5090   21.5625 H   0  0  0  0  0  0
  -24.0827  -24.9094   21.5137 H   0  0  0  0  0  0
  -28.6713  -18.2137   20.8898 H   0  0  0  0  0  0
  -21.1753  -23.7242   20.3023 H   0  0  0  0  0  0
  -23.4866  -27.1909   25.8555 H   0  0  0  0  0  0
  -23.6718  -28.4140   24.8083 H   0  0  0  0  0  0
  1 25  1  0  0  0
  1 30  2  0  0  0
  1 92  1  0  0  0
  2  3  1  0  0  0
  2 25  1  0  0  0
  2 96  1  0  0  0
  2 97  1  0  0  0
  3  4  1  0  0  0
  3 98  1  0  0  0
  3 99  1  0  0  0
  4  5  1  0  0  0
  4100  1  0  0  0
  4101  1  0  0  0
  5  6  1  0  0  0
  5 26  1  0  0  0
  5102  1  0  0  0
  6 25  1  0  0  0
  6103  1  0  0  0
  6104  1  0  0  0
  7  8  2  0  0  0
  7 26  1  0  0  0
  7 29  1  0  0  0
  8  9  1  0  0  0
  8 22  1  0  0  0
  9 10  1  0  0  0
  9 27  2  0  0  0
 10 11  2  0  0  0
 10 15  1  0  0  0
 11 12  1  0  0  0
 11105  1  0  0  0
 12 13  2  0  0  0
 12106  1  0  0  0
 13 14  1  0  0  0
 13 31  1  0  0  0
 14 15  2  0  0  0
 14107  1  0  0  0
 15108  1  0  0  0
 16 17  2  0  0  0
 16 21  1  0  0  0
 16 31  1  0  0  0
 17 18  1  0  0  0
 17109  1  0  0  0
 18 19  2  0  0  0
 18110  1  0  0  0
 19 20  1  0  0  0
 19 24  1  0  0  0
 20 21  2  0  0  0
 20111  1  0  0  0
 21 23  1  0  0  0
 22 28  1  0  0  0
 22 32  2  0  0  0
 26 27  1  0  0  0
 28112  1  0  0  0
 28113  1  0  0  0
 29114  1  0  0  0
 29115  1  0  0  0
 33 34  1  0  0  0
 33 66  1  0  0  0
 33 70  2  0  0  0
 34 36  1  0  0  0
 34 59  1  0  0  0
 34116  1  0  0  0
 35 44  2  0  0  0
 35 45  1  0  0  0
 35 68  1  0  0  0
 36 56  1  0  0  0
 36117  1  0  0  0
 37 39  1  0  0  0
 37 47  1  0  0  0
 37 66  1  0  0  0
 37118  1  0  0  0
 38 43  2  0  0  0
 38 46  1  0  0  0
 38 47  1  0  0  0
 39 64  1  0  0  0
 39 67  2  0  0  0
 40 52  1  0  0  0
 40 53  2  0  0  0
 40 58  1  0  0  0
 41119  1  0  0  0
 41120  1  0  0  0
 41121  1  0  0  0
 41 48  1  0  0  0
 42 43  1  0  0  0
 42 66  1  0  0  0
 42122  1  0  0  0
 42123  1  0  0  0
 43 44  1  0  0  0
 44124  1  0  0  0
 45 46  2  0  0  0
 45125  1  0  0  0
 46126  1  0  0  0
 47127  1  0  0  0
 47128  1  0  0  0
 48 56  1  0  0  0
 48 65  1  0  0  0
 48129  1  0  0  0
 49 50  1  0  0  0
 49 53  1  0  0  0
 49 64  1  0  0  0
 49130  1  0  0  0
 50 51  1  0  0  0
 50131  1  0  0  0
 50132  1  0  0  0
 51 52  1  0  0  0
 51133  1  0  0  0
 51134  1  0  0  0
 52135  1  0  0  0
 52136  1  0  0  0
 53 54  1  0  0  0
 54 55  2  0  0  0
 54137  1  0  0  0
 55 57  1  0  0  0
 55138  1  0  0  0
 56 69  2  0  0  0
 57 58  2  0  0  0
 57139  1  0  0  0
 58140  1  0  0  0
 59 60  1  0  0  0
 59 61  1  0  0  0
 59 62  1  0  0  0
 60141  1  0  0  0
 60142  1  0  0  0
 60143  1  0  0  0
 61144  1  0  0  0
 61145  1  0  0  0
 61146  1  0  0  0
 62147  1  0  0  0
 62148  1  0  0  0
 62149  1  0  0  0
 63 65  1  0  0  0
 63150  1  0  0  0
 63151  1  0  0  0
 63152  1  0  0  0
 64153  1  0  0  0
 65154  1  0  0  0
 68 90  1  0  0  0
 71 73  2  0  0  0
 71 76  1  0  0  0
 71155  1  0  0  0
 72 75  1  0  0  0
 72 76  2  0  0  0
 72156  1  0  0  0
 73 74  1  0  0  0
 73 79  1  0  0  0
 74 75  2  0  0  0
 74 87  1  0  0  0
 75 92  1  0  0  0
 76 95  1  0  0  0
 77 78  2  0  0  0
 77 85  1  0  0  0
 77 86  1  0  0  0
 78 88  1  0  0  0
 78157  1  0  0  0
 79 91  1  0  0  0
 79 93  2  0  0  0
 80 81  1  0  0  0
 80 82  1  0  0  0
 80158  1  0  0  0
 80159  1  0  0  0
 81 83  1  0  0  0
 81160  1  0  0  0
 81161  1  0  0  0
 82 84  1  0  0  0
 82162  1  0  0  0
 82163  1  0  0  0
 83 85  1  0  0  0
 83164  1  0  0  0
 83165  1  0  0  0
 84 86  1  0  0  0
 84166  1  0  0  0
 84167  1  0  0  0
 85 93  1  0  0  0
 85168  1  0  0  0
 86 94  1  0  0  0
 86169  1  0  0  0
 87170  1  0  0  0
 87171  1  0  0  0
 87172  1  0  0  0
 88173  1  0  0  0
 88174  1  0  0  0
 88175  1  0  0  0
 89 90  1  0  0  0
 89 94  1  0  0  0
 89176  1  0  0  0
 89177  1  0  0  0
 90178  1  0  0  0
 90179  1  0  0  0
 91180  1  0  0  0
 91181  1  0  0  0
 92182  1  0  0  0
 93183  1  0  0  0
 94184  1  0  0  0
 94185  1  0  0  0
M  CHG  2  93   1  94   1
M  ISO  4   1 100  68 101  90 101  92 100
M  END
> <chiral flag>
0

> <version>
0

> <s_m_source_file>
/data/baiqing/PycharmProjects/Reinvent-master-3.2/result/LINK_invent/BTK/process_docking_weight1_custom_product_contain_oxygen_bond_distance_aromatic_linkinvent_7_9_3/rearranged_h_0037.sdf

> <i_m_source_file_index>
92

> <r_mmod_Potential_Energy-OPLS-2005>
17581.521484375

> <r_mmod_Stretch_Energy-OPLS-2005>
8568.4130859375

> <r_mmod_Bend_Energy-OPLS-2005>
2338.619140625

> <r_mmod_Torsional_Energy-OPLS-2005>
558.765380859375

> <r_mmod_Improper_Torsional_Energy-OPLS-2005>
31.5184574127197

> <r_mmod_Van_der_Waal_Energy-OPLS-2005>
2825.0185546875

> <r_mmod_Electrostatic_Energy-OPLS-2005>
-148.165023803711

> <r_mmod_Solvation_Energy-OPLS-2005>
-788.88232421875

> <b_mmod_Minimization_Converged-OPLS-2005>
0

> <r_mmod_RMS_Derivative-OPLS-2005>
5.74298715591431

$$$$
92
                    3D
 Structure written by MMmdl.
166175  0  0  1  0            999 V2000
  -29.5202  -16.0287   20.8301 C   0  0  0  0  0  0
  -30.2764  -13.4993   19.7855 C   0  0  0  0  0  0
  -29.5683  -12.8523   18.5246 C   0  0  0  0  0  0
  -28.1778  -12.3195   18.8815 C   0  0  0  0  0  0
  -27.5291  -13.2972   19.8761 C   0  0  2  0  0  0
  -28.3876  -13.6084   21.1060 C   0  0  0  0  0  0
  -25.1899  -13.8171   20.5697 C   0  0  0  0  0  0
  -24.1383  -13.0356   20.9220 C   0  0  0  0  0  0
  -24.6056  -11.6839   20.8696 C   0  0  0  0  0  0
  -23.8901  -10.4221   21.0412 C   0  0  0  0  0  0
  -24.3544   -9.4165   21.9167 C   0  0  0  0  0  0
  -23.6237   -8.2205   22.0765 C   0  0  0  0  0  0
  -22.4224   -8.0210   21.3550 C   0  0  0  0  0  0
  -21.9812   -9.0167   20.4655 C   0  0  0  0  0  0
  -22.7122  -10.2029   20.3045 C   0  0  0  0  0  0
  -21.6815   -6.0698   22.5296 C   0  0  0  0  0  0
  -21.3985   -6.5628   23.8221 C   0  0  0  0  0  0
  -21.3660   -5.6798   24.9189 C   0  0  0  0  0  0
  -21.6059   -4.3063   24.7238 C   0  0  0  0  0  0
  -21.8840   -3.8129   23.4365 C   0  0  0  0  0  0
  -21.9183   -4.6934   22.3409 C   0  0  0  0  0  0
  -22.7456  -13.5120   21.1926 C   0  0  0  0  0  0
  -22.1664   -4.2138   21.0970 F   0  0  0  0  0  0
  -21.5624   -3.4528   25.7729 F   0  0  0  0  0  0
  -29.4069  -14.5280   20.6256 N   0  0  0  0  0  0
  -26.2132  -12.9394   20.3007 N   0  0  0  0  0  0
  -25.8933  -11.6506   20.5582 N   0  0  0  0  0  0
  -22.0147  -12.8130   22.0492 N   0  0  0  0  0  0
  -25.3638  -15.1960   20.4370 N   0  0  0  0  0  0
  -30.7277  -16.1632   20.4554 O   0  0  0  0  0  0
  -21.6624   -6.8801   21.4241 O   0  0  0  0  0  0
  -22.3203  -14.5483   20.6772 O   0  0  0  0  0  0
  -24.7619  -31.8120   23.2609 C   0  0  0  0  0  0
  -25.9891  -32.4950   23.8981 C   0  0  1  0  0  0
  -26.7735  -27.3782   19.9781 C   0  0  0  0  0  0
  -25.6233  -33.8696   24.2538 N   0  0  0  0  0  0
  -23.9211  -30.0808   21.7179 C   0  0  2  0  0  0
  -25.1673  -29.4496   19.7433 C   0  0  0  0  0  0
  -23.8158  -28.5005   22.4878 C   0  0  0  0  0  0
  -18.0971  -27.8601   22.8320 C   0  0  0  0  0  0
  -24.1494  -36.7262   23.2579 C   0  0  0  0  0  0
  -26.2863  -30.7617   21.5657 C   0  0  0  0  0  0
  -26.2727  -29.5885   20.5873 C   0  0  0  0  0  0
  -27.2219  -28.5665   20.5878 C   0  0  0  0  0  0
  -26.1316  -27.4437   18.7710 C   0  0  0  0  0  0
  -25.1557  -28.4649   18.7197 C   0  0  0  0  0  0
  -24.0589  -30.3251   20.1691 C   0  0  0  0  0  0
  -25.4085  -36.3104   24.0310 C   0  0  1  0  0  0
  -20.8020  -27.1726   22.8214 C   0  0  2  0  0  0
  -20.3641  -26.5403   21.6167 C   0  0  0  0  0  0
  -19.1300  -25.7762   21.7469 C   0  0  0  0  0  0
  -17.9170  -26.6108   22.0300 C   0  0  0  0  0  0
  -19.4066  -28.2255   23.2838 C   0  0  0  0  0  0
  -19.2947  -29.5483   23.9437 C   0  0  0  0  0  0
  -18.0851  -30.3177   24.0970 C   0  0  0  0  0  0
  -25.9080  -34.9476   23.5133 C   0  0  0  0  0  0
  -16.8516  -29.8342   23.6471 C   0  0  0  0  0  0
  -16.8844  -28.5839   23.0208 C   0  0  0  0  0  0
  -26.4972  -31.6862   25.1516 C   0  0  0  0  0  0
  -25.3862  -31.3851   26.1829 C   0  0  0  0  0  0
  -27.1424  -30.3369   24.7552 C   0  0  0  0  0  0
  -27.6111  -32.4986   25.8381 C   0  0  0  0  0  0
  -27.5567  -37.1774   24.8422 C   0  0  0  0  0  0
  -22.5776  -27.3332   22.4005 N   0  0  0  0  0  0
  -26.4228  -37.3807   23.9457 N   0  0  0  0  0  0
  -24.9869  -30.9020   22.2754 N   0  0  0  0  0  0
  -24.5748  -28.4545   23.4083 O   0  0  0  0  0  0
  -25.7072  -26.9647   20.7425 O   0  0  0  0  0  0
  -26.5551  -34.8841   22.4642 O   0  0  0  0  0  0
  -23.6365  -32.0799   23.7191 O   0  0  0  0  0  0
  -26.9147  -20.2304   22.3843 C   0  0  0  0  0  0
  -27.2426  -19.4215   20.1983 C   0  0  0  0  0  0
  -25.9782  -21.6733   22.1972 C   0  0  0  0  0  0
  -25.7568  -21.4964   20.7908 C   0  0  0  0  0  0
  -27.6254  -18.9428   21.4724 C   0  0  0  0  0  0
  -26.3905  -20.5363   19.9029 C   0  0  0  0  0  0
  -21.5461  -29.3727   22.2224 C   0  0  0  0  0  0
  -22.1842  -28.3822   24.3572 C   0  0  0  0  0  0
  -22.4061  -28.3443   20.3719 C   0  0  0  0  0  0
  -23.3573  -26.3564   24.3732 C   0  0  0  0  0  0
  -24.1923  -25.4537   21.5089 C   0  0  0  0  0  0
  -24.0298  -26.9028   20.4637 C   0  0  2  0  0  0
  -24.6964  -22.3707   20.1600 C   0  0  0  0  0  0
  -25.1112  -23.3521   23.1535 C   0  0  0  0  0  0
  -28.4671  -17.2256   21.4342 N   0  0  0  0  0  0
  -24.0865  -25.0395   23.0881 N   0  3  1  0  0  0
  -26.1109  -20.6996   18.2094 Cl  0  0  0  0  0  0
  -31.1735  -14.0021   19.4320 H   0  0  0  0  0  0
  -30.6501  -12.7101   20.4367 H   0  0  0  0  0  0
  -30.1872  -12.0644   18.0970 H   0  0  0  0  0  0
  -29.4609  -13.6150   17.7567 H   0  0  0  0  0  0
  -28.2884  -11.3430   19.3563 H   0  0  0  0  0  0
  -27.5670  -12.1625   17.9954 H   0  0  0  0  0  0
  -27.4092  -14.2137   19.2979 H   0  0  0  0  0  0
  -28.7782  -12.7136   21.5910 H   0  0  0  0  0  0
  -27.8012  -14.1296   21.8592 H   0  0  0  0  0  0
  -25.2668   -9.5699   22.4740 H   0  0  0  0  0  0
  -23.9971   -7.4613   22.7468 H   0  0  0  0  0  0
  -21.0762   -8.8664   19.8935 H   0  0  0  0  0  0
  -22.3576  -10.9575   19.6172 H   0  0  0  0  0  0
  -21.1988   -7.6129   23.9728 H   0  0  0  0  0  0
  -21.1465   -6.0500   25.9090 H   0  0  0  0  0  0
  -22.0604   -2.7574   23.2860 H   0  0  0  0  0  0
  -22.3778  -11.9804   22.4939 H   0  0  0  0  0  0
  -21.0774  -13.1158   22.2736 H   0  0  0  0  0  0
  -24.5867  -15.8386   20.5559 H   0  0  0  0  0  0
  -26.2135  -15.6523   20.1320 H   0  0  0  0  0  0
  -26.8201  -32.5597   23.1982 H   0  0  0  0  0  0
  -25.0591  -33.9841   25.0808 H   0  0  0  0  0  0
  -23.1824  -30.8300   21.8188 H   0  0  0  0  0  0
  -23.3792  -35.9552   23.3163 H   0  0  0  0  0  0
  -24.3626  -36.8925   22.2005 H   0  0  0  0  0  0
  -23.7121  -37.6448   23.6602 H   0  0  0  0  0  0
  -26.5036  -31.6781   21.0071 H   0  0  0  0  0  0
  -27.1304  -30.5966   22.2275 H   0  0  0  0  0  0
  -28.0181  -28.5513   21.3133 H   0  0  0  0  0  0
  -26.0816  -26.6050   18.0905 H   0  0  0  0  0  0
  -24.3712  -28.4473   17.9747 H   0  0  0  0  0  0
  -24.4265  -31.3469   19.9929 H   0  0  0  0  0  0
  -23.2022  -30.5049   19.5281 H   0  0  0  0  0  0
  -25.1207  -36.1967   25.0793 H   0  0  0  0  0  0
  -20.7906  -26.4049   23.5913 H   0  0  0  0  0  0
  -21.1079  -25.8805   21.1734 H   0  0  0  0  0  0
  -20.0591  -27.3098   20.9147 H   0  0  0  0  0  0
  -19.2605  -25.0584   22.5618 H   0  0  0  0  0  0
  -18.9694  -25.1697   20.8513 H   0  0  0  0  0  0
  -17.4918  -26.9137   21.0785 H   0  0  0  0  0  0
  -17.1628  -25.9782   22.4934 H   0  0  0  0  0  0
  -20.1860  -30.0232   24.3254 H   0  0  0  0  0  0
  -18.1332  -31.2917   24.5753 H   0  0  0  0  0  0
  -15.9362  -30.3947   23.7753 H   0  0  0  0  0  0
  -15.9527  -28.1749   22.6521 H   0  0  0  0  0  0
  -24.6494  -30.6739   25.8040 H   0  0  0  0  0  0
  -24.8542  -32.2929   26.4764 H   0  0  0  0  0  0
  -25.8039  -30.9554   27.0895 H   0  0  0  0  0  0
  -26.4705  -29.6778   24.2196 H   0  0  0  0  0  0
  -27.4539  -29.7885   25.6430 H   0  0  0  0  0  0
  -28.0487  -30.4774   24.1604 H   0  0  0  0  0  0
  -27.2326  -33.4141   26.2840 H   0  0  0  0  0  0
  -28.3991  -32.7748   25.1422 H   0  0  0  0  0  0
  -28.0781  -31.9325   26.6414 H   0  0  0  0  0  0
  -28.2454  -38.0210   24.7735 H   0  0  0  0  0  0
  -28.1216  -36.2753   24.5963 H   0  0  0  0  0  0
  -27.2355  -37.1093   25.8836 H   0  0  0  0  0  0
  -22.4559  -27.2961   21.3905 H   0  0  0  0  0  0
  -26.0120  -38.2868   24.1607 H   0  0  0  0  0  0
  -27.1155  -20.0942   23.4218 H   0  0  0  0  0  0
  -27.5778  -18.8350   19.3582 H   0  0  0  0  0  0
  -21.4356  -30.4387   22.3372 H   0  0  0  0  0  0
  -20.5575  -29.4133   21.7997 H   0  0  0  0  0  0
  -21.3439  -28.3003   25.0378 H   0  0  0  0  0  0
  -22.7773  -29.1226   24.8893 H   0  0  0  0  0  0
  -22.2940  -28.8600   19.4409 H   0  0  0  0  0  0
  -21.6693  -27.6718   19.9553 H   0  0  0  0  0  0
  -22.7572  -25.7355   25.0266 H   0  0  0  0  0  0
  -24.2259  -26.5589   25.0045 H   0  0  0  0  0  0
  -25.2498  -25.1346   21.4647 H   0  0  0  0  0  0
  -23.6683  -24.6707   20.9532 H   0  0  0  0  0  0
  -23.9113  -26.4030   19.5059 H   0  0  0  0  0  0
  -23.8707  -22.5624   20.8477 H   0  0  0  0  0  0
  -24.1703  -21.9226   19.3209 H   0  0  0  0  0  0
  -25.1352  -23.2974   19.8132 H   0  0  0  0  0  0
  -26.0273  -23.7829   23.5352 H   0  0  0  0  0  0
  -24.7044  -22.8881   24.0585 H   0  0  0  0  0  0
  -27.9039  -16.6653   22.0639 H   0  0  0  0  0  0
  -23.2024  -24.5695   23.0162 H   0  0  0  0  0  0
  1 25  1  0  0  0
  1 30  2  0  0  0
  1 85  1  0  0  0
  2  3  1  0  0  0
  2 25  1  0  0  0
  2 88  1  0  0  0
  2 89  1  0  0  0
  3  4  1  0  0  0
  3 90  1  0  0  0
  3 91  1  0  0  0
  4  5  1  0  0  0
  4 92  1  0  0  0
  4 93  1  0  0  0
  5  6  1  0  0  0
  5 26  1  0  0  0
  5 94  1  0  0  0
  6 25  1  0  0  0
  6 95  1  0  0  0
  6 96  1  0  0  0
  7  8  2  0  0  0
  7 26  1  0  0  0
  7 29  1  0  0  0
  8  9  1  0  0  0
  8 22  1  0  0  0
  9 10  1  0  0  0
  9 27  2  0  0  0
 10 11  2  0  0  0
 10 15  1  0  0  0
 11 12  1  0  0  0
 11 97  1  0  0  0
 12 13  2  0  0  0
 12 98  1  0  0  0
 13 14  1  0  0  0
 13 31  1  0  0  0
 14 15  2  0  0  0
 14 99  1  0  0  0
 15100  1  0  0  0
 16 17  2  0  0  0
 16 21  1  0  0  0
 16 31  1  0  0  0
 17 18  1  0  0  0
 17101  1  0  0  0
 18 19  2  0  0  0
 18102  1  0  0  0
 19 20  1  0  0  0
 19 24  1  0  0  0
 20 21  2  0  0  0
 20103  1  0  0  0
 21 23  1  0  0  0
 22 28  1  0  0  0
 22 32  2  0  0  0
 26 27  1  0  0  0
 28104  1  0  0  0
 28105  1  0  0  0
 29106  1  0  0  0
 29107  1  0  0  0
 33 34  1  0  0  0
 33 66  1  0  0  0
 33 70  2  0  0  0
 34 36  1  0  0  0
 34 59  1  0  0  0
 34108  1  0  0  0
 35 44  2  0  0  0
 35 45  1  0  0  0
 35 68  1  0  0  0
 36 56  1  0  0  0
 36109  1  0  0  0
 37 39  1  0  0  0
 37 47  1  0  0  0
 37 66  1  0  0  0
 37110  1  0  0  0
 38 43  2  0  0  0
 38 46  1  0  0  0
 38 47  1  0  0  0
 39 64  1  0  0  0
 39 67  2  0  0  0
 40 52  1  0  0  0
 40 53  2  0  0  0
 40 58  1  0  0  0
 41111  1  0  0  0
 41112  1  0  0  0
 41113  1  0  0  0
 41 48  1  0  0  0
 42 43  1  0  0  0
 42 66  1  0  0  0
 42114  1  0  0  0
 42115  1  0  0  0
 43 44  1  0  0  0
 44116  1  0  0  0
 45 46  2  0  0  0
 45117  1  0  0  0
 46118  1  0  0  0
 47119  1  0  0  0
 47120  1  0  0  0
 48 56  1  0  0  0
 48 65  1  0  0  0
 48121  1  0  0  0
 49 50  1  0  0  0
 49 53  1  0  0  0
 49 64  1  0  0  0
 49122  1  0  0  0
 50 51  1  0  0  0
 50123  1  0  0  0
 50124  1  0  0  0
 51 52  1  0  0  0
 51125  1  0  0  0
 51126  1  0  0  0
 52127  1  0  0  0
 52128  1  0  0  0
 53 54  1  0  0  0
 54 55  2  0  0  0
 54129  1  0  0  0
 55 57  1  0  0  0
 55130  1  0  0  0
 56 69  2  0  0  0
 57 58  2  0  0  0
 57131  1  0  0  0
 58132  1  0  0  0
 59 60  1  0  0  0
 59 61  1  0  0  0
 59 62  1  0  0  0
 60133  1  0  0  0
 60134  1  0  0  0
 60135  1  0  0  0
 61136  1  0  0  0
 61137  1  0  0  0
 61138  1  0  0  0
 62139  1  0  0  0
 62140  1  0  0  0
 62141  1  0  0  0
 63 65  1  0  0  0
 63142  1  0  0  0
 63143  1  0  0  0
 63144  1  0  0  0
 64145  1  0  0  0
 65146  1  0  0  0
 68 82  1  0  0  0
 71 73  2  0  0  0
 71 75  1  0  0  0
 71147  1  0  0  0
 72 75  2  0  0  0
 72 76  1  0  0  0
 72148  1  0  0  0
 73 74  1  0  0  0
 73 84  1  0  0  0
 74 76  2  0  0  0
 74 83  1  0  0  0
 75 85  1  0  0  0
 76 87  1  0  0  0
 77 78  1  0  0  0
 77 79  1  0  0  0
 77149  1  0  0  0
 77150  1  0  0  0
 78 80  1  0  0  0
 78151  1  0  0  0
 78152  1  0  0  0
 79 82  1  0  0  0
 79153  1  0  0  0
 79154  1  0  0  0
 80 86  1  0  0  0
 80155  1  0  0  0
 80156  1  0  0  0
 81 82  1  0  0  0
 81 86  1  0  0  0
 81157  1  0  0  0
 81158  1  0  0  0
 82159  1  0  0  0
 83160  1  0  0  0
 83161  1  0  0  0
 83162  1  0  0  0
 84163  1  0  0  0
 84164  1  0  0  0
 84 86  1  0  0  0
 85165  1  0  0  0
 86166  1  0  0  0
M  CHG  1  86   1
M  ISO  4   1 100  68 101  82 101  85 100
M  END
> <chiral flag>
0

> <version>
0

> <s_m_source_file>
/data/baiqing/PycharmProjects/Reinvent-master-3.2/result/LINK_invent/BTK/process_docking_weight1_custom_product_contain_oxygen_bond_distance_aromatic_linkinvent_7_9_3/rearranged_h_0037.sdf

> <i_m_source_file_index>
93

> <r_mmod_Potential_Energy-OPLS-2005>
14004.958984375

> <r_mmod_Stretch_Energy-OPLS-2005>
6244.07373046875

> <r_mmod_Bend_Energy-OPLS-2005>
1846.37963867188

> <r_mmod_Torsional_Energy-OPLS-2005>
608.539794921875

> <r_mmod_Improper_Torsional_Energy-OPLS-2005>
50.1921348571777

> <r_mmod_Van_der_Waal_Energy-OPLS-2005>
1992.34741210938

> <r_mmod_Electrostatic_Energy-OPLS-2005>
-243.710357666016

> <r_mmod_Solvation_Energy-OPLS-2005>
-416.646331787109

> <b_mmod_Minimization_Converged-OPLS-2005>
0

> <r_mmod_RMS_Derivative-OPLS-2005>
33.1915168762207

$$$$
93
                    3D
 Structure written by MMmdl.
159167  0  0  1  0            999 V2000
  -30.7153  -14.4503   20.6059 C   0  0  0  0  0  0
  -30.4265  -12.3121   19.4065 C   0  0  0  0  0  0
  -29.4917  -12.5111   18.1967 C   0  0  0  0  0  0
  -28.0137  -12.3695   18.6136 C   0  0  0  0  0  0
  -27.6628  -13.2043   19.8743 C   0  0  2  0  0  0
  -28.7055  -12.9736   20.9898 C   0  0  0  0  0  0
  -25.2605  -13.8157   20.5673 C   0  0  0  0  0  0
  -24.1847  -13.0439   20.9169 C   0  0  0  0  0  0
  -24.6399  -11.6906   20.8734 C   0  0  0  0  0  0
  -23.9063  -10.4293   21.0409 C   0  0  0  0  0  0
  -24.3615   -9.4209   21.9187 C   0  0  0  0  0  0
  -23.6289   -8.2242   22.0760 C   0  0  0  0  0  0
  -22.4271   -8.0284   21.3550 C   0  0  0  0  0  0
  -21.9903   -9.0258   20.4657 C   0  0  0  0  0  0
  -22.7231  -10.2136   20.3064 C   0  0  0  0  0  0
  -21.6853   -6.0737   22.5280 C   0  0  0  0  0  0
  -21.4015   -6.5643   23.8212 C   0  0  0  0  0  0
  -21.3656   -5.6796   24.9176 C   0  0  0  0  0  0
  -21.6041   -4.3059   24.7229 C   0  0  0  0  0  0
  -21.8820   -3.8151   23.4349 C   0  0  0  0  0  0
  -21.9194   -4.6965   22.3406 C   0  0  0  0  0  0
  -22.7874  -13.5247   21.1832 C   0  0  0  0  0  0
  -22.1662   -4.2152   21.0983 F   0  0  0  0  0  0
  -21.5625   -3.4541   25.7741 F   0  0  0  0  0  0
  -30.0350  -13.2857   20.4362 N   0  0  0  0  0  0
  -26.3036  -12.9317   20.3369 N   0  0  0  0  0  0
  -25.9327  -11.6479   20.5761 N   0  0  0  0  0  0
  -22.0509  -12.8247   22.0392 N   0  0  0  0  0  0
  -25.4344  -15.1873   20.4082 N   0  0  0  0  0  0
  -31.8379  -14.6466   20.1341 O   0  0  0  0  0  0
  -21.6641   -6.8879   21.4242 O   0  0  0  0  0  0
  -22.3563  -14.5553   20.6686 O   0  0  0  0  0  0
  -24.6138  -31.8690   23.2117 C   0  0  0  0  0  0
  -25.9032  -32.4840   23.8417 C   0  0  1  0  0  0
  -27.2427  -27.4481   20.0997 C   0  0  0  0  0  0
  -25.5890  -33.8642   24.2339 N   0  0  0  0  0  0
  -23.4034  -30.4920   21.5498 C   0  0  2  0  0  0
  -24.8544  -28.9572   20.1178 C   0  0  0  0  0  0
  -22.7401  -29.4674   22.4990 C   0  0  0  0  0  0
  -18.0264  -28.1387   22.8491 C   0  0  0  0  0  0
  -24.1488  -36.7326   23.2637 C   0  0  0  0  0  0
  -25.9300  -30.8360   21.3659 C   0  0  0  0  0  0
  -26.0103  -29.4672   20.7242 C   0  0  0  0  0  0
  -27.2072  -28.7149   20.7265 C   0  0  0  0  0  0
  -26.0785  -26.9545   19.4801 C   0  0  0  0  0  0
  -24.8817  -27.6961   19.4960 C   0  0  0  0  0  0
  -23.6138  -29.8206   20.1656 C   0  0  0  0  0  0
  -25.4101  -36.3128   24.0347 C   0  0  1  0  0  0
  -20.5854  -28.3673   23.1326 C   0  0  2  0  0  0
  -20.6753  -26.9401   22.5449 C   0  0  0  0  0  0
  -19.5744  -26.6380   21.5234 C   0  0  0  0  0  0
  -18.1910  -26.7934   22.1613 C   0  0  0  0  0  0
  -19.1512  -28.8836   23.2911 C   0  0  0  0  0  0
  -18.9448  -30.1434   23.8936 C   0  0  0  0  0  0
  -17.6457  -30.6593   24.0569 C   0  0  0  0  0  0
  -25.9036  -34.9493   23.5138 C   0  0  0  0  0  0
  -16.5344  -29.9106   23.6328 C   0  0  0  0  0  0
  -16.7255  -28.6519   23.0351 C   0  0  0  0  0  0
  -26.4468  -31.6617   25.0740 C   0  0  0  0  0  0
  -25.3740  -31.3745   26.1499 C   0  0  0  0  0  0
  -27.0268  -30.3049   24.6101 C   0  0  0  0  0  0
  -27.6074  -32.4324   25.7461 C   0  0  0  0  0  0
  -27.5589  -37.1790   24.8451 C   0  0  0  0  0  0
  -21.4130  -29.3041   22.3721 N   0  0  0  0  0  0
  -26.4288  -37.3808   23.9429 N   0  0  0  0  0  0
  -24.6669  -31.0806   22.1009 N   0  0  0  0  0  0
  -23.4167  -28.8223   23.3044 O   0  0  0  0  0  0
  -28.3779  -26.6748   20.0371 O   0  0  0  0  0  0
  -26.5598  -34.8941   22.4701 O   0  0  0  0  0  0
  -23.5330  -32.1428   23.7513 O   0  0  0  0  0  0
  -30.8307  -17.7977   19.3504 C   0  0  0  0  0  0
  -30.6848  -18.8773   18.4607 C   0  0  0  0  0  0
  -29.6522  -19.0647   21.0605 C   0  0  0  0  0  0
  -30.3218  -17.8815   20.6618 C   0  0  0  0  0  0
  -30.0202  -20.0575   18.8579 C   0  0  0  0  0  0
  -29.4905  -20.1593   20.1718 C   0  0  0  0  0  0
  -29.4638  -22.6812   20.8655 C   0  0  0  0  0  0
  -29.8839  -21.1880   17.8499 C   0  0  0  0  0  0
  -28.6856  -21.3881   20.6258 C   0  0  0  0  0  0
  -30.5457  -16.7357   21.6553 C   0  0  0  0  0  0
  -29.7608  -24.9871   21.1549 C   0  0  0  0  0  0
  -28.9380  -26.2933   21.2931 C   0  0  0  0  0  0
  -28.9098  -23.8345   20.8735 N   0  0  0  0  0  0
  -30.0413  -15.4192   21.2472 N   0  0  0  0  0  0
  -31.4684  -12.4226   19.1006 H   0  0  0  0  0  0
  -30.3391  -11.2978   19.7993 H   0  0  0  0  0  0
  -29.7300  -11.7882   17.4155 H   0  0  0  0  0  0
  -29.6570  -13.4980   17.7611 H   0  0  0  0  0  0
  -27.8231  -11.3126   18.8039 H   0  0  0  0  0  0
  -27.3617  -12.6503   17.7856 H   0  0  0  0  0  0
  -27.7104  -14.2545   19.5852 H   0  0  0  0  0  0
  -28.6859  -11.9335   21.3175 H   0  0  0  0  0  0
  -28.4644  -13.5584   21.8782 H   0  0  0  0  0  0
  -25.2761   -9.5684   22.4757 H   0  0  0  0  0  0
  -24.0004   -7.4635   22.7476 H   0  0  0  0  0  0
  -21.0830   -8.8777   19.8965 H   0  0  0  0  0  0
  -22.3689  -10.9678   19.6175 H   0  0  0  0  0  0
  -21.2009   -7.6151   23.9717 H   0  0  0  0  0  0
  -21.1473   -6.0528   25.9077 H   0  0  0  0  0  0
  -22.0603   -2.7612   23.2851 H   0  0  0  0  0  0
  -22.4110  -11.9907   22.4788 H   0  0  0  0  0  0
  -21.1135  -13.1291   22.2601 H   0  0  0  0  0  0
  -24.6708  -15.8463   20.5145 H   0  0  0  0  0  0
  -26.2923  -15.6237   20.0928 H   0  0  0  0  0  0
  -26.7103  -32.5563   23.1186 H   0  0  0  0  0  0
  -25.0046  -33.9809   25.0484 H   0  0  0  0  0  0
  -22.6926  -31.3082   21.4052 H   0  0  0  0  0  0
  -23.3771  -35.9639   23.3290 H   0  0  0  0  0  0
  -24.3590  -36.8957   22.2057 H   0  0  0  0  0  0
  -23.7225  -37.6522   23.6653 H   0  0  0  0  0  0
  -26.0368  -31.5947   20.5900 H   0  0  0  0  0  0
  -26.8200  -30.8979   21.9802 H   0  0  0  0  0  0
  -28.1002  -29.1071   21.1917 H   0  0  0  0  0  0
  -26.1023  -25.9901   18.9921 H   0  0  0  0  0  0
  -23.9962  -27.2980   19.0212 H   0  0  0  0  0  0
  -23.7166  -30.5925   19.4023 H   0  0  0  0  0  0
  -22.7399  -29.2362   19.8738 H   0  0  0  0  0  0
  -25.1267  -36.1994   25.0837 H   0  0  0  0  0  0
  -20.9938  -28.3253   24.1445 H   0  0  0  0  0  0
  -20.5670  -26.2278   23.3642 H   0  0  0  0  0  0
  -21.6617  -26.7454   22.1223 H   0  0  0  0  0  0
  -19.6923  -25.6304   21.1237 H   0  0  0  0  0  0
  -19.6704  -27.3210   20.6787 H   0  0  0  0  0  0
  -17.4190  -26.6720   21.3995 H   0  0  0  0  0  0
  -18.0279  -26.0071   22.8994 H   0  0  0  0  0  0
  -19.7933  -30.7225   24.2335 H   0  0  0  0  0  0
  -17.5022  -31.6274   24.5166 H   0  0  0  0  0  0
  -15.5354  -30.3018   23.7638 H   0  0  0  0  0  0
  -15.8647  -28.0847   22.7062 H   0  0  0  0  0  0
  -24.5923  -30.7058   25.7868 H   0  0  0  0  0  0
  -24.8899  -32.2902   26.4903 H   0  0  0  0  0  0
  -25.8087  -30.8969   27.0284 H   0  0  0  0  0  0
  -26.2777  -29.6836   24.1172 H   0  0  0  0  0  0
  -27.4054  -29.7274   25.4546 H   0  0  0  0  0  0
  -27.8617  -30.4375   23.9222 H   0  0  0  0  0  0
  -27.2722  -33.3621   26.2074 H   0  0  0  0  0  0
  -28.3829  -32.6900   25.0236 H   0  0  0  0  0  0
  -28.0796  -31.8432   26.5327 H   0  0  0  0  0  0
  -28.2589  -38.0104   24.7525 H   0  0  0  0  0  0
  -28.1093  -36.2639   24.6207 H   0  0  0  0  0  0
  -27.2317  -37.1361   25.8855 H   0  0  0  0  0  0
  -20.9289  -29.8772   21.6948 H   0  0  0  0  0  0
  -26.0194  -38.2889   24.1461 H   0  0  0  0  0  0
  -31.3542  -16.9119   19.0214 H   0  0  0  0  0  0
  -31.0901  -18.7903   17.4611 H   0  0  0  0  0  0
  -29.2521  -19.1313   22.0633 H   0  0  0  0  0  0
  -30.5348  -22.5422   21.0424 H   0  0  0  0  0  0
  -30.2852  -20.9028   16.8765 H   0  0  0  0  0  0
  -30.4334  -22.0690   18.1816 H   0  0  0  0  0  0
  -28.8393  -21.4636   17.7052 H   0  0  0  0  0  0
  -28.1574  -21.1444   21.5481 H   0  0  0  0  0  0
  -27.9049  -21.5805   19.8893 H   0  0  0  0  0  0
  -30.0675  -16.9875   22.6025 H   0  0  0  0  0  0
  -31.6130  -16.6718   21.8752 H   0  0  0  0  0  0
  -30.3098  -24.8334   22.0871 H   0  0  0  0  0  0
  -30.5137  -25.1143   20.3734 H   0  0  0  0  0  0
  -29.5865  -27.0970   21.6441 H   0  0  0  0  0  0
  -28.1601  -26.1669   22.0497 H   0  0  0  0  0  0
  -29.1102  -15.1823   21.5536 H   0  0  0  0  0  0
  1 25  1  0  0  0
  1 30  2  0  0  0
  1 84  1  0  0  0
  2  3  1  0  0  0
  2 25  1  0  0  0
  2 85  1  0  0  0
  2 86  1  0  0  0
  3  4  1  0  0  0
  3 87  1  0  0  0
  3 88  1  0  0  0
  4  5  1  0  0  0
  4 89  1  0  0  0
  4 90  1  0  0  0
  5  6  1  0  0  0
  5 26  1  0  0  0
  5 91  1  0  0  0
  6 25  1  0  0  0
  6 92  1  0  0  0
  6 93  1  0  0  0
  7  8  2  0  0  0
  7 26  1  0  0  0
  7 29  1  0  0  0
  8  9  1  0  0  0
  8 22  1  0  0  0
  9 10  1  0  0  0
  9 27  2  0  0  0
 10 11  2  0  0  0
 10 15  1  0  0  0
 11 12  1  0  0  0
 11 94  1  0  0  0
 12 13  2  0  0  0
 12 95  1  0  0  0
 13 14  1  0  0  0
 13 31  1  0  0  0
 14 15  2  0  0  0
 14 96  1  0  0  0
 15 97  1  0  0  0
 16 17  2  0  0  0
 16 21  1  0  0  0
 16 31  1  0  0  0
 17 18  1  0  0  0
 17 98  1  0  0  0
 18 19  2  0  0  0
 18 99  1  0  0  0
 19 20  1  0  0  0
 19 24  1  0  0  0
 20 21  2  0  0  0
 20100  1  0  0  0
 21 23  1  0  0  0
 22 28  1  0  0  0
 22 32  2  0  0  0
 26 27  1  0  0  0
 28101  1  0  0  0
 28102  1  0  0  0
 29103  1  0  0  0
 29104  1  0  0  0
 33 34  1  0  0  0
 33 66  1  0  0  0
 33 70  2  0  0  0
 34 36  1  0  0  0
 34 59  1  0  0  0
 34105  1  0  0  0
 35 44  2  0  0  0
 35 45  1  0  0  0
 35 68  1  0  0  0
 36 56  1  0  0  0
 36106  1  0  0  0
 37 39  1  0  0  0
 37 47  1  0  0  0
 37 66  1  0  0  0
 37107  1  0  0  0
 38 43  2  0  0  0
 38 46  1  0  0  0
 38 47  1  0  0  0
 39 64  1  0  0  0
 39 67  2  0  0  0
 40 52  1  0  0  0
 40 53  2  0  0  0
 40 58  1  0  0  0
 41108  1  0  0  0
 41109  1  0  0  0
 41110  1  0  0  0
 41 48  1  0  0  0
 42 43  1  0  0  0
 42 66  1  0  0  0
 42111  1  0  0  0
 42112  1  0  0  0
 43 44  1  0  0  0
 44113  1  0  0  0
 45 46  2  0  0  0
 45114  1  0  0  0
 46115  1  0  0  0
 47116  1  0  0  0
 47117  1  0  0  0
 48 56  1  0  0  0
 48 65  1  0  0  0
 48118  1  0  0  0
 49 50  1  0  0  0
 49 53  1  0  0  0
 49 64  1  0  0  0
 49119  1  0  0  0
 50 51  1  0  0  0
 50120  1  0  0  0
 50121  1  0  0  0
 51 52  1  0  0  0
 51122  1  0  0  0
 51123  1  0  0  0
 52124  1  0  0  0
 52125  1  0  0  0
 53 54  1  0  0  0
 54 55  2  0  0  0
 54126  1  0  0  0
 55 57  1  0  0  0
 55127  1  0  0  0
 56 69  2  0  0  0
 57 58  2  0  0  0
 57128  1  0  0  0
 58129  1  0  0  0
 59 60  1  0  0  0
 59 61  1  0  0  0
 59 62  1  0  0  0
 60130  1  0  0  0
 60131  1  0  0  0
 60132  1  0  0  0
 61133  1  0  0  0
 61134  1  0  0  0
 61135  1  0  0  0
 62136  1  0  0  0
 62137  1  0  0  0
 62138  1  0  0  0
 63 65  1  0  0  0
 63139  1  0  0  0
 63140  1  0  0  0
 63141  1  0  0  0
 64142  1  0  0  0
 65143  1  0  0  0
 68 82  1  0  0  0
 71 72  2  0  0  0
 71 74  1  0  0  0
 71144  1  0  0  0
 72 75  1  0  0  0
 72145  1  0  0  0
 73 74  2  0  0  0
 73 76  1  0  0  0
 73146  1  0  0  0
 74 80  1  0  0  0
 75 76  2  0  0  0
 75 78  1  0  0  0
 76 79  1  0  0  0
 77 79  1  0  0  0
 77 83  2  0  0  0
 77147  1  0  0  0
 78148  1  0  0  0
 78149  1  0  0  0
 78150  1  0  0  0
 79151  1  0  0  0
 79152  1  0  0  0
 80 84  1  0  0  0
 80153  1  0  0  0
 80154  1  0  0  0
 81 82  1  0  0  0
 81 83  1  0  0  0
 81155  1  0  0  0
 81156  1  0  0  0
 82157  1  0  0  0
 82158  1  0  0  0
 84159  1  0  0  0
M  ISO  4   1 100  68 101  82 101  84 100
M  END
> <chiral flag>
0

> <version>
0

> <s_m_source_file>
/data/baiqing/PycharmProjects/Reinvent-master-3.2/result/LINK_invent/BTK/process_docking_weight1_custom_product_contain_oxygen_bond_distance_aromatic_linkinvent_7_9_3/rearranged_h_0037.sdf

> <i_m_source_file_index>
94

> <r_mmod_Potential_Energy-OPLS-2005>
-96.7331619262695

> <r_mmod_Stretch_Energy-OPLS-2005>
36.8776054382324

> <r_mmod_Bend_Energy-OPLS-2005>
91.1647720336914

> <r_mmod_Torsional_Energy-OPLS-2005>
215.439239501953

> <r_mmod_Improper_Torsional_Energy-OPLS-2005>
2.56154727935791

> <r_mmod_Van_der_Waal_Energy-OPLS-2005>
148.302230834961

> <r_mmod_Electrostatic_Energy-OPLS-2005>
-380.937622070312

> <r_mmod_Solvation_Energy-OPLS-2005>
-220.738250732422

> <b_mmod_Minimization_Converged-OPLS-2005>
0

> <r_mmod_RMS_Derivative-OPLS-2005>
1.58074510097504

$$$$
94
                    3D
 Structure written by MMmdl.
159167  0  0  1  0            999 V2000
  -30.7512  -14.3748   20.6912 C   0  0  0  0  0  0
  -30.4229  -12.2944   19.3989 C   0  0  0  0  0  0
  -29.4911  -12.5325   18.1960 C   0  0  0  0  0  0
  -28.0117  -12.3910   18.6032 C   0  0  0  0  0  0
  -27.6675  -13.2040   19.8788 C   0  0  2  0  0  0
  -28.7027  -12.9321   20.9927 C   0  0  0  0  0  0
  -25.2615  -13.8171   20.5681 C   0  0  0  0  0  0
  -24.1856  -13.0449   20.9163 C   0  0  0  0  0  0
  -24.6401  -11.6913   20.8714 C   0  0  0  0  0  0
  -23.9051  -10.4305   21.0379 C   0  0  0  0  0  0
  -24.3599   -9.4218   21.9156 C   0  0  0  0  0  0
  -23.6285   -8.2249   22.0733 C   0  0  0  0  0  0
  -22.4264   -8.0280   21.3536 C   0  0  0  0  0  0
  -21.9898   -9.0245   20.4631 C   0  0  0  0  0  0
  -22.7219  -10.2133   20.3036 C   0  0  0  0  0  0
  -21.6858   -6.0729   22.5276 C   0  0  0  0  0  0
  -21.4017   -6.5632   23.8209 C   0  0  0  0  0  0
  -21.3661   -5.6782   24.9171 C   0  0  0  0  0  0
  -21.6053   -4.3049   24.7222 C   0  0  0  0  0  0
  -21.8815   -3.8137   23.4342 C   0  0  0  0  0  0
  -21.9195   -4.6956   22.3403 C   0  0  0  0  0  0
  -22.7873  -13.5234   21.1820 C   0  0  0  0  0  0
  -22.1665   -4.2148   21.0983 F   0  0  0  0  0  0
  -21.5623   -3.4532   25.7734 F   0  0  0  0  0  0
  -30.0465  -13.2354   20.4645 N   0  0  0  0  0  0
  -26.3045  -12.9324   20.3349 N   0  0  0  0  0  0
  -25.9317  -11.6477   20.5701 N   0  0  0  0  0  0
  -22.0506  -12.8258   22.0396 N   0  0  0  0  0  0
  -25.4360  -15.1891   20.4125 N   0  0  0  0  0  0
  -31.7861  -14.6655   20.0846 O   0  0  0  0  0  0
  -21.6639   -6.8870   21.4235 O   0  0  0  0  0  0
  -22.3562  -14.5527   20.6650 O   0  0  0  0  0  0
  -24.6128  -31.8700   23.2110 C   0  0  0  0  0  0
  -25.9027  -32.4834   23.8398 C   0  0  1  0  0  0
  -27.2398  -27.4603   20.0934 C   0  0  0  0  0  0
  -25.5902  -33.8626   24.2345 N   0  0  0  0  0  0
  -23.3972  -30.4946   21.5504 C   0  0  2  0  0  0
  -24.8426  -28.9561   20.1208 C   0  0  0  0  0  0
  -22.7390  -29.4694   22.5005 C   0  0  0  0  0  0
  -18.0271  -28.1384   22.8508 C   0  0  0  0  0  0
  -24.1486  -36.7314   23.2637 C   0  0  0  0  0  0
  -25.9219  -30.8447   21.3553 C   0  0  0  0  0  0
  -25.9999  -29.4774   20.7113 C   0  0  0  0  0  0
  -27.1990  -28.7375   20.6909 C   0  0  0  0  0  0
  -26.0641  -26.9433   19.5000 C   0  0  0  0  0  0
  -24.8684  -27.6878   19.5159 C   0  0  0  0  0  0
  -23.6043  -29.8222   20.1665 C   0  0  0  0  0  0
  -25.4108  -36.3116   24.0341 C   0  0  1  0  0  0
  -20.5864  -28.3660   23.1336 C   0  0  2  0  0  0
  -20.6768  -26.9400   22.5420 C   0  0  0  0  0  0
  -19.5735  -26.6393   21.5222 C   0  0  0  0  0  0
  -18.1913  -26.7943   22.1630 C   0  0  0  0  0  0
  -19.1514  -28.8838   23.2929 C   0  0  0  0  0  0
  -18.9451  -30.1454   23.8920 C   0  0  0  0  0  0
  -17.6450  -30.6591   24.0577 C   0  0  0  0  0  0
  -25.9026  -34.9478   23.5128 C   0  0  0  0  0  0
  -16.5347  -29.9091   23.6329 C   0  0  0  0  0  0
  -16.7259  -28.6515   23.0347 C   0  0  0  0  0  0
  -26.4483  -31.6597   25.0703 C   0  0  0  0  0  0
  -25.3762  -31.3675   26.1454 C   0  0  0  0  0  0
  -27.0311  -30.3061   24.6028 C   0  0  0  0  0  0
  -27.6086  -32.4293   25.7455 C   0  0  0  0  0  0
  -27.5584  -37.1812   24.8472 C   0  0  0  0  0  0
  -21.4117  -29.3042   22.3739 N   0  0  0  0  0  0
  -26.4295  -37.3801   23.9404 N   0  0  0  0  0  0
  -24.6628  -31.0832   22.0986 N   0  0  0  0  0  0
  -23.4190  -28.8227   23.3009 O   0  0  0  0  0  0
  -28.4458  -26.7978   20.0851 O   0  0  0  0  0  0
  -26.5575  -34.8929   22.4687 O   0  0  0  0  0  0
  -23.5328  -32.1431   23.7538 O   0  0  0  0  0  0
  -28.3795  -18.6826   20.0118 C   0  0  0  0  0  0
  -28.5923  -19.9460   20.5897 C   0  0  0  0  0  0
  -29.0785  -17.5620   20.4913 C   0  0  0  0  0  0
  -29.5034  -20.1067   21.6595 C   0  0  0  0  0  0
  -29.9954  -17.6909   21.5592 C   0  0  0  0  0  0
  -30.2112  -18.9712   22.1361 C   0  0  0  0  0  0
  -29.0850  -23.7018   21.9377 C   0  0  0  0  0  0
  -29.7529  -21.4886   22.2762 C   0  0  0  0  0  0
  -30.7600  -16.4691   22.0792 C   0  0  0  0  0  0
  -28.4786  -25.3697   20.1233 C   0  0  0  0  0  0
  -28.1523  -24.8347   21.5416 C   0  0  1  0  0  0
  -28.7503  -22.4741   21.8841 N   0  0  0  0  0  0
  -30.2379  -15.1723   21.6391 N   0  0  0  0  0  0
  -26.7525  -24.3663   21.6612 N   0  3  0  0  0  0
  -31.3605  -19.1521   23.4212 Cl  0  0  0  0  0  0
  -31.4650  -12.4046   19.0942 H   0  0  0  0  0  0
  -30.3275  -11.2678   19.7546 H   0  0  0  0  0  0
  -29.7271  -11.8322   17.3936 H   0  0  0  0  0  0
  -29.6654  -13.5312   17.7926 H   0  0  0  0  0  0
  -27.8088  -11.3327   18.7687 H   0  0  0  0  0  0
  -27.3658  -12.6959   17.7787 H   0  0  0  0  0  0
  -27.7284  -14.2603   19.6129 H   0  0  0  0  0  0
  -28.6658  -11.8825   21.2885 H   0  0  0  0  0  0
  -28.4428  -13.4871   21.8933 H   0  0  0  0  0  0
  -25.2739   -9.5710   22.4728 H   0  0  0  0  0  0
  -24.0002   -7.4648   22.7458 H   0  0  0  0  0  0
  -21.0817   -8.8746   19.8957 H   0  0  0  0  0  0
  -22.3645  -10.9655   19.6145 H   0  0  0  0  0  0
  -21.2009   -7.6141   23.9718 H   0  0  0  0  0  0
  -21.1492   -6.0512   25.9079 H   0  0  0  0  0  0
  -22.0596   -2.7600   23.2841 H   0  0  0  0  0  0
  -22.4090  -11.9930   22.4833 H   0  0  0  0  0  0
  -21.1110  -13.1282   22.2533 H   0  0  0  0  0  0
  -24.6727  -15.8465   20.5314 H   0  0  0  0  0  0
  -26.2983  -15.6313   20.1188 H   0  0  0  0  0  0
  -26.7100  -32.5552   23.1162 H   0  0  0  0  0  0
  -25.0123  -33.9798   25.0545 H   0  0  0  0  0  0
  -22.6857  -31.3121   21.4134 H   0  0  0  0  0  0
  -23.3748  -35.9646   23.3318 H   0  0  0  0  0  0
  -24.3596  -36.8895   22.2047 H   0  0  0  0  0  0
  -23.7237  -37.6528   23.6636 H   0  0  0  0  0  0
  -26.0186  -31.6051   20.5786 H   0  0  0  0  0  0
  -26.8169  -30.9103   21.9631 H   0  0  0  0  0  0
  -28.0953  -29.1469   21.1383 H   0  0  0  0  0  0
  -26.0515  -25.9872   18.9979 H   0  0  0  0  0  0
  -23.9774  -27.2855   19.0542 H   0  0  0  0  0  0
  -23.7084  -30.5945   19.4028 H   0  0  0  0  0  0
  -22.7283  -29.2398   19.8731 H   0  0  0  0  0  0
  -25.1288  -36.1983   25.0836 H   0  0  0  0  0  0
  -20.9979  -28.3213   24.1449 H   0  0  0  0  0  0
  -20.5686  -26.2262   23.3602 H   0  0  0  0  0  0
  -21.6639  -26.7451   22.1201 H   0  0  0  0  0  0
  -19.6883  -25.6307   21.1226 H   0  0  0  0  0  0
  -19.6675  -27.3228   20.6772 H   0  0  0  0  0  0
  -17.4202  -26.6715   21.4015 H   0  0  0  0  0  0
  -18.0298  -26.0081   22.9011 H   0  0  0  0  0  0
  -19.7919  -30.7276   24.2298 H   0  0  0  0  0  0
  -17.4995  -31.6270   24.5166 H   0  0  0  0  0  0
  -15.5342  -30.2992   23.7646 H   0  0  0  0  0  0
  -15.8673  -28.0836   22.7039 H   0  0  0  0  0  0
  -24.5959  -30.7000   25.7782 H   0  0  0  0  0  0
  -24.8933  -32.2818   26.4908 H   0  0  0  0  0  0
  -25.8127  -30.8843   27.0202 H   0  0  0  0  0  0
  -26.2825  -29.6800   24.1163 H   0  0  0  0  0  0
  -27.4214  -29.7310   25.4432 H   0  0  0  0  0  0
  -27.8596  -30.4422   23.9074 H   0  0  0  0  0  0
  -27.2751  -33.3601   26.2055 H   0  0  0  0  0  0
  -28.3890  -32.6819   25.0262 H   0  0  0  0  0  0
  -28.0764  -31.8387   26.5341 H   0  0  0  0  0  0
  -28.2622  -38.0093   24.7524 H   0  0  0  0  0  0
  -28.1060  -36.2630   24.6301 H   0  0  0  0  0  0
  -27.2305  -37.1464   25.8877 H   0  0  0  0  0  0
  -20.9262  -29.8772   21.6978 H   0  0  0  0  0  0
  -26.0184  -38.2875   24.1421 H   0  0  0  0  0  0
  -27.6815  -18.5755   19.1922 H   0  0  0  0  0  0
  -28.0504  -20.7906   20.1899 H   0  0  0  0  0  0
  -28.9056  -16.6063   20.0200 H   0  0  0  0  0  0
  -30.0739  -24.0296   22.2708 H   0  0  0  0  0  0
  -30.7643  -21.7965   21.9975 H   0  0  0  0  0  0
  -29.7476  -21.3900   23.3636 H   0  0  0  0  0  0
  -30.7177  -16.4714   23.1694 H   0  0  0  0  0  0
  -31.8141  -16.5749   21.8182 H   0  0  0  0  0  0
  -27.8800  -24.8983   19.3449 H   0  0  0  0  0  0
  -29.5074  -25.1150   19.8636 H   0  0  0  0  0  0
  -28.3071  -25.6366   22.2648 H   0  0  0  0  0  0
  -29.4010  -14.8476   22.0977 H   0  0  0  0  0  0
  -26.6079  -23.5878   21.0407 H   0  0  0  0  0  0
  -26.0834  -25.0907   21.4716 H   0  0  0  0  0  0
  -26.6050  -24.0187   22.5927 H   0  0  0  0  0  0
  1 25  1  0  0  0
  1 30  2  0  0  0
  1 83  1  0  0  0
  2  3  1  0  0  0
  2 25  1  0  0  0
  2 86  1  0  0  0
  2 87  1  0  0  0
  3  4  1  0  0  0
  3 88  1  0  0  0
  3 89  1  0  0  0
  4  5  1  0  0  0
  4 90  1  0  0  0
  4 91  1  0  0  0
  5  6  1  0  0  0
  5 26  1  0  0  0
  5 92  1  0  0  0
  6 25  1  0  0  0
  6 93  1  0  0  0
  6 94  1  0  0  0
  7  8  2  0  0  0
  7 26  1  0  0  0
  7 29  1  0  0  0
  8  9  1  0  0  0
  8 22  1  0  0  0
  9 10  1  0  0  0
  9 27  2  0  0  0
 10 11  2  0  0  0
 10 15  1  0  0  0
 11 12  1  0  0  0
 11 95  1  0  0  0
 12 13  2  0  0  0
 12 96  1  0  0  0
 13 14  1  0  0  0
 13 31  1  0  0  0
 14 15  2  0  0  0
 14 97  1  0  0  0
 15 98  1  0  0  0
 16 17  2  0  0  0
 16 21  1  0  0  0
 16 31  1  0  0  0
 17 18  1  0  0  0
 17 99  1  0  0  0
 18 19  2  0  0  0
 18100  1  0  0  0
 19 20  1  0  0  0
 19 24  1  0  0  0
 20 21  2  0  0  0
 20101  1  0  0  0
 21 23  1  0  0  0
 22 28  1  0  0  0
 22 32  2  0  0  0
 26 27  1  0  0  0
 28102  1  0  0  0
 28103  1  0  0  0
 29104  1  0  0  0
 29105  1  0  0  0
 33 34  1  0  0  0
 33 66  1  0  0  0
 33 70  2  0  0  0
 34 36  1  0  0  0
 34 59  1  0  0  0
 34106  1  0  0  0
 35 44  2  0  0  0
 35 45  1  0  0  0
 35 68  1  0  0  0
 36 56  1  0  0  0
 36107  1  0  0  0
 37 39  1  0  0  0
 37 47  1  0  0  0
 37 66  1  0  0  0
 37108  1  0  0  0
 38 43  2  0  0  0
 38 46  1  0  0  0
 38 47  1  0  0  0
 39 64  1  0  0  0
 39 67  2  0  0  0
 40 52  1  0  0  0
 40 53  2  0  0  0
 40 58  1  0  0  0
 41109  1  0  0  0
 41110  1  0  0  0
 41111  1  0  0  0
 41 48  1  0  0  0
 42 43  1  0  0  0
 42 66  1  0  0  0
 42112  1  0  0  0
 42113  1  0  0  0
 43 44  1  0  0  0
 44114  1  0  0  0
 45 46  2  0  0  0
 45115  1  0  0  0
 46116  1  0  0  0
 47117  1  0  0  0
 47118  1  0  0  0
 48 56  1  0  0  0
 48 65  1  0  0  0
 48119  1  0  0  0
 49 50  1  0  0  0
 49 53  1  0  0  0
 49 64  1  0  0  0
 49120  1  0  0  0
 50 51  1  0  0  0
 50121  1  0  0  0
 50122  1  0  0  0
 51 52  1  0  0  0
 51123  1  0  0  0
 51124  1  0  0  0
 52125  1  0  0  0
 52126  1  0  0  0
 53 54  1  0  0  0
 54 55  2  0  0  0
 54127  1  0  0  0
 55 57  1  0  0  0
 55128  1  0  0  0
 56 69  2  0  0  0
 57 58  2  0  0  0
 57129  1  0  0  0
 58130  1  0  0  0
 59 60  1  0  0  0
 59 61  1  0  0  0
 59 62  1  0  0  0
 60131  1  0  0  0
 60132  1  0  0  0
 60133  1  0  0  0
 61134  1  0  0  0
 61135  1  0  0  0
 61136  1  0  0  0
 62137  1  0  0  0
 62138  1  0  0  0
 62139  1  0  0  0
 63 65  1  0  0  0
 63140  1  0  0  0
 63141  1  0  0  0
 63142  1  0  0  0
 64143  1  0  0  0
 65144  1  0  0  0
 68 80  1  0  0  0
 71 72  2  0  0  0
 71 73  1  0  0  0
 71145  1  0  0  0
 72 74  1  0  0  0
 72146  1  0  0  0
 73 75  2  0  0  0
 73147  1  0  0  0
 74 76  2  0  0  0
 74 78  1  0  0  0
 75 76  1  0  0  0
 75 79  1  0  0  0
 76 85  1  0  0  0
 77 81  1  0  0  0
 77 82  2  0  0  0
 77148  1  0  0  0
 78 82  1  0  0  0
 78149  1  0  0  0
 78150  1  0  0  0
 79 83  1  0  0  0
 79151  1  0  0  0
 79152  1  0  0  0
 80 81  1  0  0  0
 80153  1  0  0  0
 80154  1  0  0  0
 81 84  1  0  0  0
 81155  1  0  0  0
 83156  1  0  0  0
 84157  1  0  0  0
 84158  1  0  0  0
 84159  1  0  0  0
M  CHG  1  84   1
M  ISO  4   1 100  68 101  80 101  83 100
M  END
> <chiral flag>
0

> <version>
0

> <s_m_source_file>
/data/baiqing/PycharmProjects/Reinvent-master-3.2/result/LINK_invent/BTK/process_docking_weight1_custom_product_contain_oxygen_bond_distance_aromatic_linkinvent_7_9_3/rearranged_h_0037.sdf

> <i_m_source_file_index>
95

> <r_mmod_Potential_Energy-OPLS-2005>
-393.892395019531

> <r_mmod_Stretch_Energy-OPLS-2005>
36.0738830566406

> <r_mmod_Bend_Energy-OPLS-2005>
97.2389755249023

> <r_mmod_Torsional_Energy-OPLS-2005>
189.897552490234

> <r_mmod_Improper_Torsional_Energy-OPLS-2005>
1.7859274148941

> <r_mmod_Van_der_Waal_Energy-OPLS-2005>
168.658966064453

> <r_mmod_Electrostatic_Energy-OPLS-2005>
-433.950286865234

> <r_mmod_Solvation_Energy-OPLS-2005>
-461.365478515625

> <b_mmod_Minimization_Converged-OPLS-2005>
0

> <r_mmod_RMS_Derivative-OPLS-2005>
2.32537460327148

$$$$
95
                    3D
 Structure written by MMmdl.
154162  0  0  1  0            999 V2000
  -30.6655  -14.6092   20.4779 C   0  0  0  0  0  0
  -30.4224  -12.3699   19.4587 C   0  0  0  0  0  0
  -29.5016  -12.4942   18.2257 C   0  0  0  0  0  0
  -28.0254  -12.3414   18.6385 C   0  0  0  0  0  0
  -27.6493  -13.2228   19.8601 C   0  0  2  0  0  0
  -28.6937  -13.1055   20.9939 C   0  0  0  0  0  0
  -25.2535  -13.8189   20.5695 C   0  0  0  0  0  0
  -24.1819  -13.0444   20.9197 C   0  0  0  0  0  0
  -24.6394  -11.6917   20.8748 C   0  0  0  0  0  0
  -23.9066  -10.4296   21.0409 C   0  0  0  0  0  0
  -24.3617   -9.4207   21.9185 C   0  0  0  0  0  0
  -23.6292   -8.2245   22.0753 C   0  0  0  0  0  0
  -22.4275   -8.0282   21.3542 C   0  0  0  0  0  0
  -21.9911   -9.0255   20.4645 C   0  0  0  0  0  0
  -22.7241  -10.2136   20.3055 C   0  0  0  0  0  0
  -21.6855   -6.0734   22.5276 C   0  0  0  0  0  0
  -21.4016   -6.5641   23.8205 C   0  0  0  0  0  0
  -21.3659   -5.6794   24.9170 C   0  0  0  0  0  0
  -21.6046   -4.3056   24.7224 C   0  0  0  0  0  0
  -21.8820   -3.8147   23.4343 C   0  0  0  0  0  0
  -21.9192   -4.6961   22.3399 C   0  0  0  0  0  0
  -22.7840  -13.5227   21.1861 C   0  0  0  0  0  0
  -22.1663   -4.2147   21.0977 F   0  0  0  0  0  0
  -21.5628   -3.4538   25.7737 F   0  0  0  0  0  0
  -30.0112  -13.4103   20.4219 N   0  0  0  0  0  0
  -26.2971  -12.9387   20.3326 N   0  0  0  0  0  0
  -25.9322  -11.6534   20.5769 N   0  0  0  0  0  0
  -22.0484  -12.8212   22.0409 N   0  0  0  0  0  0
  -25.4238  -15.1911   20.4103 N   0  0  0  0  0  0
  -31.8404  -14.7131   20.1209 O   0  0  0  0  0  0
  -21.6641   -6.8877   21.4238 O   0  0  0  0  0  0
  -22.3519  -14.5534   20.6708 O   0  0  0  0  0  0
  -24.6235  -31.8607   23.2041 C   0  0  0  0  0  0
  -25.9101  -32.4776   23.8356 C   0  0  1  0  0  0
  -27.2269  -27.3473   20.1057 C   0  0  0  0  0  0
  -25.5931  -33.8579   24.2296 N   0  0  0  0  0  0
  -23.4141  -30.4852   21.5457 C   0  0  2  0  0  0
  -24.8564  -28.9396   20.1116 C   0  0  0  0  0  0
  -22.7459  -29.4633   22.4948 C   0  0  0  0  0  0
  -18.0272  -28.1392   22.8466 C   0  0  0  0  0  0
  -24.1488  -36.7310   23.2635 C   0  0  0  0  0  0
  -25.9490  -30.8031   21.3645 C   0  0  0  0  0  0
  -26.0220  -29.4305   20.7104 C   0  0  0  0  0  0
  -27.2058  -28.6438   20.6992 C   0  0  0  0  0  0
  -26.0296  -26.8874   19.5099 C   0  0  0  0  0  0
  -24.8597  -27.6715   19.5070 C   0  0  0  0  0  0
  -23.6249  -29.8185   20.1596 C   0  0  0  0  0  0
  -25.4109  -36.3086   24.0322 C   0  0  1  0  0  0
  -20.5867  -28.3698   23.1270 C   0  0  2  0  0  0
  -20.6764  -26.9431   22.5401 C   0  0  0  0  0  0
  -19.5753  -26.6397   21.5190 C   0  0  0  0  0  0
  -18.1929  -26.7936   22.1600 C   0  0  0  0  0  0
  -19.1523  -28.8860   23.2859 C   0  0  0  0  0  0
  -18.9461  -30.1454   23.8893 C   0  0  0  0  0  0
  -17.6467  -30.6592   24.0563 C   0  0  0  0  0  0
  -25.9049  -34.9451   23.5110 C   0  0  0  0  0  0
  -16.5352  -29.9105   23.6314 C   0  0  0  0  0  0
  -16.7264  -28.6519   23.0336 C   0  0  0  0  0  0
  -26.4504  -31.6578   25.0718 C   0  0  0  0  0  0
  -25.3748  -31.3692   26.1459 C   0  0  0  0  0  0
  -27.0343  -30.3012   24.6133 C   0  0  0  0  0  0
  -27.6067  -32.4312   25.7492 C   0  0  0  0  0  0
  -27.5581  -37.1814   24.8465 C   0  0  0  0  0  0
  -21.4178  -29.3052   22.3684 N   0  0  0  0  0  0
  -26.4291  -37.3779   23.9411 N   0  0  0  0  0  0
  -24.6812  -31.0663   22.0959 N   0  0  0  0  0  0
  -23.4200  -28.8157   23.3004 O   0  0  0  0  0  0
  -28.3927  -26.5780   20.1531 O   0  0  0  0  0  0
  -26.5613  -34.8907   22.4673 O   0  0  0  0  0  0
  -23.5413  -32.1387   23.7405 O   0  0  0  0  0  0
  -28.7874  -20.9022   21.9744 C   0  0  0  0  0  0
  -29.4298  -18.5330   22.2464 C   0  0  0  0  0  0
  -29.7065  -18.4251   20.8517 C   0  0  0  0  0  0
  -29.0937  -20.8635   20.6058 C   0  0  0  0  0  0
  -28.9546  -19.7623   22.7844 C   0  0  0  0  0  0
  -29.5490  -19.6187   20.0524 C   0  0  0  0  0  0
  -29.6869  -17.3549   23.1811 C   0  0  0  0  0  0
  -30.2961  -17.1075   20.2182 C   0  0  0  0  0  0
  -28.5057  -25.2428   19.5530 C   0  0  0  0  0  0
  -28.5257  -23.9713   20.4931 C   0  0  0  0  0  0
  -29.9110  -15.7296   20.6824 N   0  0  0  0  0  0
  -28.9126  -22.3715   19.5931 S   0  0  0  0  0  0
  -28.5771  -19.9298   24.4645 Cl  0  0  0  0  0  0
  -29.9564  -19.5813   18.3680 Cl  0  0  0  0  0  0
  -31.4678  -12.4655   19.1579 H   0  0  0  0  0  0
  -30.3318  -11.3813   19.9106 H   0  0  0  0  0  0
  -29.7611  -11.7381   17.4836 H   0  0  0  0  0  0
  -29.6526  -13.4620   17.7442 H   0  0  0  0  0  0
  -27.8601  -11.2904   18.8777 H   0  0  0  0  0  0
  -27.3713  -12.5671   17.7959 H   0  0  0  0  0  0
  -27.6616  -14.2538   19.5063 H   0  0  0  0  0  0
  -28.6942  -12.1002   21.4186 H   0  0  0  0  0  0
  -28.4524  -13.7815   21.8156 H   0  0  0  0  0  0
  -25.2762   -9.5686   22.4761 H   0  0  0  0  0  0
  -24.0000   -7.4638   22.7473 H   0  0  0  0  0  0
  -21.0844   -8.8774   19.8952 H   0  0  0  0  0  0
  -22.3697  -10.9673   19.6167 H   0  0  0  0  0  0
  -21.2011   -7.6150   23.9710 H   0  0  0  0  0  0
  -21.1482   -6.0526   25.9074 H   0  0  0  0  0  0
  -22.0600   -2.7609   23.2844 H   0  0  0  0  0  0
  -22.4105  -11.9872   22.4795 H   0  0  0  0  0  0
  -21.1102  -13.1231   22.2623 H   0  0  0  0  0  0
  -24.6546  -15.8430   20.5191 H   0  0  0  0  0  0
  -26.2674  -15.6310   20.0664 H   0  0  0  0  0  0
  -26.7168  -32.5454   23.1106 H   0  0  0  0  0  0
  -25.0079  -33.9721   25.0445 H   0  0  0  0  0  0
  -22.7044  -31.3027   21.4034 H   0  0  0  0  0  0
  -23.3734  -35.9665   23.3303 H   0  0  0  0  0  0
  -24.3577  -36.8934   22.2050 H   0  0  0  0  0  0
  -23.7256  -37.6513   23.6658 H   0  0  0  0  0  0
  -26.0691  -31.5667   20.5939 H   0  0  0  0  0  0
  -26.8345  -30.8562   21.9868 H   0  0  0  0  0  0
  -28.1047  -29.0206   21.1666 H   0  0  0  0  0  0
  -25.9541  -25.9096   19.0611 H   0  0  0  0  0  0
  -23.9608  -27.2841   19.0470 H   0  0  0  0  0  0
  -23.7440  -30.5940   19.4018 H   0  0  0  0  0  0
  -22.7456  -29.2480   19.8558 H   0  0  0  0  0  0
  -25.1289  -36.1936   25.0813 H   0  0  0  0  0  0
  -20.9934  -28.3289   24.1401 H   0  0  0  0  0  0
  -20.5646  -26.2334   23.3612 H   0  0  0  0  0  0
  -21.6643  -26.7467   22.1219 H   0  0  0  0  0  0
  -19.6927  -25.6304   21.1243 H   0  0  0  0  0  0
  -19.6685  -27.3183   20.6696 H   0  0  0  0  0  0
  -17.4199  -26.6643   21.4013 H   0  0  0  0  0  0
  -18.0347  -26.0086   22.9007 H   0  0  0  0  0  0
  -19.7938  -30.7242   24.2299 H   0  0  0  0  0  0
  -17.5029  -31.6271   24.5176 H   0  0  0  0  0  0
  -15.5356  -30.3016   23.7643 H   0  0  0  0  0  0
  -15.8655  -28.0841   22.7064 H   0  0  0  0  0  0
  -24.5934  -30.7027   25.7795 H   0  0  0  0  0  0
  -24.8920  -32.2836   26.4905 H   0  0  0  0  0  0
  -25.8093  -30.8868   27.0222 H   0  0  0  0  0  0
  -26.2894  -29.6760   24.1201 H   0  0  0  0  0  0
  -27.4099  -29.7278   25.4615 H   0  0  0  0  0  0
  -27.8735  -30.4321   23.9307 H   0  0  0  0  0  0
  -27.2684  -33.3616   26.2067 H   0  0  0  0  0  0
  -28.3876  -32.6870   25.0320 H   0  0  0  0  0  0
  -28.0730  -31.8432   26.5407 H   0  0  0  0  0  0
  -28.2601  -38.0112   24.7505 H   0  0  0  0  0  0
  -28.1071  -36.2638   24.6297 H   0  0  0  0  0  0
  -27.2301  -37.1479   25.8870 H   0  0  0  0  0  0
  -20.9371  -29.8810   21.6917 H   0  0  0  0  0  0
  -26.0170  -38.2858   24.1398 H   0  0  0  0  0  0
  -28.4382  -21.8196   22.4227 H   0  0  0  0  0  0
  -30.6440  -16.8872   22.9526 H   0  0  0  0  0  0
  -28.8987  -16.6096   23.0791 H   0  0  0  0  0  0
  -29.7450  -17.6339   24.2316 H   0  0  0  0  0  0
  -31.3802  -17.2132   20.2834 H   0  0  0  0  0  0
  -30.0737  -17.1002   19.1522 H   0  0  0  0  0  0
  -27.8061  -25.0851   18.7351 H   0  0  0  0  0  0
  -29.4722  -25.2624   19.0498 H   0  0  0  0  0  0
  -27.5676  -23.8698   21.0026 H   0  0  0  0  0  0
  -29.2777  -24.1129   21.2700 H   0  0  0  0  0  0
  -28.9477  -15.5865   20.9420 H   0  0  0  0  0  0
  1 25  1  0  0  0
  1 30  2  0  0  0
  1 81  1  0  0  0
  2  3  1  0  0  0
  2 25  1  0  0  0
  2 85  1  0  0  0
  2 86  1  0  0  0
  3  4  1  0  0  0
  3 87  1  0  0  0
  3 88  1  0  0  0
  4  5  1  0  0  0
  4 89  1  0  0  0
  4 90  1  0  0  0
  5  6  1  0  0  0
  5 26  1  0  0  0
  5 91  1  0  0  0
  6 25  1  0  0  0
  6 92  1  0  0  0
  6 93  1  0  0  0
  7  8  2  0  0  0
  7 26  1  0  0  0
  7 29  1  0  0  0
  8  9  1  0  0  0
  8 22  1  0  0  0
  9 10  1  0  0  0
  9 27  2  0  0  0
 10 11  2  0  0  0
 10 15  1  0  0  0
 11 12  1  0  0  0
 11 94  1  0  0  0
 12 13  2  0  0  0
 12 95  1  0  0  0
 13 14  1  0  0  0
 13 31  1  0  0  0
 14 15  2  0  0  0
 14 96  1  0  0  0
 15 97  1  0  0  0
 16 17  2  0  0  0
 16 21  1  0  0  0
 16 31  1  0  0  0
 17 18  1  0  0  0
 17 98  1  0  0  0
 18 19  2  0  0  0
 18 99  1  0  0  0
 19 20  1  0  0  0
 19 24  1  0  0  0
 20 21  2  0  0  0
 20100  1  0  0  0
 21 23  1  0  0  0
 22 28  1  0  0  0
 22 32  2  0  0  0
 26 27  1  0  0  0
 28101  1  0  0  0
 28102  1  0  0  0
 29103  1  0  0  0
 29104  1  0  0  0
 33 34  1  0  0  0
 33 66  1  0  0  0
 33 70  2  0  0  0
 34 36  1  0  0  0
 34 59  1  0  0  0
 34105  1  0  0  0
 35 44  2  0  0  0
 35 45  1  0  0  0
 35 68  1  0  0  0
 36 56  1  0  0  0
 36106  1  0  0  0
 37 39  1  0  0  0
 37 47  1  0  0  0
 37 66  1  0  0  0
 37107  1  0  0  0
 38 43  2  0  0  0
 38 46  1  0  0  0
 38 47  1  0  0  0
 39 64  1  0  0  0
 39 67  2  0  0  0
 40 52  1  0  0  0
 40 53  2  0  0  0
 40 58  1  0  0  0
 41108  1  0  0  0
 41109  1  0  0  0
 41110  1  0  0  0
 41 48  1  0  0  0
 42 43  1  0  0  0
 42 66  1  0  0  0
 42111  1  0  0  0
 42112  1  0  0  0
 43 44  1  0  0  0
 44113  1  0  0  0
 45 46  2  0  0  0
 45114  1  0  0  0
 46115  1  0  0  0
 47116  1  0  0  0
 47117  1  0  0  0
 48 56  1  0  0  0
 48 65  1  0  0  0
 48118  1  0  0  0
 49 50  1  0  0  0
 49 53  1  0  0  0
 49 64  1  0  0  0
 49119  1  0  0  0
 50 51  1  0  0  0
 50120  1  0  0  0
 50121  1  0  0  0
 51 52  1  0  0  0
 51122  1  0  0  0
 51123  1  0  0  0
 52124  1  0  0  0
 52125  1  0  0  0
 53 54  1  0  0  0
 54 55  2  0  0  0
 54126  1  0  0  0
 55 57  1  0  0  0
 55127  1  0  0  0
 56 69  2  0  0  0
 57 58  2  0  0  0
 57128  1  0  0  0
 58129  1  0  0  0
 59 60  1  0  0  0
 59 61  1  0  0  0
 59 62  1  0  0  0
 60130  1  0  0  0
 60131  1  0  0  0
 60132  1  0  0  0
 61133  1  0  0  0
 61134  1  0  0  0
 61135  1  0  0  0
 62136  1  0  0  0
 62137  1  0  0  0
 62138  1  0  0  0
 63 65  1  0  0  0
 63139  1  0  0  0
 63140  1  0  0  0
 63141  1  0  0  0
 64142  1  0  0  0
 65143  1  0  0  0
 68 79  1  0  0  0
 71 74  2  0  0  0
 71 75  1  0  0  0
 71144  1  0  0  0
 72 73  1  0  0  0
 72 75  2  0  0  0
 72 77  1  0  0  0
 73 76  2  0  0  0
 73 78  1  0  0  0
 74 76  1  0  0  0
 74 82  1  0  0  0
 75 83  1  0  0  0
 76 84  1  0  0  0
 77145  1  0  0  0
 77146  1  0  0  0
 77147  1  0  0  0
 78 81  1  0  0  0
 78148  1  0  0  0
 78149  1  0  0  0
 79 80  1  0  0  0
 79150  1  0  0  0
 79151  1  0  0  0
 80 82  1  0  0  0
 80152  1  0  0  0
 80153  1  0  0  0
 81154  1  0  0  0
M  ISO  4   1 100  68 101  79 101  81 100
M  END
> <chiral flag>
0

> <version>
0

> <s_m_source_file>
/data/baiqing/PycharmProjects/Reinvent-master-3.2/result/LINK_invent/BTK/process_docking_weight1_custom_product_contain_oxygen_bond_distance_aromatic_linkinvent_7_9_3/rearranged_h_0037.sdf

> <i_m_source_file_index>
96

> <r_mmod_Potential_Energy-OPLS-2005>
13.7763338088989

> <r_mmod_Stretch_Energy-OPLS-2005>
72.4433670043945

> <r_mmod_Bend_Energy-OPLS-2005>
141.861190795898

> <r_mmod_Torsional_Energy-OPLS-2005>
196.783462524414

> <r_mmod_Improper_Torsional_Energy-OPLS-2005>
7.31909608840942

> <r_mmod_Van_der_Waal_Energy-OPLS-2005>
152.011138916016

> <r_mmod_Electrostatic_Energy-OPLS-2005>
-384.738250732422

> <r_mmod_Solvation_Energy-OPLS-2005>
-210.068267822266

> <b_mmod_Minimization_Converged-OPLS-2005>
0

> <r_mmod_RMS_Derivative-OPLS-2005>
1.33883213996887

$$$$
